data_functionalizedCrystal
_audit_creation_method	'MofGen! by Chris Wilmer'
_symmetry_space_group_name_H-M	'P1'
_symmetry_Int_Tables_number	1
_symmetry_cell_setting	triclinic
loop_
_symmetry_equiv_pos_as_xyz
  x,y,z
_cell_length_a	19.288864
_cell_length_b	16.098538
_cell_length_c	19.288857
_cell_angle_alpha	87.288895
_cell_angle_beta	83.134677
_cell_angle_gamma	92.743008
loop_
_atom_site_label
_atom_site_type_symbol
_atom_site_fract_x
_atom_site_fract_y
_atom_site_fract_z
O1	O	0.924478	0.069528	0.083522
O2	O	1.257811	0.402861	0.416855
O3	O	1.591145	0.736195	0.750189
O4	O	0.722215	0.069472	0.095213
O5	O	1.055548	0.402805	0.428547
O6	O	1.388881	0.736138	0.761880
O7	O	0.829193	0.069491	-0.011763
O8	O	1.162526	0.402825	0.321571
O9	O	1.495860	0.736158	0.654904
O10	O	0.817500	0.069508	0.190498
O11	O	1.150833	0.402841	0.523831
O12	O	1.484166	0.736175	0.857165
O13	O	0.822944	-0.069023	-0.005538
O14	O	1.156277	0.264311	0.327795
O15	O	1.489611	0.597644	0.661128
O16	O	0.715965	-0.069043	0.101438
O17	O	1.049299	0.264291	0.434771
O18	O	1.382632	0.597624	0.768104
O19	O	0.918229	-0.068986	0.089746
O20	O	1.251562	0.264347	0.423080
O21	O	1.584896	0.597681	0.756413
Zn22	Zn	0.816105	-0.091006	0.096580
Zn23	Zn	1.149438	0.242327	0.429914
Zn24	Zn	1.482772	0.575660	0.763247
Zn25	Zn	0.824338	0.091492	0.088379
Zn26	Zn	1.157672	0.424825	0.421713
Zn27	Zn	1.491005	0.758158	0.755046
O28	O	0.811250	-0.069006	0.196722
O29	O	1.144584	0.264327	0.530056
O30	O	1.477917	0.597661	0.863389
C31	C	0.693213	0.000207	0.097950
C32	C	1.026547	0.333540	0.431283
C33	C	1.359880	0.666874	0.764616
C34	C	0.616109	0.000185	0.096822
C35	C	0.949442	0.333519	0.430155
C36	C	1.282775	0.666852	0.763488
N37	N	0.810491	-0.215557	0.102177
N38	N	1.143824	0.117777	0.435510
N39	N	1.477158	0.451110	0.768844
C40	C	0.571412	0.000204	0.159589
C41	C	0.904745	0.333537	0.492922
C42	C	1.238078	0.666870	0.826256
C43	C	0.498965	0.000213	0.158528
C44	C	0.832298	0.333546	0.491861
C45	C	1.165632	0.666879	0.825195
C46	C	0.471219	0.000220	0.094695
C47	C	0.804553	0.333554	0.428028
C48	C	1.137886	0.666887	0.761362
C49	C	0.515926	0.000197	0.031920
C50	C	0.849260	0.333531	0.365253
C51	C	1.182593	0.666864	0.698586
C52	C	0.588371	0.000180	0.032983
C53	C	0.921704	0.333513	0.366316
C54	C	1.255038	0.666846	0.699650
C55	C	0.365149	0.048772	0.042334
C56	C	0.698483	0.382105	0.375667
C57	C	1.031816	0.715438	0.709001
C58	C	0.292706	0.048794	0.041273
C59	C	0.626039	0.382128	0.374606
C60	C	0.959372	0.715461	0.707940
C61	C	0.247776	0.000270	0.091413
C62	C	0.581110	0.333604	0.424747
C63	C	0.914443	0.666937	0.758080
C64	C	0.275298	-0.048265	0.142626
C65	C	0.608631	0.285068	0.475959
C66	C	0.941965	0.618401	0.809292
C67	C	0.347742	-0.048283	0.143689
C68	C	0.681076	0.285050	0.477022
C69	C	1.014409	0.618384	0.810356
C70	C	0.392666	0.000239	0.093535
C71	C	0.726000	0.333572	0.426869
C72	C	1.059333	0.666905	0.760202
C73	C	0.124523	0.000297	0.153034
C74	C	0.457857	0.333631	0.486368
C75	C	0.791190	0.666964	0.819701
C76	C	0.052076	0.000301	0.151971
C77	C	0.385409	0.333635	0.485304
C78	C	0.718742	0.666968	0.818638
C79	C	0.069039	0.000294	0.025361
C80	C	0.402372	0.333628	0.358694
C81	C	0.735706	0.666961	0.692027
C82	C	0.141485	0.000282	0.026426
C83	C	0.474818	0.333615	0.359760
C84	C	0.808151	0.666949	0.693093
C85	C	0.169223	0.000287	0.090265
C86	C	0.502556	0.333621	0.423598
C87	C	0.835889	0.666954	0.756932
C88	C	0.855913	-0.259133	0.056788
C89	C	1.189247	0.074200	0.390121
C90	C	1.522580	0.407533	0.723455
C91	C	0.851993	-0.346323	0.060710
C92	C	1.185326	-0.012990	0.394043
C93	C	1.518659	0.320344	0.727376
C94	C	0.802652	-0.389934	0.110024
C95	C	1.135985	-0.056601	0.443358
C96	C	1.469319	0.276732	0.776691
C97	C	0.757225	-0.346352	0.155415
C98	C	1.090558	-0.013018	0.488748
C99	C	1.423891	0.320315	0.822082
C100	C	0.761143	-0.259164	0.151490
C101	C	1.094476	0.074170	0.484823
C102	C	1.427809	0.407503	0.818156
C103	C	0.788449	-0.653187	0.124243
C104	C	1.121782	-0.319854	0.457576
C105	C	1.455115	0.013480	0.790909
C106	C	0.784536	-0.740381	0.128166
C107	C	1.117869	-0.407048	0.461499
C108	C	1.451202	-0.073715	0.794833
C109	C	0.879303	-0.740347	0.033459
C110	C	1.212636	-0.407013	0.366793
C111	C	1.545970	-0.073680	0.700126
C112	C	0.883219	-0.653157	0.029541
C113	C	1.216553	-0.319823	0.362874
C114	C	1.549886	0.013510	0.696208
C115	C	0.837790	-0.609582	0.074929
C116	C	1.171123	-0.276248	0.408263
C117	C	1.504456	0.057085	0.741596
C118	C	0.798645	-0.479056	0.114035
C119	C	1.131978	-0.145723	0.447369
C120	C	1.465311	0.187610	0.780702
C121	C	0.841794	-0.520461	0.070914
C122	C	1.175128	-0.187128	0.404248
C123	C	1.508461	0.146205	0.737581
C124	C	0.947230	0.000280	0.087010
C125	C	1.280564	0.333613	0.420343
C126	C	1.613897	0.666947	0.753677
C127	C	1.024335	0.000307	0.088138
C128	C	1.357668	0.333641	0.421471
C129	C	1.691002	0.666974	0.754804
C130	C	0.825693	0.000233	-0.034527
C131	C	1.159026	0.333567	0.298806
C132	C	1.492360	0.666900	0.632140
C133	C	0.824566	0.000231	-0.111631
C134	C	1.157899	0.333564	0.221703
C135	C	1.491233	0.666897	0.555036
N136	N	0.829958	0.216042	0.082777
N137	N	1.163291	0.549375	0.416110
N138	N	1.496625	0.882709	0.749444
C139	C	0.827447	0.075735	-0.151234
C140	C	1.160780	0.409068	0.182099
C141	C	1.494113	0.742401	0.515432
C142	C	0.826378	0.075741	-0.223681
C143	C	1.159711	0.409074	0.109653
C144	C	1.493045	0.742407	0.442986
C145	C	0.822443	0.000238	-0.256522
C146	C	1.155776	0.333572	0.076811
C147	C	1.489110	0.666905	0.410144
C148	C	0.819558	-0.075276	-0.216909
C149	C	1.152892	0.258058	0.116424
C150	C	1.486225	0.591391	0.449758
C151	C	0.820620	-0.075279	-0.144463
C152	C	1.153953	0.258054	0.188870
C153	C	1.487286	0.591387	0.522204
C154	C	0.858836	-0.057590	-0.374155
C155	C	1.192169	0.275743	-0.040822
C156	C	1.525502	0.609076	0.292512
C157	C	0.857779	-0.057583	-0.446600
C158	C	1.191112	0.275750	-0.113267
C159	C	1.524445	0.609083	0.220067
C160	C	0.819166	0.000247	-0.479968
C161	C	1.152499	0.333580	-0.146635
C162	C	1.485832	0.666913	0.186698
C163	C	0.781620	0.058084	-0.440885
C164	C	1.114953	0.391417	-0.107551
C165	C	1.448286	0.724751	0.225782
C166	C	0.782681	0.058080	-0.368439
C167	C	1.116014	0.391413	-0.035106
C168	C	1.449348	0.724747	0.298228
C169	C	0.821291	0.000234	-0.335077
C170	C	1.154625	0.333567	-0.001744
C171	C	1.487958	0.666901	0.331590
C172	C	0.820887	0.075762	-0.598127
C173	C	1.154220	0.409096	-0.264793
C174	C	1.487554	0.742429	0.068540
C175	C	0.819814	0.075765	-0.670574
C176	C	1.153147	0.409098	-0.337240
C177	C	1.486481	0.742432	-0.003907
C178	C	0.813001	-0.075253	-0.663801
C179	C	1.146334	0.258080	-0.330468
C180	C	1.479668	0.591413	0.002865
C181	C	0.814067	-0.075254	-0.591355
C182	C	1.147400	0.258079	-0.258022
C183	C	1.480734	0.591413	0.075312
C184	C	0.818013	0.000256	-0.558522
C185	C	1.151347	0.333590	-0.225189
C186	C	1.484680	0.666923	0.108144
C187	C	0.814750	0.000254	0.219487
C188	C	1.148084	0.333587	0.552820
C189	C	1.481417	0.666920	0.886153
C190	C	0.815878	0.000262	0.296590
C191	C	1.149211	0.333595	0.629923
C192	C	1.482544	0.666929	0.963257
H193	H	0.593991	0.000210	0.211571
H194	H	0.927324	0.333543	0.544905
H195	H	1.260657	0.666876	0.878238
H196	H	0.916289	-0.775833	-0.003495
H197	H	1.249622	-0.442500	0.329839
H198	H	1.582956	-0.109167	0.663172
H199	H	0.752108	0.105171	-0.336619
H200	H	1.085442	0.438505	-0.003286
H201	H	1.418775	0.771838	0.330047
H202	H	0.717047	-0.381865	0.195566
H203	H	1.050380	-0.048532	0.528899
H204	H	1.383714	0.284801	0.862232
H205	H	0.744355	-0.775886	0.168327
H206	H	1.077688	-0.442552	0.501660
H207	H	1.411021	-0.109219	0.834993
H208	H	0.816352	-0.136750	-0.243653
H209	H	1.149686	0.196583	0.089681
H210	H	1.483019	0.529916	0.423014
H211	H	0.724154	-0.223684	0.188449
H212	H	1.057487	0.109649	0.521783
H213	H	1.390821	0.442982	0.855116
H214	H	0.370148	-0.087805	0.185386
H215	H	0.703481	0.245528	0.518719
H216	H	1.036814	0.578862	0.852052
H217	H	0.046452	0.000352	-0.026616
H218	H	0.379785	0.333685	0.306718
H219	H	0.713119	0.667019	0.640051
H220	H	0.888979	-0.381803	0.023750
H221	H	1.222312	-0.048469	0.357084
H222	H	1.555645	0.284864	0.690417
H223	H	0.758472	-0.514572	0.154189
H224	H	1.091805	-0.181239	0.487523
H225	H	1.425138	0.152095	0.820856
H226	H	0.751459	-0.617715	0.161201
H227	H	1.084793	-0.284382	0.494534
H228	H	1.418126	0.048952	0.827868
H229	H	0.881965	-0.484950	0.030760
H230	H	1.215298	-0.151617	0.364093
H231	H	1.548632	0.181716	0.697427
H232	H	0.238717	-0.087779	0.183454
H233	H	0.572050	0.245554	0.516788
H234	H	0.905384	0.578888	0.850121
H235	H	0.896095	-0.223631	0.016634
H236	H	1.229428	0.109703	0.349967
H237	H	1.562761	0.443036	0.683301
H238	H	0.401726	0.088291	0.001502
H239	H	0.735060	0.421624	0.334836
H240	H	1.068393	0.754957	0.668169
H241	H	0.830658	0.137221	-0.124507
H242	H	1.163991	0.470554	0.208827
H243	H	1.497325	0.803888	0.542160
H244	H	0.828720	0.137227	-0.255932
H245	H	1.162053	0.470560	0.077402
H246	H	1.495386	0.803894	0.410735
H247	H	0.750177	0.105175	-0.468051
H248	H	1.083511	0.438508	-0.134718
H249	H	1.416844	0.771841	0.198615
H250	H	0.493332	0.000215	-0.020054
H251	H	0.826665	0.333548	0.313280
H252	H	1.159999	0.666881	0.646613
H253	H	0.822156	0.137252	-0.702818
H254	H	1.155490	0.470585	-0.369484
H255	H	1.488823	0.803919	-0.036151
H256	H	0.809792	-0.136729	-0.690539
H257	H	1.143125	0.196604	-0.357206
H258	H	1.476458	0.529938	-0.023873
H259	H	0.824096	0.137247	-0.571393
H260	H	1.157429	0.470581	-0.238059
H261	H	1.490763	0.803914	0.095274
H262	H	0.923396	-0.617650	-0.010615
H263	H	1.256730	-0.284317	0.322719
H264	H	1.590063	0.049017	0.656052
H265	H	0.811727	-0.136738	-0.559110
H266	H	1.145061	0.196596	-0.225776
H267	H	1.478394	0.529929	0.107557
H268	H	0.818271	-0.136766	-0.112217
H269	H	1.151604	0.196567	0.221116
H270	H	1.484938	0.529901	0.554449
H271	H	0.624764	0.000165	-0.018131
H272	H	0.958098	0.333499	0.315202
H273	H	1.291431	0.666832	0.648535
H274	H	0.462565	0.000225	0.209642
H275	H	0.795899	0.333559	0.542976
H276	H	1.129232	0.666892	0.876309
H277	H	0.890278	-0.104689	-0.346992
H278	H	1.223611	0.228645	-0.013659
H279	H	1.556945	0.561978	0.319674
H280	H	0.147108	0.000290	0.205016
H281	H	0.480441	0.333623	0.538349
H282	H	0.813775	0.666956	0.871683
H283	H	0.177879	0.000272	-0.024686
H284	H	0.511212	0.333605	0.308647
H285	H	0.844545	0.666938	0.641981
H286	H	0.015683	0.000311	0.203086
H287	H	0.349016	0.333645	0.536419
H288	H	0.682349	0.666978	0.869753
H289	H	0.270304	0.088318	-0.000424
H290	H	0.603637	0.421652	0.332909
H291	H	0.936970	0.754985	0.666242
H292	H	0.888354	-0.104675	-0.478417
H293	H	1.221687	0.228659	-0.145084
H294	H	1.555020	0.561992	0.188249
