data_functionalizedCrystal
_audit_creation_method	'MofGen! by Chris Wilmer'
_symmetry_space_group_name_H-M	'P1'
_symmetry_Int_Tables_number	1
_symmetry_cell_setting	triclinic
loop_
_symmetry_equiv_pos_as_xyz
  x,y,z
_cell_length_a	17.699083
_cell_length_b	17.699083
_cell_length_c	16.776229
_cell_angle_alpha	89.992455
_cell_angle_beta	89.998886
_cell_angle_gamma	83.283015
loop_
_atom_site_label
_atom_site_type_symbol
_atom_site_fract_x
_atom_site_fract_y
_atom_site_fract_z
O1	O	-1.004078	-0.095713	0.066178
O2	O	-0.783700	-0.108165	0.066204
O3	O	-0.900116	0.008250	0.066183
O4	O	-0.887663	-0.212128	0.066199
O5	O	-0.900100	0.008257	-0.066393
O6	O	-0.783685	-0.108158	-0.066372
O7	O	-1.004063	-0.095706	-0.066398
Zn8	Zn	-0.893871	-0.101931	-0.087435
Zn9	Zn	-0.893892	-0.101940	0.087241
O10	O	-0.887648	-0.212121	-0.066378
C11	C	-0.755495	-0.107716	-0.000081
C12	C	-0.671477	-0.106377	-0.000071
C13	C	-0.899662	0.036451	-0.000105
C14	C	-0.898323	0.120469	-0.000105
C15	C	-1.032268	-0.096156	-0.000112
C16	C	-1.116286	-0.097494	-0.000116
C17	C	-0.622856	-0.174710	-0.000066
C18	C	-0.543913	-0.173448	-0.000077
C19	C	-0.513592	-0.103852	-0.000086
C20	C	-0.562219	-0.035513	-0.000093
C21	C	-0.641161	-0.036776	-0.000088
C22	C	-0.243856	-0.030418	-0.000113
C23	C	-0.164908	-0.029160	-0.000115
C24	C	-0.146608	-0.167090	-0.000101
C25	C	-0.225550	-0.168353	-0.000097
C26	C	-0.274170	-0.100015	-0.000108
C27	C	-0.359769	-0.101384	-0.000098
C28	C	-0.427995	-0.102481	-0.000090
C29	C	-0.888102	-0.240322	-0.000087
C30	C	-0.889440	-0.324340	-0.000082
N31	N	-0.893863	-0.101924	-0.206646
C32	C	-0.966656	0.169090	-0.000114
C33	C	-0.965394	0.248033	-0.000107
C34	C	-0.895798	0.278354	-0.000096
C35	C	-0.827459	0.229727	-0.000085
C36	C	-0.828722	0.150785	-0.000086
C37	C	-0.822364	0.548090	-0.000078
C38	C	-0.821106	0.627038	-0.000078
C39	C	-0.959036	0.645338	-0.000099
C40	C	-0.960299	0.566396	-0.000100
C41	C	-0.891961	0.517776	-0.000084
C42	C	-0.893330	0.432177	-0.000090
C43	C	-0.894427	0.363951	-0.000096
C44	C	-0.945428	-0.050396	-0.248372
C45	C	-0.945432	-0.050396	-0.331824
C46	C	-0.893875	-0.101927	-0.373549
C47	C	-0.842305	-0.153457	-0.331817
C48	C	-0.842297	-0.153454	-0.248366
C49	C	-0.842332	-0.153472	-0.668364
C50	C	-0.842345	-0.153473	-0.751820
C51	C	-0.945466	-0.050414	-0.751822
C52	C	-0.945459	-0.050411	-0.668372
C53	C	-0.893887	-0.101938	-0.626647
C54	C	-0.893882	-0.101937	-0.536158
C55	C	-0.893882	-0.101932	-0.464036
N56	N	-0.893906	-0.101941	0.206452
H57	H	-0.504328	-0.229092	-0.000072
O58	O	-0.135418	0.038431	0.000012
C59	C	-0.090287	0.043280	0.068663
H60	H	-0.108887	0.003767	0.116662
H61	H	-0.097482	0.104293	0.091699
H62	H	-0.028000	0.025703	0.053142
H63	H	-0.800308	-0.195412	-0.214393
O64	O	-0.755931	0.500946	0.000035
C65	C	-0.713682	0.514653	0.068710
H66	H	-0.732385	0.574568	0.091601
H67	H	-0.650546	0.508992	0.053271
H68	H	-0.723950	0.471484	0.116789
O69	O	-1.034330	0.139765	-0.000088
C70	C	-1.094371	0.199612	-0.000111
H71	H	-1.073253	0.253197	0.024989
H72	H	-1.142974	0.183201	0.038376
H73	H	-1.115438	0.210829	-0.063716
O74	O	-0.792212	-0.203600	-0.627963
C75	C	-0.746700	-0.249071	-0.682688
H76	H	-0.777738	-0.249887	-0.742168
H77	H	-0.735036	-0.309530	-0.658568
H78	H	-0.690527	-0.224565	-0.691579
H79	H	-0.770792	0.254420	-0.000071
H80	H	-1.014680	0.684934	-0.000107
O81	O	-0.688502	0.029533	-0.000125
C82	C	-0.764679	0.013496	-0.000100
H83	H	-0.767595	-0.045947	-0.025193
H84	H	-0.800528	0.057062	-0.038594
H85	H	-0.787514	0.016404	0.063504
O86	O	-0.762273	0.103660	-0.000113
C87	C	-0.700574	0.147347	-0.000082
H88	H	-0.719887	0.206305	-0.025188
H89	H	-0.652697	0.118139	-0.038562
H90	H	-0.679245	0.152924	0.063525
O91	O	-1.031703	0.295371	-0.000079
C92	C	-1.015669	0.371549	-0.000087
H93	H	-0.956228	0.374461	0.025019
H94	H	-1.059239	0.407387	0.038402
H95	H	-1.018574	0.394399	-0.063689
H96	H	-0.647537	-0.231384	-0.000058
H97	H	-0.764429	0.651721	-0.000071
O98	O	-0.792224	-0.203425	-0.792441
C99	C	-0.745611	-0.162943	-0.840713
H100	H	-0.775876	-0.103681	-0.853218
H101	H	-0.733585	-0.194548	-0.899394
H102	H	-0.689682	-0.157863	-0.808565
O103	O	-0.995540	-0.000265	-0.207968
C104	C	-1.041064	0.045202	-0.262697
H105	H	-1.010041	0.046014	-0.322187
H106	H	-1.052722	0.105663	-0.238597
H107	H	-1.097240	0.020697	-0.271561
O108	O	-0.532642	0.032027	-0.000068
C109	C	-0.452540	0.018491	-0.000089
H110	H	-0.433891	-0.040608	0.025016
H111	H	-0.428383	0.063016	0.038396
H112	H	-0.430573	0.022121	-0.063694
H113	H	-0.987457	-0.008456	-0.785804
H114	H	-0.250232	-0.225025	-0.000085
H115	H	-0.800322	-0.195412	-0.365793
H116	H	-1.016971	0.541714	-0.000113
H117	H	-0.107012	-0.222734	-0.000097
O118	O	-0.290971	0.036033	-0.000085
C119	C	-0.247278	0.097728	-0.000112
H120	H	-0.188324	0.078405	0.024990
H121	H	-0.276485	0.145599	0.038372
H122	H	-0.241693	0.119068	-0.063718
O123	O	-0.995423	-0.000269	-0.372389
C124	C	-0.954994	0.046370	-0.420687
H125	H	-0.895308	0.047579	-0.395551
H126	H	-0.985993	0.106566	-0.421634
H127	H	-0.950990	0.022681	-0.483931
H128	H	-0.987444	-0.008452	-0.634402
