data_functionalizedCrystal
_audit_creation_method	'MofGen! by Chris Wilmer'
_symmetry_space_group_name_H-M	'P1'
_symmetry_Int_Tables_number	1
_symmetry_cell_setting	triclinic
loop_
_symmetry_equiv_pos_as_xyz
  x,y,z
_cell_length_a	16.109301
_cell_length_b	14.586319
_cell_length_c	16.109301
_cell_angle_alpha	89.994786
_cell_angle_beta	96.538519
_cell_angle_gamma	90.000787
loop_
_atom_site_label
_atom_site_type_symbol
_atom_site_fract_x
_atom_site_fract_y
_atom_site_fract_z
O1	O	-1.103131	-0.076185	0.106866
O2	O	-0.861069	-0.076200	0.120165
O3	O	-0.988749	-0.076183	-0.007515
O4	O	-0.975450	-0.076203	0.234547
O5	O	-0.988741	0.076298	-0.007517
O6	O	-0.861060	0.076281	0.120164
O7	O	-1.103122	0.076295	0.106864
Cu8	Cu	-0.982090	0.090211	0.113514
Cu9	Cu	-0.982101	-0.090115	0.113516
O10	O	-0.975441	0.076278	0.234545
C11	C	-0.830090	0.000038	0.119626
C12	C	-0.737794	0.000033	0.118011
C13	C	-0.988206	0.000058	-0.038491
C14	C	-0.986591	0.000059	-0.130786
C15	C	-1.134101	0.000055	0.107404
C16	C	-1.226397	0.000054	0.109019
N17	N	-0.982089	0.217042	0.113512
C18	C	-0.515522	0.000038	0.190018
C19	C	-0.428801	0.000044	0.188494
C20	C	-0.448676	0.000052	0.037006
C21	C	-0.535394	0.000053	0.038530
C22	C	-0.568815	0.000041	0.115039
C23	C	-0.395376	0.000046	0.111990
C24	C	-0.301350	0.000053	0.110337
C25	C	-0.662847	0.000036	0.116693
N26	N	-0.982109	-0.216947	0.113511
C27	C	-1.038644	0.452057	0.056994
C28	C	-1.038647	0.548038	0.056992
C29	C	-0.925547	0.548032	0.170032
C30	C	-0.925541	0.452052	0.170030
C31	C	-0.982095	0.404067	0.113511
C32	C	-0.982103	0.596028	0.113512
C33	C	-0.982105	0.700095	0.113510
C34	C	-0.982092	0.299993	0.113512
C35	C	-1.058599	0.000049	-0.353059
C36	C	-1.057075	0.000041	-0.439779
C37	C	-0.905586	0.000036	-0.419905
C38	C	-0.907111	0.000037	-0.333186
C39	C	-0.983620	0.000048	-0.299766
C40	C	-0.980571	0.000039	-0.473205
C41	C	-0.978918	0.000031	-0.567231
C42	C	-0.985273	0.000055	-0.205734
C43	C	-0.975984	0.000035	0.265521
C44	C	-0.977600	0.000028	0.357816
H45	H	-0.385413	0.000043	0.249550
C46	C	-0.324566	0.000046	-0.032597
C47	C	-0.411936	0.000053	-0.047090
H48	H	-0.301888	0.000038	-0.084517
H49	H	-0.306274	0.053215	-0.001736
H50	H	-0.306282	-0.053133	-0.001721
H51	H	-0.430221	0.053235	-0.077962
H52	H	-0.430235	-0.053122	-0.077965
C53	C	-0.842186	0.000026	-0.191425
C54	C	-0.824688	0.000032	-0.274598
H55	H	-0.791303	0.000014	-0.155257
H56	H	-0.873548	0.053199	-0.181305
H57	H	-0.873563	-0.053148	-0.181305
H58	H	-0.793316	0.053210	-0.284719
H59	H	-0.793313	-0.053147	-0.284722
H60	H	-1.084694	0.587108	0.010969
H61	H	-0.879503	0.587111	0.216049
H62	H	-1.084693	0.412989	0.010972
H63	H	-0.578788	0.000058	-0.022530
C64	C	-0.813748	0.461680	0.281777
C65	C	-0.863379	0.399295	0.232161
H66	H	-0.775377	0.429107	0.320133
H67	H	-0.783856	0.499121	0.247163
H68	H	-0.848356	0.499110	0.311694
H69	H	-0.828771	0.361870	0.202239
H70	H	-0.893273	0.361838	0.266779
H71	H	-0.542730	0.000035	0.252317
C72	C	-1.208185	0.000037	-0.381417
C73	C	-1.142696	0.000045	-0.316322
H74	H	-1.260103	0.000025	-0.358737
H75	H	-1.204443	0.053208	-0.414829
H76	H	-1.204428	-0.053139	-0.414824
H77	H	-1.146449	0.053224	-0.282918
H78	H	-1.146440	-0.053132	-0.282897
H79	H	-0.843295	0.000028	-0.447127
C80	C	-1.143251	-0.078349	-0.548812
C81	C	-1.139496	0.000041	-0.498357
H82	H	-1.194140	-0.078351	-0.584971
H83	H	-1.097478	-0.078346	-0.581128
H84	H	-1.140696	-0.131513	-0.514551
H85	H	-1.142044	0.053206	-0.532618
H86	H	-1.185281	0.000047	-0.466038
