data_functionalizedCrystal
_audit_creation_method	'MofGen! by Chris Wilmer'
_symmetry_space_group_name_H-M	'P1'
_symmetry_Int_Tables_number	1
_symmetry_cell_setting	triclinic
loop_
_symmetry_equiv_pos_as_xyz
  x,y,z
_cell_length_a	14.971486
_cell_length_b	13.448316
_cell_length_c	14.971486
_cell_angle_alpha	90.007486
_cell_angle_beta	83.614129
_cell_angle_gamma	89.996448
loop_
_atom_site_label
_atom_site_type_symbol
_atom_site_fract_x
_atom_site_fract_y
_atom_site_fract_z
O1	O	-1.186940	-0.082578	-0.116566
O2	O	-0.926540	-0.082605	-0.130525
O3	O	-1.063720	-0.082584	0.006654
O4	O	-1.049761	-0.082599	-0.253746
O5	O	-1.063717	0.082800	0.006666
O6	O	-0.926537	0.082779	-0.130513
O7	O	-1.186937	0.082806	-0.116555
Cu8	Cu	-1.056737	0.097893	-0.123533
Cu9	Cu	-1.056740	-0.097692	-0.123547
O10	O	-1.049758	0.082784	-0.253734
C11	C	-0.893214	0.000083	-0.129895
C12	C	-0.793917	0.000073	-0.128024
N13	N	-1.056744	-0.235257	-0.123550
C14	C	-1.220263	0.000115	-0.117185
C15	C	-1.319561	0.000119	-0.119056
C16	C	-1.063094	0.000108	0.039985
C17	C	-1.061223	0.000107	0.139282
C18	C	-0.736692	0.000070	-0.208614
C19	C	-0.643392	0.000085	-0.206850
C20	C	-0.607320	0.000096	-0.124497
C21	C	-0.664552	0.000102	-0.043902
C22	C	-0.757850	0.000095	-0.045666
C23	C	-0.470090	0.000116	-0.040231
C24	C	-0.376786	0.000122	-0.038466
C25	C	-0.355632	0.000106	-0.201415
C26	C	-0.448930	0.000099	-0.203179
C27	C	-0.506156	0.000103	-0.122584
C28	C	-1.117600	-0.287288	-0.062927
C29	C	-1.117604	-0.391391	-0.062924
C30	C	-1.056746	-0.443461	-0.123542
C31	C	-0.995887	-0.391423	-0.184171
C32	C	-0.995888	-0.287322	-0.184177
C33	C	-0.995887	-0.608403	-0.184153
C34	C	-0.995884	-0.712512	-0.184146
C35	C	-1.117603	-0.712472	-0.062900
C36	C	-1.117604	-0.608371	-0.062906
C37	C	-1.056743	-0.556340	-0.123535
N38	N	-1.056741	0.235457	-0.123523
C39	C	-1.050384	0.000091	-0.287065
C40	C	-1.052254	0.000085	-0.386362
C41	C	-1.141812	0.000116	0.196507
C42	C	-1.140049	0.000106	0.289807
C43	C	-1.057696	0.000093	0.325879
C44	C	-0.977101	0.000081	0.268646
C45	C	-0.978865	0.000084	0.175349
C46	C	-0.973430	0.000077	0.463109
C47	C	-0.971665	0.000076	0.556413
C48	C	-1.134614	0.000099	0.577567
C49	C	-1.136378	0.000102	0.484269
C50	C	-1.055782	0.000091	0.427043
H51	H	-0.766054	0.000060	-0.275675
F52	F	-1.224028	0.000112	0.445880
H53	H	-0.946334	-0.244959	-0.233544
F54	F	-1.220391	0.000105	0.638472
F55	F	-1.182375	-0.446766	0.001596
H56	H	-1.167155	-0.565975	-0.013543
H57	H	-1.208874	0.000132	0.167145
H58	H	-0.516682	0.000121	0.025399
H59	H	-0.347419	0.000133	0.028593
F60	F	-1.225824	0.000117	0.350707
H61	H	-1.167154	-0.244899	-0.013562
F62	F	-0.887650	0.000064	0.402206
F63	F	-0.294727	0.000103	-0.287192
F64	F	-0.889454	0.000057	0.307040
F65	F	-1.182374	-0.767851	0.001626
H66	H	-0.596802	0.000081	-0.272474
H67	H	-0.913240	0.000077	0.128756
F68	F	-0.931114	-0.553032	-0.248685
H69	H	-0.478296	0.000080	-0.270239
F70	F	-0.931112	-0.767922	-0.248665
F71	F	-0.931121	-0.446841	-0.248690
H72	H	-0.635175	0.000126	0.023152
F73	F	-0.818754	0.000102	0.040108
H74	H	-0.904606	0.000082	0.585780
