data_functionalizedCrystal
_audit_creation_method	'MofGen! by Chris Wilmer'
_symmetry_space_group_name_H-M	'P1'
_symmetry_Int_Tables_number	1
_symmetry_cell_setting	triclinic
loop_
_symmetry_equiv_pos_as_xyz
  x,y,z
_cell_length_a	14.853569
_cell_length_b	8.597340
_cell_length_c	7.681481
_cell_angle_alpha	103.474906
_cell_angle_beta	84.248589
_cell_angle_gamma	84.489798
loop_
_atom_site_label
_atom_site_type_symbol
_atom_site_fract_x
_atom_site_fract_y
_atom_site_fract_z
O1	O	0.124677	2.100123	0.172192
O2	O	0.139041	1.636094	0.101786
O3	O	0.000619	1.880504	0.138887
O4	O	0.263099	1.855713	0.135092
O5	O	-0.016457	1.910587	0.436311
O6	O	0.121965	1.666177	0.399211
O7	O	0.107601	2.130206	0.469616
Zn8	Zn	0.112072	1.902967	0.481636
Zn9	Zn	0.134570	1.863332	0.089767
O10	O	0.246023	1.885796	0.432516
C11	C	0.129912	1.591750	0.241488
C12	C	0.128139	1.414802	0.214641
C13	C	-0.041507	1.894422	0.287429
C14	C	-0.141588	1.891055	0.286920
C15	C	-0.177856	1.744292	0.264655
C16	C	-0.199359	2.034653	0.308692
C17	C	-0.293391	2.031494	0.308205
C18	C	-0.329659	1.884731	0.285940
C19	C	-0.271896	1.741127	0.264162
C20	C	-0.351160	2.175094	0.329964
C21	C	-0.445197	2.171940	0.329476
C22	C	-0.481468	2.025176	0.307224
C23	C	-0.423698	1.881567	0.285447
C24	C	-0.459967	1.734804	0.263182
C25	C	-0.402200	1.591194	0.241418
C26	C	-0.308166	1.594364	0.241910
C27	C	-0.575501	2.022006	0.306732
C28	C	-0.554006	1.731639	0.262689
C29	C	0.288149	1.871878	0.283970
C30	C	0.388231	1.875243	0.284467
C31	C	0.116730	2.174549	0.329911
C32	C	0.118504	2.351496	0.356746
N33	N	0.096717	1.930029	0.749078
N34	N	0.149918	1.836283	-0.177673
H35	H	0.111605	1.432669	0.498954
O36	O	-0.251919	1.455012	0.220701
C37	C	-0.097527	1.331222	0.202034
C38	C	-0.161125	1.489149	0.226035
H39	H	-0.024110	1.358770	0.206376
H40	H	-0.103491	1.246388	0.066574
H41	H	-0.117917	1.271595	0.315522
H42	H	-0.140778	1.548912	0.112650
H43	H	-0.155153	1.573870	0.361558
O44	O	0.136340	1.318206	0.044850
C45	C	0.155042	1.302867	-0.274194
C46	C	0.145741	1.412450	-0.082011
H47	H	0.162665	1.379015	-0.376814
H48	H	0.091663	1.238688	-0.291931
H49	H	0.217756	1.209738	-0.296108
H50	H	0.083065	1.505668	-0.059966
H51	H	0.209166	1.476512	-0.064366
H52	H	-0.431741	1.471698	0.223279
H53	H	-0.583529	1.612127	0.244575
H54	H	0.042417	2.025743	0.838813
O55	O	-0.316054	2.317774	0.351827
C56	C	-0.314477	2.582491	0.543716
C57	C	-0.354324	2.420989	0.519173
H58	H	-0.345387	2.665973	0.679026
H59	H	-0.331141	2.640967	0.430092
H60	H	-0.237342	2.560045	0.540242
H61	H	-0.431463	2.443296	0.522689
H62	H	-0.337588	2.362564	0.632794
H63	H	-0.622530	2.138929	0.324435
H64	H	-0.130819	1.627369	0.246942
O65	O	-0.501432	2.311279	0.350524
C66	C	-0.655831	2.435110	0.369402
C67	C	-0.592246	2.277187	0.345503
H68	H	-0.729269	2.407606	0.365389
H69	H	-0.635557	2.494744	0.255855
H70	H	-0.649739	2.519921	0.504798
H71	H	-0.598305	2.192257	0.210172
H72	H	-0.612538	2.217683	0.459150
H73	H	-0.169826	2.154145	0.326854
O74	O	0.214819	1.722276	0.715403
C75	C	0.374880	1.623742	0.643782
C76	C	0.301473	1.752979	0.764982
H77	H	0.444955	1.648501	0.683847
H78	H	0.372956	1.627254	0.496740
H79	H	0.361059	1.499712	0.661112
H80	H	0.315245	1.877071	0.747808
H81	H	0.303415	1.749325	0.911977
