data_functionalizedCrystal
_audit_creation_method	'MofGen! by Chris Wilmer'
_symmetry_space_group_name_H-M	'P1'
_symmetry_Int_Tables_number	1
_symmetry_cell_setting	triclinic
loop_
_symmetry_equiv_pos_as_xyz
  x,y,z
_cell_length_a	6.817900
_cell_length_b	10.773890
_cell_length_c	12.200875
_cell_angle_alpha	95.686777
_cell_angle_beta	107.143593
_cell_angle_gamma	96.645716
loop_
_atom_site_label
_atom_site_type_symbol
_atom_site_fract_x
_atom_site_fract_y
_atom_site_fract_z
V1	V	-4.033591	-0.172876	-0.355789
V2	V	-3.700258	0.160457	-0.022456
V3	V	-3.366924	0.493790	0.310877
O4	O	-4.056650	0.008016	-0.350939
O5	O	-3.723316	0.341349	-0.017606
O6	O	-3.389983	0.674683	0.315727
O7	O	-3.950750	-0.342504	-0.351507
O8	O	-3.617417	-0.009171	-0.018173
O9	O	-3.284084	0.324162	0.315160
O10	O	-4.003823	-0.170345	-0.511805
O11	O	-3.670489	0.162988	-0.178472
O12	O	-3.337156	0.496322	0.154862
O13	O	-4.003210	-0.165335	-0.189531
O14	O	-3.669876	0.167998	0.143802
O15	O	-3.336543	0.501331	0.477135
V16	V	-4.519267	-0.151224	-0.336128
V17	V	-4.185934	0.182109	-0.002795
V18	V	-3.852601	0.515442	0.330539
O19	O	-4.290126	-0.220372	-0.398918
O20	O	-3.956792	0.112962	-0.065584
O21	O	-3.623459	0.446295	0.267749
O22	O	-4.712930	-0.103729	-0.293000
O23	O	-4.379597	0.229604	0.040334
O24	O	-4.046263	0.562937	0.373667
O25	O	-4.378902	0.018404	-0.340411
O26	O	-4.045568	0.351737	-0.007077
O27	O	-3.712235	0.685070	0.326256
O28	O	-4.613606	-0.332117	-0.340978
O29	O	-4.280272	0.001217	-0.007645
O30	O	-3.946939	0.334550	0.325689
O31	O	-4.667046	-0.158766	-0.502386
O32	O	-4.333712	0.174568	-0.169053
O33	O	-4.000379	0.507901	0.164281
O34	O	-4.325829	-0.153756	-0.180112
O35	O	-3.992496	0.179578	0.153221
O36	O	-3.659163	0.512911	0.486554
C37	C	-3.786770	-0.383852	-0.345417
C38	C	-3.453436	-0.050519	-0.012083
C39	C	-3.120103	0.282815	0.321250
C40	C	-3.800449	-0.522526	-0.342955
C41	C	-3.467115	-0.189193	-0.009622
C42	C	-3.133782	0.144141	0.323712
C43	C	-3.979034	-0.590392	-0.347232
C44	C	-3.645701	-0.257059	-0.013899
C45	C	-3.312368	0.076275	0.319434
C46	C	-3.993176	-0.733719	-0.344688
C47	C	-3.659843	-0.400386	-0.011355
C48	C	-3.326510	-0.067052	0.321978
C49	C	-3.854468	-0.164244	-0.549892
C50	C	-3.521135	0.169089	-0.216558
C51	C	-3.187801	0.502422	0.116775
C52	C	-3.911185	-0.163297	-0.677423
C53	C	-3.577851	0.170036	-0.344090
C54	C	-3.244518	0.503370	-0.010756
C55	C	-4.014984	-0.161564	-0.910916
C56	C	-3.681651	0.171769	-0.577583
C57	C	-3.348318	0.505102	-0.244250
C58	C	-3.957214	-0.162528	-0.780984
C59	C	-3.623881	0.170805	-0.447651
C60	C	-3.290548	0.504139	-0.114317
C61	C	-4.206223	0.059745	-0.346497
C62	C	-3.872889	0.393078	-0.013164
C63	C	-3.539556	0.726411	0.320169
C64	C	-4.171782	0.198417	-0.348967
C65	C	-3.838449	0.531751	-0.015633
C66	C	-3.505116	0.865084	0.317700
C67	C	-4.138525	-0.159861	-0.142020
C68	C	-3.805191	0.173473	0.191314
C69	C	-3.471858	0.506806	0.524647
C70	C	-4.061048	-0.160802	-0.014487
C71	C	-3.727714	0.172532	0.318846
C72	C	-3.394381	0.505865	0.652180
H73	H	-3.850742	-0.781721	-0.339149
H74	H	-3.517409	-0.448388	-0.005816
H75	H	-3.184075	-0.115054	0.327518
H76	H	-4.121462	-0.542387	-0.352784
H77	H	-3.788128	-0.209054	-0.019451
H78	H	-3.454795	0.124280	0.313882
H79	H	-4.314224	-0.753584	-0.354517
H80	H	-3.980890	-0.420251	-0.021184
H81	H	-3.647557	-0.086918	0.312150
H82	H	-3.658028	-0.570533	-0.337416
H83	H	-3.324694	-0.237200	-0.004083
H84	H	-2.991361	0.096133	0.329251
