data_functionalizedCrystal
_audit_creation_method	'MofGen! by Chris Wilmer'
_symmetry_space_group_name_H-M	'P1'
_symmetry_Int_Tables_number	1
_symmetry_cell_setting	triclinic
loop_
_symmetry_equiv_pos_as_xyz
  x,y,z
_cell_length_a	25.639233
_cell_length_b	13.897449
_cell_length_c	13.897448
_cell_angle_alpha	90.018972
_cell_angle_beta	90.015038
_cell_angle_gamma	90.012243
loop_
_atom_site_label
_atom_site_type_symbol
_atom_site_fract_x
_atom_site_fract_y
_atom_site_fract_z
Zn1	Zn	-0.295617	-1.474622	0.384099
Zn2	Zn	-0.208187	-1.474540	0.545377
Zn3	Zn	-0.208197	-1.313335	0.384101
Zn4	Zn	-0.295592	-1.313293	0.545358
O5	O	-0.251898	-1.393947	0.464734
O6	O	-0.284026	-1.609592	0.405501
O7	O	-0.135023	-1.453139	0.523993
O8	O	-0.219807	-1.334782	0.249120
O9	O	-0.219792	-1.609532	0.523991
O10	O	-0.284035	-1.453279	0.249118
O11	O	-0.135030	-1.334702	0.405504
O12	O	-0.219783	-1.178348	0.405485
O13	O	-0.368761	-1.334710	0.523957
O14	O	-0.283993	-1.178317	0.523959
O15	O	-0.368779	-1.453238	0.405482
O16	O	-0.219768	-1.453098	0.680356
O17	O	-0.283984	-1.334630	0.680342
C18	C	-0.251886	-1.143333	0.464721
C19	C	-0.251894	-1.036119	0.464739
C20	C	-0.251883	-1.393877	0.715348
C21	C	-0.251894	-1.393935	0.822562
C22	C	-0.388271	-1.393978	0.464717
C23	C	-0.446386	-1.393992	0.464710
C24	C	-0.806764	-1.455787	0.402836
C25	C	-0.861368	-1.455799	0.402810
O26	O	-0.889618	-1.508262	0.350316
N27	N	-0.888668	-1.394098	0.464484
C28	C	-0.861361	-1.332374	0.526182
O29	O	-0.889596	-1.279892	0.578637
C30	C	-0.806758	-1.332358	0.526203
C31	C	-0.779461	-1.394070	0.464531
C32	C	-0.779467	-1.517494	0.341169
C33	C	-0.724866	-1.517483	0.341197
C34	C	-0.697563	-1.455765	0.402893
C35	C	-0.724860	-1.394059	0.464560
C36	C	-0.779451	-1.270629	0.587895
C37	C	-0.724844	-1.270618	0.587910
C38	C	-0.697547	-1.332330	0.526239
C39	C	-0.642956	-1.332331	0.526283
N40	N	-0.615656	-1.394032	0.464609
C41	C	-0.642959	-1.455749	0.402914
C42	C	-0.976032	-1.332411	0.526131
C43	C	-1.030634	-1.332431	0.526116
C44	C	-1.030638	-1.455856	0.402742
C45	C	-0.976034	-1.455839	0.402763
C46	C	-0.948732	-1.394112	0.464457
C47	C	-0.528294	-1.455722	0.402978
C48	C	-0.473689	-1.455709	0.403015
C49	C	-0.473690	-1.332281	0.526384
C50	C	-0.528291	-1.332298	0.526352
C51	C	-0.555592	-1.394022	0.464641
O52	O	-0.614672	-1.279892	0.578747
O53	O	-0.614718	-1.508213	0.350458
C54	C	-0.116056	-1.393972	0.464681
C55	C	-0.057942	-1.394145	0.464417
C56	C	-0.251911	-1.645540	0.464748
C57	C	-0.251916	-1.752754	0.464753
C58	C	-0.251907	-0.839824	0.464742
C59	C	-0.251898	-0.949056	0.464737
C60	C	-0.251925	-1.394044	0.213141
C61	C	-0.251936	-1.394085	0.105927
C62	C	-0.251927	-1.394036	1.018857
C63	C	-0.251910	-1.393977	0.909625
H64	H	-0.550516	-1.505981	0.352724
H65	H	-0.702646	-1.567734	0.290976
C66	C	-0.809495	-1.585394	0.273302
C67	C	-0.847033	-1.543658	0.197542
C68	C	-0.877058	-1.611570	0.129676
C69	C	-0.869543	-1.721217	0.137571
C70	C	-0.832003	-1.762958	0.213334
C71	C	-0.801979	-1.695046	0.281200
H72	H	-0.852598	-1.462486	0.191695
H73	H	-0.904847	-1.580670	0.073591
H74	H	-0.891769	-1.771489	0.087333
H75	H	-0.826439	-1.844130	0.219181
H76	H	-0.774189	-1.725947	0.337285
C77	C	-1.060678	-1.523742	0.334869
C78	C	-1.120740	-1.523746	0.334846
C79	C	-1.150781	-1.591628	0.266978
C80	C	-1.120762	-1.659506	0.199133
C81	C	-1.060697	-1.659504	0.199153
C82	C	-1.030655	-1.591622	0.267021
H83	H	-1.142965	-1.473496	0.385071
H84	H	-1.195246	-1.591629	0.266963
H85	H	-1.143001	-1.709756	0.148893
H86	H	-1.038472	-1.709754	0.148928
H87	H	-0.986191	-1.591621	0.267036
C88	C	-1.060655	-1.264551	0.593963
C89	C	-1.098194	-1.306315	0.669687
C90	C	-1.128212	-1.238426	0.737532
C91	C	-1.120691	-1.128774	0.729653
C92	C	-1.083151	-1.087005	0.653926
C93	C	-1.053133	-1.154894	0.586081
H94	H	-1.103763	-1.387491	0.675522
H95	H	-1.156002	-1.269347	0.793590
H96	H	-1.142912	-1.078519	0.779876
H97	H	-1.077582	-1.005829	0.648091
H98	H	-1.025343	-1.123973	0.530023
H99	H	-0.953812	-1.506089	0.352543
H100	H	-0.801667	-1.220376	0.638114
C101	C	-0.946003	-1.264515	0.594012
C102	C	-0.953514	-1.154866	0.586138
C103	C	-0.923489	-1.086970	0.654017
C104	C	-0.885952	-1.128723	0.729770
C105	C	-0.878439	-1.238377	0.737648
C106	C	-0.908464	-1.306274	0.669769
H107	H	-0.981302	-1.123953	0.530058
H108	H	-0.929051	-1.005796	0.648185
H109	H	-0.863726	-1.078462	0.780019
H110	H	-0.850651	-1.269290	0.793728
H111	H	-0.902902	-1.387448	0.675601
H112	H	-0.702618	-1.220341	0.638140
C113	C	-0.558329	-1.264448	0.594209
C114	C	-0.550825	-1.272306	0.703867
C115	C	-0.580862	-1.204460	0.771726
C116	C	-0.618404	-1.128756	0.729926
C117	C	-0.625910	-1.120895	0.620262
C118	C	-0.595873	-1.188741	0.552404
H119	H	-0.523032	-1.328349	0.734815
H120	H	-0.575305	-1.210280	0.852906
H121	H	-0.640640	-1.078533	0.780158
H122	H	-0.653702	-1.064852	0.589314
H123	H	-0.601429	-1.182921	0.471223
H124	H	-0.451450	-1.282036	0.576618
C125	C	-0.443663	-1.523594	0.335169
C126	C	-0.451172	-1.515762	0.225510
C127	C	-0.421149	-1.583643	0.157665
C128	C	-0.383617	-1.659355	0.199480
C129	C	-0.376106	-1.667190	0.309144
C130	C	-0.406129	-1.599309	0.376989
H131	H	-0.478957	-1.459712	0.194551
H132	H	-0.426709	-1.577842	0.076484
H133	H	-0.361392	-1.709605	0.149257
H134	H	-0.348321	-1.723240	0.340103
H135	H	-0.400570	-1.605109	0.458170
