data_functionalizedCrystal
_audit_creation_method	'MofGen! by Chris Wilmer'
_symmetry_space_group_name_H-M	'P1'
_symmetry_Int_Tables_number	1
_symmetry_cell_setting	triclinic
loop_
_symmetry_equiv_pos_as_xyz
  x,y,z
_cell_length_a	12.837943
_cell_length_b	14.586319
_cell_length_c	16.109301
_cell_angle_alpha	90.001610
_cell_angle_beta	89.145210
_cell_angle_gamma	90.005121
loop_
_atom_site_label
_atom_site_type_symbol
_atom_site_fract_x
_atom_site_fract_y
_atom_site_fract_z
O1	O	1.375384	0.076230	0.216125
O2	O	1.875384	0.576230	0.716125
O3	O	1.073582	0.076235	0.205448
O4	O	1.573582	0.576235	0.705448
O5	O	1.232773	0.076223	0.090414
O6	O	1.732773	0.576223	0.590414
O7	O	1.216192	0.076242	0.331159
O8	O	1.716192	0.576242	0.831159
O9	O	1.232754	-0.076257	0.090420
O10	O	1.732754	0.423743	0.590420
O11	O	1.073562	-0.076245	0.205454
O12	O	1.573562	0.423755	0.705454
O13	O	1.375364	-0.076251	0.216131
O14	O	1.875364	0.423749	0.716131
Cu15	Cu	1.224461	-0.090171	0.210793
Cu16	Cu	1.724461	0.409829	0.710793
Cu17	Cu	1.224484	0.090156	0.210786
Cu18	Cu	1.724484	0.590156	0.710786
O19	O	1.216172	-0.076239	0.331165
O20	O	1.716172	0.423761	0.831165
C21	C	1.034953	-0.000005	0.201845
C22	C	1.534953	0.499995	0.701845
C23	C	0.919879	-0.000003	0.191088
C24	C	1.419879	0.499997	0.691088
N25	N	1.224453	-0.217002	0.210798
N26	N	1.724453	0.282998	0.710798
C27	C	1.232092	-0.000018	0.059389
C28	C	1.732092	0.499982	0.559389
C29	C	1.230078	-0.000019	-0.033066
C30	C	1.730078	0.499981	0.466934
C31	C	0.678877	-0.000006	0.320405
C32	C	1.178877	0.499994	0.820405
C33	C	0.570755	-0.000005	0.310302
C34	C	1.070755	0.499995	0.810302
C35	C	0.595510	-0.000007	0.160779
C36	C	1.095510	0.499993	0.660779
C37	C	0.703632	-0.000008	0.170882
C38	C	1.203632	0.499992	0.670882
C39	C	0.745312	-0.000006	0.250698
C40	C	1.245312	0.499994	0.750698
C41	C	0.853436	-0.000000	0.260800
C42	C	1.353436	0.500000	0.760800
C43	C	0.878189	-0.000009	0.111278
C44	C	1.378189	0.499991	0.611278
C45	C	0.770067	-0.000008	0.101175
C46	C	1.270067	0.499992	0.601175
C47	C	1.413993	-0.000009	0.219735
C48	C	1.913993	0.499991	0.719735
C49	C	1.529067	-0.000004	0.230491
C50	C	2.029067	0.499996	0.730491
C51	C	1.287320	-0.452006	0.266221
C52	C	1.787320	0.047994	0.766221
C53	C	1.287331	-0.547987	0.266216
C54	C	1.787331	-0.047987	0.766216
C55	C	1.161632	-0.548003	0.155346
C56	C	1.661632	-0.048003	0.655346
C57	C	1.161627	-0.452023	0.155348
C58	C	1.661627	0.047977	0.655348
C59	C	1.224469	-0.404027	0.210790
C60	C	1.724469	0.095973	0.710790
C61	C	1.224485	-0.595988	0.210783
C62	C	1.724485	-0.095988	0.710783
C63	C	1.224496	-0.700055	0.210778
C64	C	1.724496	-0.200055	0.710778
C65	C	1.224460	-0.299953	0.210795
C66	C	1.724460	0.200047	0.710795
N67	N	1.224501	0.216987	0.210775
N68	N	1.724501	0.716987	0.710775
C69	C	1.319857	-0.000006	-0.248206
C70	C	1.819857	0.499994	0.251794
C71	C	1.317957	0.000002	-0.335078
C72	C	1.817957	0.500002	0.164922
C73	C	1.129081	0.000001	-0.330208
C74	C	1.629081	0.500001	0.169792
C75	C	1.130983	0.000000	-0.243338
C76	C	1.630983	0.500000	0.256662
C77	C	1.226374	-0.000008	-0.202340
C78	C	1.726374	0.499992	0.297660
C79	C	1.222572	0.000001	-0.376081
C80	C	1.722572	0.500001	0.123919
C81	C	1.220511	0.000009	-0.470271
C82	C	1.720511	0.500009	0.029729
C83	C	1.228435	-0.000014	-0.108144
C84	C	1.728435	0.499986	0.391856
C85	C	1.216854	0.000004	0.362190
C86	C	1.716854	0.500004	0.862190
C87	C	1.218868	0.000012	0.454645
C88	C	1.718868	0.500012	0.954645
H89	H	0.887369	-0.000000	0.325790
H90	H	1.387369	0.500000	0.825790
H91	H	1.110467	-0.587093	0.110208
H92	H	1.610467	-0.087093	0.610208
H93	H	1.051417	0.000006	-0.363600
H94	H	1.551417	0.500006	0.136400
H95	H	0.516666	-0.000007	0.367065
H96	H	1.016666	0.499993	0.867065
H97	H	1.110446	-0.412958	0.110205
H98	H	1.610446	0.087042	0.610205
H99	H	1.054852	0.000001	-0.205992
H100	H	1.554852	0.500001	0.294008
H101	H	1.394081	0.000005	-0.372419
H102	H	1.894081	0.500005	0.127581
H103	H	0.712813	-0.000003	0.385393
H104	H	1.212813	0.499997	0.885393
H105	H	1.397531	-0.000011	-0.214828
H106	H	1.897531	0.499989	0.285172
H107	H	0.561555	-0.000084	0.095797
H108	H	1.061555	0.499916	0.595797
H109	H	0.736116	-0.000020	0.036192
H110	H	1.236116	0.499980	0.536192
H111	H	1.338490	-0.412930	0.311366
H112	H	1.838490	0.087070	0.811366
H113	H	0.932293	-0.000003	0.054518
H114	H	1.432293	0.499997	0.554518
H115	H	1.338511	-0.587047	0.311353
H116	H	1.838511	-0.087047	0.811353
