data_functionalizedCrystal
_audit_creation_method	'MofGen! by Chris Wilmer'
_symmetry_space_group_name_H-M	'P1'
_symmetry_Int_Tables_number	1
_symmetry_cell_setting	triclinic
loop_
_symmetry_equiv_pos_as_xyz
  x,y,z
_cell_length_a	16.109301
_cell_length_b	17.699083
_cell_length_c	15.186229
_cell_angle_alpha	89.995368
_cell_angle_beta	89.999362
_cell_angle_gamma	83.372248
loop_
_atom_site_label
_atom_site_type_symbol
_atom_site_fract_x
_atom_site_fract_y
_atom_site_fract_z
O1	O	1.102963	0.097285	-0.073175
O2	O	0.860880	0.109391	-0.073189
O3	O	0.988761	-0.006841	-0.073174
O4	O	0.975082	0.213517	-0.073190
O5	O	0.988753	-0.006843	0.073284
O6	O	0.860872	0.109390	0.073268
O7	O	1.102955	0.097283	0.073283
Zn8	Zn	0.981912	0.103336	0.096529
Zn9	Zn	0.981923	0.103338	-0.096435
O10	O	0.975074	0.213516	0.073267
C11	C	0.829902	0.108900	0.000038
C12	C	0.737609	0.107430	0.000033
C13	C	0.515224	0.172981	0.000038
C14	C	0.428506	0.171594	0.000044
C15	C	0.448618	0.033688	0.000050
C16	C	0.535334	0.035076	0.000051
C17	C	0.568635	0.104725	0.000040
C18	C	0.395200	0.101949	0.000046
C19	C	0.301177	0.100445	0.000052
C20	C	0.662664	0.106230	0.000036
C21	C	0.988267	-0.035040	0.000055
C22	C	0.986796	-0.119060	0.000055
C23	C	1.061860	-0.167574	0.000061
C24	C	1.060473	-0.246519	0.000053
C25	C	0.984022	-0.276949	0.000046
C26	C	0.908953	-0.228429	0.000038
C27	C	0.910341	-0.149485	0.000039
C28	C	0.903356	-0.546800	0.000030
C29	C	0.901974	-0.625750	0.000031
C30	C	1.053488	-0.643834	0.000044
C31	C	1.054876	-0.564890	0.000046
C32	C	0.979807	-0.516377	0.000033
C33	C	0.981312	-0.430776	0.000040
C34	C	0.982517	-0.362549	0.000045
C35	C	1.133933	0.097774	0.000054
C36	C	1.226226	0.099244	0.000053
C37	C	0.975568	0.241714	0.000037
C38	C	0.977039	0.325734	0.000031
N39	N	0.981910	0.103334	0.228221
N40	N	0.981931	0.103334	-0.228128
C41	C	1.038555	0.051884	0.453951
C42	C	1.038558	0.051882	0.546141
C43	C	0.925280	0.154787	0.546136
C44	C	0.925274	0.154785	0.453948
C45	C	0.981916	0.103334	0.407858
C46	C	0.981925	0.103334	0.592236
C47	C	0.981927	0.103333	0.692192
C48	C	0.981913	0.103334	0.307896
H49	H	0.578824	-0.020510	0.000055
C50	C	1.125626	-0.375565	0.000038
C51	C	1.142985	-0.299847	0.000053
H52	H	1.176569	-0.408485	0.000029
H53	H	1.094277	-0.384792	0.051105
H54	H	1.094272	-0.384770	-0.051041
H55	H	1.174334	-0.290640	0.051135
H56	H	1.174347	-0.290616	-0.051020
C57	C	1.139849	-0.743094	-0.075248
C58	C	1.136009	-0.697161	0.000045
H59	H	1.190795	-0.776010	-0.075247
H60	H	1.094128	-0.772514	-0.075248
H61	H	1.137243	-0.711907	-0.126312
H62	H	1.138609	-0.728348	0.051109
H63	H	1.181743	-0.667739	0.000053
C64	C	0.752335	-0.599948	-0.000006
C65	C	0.817933	-0.659200	0.000012
H66	H	0.700456	-0.620601	-0.000023
H67	H	0.756013	-0.569537	0.051065
H68	H	0.756041	-0.569530	-0.051082
H69	H	0.814230	-0.689615	0.051091
H70	H	0.814253	-0.689624	-0.051064
C71	C	0.417343	0.308046	0.000024
C72	C	0.369797	0.246624	0.000035
H73	H	0.381096	0.354367	0.000014
H74	H	0.451582	0.305719	0.051093
H75	H	0.451586	0.305712	-0.051053
H76	H	0.335558	0.248955	0.051116
H77	H	0.335543	0.248952	-0.051039
C78	C	0.817006	-0.447542	-0.075271
C79	C	0.820839	-0.493485	0.000020
H80	H	0.766057	-0.414630	-0.075278
H81	H	0.862724	-0.418117	-0.075262
H82	H	0.819624	-0.478722	-0.126336
H83	H	0.818227	-0.462305	0.051086
H84	H	0.775108	-0.522912	0.000019
C85	C	1.056749	-0.051150	0.350339
C86	C	1.100787	-0.004711	0.403309
H87	H	1.095164	-0.086098	0.319080
H88	H	1.022184	-0.078343	0.386326
H89	H	1.023041	-0.020501	0.309676
H90	H	1.134490	-0.035360	0.443977
H91	H	1.135366	0.022484	0.367319
C92	C	0.439054	-0.084288	0.075342
C93	C	0.412011	-0.042868	0.000052
H94	H	0.416451	-0.131550	0.075341
H95	H	0.498336	-0.093228	0.075338
H96	H	0.420702	-0.056181	0.126408
H97	H	0.430368	-0.070974	-0.051014
H98	H	0.352716	-0.033931	0.000048
C99	C	1.151321	-0.089279	-0.075217
C100	C	1.145896	-0.134126	0.000068
H101	H	1.203201	-0.068629	-0.075210
H102	H	1.147637	-0.119697	-0.126281
H103	H	1.106810	-0.049089	-0.075208
H104	H	1.190404	-0.174320	0.000056
H105	H	1.149589	-0.103706	0.051145
H106	H	1.117130	-0.540119	0.000056
H107	H	0.879165	0.196679	0.583672
H108	H	0.846705	-0.253211	0.000026
C109	C	1.056820	-0.051123	0.649815
C110	C	1.100818	-0.004674	0.596805
H111	H	1.095259	-0.086043	0.681088
H112	H	1.023100	-0.020482	0.690457
H113	H	1.022271	-0.078354	0.613846
H114	H	1.135362	0.022562	0.632775
H115	H	1.134553	-0.035318	0.556158
C116	C	0.813306	0.256513	0.463196
C117	C	0.863014	0.211346	0.403276
H118	H	0.774875	0.291430	0.431911
H119	H	0.783468	0.225003	0.499158
H120	H	0.847867	0.283747	0.499148
H121	H	0.828454	0.184107	0.367328
H122	H	0.892855	0.242860	0.367299
C123	C	0.760431	-0.139534	0.000032
C124	C	0.827828	-0.096156	0.000035
H125	H	0.709491	-0.106609	0.000032
H126	H	0.763046	-0.170697	-0.051037
H127	H	0.763042	-0.170706	0.051110
H128	H	0.825221	-0.064988	-0.051046
H129	H	0.825212	-0.064980	0.051109
H130	H	0.542334	0.229694	0.000036
