data_functionalizedCrystal
_audit_creation_method	'MofGen! by Chris Wilmer'
_symmetry_space_group_name_H-M	'P1'
_symmetry_Int_Tables_number	1
_symmetry_cell_setting	triclinic
loop_
_symmetry_equiv_pos_as_xyz
  x,y,z
_cell_length_a	10.654545
_cell_length_b	14.519709
_cell_length_c	13.596369
_cell_angle_alpha	90.005722
_cell_angle_beta	89.993068
_cell_angle_gamma	84.081612
loop_
_atom_site_label
_atom_site_type_symbol
_atom_site_fract_x
_atom_site_fract_y
_atom_site_fract_z
O1	O	1.666579	0.129514	0.081784
O2	O	1.300981	0.141859	0.081788
O3	O	1.493473	0.001499	0.081777
O4	O	1.474087	0.269875	0.081795
O5	O	1.493497	0.001491	-0.081806
O6	O	1.301005	0.141852	-0.081795
O7	O	1.666603	0.129507	-0.081799
Zn8	Zn	1.483808	0.135678	-0.107769
Zn9	Zn	1.483776	0.135688	0.107758
O10	O	1.474110	0.269868	-0.081788
C11	C	1.254204	0.140950	-0.000003
C12	C	1.114786	0.138241	-0.000001
C13	C	1.049307	0.136961	-0.089171
C14	C	0.918312	0.134400	-0.089171
C15	C	0.918287	0.134402	0.089176
C16	C	1.049280	0.136957	0.089175
C17	C	1.492582	-0.032870	-0.000014
C18	C	1.489874	-0.135265	-0.000015
C19	C	1.479907	-0.510212	0.000011
C20	C	1.482675	-0.405890	0.000003
C21	C	1.484890	-0.322742	-0.000003
C22	C	1.487659	-0.218413	-0.000009
C23	C	1.713380	0.130416	-0.000006
C24	C	1.852798	0.133125	-0.000001
C25	C	1.475002	0.304236	0.000006
C26	C	1.477710	0.406631	0.000013
N27	N	1.483756	0.135688	0.254850
N28	N	1.483838	0.135671	-0.254861
C29	C	1.483760	0.135689	0.343848
C30	C	1.483778	0.135687	0.455499
C31	C	1.483800	0.135681	0.544490
C32	C	1.483817	0.135677	0.656149
H33	H	0.865004	0.133359	-0.161782
H34	H	1.102638	0.138007	-0.161784
H35	H	0.864936	0.133358	0.161780
F36	F	1.118973	0.138313	0.184087
