data_functionalizedCrystal
_audit_creation_method	'MofGen! by Chris Wilmer'
_symmetry_space_group_name_H-M	'P1'
_symmetry_Int_Tables_number	1
_symmetry_cell_setting	triclinic
loop_
_symmetry_equiv_pos_as_xyz
  x,y,z
_cell_length_a	13.897448
_cell_length_b	13.897449
_cell_length_c	17.640968
_cell_angle_alpha	101.225735
_cell_angle_beta	78.768361
_cell_angle_gamma	89.982475
loop_
_atom_site_label
_atom_site_type_symbol
_atom_site_fract_x
_atom_site_fract_y
_atom_site_fract_z
Zn1	Zn	-0.273734	-1.584973	-0.446979
Zn2	Zn	-0.467661	-1.552258	-0.314796
Zn3	Zn	-0.306378	-1.391055	-0.314805
Zn4	Zn	-0.434999	-1.423634	-0.446936
O5	O	-0.370693	-1.487980	-0.380879
O6	O	-0.299466	-1.715619	-0.429459
O7	O	-0.473597	-1.503548	-0.204181
O8	O	-0.167061	-1.416836	-0.332360
O9	O	-0.441943	-1.691583	-0.332345
O10	O	-0.143077	-1.559307	-0.429467
O11	O	-0.355104	-1.385113	-0.204188
O12	O	-0.323433	-1.260392	-0.332319
O13	O	-0.386276	-1.472362	-0.557558
O14	O	-0.417930	-1.284327	-0.429395
O15	O	-0.267795	-1.590897	-0.557589
O16	O	-0.598315	-1.535138	-0.332303
O17	O	-0.574318	-1.440639	-0.429386
C18	C	-0.370680	-1.237359	-0.380854
C19	C	-0.370693	-1.130147	-0.380861
C20	C	-0.621313	-1.487904	-0.380856
C21	C	-0.728523	-1.487966	-0.380873
C22	C	-0.370688	-0.933856	-0.380876
C23	C	-0.370688	-1.043086	-0.380866
C24	C	-0.924805	-1.488080	-0.380923
C25	C	-0.815579	-1.488014	-0.380897
C26	C	-0.119090	-1.488087	-0.380919
C27	C	-0.011872	-1.488132	-0.380937
C28	C	-0.319751	-1.538913	-0.587057
C29	C	-0.298042	-1.560618	-0.674918
C30	C	-0.370702	-0.739578	-0.380898
C31	C	-0.370694	-0.846789	-0.380886
C32	C	-0.535086	-1.323463	-0.963799
C33	C	-0.514675	-1.343878	-1.046358
C34	C	-0.391312	-1.467298	-1.046380
C35	C	-0.411709	-1.446890	-0.963820
C36	C	-0.483598	-1.374972	-0.922536
C37	C	-0.360221	-1.498400	-0.922556
C38	C	-0.380620	-1.477996	-0.840003
C39	C	-0.452508	-1.406084	-0.798714
C40	C	-0.503997	-1.354569	-0.839983
C41	C	-0.288337	-1.570322	-0.963842
C42	C	-0.236849	-1.621832	-0.922578
C43	C	-0.257243	-1.601424	-0.840024
C44	C	-0.329131	-1.529511	-0.798734
C45	C	-0.205754	-1.652939	-0.798755
C46	C	-0.226153	-1.632536	-0.716202
C47	C	-0.349530	-1.509108	-0.716181
C48	C	-0.421367	-1.437301	-0.175503
C49	C	-0.442804	-1.415783	-0.087643
H50	H	-0.408046	-1.450522	-0.682565
H51	H	-0.469119	-1.389477	-0.731494
N52	N	-0.170638	-1.688093	-0.671682
H53	H	-0.098162	-1.676697	-0.686043
H54	H	-0.194565	-1.664221	-0.613137
N55	N	-0.159313	-1.699397	-0.967103
H56	H	-0.190049	-1.752551	-1.001350
H57	H	-0.106170	-1.668599	-1.001314
H58	H	-0.147229	-1.711501	-0.832380
N59	N	-0.612625	-1.245894	-0.919265
H60	H	-0.617732	-1.240789	-0.860707
H61	H	-0.594039	-1.180575	-0.933692
N62	N	-0.581530	-1.276994	-0.795449
H63	H	-0.646904	-1.295495	-0.809805
H64	H	-0.586552	-1.271924	-0.736906
N65	N	-0.570216	-1.288321	-1.090865
H66	H	-0.618852	-1.239668	-1.052182
H67	H	-0.522487	-1.252161	-1.125122
H68	H	-0.271733	-1.586934	-1.031062
N69	N	-0.313781	-1.544867	-1.090909
H70	H	-0.308670	-1.549978	-1.149468
H71	H	-0.248454	-1.526310	-1.076489
