data_functionalizedCrystal
_audit_creation_method	'MofGen! by Chris Wilmer'
_symmetry_space_group_name_H-M	'P1'
_symmetry_Int_Tables_number	1
_symmetry_cell_setting	triclinic
loop_
_symmetry_equiv_pos_as_xyz
  x,y,z
_cell_length_a	12.759401
_cell_length_b	12.759394
_cell_length_c	12.759393
_cell_angle_alpha	89.969400
_cell_angle_beta	89.981504
_cell_angle_gamma	90.014017
loop_
_atom_site_label
_atom_site_type_symbol
_atom_site_fract_x
_atom_site_fract_y
_atom_site_fract_z
Zn1	Zn	1.606262	-0.418200	-0.593988
Zn2	Zn	1.606158	-0.593919	-0.418311
Zn3	Zn	1.430564	-0.418255	-0.418328
Zn4	Zn	1.430555	-0.593838	-0.593953
O5	O	1.518385	-0.506053	-0.506145
O6	O	1.753269	-0.441520	-0.570692
O7	O	1.582826	-0.570674	-0.271293
O8	O	1.453917	-0.271227	-0.441651
O9	O	1.753193	-0.570620	-0.441623
O10	O	1.583002	-0.271186	-0.570708
O11	O	1.453817	-0.441614	-0.271305
O12	O	1.283541	-0.441536	-0.441617
O13	O	1.453902	-0.570482	-0.740979
O14	O	1.283535	-0.570536	-0.570648
O15	O	1.582993	-0.441442	-0.741005
O16	O	1.582817	-0.740929	-0.441589
O17	O	1.453802	-0.740870	-0.570632
C18	C	1.245417	-0.506034	-0.506131
C19	C	1.128641	-0.506051	-0.506150
C20	C	1.518326	-0.779021	-0.506128
C21	C	1.518397	-0.895797	-0.506156
C22	C	1.073803	-0.573329	-0.573225
C23	C	0.964079	-0.573342	-0.573236
C24	C	0.964040	-0.438796	-0.439088
C25	C	1.073762	-0.438779	-0.439083
C26	C	1.073824	-0.651011	-0.650671
C27	C	0.964100	-0.651024	-0.650683
C28	C	1.652713	-0.895597	-0.640643
C29	C	1.719903	-0.950358	-0.707895
C30	C	1.719966	-1.060079	-0.707918
C31	C	1.652828	-1.115043	-0.640684
C32	C	1.585637	-1.060282	-0.573432
C33	C	1.585584	-0.950558	-0.573414
C34	C	1.451318	-1.060482	-0.438951
C35	C	1.451260	-0.950761	-0.438921
C36	C	1.384181	-1.115446	-0.371717
C37	C	1.316994	-1.060685	-0.304458
C38	C	1.316935	-0.950957	-0.304437
C39	C	1.384069	-0.896000	-0.371669
C40	C	1.792418	-0.506073	-0.506160
C41	C	1.909194	-0.506082	-0.506166
C42	C	1.518458	-0.505947	-0.780179
C43	C	1.518489	-0.505902	-0.896955
C44	C	1.518472	-0.232020	-0.506186
C45	C	1.518509	-0.115243	-0.506203
C46	C	1.585716	-0.438704	-0.951833
C47	C	1.585741	-0.438666	-1.061557
C48	C	1.451310	-0.573033	-1.061517
C49	C	1.451280	-0.573065	-0.951795
C50	C	1.663333	-0.361132	-0.951857
C51	C	1.663358	-0.361094	-1.061581
C52	C	1.518372	-0.506083	-0.233178
C53	C	1.518544	-0.505832	-0.116402
H54	H	1.118407	-0.383988	-0.384471
H55	H	1.262216	-0.906376	-0.249677
H56	H	1.103632	-0.629311	-0.732078
H57	H	1.774564	-0.905597	-0.762639
C58	C	1.357454	-1.272577	-0.471670
C59	C	1.384251	-1.236053	-0.371740
H60	H	1.357506	-1.347035	-0.471681
H61	H	1.289639	-1.247803	-0.489773
H62	H	1.407058	-1.247673	-0.521326
H63	H	1.334643	-1.260950	-0.322085
H64	H	1.452076	-1.260838	-0.353625
C65	C	1.633920	-0.251348	-0.801931
C66	C	1.633939	-0.251300	-0.911673
H67	H	1.615778	-0.183543	-0.777126
H68	H	1.584265	-0.300978	-0.777112
H69	H	1.701712	-0.269540	-0.777132
H70	H	1.566144	-0.233116	-0.936472
H71	H	1.683595	-0.201654	-0.936503
C72	C	1.391665	-0.632648	-1.229696
C73	C	1.377444	-0.646865	-1.121800
H74	H	1.346068	-0.678237	-1.266908
H75	H	1.376313	-0.562060	-1.247687
H76	H	1.462259	-0.648025	-1.247668
H77	H	1.306852	-0.631481	-1.103826
H78	H	1.392790	-0.717469	-1.103802
C79	C	1.181547	-0.800186	-0.689942
C80	C	1.119755	-0.755297	-0.611151
H81	H	1.209907	-0.864564	-0.665537
H82	H	1.139661	-0.812748	-0.750166
H83	H	1.236992	-0.753691	-0.707543
H84	H	1.064306	-0.801789	-0.593554
H85	H	1.161644	-0.742739	-0.550908
H86	H	0.934306	-0.732374	-0.628752
C87	C	0.999953	-0.586054	-0.823665
C88	C	0.918192	-0.611816	-0.755099
H89	H	0.971607	-0.561851	-0.888125
H90	H	1.041842	-0.532518	-0.793348
H91	H	1.041847	-0.646328	-0.836037
H92	H	0.876302	-0.551540	-0.742721
H93	H	0.876285	-0.665356	-0.785423
C94	C	1.836189	-0.426309	-0.987627
C95	C	1.767649	-0.400491	-0.905899
H96	H	1.900590	-0.450603	-0.959252
H97	H	1.805776	-0.479792	-1.029504
H98	H	1.848696	-0.366035	-1.029543
H99	H	1.755136	-0.460767	-0.863988
H100	H	1.798069	-0.347004	-0.864004
C101	C	1.535238	-0.275131	-1.169288
C102	C	1.624055	-0.256731	-1.107545
H103	H	1.510966	-0.210703	-1.197657
H104	H	1.552772	-0.321598	-1.224716
H105	H	1.481734	-0.305555	-1.127357
H106	H	1.677562	-0.226313	-1.149478
H107	H	1.606524	-0.210247	-1.052109
C108	C	1.852722	-1.048872	-0.840865
C109	C	1.793812	-1.120278	-0.781851
H110	H	1.898311	-1.086039	-0.886506
H111	H	1.806904	-1.006082	-0.881001
H112	H	1.892917	-1.006080	-0.795109
H113	H	1.753610	-1.163066	-0.827607
H114	H	1.839635	-1.163087	-0.741712
C115	C	1.284026	-0.738886	-0.398347
C116	C	1.384002	-0.775392	-0.371648
H117	H	1.283986	-0.664427	-0.398331
H118	H	1.265856	-0.763674	-0.466130
H119	H	1.234437	-0.763786	-0.348675
H120	H	1.433590	-0.750498	-0.421324
H121	H	1.402185	-0.750594	-0.303855
C122	C	0.975023	-0.305799	-0.306492
C123	C	0.903715	-0.364856	-0.365367
H124	H	0.937781	-0.260147	-0.260984
H125	H	1.017794	-0.351520	-0.266223
H126	H	1.017845	-0.265664	-0.352345
H127	H	0.860898	-0.404997	-0.319514
H128	H	0.860927	-0.319129	-0.405640
H129	H	1.262330	-1.105445	-0.249726
C130	C	1.725763	-0.738311	-0.713828
C131	C	1.652649	-0.774989	-0.640617
H132	H	1.725719	-0.663852	-0.713815
H133	H	1.793572	-0.763091	-0.695709
H134	H	1.707572	-0.763102	-0.781614
H135	H	1.670845	-0.750204	-0.572829
H136	H	1.584826	-0.750198	-0.658729
H137	H	1.652876	-1.204384	-0.640717
H138	H	1.396534	-0.627780	-0.907118
H139	H	1.744729	-0.382886	-1.091360
