data_functionalizedCrystal
_audit_creation_method	'MofGen! by Chris Wilmer'
_symmetry_space_group_name_H-M	'P1'
_symmetry_Int_Tables_number	1
_symmetry_cell_setting	triclinic
loop_
_symmetry_equiv_pos_as_xyz
  x,y,z
_cell_length_a	16.959455
_cell_length_b	19.121063
_cell_length_c	16.959447
_cell_angle_alpha	92.410321
_cell_angle_beta	89.982507
_cell_angle_gamma	92.465894
loop_
_atom_site_label
_atom_site_type_symbol
_atom_site_fract_x
_atom_site_fract_y
_atom_site_fract_z
Zn1	Zn	1.194939	-0.279682	-0.460313
Zn2	Zn	1.694939	0.220318	0.039687
Zn3	Zn	1.189198	-0.397135	-0.333764
Zn4	Zn	1.689198	0.102865	0.166236
Zn5	Zn	1.062760	-0.279696	-0.328151
Zn6	Zn	1.562760	0.220304	0.171849
Zn7	Zn	1.057078	-0.397090	-0.465900
Zn8	Zn	1.557078	0.102910	0.034100
O9	O	1.125994	-0.338401	-0.397032
O10	O	1.625994	0.161599	0.102968
O11	O	1.304788	-0.295275	-0.443537
O12	O	1.804788	0.204725	0.056463
O13	O	1.172401	-0.381582	-0.222409
O14	O	1.672401	0.118418	0.277591
O15	O	1.085074	-0.181410	-0.340996
O16	O	1.585074	0.318590	0.159004
O17	O	1.300570	-0.381568	-0.350561
O18	O	1.800570	0.118432	0.149439
O19	O	1.182186	-0.181399	-0.438094
O20	O	1.682186	0.318601	0.061906
O21	O	1.079507	-0.295300	-0.218286
O22	O	1.579507	0.204700	0.281714
O23	O	0.951396	-0.295256	-0.346413
O24	O	1.451396	0.204744	0.153587
O25	O	1.075390	-0.381491	-0.575769
O26	O	1.575390	0.118509	-0.075769
O27	O	0.947221	-0.381505	-0.447617
O28	O	1.447221	0.118495	0.052383
O29	O	1.176677	-0.295231	-0.571664
O30	O	1.676677	0.204769	-0.071664
O31	O	1.166891	-0.495414	-0.355979
O32	O	1.666891	0.004586	0.144021
O33	O	1.069823	-0.495381	-0.453059
O34	O	1.569823	0.004619	0.046941
C35	C	0.920628	-0.338378	-0.397013
C36	C	1.420628	0.161622	0.102987
C37	C	0.832772	-0.338385	-0.397024
C38	C	1.332772	0.161615	0.102976
C39	C	0.463446	-0.293454	-0.344439
C40	C	0.963446	0.206546	0.155561
C41	C	0.459141	-0.383405	-0.449673
C42	C	0.959141	0.116595	0.050327
C43	C	0.541688	-0.383395	-0.449667
C44	C	1.041688	0.116605	0.050333
C45	C	0.585117	-0.338415	-0.397046
C46	C	1.085117	0.161585	0.102954
C47	C	0.546000	-0.293444	-0.344430
C48	C	1.046000	0.206556	0.155570
C49	C	0.580811	-0.428370	-0.502277
C50	C	1.080811	0.071630	-0.002277
C51	C	0.663362	-0.428362	-0.502273
C52	C	1.163362	0.071638	-0.002273
C53	C	0.706793	-0.383377	-0.449655
C54	C	1.206793	0.116623	0.050345
C55	C	0.667671	-0.338405	-0.397038
C56	C	1.167671	0.161595	0.102962
C57	C	0.711100	-0.293424	-0.344417
C58	C	1.211100	0.206576	0.155583
C59	C	0.671980	-0.248448	-0.291803
C60	C	1.171980	0.251552	0.208197
C61	C	0.589431	-0.248460	-0.291813
C62	C	1.089431	0.251540	0.208187
C63	C	0.789342	-0.383365	-0.449645
C64	C	1.289342	0.116635	0.050355
C65	C	0.793654	-0.293414	-0.344408
C66	C	1.293654	0.206586	0.155592
C67	C	1.117139	-0.520881	-0.405751
C68	C	1.617139	-0.020881	0.094249
C69	C	1.113424	-0.598947	-0.409508
C70	C	1.613424	-0.098947	0.090492
C71	C	1.162255	-0.635617	-0.360770
C72	C	1.662255	-0.135617	0.139230
C73	C	1.158765	-0.708968	-0.364308
C74	C	1.658765	-0.208968	0.135692
C75	C	1.106439	-0.745648	-0.416580
C76	C	1.606439	-0.245648	0.083420
C77	C	1.057606	-0.708973	-0.465323
C78	C	1.557606	-0.208973	0.034677
C79	C	1.061100	-0.635624	-0.461789
C80	C	1.561100	-0.135624	0.038211
C81	C	1.093362	-0.967118	-0.429782
C82	C	1.593362	-0.467118	0.070218
C83	C	1.089869	-1.040473	-0.433311
C84	C	1.589869	-0.540473	0.066689
C85	C	1.191031	-1.040462	-0.332296
C86	C	1.691031	-0.540462	0.167704
C87	C	1.194517	-0.967110	-0.328763
C88	C	1.694517	-0.467110	0.171237
C89	C	1.145686	-0.930442	-0.377509
C90	C	1.645686	-0.430442	0.122491
C91	C	1.102869	-0.820625	-0.420196
C92	C	1.602869	-0.320625	0.079804
C93	C	1.149261	-0.855467	-0.373897
C94	C	1.649261	-0.355467	0.126103
C95	C	1.332161	-0.338425	-0.397052
C96	C	1.832161	0.161575	0.102948
C97	C	1.420017	-0.338435	-0.397060
C98	C	1.920017	0.161565	0.102940
C99	C	1.126040	-0.338354	-0.603198
C100	C	1.626040	0.161646	-0.103198
C101	C	1.126060	-0.338334	-0.691054
C102	C	1.626060	0.161666	-0.191054
C103	C	1.134904	-0.155208	-0.388296
C104	C	1.634904	0.344792	0.111704
C105	C	1.138701	-0.077142	-0.384573
C106	C	1.638701	0.422858	0.115427
C107	C	1.073335	-0.383237	-0.734466
C108	C	1.573335	0.116763	-0.234466
C109	C	1.178799	-0.293408	-0.730194
C110	C	1.678799	0.206592	-0.230194
C111	C	1.178817	-0.293385	-0.812739
C112	C	1.678817	0.206615	-0.312739
C113	C	1.126092	-0.338288	-0.856151
C114	C	1.626092	0.161712	-0.356151
C115	C	1.073350	-0.383214	-0.817018
C116	C	1.573350	0.116786	-0.317018
C117	C	1.231552	-0.248455	-0.851877
C118	C	1.731552	0.251545	-0.351877
C119	C	1.231571	-0.248430	-0.934427
C120	C	1.731571	0.251570	-0.434427
C121	C	1.178850	-0.293337	-0.977841
C122	C	1.678850	0.206663	-0.477841
C123	C	1.126106	-0.338265	-0.938703
C124	C	1.626106	0.161735	-0.438703
C125	C	1.073381	-0.383168	-0.982116
C126	C	1.573381	0.116832	-0.482116
C127	C	1.020641	-0.428100	-0.942980
C128	C	1.520641	0.071900	-0.442980
C129	C	1.020628	-0.428121	-0.860432
C130	C	1.520628	0.071879	-0.360432
C131	C	1.178863	-0.293316	-1.060388
C132	C	1.678863	0.206684	-0.560388
C133	C	1.073396	-0.383145	-1.064668
C134	C	1.573396	0.116855	-0.564668
C135	C	1.125995	-0.338397	-0.191665
C136	C	1.625995	0.161603	0.308335
C137	C	1.126138	-0.338219	-0.103801
C138	C	1.626138	0.161781	0.396199
H139	H	0.557572	-0.211843	-0.248976
H140	H	1.057572	0.288157	0.251024
C141	C	1.244743	-1.080803	-0.278682
C142	C	1.744743	-0.580803	0.221318
N143	N	1.285204	-1.111188	-0.238299
N144	N	1.785204	-0.611188	0.261701
H145	H	1.030463	-0.419713	-1.100009
H146	H	1.530463	0.080287	-0.600009
C147	C	0.719763	-0.198968	-0.233924
C148	C	1.219763	0.301032	0.266076
N149	N	0.755757	-0.161699	-0.190333
N150	N	1.255757	0.338301	0.309667
C151	C	1.039686	-0.926792	-0.483444
C152	C	1.539686	-0.426792	0.016556
N153	N	0.999270	-0.896416	-0.523881
N154	N	1.499270	-0.396416	-0.023881
H155	H	1.237125	-0.937247	-0.286199
H156	H	1.737125	-0.437247	0.213801
C157	C	1.289591	-0.199009	-0.977469
C158	C	1.789591	0.300991	-0.477469
N159	N	1.333295	-0.161786	-1.009889
N160	N	1.833295	0.338214	-0.509889
H161	H	1.221797	-0.256728	-1.092249
H162	H	1.721797	0.243272	-0.592249
C163	C	0.962640	-0.477486	-0.990744
C164	C	1.462640	0.022514	-0.490744
N165	N	0.918953	-0.514681	-1.026723
N166	N	1.418953	-0.014681	-0.526723
H167	H	0.545445	-0.464995	-0.545113
H168	H	1.045445	0.035005	-0.045113
H169	H	0.431591	-0.256833	-0.301604
H170	H	0.931591	0.243167	0.198396
C171	C	0.962612	-0.477535	-0.817376
C172	C	1.462612	0.022465	-0.317376
N173	N	0.918911	-0.514750	-0.784943
N174	N	1.418911	-0.014750	-0.284943
C175	C	1.015321	-0.432658	-0.691416
C176	C	1.515321	0.067342	-0.191416
N177	N	0.971623	-0.469881	-0.658990
N178	N	1.471623	0.030119	-0.158990
C179	C	1.007381	-0.595288	-0.515404
C180	C	1.507381	-0.095288	-0.015404
N181	N	0.966921	-0.564907	-0.555792
N182	N	1.466921	-0.064907	-0.055792
H183	H	0.423776	-0.420030	-0.492510
H184	H	0.923776	0.079970	0.007490
C185	C	1.236789	-0.244015	-0.682438
C186	C	1.736789	0.255985	-0.182438
N187	N	1.280470	-0.206810	-0.646464
N188	N	1.780470	0.293190	-0.146464
H189	H	1.274475	-0.211896	-0.816525
H190	H	1.774475	0.288104	-0.316525
C191	C	1.032309	-1.080819	-0.490821
C192	C	1.532309	-0.580819	0.009179
N193	N	0.988958	-1.111209	-0.534137
N194	N	1.488958	-0.611209	-0.034137
H195	H	0.829009	-0.256781	-0.301562
H196	H	1.329009	0.243219	0.198438
H197	H	0.821190	-0.419987	-0.492480
H198	H	1.321190	0.080013	0.007520
C199	C	0.706387	-0.477834	-0.560152
C200	C	1.206387	0.022166	-0.060152
N201	N	0.738794	-0.515096	-0.603748
N202	N	1.238794	-0.015096	-0.103748
H203	H	1.198529	-0.738821	-0.324620
H204	H	1.698529	-0.238821	0.175380
C205	C	1.219817	-0.595275	-0.303265
C206	C	1.719817	-0.095275	0.196735
N207	N	1.263176	-0.564892	-0.259952
N208	N	1.763176	-0.064892	0.240048
H209	H	1.015004	-0.738844	-0.507887
H210	H	1.515004	-0.238844	-0.007887
H211	H	1.191868	-0.825600	-0.331340
H212	H	1.691868	-0.325600	0.168660
H213	H	1.060264	-0.850498	-0.462754
H214	H	1.560264	-0.350498	0.037246
