data_functionalizedCrystal
_audit_creation_method	'MofGen! by Chris Wilmer'
_symmetry_space_group_name_H-M	'P1'
_symmetry_Int_Tables_number	1
_symmetry_cell_setting	triclinic
loop_
_symmetry_equiv_pos_as_xyz
  x,y,z
_cell_length_a	27.732048
_cell_length_b	15.455283
_cell_length_c	16.974813
_cell_angle_alpha	83.332430
_cell_angle_beta	83.020085
_cell_angle_gamma	86.997501
loop_
_atom_site_label
_atom_site_type_symbol
_atom_site_fract_x
_atom_site_fract_y
_atom_site_fract_z
O1	O	0.643346	-0.078859	0.097455
O2	O	0.976680	0.254474	0.430788
O3	O	1.310013	0.587807	0.764122
O4	O	0.502636	-0.079893	0.111805
O5	O	0.835969	0.253441	0.445138
O6	O	1.169302	0.586774	0.778471
O7	O	0.576703	-0.071264	-0.010868
O8	O	0.910037	0.262070	0.322465
O9	O	1.243370	0.595403	0.655798
O10	O	0.569279	-0.087488	0.220128
O11	O	0.902612	0.245845	0.553461
O12	O	1.235945	0.579179	0.886795
O13	O	0.572932	0.073433	-0.017059
O14	O	0.906265	0.406767	0.316275
O15	O	1.239598	0.740100	0.649608
O16	O	0.498864	0.064805	0.105614
O17	O	0.832197	0.398138	0.438948
O18	O	1.165531	0.731471	0.772281
O19	O	0.639575	0.065838	0.091265
O20	O	0.972908	0.399171	0.424598
O21	O	1.306241	0.732505	0.757931
Cu22	Cu	0.568875	0.078533	0.097874
Cu23	Cu	0.902208	0.411867	0.431208
Cu24	Cu	1.235542	0.745200	0.764541
Cu25	Cu	0.573335	-0.092588	0.105195
Cu26	Cu	0.906669	0.240745	0.438528
Cu27	Cu	1.240002	0.574079	0.771862
O28	O	0.565507	0.057209	0.213938
O29	O	0.898840	0.390542	0.547271
O30	O	1.232174	0.723876	0.880605
C31	C	0.482741	-0.007526	0.108408
C32	C	0.816075	0.325807	0.441742
C33	C	1.149408	0.659141	0.775075
C34	C	0.429081	-0.007472	0.107502
C35	C	0.762415	0.325861	0.440835
C36	C	1.095748	0.659194	0.774169
N37	N	0.576473	-0.212945	0.110338
N38	N	0.909806	0.120389	0.443672
N39	N	1.243139	0.453722	0.777005
C40	C	0.574465	0.003158	-0.043507
C41	C	0.907798	0.336491	0.289826
C42	C	1.241132	0.669824	0.623160
C43	C	0.573409	0.009334	-0.131537
C44	C	0.906742	0.342668	0.201796
C45	C	1.240076	0.676001	0.535130
C46	C	0.090647	-0.012125	0.174282
C47	C	0.423981	0.321208	0.507615
C48	C	0.757314	0.654541	0.840949
C49	C	-0.111032	-0.011881	0.170917
C50	C	0.222301	0.321452	0.504250
C51	C	0.555635	0.654786	0.837583
O52	O	-0.141939	-0.016133	0.231982
O53	O	0.191394	0.317201	0.565316
O54	O	0.524727	0.650534	0.898649
N55	N	-0.130571	-0.006774	0.098177
N56	N	0.202762	0.326560	0.431510
N57	N	0.536095	0.659893	0.764844
C58	C	-0.099688	-0.001721	0.026273
C59	C	0.233645	0.331612	0.359607
C60	C	0.566979	0.664945	0.692940
O61	O	-0.120936	0.002637	-0.035674
O62	O	0.212398	0.335971	0.297660
O63	O	0.545731	0.669304	0.630993
C64	C	0.101990	-0.001959	0.029639
C65	C	0.435323	0.331374	0.362973
C66	C	0.768657	0.664707	0.696306
C67	C	0.121527	-0.007076	0.102384
C68	C	0.454860	0.326258	0.435717
C69	C	0.788193	0.659591	0.769051
C70	C	0.110185	-0.017240	0.247021
C71	C	0.443518	0.316093	0.580354
C72	C	0.776851	0.649426	0.913688
C73	C	0.160602	-0.017306	0.247862
C74	C	0.493935	0.316027	0.581195
C75	C	0.827268	0.649361	0.914528
C76	C	0.191481	-0.012257	0.175964
C77	C	0.524814	0.321077	0.509297
C78	C	0.858148	0.654410	0.842630
C79	C	0.171944	-0.007141	0.103225
C80	C	0.505277	0.326192	0.436558
C81	C	0.838610	0.659525	0.769891
C82	C	0.132872	0.003099	-0.042264
C83	C	0.466205	0.336433	0.291069
C84	C	0.799539	0.669766	0.624403
C85	C	0.183294	0.003042	-0.041416
C86	C	0.516628	0.336375	0.291917
C87	C	0.849961	0.669708	0.625251
C88	C	0.202831	-0.002075	0.031329
C89	C	0.536164	0.331258	0.364662
C90	C	0.869498	0.664592	0.697995
C91	C	0.253240	-0.002158	0.032167
C92	C	0.586573	0.331176	0.365501
C93	C	0.919907	0.664509	0.698834
N94	N	0.272780	-0.007265	0.104907
N95	N	0.606113	0.326068	0.438240
N96	N	0.939446	0.659402	0.771574
C97	C	0.241900	-0.012315	0.176805
C98	C	0.575234	0.321019	0.510139
C99	C	0.908567	0.654352	0.843472
C100	C	-0.205572	-0.001598	0.024511
C101	C	0.127761	0.331735	0.357845
C102	C	0.461094	0.665068	0.691178
C103	C	-0.255991	-0.001540	0.023670
C104	C	0.077342	0.331793	0.357003
C105	C	0.410675	0.665126	0.690336
C106	C	-0.267332	-0.011699	0.168313
C107	C	0.066002	0.321635	0.501647
C108	C	0.399335	0.654968	0.834980
C109	C	-0.216911	-0.011763	0.169154
C110	C	0.116422	0.321571	0.502488
C111	C	0.449755	0.654904	0.835821
C112	C	-0.186033	-0.006706	0.097251
C113	C	0.147301	0.326628	0.430584
C114	C	0.480634	0.659961	0.763918
C115	C	0.347780	-0.012453	0.178565
C116	C	0.681113	0.320880	0.511899
C117	C	1.014447	0.654214	0.845232
C118	C	0.398202	-0.012522	0.179400
C119	C	0.731535	0.320811	0.512733
C120	C	1.064869	0.654145	0.846067
C121	C	0.409538	-0.002359	0.034757
C122	C	0.742871	0.330974	0.368090
C123	C	1.076204	0.664308	0.701423
C124	C	0.359120	-0.002295	0.033922
C125	C	0.692454	0.331039	0.367255
C126	C	1.025787	0.664372	0.700588
C127	C	0.328242	-0.007339	0.105833
C128	C	0.661575	0.325994	0.439166
C129	C	0.994909	0.659327	0.772499
O130	O	0.284176	0.002101	-0.028866
O131	O	0.617509	0.335435	0.304468
O132	O	0.950843	0.668768	0.637801
O133	O	0.263157	-0.016653	0.238743
O134	O	0.596490	0.316680	0.572076
O135	O	0.929823	0.650013	0.905409
C136	C	0.040230	-0.012059	0.173441
C137	C	0.373564	0.321274	0.506775
C138	C	0.706897	0.654607	0.840108
C139	C	0.020693	-0.006944	0.100702
C140	C	0.354026	0.326389	0.434036
C141	C	0.687360	0.659722	0.767369
C142	C	0.051572	-0.001895	0.028804
C143	C	0.384906	0.331438	0.362138
C144	C	0.718239	0.664772	0.695471
C145	C	-0.029726	-0.006886	0.099861
C146	C	0.303607	0.326447	0.433194
C147	C	0.636940	0.659780	0.766528
C148	C	-0.060606	-0.011936	0.171759
C149	C	0.272728	0.321398	0.505092
C150	C	0.606061	0.654731	0.838426
C151	C	-0.041066	-0.017043	0.244499
C152	C	0.292267	0.316290	0.577832
C153	C	0.625601	0.649623	0.911165
C154	C	0.009351	-0.017109	0.245339
C155	C	0.342684	0.316224	0.578673
C156	C	0.676017	0.649558	0.912006
C157	C	0.032033	0.003213	-0.043935
C158	C	0.365366	0.336546	0.289398
C159	C	0.698699	0.669879	0.622731
C160	C	-0.018385	0.003277	-0.044770
C161	C	0.314949	0.336610	0.288563
C162	C	0.648282	0.669944	0.621897
C163	C	-0.049264	-0.001773	0.027128
C164	C	0.284069	0.331561	0.360461
C165	C	0.617402	0.664894	0.693795
C166	C	0.659469	-0.006530	0.094661
C167	C	0.992802	0.326803	0.427994
C168	C	1.326136	0.660136	0.761328
C169	C	0.713129	-0.006590	0.095568
C170	C	1.046462	0.326743	0.428901
C171	C	1.379796	0.660077	0.762234
C172	C	0.548354	-0.255111	0.064403
C173	C	0.881687	0.078222	0.397736
C174	C	1.215021	0.411555	0.731069
C175	C	0.550734	-0.346191	0.068270
C176	C	0.884067	-0.012858	0.401604
C177	C	1.217400	0.320476	0.734937
C178	C	0.581230	-0.395103	0.118079
C179	C	0.914563	-0.061769	0.451412
C180	C	1.247897	0.271564	0.784745
C181	C	0.609352	-0.352930	0.164016
C182	C	0.942685	-0.019597	0.497349
C183	C	1.276019	0.313737	0.830683
C184	C	0.606975	-0.261852	0.160143
C185	C	0.940308	0.071482	0.493477
C186	C	1.273641	0.404815	0.826810
C187	C	0.591486	-0.667858	0.134790
C188	C	0.924819	-0.334525	0.468123
C189	C	1.258152	-0.001192	0.801456
C190	C	0.593860	-0.758943	0.138661
C191	C	0.927194	-0.425610	0.471994
C192	C	1.260527	-0.092276	0.805327
C193	C	0.535242	-0.752197	0.042913
C194	C	0.868576	-0.418864	0.376247
C195	C	1.201909	-0.085531	0.709580
C196	C	0.532865	-0.661118	0.039049
C197	C	0.866199	-0.327785	0.372382
C198	C	1.199532	0.005549	0.705716
C199	C	0.560989	-0.618953	0.084983
C200	C	0.894322	-0.285620	0.418316
C201	C	1.227656	0.047714	0.751650
N202	N	0.583662	-0.488201	0.122035
N203	N	0.916996	-0.154868	0.455368
N204	N	1.250329	0.178466	0.788702
N205	N	0.558559	-0.525856	0.081022
N206	N	0.891893	-0.192523	0.414355
N207	N	1.225226	0.140811	0.747688
N208	N	0.565741	0.198891	0.092725
N209	N	0.899075	0.532224	0.426058
N210	N	1.232408	0.865557	0.759391
C211	C	0.574970	-0.066638	-0.169515
C212	C	0.908303	0.266696	0.163818
C213	C	1.241636	0.600029	0.497152
C214	C	0.573974	-0.060831	-0.252228
C215	C	0.907308	0.272502	0.081105
C216	C	1.240641	0.605835	0.414439
C217	C	0.571422	0.020948	-0.296962
C218	C	0.904755	0.354281	0.036371
C219	C	1.238088	0.687615	0.369704
C220	C	0.569859	0.096926	-0.258978
C221	C	0.903192	0.430259	0.074355
C222	C	1.236526	0.763592	0.407688
C223	C	0.570851	0.091118	-0.176266
C224	C	0.904184	0.424452	0.157067
C225	C	1.237518	0.757785	0.490400
C226	C	0.568231	0.046774	-0.544697
C227	C	0.901564	0.380107	-0.211364
C228	C	1.234898	0.713440	0.121969
C229	C	0.567241	0.052575	-0.627415
C230	C	0.900574	0.385909	-0.294082
C231	C	1.233907	0.719242	0.039251
C232	C	0.571355	-0.105182	-0.620659
C233	C	0.904688	0.228151	-0.287325
C234	C	1.238022	0.561484	0.046008
C235	C	0.572350	-0.110982	-0.537946
C236	C	0.905683	0.222351	-0.204613
C237	C	1.239016	0.555684	0.128721
C238	C	0.570785	-0.035005	-0.499969
C239	C	0.904118	0.298329	-0.166635
C240	C	1.237451	0.631662	0.166698
N241	N	0.570406	0.026885	-0.381509
N242	N	0.903739	0.360218	-0.048175
N243	N	1.237072	0.693552	0.285158
N244	N	0.571797	-0.040943	-0.415423
N245	N	0.905131	0.292391	-0.082090
N246	N	1.238464	0.625724	0.251244
C247	C	0.567745	-0.017214	0.246577
C248	C	0.901079	0.316119	0.579910
C249	C	1.234412	0.649452	0.913243
C250	C	0.568802	-0.023397	0.334607
C251	C	0.902135	0.309937	0.667940
C252	C	1.235468	0.643270	1.001273
H253	H	0.414106	-0.016689	0.238640
H254	H	0.747439	0.316644	0.571973
H255	H	1.080772	0.649978	0.905307
H256	H	0.057171	0.007327	-0.102485
H257	H	0.390504	0.340660	0.230849
H258	H	0.723837	0.673993	0.564182
H259	H	0.512346	-0.786538	0.005516
H260	H	0.845679	-0.453205	0.338849
H261	H	1.179013	-0.119871	0.672182
F262	F	0.569189	0.171978	-0.135848
F263	F	0.902523	0.505312	0.197486
F264	F	1.235856	0.838645	0.530819
F265	F	-0.073939	-0.022422	0.321018
F266	F	0.259394	0.310912	0.654351
F267	F	0.592727	0.644245	0.987685
H268	H	0.116974	0.007267	-0.101500
H269	H	0.450308	0.340600	0.231833
H270	H	0.783641	0.673933	0.565166
F271	F	0.567137	0.183962	-0.306589
F272	F	0.900470	0.517295	0.026744
F273	F	1.233803	0.850628	0.360078
F274	F	0.520794	-0.391065	0.019398
F275	F	0.854127	-0.057731	0.352732
F276	F	1.187460	0.275602	0.686065
H277	H	0.572628	-0.167039	-0.651589
H278	H	0.905962	0.166295	-0.318255
H279	H	1.239295	0.499628	0.015078
F280	F	0.575068	-0.198023	-0.490342
F281	F	0.908401	0.135311	-0.157009
F282	F	1.241734	0.468644	0.176324
H283	H	0.618693	-0.798765	0.179226
H284	H	0.952026	-0.465432	0.512559
H285	H	1.285360	-0.132099	0.845893
H286	H	-0.201008	-0.015924	0.228389
H287	H	0.132325	0.317409	0.561723
H288	H	0.465658	0.650742	0.895056
F289	F	0.500405	-0.609069	-0.013960
F290	F	0.833738	-0.275735	0.319373
F291	F	1.167071	0.057598	0.652706
F292	F	0.314924	-0.017821	0.255101
F293	F	0.648257	0.315512	0.588434
F294	F	0.981590	0.648845	0.921768
F295	F	0.181387	-0.022748	0.325287
F296	F	0.514721	0.310586	0.658620
F297	F	0.848054	0.643919	0.991954
H298	H	0.565159	0.119173	-0.663836
H299	H	0.898493	0.452506	-0.330502
H300	H	1.231826	0.785840	0.002831
H301	H	0.085047	-0.021349	0.305572
H302	H	0.418380	0.311984	0.638906
H303	H	0.751713	0.645317	0.972239
F304	F	-0.300205	-0.017072	0.244833
F305	F	0.033129	0.316262	0.578166
F306	F	0.366462	0.649595	0.911500
F307	F	0.575636	-0.141692	-0.292643
F308	F	0.908969	0.191642	0.040690
F309	F	1.242303	0.524975	0.374024
H310	H	-0.271893	0.002612	-0.035566
H311	H	0.061440	0.335946	0.297768
H312	H	0.394773	0.669279	0.631101
F313	F	0.216155	0.008426	-0.117948
F314	F	0.549489	0.341760	0.215385
F315	F	0.882822	0.675093	0.548719
H316	H	0.614386	-0.633539	0.172193
H317	H	0.947719	-0.300206	0.505527
H318	H	1.281053	0.033128	0.838860
F319	F	0.636904	-0.216976	0.209032
F320	F	0.970238	0.116358	0.542365
F321	F	1.303571	0.449691	0.875698
F322	F	-0.039171	0.008712	-0.122200
F323	F	0.294163	0.342045	0.211133
F324	F	0.627496	0.675379	0.544466
F325	F	0.566559	0.127637	-0.504288
F326	F	0.899893	0.460970	-0.170955
F327	F	1.233226	0.794303	0.162378
H328	H	0.523518	-0.215294	0.023848
H329	H	0.856851	0.118040	0.357181
H330	H	1.190185	0.451373	0.690514
F331	F	0.641811	-0.404988	0.217022
F332	F	0.975145	-0.071655	0.550355
F333	F	1.308478	0.261679	0.883689
F334	F	0.338327	0.003151	-0.043501
F335	F	0.671660	0.336485	0.289833
F336	F	1.004994	0.669818	0.623166
F337	F	-0.172714	0.003784	-0.052023
F338	F	0.160619	0.337117	0.281310
F339	F	0.493953	0.670450	0.614643
H340	H	0.577051	-0.133231	-0.133098
H341	H	0.910384	0.200102	0.200235
H342	H	1.243718	0.533436	0.533568
F343	F	0.442410	0.003016	-0.041758
F344	F	0.775744	0.336349	0.291575
F345	F	1.109077	0.669683	0.624908
H346	H	0.025253	-0.021274	0.304575
H347	H	0.358586	0.312059	0.637909
H348	H	0.691919	0.645393	0.971242
