data_functionalizedCrystal
_audit_creation_method	'MofGen! by Chris Wilmer'
_symmetry_space_group_name_H-M	'P1'
_symmetry_Int_Tables_number	1
_symmetry_cell_setting	triclinic
loop_
_symmetry_equiv_pos_as_xyz
  x,y,z
_cell_length_a	10.967926
_cell_length_b	15.625429
_cell_length_c	10.065875
_cell_angle_alpha	80.990427
_cell_angle_beta	93.120479
_cell_angle_gamma	88.215185
loop_
_atom_site_label
_atom_site_type_symbol
_atom_site_fract_x
_atom_site_fract_y
_atom_site_fract_z
O1	O	1.624564	0.148994	0.194868
O2	O	1.274711	0.151434	0.111375
O3	O	1.449484	0.026142	0.214488
O4	O	1.449792	0.274287	0.091755
O5	O	1.416165	0.050134	0.421767
O6	O	1.241393	0.175426	0.318654
O7	O	1.591246	0.172986	0.402147
Zn8	Zn	1.411029	0.178016	0.393310
Zn9	Zn	1.454928	0.146405	0.120212
O10	O	1.416473	0.298279	0.299033
C11	C	1.213103	0.161440	0.205427
C12	C	1.079167	0.155499	0.176865
C13	C	1.429537	0.006280	0.333118
C14	C	1.419728	-0.088646	0.377780
C15	C	1.002194	0.165279	0.271508
C16	C	0.863764	0.159139	0.241990
C17	C	1.478234	-0.466232	-0.040229
C18	C	1.469005	-0.555425	0.001775
C19	C	1.432684	-0.529257	0.227736
C20	C	1.441916	-0.440061	0.185752
C21	C	1.464690	-0.408556	0.051767
C22	C	1.428371	-0.382384	0.277748
C23	C	1.437596	-0.293195	0.235765
C24	C	1.460366	-0.261683	0.101786
C25	C	1.473915	-0.319367	0.009784
C26	C	1.405589	-0.413890	0.411730
C27	C	1.392044	-0.356214	0.503727
C28	C	1.401278	-0.267023	0.461746
C29	C	1.424047	-0.235511	0.327767
C30	C	1.387729	-0.209339	0.553748
C31	C	1.396954	-0.120151	0.511765
C32	C	1.433272	-0.146323	0.285784
C33	C	1.652855	0.162980	0.308092
C34	C	1.786792	0.168920	0.336646
C35	C	1.436421	0.318140	0.180401
C36	C	1.446231	0.413065	0.135730
N37	N	1.381078	0.199589	0.579695
N38	N	1.484888	0.124826	-0.066168
C39	C	1.444499	0.153905	0.684999
C40	C	1.421458	0.170515	0.828526
H41	H	1.038779	0.178192	0.374390
H42	H	0.827186	0.146217	0.139104
F43	F	1.502489	-0.432699	-0.182828
H44	H	1.385899	-0.073187	0.586671
F45	F	1.537541	0.086552	0.663984
F46	F	1.578375	0.057775	0.912781
H47	H	1.350093	0.221924	0.844620
F48	F	1.287803	0.266780	0.600735
F49	F	1.457527	-0.112789	0.143185
F50	F	0.834595	0.185797	0.471133
F51	F	1.470187	-0.166759	0.057104
F52	F	1.031356	0.138607	0.042394
H53	H	1.480026	-0.602384	-0.073153
H54	H	1.492470	-0.293715	-0.099316
H55	H	1.369174	-0.235004	0.662835
F56	F	1.408437	-0.562796	0.370325
H57	H	1.373497	-0.381877	0.612816
F58	F	1.395767	-0.508814	0.456408
