data_functionalizedCrystal
_audit_creation_method	'MofGen! by Chris Wilmer'
_symmetry_space_group_name_H-M	'P1'
_symmetry_Int_Tables_number	1
_symmetry_cell_setting	triclinic
loop_
_symmetry_equiv_pos_as_xyz
  x,y,z
_cell_length_a	14.908571
_cell_length_b	14.908520
_cell_length_c	14.908308
_cell_angle_alpha	96.360765
_cell_angle_beta	90.175053
_cell_angle_gamma	90.205961
loop_
_atom_site_label
_atom_site_type_symbol
_atom_site_fract_x
_atom_site_fract_y
_atom_site_fract_z
Zn1	Zn	1.316651	-0.470613	-0.613065
Zn2	Zn	1.316549	-0.613252	-0.470429
Zn3	Zn	1.176020	-0.453291	-0.453125
Zn4	Zn	1.157642	-0.612180	-0.612023
O5	O	1.241715	-0.537334	-0.537161
O6	O	1.441995	-0.497231	-0.601822
O7	O	1.305556	-0.585232	-0.341941
O8	O	1.202409	-0.329399	-0.467536
O9	O	1.441920	-0.602028	-0.497029
O10	O	1.305730	-0.342124	-0.585043
O11	O	1.202310	-0.467710	-0.329228
O12	O	1.048225	-0.466671	-0.466525
O13	O	1.171086	-0.600202	-0.738354
O14	O	1.034722	-0.583406	-0.583267
O15	O	1.287909	-0.496192	-0.739120
O16	O	1.287736	-0.739300	-0.496018
O17	O	1.170987	-0.738513	-0.600046
C18	C	1.008970	-0.523043	-0.522906
C19	C	0.909397	-0.516953	-0.516830
C20	C	1.227379	-0.771629	-0.549818
C21	C	1.221326	-0.871868	-0.555268
C22	C	0.708277	-0.627234	-0.626831
C23	C	0.614720	-0.621514	-0.621125
C24	C	0.628723	-0.499789	-0.499719
C25	C	0.722281	-0.505509	-0.505424
C26	C	0.762054	-0.569235	-0.568981
C27	C	0.855613	-0.574958	-0.574682
C28	C	0.869615	-0.453230	-0.453280
C29	C	0.776058	-0.447510	-0.447575
C30	C	1.331634	-1.060998	-0.457284
C31	C	1.325950	-1.155181	-0.462402
C32	C	1.204279	-1.154420	-0.570626
C33	C	1.209963	-1.060237	-0.565508
C34	C	1.273642	-1.013529	-0.508834
C35	C	1.279321	-0.919343	-0.503712
C36	C	1.157655	-0.918584	-0.611940
C37	C	1.151970	-1.012768	-0.617058
C38	C	1.475370	-0.551681	-0.551472
C39	C	1.574939	-0.557795	-0.557571
C40	C	1.227459	-0.550010	-0.772372
C41	C	1.221383	-0.555411	-0.872606
C42	C	1.256131	-0.302127	-0.524476
C43	C	1.262274	-0.201896	-0.519070
C44	C	1.331614	-0.457236	-1.061752
C45	C	1.325908	-0.462308	-1.155930
C46	C	1.204264	-0.570623	-1.155141
C47	C	1.209969	-0.565551	-1.060963
C48	C	1.273647	-0.508856	-1.014272
C49	C	1.279356	-0.503789	-0.920093
C50	C	1.157708	-0.612099	-0.919305
C51	C	1.152002	-0.617171	-1.013483
C52	C	1.255972	-0.524646	-0.302864
C53	C	1.262236	-0.519001	-0.202628
H54	H	0.887995	-0.626848	-0.626432
H55	H	1.152420	-0.616780	-1.193173
H56	H	0.913411	-0.406004	-0.406173
C57	C	1.082732	-0.678602	-1.064116
C58	C	0.996686	-0.652287	-1.034737
C59	C	0.932852	-0.708852	-1.081366
H60	H	1.092948	-0.739191	-1.052788
H61	H	1.087572	-0.674220	-1.127010
H62	H	0.991848	-0.656677	-0.971857
H63	H	0.986441	-0.591707	-1.046066
H64	H	0.937692	-0.704470	-1.144260
H65	H	0.943077	-0.769437	-1.070034
H66	H	0.874463	-0.691000	-1.061444
C67	C	1.094859	-0.668305	-0.867819
C68	C	1.107526	-0.759958	-0.896725
C69	C	1.049656	-0.811762	-0.849311
H70	H	1.034507	-0.652358	-0.878825
H71	H	1.107376	-0.657230	-0.805037
H72	H	1.095002	-0.771028	-0.959492
H73	H	1.167866	-0.775932	-0.885718
H74	H	1.062173	-0.800687	-0.786528
H75	H	0.989308	-0.795807	-0.860320
H76	H	1.058248	-0.873954	-0.868910
C77	C	1.400721	-0.395779	-1.010894
C78	C	1.393325	-0.402403	-0.918257
C79	C	1.456982	-0.345813	-0.871381
H80	H	1.390460	-0.335176	-1.022147
H81	H	1.459187	-0.413515	-1.030676
H82	H	1.334873	-0.384662	-0.898482
H83	H	1.403595	-0.462994	-0.906977
H84	H	1.515449	-0.363549	-0.891162
H85	H	1.446716	-0.285213	-0.882641
H86	H	1.451979	-0.350306	-0.808522
H87	H	1.373109	-0.420271	-1.194585
H88	H	1.100127	-1.050810	-0.663202
H89	H	1.152440	-1.192467	-0.616773
C90	C	0.751297	-0.696450	-0.695920
C91	C	0.684175	-0.746009	-0.745374
C92	C	0.723769	-0.809771	-0.809036
H93	H	0.787478	-0.736141	-0.665810
H94	H	0.787496	-0.666386	-0.735682
H95	H	0.647991	-0.776071	-0.705619
H96	H	0.647989	-0.706343	-0.775504
H97	H	0.759969	-0.779707	-0.848798
H98	H	0.759950	-0.849455	-0.778919
H99	H	0.678234	-0.843399	-0.842604
H100	H	0.570938	-0.668742	-0.668234
C101	C	1.348406	-0.868732	-0.442041
C102	C	1.333018	-0.885711	-0.352861
C103	C	1.396650	-0.839116	-0.296027
H104	H	1.343551	-0.805824	-0.446253
H105	H	1.406869	-0.888531	-0.459763
H106	H	1.274569	-0.865907	-0.335144
H107	H	1.337880	-0.948610	-0.348620
H108	H	1.455114	-0.858915	-0.313749
H109	H	1.391790	-0.776210	-0.300247
H110	H	1.386223	-0.850636	-0.235513
H111	H	1.110431	-0.879924	-0.653913
C112	C	0.585361	-0.430663	-0.430784
C113	C	0.491918	-0.438069	-0.438177
C114	C	0.451943	-0.374397	-0.374695
H115	H	0.603503	-0.371714	-0.441707
H116	H	0.603479	-0.441409	-0.371776
H117	H	0.473807	-0.427316	-0.497171
H118	H	0.473750	-0.497003	-0.427244
H119	H	0.470061	-0.385143	-0.315687
H120	H	0.470091	-0.315453	-0.385624
H121	H	0.388538	-0.379419	-0.379697
C122	C	1.400711	-1.010382	-0.395607
C123	C	1.385310	-1.027357	-0.306428
C124	C	1.448931	-0.980755	-0.249586
H125	H	1.395853	-0.947475	-0.399823
H126	H	1.459178	-1.030177	-0.413319
H127	H	1.326857	-1.007557	-0.288722
H128	H	1.390175	-1.090255	-0.302184
H129	H	1.507398	-1.000550	-0.267298
H130	H	1.444068	-0.917850	-0.253810
H131	H	1.438495	-0.992273	-0.189073
H132	H	1.373175	-1.193828	-0.420427
C133	C	0.732988	-0.378378	-0.378437
C134	C	0.759956	-0.394451	-0.291624
C135	C	0.720309	-0.330779	-0.227910
H136	H	0.669564	-0.383213	-0.383199
H137	H	0.751240	-0.319444	-0.389336
H138	H	0.741699	-0.453370	-0.280728
H139	H	0.823375	-0.389608	-0.286832
H140	H	0.738561	-0.271844	-0.238808
H141	H	0.656887	-0.335619	-0.232680
H142	H	0.738608	-0.341670	-0.169000
H143	H	1.331207	-0.457627	-0.882079
