data_functionalizedCrystal
_audit_creation_method	'MofGen! by Chris Wilmer'
_symmetry_space_group_name_H-M	'P1'
_symmetry_Int_Tables_number	1
_symmetry_cell_setting	triclinic
loop_
_symmetry_equiv_pos_as_xyz
  x,y,z
_cell_length_a	17.699104
_cell_length_b	10.489741
_cell_length_c	16.176319
_cell_angle_alpha	89.993511
_cell_angle_beta	89.991696
_cell_angle_gamma	83.915346
loop_
_atom_site_label
_atom_site_type_symbol
_atom_site_fract_x
_atom_site_fract_y
_atom_site_fract_z
O1	O	1.005125	0.161422	-0.068763
O2	O	1.505125	0.661422	0.431237
O3	O	0.784886	0.182380	-0.068761
O4	O	1.284886	0.682380	0.431239
O5	O	0.900017	-0.013789	-0.068757
O6	O	1.400017	0.486211	0.431243
O7	O	0.889994	0.357591	-0.068767
O8	O	1.389994	0.857591	0.431233
O9	O	0.900001	-0.013802	0.068736
O10	O	1.400001	0.486198	0.568736
O11	O	0.784870	0.182367	0.068732
O12	O	1.284870	0.682367	0.568732
O13	O	1.005109	0.161410	0.068730
O14	O	1.505109	0.661410	0.568730
Cu15	Cu	0.894988	0.171887	0.081286
Cu16	Cu	1.394988	0.671887	0.581286
Cu17	Cu	0.895007	0.171902	-0.081316
Cu18	Cu	1.395007	0.671902	0.418684
O19	O	0.889978	0.357579	0.068727
O20	O	1.389978	0.857579	0.568727
C21	C	0.756676	0.181618	-0.000014
C22	C	1.256676	0.681618	0.499986
C23	C	0.672644	0.179351	-0.000013
C24	C	1.172644	0.679351	0.499987
C25	C	0.148443	0.281717	-0.000024
C26	C	0.648443	0.781717	0.499976
C27	C	0.227400	0.283839	-0.000027
C28	C	0.727400	0.783839	0.499973
C29	C	0.275264	0.168680	-0.000024
C30	C	0.775264	0.668680	0.499976
C31	C	0.244167	0.051392	-0.000026
C32	C	0.744167	0.551392	0.499974
C33	C	0.165211	0.049272	-0.000030
C34	C	0.665211	0.549272	0.499970
C35	C	0.562589	0.059941	-0.000013
C36	C	1.062589	0.559941	0.499987
C37	C	0.641550	0.062071	-0.000007
C38	C	1.141550	0.562071	0.499993
C39	C	0.624778	0.294509	-0.000010
C40	C	1.124778	0.794509	0.499990
C41	C	0.545822	0.292388	-0.000014
C42	C	1.045822	0.792388	0.499986
C43	C	0.514732	0.175101	-0.000021
C44	C	1.014732	0.675101	0.499979
C45	C	0.429117	0.172802	-0.000020
C46	C	0.929117	0.672802	0.499980
C47	C	0.360878	0.170978	-0.000019
C48	C	0.860878	0.670978	0.499981
C49	C	0.899252	-0.061313	-0.000011
C50	C	1.399252	0.438687	0.499989
C51	C	0.896987	-0.202901	-0.000012
C52	C	1.396987	0.297099	0.499988
C53	C	0.823732	-0.269689	-0.000018
C54	C	1.323732	0.230311	0.499982
C55	C	0.858329	-0.362456	0.067773
C56	C	1.358329	0.137544	0.567773
C57	C	0.858362	-0.362419	-0.067784
C58	C	1.358362	0.137581	0.432216
C59	C	0.931614	-0.293803	0.067835
C60	C	1.431614	0.206197	0.567835
C61	C	0.931637	-0.293756	-0.067784
C62	C	1.431637	0.206244	0.432216
C63	C	0.966287	-0.386497	0.000024
C64	C	1.466287	0.113503	0.500024
C65	C	1.033318	0.162172	-0.000018
C66	C	1.533318	0.662172	0.499982
C67	C	1.117350	0.164438	-0.000025
C68	C	1.617350	0.664438	0.499975
C69	C	0.890743	0.405103	-0.000021
C70	C	1.390743	0.905103	0.499979
C71	C	0.893008	0.546690	-0.000025
C72	C	1.393008	1.046690	0.499975
N73	N	0.894980	0.171876	0.195651
N74	N	1.394980	0.671876	0.695651
N75	N	0.895020	0.171903	-0.195681
N76	N	1.395020	0.671903	0.304319
C77	C	0.945976	0.085048	0.238917
C78	C	1.445976	0.585048	0.738917
C79	C	0.945979	0.085047	0.325464
C80	C	1.445979	0.585047	0.825464
C81	C	0.894991	0.171881	0.368743
C82	C	1.394991	0.671881	0.868743
C83	C	0.843989	0.258713	0.325471
C84	C	1.343989	0.758713	0.825471
C85	C	0.843983	0.258707	0.238926
C86	C	1.343983	0.758707	0.738926
C87	C	0.844015	0.258737	0.674500
C88	C	1.344015	0.758737	1.174500
C89	C	0.844028	0.258738	0.761051
C90	C	1.344028	0.758738	1.261051
C91	C	0.946012	0.085076	0.761038
C92	C	1.446012	0.585076	1.261038
C93	C	0.946005	0.085071	0.674492
C94	C	1.446005	0.585071	1.174492
C95	C	0.895002	0.171898	0.631228
C96	C	1.395002	0.671898	1.131228
C97	C	0.894997	0.171897	0.537384
C98	C	1.394997	0.671897	1.037384
C99	C	0.894998	0.171889	0.462586
C100	C	1.394998	0.671889	0.962586
H101	H	0.506854	0.386162	-0.000012
H102	H	1.006854	0.886162	0.499988
H103	H	0.109476	0.375493	-0.000021
H104	H	0.609476	0.875493	0.499979
H105	H	0.252711	0.379339	-0.000034
H106	H	0.752711	0.879339	0.499966
H107	H	0.827327	-0.392901	0.125086
H108	H	1.327327	0.107099	0.625086
C109	C	1.002111	-0.010447	0.808636
C110	C	1.502111	0.489553	1.308636
N111	N	1.044364	-0.082393	0.844486
N112	N	1.544364	0.417607	1.344486
C113	C	0.973483	-0.252576	-0.145216
C114	C	1.473483	0.247424	0.354784
N115	N	1.004997	-0.221555	-0.203545
N116	N	1.504997	0.278445	0.296455
H117	H	0.827364	-0.392806	-0.125102
H118	H	1.327364	0.107194	0.374898
C119	C	0.658984	0.423529	-0.000011
C120	C	1.158984	0.923529	0.499989
N121	N	0.684747	0.520704	-0.000010
N122	N	1.184747	1.020704	0.499990
H123	H	0.283145	-0.042372	-0.000029
H124	H	0.783145	0.457628	0.499971
H125	H	0.987500	0.014343	0.203684
H126	H	1.487500	0.514343	0.703684
H127	H	0.139898	-0.046229	-0.000032
H128	H	0.639898	0.453771	0.499968
H129	H	0.763503	-0.218927	0.000051
H130	H	1.263503	0.281073	0.500051
H131	H	0.537286	-0.035561	-0.000017
H132	H	1.037286	0.464439	0.499983
C133	C	0.973439	-0.252934	0.145350
C134	C	1.473439	0.247066	0.645350
N135	N	1.004939	-0.222146	0.203735
N136	N	1.504939	0.277854	0.703735
C137	C	1.047724	-0.454783	0.000076
C138	C	1.547724	0.045217	0.500076
N139	N	1.109061	-0.506220	0.000120
N140	N	1.609061	-0.006220	0.500120
H141	H	0.987503	0.014344	0.360690
H142	H	1.487503	0.514344	0.860690
H143	H	0.987528	0.014367	0.639256
H144	H	1.487528	0.514367	1.139256
C145	C	0.787929	0.354259	0.808657
C146	C	1.287929	0.854259	1.308657
N147	N	0.745676	0.426200	0.844514
N148	N	1.245676	0.926200	1.344514
C149	C	0.788009	0.354415	0.626920
C150	C	1.288009	0.854415	1.126920
N151	N	0.745858	0.426543	0.591080
N152	N	1.245858	0.926543	1.091080
C153	C	0.787894	0.354219	0.373082
C154	C	1.287894	0.854219	0.873082
N155	N	0.745641	0.426157	0.408942
N156	N	1.245641	0.926157	0.908942
H157	H	0.680521	-0.031711	-0.000007
H158	H	1.180521	0.468289	0.499993
C159	C	0.787889	0.354235	0.191334
C160	C	1.287889	0.854235	0.691334
N161	N	0.745639	0.426191	0.155489
N162	N	1.245639	0.926191	0.655489
