data_functionalizedCrystal
_audit_creation_method	'MofGen! by Chris Wilmer'
_symmetry_space_group_name_H-M	'P1'
_symmetry_Int_Tables_number	1
_symmetry_cell_setting	triclinic
loop_
_symmetry_equiv_pos_as_xyz
  x,y,z
_cell_length_a	6.817900
_cell_length_b	17.982865
_cell_length_c	11.102182
_cell_angle_alpha	94.240804
_cell_angle_beta	108.603774
_cell_angle_gamma	102.450232
loop_
_atom_site_label
_atom_site_type_symbol
_atom_site_fract_x
_atom_site_fract_y
_atom_site_fract_z
V1	V	-4.080381	-0.105422	-0.396803
O2	O	-4.072040	0.005058	-0.388688
O3	O	-4.026562	-0.209026	-0.394629
O4	O	-4.057632	-0.103804	-0.569616
O5	O	-4.040754	-0.100893	-0.212490
V6	V	-4.561387	-0.092207	-0.374692
O7	O	-4.347160	-0.134410	-0.445305
O8	O	-4.744805	-0.063218	-0.326190
O9	O	-4.391999	0.011397	-0.376866
O10	O	-4.687124	-0.202686	-0.382807
O11	O	-4.718410	-0.096736	-0.559006
O12	O	-4.360929	-0.093825	-0.201879
C13	C	-3.869414	-0.234282	-0.388508
C14	C	-3.906869	-0.318980	-0.387883
C15	C	-4.079735	-0.827975	-0.267477
C16	C	-4.044546	-0.748394	-0.268082
C17	C	-4.083910	-0.719494	-0.384829
C18	C	-4.158449	-0.770178	-0.500978
C19	C	-4.193623	-0.849757	-0.500371
C20	C	-4.016597	-0.449245	-0.503427
C21	C	-3.981422	-0.369660	-0.504025
C22	C	-3.867520	-0.347882	-0.271138
C23	C	-3.902693	-0.427461	-0.270531
C24	C	-3.977218	-0.478139	-0.386679
C25	C	-4.015370	-0.564429	-0.386021
C26	C	-4.045774	-0.633205	-0.385488
C27	C	-3.909047	-0.100060	-0.611721
C28	C	-3.971695	-0.099423	-0.753000
C29	C	-4.040693	-0.168891	-0.837895
C30	C	-4.099576	-0.168282	-0.970640
C31	C	-4.020446	-0.028731	-0.933582
C32	C	-3.961579	-0.029340	-0.800840
C33	C	-4.050809	-0.238973	-0.790055
C34	C	-4.119808	-0.308447	-0.874952
C35	C	-4.178692	-0.307839	-1.007697
C36	C	-4.168576	-0.237756	-1.055546
C37	C	-4.212488	0.036650	-0.382983
C38	C	-4.154273	0.121346	-0.383617
C39	C	-4.172855	-0.097571	-0.159768
C40	C	-4.089446	-0.098204	-0.018487
H41	H	-3.806825	-0.306610	-0.176564
H42	H	-4.128055	-0.365506	-0.835985
Cl43	Cl	-3.976778	-0.239743	-0.623177
Cl44	Cl	-4.030910	-0.333330	-0.650804
H45	H	-3.905396	0.027227	-0.731715
H46	H	-4.234890	-0.364408	-1.076818
Cl47	Cl	-4.242631	-0.236994	-1.222429
Cl48	Cl	-4.030252	-0.864299	-0.120701
H49	H	-4.190485	-0.746641	-0.596035
H50	H	-4.012214	0.028327	-0.972552
H51	H	-4.077282	-0.490498	-0.598002
H52	H	-3.870645	-0.450987	-0.175464
Cl53	Cl	-3.950837	-0.684686	-0.122070
Cl54	Cl	-4.287355	-0.913469	-0.646384
