data_functionalizedCrystal
_audit_creation_method	'MofGen! by Chris Wilmer'
_symmetry_space_group_name_H-M	'P1'
_symmetry_Int_Tables_number	1
_symmetry_cell_setting	triclinic
loop_
_symmetry_equiv_pos_as_xyz
  x,y,z
_cell_length_a	17.640112
_cell_length_b	12.594516
_cell_length_c	12.594509
_cell_angle_alpha	90.024652
_cell_angle_beta	78.825183
_cell_angle_gamma	101.240082
loop_
_atom_site_label
_atom_site_type_symbol
_atom_site_fract_x
_atom_site_fract_y
_atom_site_fract_z
Zn1	Zn	1.208346	-0.094434	0.273404
Zn2	Zn	1.208264	-0.272461	0.095454
Zn3	Zn	1.076172	-0.130494	0.131362
Zn4	Zn	1.076160	-0.308393	0.309295
O5	O	1.142236	-0.201446	0.202379
O6	O	1.318936	-0.087920	0.219750
O7	O	1.190713	-0.253683	-0.048721
O8	O	1.093745	0.023246	0.150212
O9	O	1.318876	-0.218717	0.089011
O10	O	1.190852	0.049739	0.254569
O11	O	1.093666	-0.149381	-0.022339
O12	O	0.965570	-0.184222	0.185013
O13	O	1.093724	-0.279957	0.453472
O14	O	0.965560	-0.314924	0.315740
O15	O	1.190840	-0.122762	0.427103
O16	O	1.190701	-0.426184	0.123813
O17	O	1.093644	-0.452583	0.280921
C18	C	0.936887	-0.257386	0.258168
C19	C	0.849038	-0.281343	0.282060
C20	C	0.560029	-0.019428	0.020880
C21	C	0.477481	-0.041961	0.043345
C22	C	0.477526	-0.178248	0.179236
C23	C	0.560075	-0.155723	0.156786
C24	C	0.601320	-0.076313	0.077606
C25	C	0.601366	-0.212607	0.213512
C26	C	0.683908	-0.190088	0.191060
C27	C	0.725159	-0.110683	0.111881
C28	C	0.683862	-0.053793	0.055154
C29	C	0.560120	-0.292022	0.292686
C30	C	0.601411	-0.348907	0.349411
C31	C	0.683955	-0.326382	0.326965
C32	C	0.725205	-0.246978	0.247787
C33	C	0.725252	-0.383273	0.383692
C34	C	0.807794	-0.360753	0.361240
C35	C	0.807747	-0.224458	0.225335
C36	C	1.142184	-0.478001	0.202382
C37	C	1.142234	-0.596293	0.202400
C38	C	1.089440	-0.679944	0.287802
C39	C	1.070182	-0.756055	0.195914
C40	C	1.161563	-0.730961	0.294285
C41	C	1.122938	-0.670856	0.110470
C42	C	1.214353	-0.645746	0.208898
C43	C	1.195123	-0.721818	0.116935
C44	C	1.348386	-0.145288	0.146372
C45	C	1.436235	-0.121357	0.122505
C46	C	1.142290	-0.201345	0.479985
C47	C	1.142313	-0.201303	0.598284
C48	C	1.142309	0.076195	0.202392
C49	C	1.142340	0.194509	0.202398
C50	C	1.142227	-0.201457	-0.074160
C51	C	1.142357	-0.201158	-0.192500
C52	C	1.089524	-0.286703	0.752634
C53	C	1.070200	-0.194904	0.687082
C54	C	1.161601	-0.293101	0.662275
C55	C	1.122997	-0.109317	0.743515
C56	C	1.214430	-0.207570	0.718706
C57	C	1.195134	-0.115697	0.653178
H58	H	0.841414	-0.407073	0.407433
H59	H	1.275279	-0.597927	0.214438
O60	O	1.183170	-0.766168	0.397211
H61	H	1.139207	-0.749842	0.467968
H62	H	0.717446	0.010887	-0.009306
H63	H	0.691658	-0.447936	0.448152
H64	H	0.443933	-0.242907	0.243701
O65	O	1.101323	-0.006393	0.790395
H66	H	1.041670	-0.001000	0.777545
O67	O	0.989442	-0.187811	0.667796
H68	H	0.949074	-0.185007	0.746728
H69	H	0.593613	0.045251	-0.043580
O70	O	1.030202	-0.654970	0.383381
H71	H	1.031078	-0.566610	0.382958
H72	H	1.044830	-0.358917	0.795848
H73	H	0.443865	0.004375	-0.002846
H74	H	1.239815	-0.740475	0.044643
H75	H	1.239795	-0.043347	0.610171
O76	O	0.989457	-0.819371	0.188613
H77	H	0.990389	-0.907236	0.187887
O78	O	1.101240	-0.635857	0.007534
H79	H	1.101334	-0.547706	0.008363
H80	H	1.275383	-0.212975	0.733272
O81	O	1.183193	-0.396007	0.615232
H82	H	1.193419	-0.447546	0.680445
O83	O	0.852240	-0.138809	0.139931
H84	H	0.836407	-0.059614	0.162627
O85	O	0.814187	-0.086396	0.087653
H86	H	0.835964	-0.000199	0.103363
O87	O	0.471092	-0.316352	0.316918
H88	H	0.449316	-0.242055	0.344505
O89	O	0.556926	-0.434548	0.434816
H90	H	0.492591	-0.440647	0.440906
