data_functionalizedCrystal
_audit_creation_method	'MofGen! by Chris Wilmer'
_symmetry_space_group_name_H-M	'P1'
_symmetry_Int_Tables_number	1
_symmetry_cell_setting	triclinic
loop_
_symmetry_equiv_pos_as_xyz
  x,y,z
_cell_length_a	16.109301
_cell_length_b	14.044220
_cell_length_c	15.186229
_cell_angle_alpha	89.995248
_cell_angle_beta	89.999362
_cell_angle_gamma	88.325179
loop_
_atom_site_label
_atom_site_type_symbol
_atom_site_fract_x
_atom_site_fract_y
_atom_site_fract_z
O1	O	1.112195	0.121835	-0.073175
O2	O	0.871261	0.136997	-0.073189
O3	O	0.988112	-0.008568	-0.073174
O4	O	0.995345	0.267399	-0.073191
O5	O	0.988103	-0.008570	0.073284
O6	O	0.871253	0.136995	0.073268
O7	O	1.112187	0.121832	0.073282
Zn8	Zn	0.991718	0.129413	0.096528
Zn9	Zn	0.991730	0.129416	-0.096435
O10	O	0.995336	0.267397	0.073267
C11	C	0.840236	0.136381	0.000038
C12	C	0.747804	0.134540	0.000033
C13	C	0.531640	0.216634	0.000038
C14	C	0.444790	0.214896	0.000043
C15	C	0.451815	0.042189	0.000050
C16	C	0.538663	0.043927	0.000051
C17	C	0.578573	0.131153	0.000040
C18	C	0.404875	0.127677	0.000045
C19	C	0.310709	0.125792	0.000052
C20	C	0.672745	0.133038	0.000036
C21	C	0.984941	-0.043882	0.000055
C22	C	0.975498	-0.149105	0.000056
C23	C	0.958232	-0.341761	0.000042
C24	C	1.025212	-0.399415	0.000043
C25	C	1.015605	-0.506616	0.000036
C26	C	0.967838	-0.234551	0.000050
C27	C	1.143211	0.122448	0.000053
C28	C	1.235644	0.124289	0.000053
C29	C	0.998506	0.302711	0.000036
C30	C	1.007950	0.407934	0.000030
N31	N	0.991716	0.129411	0.228221
N32	N	0.991737	0.129411	-0.228128
C33	C	1.043479	0.064976	0.453951
C34	C	1.043481	0.064974	0.546141
C35	C	0.939969	0.193848	0.546136
C36	C	0.939963	0.193845	0.453948
C37	C	0.991723	0.129410	0.407858
C38	C	0.991731	0.129411	0.592235
C39	C	0.991734	0.129409	0.692192
C40	C	0.991719	0.129411	0.307895
H41	H	0.406580	0.284504	0.000043
H42	H	1.089769	-0.368264	-0.000012
C43	C	1.100406	-0.005907	0.403251
C44	C	1.100406	-0.005915	0.301848
C45	C	1.157332	-0.076804	0.251152
C46	C	1.214259	-0.147683	0.301859
C47	C	1.214261	-0.147678	0.403268
C48	C	1.157334	-0.076789	0.453964
H49	H	1.058264	0.046556	0.264307
H50	H	1.157330	-0.076808	0.176082
H51	H	1.256399	-0.200159	0.264330
H52	H	1.256403	-0.200149	0.440809
H53	H	1.157336	-0.076786	0.529034
H54	H	0.564132	0.287658	0.000035
C55	C	0.407911	-0.053755	0.000051
C56	C	0.312382	-0.055673	0.000044
C57	C	0.268481	-0.151620	0.000041
C58	C	0.320109	-0.245648	0.000045
C59	C	0.415644	-0.243734	0.000052
C60	C	0.459545	-0.147787	0.000055
H61	H	0.274159	0.013936	0.000041
H62	H	0.197760	-0.153036	0.000036
H63	H	0.287611	-0.316674	0.000043
H64	H	0.453867	-0.313343	0.000055
H65	H	0.530266	-0.146371	0.000060
C66	C	0.871023	-0.383837	0.000035
C67	C	0.861416	-0.492609	0.000029
C68	C	0.774207	-0.534697	0.000024
C69	C	0.696606	-0.468014	0.000024
C70	C	0.706210	-0.359235	0.000030
C71	C	0.793419	-0.317147	0.000036
H72	H	0.918863	-0.541977	0.000029
H73	H	0.767098	-0.615223	0.000019
H74	H	0.632049	-0.499171	0.000020
H75	H	0.648763	-0.309867	0.000030
H76	H	0.800528	-0.236621	0.000040
C77	C	0.883042	0.264732	0.596835
C78	C	0.883095	0.264795	0.698238
C79	C	0.826168	0.335683	0.748935
C80	C	0.769189	0.406508	0.698228
C81	C	0.769135	0.406447	0.596819
C82	C	0.826062	0.335559	0.546123
H83	H	0.925276	0.212364	0.735780
H84	H	0.826209	0.335728	0.824005
H85	H	0.727049	0.458984	0.735756
H86	H	0.726954	0.458878	0.559278
H87	H	0.826021	0.335514	0.471053
H88	H	0.576877	-0.025686	0.000055
H89	H	1.085624	0.012505	0.583667
H90	H	0.897813	0.246315	0.416416
