data_functionalizedCrystal
_audit_creation_method	'MofGen! by Chris Wilmer'
_symmetry_space_group_name_H-M	'P1'
_symmetry_Int_Tables_number	1
_symmetry_cell_setting	triclinic
loop_
_symmetry_equiv_pos_as_xyz
  x,y,z
_cell_length_a	11.792254
_cell_length_b	27.731996
_cell_length_c	10.268362
_cell_angle_alpha	90.011242
_cell_angle_beta	90.004525
_cell_angle_gamma	83.409992
loop_
_atom_site_label
_atom_site_type_symbol
_atom_site_fract_x
_atom_site_fract_y
_atom_site_fract_z
O1	O	1.504751	0.066279	0.108318
O2	O	1.174191	0.073100	0.108322
O3	O	1.349768	-0.000649	0.108292
O4	O	1.329174	0.140028	0.108348
O5	O	1.349753	-0.000652	-0.108309
O6	O	1.174176	0.073097	-0.108278
O7	O	1.504736	0.066276	-0.108283
Cu8	Cu	1.339454	0.069686	-0.128058
Cu9	Cu	1.339472	0.069690	0.128097
O10	O	1.329158	0.140025	-0.108252
C11	C	1.131906	0.072669	0.000022
C12	C	1.005935	0.071383	0.000023
C13	C	0.903632	0.070338	0.000028
C14	C	0.775288	0.069031	0.000028
C15	C	1.349337	-0.018660	-0.000013
C16	C	1.348063	-0.072324	-0.000026
C17	C	1.340054	-0.405085	0.118106
C18	C	1.335215	-0.606772	0.118129
O19	O	1.334548	-0.632845	0.218543
N20	N	1.334606	-0.631994	0.000062
C21	C	1.335199	-0.606791	-0.118020
O22	O	1.334558	-0.632872	-0.218444
C23	C	1.340030	-0.405105	-0.118042
C24	C	1.340651	-0.379886	0.000034
C25	C	1.340674	-0.379866	0.236172
C26	C	1.341890	-0.329448	0.236166
C27	C	1.342486	-0.304249	0.118093
C28	C	1.341867	-0.329468	0.000027
C29	C	1.340615	-0.379903	-0.236123
C30	C	1.341820	-0.329478	-0.236118
C31	C	1.342440	-0.304259	-0.118042
C32	C	1.343679	-0.253851	-0.118053
N33	N	1.344288	-0.228628	0.000015
C34	C	1.343692	-0.253827	0.118088
C35	C	1.332665	-0.712679	-0.118001
C36	C	1.331460	-0.763101	-0.117996
C37	C	1.331474	-0.763078	0.118155
C38	C	1.332688	-0.712656	0.118148
C39	C	1.333275	-0.687457	0.000067
C40	C	1.346246	-0.147946	0.118064
C41	C	1.347467	-0.097523	0.118047
C42	C	1.347447	-0.097550	-0.118103
C43	C	1.346232	-0.147969	-0.118086
C44	C	1.345628	-0.173165	0.000008
O45	O	1.344334	-0.227746	-0.218415
O46	O	1.344308	-0.227737	0.218496
C47	C	1.338838	-0.455504	0.118113
C48	C	1.338219	-0.480723	0.000047
C49	C	1.338815	-0.455524	-0.118025
C50	C	1.337013	-0.531144	0.000052
C51	C	1.336417	-0.556343	0.118125
C52	C	1.337026	-0.531121	0.236193
C53	C	1.338242	-0.480703	0.236186
C54	C	1.338206	-0.480746	-0.236093
C55	C	1.336992	-0.531164	-0.236077
C56	C	1.336395	-0.556363	-0.118004
C57	C	1.547020	0.066707	0.000020
C58	C	1.672992	0.067993	0.000028
C59	C	1.329589	0.158037	0.000055
C60	C	1.330863	0.211700	0.000077
N61	N	1.339450	0.069683	-0.308224
C62	C	1.339466	0.069689	-0.573894
C63	C	1.339454	0.069687	-0.426056
N64	N	1.339485	0.069689	0.308263
H65	H	1.347975	-0.076992	0.214202
Cl66	Cl	1.345473	-0.179675	-0.266526
H67	H	1.330989	-0.783603	0.214294
Cl68	Cl	1.339827	-0.411594	-0.384571
H69	H	1.345749	-0.168454	0.214227
Cl70	Cl	1.342659	-0.297751	0.384612
Cl71	Cl	1.339926	-0.411536	0.384628
H72	H	1.342281	-0.308963	-0.332276
H73	H	1.333191	-0.692126	0.214296
Cl74	Cl	1.348196	-0.065862	-0.266529
H75	H	1.333149	-0.692168	-0.214162
Cl76	Cl	1.339020	-0.449006	0.384633
Cl77	Cl	1.336281	-0.562810	0.384626
H78	H	1.330972	-0.783631	-0.214145
Cl79	Cl	1.336217	-0.562862	-0.384531
Cl80	Cl	1.338947	-0.449075	-0.384544
