data_functionalizedCrystal
_audit_creation_method	'MofGen! by Chris Wilmer'
_symmetry_space_group_name_H-M	'P1'
_symmetry_Int_Tables_number	1
_symmetry_cell_setting	triclinic
loop_
_symmetry_equiv_pos_as_xyz
  x,y,z
_cell_length_a	19.121102
_cell_length_b	25.639239
_cell_length_c	19.120904
_cell_angle_alpha	92.404139
_cell_angle_beta	89.911827
_cell_angle_gamma	92.406175
loop_
_atom_site_label
_atom_site_type_symbol
_atom_site_fract_x
_atom_site_fract_y
_atom_site_fract_z
Zn1	Zn	1.054759	0.255750	0.442006
Zn2	Zn	1.059650	0.339616	0.324751
Zn3	Zn	0.942531	0.248314	0.319792
Zn4	Zn	0.937462	0.339265	0.436954
O5	O	0.998600	0.295736	0.380876
O6	O	1.153512	0.270134	0.430642
O7	O	1.048282	0.324540	0.225989
O8	O	0.957492	0.176138	0.336043
O9	O	1.157106	0.331750	0.344496
O10	O	1.039946	0.181602	0.425833
O11	O	0.962235	0.257460	0.222346
O12	O	0.843754	0.257119	0.331144
O13	O	0.948853	0.331151	0.535728
O14	O	0.840030	0.323941	0.417222
O15	O	1.035031	0.269794	0.539440
O16	O	1.043368	0.412731	0.339596
O17	O	0.953596	0.412473	0.422031
C18	C	0.816455	0.289685	0.373097
C19	C	0.738531	0.287110	0.369785
C20	C	0.700005	0.320738	0.412976
C21	C	0.626787	0.318312	0.409868
C22	C	0.592097	0.282258	0.363565
C23	C	0.630629	0.248626	0.320373
C24	C	0.703845	0.251051	0.323485
C25	C	0.371128	0.273192	0.351934
C26	C	0.297907	0.270771	0.348824
C27	C	0.294070	0.340456	0.438319
C28	C	0.367288	0.342880	0.441424
C29	C	0.405813	0.309246	0.398235
C30	C	0.517257	0.279778	0.360386
C31	C	0.480651	0.311724	0.401418
C32	C	0.998481	0.431573	0.380820
C33	C	0.998493	0.489688	0.380822
C34	C	1.041460	0.852863	0.427724
C35	C	1.041471	0.907468	0.427740
O36	O	1.077934	0.938091	0.467550
N37	N	0.998588	0.931978	0.380962
C38	C	0.955686	0.901879	0.334169
O39	O	0.919212	0.927740	0.294382
C40	C	0.955672	0.847275	0.334157
C41	C	0.998563	0.822768	0.380933
C42	C	1.084347	0.828356	0.474497
C43	C	1.084337	0.773755	0.474480
C44	C	1.041440	0.743660	0.427689
C45	C	0.998553	0.768167	0.380916
C46	C	0.912767	0.817177	0.287368
C47	C	0.912756	0.762569	0.287360
C48	C	0.955647	0.738063	0.334136
C49	C	0.955646	0.683471	0.334108
N50	N	0.998529	0.658961	0.380886
C51	C	1.041426	0.689056	0.427677
C52	C	0.955718	1.016552	0.334200
C53	C	0.955735	1.071155	0.334208
C54	C	1.041519	1.076740	0.427780
C55	C	1.041505	1.022136	0.427768
C56	C	0.998601	0.992042	0.380978
C57	C	1.041402	0.574389	0.427636
C58	C	1.041390	0.519782	0.427613
C59	C	0.955604	0.514202	0.334043
C60	C	0.955618	0.568803	0.334064
C61	C	0.998519	0.598896	0.380866
O62	O	0.919199	0.652814	0.294320
O63	O	1.077887	0.663187	0.467463
C64	C	1.181458	0.301811	0.388686
C65	C	1.259380	0.304400	0.392014
C66	C	0.990831	0.301263	0.563733
C67	C	0.987520	0.303618	0.641656
C68	C	0.998697	1.159369	0.380954
C69	C	0.998630	1.101254	0.381002
C70	C	1.006380	0.290195	0.198732
C71	C	1.009827	0.287697	0.120815
C72	C	1.030831	0.272780	0.680198
C73	C	1.027712	0.274991	0.753414
C74	C	0.981285	0.308042	0.788087
C75	C	0.937970	0.338881	0.749540
C76	C	0.941086	0.336668	0.676325
C77	C	0.969628	0.316322	1.009053
C78	C	0.966516	0.318535	1.082273
C79	C	1.056257	0.254643	1.086142
C80	C	1.059373	0.252434	1.012926
C81	C	1.016055	0.283271	0.974385
C82	C	0.978097	0.310304	0.862926
C83	C	1.019240	0.281007	0.899547
H84	H	0.508899	0.341076	0.439120
H85	H	0.595422	0.345696	0.445037
Br86	Br	0.747077	0.369674	0.475812
Br87	Br	1.142568	0.869189	0.538011
Br88	Br	1.099738	1.117593	0.491282
Br89	Br	0.897537	1.104407	0.270712
Br90	Br	0.414362	0.391814	0.504261
H91	H	0.262695	0.367839	0.473483
H92	H	1.119260	0.753805	0.512571
Br93	Br	1.099626	0.615220	0.491153
Br94	Br	1.115041	0.212794	1.138451
H95	H	0.928708	0.345450	1.110502
H96	H	0.402486	0.245809	0.316761
H97	H	0.269664	0.241406	0.311123
H98	H	0.920783	0.992051	0.296092
Br99	Br	0.470172	0.230848	0.297551
H100	H	0.877841	0.837121	0.249277
H101	H	1.076430	1.002186	0.465858
H102	H	1.076319	0.499831	0.465704
Br103	Br	0.897420	0.602064	0.270571
Br104	Br	0.910838	0.358171	0.956756
H105	H	0.602378	0.219269	0.282676
Br106	Br	0.854525	0.721731	0.223856
Br107	Br	0.756131	0.205407	0.264872
Br108	Br	0.897390	0.473349	0.270543
Br109	Br	1.093847	0.227926	0.633149
H110	H	1.062981	0.249881	0.784792
H111	H	1.097180	0.225522	0.984700
H112	H	0.900165	0.365791	0.777777
Br113	Br	0.882301	0.378517	0.624016
Br114	Br	1.082236	0.236145	0.852489
H115	H	0.940299	0.337217	0.891165
