data_functionalizedCrystal
_audit_creation_method	'MofGen! by Chris Wilmer'
_symmetry_space_group_name_H-M	'P1'
_symmetry_Int_Tables_number	1
_symmetry_cell_setting	triclinic
loop_
_symmetry_equiv_pos_as_xyz
  x,y,z
_cell_length_a	16.109301
_cell_length_b	10.540510
_cell_length_c	14.586319
_cell_angle_alpha	89.998684
_cell_angle_beta	89.999213
_cell_angle_gamma	83.987396
loop_
_atom_site_label
_atom_site_type_symbol
_atom_site_fract_x
_atom_site_fract_y
_atom_site_fract_z
O1	O	1.104117	0.163161	-0.076177
O2	O	0.862178	0.183466	-0.076191
O3	O	0.988680	-0.011474	-0.076184
O4	O	0.977615	0.358101	-0.076185
O5	O	0.988671	-0.011477	0.076297
O6	O	0.862169	0.183463	0.076290
O7	O	1.104108	0.163158	0.076304
Cu8	Cu	0.983138	0.173311	0.090219
Cu9	Cu	0.983148	0.173314	-0.090107
O10	O	0.977606	0.358099	0.076296
C11	C	0.831194	0.182642	0.000047
C12	C	0.738883	0.180176	0.000042
C13	C	0.987851	-0.058767	0.000055
C14	C	0.985384	-0.199682	0.000049
C15	C	0.517276	0.290116	0.000052
C16	C	0.430541	0.287789	0.000058
C17	C	0.449017	0.056499	0.000055
C18	C	0.535750	0.058828	0.000056
C19	C	0.569877	0.175640	0.000050
C20	C	0.396409	0.170985	0.000055
C21	C	0.302368	0.168461	0.000061
C22	C	0.663924	0.178164	0.000045
C23	C	1.073265	-0.418390	0.000404
C24	C	1.075896	-0.271832	0.000055
C25	C	0.939056	-0.243779	-0.087026
C26	C	0.937065	-0.390511	-0.087094
C27	C	0.935170	-0.390296	0.086305
C28	C	0.939463	-0.244016	0.087452
C29	C	1.135093	0.163982	0.000063
C30	C	1.227403	0.166448	0.000062
C31	C	0.978435	0.405392	0.000055
C32	C	0.980902	0.546307	0.000055
N33	N	0.983136	0.173307	0.217051
N34	N	0.983156	0.173307	-0.216939
C35	C	1.039171	0.087017	0.452061
C36	C	1.039173	0.087014	0.548042
C37	C	0.927116	0.259602	0.548045
C38	C	0.927110	0.259598	0.452065
C39	C	0.983142	0.173307	0.404076
C40	C	0.983150	0.173308	0.596037
C41	C	0.983153	0.173305	0.700104
C42	C	0.983139	0.173307	0.300002
H43	H	0.545058	0.385232	0.000054
O44	O	0.981937	-0.203780	-0.172769
H45	H	0.981061	-0.098356	-0.173872
H46	H	0.578580	-0.034399	0.000056
O47	O	0.373804	0.411259	0.000058
H48	H	0.412109	0.492871	0.000048
H49	H	0.881481	0.329866	0.412993
H50	H	0.421221	-0.038605	0.000065
O51	O	1.123929	-0.233635	0.082719
H52	H	1.145484	-0.319918	0.123304
O53	O	1.099613	-0.006040	0.599801
H54	H	1.138578	-0.066029	0.550303
O55	O	1.119960	-0.474606	0.083136
H56	H	1.120940	-0.580037	0.081749
O57	O	1.119717	-0.476661	-0.081841
H58	H	1.077307	-0.530653	-0.122967
H59	H	0.867213	-0.411477	0.086888
H60	H	1.112363	-0.243946	-0.062467
H61	H	0.881497	0.329860	0.587127
H62	H	0.869368	-0.412541	-0.091043
H63	H	0.968733	-0.431177	-0.152180
O64	O	0.850794	-0.179746	-0.091337
H65	H	0.838984	-0.115656	-0.031322
H66	H	0.963930	-0.432889	0.152308
H67	H	0.973174	-0.215886	0.151869
H68	H	0.873382	-0.194008	0.092706
O69	O	1.099592	-0.006063	0.400296
H70	H	1.138545	-0.066076	0.449792
