data_functionalizedCrystal
_audit_creation_method	'MofGen! by Chris Wilmer'
_symmetry_space_group_name_H-M	'P1'
_symmetry_Int_Tables_number	1
_symmetry_cell_setting	triclinic
loop_
_symmetry_equiv_pos_as_xyz
  x,y,z
_cell_length_a	16.992694
_cell_length_b	16.974959
_cell_length_c	15.455313
_cell_angle_alpha	96.307475
_cell_angle_beta	92.857794
_cell_angle_gamma	92.971704
loop_
_atom_site_label
_atom_site_type_symbol
_atom_site_fract_x
_atom_site_fract_y
_atom_site_fract_z
O1	O	-1.043106	0.164928	-0.060460
O2	O	-0.814829	0.163082	-0.060615
O3	O	-0.935708	0.048945	-0.068597
O4	O	-0.922227	0.279065	-0.052478
O5	O	-0.928796	0.055443	0.076119
O6	O	-0.807917	0.169580	0.084101
O7	O	-1.036193	0.171426	0.084256
Cu8	Cu	-0.921424	0.171097	0.097393
Cu9	Cu	-0.929599	0.163412	-0.073752
O10	O	-0.915315	0.285564	0.092238
C11	C	-0.782171	0.163957	0.011573
C12	C	-0.695158	0.156875	0.011067
C13	C	-0.931865	0.022612	0.001687
C14	C	-0.930701	-0.065532	-0.004493
C15	C	-1.068852	0.170551	0.012066
C16	C	-1.155865	0.177633	0.012566
C17	C	-0.644621	0.225204	0.015854
C18	C	-0.562863	0.218546	0.015400
C19	C	-0.531644	0.143558	0.010152
C20	C	-0.582188	0.075224	0.005368
C21	C	-0.663944	0.081883	0.005828
C22	C	-0.288165	0.115958	0.008242
C23	C	-0.206402	0.109304	0.007779
C24	C	-0.187083	0.252627	0.017813
C25	C	-0.268842	0.259279	0.018268
C26	C	-0.319378	0.190945	0.013488
N27	N	-0.448074	0.136750	0.009685
N28	N	-0.402946	0.197754	0.013962
C29	C	-0.924633	-0.562077	-0.047845
C30	C	-0.925717	-0.479255	-0.042021
C31	C	-0.922486	-0.434318	0.039777
C32	C	-0.918177	-0.472207	0.115755
C33	C	-0.917098	-0.555028	0.109929
C34	C	-0.925314	-0.186242	0.065659
C35	C	-0.926391	-0.103415	0.071479
C36	C	-0.933932	-0.110469	-0.086298
C37	C	-0.932848	-0.193291	-0.092116
C38	C	-0.928544	-0.231173	-0.016138
N39	N	-0.923592	-0.349660	0.045733
N40	N	-0.927443	-0.315830	-0.022095
C41	C	-0.919158	0.311896	0.021952
C42	C	-0.920322	0.400040	0.028127
N43	N	-0.915680	0.176502	0.217766
N44	N	-0.935349	0.158001	-0.194126
C45	C	-0.967051	0.128032	0.259771
C46	C	-0.962715	0.132127	0.350865
C47	C	-0.907010	0.184697	0.399953
C48	C	-0.855634	0.233168	0.357943
C49	C	-0.859967	0.229068	0.266850
C50	C	-0.888306	0.202372	0.672771
C51	C	-0.883978	0.206470	0.763870
C52	C	-0.991058	0.105428	0.756786
C53	C	-0.995390	0.101336	0.665692
C54	C	-0.944011	0.149804	0.623689
N55	N	-0.902578	0.188886	0.493066
N56	N	-0.948440	0.145611	0.530577
H57	H	-0.521718	0.274187	0.019297
O58	O	-0.175946	0.036515	0.002655
C59	C	-0.058552	-0.037250	-0.002444
C60	C	-0.092939	0.045224	0.003342
H61	H	0.008564	-0.030236	-0.001872
H62	H	-0.082218	-0.074023	-0.065402
H63	H	-0.076550	-0.068548	0.055728
H64	H	-0.074955	0.076591	-0.054784
H65	H	-0.069275	0.081940	0.066336
H66	H	-1.032888	0.065966	0.790993
O67	O	-0.674811	0.298111	0.020993
C68	C	-0.647012	0.439561	0.030850
C69	C	-0.612720	0.357043	0.025050
H70	H	-0.596830	0.487229	0.034113
H71	H	-0.681892	0.449036	0.091898
H72	H	-0.687715	0.443502	-0.029236
H73	H	-0.571984	0.353044	0.085091
H74	H	-0.577887	0.347603	-0.036035
O75	O	-0.299033	0.332186	0.023413
C76	C	-0.271242	0.473637	0.033269
C77	C	-0.236945	0.391121	0.027469
H78	H	-0.221062	0.521307	0.036532
H79	H	-0.306122	0.483110	0.094317
H80	H	-0.311946	0.477575	-0.026817
H81	H	-0.196208	0.387124	0.087510
H82	H	-0.202112	0.381683	-0.033616
O83	O	-1.012708	0.085023	0.391532
C84	C	-1.119363	-0.015642	0.374891
C85	C	-1.062800	0.037671	0.328727
H86	H	-1.159865	-0.053951	0.324134
H87	H	-1.156390	0.022998	0.420073
H88	H	-1.083662	-0.055481	0.414651
H89	H	-1.098438	0.077519	0.288921
H90	H	-1.025771	-0.001016	0.283596
H91	H	-0.838614	0.249282	0.803834
O92	O	-0.337139	0.049499	0.003551
C93	C	-0.347664	-0.093358	-0.006396
C94	C	-0.292107	-0.018155	-0.001109
H95	H	-0.311277	-0.148074	-0.010146
H96	H	-0.389297	-0.096605	-0.067010
H97	H	-0.383552	-0.091059	0.054125
H98	H	-0.256168	-0.020402	-0.061585
H99	H	-0.250526	-0.014935	0.059544
O100	O	-0.137917	0.318939	0.022343
C101	C	-0.038002	0.391259	-0.047345
C102	C	-0.093629	0.316111	-0.052582
H103	H	-0.002192	0.389006	-0.107922
H104	H	0.003693	0.394450	0.013214
H105	H	-0.074373	0.445988	-0.043473
H106	H	-0.057321	0.261341	-0.056488
H107	H	-0.135326	0.312991	-0.113130
O108	O	-0.713063	0.015538	0.001330
C109	C	-0.813046	-0.056732	0.070976
C110	C	-0.757447	0.018434	0.076186
H111	H	-0.848957	-0.054408	0.131480
H112	H	-0.776727	-0.111498	0.067198
H113	H	-0.854655	-0.059912	0.010351
H114	H	-0.715827	0.021690	0.136806
H115	H	-0.793815	0.073164	0.079916
H116	H	-0.923735	-0.066828	0.138091
H117	H	-0.937438	-0.079616	-0.148154
O118	O	-0.914896	-0.428508	0.195191
C119	C	-0.843844	-0.326201	0.293612
C120	C	-0.847459	-0.375650	0.203632
H121	H	-0.789335	-0.283442	0.300458
H122	H	-0.840526	-0.367459	0.346955
H123	H	-0.899038	-0.291056	0.300013
H124	H	-0.792279	-0.410800	0.197145
H125	H	-0.850818	-0.334350	0.150333
H126	H	-0.556762	0.014167	0.001107
O127	O	-0.927658	-0.605638	-0.127350
C128	C	-0.865817	-0.632370	-0.263629
C129	C	-0.862310	-0.582969	-0.173626
H130	H	-0.812981	-0.614071	-0.301062
H131	H	-0.922706	-0.621593	-0.301713
H132	H	-0.864335	-0.698068	-0.254713
H133	H	-0.863760	-0.517255	-0.182462
H134	H	-0.805426	-0.593813	-0.135573
H135	H	-0.929229	-0.448414	-0.103885
O136	O	-0.936074	-0.236826	-0.171644
C137	C	-0.943721	-0.235083	-0.327522
C138	C	-0.940067	-0.185683	-0.237512
H139	H	-0.946934	-0.193753	-0.380799
H140	H	-0.998292	-0.277765	-0.334461
H141	H	-0.888579	-0.270307	-0.333936
H142	H	-0.995169	-0.150411	-0.231036
H143	H	-0.885461	-0.143050	-0.230613
H144	H	-0.921810	-0.217076	0.127525
H145	H	-0.913587	-0.585872	0.171794
H146	H	-1.012415	0.085228	0.219809
H147	H	-1.040749	0.058530	0.625725
H148	H	-0.846472	0.241839	0.638579
H149	H	-0.810274	0.275968	0.397915
H150	H	-0.818134	0.268536	0.232651
