data_functionalizedCrystal
_audit_creation_method	'MofGen! by Chris Wilmer'
_symmetry_space_group_name_H-M	'P1'
_symmetry_Int_Tables_number	1
_symmetry_cell_setting	triclinic
loop_
_symmetry_equiv_pos_as_xyz
  x,y,z
_cell_length_a	15.538191
_cell_length_b	11.792241
_cell_length_c	14.750779
_cell_angle_alpha	77.269352
_cell_angle_beta	97.572172
_cell_angle_gamma	65.732755
loop_
_atom_site_label
_atom_site_type_symbol
_atom_site_fract_x
_atom_site_fract_y
_atom_site_fract_z
O1	O	1.227751	-0.334867	-0.079835
O2	O	0.954160	-0.204092	-0.079835
O3	O	1.097596	-0.437437	-0.079829
O4	O	1.084314	-0.101522	-0.079842
O5	O	1.138144	-0.503396	0.079824
O6	O	0.994708	-0.270050	0.079817
O7	O	1.268299	-0.400826	0.079817
Zn8	Zn	1.137941	-0.345910	0.105165
Zn9	Zn	1.084517	-0.259007	-0.105184
O10	O	1.124862	-0.167480	0.079810
C11	C	0.939408	-0.223389	-0.000009
C12	C	0.835043	-0.182633	-0.000009
C13	C	0.545184	-0.587531	-0.000008
C14	C	0.447114	-0.549206	-0.000010
C15	C	0.425770	-0.333634	-0.000018
C16	C	0.523842	-0.371944	-0.000012
C17	C	0.583541	-0.498893	-0.000007
C18	C	0.562199	-0.283306	-0.000011
C19	C	0.660261	-0.321611	-0.000009
C20	C	0.719966	-0.448554	-0.000008
C21	C	0.681604	-0.537198	-0.000005
C22	C	0.502495	-0.156354	-0.000022
C23	C	0.540853	-0.067716	-0.000022
C24	C	0.638918	-0.106023	-0.000013
C25	C	0.698623	-0.232966	-0.000011
C26	C	0.677281	-0.017378	-0.000015
C27	C	0.775343	-0.055683	-0.000013
C28	C	0.796685	-0.271271	-0.000010
C29	C	1.117036	-0.512358	-0.000003
C30	C	1.114539	-0.637324	-0.000004
C31	C	1.109944	-0.866104	-0.000020
C32	C	1.112497	-0.738792	-0.000011
C33	C	1.283050	-0.381528	-0.000011
C34	C	1.387414	-0.422281	-0.000018
C35	C	1.105422	-0.092559	-0.000018
C36	C	1.107917	0.032410	-0.000023
N37	N	1.174408	-0.405223	0.248722
N38	N	1.048058	-0.199706	-0.248741
C39	C	0.946211	-0.034105	0.600530
C40	C	0.971771	-0.075662	0.701030
C41	C	1.098811	-0.282244	0.700999
C42	C	1.073258	-0.240706	0.600497
C43	C	0.996958	-0.116634	0.550270
C44	C	1.124005	-0.323236	0.550237
C45	C	1.098457	-0.281698	0.449743
C46	C	1.022162	-0.157630	0.399509
C47	C	0.971410	-0.075097	0.449776
C48	C	1.200309	-0.447303	0.600465
C49	C	1.251056	-0.529833	0.550205
C50	C	1.225504	-0.488299	0.449710
C51	C	1.149209	-0.364231	0.399476
C52	C	1.276256	-0.570832	0.399443
C53	C	1.250708	-0.529294	0.298949
C54	C	1.123661	-0.322693	0.298982
H55	H	0.628656	0.085988	-0.000028
H56	H	0.806575	0.016492	-0.000004
H57	H	0.422647	-0.125169	-0.000027
C58	C	1.182736	-0.418722	0.756260
N59	N	1.245947	-0.521522	0.797881
H60	H	1.221110	-0.481116	0.682293
C61	C	0.827839	-0.490691	-0.000004
N62	N	0.909089	-0.522429	0.000000
C63	C	0.475174	0.071924	-0.000021
N64	N	0.425706	0.177100	-0.000016
H65	H	1.292033	-0.596499	0.258027
C66	C	1.039688	-0.186238	0.243728
N67	N	0.976432	-0.083473	0.202109
C68	C	1.334982	-0.666311	0.605466
N69	N	1.398193	-0.769111	0.647087
C70	C	0.887437	0.061359	0.394521
N71	N	0.824180	0.164124	0.352903
C72	C	0.862238	0.102351	0.545275
N73	N	0.798981	0.205116	0.503657
C74	C	1.360187	-0.707305	0.454706
N75	N	1.423405	-0.810099	0.496329
C76	C	0.915936	0.015136	0.756313
N77	N	0.873883	0.083524	0.797951
H78	H	0.845299	-0.374648	-0.000000
H79	H	0.593797	-0.690909	0.000001
C80	C	0.747281	-0.676852	0.000004
N81	N	0.796748	-0.782034	0.000008
H82	H	0.415889	-0.621395	-0.000012
H83	H	1.001364	-0.123809	0.317681
C84	C	0.360091	-0.193995	-0.000018
N85	N	0.310623	-0.088818	-0.000013
