data_functionalizedCrystal
_audit_creation_method	'MofGen! by Chris Wilmer'
_symmetry_space_group_name_H-M	'P1'
_symmetry_Int_Tables_number	1
_symmetry_cell_setting	triclinic
loop_
_symmetry_equiv_pos_as_xyz
  x,y,z
_cell_length_a	16.992697
_cell_length_b	16.053810
_cell_length_c	10.654550
_cell_angle_alpha	87.396015
_cell_angle_beta	92.423323
_cell_angle_gamma	87.262317
loop_
_atom_site_label
_atom_site_type_symbol
_atom_site_fract_x
_atom_site_fract_y
_atom_site_fract_z
O1	O	-1.045101	0.069305	0.261464
O2	O	-0.816801	0.069333	0.258538
O3	O	-0.936200	0.069315	0.077716
O4	O	-0.925702	0.069322	0.442287
O5	O	-0.929655	-0.069543	0.087668
O6	O	-0.810257	-0.069525	0.268491
O7	O	-1.038556	-0.069553	0.271416
Zn8	Zn	-0.923367	-0.091586	0.271534
Zn9	Zn	-0.931991	0.091365	0.258421
O10	O	-0.919158	-0.069535	0.452239
C11	C	-0.784296	-0.000093	0.259754
C12	C	-0.697192	-0.000082	0.248534
N13	N	-0.917488	-0.216445	0.280483
C14	C	-0.887059	-0.740073	0.326382
C15	C	-0.891189	-0.652667	0.320148
C16	C	-0.946140	-0.608965	0.237000
C17	C	-0.996959	-0.652674	0.160073
C18	C	-0.992825	-0.740078	0.166301
C19	C	-0.964173	-0.347558	0.209784
C20	C	-0.968305	-0.260148	0.203563
C21	C	-0.862533	-0.260147	0.363638
C22	C	-0.858407	-0.347553	0.369865
C23	C	-0.909223	-0.391254	0.292932
N24	N	-0.950365	-0.519622	0.230629
N25	N	-0.904994	-0.480595	0.299298
C26	C	-0.647540	-0.000079	0.356784
C27	C	-0.565695	-0.000090	0.346235
C28	C	-0.533505	-0.000097	0.227435
C29	C	-0.583162	-0.000102	0.119176
C30	C	-0.665005	-0.000097	0.129727
C31	C	-0.289668	-0.000116	0.183708
C32	C	-0.207819	-0.000118	0.173166
C33	C	-0.190358	-0.000108	0.400226
C34	C	-0.272203	-0.000099	0.410766
C35	C	-0.321854	-0.000108	0.302508
N36	N	-0.449847	-0.000105	0.216649
N37	N	-0.405509	-0.000106	0.313295
C38	C	-0.071062	-0.000122	0.270200
C39	C	-0.158168	-0.000116	0.281416
C40	C	-0.932157	-0.000113	0.035827
C41	C	-0.929851	-0.000110	-0.103815
N42	N	-0.937876	0.216225	0.249463
C43	C	-1.000151	-0.000121	-0.177225
C44	C	-0.997980	-0.000115	-0.308434
C45	C	-0.855202	-0.000090	-0.292811
C46	C	-0.857374	-0.000090	-0.161605
C47	C	-1.082583	-0.000139	-0.186245
C48	C	-1.080411	-0.000133	-0.317454
C49	C	-0.923201	-0.000106	0.494127
C50	C	-0.925507	-0.000103	0.633770
H51	H	-0.842316	-0.775649	0.394095
H52	H	-0.673743	-0.000073	0.453524
H53	H	-1.041699	-0.617087	0.092365
H54	H	-0.556946	-0.000119	0.022447
H55	H	-1.108149	0.059819	-0.365241
C56	C	-1.048089	-0.787380	0.082724
C57	C	-1.097111	-0.730402	0.008593
C58	C	-1.148034	-0.773944	-0.068412
H59	H	-1.018062	-0.821457	0.029878
H60	H	-1.079420	-0.821481	0.133629
H61	H	-1.065784	-0.696315	-0.042308
H62	H	-1.127156	-0.696323	0.061406
H63	H	-1.179365	-0.808046	-0.017506
H64	H	-1.117999	-0.808020	-0.121250
H65	H	-1.181306	-0.735292	-0.118710
C66	C	-1.118157	-0.077694	-0.363764
C67	C	-1.143417	-0.125142	-0.260918
C68	C	-1.178180	-0.196599	-0.303528
H69	H	-1.162087	-0.061669	-0.419153
H70	H	-1.080665	-0.110015	-0.407028
H71	H	-1.180907	-0.092827	-0.217674
H72	H	-1.099502	-0.141188	-0.205519
H73	H	-1.140687	-0.228920	-0.346792
H74	H	-1.222106	-0.180566	-0.358918
H75	H	-1.195316	-0.228805	-0.233754
C76	C	-0.776454	-0.000202	-0.355380
C77	C	-0.730534	-0.071623	-0.313615
C78	C	-0.657981	-0.071749	-0.371210
H79	H	-0.785112	-0.000243	-0.444040
H80	H	-0.749720	0.048201	-0.334098
H81	H	-0.757262	-0.120013	-0.334907
H82	H	-0.721854	-0.071597	-0.224963
H83	H	-0.631247	-0.023346	-0.349927
H84	H	-0.666648	-0.071788	-0.459868
H85	H	-0.626813	-0.120203	-0.342872
H86	H	-0.849810	-0.617084	0.382781
H87	H	-0.813661	-0.383133	0.437570
C88	C	-0.511921	-0.000044	0.463912
C89	C	-0.557631	-0.000010	0.570208
C90	C	-0.508122	0.000042	0.678638
H91	H	-0.477342	-0.048457	0.468170
H92	H	-0.481916	0.048395	0.461111
H93	H	-0.587622	-0.048444	0.573010
H94	H	-0.592208	0.048399	0.565992
H95	H	-0.478117	0.048481	0.675837
H96	H	-0.473545	-0.048372	0.682883
H97	H	-0.539129	0.000072	0.750771
C98	C	-0.307268	-0.000197	0.539669
C99	C	-0.350420	-0.071609	0.557489
C100	C	-0.382748	-0.071707	0.676207
H101	H	-0.266065	-0.000232	0.602767
H102	H	-0.341144	0.048212	0.545005
H103	H	-0.316546	-0.120006	0.552165
H104	H	-0.391634	-0.071590	0.494420
H105	H	-0.416625	-0.023298	0.681542
H106	H	-0.341541	-0.071739	0.739295
H107	H	-0.412037	-0.120155	0.688308
C108	C	-0.136584	-0.000063	0.517904
C109	C	-0.182294	-0.000037	0.624199
C110	C	-0.132786	0.000013	0.732630
H111	H	-0.102003	-0.048474	0.522158
H112	H	-0.106582	0.048378	0.515108
H113	H	-0.212283	-0.048473	0.626996
H114	H	-0.216874	0.048371	0.619987
H115	H	-0.102784	0.048454	0.729834
H116	H	-0.098207	-0.048398	0.736871
H117	H	-0.163793	0.000039	0.804763
H118	H	-1.013056	-0.224570	0.135851
H119	H	-0.181613	-0.000123	0.076419
H120	H	-0.330084	-0.000124	0.095556
C121	C	-1.019452	-0.394847	0.126226
C122	C	-1.068479	-0.337864	0.052114
C123	C	-1.119427	-0.381400	-0.024857
H124	H	-0.989443	-0.428933	0.073366
H125	H	-1.050778	-0.428940	0.177153
H126	H	-1.037157	-0.303786	0.001191
H127	H	-1.098506	-0.303777	0.104941
H128	H	-1.150753	-0.415492	0.026070
H129	H	-1.089411	-0.415483	-0.077709
H130	H	-1.152703	-0.342744	-0.075143
H131	H	-0.705431	-0.000098	0.041577
H132	H	-1.117564	0.057965	-0.158265
H133	H	-1.106006	-0.060098	-0.144053
H134	H	-0.800130	-0.000069	-0.101840
C135	C	-0.807318	-0.212850	0.447299
C136	C	-0.758322	-0.269830	0.521469
C137	C	-0.707451	-0.226291	0.598565
H138	H	-0.775959	-0.178731	0.396496
H139	H	-0.837408	-0.178790	0.500110
H140	H	-0.728234	-0.303875	0.468664
H141	H	-0.789659	-0.303950	0.572298
H142	H	-0.737541	-0.192232	0.651376
H143	H	-0.676097	-0.192174	0.547752
H144	H	-0.674206	-0.264946	0.648907
