data_functionalizedCrystal
_audit_creation_method	'MofGen! by Chris Wilmer'
_symmetry_space_group_name_H-M	'P1'
_symmetry_Int_Tables_number	1
_symmetry_cell_setting	triclinic
loop_
_symmetry_equiv_pos_as_xyz
  x,y,z
_cell_length_a	12.759401
_cell_length_b	12.759400
_cell_length_c	19.805399
_cell_angle_alpha	90.022119
_cell_angle_beta	90.016406
_cell_angle_gamma	90.012838
loop_
_atom_site_label
_atom_site_type_symbol
_atom_site_fract_x
_atom_site_fract_y
_atom_site_fract_z
Zn1	Zn	1.606235	-0.418300	0.382688
Zn2	Zn	1.606143	-0.593993	0.269511
Zn3	Zn	1.430546	-0.418328	0.269519
Zn4	Zn	1.430530	-0.593936	0.382664
O5	O	1.518364	-0.506139	0.326095
O6	O	1.753244	-0.441618	0.367682
O7	O	1.582818	-0.570726	0.174795
O8	O	1.453897	-0.271303	0.284545
O9	O	1.753176	-0.570699	0.284531
O10	O	1.582974	-0.271283	0.367690
O11	O	1.453808	-0.441666	0.174801
O12	O	1.283523	-0.441611	0.284521
O13	O	1.453869	-0.570602	0.477384
O14	O	1.283511	-0.570629	0.367648
O15	O	1.582959	-0.441563	0.477402
O16	O	1.582803	-0.741007	0.284507
O17	O	1.453781	-0.740965	0.367640
C18	C	1.245396	-0.506118	0.326083
C19	C	1.128620	-0.506134	0.326094
C20	C	0.963999	-0.573265	0.282751
C21	C	1.073723	-0.573244	0.282740
C22	C	1.073786	-0.439033	0.369458
C23	C	0.964064	-0.439049	0.369466
C24	C	0.909109	-0.640387	0.239399
C25	C	0.963935	-0.707487	0.196033
C26	C	1.073659	-0.707465	0.196022
C27	C	1.128557	-0.640345	0.239375
C28	C	1.518309	-0.779107	0.326085
C29	C	1.518381	-0.895883	0.326103
C30	C	1.585558	-0.950655	0.369432
C31	C	1.585607	-1.060379	0.369448
C32	C	1.451299	-1.060550	0.282801
C33	C	1.451245	-0.950828	0.282788
C34	C	1.652694	-0.895710	0.412746
C35	C	1.719877	-0.950482	0.456078
C36	C	1.719926	-1.060206	0.456095
C37	C	1.652792	-1.115158	0.412779
C38	C	1.792397	-0.506162	0.326108
C39	C	1.909174	-0.506171	0.326113
C40	C	1.518423	-0.506073	0.502638
C41	C	1.518448	-0.506045	0.577870
C42	C	1.518448	-0.232106	0.326121
C43	C	1.518483	-0.115329	0.326132
C44	C	1.518365	-0.506129	0.150239
C45	C	1.518544	-0.505862	0.075008
C46	C	1.585666	-0.438851	0.613225
C47	C	1.585677	-0.438820	0.683913
C48	C	1.518474	-0.505990	0.719246
C49	C	1.451248	-0.573187	0.683886
C50	C	1.451233	-0.573212	0.613199
C51	C	1.451307	-0.573089	0.968960
C52	C	1.451330	-0.573062	1.039652
C53	C	1.585751	-0.438698	1.039674
C54	C	1.585736	-0.438722	0.968987
C55	C	1.518507	-0.505915	0.933633
C56	C	1.518495	-0.505946	0.856985
C57	C	1.518491	-0.505965	0.795893
H58	H	1.652664	-0.806367	0.412736
H59	H	1.396526	-0.627874	0.712660
O60	O	1.246903	-0.640320	0.239351
H61	H	1.275820	-0.561044	0.225747
H62	H	0.819766	-0.640414	0.239405
H63	H	1.118493	-0.384387	0.404755
O64	O	1.378901	-1.119821	0.236083
H65	H	1.332171	-1.063300	0.205954
H66	H	1.774622	-1.104798	0.491383
O67	O	1.652861	-1.233505	0.412780
H68	H	1.710863	-1.262362	0.450180
H69	H	1.396543	-0.906233	0.247507
H70	H	0.919229	-0.762129	0.160733
H71	H	1.396486	-0.627917	0.584414
H72	H	1.396580	-0.627817	0.940184
O73	O	1.132792	-0.779823	0.149244
H74	H	1.182808	-0.833323	0.179473
H75	H	1.774530	-0.905734	0.491348
H76	H	0.919424	-0.384412	0.404772
H77	H	1.640394	-0.384156	0.584462
O78	O	1.658182	-0.366354	0.722049
H79	H	1.704921	-0.319662	0.685604
H80	H	1.640463	-0.384029	0.940222
H81	H	1.396601	-0.627762	1.068418
H82	H	1.640489	-0.383983	1.068467
