data_functionalizedCrystal
_audit_creation_method	'MofGen! by Chris Wilmer'
_symmetry_space_group_name_H-M	'P1'
_symmetry_Int_Tables_number	1
_symmetry_cell_setting	triclinic
loop_
_symmetry_equiv_pos_as_xyz
  x,y,z
_cell_length_a	12.645331
_cell_length_b	18.101395
_cell_length_c	12.645323
_cell_angle_alpha	89.971733
_cell_angle_beta	89.977324
_cell_angle_gamma	90.030083
loop_
_atom_site_label
_atom_site_type_symbol
_atom_site_fract_x
_atom_site_fract_y
_atom_site_fract_z
Zn1	Zn	1.620632	-0.294844	-0.599421
Zn2	Zn	1.620473	-0.418694	-0.422151
Zn3	Zn	1.443347	-0.294869	-0.422166
Zn4	Zn	1.443287	-0.418646	-0.599366
O5	O	1.531935	-0.356763	-0.510776
O6	O	1.768958	-0.311283	-0.575923
O7	O	1.596935	-0.402299	-0.273805
O8	O	1.466956	-0.191233	-0.445708
O9	O	1.768841	-0.402275	-0.445683
O10	O	1.597207	-0.191214	-0.575937
O11	O	1.466801	-0.311325	-0.273816
O12	O	1.294992	-0.311278	-0.445655
O13	O	1.466854	-0.402193	-0.747721
O14	O	1.294948	-0.402217	-0.575843
O15	O	1.597149	-0.311236	-0.747761
O16	O	1.596877	-0.522321	-0.445630
O17	O	1.466699	-0.522285	-0.575829
C18	C	1.256505	-0.356746	-0.510745
C19	C	1.138675	-0.356756	-0.510757
C20	C	0.971103	-0.299284	-0.429308
C21	C	1.093663	-0.299432	-0.428949
C22	C	1.094129	-0.434770	-0.480236
C23	C	0.971530	-0.434456	-0.479680
C24	C	0.971532	-0.336957	-0.623043
C25	C	1.094139	-0.335215	-0.622419
C26	C	1.531793	-0.549174	-0.510745
C27	C	1.531829	-0.631488	-0.510767
C28	C	1.532062	-0.930579	-0.510824
C29	C	1.450348	-0.899262	-0.592945
C30	C	1.449960	-0.813644	-0.592688
C31	C	1.531946	-0.782196	-0.510797
C32	C	1.501694	-0.813349	-0.399071
C33	C	1.501167	-0.898994	-0.399562
C34	C	1.644207	-0.898924	-0.539445
C35	C	1.643548	-0.813273	-0.541895
C36	C	1.531883	-0.698337	-0.510774
C37	C	1.532123	-1.014438	-0.510839
C38	C	1.808440	-0.356781	-0.510807
C39	C	1.926270	-0.356789	-0.510821
C40	C	1.532013	-0.356706	-0.787281
C41	C	1.532046	-0.356682	-0.905112
C42	C	1.532106	-0.163601	-0.510830
C43	C	1.532179	-0.081287	-0.510854
C44	C	1.449825	-0.413633	-1.072650
C45	C	1.450040	-0.413915	-0.950090
C46	C	1.643739	-0.377863	-0.949630
C47	C	1.643288	-0.378220	-1.072228
C48	C	1.503631	-0.278231	-1.072316
C49	C	1.501139	-0.278701	-0.949710
C50	C	1.531918	-0.356767	-0.235346
C51	C	1.532090	-0.356583	-0.117517
H52	H	0.941871	-0.478752	-0.536461
H53	H	1.123283	-0.478761	-0.537743
H54	H	1.468427	-0.471356	-1.103464
H55	H	1.123262	-0.277805	-0.645434
H56	H	1.706675	-0.337625	-0.920498
H57	H	0.940251	-0.312246	-0.346636
F58	F	1.675817	-0.451944	-0.909513
F59	F	1.680258	-0.927087	-0.644118
F60	F	1.342361	-0.927489	-0.568496
H61	H	0.942539	-0.378842	-0.683778
F62	F	1.134187	-0.385969	-0.706051
H63	H	1.563549	-0.235726	-1.101333
H64	H	1.667414	-0.435497	-1.100834
F65	F	1.131931	-0.316562	-0.320250
H66	H	1.706659	-0.338471	-1.101910
H67	H	1.124778	-0.451877	-0.399076
H68	H	0.940654	-0.281063	-0.650799
H69	H	1.468888	-0.792579	-0.675532
F70	F	0.932619	-0.223439	-0.454042
F71	F	0.934078	-0.456436	-0.372447
H72	H	1.367216	-0.400660	-0.919989
F73	F	1.673370	-0.786657	-0.649368
H74	H	1.366835	-0.793220	-0.573730
F75	F	1.474838	-0.926120	-0.701581
F76	F	1.393698	-0.257823	-0.911689
F77	F	1.394017	-0.925193	-0.367873
H78	H	1.558102	-0.919713	-0.336289
H79	H	1.559338	-0.792980	-0.336216
F80	F	1.474643	-0.489830	-0.911763
F81	F	1.399029	-0.252995	-1.112708
H82	H	1.420584	-0.791963	-0.374392
H83	H	1.556682	-0.233948	-0.919092
H84	H	1.707650	-0.791861	-0.486442
H85	H	1.705087	-0.919175	-0.479633
H86	H	1.123783	-0.241582	-0.448080
F87	F	1.341241	-0.396472	-1.111165
