data_functionalizedCrystal
_audit_creation_method	'MofGen! by Chris Wilmer'
_symmetry_space_group_name_H-M	'P1'
_symmetry_Int_Tables_number	1
_symmetry_cell_setting	triclinic
loop_
_symmetry_equiv_pos_as_xyz
  x,y,z
_cell_length_a	14.853568
_cell_length_b	14.853559
_cell_length_c	13.330367
_cell_angle_alpha	89.997552
_cell_angle_beta	90.004270
_cell_angle_gamma	96.366553
loop_
_atom_site_label
_atom_site_type_symbol
_atom_site_fract_x
_atom_site_fract_y
_atom_site_fract_z
O1	O	-1.196365	0.117709	-0.083342
O2	O	-0.933905	0.131730	-0.083360
O3	O	-1.072149	-0.006511	-0.083350
O4	O	-1.058120	0.255950	-0.083353
O5	O	-1.072129	-0.006514	0.083497
O6	O	-0.933885	0.131727	0.083487
O7	O	-1.196344	0.117706	0.083505
Cu8	Cu	-1.065113	0.124716	0.098730
Cu9	Cu	-1.065136	0.124720	-0.098586
O10	O	-1.058100	0.255947	0.083494
C11	C	-0.900306	0.131093	0.000061
C12	C	-0.800222	0.129188	0.000054
C13	C	-0.377049	0.121136	-0.090880
C14	C	-0.377049	0.121133	0.091023
C15	C	-0.471083	0.122921	0.091020
C16	C	-0.518104	0.123818	0.000066
C17	C	-0.471092	0.122927	-0.090886
C18	C	-0.518101	0.123822	0.181971
C19	C	-0.612141	0.125611	0.181972
C20	C	-0.659164	0.126501	0.091017
C21	C	-0.612146	0.125609	0.000061
C22	C	-0.659168	0.126506	-0.090893
C23	C	-0.612152	0.125607	-0.181850
C24	C	-0.518115	0.123817	-0.181841
C25	C	-0.753201	0.128291	0.091008
C26	C	-0.753210	0.128297	-0.090898
C27	C	-1.071505	-0.040101	0.000072
C28	C	-1.069604	-0.140185	0.000066
C29	C	-1.061551	-0.563359	-0.090883
C30	C	-1.061529	-0.563357	0.091020
C31	C	-1.063323	-0.469323	0.091021
C32	C	-1.064229	-0.422303	0.000069
C33	C	-1.063342	-0.469316	-0.090885
C34	C	-1.064201	-0.422302	0.181973
C35	C	-1.065993	-0.328263	0.181978
C36	C	-1.066906	-0.281242	0.091024
C37	C	-1.066020	-0.328261	0.000067
C38	C	-1.066926	-0.281241	-0.090885
C39	C	-1.066047	-0.328259	-0.181844
C40	C	-1.064255	-0.422295	-0.181838
C41	C	-1.068698	-0.187205	0.091019
C42	C	-1.068717	-0.187198	-0.090887
C43	C	-0.229943	0.118341	0.000080
C44	C	-0.330028	0.120239	0.000074
C45	C	-1.058744	0.289537	0.000071
C46	C	-1.060645	0.389621	0.000070
N47	N	-1.065103	0.124713	0.237512
N48	N	-1.065154	0.124716	-0.237367
C49	C	-1.003919	0.185909	0.710130
C50	C	-1.126378	0.063524	0.710108
C51	C	-1.126368	0.063521	0.605089
C52	C	-1.065133	0.124714	0.552586
C53	C	-1.003909	0.185909	0.605102
C54	C	-1.187597	0.002333	0.552566
C55	C	-1.187590	0.002328	0.447541
C56	C	-1.126351	0.063518	0.395036
C57	C	-1.065123	0.124715	0.447558
C58	C	-1.003888	0.185908	0.395056
C59	C	-0.942656	0.247101	0.447576
C60	C	-0.942669	0.247099	0.552597
C61	C	-1.126337	0.063520	0.290015
C62	C	-1.003878	0.185909	0.290028
H63	H	-0.791476	0.129032	0.165063
C64	C	-1.069718	-0.135479	-0.190934
H65	H	-1.070916	-0.072741	-0.177912
H66	H	-1.016902	-0.144082	-0.228314
H67	H	-1.121972	-0.157702	-0.228293
C68	C	-1.254955	-0.064963	0.389773
H69	H	-1.246189	-0.056192	0.319706
H70	H	-1.245119	-0.125159	0.406982
H71	H	-1.315129	-0.055034	0.406982
H72	H	-1.237457	-0.047484	0.595317
C73	C	-0.663882	0.126595	-0.281893
H74	H	-0.726619	0.127788	-0.268862
H75	H	-0.641661	0.178830	-0.319269
H76	H	-0.655292	0.073761	-0.319259
C77	C	-0.663851	0.126591	0.282018
H78	H	-0.622378	0.125795	0.336186
H79	H	-0.693729	0.179818	0.285799
H80	H	-0.707341	0.074748	0.285796
C81	C	-0.804930	0.129285	-0.190947
H82	H	-0.867670	0.130477	-0.177927
H83	H	-0.782705	0.181521	-0.228320
H84	H	-0.796335	0.076452	-0.228312
C85	C	-0.466396	0.122840	-0.281881
H86	H	-0.403656	0.121657	-0.268849
H87	H	-0.488613	0.070604	-0.319258
H88	H	-0.474998	0.175674	-0.319247
H89	H	-0.338765	0.120400	-0.164935
C90	C	-1.067045	-0.276531	-0.281885
H91	H	-1.068241	-0.213793	-0.268852
H92	H	-1.014229	-0.285130	-0.319266
H93	H	-1.119299	-0.298746	-0.319248
C94	C	-1.066973	-0.276553	0.282025
H95	H	-1.066183	-0.318026	0.336192
H96	H	-1.015144	-0.233052	0.285808
H97	H	-1.120214	-0.246689	0.285805
C98	C	-1.193683	-0.003780	0.232242
H99	H	-1.184911	0.004986	0.162175
H100	H	-1.183832	-0.063970	0.249461
H101	H	-1.253863	0.006134	0.249439
C102	C	-1.069663	-0.135489	0.191059
H103	H	-1.068868	-0.176961	0.245227
H104	H	-1.017832	-0.091991	0.194831
H105	H	-1.122901	-0.105621	0.194847
H106	H	-0.954010	0.235736	0.247286
H107	H	-1.176238	0.013707	0.752859
H108	H	-1.063538	-0.460586	-0.255891
C109	C	-0.875303	0.314414	0.389821
H110	H	-0.838840	0.350863	0.436135
H111	H	-0.837741	0.281914	0.348853
H112	H	-0.907784	0.352006	0.348851
H113	H	-0.892817	0.296921	0.595366
C114	C	-0.466418	0.122532	0.282009
H115	H	-0.403694	0.121233	0.268983
H116	H	-0.474911	0.175261	0.319597
H117	H	-0.488766	0.070197	0.319162
C118	C	-0.325344	0.120028	0.191063
H119	H	-0.262610	0.118793	0.178040
H120	H	-0.333905	0.172812	0.228522
H121	H	-0.347612	0.067744	0.228344
H122	H	-1.060839	-0.601645	-0.164939
C123	C	-1.060526	-0.615071	0.191062
H124	H	-1.061304	-0.573601	0.245229
H125	H	-1.112354	-0.658571	0.194849
H126	H	-1.007285	-0.644936	0.194836
C127	C	-1.063196	-0.474018	0.282013
H128	H	-1.063966	-0.432549	0.336182
H129	H	-1.115028	-0.517514	0.285803
H130	H	-1.009959	-0.503889	0.285781
H131	H	-0.954062	0.235729	0.752895
