data_functionalizedCrystal
_audit_creation_method	'MofGen! by Chris Wilmer'
_symmetry_space_group_name_H-M	'P1'
_symmetry_Int_Tables_number	1
_symmetry_cell_setting	triclinic
loop_
_symmetry_equiv_pos_as_xyz
  x,y,z
_cell_length_a	18.215405
_cell_length_b	18.215407
_cell_length_c	18.215399
_cell_angle_alpha	89.983140
_cell_angle_beta	90.026474
_cell_angle_gamma	89.981845
loop_
_atom_site_label
_atom_site_type_symbol
_atom_site_fract_x
_atom_site_fract_y
_atom_site_fract_z
Zn1	Zn	-0.293068	-1.125087	0.416065
Zn2	Zn	0.040266	-0.791753	0.749398
Zn3	Zn	0.373599	-0.458420	1.082732
Zn4	Zn	-0.416139	-1.125001	0.293002
Zn5	Zn	-0.082806	-0.791668	0.626335
Zn6	Zn	0.250528	-0.458334	0.959669
Zn7	Zn	-0.293083	-1.002019	0.293019
Zn8	Zn	0.040251	-0.668686	0.626352
Zn9	Zn	0.373584	-0.335352	0.959685
Zn10	Zn	-0.416089	-1.001991	0.416033
Zn11	Zn	-0.082755	-0.668658	0.749367
Zn12	Zn	0.250578	-0.335324	1.082700
O13	O	-0.354595	-1.063524	0.354530
O14	O	-0.021261	-0.730191	0.687863
O15	O	0.312072	-0.396858	1.021196
O16	O	-0.309408	-1.228059	0.399747
O17	O	0.023925	-0.894726	0.733080
O18	O	0.357258	-0.561393	1.066413
O19	O	-0.399843	-1.108663	0.190020
O20	O	-0.066509	-0.775330	0.523353
O21	O	0.266824	-0.441997	0.856686
O22	O	-0.190096	-1.018392	0.309361
O23	O	0.143237	-0.685058	0.642695
O24	O	0.476570	-0.351725	0.976028
O25	O	-0.399828	-1.227997	0.309333
O26	O	-0.066495	-0.894663	0.642666
O27	O	0.266838	-0.561330	0.975999
O28	O	-0.190085	-1.108809	0.399763
O29	O	0.143248	-0.775476	0.733096
O30	O	0.476581	-0.442142	1.066430
O31	O	-0.309433	-1.018309	0.190032
O32	O	0.023900	-0.684976	0.523366
O33	O	0.357233	-0.351642	0.856699
O34	O	-0.309385	-0.899031	0.309331
O35	O	0.023949	-0.565698	0.642664
O36	O	0.357282	-0.232364	0.975997
O37	O	-0.399743	-1.018344	0.519022
O38	O	-0.066409	-0.685011	0.852355
O39	O	0.266924	-0.351677	1.185688
O40	O	-0.399757	-0.899011	0.399709
O41	O	-0.066424	-0.565677	0.733042
O42	O	0.266910	-0.232344	1.066375
O43	O	-0.309360	-1.108782	0.519045
O44	O	0.023974	-0.775448	0.852378
O45	O	0.357307	-0.442115	1.185712
O46	O	-0.519117	-1.108636	0.309302
O47	O	-0.185783	-0.775303	0.642635
O48	O	0.147550	-0.441969	0.975969
O49	O	-0.519080	-1.018261	0.399692
O50	O	-0.185746	-0.684928	0.733026
O51	O	0.147587	-0.351595	1.066359
C52	C	-0.354568	-0.872318	0.354519
C53	C	-0.021234	-0.538985	0.687852
C54	C	0.312099	-0.205652	1.021185
C55	C	-0.354574	-0.790519	0.354531
C56	C	-0.021240	-0.457186	0.687865
C57	C	0.312093	-0.123853	1.021198
C58	C	-0.401716	-0.525470	0.401525
C59	C	-0.068383	-0.192137	0.734859
C60	C	0.264951	0.141196	1.068192
C61	C	-0.401712	-0.602329	0.401522
C62	C	-0.068378	-0.268996	0.734855
C63	C	0.264955	0.064338	1.068188
C64	C	-0.307466	-0.602320	0.307548
C65	C	0.025867	-0.268987	0.640881
C66	C	0.359200	0.064347	0.974214
C67	C	-0.307475	-0.525463	0.307548
C68	C	0.025858	-0.192129	0.640881
C69	C	0.359192	0.141204	0.974215
C70	C	-0.354599	-0.487040	0.354541
C71	C	-0.021266	-0.153706	0.687874
C72	C	0.312068	0.179627	1.021208
C73	C	-0.354586	-0.640756	0.354537
C74	C	-0.021252	-0.307423	0.687870
C75	C	0.312081	0.025911	1.021204
C76	C	-0.354580	-0.724090	0.354533
C77	C	-0.021247	-0.390756	0.687866
C78	C	0.312086	-0.057423	1.021199
C79	C	-0.354605	-0.403701	0.354545
C80	C	-0.021272	-0.070367	0.687878
C81	C	0.312061	0.262966	1.021211
C82	C	-0.545801	-1.063456	0.354508
C83	C	-0.212467	-0.730123	0.687841
C84	C	0.120866	-0.396790	1.021175
C85	C	-0.627600	-1.063494	0.354523
C86	C	-0.294266	-0.730161	0.687857
C87	C	0.039067	-0.396828	1.021190
C88	C	-0.892594	-1.110619	0.401667
C89	C	-0.559261	-0.777285	0.735001
C90	C	-0.225927	-0.443952	1.068334
C91	C	-0.815735	-1.110594	0.401656
C92	C	-0.482402	-0.777261	0.734989
C93	C	-0.149068	-0.443927	1.068323
C94	C	-0.815854	-1.016524	0.307435
C95	C	-0.482521	-0.683191	0.640768
C96	C	-0.149187	-0.349858	0.974101
C97	C	-0.892711	-1.016553	0.307443
C98	C	-0.559378	-0.683220	0.640776
C99	C	-0.226045	-0.349887	0.974109
C100	C	-0.931079	-1.063599	0.354563
C101	C	-0.597746	-0.730266	0.687897
C102	C	-0.264413	-0.396933	1.021230
C103	C	-0.777363	-1.063546	0.354544
C104	C	-0.444030	-0.730212	0.687877
C105	C	-0.110696	-0.396879	1.021211
C106	C	-0.694030	-1.063519	0.354531
C107	C	-0.360696	-0.730185	0.687865
C108	C	-0.027363	-0.396852	1.021198
C109	C	-1.014418	-1.063628	0.354575
C110	C	-0.681085	-0.730294	0.687908
C111	C	-0.347752	-0.396961	1.021242
C112	C	-0.162642	-1.063613	0.354568
C113	C	0.170692	-0.730280	0.687901
C114	C	0.504025	-0.396946	1.021234
C115	C	-0.080843	-1.063651	0.354584
C116	C	0.252491	-0.730317	0.687917
C117	C	0.585824	-0.396984	1.021251
C118	C	-0.354544	-1.063569	0.546483
C119	C	-0.021210	-0.730236	0.879816
C120	C	0.312123	-0.396903	1.213149
C121	C	-0.354522	-1.063588	0.628282
C122	C	-0.021189	-0.730255	0.961615
C123	C	0.312144	-0.396922	1.294948
C124	C	-0.354616	-0.255477	0.354542
C125	C	-0.021283	0.077856	0.687875
C126	C	0.312050	0.411189	1.021208
C127	C	-0.354611	-0.337276	0.354547
C128	C	-0.021277	-0.003943	0.687880
C129	C	0.312056	0.329390	1.021214
C130	C	-0.354592	-1.063522	0.163323
C131	C	-0.021259	-0.730189	0.496657
C132	C	0.312075	-0.396856	0.829990
C133	C	-0.354406	-1.063646	0.081525
C134	C	-0.021073	-0.730312	0.414858
C135	C	0.312260	-0.396979	0.748192
C136	C	-0.307416	-1.110696	0.816489
C137	C	0.025918	-0.777363	1.149822
C138	C	0.359251	-0.444030	1.483156
C139	C	-0.307394	-1.110705	0.893348
C140	C	0.025939	-0.777372	1.226681
C141	C	0.359272	-0.444038	1.560014
C142	C	-0.401515	-1.016533	0.893312
C143	C	-0.068181	-0.683199	1.226646
C144	C	0.265152	-0.349866	1.559979
C145	C	-0.401532	-1.016521	0.816455
C146	C	-0.068199	-0.683187	1.149788
C147	C	0.265135	-0.349854	1.483121
C148	C	-0.354484	-1.063607	0.778045
C149	C	-0.021150	-0.730273	1.111379
C150	C	0.312183	-0.396940	1.444712
C151	C	-0.354445	-1.063627	0.931761
C152	C	-0.021112	-0.730294	1.265095
C153	C	0.312222	-0.396961	1.598428
C154	C	-0.354422	-1.063637	1.015095
C155	C	-0.021089	-0.730303	1.348428
C156	C	0.312245	-0.396970	1.681762
C157	C	-0.354505	-1.063597	0.694706
C158	C	-0.021172	-0.730263	1.028040
C159	C	0.312161	-0.396930	1.361373
H160	H	-0.440080	-0.633616	0.439780
H161	H	-0.106747	-0.300282	0.773114
H162	H	0.226587	0.033051	1.106447
H163	H	-0.923831	-1.148923	0.440039
H164	H	-0.590498	-0.815590	0.773372
H165	H	-0.257164	-0.482257	1.106705
H166	H	-0.269105	-0.494172	0.269284
H167	H	0.064228	-0.160838	0.602618
H168	H	0.397561	0.172495	0.935951
F169	F	-0.775013	-0.966455	0.257291
F170	F	-0.441680	-0.633122	0.590624
F171	F	-0.108347	-0.299789	0.923958
F172	F	-0.451871	-0.484580	0.451538
F173	F	-0.118538	-0.151247	0.784871
F174	F	0.214795	0.182086	1.118204
H175	H	-0.269099	-0.633613	0.269289
H176	H	0.064235	-0.300280	0.602622
H177	H	0.397568	0.033054	0.935955
F178	F	-0.451627	-0.966395	0.775538
F179	F	-0.118294	-0.633062	1.108871
F180	F	0.215039	-0.299729	1.442204
H181	H	-0.784402	-1.148882	0.440011
H182	H	-0.451069	-0.815549	0.773345
H183	H	-0.117736	-0.482215	1.106678
F184	F	-0.257303	-1.160829	0.934259
F185	F	0.076030	-0.827496	1.267593
F186	F	0.409364	-0.494162	1.600926
H187	H	-0.924047	-0.978264	0.269081
H188	H	-0.590713	-0.644931	0.602414
H189	H	-0.257380	-0.311597	0.935748
H190	H	-0.269104	-1.149035	0.785218
H191	H	0.064230	-0.815701	1.118552
H192	H	0.397563	-0.482368	1.451885
H193	H	-0.439822	-0.978199	0.924595
H194	H	-0.106488	-0.644865	1.257928
H195	H	0.226845	-0.311532	1.591261
