data_functionalizedCrystal
_audit_creation_method	'MofGen! by Chris Wilmer'
_symmetry_space_group_name_H-M	'P1'
_symmetry_Int_Tables_number	1
_symmetry_cell_setting	triclinic
loop_
_symmetry_equiv_pos_as_xyz
  x,y,z
_cell_length_a	15.538191
_cell_length_b	14.519709
_cell_length_c	14.185569
_cell_angle_alpha	76.819419
_cell_angle_beta	97.875798
_cell_angle_gamma	65.476119
loop_
_atom_site_label
_atom_site_type_symbol
_atom_site_fract_x
_atom_site_fract_y
_atom_site_fract_z
O1	O	1.228085	-0.271310	-0.083424
O2	O	0.954005	-0.164884	-0.083426
O3	O	1.098314	-0.354783	-0.083416
O4	O	1.083776	-0.081411	-0.083434
O5	O	1.140944	-0.410876	0.083422
O6	O	0.996635	-0.220977	0.083412
O7	O	1.270715	-0.327403	0.083414
Cu8	Cu	1.137568	-0.279312	0.098646
Cu9	Cu	1.087153	-0.212975	-0.098658
O10	O	1.126406	-0.137505	0.083404
C11	C	0.940243	-0.181796	-0.000007
C12	C	0.835725	-0.148628	-0.000007
C13	C	0.547381	-0.478139	-0.000001
C14	C	0.449167	-0.446949	-0.000004
C15	C	0.427017	-0.271514	-0.000015
C16	C	0.525232	-0.302691	-0.000008
C17	C	0.585407	-0.406004	-0.000002
C18	C	0.563258	-0.230557	-0.000008
C19	C	0.661463	-0.261730	-0.000006
C20	C	0.721643	-0.365037	-0.000003
C21	C	0.683612	-0.437177	0.000001
C22	C	0.503080	-0.127242	-0.000021
C23	C	0.541106	-0.055107	-0.000022
C24	C	0.639314	-0.086282	-0.000012
C25	C	0.699494	-0.189590	-0.000009
C26	C	0.677345	-0.014142	-0.000016
C27	C	0.775551	-0.045315	-0.000013
C28	C	0.797700	-0.220763	-0.000007
C29	C	1.118952	-0.416961	0.000003
C30	C	1.116922	-0.518660	0.000004
C31	C	1.109444	-0.891034	-0.000022
C32	C	1.111520	-0.787426	-0.000015
C33	C	1.113183	-0.704851	-0.000008
C34	C	1.115260	-0.601236	-0.000003
C35	C	1.284476	-0.310491	-0.000007
C36	C	1.388993	-0.343656	-0.000014
C37	C	1.105768	-0.075325	-0.000017
C38	C	1.107796	0.026376	-0.000025
N39	N	1.173034	-0.325973	0.237420
N40	N	1.051694	-0.166324	-0.237432
C41	C	0.947494	-0.029276	0.605054
C42	C	0.974366	-0.064616	0.710078
C43	C	1.102177	-0.232734	0.710047
C44	C	1.075313	-0.197409	0.605022
C45	C	0.997972	-0.095679	0.552534
C46	C	1.125791	-0.263812	0.552501
C47	C	1.098932	-0.228488	0.447485
C48	C	1.021596	-0.126760	0.394989
C49	C	0.971113	-0.060354	0.447517
C50	C	1.203137	-0.365540	0.604991
C51	C	1.253615	-0.431943	0.552471
C52	C	1.226752	-0.396622	0.447452
C53	C	1.149415	-0.294894	0.394957
C54	C	1.277234	-0.463027	0.394924
C55	C	1.250375	-0.427703	0.289908
C56	C	1.122556	-0.259569	0.289940
H57	H	0.846700	-0.304892	0.000004
O58	O	0.605762	-0.578450	-0.000171
C59	C	0.566417	-0.595164	-0.086560
H60	H	0.517501	-0.514964	-0.146957
H61	H	0.628616	-0.645696	-0.115562
H62	H	0.521320	-0.638347	-0.067020
O63	O	0.816992	-0.395157	-0.000134
C64	C	0.821653	-0.328422	-0.086555
H65	H	0.751236	-0.249547	-0.115367
H66	H	0.886878	-0.312692	-0.067123
H67	H	0.830615	-0.369063	-0.147057
O68	O	0.995674	-0.092504	0.292976
C69	C	1.076078	-0.091795	0.257863
H70	H	1.146990	-0.149575	0.318363
H71	H	1.077303	-0.117354	0.187598
H72	H	1.068958	-0.007885	0.239233
H73	H	0.628334	0.069979	-0.000031
O74	O	0.407701	-0.096882	0.000111
C75	C	0.390898	-0.067418	0.086524
H76	H	0.448383	-0.043841	0.115325
H77	H	0.314787	0.003095	0.067084
H78	H	0.395936	-0.137681	0.147036
H79	H	0.492097	0.029012	-0.000031
O80	O	0.925315	-0.000262	0.761211
C81	C	0.882676	-0.050646	0.821953
H82	H	0.924072	-0.140590	0.837671
H83	H	0.886738	-0.032043	0.895807
H84	H	0.802740	-0.020046	0.781500
H85	H	1.165152	-0.315563	0.752795
H86	H	1.316590	-0.514772	0.595219
H87	H	0.418212	-0.505697	-0.000005
O88	O	0.895872	0.038385	0.396479
C89	C	0.822197	0.028849	0.335729
H90	H	0.828590	-0.053959	0.367381
H91	H	0.747127	0.091852	0.334553
H92	H	0.831298	0.040946	0.256133
O93	O	1.229238	-0.400031	0.707005
C94	C	1.218921	-0.492926	0.742094
H95	H	1.222647	-0.533318	0.681568
H96	H	1.280532	-0.550016	0.812337
H97	H	1.145245	-0.470563	0.760752
O98	O	0.872465	0.069625	0.554101
C99	C	0.894459	0.147132	0.579771
H100	H	0.977210	0.112696	0.608628
H101	H	0.866046	0.220234	0.510705
H102	H	0.857907	0.171140	0.640734
H103	H	1.340213	-0.545854	0.437674
H104	H	0.378009	-0.187395	-0.000024
O105	O	1.299313	-0.492273	0.238891
C106	C	1.290470	-0.587066	0.264518
H107	H	1.222505	-0.572101	0.293433
H108	H	1.283538	-0.613651	0.195416
H109	H	1.358214	-0.652097	0.325425
O110	O	0.742140	-0.537464	-0.000121
C111	C	0.777511	-0.531692	-0.086539
H112	H	0.775236	-0.450508	-0.115356
H113	H	0.856226	-0.597265	-0.067100
H114	H	0.729677	-0.542638	-0.147039
O115	O	0.812351	0.024870	0.000033
C116	C	0.738176	0.122747	0.000005
H117	H	0.679487	0.108636	0.031592
H118	H	0.771186	0.158804	0.048439
H119	H	0.703876	0.179948	-0.080037
H120	H	1.059570	-0.176735	0.247202
