data_functionalizedCrystal
_audit_creation_method	'MofGen! by Chris Wilmer'
_symmetry_space_group_name_H-M	'P1'
_symmetry_Int_Tables_number	1
_symmetry_cell_setting	triclinic
loop_
_symmetry_equiv_pos_as_xyz
  x,y,z
_cell_length_a	18.215407
_cell_length_b	16.625545
_cell_length_c	18.215399
_cell_angle_alpha	90.027013
_cell_angle_beta	89.982632
_cell_angle_gamma	89.978520
loop_
_atom_site_label
_atom_site_type_symbol
_atom_site_fract_x
_atom_site_fract_y
_atom_site_fract_z
Zn1	Zn	1.125076	0.321065	-0.416072
Zn2	Zn	1.124986	0.455905	-0.293008
Zn3	Zn	1.002009	0.321084	-0.293025
Zn4	Zn	1.001977	0.455853	-0.416038
O5	O	1.063512	0.388477	-0.354536
O6	O	1.228049	0.338965	-0.399755
O7	O	1.108649	0.438051	-0.190026
O8	O	1.018385	0.208249	-0.309369
O9	O	1.227983	0.438032	-0.309340
O10	O	1.108802	0.208235	-0.399771
O11	O	1.018298	0.338998	-0.190038
O12	O	0.899020	0.338948	-0.309336
O13	O	1.018330	0.437943	-0.519027
O14	O	0.898997	0.437962	-0.399713
O15	O	1.108771	0.338915	-0.519052
O16	O	1.108618	0.568731	-0.309307
O17	O	1.018243	0.568693	-0.399697
C18	C	0.872306	0.388452	-0.354523
C19	C	0.790507	0.388461	-0.354535
C20	C	0.602346	0.336983	-0.401688
C21	C	0.525488	0.336990	-0.401691
C22	C	0.525430	0.439993	-0.307396
C23	C	0.602287	0.439982	-0.307391
C24	C	0.640743	0.388478	-0.354541
C25	C	0.487027	0.388496	-0.354549
C26	C	0.403694	0.388504	-0.354551
C27	C	0.724082	0.388469	-0.354538
C28	C	1.063437	0.597968	-0.354512
C29	C	1.063472	0.687589	-0.354527
C30	C	1.063593	1.015764	-0.354615
C31	C	1.063557	0.924456	-0.354592
C32	C	1.063532	0.851680	-0.354570
C33	C	1.063497	0.760365	-0.354549
C34	C	1.255465	0.388502	-0.354549
C35	C	1.337264	0.388513	-0.354555
C36	C	1.063601	1.178168	-0.354584
C37	C	1.063623	1.088547	-0.354627
C38	C	1.063557	0.388421	-0.546489
C39	C	1.063576	0.388398	-0.628288
C40	C	1.110685	0.336785	-0.816496
C41	C	1.110694	0.336762	-0.893355
C42	C	1.016519	0.439885	-0.893317
C43	C	1.016507	0.439904	-0.816460
C44	C	1.063594	0.388355	-0.778051
C45	C	1.063615	0.388313	-0.931767
C46	C	1.063624	0.388288	-1.015101
C47	C	1.063584	0.388379	-0.694712
C48	C	1.063510	0.388474	-0.163330
C49	C	1.063633	0.388271	-0.081531
H50	H	0.494228	0.295057	-0.440082
O51	O	0.965698	0.495525	-0.775001
H52	H	0.998600	0.536563	-0.739970
O53	O	0.643828	0.281425	-0.452530
H54	H	0.604212	0.245612	-0.485308
O55	O	0.643706	0.495521	-0.256530
H56	H	0.678733	0.536580	-0.289397
O57	O	0.483953	0.495546	-0.256546
H58	H	0.424058	0.486910	-0.264474
O59	O	1.161467	0.281187	-0.775065
H60	H	1.148869	0.217900	-0.789822
O61	O	1.161489	0.281145	-0.934823
H62	H	1.194232	0.245310	-0.895200
H63	H	0.978183	0.481856	-0.924599
