data_functionalizedCrystal
_audit_creation_method	'MofGen! by Chris Wilmer'
_symmetry_space_group_name_H-M	'P1'
_symmetry_Int_Tables_number	1
_symmetry_cell_setting	triclinic
loop_
_symmetry_equiv_pos_as_xyz
  x,y,z
_cell_length_a	12.759394
_cell_length_b	17.077404
_cell_length_c	17.077396
_cell_angle_alpha	90.019699
_cell_angle_beta	89.973684
_cell_angle_gamma	89.988094
loop_
_atom_site_label
_atom_site_type_symbol
_atom_site_fract_x
_atom_site_fract_y
_atom_site_fract_z
Zn1	Zn	-0.418349	-1.200099	-0.443859
Zn2	Zn	0.081651	-0.700099	0.056141
Zn3	Zn	-0.594049	-1.200024	-0.312598
Zn4	Zn	-0.094049	-0.700024	0.187402
Zn5	Zn	-0.418376	-1.068830	-0.312606
Zn6	Zn	0.081624	-0.568830	0.187394
Zn7	Zn	-0.593977	-1.068817	-0.443821
Zn8	Zn	-0.093977	-0.568817	0.056179
O9	O	-0.506188	-1.134442	-0.378221
O10	O	-0.006188	-0.634442	0.121779
O11	O	-0.441674	-1.309936	-0.426459
O12	O	0.058326	-0.809936	0.073541
O13	O	-0.570787	-1.182595	-0.202752
O14	O	-0.070787	-0.682595	0.297248
O15	O	-0.271351	-1.086280	-0.330037
O16	O	0.228649	-0.586280	0.169963
O17	O	-0.570761	-1.309881	-0.330022
O18	O	-0.070761	-0.809881	0.169978
O19	O	-0.271331	-1.182722	-0.426467
O20	O	0.228669	-0.682722	0.073533
O21	O	-0.441721	-1.086208	-0.202758
O22	O	0.058279	-0.586208	0.297242
O23	O	-0.441651	-0.958982	-0.330000
O24	O	0.058349	-0.458982	0.170000
O25	O	-0.570638	-1.086257	-0.553673
O26	O	-0.070638	-0.586257	-0.053673
O27	O	-0.570665	-0.958972	-0.426403
O28	O	-0.070665	-0.458972	0.073597
O29	O	-0.441605	-1.182709	-0.553701
O30	O	0.058395	-0.682709	-0.053701
O31	O	-0.741061	-1.182582	-0.329985
O32	O	-0.241061	-0.682582	0.170015
O33	O	-0.741008	-1.086185	-0.426394
O34	O	-0.241008	-0.586185	0.073606
C35	C	-0.506154	-0.930495	-0.378198
C36	C	-0.006154	-0.430495	0.121802
C37	C	-0.506164	-0.843245	-0.378207
C38	C	-0.006164	-0.343245	0.121793
C39	C	-0.779155	-1.134395	-0.378202
C40	C	-0.279155	-0.634395	0.121798
C41	C	-0.895932	-1.134447	-0.378220
C42	C	-0.395932	-0.634447	0.121780
C43	C	-0.439068	-0.802284	-0.428498
C44	C	0.060932	-0.302284	0.071502
C45	C	-0.439073	-0.720303	-0.428500
C46	C	0.060927	-0.220303	0.071500
C47	C	-0.506181	-0.679285	-0.378214
C48	C	-0.006181	-0.179285	0.121786
C49	C	-0.573280	-0.720252	-0.327918
C50	C	-0.073280	-0.220252	0.172082
C51	C	-0.573269	-0.802231	-0.327913
C52	C	-0.073269	-0.302231	0.172087
C53	C	-0.573300	-0.549382	-0.327934
C54	C	-0.073300	-0.049382	0.172066
C55	C	-0.573313	-0.467397	-0.327940
C56	C	-0.073313	0.032603	0.172060
C57	C	-0.439104	-0.467454	-0.428520
C58	C	0.060896	0.032546	0.071480
C59	C	-0.439093	-0.549433	-0.428515
C60	C	0.060907	-0.049433	0.071485
C61	C	-0.506194	-0.590394	-0.378220
C62	C	-0.006194	-0.090394	0.121780
C63	C	-0.895934	-1.234901	-0.277904
C64	C	-0.395934	-0.734901	0.222096
C65	C	-0.950795	-1.285148	-0.227756
C66	C	-0.450795	-0.785148	0.272244
C67	C	-1.060517	-1.285194	-0.227777
C68	C	-0.560517	-0.785194	0.272223
C69	C	-1.115379	-1.234989	-0.277954
C70	C	-0.615379	-0.734989	0.222046
C71	C	-1.060518	-1.184742	-0.328103
C72	C	-0.560518	-0.684742	0.171897
C73	C	-0.950794	-1.184700	-0.328074
C74	C	-0.450794	-0.684700	0.171926
C75	C	-1.060516	-1.084293	-0.428421
C76	C	-0.560516	-0.584293	0.071579
C77	C	-0.950794	-1.084242	-0.428397
C78	C	-0.450794	-0.584242	0.071603
C79	C	-1.115378	-1.034088	-0.478598
C80	C	-0.615378	-0.534088	0.021402
C81	C	-1.060517	-0.983835	-0.528744
C82	C	-0.560517	-0.483835	-0.028744
C83	C	-0.950788	-0.983791	-0.528720
C84	C	-0.450788	-0.483791	-0.028720
C85	C	-0.895933	-1.033994	-0.478545
C86	C	-0.395933	-0.533994	0.021455
C87	C	-0.232154	-1.134511	-0.378257
C88	C	0.267846	-0.634511	0.121743
C89	C	-0.115378	-1.134540	-0.378272
C90	C	0.384622	-0.634540	0.121728
C91	C	-0.506110	-1.134490	-0.582965
C92	C	-0.006110	-0.634490	-0.082965
C93	C	-0.506077	-1.134510	-0.670215
C94	C	-0.006077	-0.634510	-0.170215
C95	C	-0.506217	-0.339187	-0.378238
C96	C	-0.006217	0.160813	0.121762
C97	C	-0.506217	-0.426436	-0.378230
C98	C	-0.006217	0.073564	0.121770
C99	C	-0.438884	-1.184735	-0.711221
C100	C	0.061116	-0.684735	-0.211221
C101	C	-0.438849	-1.184744	-0.793201
C102	C	0.061151	-0.684744	-0.293201
C103	C	-0.506014	-1.134532	-0.834175
C104	C	-0.006014	-0.634532	-0.334175
C105	C	-0.573210	-1.084302	-0.793163
C106	C	-0.073210	-0.584302	-0.293163
C107	C	-0.573239	-1.084290	-0.711184
C108	C	-0.073239	-0.584290	-0.211184
C109	C	-0.573147	-1.084334	-0.964033
C110	C	-0.073147	-0.584334	-0.464033
C111	C	-0.573119	-1.084348	-1.046018
C112	C	-0.073119	-0.584348	-0.546018
C113	C	-0.438757	-1.184788	-1.046051
C114	C	0.061243	-0.684788	-0.546051
C115	C	-0.438786	-1.184776	-0.964072
C116	C	0.061214	-0.684776	-0.464072
C117	C	-0.505984	-1.134546	-0.923066
C118	C	-0.005984	-0.634546	-0.423066
C119	C	-0.506189	-1.134440	-0.174273
C120	C	-0.006189	-0.634440	0.325727
C121	C	-0.505926	-1.134572	-0.087024
C122	C	-0.005926	-0.634572	0.412976
H123	H	-0.384423	-0.835675	-0.469448
H124	H	0.115577	-0.335675	0.030552
Cl125	Cl	-0.757997	-1.034171	-0.478739
Cl126	Cl	-0.257997	-0.534171	0.021261
Cl127	Cl	-0.657639	-0.668686	-0.264698
Cl128	Cl	-0.157639	-0.168686	0.235302
Cl129	Cl	-0.354281	-1.247935	-1.097600
Cl130	Cl	0.145719	-0.747935	-0.597600
Cl131	Cl	-0.657624	-1.021187	-0.912484
Cl132	Cl	-0.157624	-0.521187	-0.412484
Cl133	Cl	-0.354356	-1.247904	-0.912563
Cl134	Cl	0.145644	-0.747904	-0.412563
Cl135	Cl	-0.354736	-0.600998	-0.491738
Cl136	Cl	0.145264	-0.100998	0.008262
H137	H	-0.384466	-0.434100	-0.469471
H138	H	0.115534	0.065900	0.030529
H139	H	-1.204719	-1.034132	-0.478615
H140	H	-0.704719	-0.534132	0.021385
H141	H	-0.627959	-0.434003	-0.286994
H142	H	-0.127959	0.065997	0.213006
H143	H	-0.627905	-0.835580	-0.286961
H144	H	-0.127905	-0.335580	0.213039
Cl145	Cl	-0.657665	-0.600875	-0.264710
Cl146	Cl	-0.157665	-0.100875	0.235290
Cl147	Cl	-0.757997	-1.235067	-0.278094
Cl148	Cl	-0.257997	-0.735067	0.221906
H149	H	-0.627892	-1.043416	-0.826530
H150	H	-0.127892	-0.543416	-0.326530
Cl151	Cl	-0.881821	-1.348264	-0.164683
Cl152	Cl	-0.381821	-0.848264	0.335317
H153	H	-1.105185	-1.326114	-0.186946
H154	H	-0.605185	-0.826114	0.313054
H155	H	-0.627808	-1.043459	-1.079376
H156	H	-0.127808	-0.543459	-0.579376
H157	H	-1.204720	-1.235038	-0.277974
H158	H	-0.704720	-0.735038	0.222026
H159	H	-1.105194	-0.942966	-0.569597
H160	H	-0.605194	-0.442966	-0.069597
H161	H	-0.384194	-1.225625	-0.677867
H162	H	0.115806	-0.725625	-0.177867
H163	H	-0.384136	-1.225644	-0.826585
H164	H	0.115864	-0.725644	-0.326585
Cl165	Cl	-0.657711	-1.021145	-0.659633
Cl166	Cl	-0.157711	-0.521145	-0.159633
H167	H	-0.906126	-0.942876	-0.569560
H168	H	-0.406126	-0.442876	-0.069560
H169	H	-0.384438	-0.686957	-0.469453
H170	H	0.115562	-0.186957	0.030547
