data_functionalizedCrystal
_audit_creation_method	'MofGen! by Chris Wilmer'
_symmetry_space_group_name_H-M	'P1'
_symmetry_Int_Tables_number	1
_symmetry_cell_setting	triclinic
loop_
_symmetry_equiv_pos_as_xyz
  x,y,z
_cell_length_a	14.395555
_cell_length_b	18.760492
_cell_length_c	14.395555
_cell_angle_alpha	60.000747
_cell_angle_beta	90.002623
_cell_angle_gamma	59.998358
loop_
_atom_site_label
_atom_site_type_symbol
_atom_site_fract_x
_atom_site_fract_y
_atom_site_fract_z
Zr1	Zr	0.894879	0.780218	-0.121893
O2	O	0.746542	0.928930	-0.270232
O3	O	0.940357	0.631505	-0.076414
O4	O	0.940351	0.780211	-0.270214
O5	O	0.746547	0.780230	0.076436
O6	O	1.093225	0.780206	-0.270206
O7	O	0.746548	0.780224	-0.076432
O8	O	1.093235	0.514198	0.076467
O9	O	0.746537	1.046237	-0.270237
O10	O	1.073835	0.692669	-0.057018
O11	O	0.959746	0.692677	0.057059
O12	O	0.959739	0.867759	-0.171115
O13	O	0.845650	0.867766	-0.057038
Zr14	Zr	1.138693	0.780218	0.121926
Zr15	Zr	1.138695	0.780209	-0.121880
Zr16	Zr	0.894877	0.780226	0.121913
Zr17	Zr	0.894870	0.967309	-0.121902
Zr18	Zr	1.138702	0.593126	0.121935
O19	O	1.093216	0.928930	0.076447
O20	O	1.093218	0.928918	-0.270213
O21	O	0.746540	0.928942	0.076428
O22	O	1.287030	0.631505	0.270264
O23	O	1.287032	0.631493	-0.076396
O24	O	0.940354	0.631517	0.270246
O25	O	1.287025	0.780206	-0.076403
O26	O	1.093221	0.780224	0.270247
O27	O	0.940347	0.780230	0.270239
O28	O	1.287024	0.780211	0.076464
O29	O	0.940339	1.046230	-0.270227
O30	O	1.093234	0.514205	0.270260
O31	O	1.287035	0.514198	0.270270
O32	O	1.287037	0.514191	0.076477
O33	O	0.746536	1.046244	-0.076444
O34	O	0.940337	1.046237	-0.076434
O35	O	1.073833	0.692677	0.171148
O36	O	1.187922	0.692669	0.057071
O37	O	1.073827	0.867759	-0.057026
O38	O	0.959737	0.867766	0.057051
C39	C	1.016797	0.546195	0.000028
C40	C	1.016801	0.466770	0.000032
C41	C	0.957218	0.130979	0.059553
C42	C	1.076329	0.130976	-0.059545
C43	C	1.076338	0.205591	-0.059539
C44	C	1.016784	0.242905	0.000014
C45	C	0.957222	0.205604	0.059559
C46	C	1.135889	0.242905	-0.119092
C47	C	1.135899	0.317526	-0.119089
C48	C	1.076351	0.354837	-0.059530
C49	C	1.016788	0.317530	0.000019
C50	C	0.957235	0.354844	0.059571
C51	C	0.897677	0.317533	0.119128
C52	C	0.897675	0.242914	0.119119
C53	C	1.076354	0.429456	-0.059521
C54	C	0.957239	0.429468	0.059577
C55	C	0.711809	0.780228	0.000000
C56	C	0.608302	0.780232	-0.000005
C57	C	0.485504	0.875698	-0.062206
C58	C	0.454671	0.827972	-0.107279
C59	C	0.454712	0.827955	0.045059
C60	C	0.578833	0.732505	-0.045140
C61	C	0.578871	0.732501	0.107257
C62	C	0.548111	0.684705	0.062211
C63	C	1.321763	0.780207	0.000033
C64	C	1.425270	0.780203	0.000038
C65	C	1.016788	0.780207	-0.304947
C66	C	1.016789	0.780203	-0.408449
C67	C	1.016775	1.014240	0.000005
C68	C	1.016771	1.093665	0.000001
C69	C	1.079005	0.684737	-0.406827
C70	C	0.971726	0.732463	-0.499856
C71	C	1.124041	0.732481	-0.499848
C72	C	0.909447	0.827931	-0.500116
C73	C	1.061840	0.827934	-0.500093
C74	C	0.954497	0.875731	-0.593140
C75	C	1.016784	0.780228	0.304980
C76	C	1.016783	0.780232	0.408482
C77	C	1.321774	0.546184	0.000044
C78	C	1.425285	0.466756	0.000053
C79	C	1.016795	0.546206	0.304991
C80	C	1.016798	0.466784	0.408497
C81	C	1.321772	0.546195	0.305007
C82	C	1.425282	0.466770	0.408519
C83	C	0.711800	1.014240	-0.304975
C84	C	0.608291	1.093665	-0.408486
C85	C	0.711798	1.014251	-0.000011
C86	C	0.608288	1.093679	-0.000021
C87	C	1.016777	1.014230	-0.304958
C88	C	1.016775	1.093651	-0.408464
C89	C	1.414342	0.429455	-0.059506
C90	C	1.511591	0.354834	-0.059520
C91	C	1.619783	0.317509	0.000033
C92	C	1.630723	0.354817	0.059594
C93	C	1.533475	0.429442	0.059600
C94	C	1.076351	0.429487	0.516668
C95	C	1.076350	0.354872	0.613932
C96	C	1.016801	0.317551	0.603022
C97	C	0.957239	0.354856	0.494840
C98	C	0.957235	0.429474	0.397578
C99	C	1.533454	0.429467	0.397582
C100	C	1.630722	0.354849	0.494832
C101	C	1.619814	0.317530	0.603018
C102	C	1.511630	0.354841	0.613953
C103	C	1.414365	0.429462	0.516704
C104	C	0.500118	1.130977	-0.397549
C105	C	0.402851	1.205618	-0.494799
C106	C	0.413758	1.242941	-0.602986
C107	C	0.521942	1.205626	-0.613921
C108	C	0.619207	1.130991	-0.516671
C109	C	0.619231	1.130988	0.059529
C110	C	0.521981	1.205630	0.059516
C111	C	0.413790	1.242957	-0.000040
C112	C	0.402849	1.205645	-0.059597
C113	C	0.500097	1.131010	-0.059590
C114	C	1.076336	1.130949	-0.397518
C115	C	1.076355	1.205564	-0.494763
C116	C	1.016806	1.242885	-0.602954
C117	C	0.957243	1.205580	-0.613897
C118	C	0.957231	1.130961	-0.516653
H119	H	0.908732	0.100595	0.108046
H120	H	1.326256	0.459844	-0.108015
H121	H	0.530911	1.235996	0.108018
O122	O	1.140582	1.090691	-0.280833
H123	H	1.182010	1.129161	-0.289578
O124	O	0.649781	0.679086	0.227363
H125	H	0.675274	0.600265	0.279290
O126	O	1.499767	0.314602	-0.123757
H127	H	1.541196	0.328939	-0.189601
H128	H	0.908760	1.235979	-0.701999
H129	H	1.698959	0.256744	0.000019
O130	O	0.533697	1.245887	-0.730612
H131	H	0.580917	1.183245	-0.740508
H132	H	0.401204	0.868323	0.083153
O133	O	0.892981	1.090738	-0.528458
H134	H	0.801450	1.153396	-0.575687
H135	H	1.542401	0.459803	0.108107
H136	H	1.718826	0.324417	0.108079
H137	H	0.707284	1.100612	-0.525590
O138	O	1.016807	1.323380	-0.707836
H139	H	1.068218	1.343049	-0.682037
O140	O	0.735917	1.090750	0.123749
H141	H	0.727170	1.129255	0.165133
O142	O	1.140579	0.469737	0.528448
H143	H	1.181973	0.431265	0.620014
H144	H	1.131529	0.604013	-0.327060
O145	O	1.499872	0.314582	0.730643
H146	H	1.452655	0.280581	0.740535
H147	H	0.901808	0.956523	-0.672774
O148	O	0.308902	1.323429	-0.000007
H149	H	0.334699	1.343079	0.051431
O150	O	1.140614	0.314628	0.730606
H151	H	1.182040	0.353103	0.721842
H152	H	0.314747	1.236049	-0.108085
O153	O	0.451808	0.982624	-0.131985
H154	H	0.399895	1.022578	-0.095412
O155	O	0.649496	0.679109	-0.095759
H156	H	0.735160	0.613610	-0.031752
H157	H	1.718801	0.324478	0.485908
O158	O	0.308847	1.323451	-0.707874
H159	H	0.231799	1.343119	-0.682082
H160	H	0.849183	0.347929	0.167609
O161	O	1.016830	0.237052	0.707930
H162	H	1.068265	0.217382	0.784977
H163	H	1.124856	1.235929	-0.485831
O164	O	0.893001	0.469718	0.123805
H165	H	0.851583	0.431242	0.165205
O166	O	0.833426	0.202687	0.183336
H167	H	0.843415	0.144541	0.173311
O168	O	0.893050	0.314571	0.483079
H169	H	0.903089	0.256402	0.568890
H170	H	0.908743	0.459832	0.309504
O171	O	1.140545	0.090747	-0.123790
H172	H	1.130534	0.032593	-0.113792
O173	O	1.545233	0.469722	0.280900
H174	H	1.636800	0.431248	0.289652
H175	H	1.699023	0.256768	0.682196
O176	O	1.200098	0.202680	-0.183343
H177	H	1.190093	0.144520	-0.173335
H178	H	0.491172	1.100636	-0.108079
O179	O	0.286179	1.245834	-0.482982
H180	H	0.276298	1.279805	-0.435730
H181	H	1.184395	0.347899	-0.167582
O182	O	0.582085	0.577692	0.131891
H183	H	0.504498	0.578442	0.132012
O184	O	1.112351	0.881332	-0.498787
H185	H	1.201428	0.841538	-0.497612
H186	H	0.401152	0.868317	-0.197971
H187	H	0.491215	1.100593	-0.309467
O188	O	1.140575	0.469707	-0.123752
H189	H	1.232110	0.407062	-0.089335
O190	O	0.921247	0.679026	-0.501118
H191	H	0.973042	0.599785	-0.424722
O192	O	0.789240	0.881321	-0.499037
H193	H	0.790192	0.880849	-0.421630
O194	O	1.244188	0.679015	-0.501044
H195	H	1.243012	0.680139	-0.578871
O196	O	1.297692	0.469674	0.528506
H197	H	1.306460	0.431170	0.620075
