data_functionalizedCrystal
_audit_creation_method	'MofGen! by Chris Wilmer'
_symmetry_space_group_name_H-M	'P1'
_symmetry_Int_Tables_number	1
_symmetry_cell_setting	triclinic
loop_
_symmetry_equiv_pos_as_xyz
  x,y,z
_cell_length_a	16.625546
_cell_length_b	13.032831
_cell_length_c	13.034356
_cell_angle_alpha	105.184960
_cell_angle_beta	82.786847
_cell_angle_gamma	97.173222
loop_
_atom_site_label
_atom_site_type_symbol
_atom_site_fract_x
_atom_site_fract_y
_atom_site_fract_z
Zn1	Zn	-0.408762	-1.700143	-0.806413
Zn2	Zn	-0.075429	-1.366810	-0.473080
Zn3	Zn	0.257904	-1.033477	-0.139747
Zn4	Zn	-0.558798	-1.677440	-0.628773
Zn5	Zn	-0.225465	-1.344107	-0.295440
Zn6	Zn	0.107868	-1.010773	0.037894
Zn7	Zn	-0.408769	-1.499948	-0.606296
Zn8	Zn	-0.075436	-1.166615	-0.272963
Zn9	Zn	0.257897	-0.833281	0.060371
Zn10	Zn	-0.528336	-1.522474	-0.783828
Zn11	Zn	-0.195002	-1.189140	-0.450495
Zn12	Zn	0.138331	-0.855807	-0.117162
O13	O	-0.476167	-1.600001	-0.706328
O14	O	-0.142833	-1.266668	-0.372994
O15	O	0.190500	-0.933335	-0.039661
O16	O	-0.441411	-1.845768	-0.801708
O17	O	-0.108078	-1.512435	-0.468374
O18	O	0.225256	-1.179101	-0.135041
O19	O	-0.551648	-1.634967	-0.477151
O20	O	-0.218315	-1.301634	-0.143817
O21	O	0.115018	-0.968300	0.189516
O22	O	-0.295939	-1.526579	-0.632887
O23	O	0.037394	-1.193245	-0.299554
O24	O	0.370728	-0.859912	0.033779
O25	O	-0.551642	-1.829088	-0.671196
O26	O	-0.218308	-1.495755	-0.337863
O27	O	0.115025	-1.162421	-0.004530
O28	O	-0.295934	-1.673661	-0.779913
O29	O	0.037400	-1.340328	-0.446579
O30	O	0.370733	-1.006995	-0.113246
O31	O	-0.441423	-1.504564	-0.460637
O32	O	-0.108089	-1.171231	-0.127303
O33	O	0.225244	-0.837898	0.206030
O34	O	-0.411884	-1.354300	-0.610987
O35	O	-0.078551	-1.020966	-0.277654
O36	O	0.254782	-0.687633	0.055679
O37	O	-0.499722	-1.564970	-0.935465
O38	O	-0.166389	-1.231637	-0.602132
O39	O	0.166944	-0.898304	-0.268798
O40	O	-0.499729	-1.370849	-0.741419
O41	O	-0.166396	-1.037516	-0.408086
O42	O	0.166937	-0.704182	-0.074753
O43	O	-0.411872	-1.695503	-0.952058
O44	O	-0.078539	-1.362170	-0.618725
O45	O	0.254794	-1.028837	-0.285392
O46	O	-0.667587	-1.656809	-0.649296
O47	O	-0.334254	-1.323476	-0.315963
O48	O	-0.000920	-0.990142	0.017370
O49	O	-0.645206	-1.542956	-0.763215
O50	O	-0.311873	-1.209623	-0.429881
O51	O	0.021460	-0.876289	-0.096548
C52	C	-0.452502	-1.324035	-0.671314
C53	C	-0.119169	-0.990701	-0.337981
C54	C	0.214164	-0.657368	-0.004647
C55	C	-0.442396	-1.205978	-0.656360
C56	C	-0.109063	-0.872645	-0.323027
C57	C	0.224271	-0.539312	0.010306
C58	C	-0.685653	-1.599895	-0.706270
C59	C	-0.352319	-1.266562	-0.372937
C60	C	-0.018986	-0.933228	-0.039604
C61	C	-0.775277	-1.599951	-0.706294
C62	C	-0.441944	-1.266618	-0.372961
C63	C	-0.108610	-0.933285	-0.039627
C64	C	-0.452399	-1.635282	-0.983380
C65	C	-0.119065	-1.301949	-0.650047
C66	C	0.214268	-0.968615	-0.316714
C67	C	-0.442270	-1.650317	-1.101444
C68	C	-0.108937	-1.316983	-0.768110
C69	C	0.224396	-0.983650	-0.434777
C70	C	-1.103459	-1.600151	-0.706428
C71	C	-0.770126	-1.266817	-0.373095
C72	C	-0.436792	-0.933484	-0.039761
C73	C	-1.012148	-1.600092	-0.706393
C74	C	-0.678815	-1.266759	-0.373060
C75	C	-0.345481	-0.933426	-0.039726
C76	C	-0.939371	-1.600050	-0.706360
C77	C	-0.606037	-1.266717	-0.373027
C78	C	-0.272704	-0.933383	-0.039694
C79	C	-0.848054	-1.599993	-0.706327
C80	C	-0.514721	-1.266660	-0.372993
C81	C	-0.181388	-0.933327	-0.039660
C82	C	-0.265863	-1.600140	-0.706412
C83	C	0.067470	-1.266806	-0.373079
C84	C	0.400804	-0.933473	-0.039745
C85	C	-0.176244	-1.600199	-0.706448
C86	C	0.157089	-1.266865	-0.373115
C87	C	0.490423	-0.933532	-0.039781
C88	C	-0.499924	-1.877045	-0.741479
C89	C	-0.166590	-1.543712	-0.408145
C90	C	0.166743	-1.210379	-0.074812
C91	C	-0.510047	-1.995105	-0.756458
C92	C	-0.176714	-1.661772	-0.423125
C93	C	0.156619	-1.328439	-0.089791
C94	C	-0.481441	-1.161549	-0.714132
C95	C	-0.148108	-0.828215	-0.380799
C96	C	0.185225	-0.494882	-0.047465
C97	C	-0.470997	-1.039531	-0.698678
C98	C	-0.137663	-0.706198	-0.365345
C99	C	0.195670	-0.372864	-0.032011
C100	C	-0.470758	-1.607970	-1.267894
C101	C	-0.137424	-1.274637	-0.934561
C102	C	0.195909	-0.941304	-0.601228
C103	C	-0.481226	-1.592429	-1.145870
C104	C	-0.147893	-1.259095	-0.812536
C105	C	0.185441	-0.925762	-0.479203
C106	C	-0.499789	-1.564919	-0.430361
C107	C	-0.166456	-1.231585	-0.097027
C108	C	0.166878	-0.898252	0.236306
C109	C	-0.509708	-1.550090	-0.312324
C110	C	-0.176374	-1.216757	0.021009
C111	C	0.156959	-0.883423	0.354343
H112	H	-0.522598	-1.213844	-0.775037
H113	H	-0.189265	-0.880511	-0.441704
H114	H	0.144068	-0.547177	-0.108371
Cl115	Cl	-0.544686	-1.498156	-1.065134
Cl116	Cl	-0.211353	-1.164822	-0.731801
Cl117	Cl	0.121981	-0.831489	-0.398467
Cl118	Cl	-0.407310	-1.702251	-1.348635
Cl119	Cl	-0.073977	-1.368917	-1.015302
Cl120	Cl	0.259356	-1.035584	-0.681968
H121	H	-0.401173	-1.711383	-1.153740
H122	H	-0.067840	-1.378050	-0.820407
H123	H	0.265494	-1.044717	-0.487073
Cl124	Cl	-0.573587	-1.075832	-0.850510
Cl125	Cl	-0.240254	-0.742499	-0.517177
Cl126	Cl	0.093079	-0.409166	-0.183844
H127	H	-0.429830	-0.987240	-0.637777
H128	H	-0.096497	-0.653907	-0.304443
H129	H	0.236837	-0.320573	0.028890
H130	H	-0.550808	-1.489035	-1.260024
H131	H	-0.217474	-1.155701	-0.926691
H132	H	0.115859	-0.822368	-0.593357
Cl133	Cl	-0.378841	-1.125248	-0.562335
Cl134	Cl	-0.045507	-0.791914	-0.229002
Cl135	Cl	0.287826	-0.458581	0.104331
