data_functionalizedCrystal
_audit_creation_method	'MofGen! by Chris Wilmer'
_symmetry_space_group_name_H-M	'P1'
_symmetry_Int_Tables_number	1
_symmetry_cell_setting	triclinic
loop_
_symmetry_equiv_pos_as_xyz
  x,y,z
_cell_length_a	17.077404
_cell_length_b	13.897448
_cell_length_c	13.897441
_cell_angle_alpha	90.028012
_cell_angle_beta	89.978207
_cell_angle_gamma	89.980206
loop_
_atom_site_label
_atom_site_type_symbol
_atom_site_fract_x
_atom_site_fract_y
_atom_site_fract_z
Zn1	Zn	1.200090	0.383978	-0.545426
Zn2	Zn	1.700090	0.883978	-0.045426
Zn3	Zn	1.200000	0.545300	-0.384134
Zn4	Zn	1.700000	1.045300	0.115866
Zn5	Zn	1.068817	0.384021	-0.384141
Zn6	Zn	1.568817	0.884021	0.115859
Zn7	Zn	1.068798	0.545234	-0.545384
Zn8	Zn	1.568798	1.045234	-0.045384
O9	O	1.134426	0.464633	-0.464771
O10	O	1.634426	0.964633	0.035229
O11	O	1.309925	0.405388	-0.524045
O12	O	1.809925	0.905388	-0.024045
O13	O	1.182568	0.523952	-0.249154
O14	O	1.682568	1.023952	0.250846
O15	O	1.086277	0.249034	-0.405556
O16	O	1.586277	0.749034	0.094444
O17	O	1.309859	0.523910	-0.405545
O18	O	1.809859	1.023910	0.094455
O19	O	1.182723	0.249002	-0.524051
O20	O	1.682723	0.749002	-0.024051
O21	O	1.086189	0.405461	-0.249159
O22	O	1.586189	0.905461	0.250841
O23	O	0.958968	0.405397	-0.405516
O24	O	1.458968	0.905397	0.094484
O25	O	1.086244	0.523797	-0.680371
O26	O	1.586244	1.023797	-0.180371
O27	O	0.958954	0.523839	-0.523980
O28	O	1.458954	1.023839	-0.023980
O29	O	1.182704	0.405323	-0.680402
O30	O	1.682704	0.905323	-0.180402
O31	O	1.182550	0.680273	-0.405504
O32	O	1.682550	1.180273	0.094496
O33	O	1.086156	0.680224	-0.523974
O34	O	1.586156	1.180224	-0.023974
C35	C	0.930478	0.464616	-0.464745
C36	C	1.430478	0.964616	0.035255
C37	C	0.843229	0.464632	-0.464756
C38	C	1.343229	0.964632	0.035244
C39	C	0.802252	0.526397	-0.526342
C40	C	1.302252	1.026397	-0.026342
C41	C	0.720271	0.526400	-0.526357
C42	C	1.220271	1.026400	-0.026357
C43	C	0.679269	0.464640	-0.464782
C44	C	1.179269	0.964640	0.035218
C45	C	0.720252	0.402867	-0.403193
C46	C	1.220252	0.902867	0.096807
C47	C	0.802231	0.402861	-0.403183
C48	C	1.302231	0.902861	0.096817
C49	C	0.549382	0.402886	-0.403216
C50	C	1.049382	0.902886	0.096784
C51	C	0.467397	0.402894	-0.403225
C52	C	0.967397	0.902894	0.096775
C53	C	0.467422	0.526425	-0.526390
C54	C	0.967422	1.026425	-0.026390
C55	C	0.549401	0.526419	-0.526380
C56	C	1.049401	1.026419	-0.026380
C57	C	0.590378	0.464647	-0.464791
C58	C	1.090378	0.964647	0.035209
C59	C	1.134362	0.715248	-0.464755
C60	C	1.634362	1.215248	0.035245
C61	C	1.134407	0.822462	-0.464780
C62	C	1.634407	1.322462	0.035220
C63	C	1.134484	1.018757	-0.464849
C64	C	1.634484	1.518757	0.035151
C65	C	1.134439	0.909524	-0.464814
C66	C	1.634439	1.409524	0.035186
C67	C	1.339171	0.464652	-0.464799
C68	C	1.839171	0.964652	0.035201
C69	C	1.426420	0.464659	-0.464810
C70	C	1.926420	0.964659	0.035190
C71	C	1.134482	0.464548	-0.716364
C72	C	1.634482	0.964548	-0.216364
C73	C	1.134506	0.464512	-0.823578
C74	C	1.634506	0.964512	-0.323578
C75	C	1.134505	1.213040	-0.464820
C76	C	1.634505	1.713040	0.035180
C77	C	1.134522	1.105826	-0.464870
C78	C	1.634522	1.605826	0.035130
C79	C	1.134527	0.464447	-1.019874
C80	C	1.634527	0.964447	-0.519874
C81	C	1.134513	0.464485	-0.910641
C82	C	1.634513	0.964485	-0.410641
C83	C	1.134416	0.464649	-0.214157
C84	C	1.634416	0.964649	0.285843
C85	C	1.134544	0.464413	-0.106944
C86	C	1.634544	0.964413	0.393056
H87	H	0.582783	0.576714	-0.576515
H88	H	1.082783	1.076714	-0.076515
H89	H	0.686862	0.352577	-0.353061
H90	H	1.186862	0.852577	0.146939
H91	H	0.835630	0.576693	-0.576481
H92	H	1.335630	1.076693	-0.076481
Cl93	Cl	0.600895	0.325229	-0.325788
Cl94	Cl	1.100895	0.825229	0.174212
Cl95	Cl	0.668761	0.604052	-0.603783
Cl96	Cl	1.168761	1.104052	-0.103783
H97	H	0.434055	0.576719	-0.576542
H98	H	0.934055	1.076719	-0.076542
H99	H	0.434016	0.352592	-0.353096
H100	H	0.934016	0.852592	0.146904
H101	H	0.835593	0.352560	-0.353039
H102	H	1.335593	0.852560	0.146961
