data_functionalizedCrystal
_audit_creation_method	'MofGen! by Chris Wilmer'
_symmetry_space_group_name_H-M	'P1'
_symmetry_Int_Tables_number	1
_symmetry_cell_setting	triclinic
loop_
_symmetry_equiv_pos_as_xyz
  x,y,z
_cell_length_a	19.077068
_cell_length_b	19.077148
_cell_length_c	17.077395
_cell_angle_alpha	92.313948
_cell_angle_beta	92.268225
_cell_angle_gamma	89.885327
loop_
_atom_site_label
_atom_site_type_symbol
_atom_site_fract_x
_atom_site_fract_y
_atom_site_fract_z
Zn1	Zn	-0.322997	-1.062960	-0.505887
Zn2	Zn	-0.440505	-1.058154	-0.379661
Zn3	Zn	-0.318289	-0.945460	-0.369163
Zn4	Zn	-0.435737	-0.940695	-0.505412
O5	O	-0.379382	-1.001817	-0.440031
O6	O	-0.342551	-1.160653	-0.493735
O7	O	-0.424318	-1.043188	-0.268422
O8	O	-0.220584	-0.965052	-0.383104
O9	O	-0.428883	-1.157122	-0.400998
O10	O	-0.224043	-1.051379	-0.483555
O11	O	-0.334526	-0.960392	-0.260709
O12	O	-0.329903	-0.846497	-0.382644
O13	O	-0.420757	-0.956931	-0.615322
O14	O	-0.416192	-0.842996	-0.482746
O15	O	-0.337928	-1.046758	-0.615670
O16	O	-0.538203	-1.038567	-0.400538
O17	O	-0.534700	-0.952271	-0.492926
C18	C	-0.372020	-0.819250	-0.431505
C19	C	-0.368887	-0.741147	-0.427877
C20	C	-0.346390	-0.301702	-0.401867
C21	C	-0.349337	-0.375088	-0.405280
C22	C	-0.395811	-0.409972	-0.459026
C23	C	-0.439335	-0.371465	-0.509367
C24	C	-0.436383	-0.298080	-0.505957
C25	C	-0.409460	-0.629255	-0.474808
C26	C	-0.412409	-0.702646	-0.478213
C27	C	-0.322411	-0.706263	-0.374126
C28	C	-0.319466	-0.632877	-0.370718
C29	C	-0.362988	-0.594377	-0.421062
N30	N	-0.398826	-0.484984	-0.462514
N31	N	-0.359968	-0.519366	-0.417576
C32	C	-0.561948	-0.994400	-0.447838
C33	C	-0.640053	-0.991290	-0.451207
C34	C	-0.678548	-1.034795	-0.404732
C35	C	-0.751936	-1.031875	-0.407905
C36	C	-0.786827	-0.985446	-0.457551
C37	C	-0.748326	-0.941940	-0.504032
C38	C	-0.674940	-0.944864	-0.500862
C39	C	-1.006116	-0.971883	-0.472190
C40	C	-1.079507	-0.968960	-0.475354
C41	C	-1.083112	-1.058896	-0.379228
C42	C	-1.009724	-1.061813	-0.376059
C43	C	-0.971230	-1.018310	-0.422543
N44	N	-0.861841	-0.982459	-0.460794
N45	N	-0.896217	-1.021301	-0.419303
C46	C	-0.196105	-1.009283	-0.432211
C47	C	-0.118003	-1.012465	-0.428879
C48	C	-0.379336	-1.001849	-0.644774
C49	C	-0.379316	-1.001863	-0.732024
C50	C	-0.386771	-0.185097	-0.448581
C51	C	-0.389912	-0.263200	-0.452203
C52	C	-0.336094	-1.048718	-1.108021
C53	C	-0.336118	-1.048703	-1.026041
C54	C	-0.379252	-1.001924	-0.984873
C55	C	-0.422369	-0.955162	-1.025690
C56	C	-0.422348	-0.955181	-1.107669
C57	C	-0.422409	-0.955124	-0.854820
C58	C	-0.422429	-0.955103	-0.772835
C59	C	-0.336178	-1.048645	-0.773192
C60	C	-0.336158	-1.048665	-0.855171
C61	C	-0.379274	-1.001902	-0.895982
C62	C	-0.379380	-1.001828	-0.236083
C63	C	-0.379207	-1.001958	-0.148832
H64	H	-0.444900	-0.597917	-0.515799
H65	H	-0.974779	-0.936459	-0.510037
O66	O	-0.789206	-1.074281	-0.362799
C67	C	-0.773958	-1.144994	-0.382579
H68	H	-0.720726	-1.148473	-0.410558
H69	H	-0.816164	-1.167025	-0.425829
C70	C	-0.837578	-1.183504	-0.273599
C71	C	-0.772194	-1.187777	-0.307958
H72	H	-0.836492	-1.209896	-0.227570
H73	H	-0.847853	-1.135864	-0.260274
H74	H	-0.872742	-1.201862	-0.309649
H75	H	-0.737032	-1.169411	-0.271911
H76	H	-0.761912	-1.235415	-0.321274
H77	H	-0.477171	-0.399873	-0.553132
H78	H	-0.471822	-0.266733	-0.546948
O79	O	-0.975913	-1.106882	-0.327730
C80	C	-0.993277	-1.090846	-0.249540
H81	H	-1.045494	-1.061708	-0.248928
H82	H	-0.950565	-1.056383	-0.219597
C83	C	-0.935271	-1.195033	-0.206156
C84	C	-0.999408	-1.159250	-0.205404
H85	H	-0.939050	-1.237227	-0.178929
H86	H	-0.923570	-1.205836	-0.258833
H87	H	-0.899684	-1.166306	-0.181204
H88	H	-1.034992	-1.187974	-0.230364
H89	H	-1.011116	-1.148454	-0.152730
H90	H	-0.300965	-1.086807	-1.141533
O91	O	-0.782326	-0.896858	-0.552190
C92	C	-0.855355	-0.903615	-0.545036
H93	H	-0.866324	-0.926264	-0.485988
H94	H	-0.877628	-0.940179	-0.594274
C95	C	-0.876748	-0.803191	-0.622996
C96	C	-0.890222	-0.831003	-0.550470
H97	H	-0.898257	-0.758402	-0.626351
H98	H	-0.827548	-0.798640	-0.627819
H99	H	-0.895310	-0.833668	-0.664020
H100	H	-0.871653	-0.800531	-0.509448
H101	H	-0.939420	-0.835548	-0.545640
H102	H	-0.313900	-0.406433	-0.364287
O103	O	-0.637466	-0.902572	-0.545894
C104	C	-0.593266	-0.858888	-0.497217
H105	H	-0.583284	-0.884139	-0.438436
H106	H	-0.619499	-0.805690	-0.487339
C107	C	-0.535287	-0.817905	-0.608990
C108	C	-0.523024	-0.848923	-0.536796
H109	H	-0.491960	-0.811755	-0.633405
H110	H	-0.565067	-0.847334	-0.641786
H111	H	-0.557151	-0.773577	-0.600748
H112	H	-0.501169	-0.893254	-0.545040
H113	H	-0.493238	-0.819501	-0.504003
O114	O	-1.113427	-0.923782	-0.523472
C115	C	-1.154126	-0.876737	-0.478460
H116	H	-1.131875	-0.873309	-0.415479
H117	H	-1.210603	-0.896248	-0.479187
C118	C	-1.179676	-0.807832	-0.590741
C119	C	-1.152344	-0.803618	-0.513388
H120	H	-1.178580	-0.762730	-0.612287
H121	H	-1.152259	-0.839529	-0.621068
H122	H	-1.226738	-0.824094	-0.591336
H123	H	-1.105281	-0.787365	-0.512794
H124	H	-1.179753	-0.771917	-0.483061
O125	O	-0.294171	-1.094148	-0.986517
C126	C	-0.256106	-1.135449	-1.040432
H127	H	-0.252497	-1.106778	-1.097423
H128	H	-0.283987	-1.187770	-1.052740
C129	C	-0.186170	-1.183830	-0.935719
C130	C	-0.181732	-1.148613	-1.005714
H131	H	-0.140293	-1.191953	-0.914303
H132	H	-0.211816	-1.156007	-0.899394
H133	H	-0.209407	-1.227427	-0.945985
H134	H	-0.158504	-1.105013	-0.995445
H135	H	-0.156080	-1.176428	-1.042036
O136	O	-0.294243	-1.093970	-0.733469
C137	C	-0.247247	-1.055790	-0.682270
H138	H	-0.269900	-1.001535	-0.668554
H139	H	-0.194864	-1.050178	-0.711296
C140	C	-0.208248	-1.161591	-0.622509
C141	C	-0.236074	-1.094956	-0.605658
H142	H	-0.201353	-1.185752	-0.575253
H143	H	-0.239908	-1.187315	-0.657004
H144	H	-0.164599	-1.156905	-0.646699
H145	H	-0.279726	-1.099643	-0.581478
H146	H	-0.204421	-1.069234	-0.571157
H147	H	-0.457493	-0.917076	-0.992165
H148	H	-0.457456	-0.917105	-1.140896
O149	O	-0.464311	-0.909631	-0.894341
C150	C	-0.502398	-0.868348	-0.840430
H151	H	-0.473534	-0.867076	-0.780650
H152	H	-0.556807	-0.891900	-0.835190
C153	C	-0.544946	-0.794719	-0.942794
C154	C	-0.509492	-0.793152	-0.869372
H155	H	-0.549326	-0.748335	-0.960648
H156	H	-0.519289	-0.822533	-0.979116
H157	H	-0.590283	-0.814348	-0.938418
H158	H	-0.464153	-0.773530	-0.873752
H159	H	-0.535142	-0.765332	-0.833051
H160	H	-0.281628	-0.604479	-0.326946
O161	O	-0.301183	-0.267930	-0.349634
C162	C	-0.263414	-0.317652	-0.305926
H163	H	-0.263125	-0.370071	-0.340413
H164	H	-0.289386	-0.324396	-0.247719
C165	C	-0.187817	-0.227667	-0.247867
C166	C	-0.187457	-0.292047	-0.290227
H167	H	-0.140964	-0.211871	-0.238179
H168	H	-0.213264	-0.194167	-0.277311
H169	H	-0.209464	-0.233295	-0.199366
H170	H	-0.165819	-0.286416	-0.338731
H171	H	-0.162005	-0.325545	-0.260791
H172	H	-0.301031	-1.086753	-0.888687
O173	O	-0.280235	-0.743738	-0.325199
C174	C	-0.321885	-0.784534	-0.278089
H175	H	-0.375612	-0.793372	-0.308461
H176	H	-0.328395	-0.755922	-0.218914
C177	C	-0.220020	-0.844953	-0.228230
C178	C	-0.286007	-0.855814	-0.265538
H179	H	-0.197888	-0.888921	-0.220485
H180	H	-0.191959	-0.817467	-0.259967
H181	H	-0.225455	-0.821108	-0.178922
H182	H	-0.280571	-0.879651	-0.314849
H183	H	-0.314067	-0.883306	-0.233809
O184	O	-0.644623	-1.079796	-0.356415
C185	C	-0.600615	-1.041510	-0.301992
H186	H	-0.620551	-0.985287	-0.295465
H187	H	-0.544886	-1.041292	-0.323743
C188	C	-0.576410	-1.144986	-0.229994
C189	C	-0.600899	-1.075933	-0.221973
H190	H	-0.576582	-1.166221	-0.180636
H191	H	-0.606056	-1.170781	-0.266661
H192	H	-0.529971	-1.144795	-0.248123
H193	H	-0.647341	-1.076126	-0.203855
H194	H	-0.571261	-1.050139	-0.185301
H195	H	-0.450254	-0.731046	-0.521984
H196	H	-1.114462	-1.094315	-0.341385
H197	H	-0.457535	-0.916996	-0.739317
