data_functionalizedCrystal
_audit_creation_method	'MofGen! by Chris Wilmer'
_symmetry_space_group_name_H-M	'P1'
_symmetry_Int_Tables_number	1
_symmetry_cell_setting	triclinic
loop_
_symmetry_equiv_pos_as_xyz
  x,y,z
_cell_length_a	12.827893
_cell_length_b	21.295417
_cell_length_c	12.827893
_cell_angle_alpha	90.014724
_cell_angle_beta	90.003977
_cell_angle_gamma	90.029863
loop_
_atom_site_label
_atom_site_type_symbol
_atom_site_fract_x
_atom_site_fract_y
_atom_site_fract_z
Zn1	Zn	1.597408	-0.250715	0.590795
Zn2	Zn	1.930741	0.082619	0.924129
Zn3	Zn	2.264075	0.415952	1.257462
Zn4	Zn	1.597305	-0.355956	0.416034
Zn5	Zn	1.930638	-0.022622	0.749367
Zn6	Zn	2.263972	0.310711	1.082700
Zn7	Zn	1.422696	-0.250705	0.416069
Zn8	Zn	1.756029	0.082629	0.749402
Zn9	Zn	2.089363	0.415962	1.082736
Zn10	Zn	1.422591	-0.355950	0.590733
Zn11	Zn	1.755924	-0.022617	0.924067
Zn12	Zn	2.089258	0.310716	1.257400
O13	O	1.510000	-0.303331	0.503408
O14	O	1.843333	0.030002	0.836741
O15	O	2.176667	0.363335	1.170075
O16	O	1.743630	-0.264682	0.567624
O17	O	2.076964	0.068652	0.900957
O18	O	2.410297	0.401985	1.234291
O19	O	1.574144	-0.341992	0.269802
O20	O	1.907477	-0.008659	0.603136
O21	O	2.240810	0.324675	0.936469
O22	O	1.445959	-0.162617	0.439288
O23	O	1.779292	0.170717	0.772621
O24	O	2.112625	0.504050	1.105954
O25	O	1.743555	-0.342002	0.439227
O26	O	2.076888	-0.008669	0.772561
O27	O	2.410221	0.324665	1.105894
O28	O	1.574319	-0.162624	0.567658
O29	O	1.907652	0.170709	0.900992
O30	O	2.240986	0.504043	1.234325
O31	O	1.445859	-0.264665	0.269828
O32	O	1.779192	0.068669	0.603162
O33	O	2.112526	0.402002	0.936495
O34	O	1.276446	-0.264659	0.439228
O35	O	1.609779	0.068674	0.772561
O36	O	1.943113	0.402007	1.105894
O37	O	1.445780	-0.341993	0.736978
O38	O	1.779113	-0.008659	1.070311
O39	O	2.112447	0.324674	1.403644
O40	O	1.276369	-0.341983	0.567553
O41	O	1.609702	-0.008649	0.900886
O42	O	1.943035	0.324684	1.234219
O43	O	1.574217	-0.264676	0.737023
O44	O	1.907550	0.068657	1.070357
O45	O	2.240884	0.401990	1.403690
O46	O	1.574042	-0.444044	0.439167
O47	O	1.907375	-0.110711	0.772501
O48	O	2.240708	0.222622	1.105834
O49	O	1.445680	-0.444040	0.567518
O50	O	1.779013	-0.110707	0.900852
O51	O	2.112347	0.222626	1.234185
C52	C	1.238490	-0.303320	0.503388
C53	C	1.571823	0.030014	0.836721
C54	C	1.905157	0.363347	1.170055
C55	C	1.122337	-0.303330	0.503404
C56	C	1.455670	0.030003	0.836738
C57	C	1.789004	0.363337	1.170071
C58	C	1.070589	-0.265137	0.567038
C59	C	1.403923	0.068196	0.900371
C60	C	1.737256	0.401529	1.233705
C61	C	0.950539	-0.265147	0.567056
C62	C	1.283872	0.068186	0.900390
C63	C	1.617206	0.401520	1.233723
C64	C	1.509867	-0.466883	0.503355
C65	C	1.843200	-0.133550	0.836688
C66	C	2.176533	0.199784	1.170022
C67	C	1.509905	-0.536851	0.503367
C68	C	1.843239	-0.203518	0.836701
C69	C	2.176572	0.129816	1.170034
C70	C	1.576704	-0.569664	0.570258
C71	C	1.910038	-0.236331	0.903591
C72	C	2.243371	0.097002	1.236924
C73	C	1.576741	-0.635407	0.570283
C74	C	1.910074	-0.302074	0.903617
C75	C	2.243408	0.031260	1.236950
C76	C	1.509990	-0.668334	0.503400
C77	C	1.843323	-0.335000	0.836734
C78	C	2.176657	-0.001667	1.170067
C79	C	1.443178	-0.635512	0.436505
C80	C	1.776512	-0.302179	0.769839
C81	C	2.109845	0.031154	1.103172
C82	C	1.443136	-0.569771	0.436489
C83	C	1.776469	-0.236438	0.769822
C84	C	2.109803	0.096896	1.103155
N85	N	1.502119	-0.771580	0.411945
N86	N	1.835452	-0.438247	0.745278
N87	N	2.168785	-0.104914	1.078611
N88	N	1.502165	-0.834032	0.411963
N89	N	1.835498	-0.500698	0.745297
N90	N	2.168832	-0.167365	1.078630
C91	C	1.510112	-0.866408	0.503447
C92	C	1.843445	-0.533075	0.836781
C93	C	2.176779	-0.199742	1.170114
N94	N	1.518032	-0.833974	0.594914
N95	N	1.851365	-0.500641	0.928248
N96	N	2.184698	-0.167308	1.261581
N97	N	1.517991	-0.771517	0.594894
N98	N	1.851324	-0.438184	0.928228
N99	N	2.184657	-0.104850	1.261561
C100	C	1.510028	-0.739619	0.503411
C101	C	1.843361	-0.406286	0.836744
C102	C	2.176695	-0.072952	1.170078
C103	C	1.576955	-0.970507	0.570371
C104	C	1.910288	-0.637174	0.903705
C105	C	2.243621	-0.303840	1.237038
C106	C	1.576984	-1.036251	0.570399
C107	C	1.910317	-0.702918	0.903732
C108	C	2.243651	-0.369584	1.237066
C109	C	1.443427	-1.036355	0.436611
C110	C	1.776760	-0.703022	0.769945
C111	C	2.110093	-0.369688	1.103278
C112	C	1.443392	-0.970613	0.436593
C113	C	1.776725	-0.637279	0.769926
C114	C	2.110058	-0.303946	1.103260
C115	C	1.510161	-0.937693	0.503472
C116	C	1.843495	-0.604359	0.836805
C117	C	2.176828	-0.271026	1.170138
C118	C	1.782570	-0.303344	0.503428
C119	C	2.115903	0.029990	0.836762
C120	C	2.449237	0.363323	1.170095
C121	C	1.898723	-0.303349	0.503437
C122	C	2.232056	0.029985	0.836771
C123	C	2.565390	0.363318	1.170104
C124	C	1.509998	-0.303335	0.775978
C125	C	1.843332	0.029998	1.109311
C126	C	2.176665	0.363332	1.442645
C127	C	1.509998	-0.303336	0.892131
C128	C	1.843331	0.029997	1.225464
C129	C	2.176664	0.363330	1.558798
C130	C	1.510162	-0.139141	0.503484
C131	C	1.843495	0.194192	0.836817
C132	C	2.176829	0.527526	1.170151
C133	C	1.510231	-0.069173	0.503516
C134	C	1.843565	0.264160	0.836850
C135	C	2.176898	0.597494	1.170183
C136	C	1.573543	-0.265085	1.063983
C137	C	1.906876	0.068248	1.397316
C138	C	2.240210	0.401581	1.730649
C139	C	1.573545	-0.265083	0.943932
C140	C	1.906879	0.068251	1.277266
C141	C	2.240212	0.401584	1.610599
C142	C	1.509994	-0.303342	1.231898
C143	C	1.843327	0.029991	1.565231
C144	C	2.176660	0.363325	1.898565
C145	C	1.509994	-0.303340	1.115745
C146	C	1.843328	0.029993	1.449078
C147	C	2.176661	0.363326	1.782412
H148	H	0.943218	-0.336052	0.448961
H149	H	1.276552	-0.002719	0.782294
H150	H	1.609885	0.330615	1.115628
Br151	Br	1.664223	-0.210486	0.869746
Br152	Br	1.997556	0.122848	1.203080
Br153	Br	2.330890	0.456181	1.536413
Br154	Br	1.419299	-0.357925	0.966310
Br155	Br	1.752633	-0.024591	1.299644
Br156	Br	2.085966	0.308742	1.632977
H157	H	1.455594	-0.336093	1.071184
H158	H	1.788927	-0.002759	1.404517
H159	H	2.122260	0.330574	1.737850
H160	H	0.906037	-0.232451	0.621539
H161	H	1.239370	0.100882	0.954872
H162	H	1.572704	0.434216	1.288206
H163	H	1.077763	-0.336034	0.448937
H164	H	1.411096	-0.002701	0.782270
H165	H	1.744430	0.330633	1.115603
H166	H	1.115163	-0.232430	0.621500
H167	H	1.448496	0.100903	0.954833
H168	H	1.781830	0.434237	1.288166
Br169	Br	1.667314	-0.524990	0.661026
Br170	Br	2.000647	-0.191657	0.994360
Br171	Br	2.333980	0.141677	1.327693
H172	H	1.631128	-0.662129	0.624766
H173	H	1.964461	-0.328795	0.958099
H174	H	2.297795	0.004538	1.291432
H175	H	1.389070	-1.063163	0.382160
H176	H	1.722404	-0.729830	0.715494
H177	H	2.055737	-0.396497	1.048827
H178	H	1.388827	-0.662325	0.382051
H179	H	1.722160	-0.328992	0.715384
H180	H	2.055494	0.004341	1.048717
H181	H	1.388739	-0.543054	0.382018
H182	H	1.722072	-0.209721	0.715351
H183	H	2.055406	0.123613	1.048684
H184	H	1.631319	-0.943703	0.624831
H185	H	1.964652	-0.610369	0.958165
H186	H	2.297986	-0.277036	1.291498
H187	H	1.389002	-0.943894	0.382120
H188	H	1.722335	-0.610561	0.715454
H189	H	2.055669	-0.277228	1.048787
Br190	Br	1.664236	-0.210502	1.138243
Br191	Br	1.997569	0.122831	1.471576
Br192	Br	2.330902	0.456165	1.804910
Br193	Br	1.667631	-1.080785	0.661204
Br194	Br	2.000965	-0.747452	0.994537
Br195	Br	2.334298	-0.414118	1.327870
