data_functionalizedCrystal
_audit_creation_method	'MofGen! by Chris Wilmer'
_symmetry_space_group_name_H-M	'P1'
_symmetry_Int_Tables_number	1
_symmetry_cell_setting	triclinic
loop_
_symmetry_equiv_pos_as_xyz
  x,y,z
_cell_length_a	19.121063
_cell_length_b	19.121224
_cell_length_c	19.120904
_cell_angle_alpha	89.871359
_cell_angle_beta	85.258387
_cell_angle_gamma	84.998699
loop_
_atom_site_label
_atom_site_type_symbol
_atom_site_fract_x
_atom_site_fract_y
_atom_site_fract_z
Zn1	Zn	-0.254550	-1.043555	0.452629
Zn2	Zn	-0.367201	-1.043468	0.339976
Zn3	Zn	-0.254127	-0.931340	0.330373
Zn4	Zn	-0.377182	-0.920833	0.452560
O5	O	-0.313265	-0.984799	0.393885
O6	O	-0.265493	-1.141828	0.441733
O7	O	-0.347847	-1.032955	0.240421
O8	O	-0.155540	-0.950659	0.342601
O9	O	-0.348257	-1.141765	0.358968
O10	O	-0.155851	-1.033103	0.432422
O11	O	-0.264773	-0.950575	0.233366
O12	O	-0.274451	-0.831661	0.342534
O13	O	-0.365269	-0.932751	0.550851
O14	O	-0.364859	-0.823941	0.432304
O15	O	-0.275172	-1.022915	0.550901
O16	O	-0.467168	-1.022766	0.358901
O17	O	-0.474502	-0.932667	0.441616
C18	C	-0.320693	-0.802317	0.386370
C19	C	-0.323889	-0.724249	0.383172
C20	C	-0.344120	-0.282709	0.362946
C21	C	-0.341114	-0.356062	0.365945
C22	C	-0.296597	-0.392768	0.410612
C23	C	-0.255078	-0.356117	0.452278
C24	C	-0.258082	-0.282765	0.449275
C25	C	-0.285374	-0.614245	0.421835
C26	C	-0.282375	-0.687602	0.424837
C27	C	-0.368410	-0.687543	0.338502
C28	C	-0.371412	-0.614190	0.335506
C29	C	-0.329891	-0.577545	0.377169
C30	C	-0.293524	-0.467747	0.413680
C31	C	-0.332960	-0.502567	0.374097
C32	C	-0.496412	-0.976586	0.401309
C33	C	-0.574762	-0.973135	0.404511
C34	C	-0.607729	-1.018457	0.362989
C35	C	-0.681347	-1.015216	0.366005
C36	C	-0.721996	-0.966649	0.410540
C37	C	-0.689024	-0.921325	0.452067
C38	C	-0.615407	-0.924570	0.449054
C39	C	-0.944463	-0.954505	0.421793
C40	C	-1.018084	-0.951262	0.424801
C41	C	-1.010402	-1.045155	0.338739
C42	C	-0.936785	-1.048393	0.335728
C43	C	-0.903819	-1.003071	0.377257
C44	C	-0.797246	-0.963333	0.413622
C45	C	-0.828571	-1.006391	0.374178
C46	C	-0.129403	-0.993063	0.386448
C47	C	-0.051052	-0.996584	0.383278
C48	C	-0.321381	-0.976671	0.577072
C49	C	-0.324840	-0.973207	0.655135
C50	C	-0.305802	-0.167994	0.401421
C51	C	-0.302606	-0.246062	0.404610
C52	C	-0.305128	-0.992938	0.211410
C53	C	-0.301466	-0.996547	0.133345
C54	C	-0.279558	-1.018520	0.691837
C55	C	-0.282805	-1.015257	0.765185
C56	C	-0.331338	-0.966684	0.801831
C57	C	-0.376622	-0.921366	0.765123
C58	C	-0.373371	-0.924626	0.691776
C59	C	-0.343498	-0.954489	1.023290
C60	C	-0.346748	-0.951233	1.096643
C61	C	-0.252929	-1.045125	1.096699
C62	C	-0.249685	-1.048383	1.023351
C63	C	-0.294967	-1.003063	0.986650
C64	C	-0.334660	-0.963349	0.876804
C65	C	-0.291641	-1.006395	0.911677
H66	H	-0.407662	-0.584309	0.299133
N67	N	-0.410816	-0.724986	0.295953
N68	N	-0.408132	-0.790478	0.298638
H69	H	-0.438082	-0.816924	0.268585
H70	H	-1.037251	-1.082054	0.304930
N71	N	-0.787062	-1.056007	0.328688
N72	N	-0.792791	-1.120245	0.336394
H73	H	-0.763471	-1.155286	0.304265
N74	N	-0.910790	-0.908222	0.464218
N75	N	-0.870658	-0.932729	0.508331
H76	H	-0.846875	-0.900042	0.538300
N77	N	-0.895269	-1.097982	0.290209
N78	N	-0.853274	-1.077075	0.242735
H79	H	-0.823958	-1.112090	0.210574
H80	H	-0.218828	-0.386008	0.488644
N81	N	-0.236563	-1.061555	0.802678
N82	N	-0.261362	-1.103374	0.846456
H83	H	-0.228702	-1.136073	0.872936
H84	H	-0.708186	-1.052121	0.332193
N85	N	-0.206674	-1.091400	1.134200
N86	N	-0.164577	-1.066884	1.172293
H87	H	-0.131906	-1.099566	1.198779
H88	H	-0.722126	-0.881783	0.488331
H89	H	-0.246119	-0.717486	0.461209
H90	H	-0.224274	-0.252928	0.483200
N91	N	-0.383513	-0.393494	0.323377
N92	N	-0.376201	-0.388371	0.258049
H93	H	-0.406146	-0.414806	0.227982
H94	H	-0.574637	-1.058003	0.326721
H95	H	-0.380374	-0.252828	0.326576
H96	H	-1.051179	-0.911721	0.461079
H97	H	-0.252122	-1.045940	0.881837
N98	N	-0.581740	-0.878274	0.491477
N99	N	-0.618040	-0.834914	0.531240
H100	H	-0.594265	-0.802218	0.561206
H101	H	-0.830350	-0.923788	0.449881
N102	N	-0.229982	-1.068146	0.654419
N103	N	-0.189555	-1.108599	0.687201
H104	H	-0.154538	-1.143649	0.660777
N105	N	-0.200111	-1.098011	0.985932
N106	N	-0.159687	-1.138469	1.018711
H107	H	-0.124677	-1.173523	0.992285
H108	H	-0.369204	-0.472679	0.337727
N109	N	-0.396308	-0.901588	1.134064
N110	N	-0.436719	-0.861112	1.101287
H111	H	-0.471711	-0.826044	1.127714
N112	N	-0.389756	-0.908192	0.985818
N113	N	-0.433086	-0.864829	1.018549
H114	H	-0.465759	-0.832129	0.992083
H115	H	-0.257280	-0.497641	0.450050
H116	H	-0.416136	-0.881813	0.794966
N117	N	-0.419626	-0.878330	0.654294
N118	N	-0.462955	-0.834961	0.687019
H119	H	-0.495622	-0.802260	0.660549
N120	N	-0.384220	-0.913727	0.914248
N121	N	-0.363036	-0.868275	0.952325
H122	H	-0.398033	-0.833228	0.978775
H123	H	-0.251568	-0.584418	0.455764
