data_functionalizedCrystal
_audit_creation_method	'MofGen! by Chris Wilmer'
_symmetry_space_group_name_H-M	'P1'
_symmetry_Int_Tables_number	1
_symmetry_cell_setting	triclinic
loop_
_symmetry_equiv_pos_as_xyz
  x,y,z
_cell_length_a	12.645330
_cell_length_b	19.077372
_cell_length_c	19.076919
_cell_angle_alpha	94.474666
_cell_angle_beta	87.724318
_cell_angle_gamma	87.686867
loop_
_atom_site_label
_atom_site_type_symbol
_atom_site_fract_x
_atom_site_fract_y
_atom_site_fract_z
Zn1	Zn	-0.379296	-1.061724	0.355498
Zn2	Zn	-0.549159	-1.066403	0.237624
Zn3	Zn	-0.379329	-0.948580	0.242342
Zn4	Zn	-0.563939	-0.943834	0.360183
O5	O	-0.467931	-1.005135	0.298912
O6	O	-0.395630	-1.160992	0.335926
O7	O	-0.520459	-1.054717	0.139603
O8	O	-0.230976	-0.963617	0.257366
O9	O	-0.520428	-1.164429	0.249325
O10	O	-0.230953	-1.046744	0.340501
O11	O	-0.395685	-0.968153	0.143069
O12	O	-0.410017	-0.849303	0.261910
O13	O	-0.545618	-0.955528	0.458208
O14	O	-0.545649	-0.845816	0.348487
O15	O	-0.409962	-1.042142	0.454766
O16	O	-0.699468	-1.050115	0.253868
O17	O	-0.710327	-0.960064	0.343911
C18	C	-0.479441	-0.821982	0.306219
C19	C	-0.484392	-0.743627	0.309362
C20	C	-0.519820	-0.302379	0.331939
C21	C	-0.515176	-0.376002	0.328973
C22	C	-0.442132	-0.414603	0.282489
C23	C	-0.373737	-0.379578	0.238963
C24	C	-0.378387	-0.305956	0.241926
C25	C	-0.420646	-0.634980	0.268799
C26	C	-0.415999	-0.708606	0.265840
C27	C	-0.557440	-0.705026	0.355850
C28	C	-0.562079	-0.631403	0.358812
C29	C	-0.493687	-0.596384	0.315283
N30	N	-0.437381	-0.489858	0.279458
N31	N	-0.498444	-0.521131	0.318312
C32	C	-0.743362	-1.005101	0.298901
C33	C	-0.861190	-1.005150	0.298917
C34	C	-0.899195	-1.061861	0.242315
C35	C	-1.021751	-1.061744	0.242126
C36	C	-1.032616	-0.931665	0.281926
C37	C	-0.909974	-0.931962	0.281500
C38	C	-0.909761	-1.021341	0.372710
C39	C	-1.032237	-1.023031	0.372266
C40	C	-0.191424	-1.005188	0.298937
C41	C	-0.073593	-1.005210	0.298948
C42	C	-0.479435	-0.997784	0.482781
C43	C	-0.484337	-0.994651	0.561135
C44	C	-0.456370	-0.189004	0.291568
C45	C	-0.451427	-0.267359	0.288418
C46	C	-0.456393	-1.012498	0.115757
C47	C	-0.451183	-1.015768	0.037398
C48	C	-0.416014	-1.038272	0.596154
C49	C	-0.420617	-1.035320	0.669777
C50	C	-0.493548	-0.988750	0.708377
C51	C	-0.561874	-0.945124	0.673353
C52	C	-0.557265	-0.948073	0.599732
C53	C	-0.514900	-0.975091	0.928752
C54	C	-0.519506	-0.972147	1.002378
C55	C	-0.378247	-1.062342	0.998797
C56	C	-0.373649	-1.065290	0.925175
C57	C	-0.441971	-1.021662	0.890156
N58	N	-0.498257	-0.985733	0.783631
N59	N	-0.437256	-1.024676	0.814904
H60	H	-0.314268	-0.411012	0.201112
H61	H	-0.612891	-0.912545	0.571220
C62	C	-0.405054	-0.556012	0.177275
C63	C	-0.345494	-0.596519	0.220914
H64	H	-0.358662	-0.532277	0.147697
H65	H	-0.449180	-0.522469	0.205379
H66	H	-0.447703	-0.585823	0.149144
H67	H	-0.302851	-0.566707	0.249049
H68	H	-0.301350	-0.630065	0.192807
C69	C	-0.238105	-0.316885	0.152664
C70	C	-0.303204	-0.267459	0.194089
H71	H	-0.191688	-0.293117	0.123133
H72	H	-0.280724	-0.346667	0.124492
H73	H	-0.197741	-0.344384	0.182277
H74	H	-0.343574	-0.239963	0.164476
H75	H	-0.260580	-0.237665	0.222263
C76	C	-0.654967	-0.885628	0.939698
C77	C	-0.589986	-0.927126	0.890267
H78	H	-0.701322	-0.856015	0.915935
H79	H	-0.612262	-0.857538	0.969497
H80	H	-0.695399	-0.915189	0.967178
H81	H	-0.549547	-0.897565	0.862790
H82	H	-0.632696	-0.955219	0.860455
C83	C	-0.347719	-1.163404	0.838575
C84	C	-0.293453	-1.116450	0.882731
H85	H	-0.298202	-1.194983	0.812371
H86	H	-0.387765	-1.137845	0.807198
H87	H	-0.393981	-1.189237	0.866212
H88	H	-0.247197	-1.090613	0.855094
H89	H	-0.253390	-1.142011	0.914112
H90	H	-0.579294	-0.270956	0.369796
H91	H	-0.876556	-1.073882	0.388802
H92	H	-1.058752	-1.077139	0.385158
C93	C	-0.667898	-0.958996	1.085553
C94	C	-0.599666	-0.920947	1.044814
H95	H	-0.717383	-0.927389	1.111748
H96	H	-0.627867	-0.984555	1.116938
H97	H	-0.704731	-0.990842	1.055598
H98	H	-0.562827	-0.889105	1.074769
H99	H	-0.639702	-0.895377	1.013426
C100	C	-0.653169	-0.458403	0.335279
C101	C	-0.590347	-0.414499	0.376817
H102	H	-0.699581	-0.482166	0.364819
H103	H	-0.609006	-0.491923	0.307174
H104	H	-0.693540	-0.430891	0.305682
H105	H	-0.549969	-0.442012	0.406411
H106	H	-0.634515	-0.380975	0.404934
H107	H	-0.621561	-0.599979	0.396663
H108	H	-0.866948	-1.116645	0.252446
C109	C	-0.613124	-0.816293	0.391272
C110	C	-0.632622	-0.743521	0.403688
H111	H	-0.659548	-0.840056	0.420803
H112	H	-0.541820	-0.827948	0.401191
H113	H	-0.624797	-0.830228	0.343402
H114	H	-0.620941	-0.729585	0.451557
H115	H	-0.703943	-0.731861	0.393774
C116	C	-0.276683	-0.704756	0.177140
C117	C	-0.335722	-0.751039	0.214728
H118	H	-0.227135	-0.730953	0.145583
H119	H	-0.239928	-0.674829	0.209048
H120	H	-0.322950	-0.677103	0.151288
H121	H	-0.289457	-0.778688	0.240585
H122	H	-0.372480	-0.780978	0.182816
H123	H	-1.049083	-1.116367	0.252411
C124	C	-0.322579	-1.097867	1.110062
C125	C	-0.303141	-1.110289	1.037291
H126	H	-0.276201	-1.127464	1.133825
H127	H	-0.393903	-1.107692	1.121707
H128	H	-0.310797	-1.050020	1.124007
H129	H	-0.314930	-1.158135	1.023345
H130	H	-0.231800	-1.100469	1.025641
H131	H	-0.865787	-1.051511	0.187887
H132	H	-0.621252	-0.907203	0.704787
H133	H	-0.364984	-1.070842	0.698286
H134	H	-0.885332	-0.888420	0.321106
H135	H	-1.048476	-1.051266	0.187398
H136	H	-0.879047	-0.917917	0.227653
C137	C	-1.144778	-0.902716	0.385503
C138	C	-1.078766	-0.873261	0.336049
H139	H	-1.173274	-0.866659	0.418913
H140	H	-1.104960	-0.936386	0.408918
H141	H	-1.200879	-0.925071	0.362215
H142	H	-1.022660	-0.850911	0.359336
H143	H	-1.118585	-0.839579	0.312631
H144	H	-1.061044	-0.917332	0.228697
H145	H	-1.067855	-0.984532	0.416452
C146	C	-0.968364	-0.930654	0.461748
C147	C	-0.877406	-0.965544	0.429596
H148	H	-0.948381	-0.896204	0.496859
H149	H	-1.011251	-0.963679	0.482803
H150	H	-1.007137	-0.908406	0.427385
H151	H	-0.838636	-0.987796	0.463958
H152	H	-0.834501	-0.932514	0.408541
H153	H	-0.356629	-1.076197	0.564730
