data_functionalizedCrystal
_audit_creation_method	'MofGen! by Chris Wilmer'
_symmetry_space_group_name_H-M	'P1'
_symmetry_Int_Tables_number	1
_symmetry_cell_setting	triclinic
loop_
_symmetry_equiv_pos_as_xyz
  x,y,z
_cell_length_a	16.109317
_cell_length_b	13.339070
_cell_length_c	15.186229
_cell_angle_alpha	89.988518
_cell_angle_beta	89.998505
_cell_angle_gamma	80.451245
loop_
_atom_site_label
_atom_site_type_symbol
_atom_site_fract_x
_atom_site_fract_y
_atom_site_fract_z
O1	O	-1.133165	0.130117	-0.073129
O2	O	-0.633165	0.630117	0.426871
O3	O	-0.894837	0.146281	-0.073151
O4	O	-0.394837	0.646281	0.426849
O5	O	-0.986649	-0.009057	-0.073140
O6	O	-0.486649	0.490943	0.426860
O7	O	-1.041353	0.285456	-0.073140
O8	O	-0.541353	0.785456	0.426860
O9	O	-0.986636	-0.009090	0.073317
O10	O	-0.486636	0.490910	0.573317
O11	O	-0.894824	0.146248	0.073306
O12	O	-0.394824	0.646248	0.573306
O13	O	-1.133152	0.130085	0.073328
O14	O	-0.633152	0.630085	0.573328
Zn15	Zn	-1.013986	0.138161	0.096571
Zn16	Zn	-0.513986	0.638161	0.596571
Zn17	Zn	-1.014003	0.138204	-0.096393
Zn18	Zn	-0.514003	0.638204	0.403607
O19	O	-1.041341	0.285423	0.073317
O20	O	-0.541341	0.785423	0.573317
C21	C	-0.863704	0.145607	0.000075
C22	C	-0.363704	0.645607	0.500075
C23	C	-0.770954	0.143635	0.000066
C24	C	-0.270954	0.643635	0.500066
C25	C	-0.470417	0.137285	-0.079757
C26	C	0.029583	0.637285	0.420243
C27	C	-0.557564	0.139131	-0.079761
C28	C	-0.057564	0.639131	0.420239
C29	C	-0.557566	0.139081	0.079915
C30	C	-0.057566	0.639081	0.579915
C31	C	-0.470419	0.137228	0.079917
C32	C	0.029581	0.637228	0.579917
C33	C	-0.426848	0.136335	0.000079
C34	C	0.073152	0.636335	0.500079
C35	C	-0.601142	0.140034	0.000072
C36	C	-0.101142	0.640034	0.500072
C37	C	-0.695631	0.142036	0.000069
C38	C	-0.195631	0.642036	0.500069
C39	C	-0.332352	0.134332	0.000082
C40	C	0.167648	0.634332	0.500082
C41	C	-0.977402	-0.046761	0.000087
C42	C	-0.477402	0.453239	0.500087
C43	C	-0.949857	-0.159055	0.000081
C44	C	-0.449857	0.340945	0.500081
C45	C	-1.164027	-0.523903	0.000101
C46	C	-0.664027	-0.023903	0.500101
C47	C	-1.189909	-0.418397	0.000111
C48	C	-0.689909	0.081603	0.500111
C49	C	-1.129898	-0.353557	0.000103
C50	C	-0.629898	0.146443	0.500103
C51	C	-1.044001	-0.394232	0.000085
C52	C	-0.544001	0.105768	0.500085
C53	C	-1.018117	-0.499749	0.000082
C54	C	-0.518117	0.000251	0.500082
C55	C	-0.983988	-0.329402	0.000084
C56	C	-0.483988	0.170598	0.500084
C57	C	-0.898091	-0.370078	0.000066
C58	C	-0.398091	0.129922	0.500066
C59	C	-0.872211	-0.475584	0.000062
C60	C	-0.372211	0.024416	0.500062
C61	C	-0.932222	-0.540425	0.000070
C62	C	-0.432222	-0.040425	0.500070
C63	C	-1.009872	-0.223886	0.000088
C64	C	-0.509872	0.276114	0.500088
C65	C	-0.863962	-0.199731	0.000069
C66	C	-0.363962	0.300269	0.500069
C67	C	-0.838080	-0.305237	0.000058
C68	C	-0.338080	0.194763	0.500058
C69	C	-0.164285	0.130760	0.000096
C70	C	0.335715	0.630760	0.500096
C71	C	-0.257035	0.132734	0.000084
C72	C	0.242965	0.632734	0.500084
C73	C	-1.050588	0.323126	0.000089
C74	C	-0.550588	0.823126	0.500089
C75	C	-1.078132	0.435421	0.000089
C76	C	-0.578132	0.935421	0.500089
N77	N	-1.014013	0.138226	-0.228086
N78	N	-0.514013	0.638226	0.271914
C79	C	-1.078491	0.199680	-0.546029
C80	C	-0.578491	0.699680	-0.046029
C81	C	-1.078498	0.199695	-0.453839
C82	C	-0.578498	0.699695	0.046161
C83	C	-0.949499	0.076670	-0.453801
C84	C	-0.449499	0.576670	0.046199
C85	C	-0.949496	0.076651	-0.545989
C86	C	-0.449496	0.576651	-0.045989
C87	C	-1.013992	0.138162	-0.592100
C88	C	-0.513992	0.638162	-0.092100
C89	C	-1.014002	0.138196	-0.407723
C90	C	-0.514002	0.638196	0.092277
C91	C	-1.014009	0.138211	-0.307766
C92	C	-0.514009	0.638211	0.192234
C93	C	-1.013986	0.138145	-0.692063
C94	C	-0.513986	0.638145	-0.192063
N95	N	-1.013981	0.138131	0.228263
N96	N	-0.513981	0.638131	0.728263
H97	H	-0.593034	0.139903	-0.144772
H98	H	-0.093034	0.639903	0.355228
C99	C	-0.878551	0.009023	-0.403069
C100	C	-0.378551	0.509023	0.096931
N101	N	-0.825109	-0.041926	-0.364859
N102	N	-0.325109	0.458074	0.135141
H103	H	-0.593053	0.139811	0.144916
H104	H	-0.093053	0.639811	0.644916
H105	H	-0.896971	0.026550	-0.583501
H106	H	-0.396971	0.526550	-0.083501
H107	H	-1.079810	-0.190778	0.000103
H108	H	-0.579810	0.309222	0.500103
H109	H	-0.434943	0.136556	-0.144767
H110	H	0.065057	0.636556	0.355233
C111	C	-1.158372	-0.237497	0.000109
C112	C	-0.658372	0.262503	0.500109
N113	N	-1.179822	-0.150077	0.000108
N114	N	-0.679822	0.349923	0.500108
C115	C	-0.422491	0.136192	0.167748
C116	C	0.077509	0.636192	0.667748
N117	N	-0.386392	0.135412	0.233899
N118	N	0.113608	0.635412	0.733899
C119	C	-1.149443	0.267334	-0.596748
C120	C	-0.649443	0.767334	-0.096748
N121	N	-1.202889	0.318290	-0.634947
N122	N	-0.702889	0.818290	-0.134947
H123	H	-1.259846	-0.385287	0.000127
H124	H	-0.759846	0.114713	0.500127
C125	C	-1.230028	-0.595233	0.000115
C126	C	-0.730028	-0.095233	0.500115
N127	N	-1.279745	-0.648961	0.000127
N128	N	-0.779745	-0.148961	0.500127
H129	H	-0.911153	-0.626337	0.000058
H130	H	-0.411153	-0.126337	0.500058
H131	H	-1.131021	0.249788	-0.416331
H132	H	-0.631021	0.749788	0.083669
C133	C	-0.777722	-0.520324	0.000051
C134	C	-0.277722	-0.020324	0.500051
N135	N	-0.706552	-0.554020	0.000042
N136	N	-0.206552	-0.054020	0.500042
C137	C	-0.743595	-0.349995	0.000051
C138	C	-0.243595	0.150005	0.500051
N139	N	-0.672428	-0.383707	0.000049
N140	N	-0.172428	0.116293	0.500049
H141	H	-0.815096	-0.146937	0.000067
H142	H	-0.315096	0.353063	0.500067
