data_functionalizedCrystal
_audit_creation_method	'MofGen! by Chris Wilmer'
_symmetry_space_group_name_H-M	'P1'
_symmetry_Int_Tables_number	1
_symmetry_cell_setting	triclinic
loop_
_symmetry_equiv_pos_as_xyz
  x,y,z
_cell_length_a	16.625548
_cell_length_b	16.625546
_cell_length_c	12.759401
_cell_angle_alpha	90.015116
_cell_angle_beta	90.005350
_cell_angle_gamma	90.023536
loop_
_atom_site_label
_atom_site_type_symbol
_atom_site_fract_x
_atom_site_fract_y
_atom_site_fract_z
Zn1	Zn	1.232559	-0.321099	0.594036
Zn2	Zn	1.565893	0.012234	0.927369
Zn3	Zn	1.899226	0.345568	1.260703
Zn4	Zn	1.232498	-0.455906	0.418342
Zn5	Zn	1.565832	-0.122573	0.751675
Zn6	Zn	1.899165	0.210761	1.085009
Zn7	Zn	1.097757	-0.321094	0.418366
Zn8	Zn	1.431090	0.012240	0.751699
Zn9	Zn	1.764424	0.345573	1.085032
Zn10	Zn	1.097692	-0.455896	0.593974
Zn11	Zn	1.431025	-0.122562	0.927307
Zn12	Zn	1.764358	0.210771	1.260640
O13	O	1.165127	-0.388499	0.506179
O14	O	1.498460	-0.055165	0.839513
O15	O	1.831793	0.278168	1.172846
O16	O	1.345384	-0.338988	0.570746
O17	O	1.678717	-0.005654	0.904079
O18	O	2.012050	0.327679	1.237413
O19	O	1.214626	-0.438025	0.271324
O20	O	1.547960	-0.104692	0.604657
O21	O	1.881293	0.228642	0.937991
O22	O	1.115692	-0.208262	0.441705
O23	O	1.449025	0.125071	0.775038
O24	O	1.782358	0.458405	1.108371
O25	O	1.345339	-0.438030	0.441664
O26	O	1.678672	-0.104697	0.774998
O27	O	2.012005	0.228637	1.108331
O28	O	1.214730	-0.208266	0.570769
O29	O	1.548064	0.125068	0.904102
O30	O	1.881397	0.458401	1.237436
O31	O	1.115633	-0.338979	0.271342
O32	O	1.448966	-0.005646	0.604675
O33	O	1.782299	0.327688	0.938008
O34	O	0.984916	-0.338969	0.441644
O35	O	1.318249	-0.005636	0.774978
O36	O	1.651583	0.327698	1.108311
O37	O	1.115580	-0.438012	0.741003
O38	O	1.448914	-0.104679	1.074336
O39	O	1.782247	0.228654	1.407670
O40	O	0.984868	-0.438007	0.570663
O41	O	1.318201	-0.104674	0.903996
O42	O	1.651535	0.228659	1.237329
O43	O	1.214667	-0.338978	0.741049
O44	O	1.548000	-0.005644	1.074382
O45	O	1.881334	0.327689	1.407715
O46	O	1.214563	-0.568737	0.441604
O47	O	1.547896	-0.235404	0.774937
O48	O	1.881230	0.097930	1.108271
O49	O	1.115521	-0.568729	0.570640
O50	O	1.448854	-0.235396	0.903973
O51	O	1.782188	0.097937	1.237306
C52	C	0.955636	-0.388487	0.506150
C53	C	1.288969	-0.055154	0.839483
C54	C	1.622302	0.278180	1.172817
C55	C	0.866015	-0.388501	0.506162
C56	C	1.199348	-0.055168	0.839496
C57	C	1.532681	0.278165	1.172829
C58	C	0.537839	-0.388507	0.506207
C59	C	0.871172	-0.055173	0.839541
C60	C	1.204506	0.278160	1.172874
C61	C	0.629147	-0.388503	0.506191
C62	C	0.962481	-0.055170	0.839525
C63	C	1.295814	0.278164	1.172858
C64	C	0.701924	-0.388505	0.506184
C65	C	1.035257	-0.055171	0.839517
C66	C	1.368591	0.278162	1.172851
C67	C	0.793238	-0.388500	0.506170
C68	C	1.126571	-0.055167	0.839503
C69	C	1.459905	0.278167	1.172836
C70	C	1.165050	-0.597989	0.506135
C71	C	1.498384	-0.264656	0.839469
C72	C	1.831717	0.068677	1.172802
C73	C	1.165091	-0.687610	0.506152
C74	C	1.498425	-0.354277	0.839485
C75	C	1.831758	-0.020944	1.172818
C76	C	1.165232	-1.015786	0.506261
C77	C	1.498565	-0.682453	0.839594
C78	C	1.831899	-0.349119	1.172928
C79	C	1.165190	-0.924478	0.506234
C80	C	1.498524	-0.591144	0.839567
C81	C	1.831857	-0.257811	1.172900
C82	C	1.165161	-0.851701	0.506206
C83	C	1.498494	-0.518368	0.839539
C84	C	1.831828	-0.185035	1.172873
C85	C	1.165121	-0.760387	0.506179
C86	C	1.498454	-0.427054	0.839513
C87	C	1.831787	-0.093720	1.172846
C88	C	1.375435	-0.388511	0.506209
C89	C	1.708769	-0.055177	0.839543
C90	C	2.042102	0.278156	1.172876
C91	C	1.465057	-0.388516	0.506222
C92	C	1.798390	-0.055183	0.839556
C93	C	2.131723	0.278151	1.172889
C94	C	1.165123	-0.388495	0.780213
C95	C	1.498456	-0.055161	1.113546
C96	C	1.831790	0.278172	1.446879
C97	C	1.165122	-0.388493	0.896989
C98	C	1.498455	-0.055160	1.230323
C99	C	1.831788	0.278174	1.563656
C100	C	1.165225	-0.178190	0.506246
C101	C	1.498558	0.155144	0.839580
C102	C	1.831892	0.488477	1.172913
C103	C	1.165267	-0.088568	0.506275
C104	C	1.498600	0.244765	0.839608
C105	C	1.831934	0.578098	1.172942
C106	C	1.216711	-0.336936	0.951877
C107	C	1.550045	-0.003603	1.285210
C108	C	1.883378	0.329731	1.618543
C109	C	1.216706	-0.336938	1.061601
C110	C	1.550040	-0.003605	1.394934
C111	C	1.883373	0.329729	1.728267
C112	C	1.113520	-0.440060	1.061540
C113	C	1.446853	-0.106727	1.394873
C114	C	1.780187	0.226606	1.728207
C115	C	1.113521	-0.440054	0.951818
C116	C	1.446855	-0.106720	1.285151
C117	C	1.780188	0.226613	1.618485
C118	C	1.276288	-0.277402	0.951913
C119	C	1.609621	0.055932	1.285246
C120	C	1.942954	0.389265	1.618579
C121	C	1.276283	-0.277403	1.061637
C122	C	1.609616	0.055930	1.394970
C123	C	1.942949	0.389263	1.728303
C124	C	1.165121	-0.388515	1.233212
C125	C	1.498455	-0.055182	1.566545
C126	C	1.831788	0.278151	1.899879
C127	C	1.165115	-0.388501	1.116435
C128	C	1.498449	-0.055168	1.449769
C129	C	1.831782	0.278165	1.783102
H130	H	1.071509	-0.482033	0.907133
H131	H	1.404843	-0.148700	1.240466
H132	H	1.738176	0.184633	1.573799
H133	H	1.259596	-0.214950	0.922162
H134	H	1.592929	0.118383	1.255496
H135	H	1.926263	0.451717	1.588829
F136	F	1.357896	-0.299264	1.100568
F137	F	1.691229	0.034069	1.433901
F138	F	2.024563	0.367403	1.767235
H139	H	1.335595	-0.299777	0.917879
H140	H	1.668928	0.033557	1.251212
H141	H	2.002261	0.366890	1.584545
H142	H	1.071507	-0.482038	1.106195
H143	H	1.404841	-0.148704	1.439528
H144	H	1.738174	0.184629	1.772862
F145	F	1.246989	-0.199903	1.106151
F146	F	1.580322	0.133431	1.439485
F147	F	1.913655	0.466764	1.772818
