data_functionalizedCrystal
_audit_creation_method	'MofGen! by Chris Wilmer'
_symmetry_space_group_name_H-M	'P1'
_symmetry_Int_Tables_number	1
_symmetry_cell_setting	triclinic
loop_
_symmetry_equiv_pos_as_xyz
  x,y,z
_cell_length_a	16.120484
_cell_length_b	14.908750
_cell_length_c	14.908308
_cell_angle_alpha	83.240757
_cell_angle_beta	95.986071
_cell_angle_gamma	90.537334
loop_
_atom_site_label
_atom_site_type_symbol
_atom_site_fract_x
_atom_site_fract_y
_atom_site_fract_z
Zn1	Zn	-0.427134	-1.329313	-0.456654
Zn2	Zn	-0.093801	-0.995980	-0.123320
Zn3	Zn	0.239532	-0.662646	0.210013
Zn4	Zn	-0.558950	-1.330262	-0.312967
Zn5	Zn	-0.225617	-0.996929	0.020366
Zn6	Zn	0.107716	-0.663596	0.353700
Zn7	Zn	-0.411957	-1.187573	-0.313174
Zn8	Zn	-0.078624	-0.854240	0.020159
Zn9	Zn	0.254709	-0.520906	0.353492
Zn10	Zn	-0.558898	-1.170238	-0.473023
Zn11	Zn	-0.225565	-0.836905	-0.139690
Zn12	Zn	0.107769	-0.503572	0.193644
O13	O	-0.489235	-1.254347	-0.388955
O14	O	-0.155902	-0.921013	-0.055621
O15	O	0.177432	-0.587680	0.277712
O16	O	-0.450994	-1.455728	-0.430656
O17	O	-0.117660	-1.122395	-0.097323
O18	O	0.215673	-0.789062	0.236011
O19	O	-0.533122	-1.318986	-0.185964
O20	O	-0.199788	-0.985653	0.147369
O21	O	0.133545	-0.652320	0.480703
O22	O	-0.297310	-1.213232	-0.325443
O23	O	0.036024	-0.879899	0.007890
O24	O	0.369357	-0.546566	0.341223
O25	O	-0.547838	-1.456426	-0.325090
O26	O	-0.214505	-1.123093	0.008243
O27	O	0.118828	-0.789759	0.341577
O28	O	-0.308460	-1.317368	-0.430857
O29	O	0.024873	-0.984035	-0.097524
O30	O	0.358206	-0.650701	0.235810
O31	O	-0.425126	-1.214153	-0.186116
O32	O	-0.091793	-0.880820	0.147217
O33	O	0.241540	-0.547486	0.480550
O34	O	-0.425075	-1.058984	-0.341316
O35	O	-0.091742	-0.725651	-0.007983
O36	O	0.241591	-0.392317	0.325351
O37	O	-0.547749	-1.183688	-0.597882
O38	O	-0.214416	-0.850354	-0.264549
O39	O	0.118918	-0.517021	0.068784
O40	O	-0.533032	-1.046248	-0.458756
O41	O	-0.199699	-0.712915	-0.125423
O42	O	0.133635	-0.379582	0.207910
O43	O	-0.450943	-1.300559	-0.585856
O44	O	-0.117609	-0.967226	-0.252522
O45	O	0.215724	-0.633893	0.080811
O46	O	-0.675604	-1.302178	-0.340963
O47	O	-0.342271	-0.968844	-0.007629
O48	O	-0.008937	-0.635511	0.325704
O49	O	-0.675565	-1.184609	-0.458555
O50	O	-0.342232	-0.851275	-0.125222
O51	O	-0.008899	-0.517942	0.208111
C52	C	-0.477402	-1.019871	-0.401835
C53	C	-0.144068	-0.686537	-0.068502
C54	C	0.189265	-0.353204	0.264831
C55	C	-0.472361	-0.919558	-0.407369
C56	C	-0.139027	-0.586225	-0.074035
C57	C	0.194306	-0.252892	0.259298
C58	C	-0.705836	-1.241638	-0.401531
C59	C	-0.372502	-0.908305	-0.068198
C60	C	-0.039169	-0.574972	0.265135
C61	C	-0.798504	-1.236282	-0.406937
C62	C	-0.465171	-0.902949	-0.073604
C63	C	-0.131838	-0.569616	0.259729
C64	C	-0.414932	-0.777795	-0.470219
C65	C	-0.081599	-0.444462	-0.136886
C66	C	0.251734	-0.111128	0.196448
C67	C	-0.419662	-0.872048	-0.465024
C68	C	-0.086329	-0.538714	-0.131691
C69	C	0.247005	-0.205381	0.201642
C70	C	-0.520335	-0.872810	-0.354906
C71	C	-0.187002	-0.539477	-0.021573
C72	C	0.146331	-0.206143	0.311761
C73	C	-0.515606	-0.778558	-0.360101
C74	C	-0.182272	-0.445224	-0.026767
C75	C	0.151061	-0.111891	0.306566
C76	C	-0.462901	-0.731053	-0.417758
C77	C	-0.129568	-0.397720	-0.084425
C78	C	0.203765	-0.064387	0.248909
C79	C	-0.458168	-0.636800	-0.422948
C80	C	-0.124835	-0.303466	-0.089614
C81	C	0.208499	0.029867	0.243719
C82	C	-0.558845	-0.637563	-0.312835
C83	C	-0.225512	-0.304230	0.020499
C84	C	0.107821	0.029103	0.353832
C85	C	-0.563575	-0.731816	-0.307640
C86	C	-0.230242	-0.398483	0.025693
C87	C	0.103092	-0.065149	0.359027
C88	C	-0.968172	-1.226508	-0.416826
C89	C	-0.634838	-0.893175	-0.083493
C90	C	-0.301505	-0.559841	0.249841
C91	C	-1.009467	-1.282346	-0.361089
C92	C	-0.676133	-0.949013	-0.027756
C93	C	-0.342800	-0.615679	0.305578
C94	C	-1.103875	-1.276907	-0.366591
C95	C	-0.770542	-0.943574	-0.033258
C96	C	-0.437209	-0.610241	0.300075
C97	C	-0.873754	-1.231945	-0.411325
C98	C	-0.540421	-0.898612	-0.077992
C99	C	-0.207088	-0.565279	0.255341
C100	C	-0.271791	-1.267128	-0.376347
C101	C	0.061543	-0.933795	-0.043014
C102	C	0.394876	-0.600461	0.290319
C103	C	-0.179129	-1.272574	-0.370975
C104	C	0.154205	-0.939241	-0.037641
C105	C	0.487538	-0.605908	0.295692
C106	C	-0.501033	-1.240084	-0.625727
C107	C	-0.167700	-0.906751	-0.292394
C108	C	0.165634	-0.573417	0.040939
C109	C	-0.506060	-1.234006	-0.726626
C110	C	-0.172727	-0.900673	-0.393293
C111	C	0.160606	-0.567339	-0.059959
C112	C	-0.501106	-0.489739	-0.376017
C113	C	-0.167773	-0.156406	-0.042683
C114	C	0.165560	0.176928	0.290650
C115	C	-0.506143	-0.590051	-0.370485
C116	C	-0.172809	-0.256718	-0.037152
C117	C	0.160524	0.076615	0.296182
C118	C	-0.414684	-1.344282	-0.903703
C119	C	-0.081351	-1.010948	-0.570369
C120	C	0.251983	-0.677615	-0.237036
C121	C	-0.419405	-1.338574	-0.998505
C122	C	-0.086072	-1.005241	-0.665172
C123	C	0.247261	-0.671907	-0.331839
C124	C	-0.520219	-1.216879	-1.011036
C125	C	-0.186886	-0.883546	-0.677703
C126	C	0.146448	-0.550212	-0.344369
C127	C	-0.515498	-1.222587	-0.916233
C128	C	-0.182164	-0.889253	-0.582900
C129	C	0.151169	-0.555920	-0.249567
C130	C	-0.462730	-1.286291	-0.862570
C131	C	-0.129396	-0.952958	-0.529236
C132	C	0.203937	-0.619625	-0.195903
C133	C	-0.458013	-1.292003	-0.767765
C134	C	-0.124680	-0.958669	-0.434432
C135	C	0.208653	-0.625336	-0.101098
C136	C	-0.558822	-1.170304	-0.780298
C137	C	-0.225489	-0.836971	-0.446964
C138	C	0.107845	-0.503637	-0.113631
C139	C	-0.563543	-1.164596	-0.875100
C140	C	-0.230210	-0.831263	-0.541767
C141	C	0.103123	-0.497930	-0.208434
C142	C	-0.477425	-1.268609	-0.153096
C143	C	-0.144092	-0.935276	0.180237
C144	C	0.189241	-0.601943	0.513570
C145	C	-0.472172	-1.274876	-0.052175
C146	C	-0.138838	-0.941542	0.281158
C147	C	0.194495	-0.608209	0.614491
H148	H	-0.415250	-0.598124	-0.469891
H149	H	-0.081916	-0.264790	-0.136558
H150	H	0.251417	0.068543	0.196776
H151	H	-0.606487	-0.770506	-0.260699
H152	H	-0.273154	-0.437173	0.072634
H153	H	0.060180	-0.103840	0.405967
H154	H	-0.973917	-1.334234	-0.309238
H155	H	-0.640583	-1.000901	0.024095
H156	H	-0.307250	-0.667567	0.357428
H157	H	-0.380279	-1.385794	-1.031992
H158	H	-0.046946	-1.052460	-0.698658
H159	H	0.286387	-0.719127	-0.365325
O160	O	-0.373189	-0.917481	-0.516083
O161	O	-0.039856	-0.584148	-0.182750
O162	O	0.293477	-0.250814	0.150583
C163	C	-0.426390	-0.965723	-0.574368
C164	C	-0.093056	-0.632389	-0.241035
C165	C	0.240277	-0.299056	0.092299
H166	H	-0.490907	-0.933151	-0.585236
H167	H	-0.157573	-0.599817	-0.251903
H168	H	0.175760	-0.266484	0.081431
H169	H	-0.399875	-0.964349	-0.642478
H170	H	-0.066541	-0.631016	-0.309144
H171	H	0.266792	-0.297682	0.024189
H172	H	-0.431406	-1.038675	-0.542523
H173	H	-0.098073	-0.705342	-0.209190
H174	H	0.235261	-0.372009	0.124143
H175	H	-0.372010	-0.739118	-0.517157
H176	H	-0.038677	-0.405784	-0.183823
H177	H	0.294657	-0.072451	0.149510
O178	O	-1.010700	-1.164630	-0.478595
O179	O	-0.677366	-0.831296	-0.145262
O180	O	-0.344033	-0.497963	0.188071
C181	C	-1.096860	-1.172919	-0.470408
C182	C	-0.763526	-0.839586	-0.137074
C183	C	-0.430193	-0.506252	0.196259
H184	H	-1.106651	-1.206095	-0.399425
H185	H	-0.773317	-0.872762	-0.066092
H186	H	-0.439984	-0.539428	0.267241
H187	H	-1.126980	-1.103073	-0.482110
H188	H	-0.793647	-0.769739	-0.148776
H189	H	-0.460313	-0.436406	0.184557
H190	H	-1.126619	-1.216291	-0.523066
H191	H	-0.793286	-0.882958	-0.189733
H192	H	-0.459953	-0.549624	0.143600
H193	H	-0.563247	-0.911504	-0.307967
H194	H	-0.229914	-0.578170	0.025366
H195	H	0.103420	-0.244837	0.358700
H196	H	-0.415048	-1.343875	-0.724073
H197	H	-0.081715	-1.010542	-0.390740
H198	H	0.251619	-0.677208	-0.057406
H199	H	-0.371723	-1.396157	-0.860009
H200	H	-0.038389	-1.062823	-0.526675
H201	H	0.294944	-0.729490	-0.193342
O202	O	-0.571445	-1.155067	-1.063307
O203	O	-0.238111	-0.821734	-0.729973
O204	O	0.095222	-0.488401	-0.396640
C205	C	-0.565279	-1.162444	-1.155801
C206	C	-0.231946	-0.829111	-0.822468
C207	C	0.101387	-0.495777	-0.489134
H208	H	-0.542146	-1.232920	-1.163338
H209	H	-0.208813	-0.899587	-0.830004
H210	H	0.124521	-0.566253	-0.496671
H211	H	-0.629202	-1.150466	-1.195805
H212	H	-0.295868	-0.817133	-0.862471
H213	H	0.037465	-0.483800	-0.529138
H214	H	-0.519507	-1.109912	-1.183054
H215	H	-0.186174	-0.776579	-0.849721
H216	H	0.147159	-0.443245	-0.516388
H217	H	-0.597947	-1.123086	-0.746798
H218	H	-0.264613	-0.789753	-0.413464
H219	H	0.068720	-0.456419	-0.080131
O220	O	-0.605543	-0.592107	-0.262009
O221	O	-0.272210	-0.258773	0.071324
O222	O	0.061123	0.074560	0.404658
C223	C	-0.659283	-0.531318	-0.319726
C224	C	-0.325949	-0.197984	0.013607
C225	C	0.007384	0.135349	0.346941
H226	H	-0.669521	-0.555116	-0.389953
H227	H	-0.336188	-0.221782	-0.056620
H228	H	-0.002854	0.111551	0.276713
H229	H	-0.721699	-0.528483	-0.290561
H230	H	-0.388366	-0.195149	0.042772
H231	H	-0.055033	0.138184	0.376105
H232	H	-0.630085	-0.461201	-0.325334
H233	H	-0.296751	-0.127868	0.007999
H234	H	0.036582	0.205465	0.341332
O235	O	-0.614897	-1.102840	-0.927272
O236	O	-0.281563	-0.769507	-0.593939
O237	O	0.051770	-0.436173	-0.260605
C238	C	-0.674046	-1.147758	-0.982428
C239	C	-0.340713	-0.814425	-0.649095
C240	C	-0.007380	-0.481092	-0.315761
H241	H	-0.681355	-1.220255	-0.950251
H242	H	-0.348021	-0.886922	-0.616918
H243	H	-0.014688	-0.553589	-0.283585
H244	H	-0.736613	-1.111288	-0.989022
H245	H	-0.403280	-0.777955	-0.655689
H246	H	-0.069946	-0.444622	-0.322355
H247	H	-0.652002	-1.148053	-1.052610
H248	H	-0.318669	-0.814719	-0.719277
H249	H	0.014665	-0.481386	-0.385943
