data_functionalizedCrystal
_audit_creation_method	'MofGen! by Chris Wilmer'
_symmetry_space_group_name_H-M	'P1'
_symmetry_Int_Tables_number	1
_symmetry_cell_setting	triclinic
loop_
_symmetry_equiv_pos_as_xyz
  x,y,z
_cell_length_a	14.971486
_cell_length_b	10.654551
_cell_length_c	14.048226
_cell_angle_alpha	89.995355
_cell_angle_beta	89.998499
_cell_angle_gamma	84.049779
loop_
_atom_site_label
_atom_site_type_symbol
_atom_site_fract_x
_atom_site_fract_y
_atom_site_fract_z
O1	O	1.187838	0.163659	-0.079047
O2	O	0.927545	0.183257	-0.079073
O3	O	1.063675	-0.009345	-0.079057
O4	O	1.051707	0.356261	-0.079063
O5	O	1.063659	-0.009357	0.079264
O6	O	0.927528	0.183246	0.079249
O7	O	1.187822	0.163648	0.079274
Zn8	Zn	1.057672	0.173445	0.104398
Zn9	Zn	1.057694	0.173460	-0.104197
O10	O	1.051691	0.356250	0.079259
C11	C	0.894207	0.182375	0.000085
C12	C	0.794896	0.179749	0.000075
C13	C	1.062788	-0.056139	0.000102
C14	C	1.060158	-0.195554	0.000097
C15	C	0.738286	0.292897	0.000074
C16	C	0.644973	0.290422	0.000089
C17	C	0.608271	0.174796	0.000096
C18	C	0.664888	0.061639	0.000100
C19	C	0.758199	0.064116	0.000092
C20	C	0.470397	0.056485	0.000113
C21	C	0.377080	0.054007	0.000118
C22	C	0.357172	0.282791	0.000109
C23	C	0.450483	0.285268	0.000102
C24	C	0.507093	0.172110	0.000103
C25	C	1.058933	-0.261039	-0.086205
C26	C	1.056455	-0.392033	-0.086206
C27	C	1.056431	-0.392047	0.086405
C28	C	1.058903	-0.261054	0.086405
C29	C	1.000778	-0.561500	-0.189897
C30	C	0.999568	-0.626992	-0.276204
C31	C	1.052701	-0.594016	-0.352395
C32	C	1.107066	-0.495554	-0.342284
C33	C	1.108283	-0.430071	-0.255975
C34	C	1.055129	-0.463041	-0.179787
C35	C	1.114587	-0.091586	0.190090
C36	C	1.115811	-0.026101	0.276399
C37	C	1.062684	-0.059076	0.352598
C38	C	1.008332	-0.157544	0.342496
C39	C	1.007108	-0.223028	0.256187
C40	C	1.060234	-0.190045	0.179987
C41	C	1.221159	0.164530	0.000115
C42	C	1.320471	0.167156	0.000118
C43	C	1.052578	0.403044	0.000097
C44	C	1.055208	0.542459	0.000096
N45	N	1.057664	0.173434	0.246759
N46	N	1.057709	0.173461	-0.246558
C47	C	1.117962	0.088185	0.296584
C48	C	1.117968	0.088184	0.396241
C49	C	1.057680	0.173439	0.446072
C50	C	0.997375	0.258693	0.396241
C51	C	0.997365	0.258686	0.296585
C52	C	0.997401	0.258702	0.603955
C53	C	0.997411	0.258710	0.703618
C54	C	1.118003	0.088199	0.703612
C55	C	1.117994	0.088193	0.603956
C56	C	1.057690	0.173448	0.554131
H57	H	0.768161	0.387053	0.000067
Br58	Br	0.933350	-0.356673	0.242478
H59	H	1.167089	0.018778	0.563383
H60	H	0.948292	0.328122	0.563391
H61	H	0.965052	-0.184369	0.404535
Br62	Br	0.915523	0.374379	0.228965
Br63	Br	0.327270	-0.102914	0.000161
Br64	Br	0.568149	0.443988	0.000085
Br65	Br	0.500292	0.442190	0.000077
Br66	Br	0.280345	0.436363	0.000106
H67	H	0.516488	-0.035661	0.000115
H68	H	0.957499	-0.588348	-0.127865
H69	H	0.948283	0.328105	0.436819
Br70	Br	0.835028	-0.089449	0.000101
Br71	Br	0.615080	-0.095284	0.000120
Br72	Br	1.060635	-0.172149	-0.203336
Br73	Br	1.179193	-0.450825	-0.445687
H74	H	1.051715	-0.647348	-0.422668
H75	H	1.152547	-0.349907	-0.247742
Br76	Br	0.925790	-0.760612	-0.289927
H77	H	1.055410	-0.445393	0.156673
H78	H	1.157843	-0.064717	0.128041
Br79	Br	1.064359	0.029782	0.469740
Br80	Br	1.189588	0.107521	0.290115
H81	H	1.167066	0.018767	0.436808
Br82	Br	1.199793	-0.027517	0.228966
Br83	Br	0.915588	0.374419	0.771238
Br84	Br	1.199846	-0.027496	0.771234
