data_functionalizedCrystal
_audit_creation_method	'MofGen! by Chris Wilmer'
_symmetry_space_group_name_H-M	'P1'
_symmetry_Int_Tables_number	1
_symmetry_cell_setting	triclinic
loop_
_symmetry_equiv_pos_as_xyz
  x,y,z
_cell_length_a	10.654550
_cell_length_b	17.699077
_cell_length_c	16.776229
_cell_angle_alpha	89.993415
_cell_angle_beta	89.994543
_cell_angle_gamma	83.882740
loop_
_atom_site_label
_atom_site_type_symbol
_atom_site_fract_x
_atom_site_fract_y
_atom_site_fract_z
O1	O	0.158773	1.005091	-0.066276
O2	O	0.179442	0.784843	-0.066279
O3	O	-0.013721	0.900031	-0.066274
O4	O	0.351936	0.889903	-0.066280
O5	O	-0.013732	0.900015	0.066302
O6	O	0.179430	0.784828	0.066297
O7	O	0.158761	1.005075	0.066301
Zn8	Zn	0.169094	0.894949	0.087348
Zn9	Zn	0.169109	0.894969	-0.087327
O10	O	0.351924	0.889888	0.066296
C11	C	0.178697	0.756634	0.000008
C12	C	0.176479	0.672601	0.000007
C13	C	0.175427	0.633119	0.072275
C14	C	0.173323	0.554163	0.072276
C15	C	0.172280	0.514690	0.000008
C16	C	0.173328	0.554178	-0.072266
C17	C	0.175423	0.633134	-0.072266
C18	C	0.164877	0.235761	-0.072267
C19	C	0.162785	0.156800	-0.072262
C20	C	0.162777	0.156791	0.072275
C21	C	0.164872	0.235746	0.072275
C22	C	0.165913	0.275228	0.000002
C23	C	0.168192	0.360841	0.000001
C24	C	0.170009	0.429078	0.000007
C25	C	-0.060511	0.899279	0.000013
C26	C	-0.199916	0.897055	0.000010
C27	C	-0.280591	0.964875	0.000014
C28	C	-0.411575	0.962780	0.000008
C29	C	-0.381196	0.825038	-0.000001
C30	C	-0.250214	0.827134	-0.000001
C31	C	-0.230292	1.034796	0.000025
C32	C	-0.310969	1.102623	0.000030
C33	C	-0.441953	1.100527	0.000024
C34	C	-0.492261	1.030606	0.000014
C35	C	0.398715	0.890639	0.000007
C36	C	0.538119	0.892864	0.000005
C37	C	0.159506	1.033285	0.000011
C38	C	0.161724	1.117317	0.000008
N39	N	0.169082	0.894941	0.206560
N40	N	0.169111	0.894984	-0.206538
C41	C	0.083585	0.945962	0.248279
C42	C	0.083584	0.945966	0.331731
C43	C	0.169087	0.894952	0.373463
C44	C	0.254589	0.843926	0.331737
C45	C	0.254583	0.843918	0.248287
C46	C	0.254613	0.843953	0.668285
C47	C	0.254615	0.843966	0.751741
C48	C	0.083615	0.946001	0.751729
C49	C	0.083609	0.945993	0.668278
C50	C	0.169105	0.894964	0.626561
C51	C	0.169104	0.894960	0.536072
C52	C	0.169096	0.894960	0.463949
H53	H	0.165720	0.267898	-0.131117
H54	H	0.176281	0.665279	-0.131114
Br55	Br	-0.449471	0.730151	-0.000015
Br56	Br	0.370623	0.774685	0.388370
H57	H	-0.270000	1.159550	0.000018
H58	H	0.324230	0.802405	0.634325
H59	H	0.324202	0.802371	0.214320
H60	H	-0.123640	1.036510	0.000032
H61	H	0.172469	0.522034	-0.131108
H62	H	-0.507637	1.155755	0.000019
Br63	Br	-0.032454	1.015207	0.388353
H64	H	-0.598918	1.028906	0.000001
Br65	Br	-0.140717	0.735090	-0.000010
H66	H	0.324245	0.802421	0.785718
H67	H	0.176287	0.665251	0.131125
Br68	Br	-0.032453	1.015204	0.191652
H69	H	0.013994	0.987549	0.785704
Br70	Br	0.171917	0.500580	0.170359
Br71	Br	0.166300	0.289311	0.170357
Br72	Br	-0.032428	1.015232	0.611645
H73	H	0.161934	0.124664	-0.131115
Br74	Br	0.161362	0.103204	0.170363
