data_functionalizedCrystal
_audit_creation_method	'MofGen! by Chris Wilmer'
_symmetry_space_group_name_H-M	'P1'
_symmetry_Int_Tables_number	1
_symmetry_cell_setting	triclinic
loop_
_symmetry_equiv_pos_as_xyz
  x,y,z
_cell_length_a	10.654550
_cell_length_b	10.540539
_cell_length_c	9.130313
_cell_angle_alpha	90.000859
_cell_angle_beta	89.996220
_cell_angle_gamma	84.505197
loop_
_atom_site_label
_atom_site_type_symbol
_atom_site_fract_x
_atom_site_fract_y
_atom_site_fract_z
O1	O	1.667897	0.178295	-0.121912
O2	O	1.302424	0.195282	-0.121888
O3	O	1.493499	0.002079	-0.121899
O4	O	1.476823	0.371498	-0.121902
O5	O	1.493496	0.002084	0.121700
O6	O	1.302422	0.195287	0.121711
O7	O	1.667894	0.178300	0.121686
Cu8	Cu	1.485158	0.186794	0.143941
Cu9	Cu	1.485161	0.186788	-0.144143
O10	O	1.476820	0.371503	0.121697
C11	C	1.255625	0.194038	-0.000086
C12	C	1.116180	0.190306	-0.000077
C13	C	1.036734	0.304061	-0.000099
C14	C	0.905712	0.300547	-0.000124
C15	C	0.933595	0.069513	-0.000111
C16	C	1.064614	0.073028	-0.000075
C17	C	1.088301	0.421338	-0.000100
C18	C	1.008854	0.535103	-0.000124
C19	C	0.877832	0.531589	-0.000149
C20	C	0.826256	0.414310	-0.000151
C21	C	1.492247	-0.045221	-0.000102
C22	C	1.488505	-0.186168	-0.000110
C23	C	1.345134	-0.369543	-0.000647
C24	C	1.348927	-0.222926	-0.000099
C25	C	1.555675	-0.247846	0.138993
C26	C	1.550912	-0.394389	0.139110
C27	C	1.553753	-0.394914	-0.137907
C28	C	1.555039	-0.247933	-0.139747
C29	C	1.714694	0.179545	-0.000119
C30	C	1.854139	0.183276	-0.000138
C31	C	1.478072	0.418803	-0.000103
C32	C	1.481813	0.559750	-0.000105
N33	N	1.485165	0.186798	0.346564
N34	N	1.485163	0.186774	-0.346765
C35	C	1.569795	0.101277	0.423211
C36	C	1.569791	0.101262	0.576548
C37	C	1.400525	0.272300	0.576577
C38	C	1.400523	0.272308	0.423243
C39	C	1.654437	0.015767	0.346532
C40	C	1.739074	-0.069760	0.423179
C41	C	1.739071	-0.069775	0.576516
C42	C	1.654430	0.015736	0.653206
H43	H	1.194984	0.424213	-0.000086
H44	H	1.050855	0.630586	-0.000110
O45	O	1.670583	-0.451873	0.146596
C46	C	1.667409	-0.585291	0.146823
H47	H	1.575598	-0.610321	0.095033
H48	H	1.750678	-0.631501	0.081282
H49	H	1.673385	-0.621936	0.264334
H50	H	1.807980	-0.139388	0.360731
O51	O	1.318264	0.355191	0.651232
C52	C	1.240165	0.286470	0.739903
H53	H	1.289299	0.187600	0.762856
H54	H	1.220776	0.339262	0.847736
H55	H	1.147267	0.276977	0.680822
H56	H	1.656802	-0.223748	-0.148154
H57	H	1.654570	-0.442177	-0.138850
H58	H	0.813149	0.624221	-0.000154
O59	O	1.318274	0.355508	0.349005
C60	C	1.243554	0.430967	0.449560
H61	H	1.295053	0.432884	0.558860
H62	H	1.225298	0.532169	0.405261
H63	H	1.149894	0.388868	0.465869
O64	O	0.699001	0.410730	-0.000364
C65	C	0.662899	0.346218	-0.126553
H66	H	0.746552	0.280794	-0.168601
H67	H	0.582094	0.287076	-0.098196
H68	H	0.630856	0.418614	-0.214901
O69	O	0.883290	-0.044295	-0.000191
C70	C	0.750612	-0.023003	-0.000194
H71	H	0.720753	0.075793	-0.046316
H72	H	0.709739	-0.098111	-0.070934
H73	H	0.714059	-0.029475	0.116661
H74	H	1.508580	-0.426453	-0.243339
H75	H	1.509013	-0.205228	0.242515
H76	H	1.807977	-0.139423	0.638921
H77	H	1.129301	-0.019601	-0.000061
H78	H	1.296074	-0.180306	-0.099813
O79	O	1.279815	-0.405633	0.117813
C80	C	1.357081	-0.494578	0.201149
H81	H	1.460369	-0.482746	0.177483
H82	H	1.337279	-0.477620	0.322639
H83	H	1.336075	-0.595290	0.170716
H84	H	1.289998	-0.398125	-0.100399
H85	H	1.501268	-0.422569	0.243099
O86	O	1.285272	-0.173211	0.119021
C87	C	1.159071	-0.202699	0.112738
H88	H	1.152787	-0.290326	0.040905
H89	H	1.124795	-0.223056	0.227883
H90	H	1.097582	-0.118561	0.064349
O91	O	1.678002	-0.221389	0.145360
C92	C	1.735421	-0.278123	0.271480
H93	H	1.681725	-0.361217	0.307669
H94	H	1.837227	-0.314463	0.245576
H95	H	1.733744	-0.204567	0.363177
H96	H	1.505891	-0.207059	-0.242651
H97	H	1.654450	0.015774	0.221677
H98	H	1.654426	0.015708	0.778063
