data_functionalizedCrystal
_audit_creation_method	'MofGen! by Chris Wilmer'
_symmetry_space_group_name_H-M	'P1'
_symmetry_Int_Tables_number	1
_symmetry_cell_setting	triclinic
loop_
_symmetry_equiv_pos_as_xyz
  x,y,z
_cell_length_a	10.723023
_cell_length_b	10.723022
_cell_length_c	9.798715
_cell_angle_alpha	89.998341
_cell_angle_beta	90.003871
_cell_angle_gamma	95.532613
loop_
_atom_site_label
_atom_site_type_symbol
_atom_site_fract_x
_atom_site_fract_y
_atom_site_fract_z
O1	O	-1.657188	0.175019	-0.113483
O2	O	-1.157188	0.675019	0.386517
O3	O	-1.294035	0.191774	-0.113487
O4	O	-0.794035	0.691774	0.386513
O5	O	-1.483989	0.001820	-0.113480
O6	O	-0.983989	0.501820	0.386520
O7	O	-1.467234	0.364973	-0.113490
O8	O	-0.967234	0.864973	0.386510
O9	O	-1.483973	0.001821	0.113502
O10	O	-0.983973	0.501821	0.613502
O11	O	-1.294019	0.191774	0.113495
O12	O	-0.794019	0.691774	0.613495
O13	O	-1.657172	0.175020	0.113499
O14	O	-1.157172	0.675020	0.613499
Zn15	Zn	-1.475593	0.183397	0.149535
Zn16	Zn	-0.975593	0.683397	0.649535
Zn17	Zn	-1.475614	0.183396	-0.149523
Zn18	Zn	-0.975614	0.683396	0.350477
O19	O	-1.467218	0.364974	0.113492
O20	O	-0.967218	0.864974	0.613492
C21	C	-1.247528	0.190555	0.000004
C22	C	-0.747528	0.690555	0.500004
C23	C	-1.108973	0.186908	0.000003
C24	C	-0.608973	0.686908	0.500003
C25	C	-1.482762	-0.044679	0.000009
C26	C	-0.982762	0.455321	0.500009
C27	C	-1.479115	-0.183233	0.000005
C28	C	-0.979115	0.316767	0.500005
C29	C	-1.703679	0.176239	0.000005
C30	C	-1.203679	0.676239	0.500005
C31	C	-1.842234	0.179886	-0.000003
C32	C	-1.342234	0.679886	0.499997
C33	C	-1.047210	0.185281	-0.117581
C34	C	-0.547210	0.685281	0.382419
C35	C	-0.904007	0.181512	-0.117585
C36	C	-0.404007	0.681512	0.382415
C37	C	-1.581632	-0.401412	-0.000001
C38	C	-1.081632	0.098588	0.499999
C39	C	-1.585403	-0.258209	0.000004
C40	C	-1.085403	0.241791	0.500004
C41	C	-1.468445	0.411473	-0.000001
C42	C	-0.968445	0.911473	0.499999
C43	C	-1.472092	0.550027	-0.000005
C44	C	-0.972092	1.050027	0.499995
N45	N	-1.475588	0.183397	0.353635
N46	N	-0.975588	0.683397	0.853635
C47	C	-1.555540	0.103471	0.578570
C48	C	-1.055540	0.603471	1.078570
C49	C	-1.555525	0.103470	0.421407
C50	C	-1.055525	0.603470	0.921407
N51	N	-1.475619	0.183396	0.646377
N52	N	-0.975619	0.683396	1.146377
H53	H	-1.100348	0.186686	-0.218246
H54	H	-0.600348	0.686686	0.281754
H55	H	-1.623981	0.035047	0.636866
H56	H	-1.123981	0.535047	1.136866
H57	H	-1.055833	0.185516	0.100668
H58	H	-0.555833	0.685516	0.600668
H59	H	-1.407187	0.251829	0.588078
H60	H	-0.907187	0.751829	1.088078
Cl61	Cl	-1.661165	-0.002189	0.331385
Cl62	Cl	-1.161165	0.497811	0.831385
H63	H	-0.850892	0.180109	-0.218253
H64	H	-0.350892	0.680109	0.281747
H65	H	-1.672620	-0.465855	0.000006
H66	H	-1.172620	0.034145	0.500006
Cl67	Cl	-1.369931	0.289047	0.443649
Cl68	Cl	-0.869931	0.789047	0.943649
Cl69	Cl	-0.924226	0.182035	0.155435
Cl70	Cl	-0.424226	0.682035	0.655435
Cl71	Cl	-1.331604	-0.350488	0.000007
Cl72	Cl	-0.831604	0.149512	0.500007
H73	H	-1.679191	-0.216397	-0.000043
H74	H	-1.179191	0.283603	0.499957
Cl75	Cl	-1.334303	-0.247771	-0.000010
Cl76	Cl	-0.834303	0.252229	0.499990
