data_functionalizedCrystal
_audit_creation_method	'MofGen! by Chris Wilmer'
_symmetry_space_group_name_H-M	'P1'
_symmetry_Int_Tables_number	1
_symmetry_cell_setting	triclinic
loop_
_symmetry_equiv_pos_as_xyz
  x,y,z
_cell_length_a	18.215407
_cell_length_b	25.639240
_cell_length_c	18.215399
_cell_angle_alpha	89.960373
_cell_angle_beta	89.985195
_cell_angle_gamma	90.027271
loop_
_atom_site_label
_atom_site_type_symbol
_atom_site_fract_x
_atom_site_fract_y
_atom_site_fract_z
Zn1	Zn	1.125010	-0.208220	-0.416029
Zn2	Zn	1.124908	-0.295660	-0.292943
Zn3	Zn	1.001949	-0.208232	-0.292980
Zn4	Zn	1.001891	-0.295618	-0.415972
O5	O	1.063439	-0.251933	-0.354481
O6	O	1.227980	-0.219832	-0.399709
O7	O	1.108578	-0.284085	-0.189963
O8	O	1.018340	-0.135065	-0.309343
O9	O	1.227906	-0.284074	-0.309278
O10	O	1.108752	-0.135057	-0.399746
O11	O	1.018241	-0.219852	-0.189991
O12	O	0.898957	-0.219811	-0.309288
O13	O	1.018242	-0.284002	-0.518964
O14	O	0.898915	-0.284014	-0.399649
O15	O	1.108697	-0.219791	-0.519006
O16	O	1.108523	-0.368820	-0.309223
O17	O	1.018143	-0.368789	-0.399612
C18	C	0.872233	-0.251910	-0.354467
C19	C	0.790434	-0.251912	-0.354478
C20	C	1.063335	-0.387775	-0.354423
C21	C	1.063358	-0.445889	-0.354423
C22	C	0.525410	-0.218546	-0.401643
C23	C	0.602269	-0.218538	-0.401641
C24	C	0.602210	-0.285336	-0.307335
C25	C	0.525353	-0.285346	-0.307341
C26	C	0.486955	-0.251949	-0.354494
C27	C	0.640671	-0.251930	-0.354486
C28	C	0.724004	-0.251921	-0.354483
C29	C	0.403616	-0.251958	-0.354498
C30	C	1.110541	-0.806209	-0.401639
C31	C	1.110562	-0.860814	-0.401654
O32	O	1.150555	-0.889014	-0.441739
N33	N	1.063542	-0.888172	-0.354552
C34	C	1.016491	-0.860923	-0.307438
O35	O	0.976498	-0.889207	-0.267376
C36	C	1.016466	-0.806319	-0.307427
C37	C	1.063495	-0.778964	-0.354526
C38	C	1.157565	-0.778854	-0.448735
C39	C	1.157544	-0.724253	-0.448719
C40	C	1.110499	-0.697008	-0.401606
C41	C	1.063474	-0.724363	-0.354510
C42	C	0.969412	-0.779071	-0.260317
C43	C	0.969391	-0.724464	-0.260311
C44	C	1.016420	-0.697109	-0.307410
C45	C	1.016408	-0.642518	-0.307382
N46	N	1.063428	-0.615160	-0.354483
C47	C	1.110474	-0.642405	-0.401596
C48	C	1.016546	-0.975593	-0.307465
C49	C	1.016574	-1.030195	-0.307471
C50	C	1.110644	-1.030083	-0.401688
C51	C	1.110620	-0.975479	-0.401678
C52	C	1.063566	-0.948235	-0.354566
C53	C	1.110427	-0.527740	-0.401558
C54	C	1.110404	-0.473134	-0.401535
C55	C	1.016331	-0.473252	-0.307321
C56	C	1.016356	-0.527853	-0.307341
C57	C	1.063407	-0.555095	-0.354465
O58	O	0.976434	-0.614283	-0.267319
O59	O	1.150453	-0.614114	-0.441658
C60	C	1.255392	-0.251956	-0.354496
C61	C	1.337191	-0.251966	-0.354502
C62	C	1.063474	-0.251891	-0.546434
C63	C	1.063489	-0.251873	-0.628233
C64	C	1.063564	-0.115560	-0.354555
C65	C	1.063617	-0.057446	-0.354586
C66	C	1.016490	-0.218404	-0.816442
C67	C	1.016503	-0.218394	-0.893301
C68	C	1.110576	-0.285279	-0.893261
C69	C	1.110559	-0.285292	-0.816404
C70	C	1.063517	-0.251852	-0.777996
C71	C	1.063547	-0.251828	-0.931713
C72	C	1.063561	-0.251817	-1.015046
C73	C	1.063502	-0.251863	-0.694657
C74	C	1.063447	-0.251936	-0.163275
C75	C	1.063575	-0.251807	-0.081476
H76	H	0.494149	-0.191352	-0.440038
H77	H	0.978029	-0.451060	-0.268961
Br78	Br	1.174493	-1.067069	-0.465627
Br79	Br	0.473158	-0.330683	-0.243350
H80	H	0.978208	-0.191158	-0.924600
H81	H	1.148876	-0.312505	-0.924542
Br82	Br	1.174236	-0.436013	-0.465458
Br83	Br	0.654456	-0.173207	-0.465636
Br84	Br	0.654326	-0.330657	-0.243342
H85	H	0.978185	-0.191175	-0.785173
Br86	Br	1.174282	-0.564703	-0.465512
Br87	Br	0.952685	-0.938624	-0.243518
Br88	Br	1.221368	-0.687137	-0.512648
Br89	Br	1.174381	-0.330692	-0.764222
Br90	Br	0.952542	-0.564979	-0.243408
Br91	Br	0.905528	-0.687493	-0.196371
H92	H	1.195875	-0.801031	-0.487104
H93	H	0.978286	-1.052464	-0.269110
Br94	Br	1.174447	-0.938360	-0.465600
Br95	Br	0.905581	-0.816182	-0.196393
