data_functionalizedCrystal
_audit_creation_method	'MofGen! by Chris Wilmer'
_symmetry_space_group_name_H-M	'P1'
_symmetry_Int_Tables_number	1
_symmetry_cell_setting	triclinic
loop_
_symmetry_equiv_pos_as_xyz
  x,y,z
_cell_length_a	13.897449
_cell_length_b	19.077068
_cell_length_c	13.897441
_cell_angle_alpha	87.736015
_cell_angle_beta	90.020733
_cell_angle_gamma	92.328280
loop_
_atom_site_label
_atom_site_type_symbol
_atom_site_fract_x
_atom_site_fract_y
_atom_site_fract_z
Zn1	Zn	-1.459212	0.280154	-0.560773
Zn2	Zn	-1.452598	0.397865	-0.405941
Zn3	Zn	-1.297899	0.280188	-0.399493
Zn4	Zn	-1.291377	0.397818	-0.567191
O5	O	-1.375272	0.339006	-0.483349
O6	O	-1.593316	0.295774	-0.540246
O7	O	-1.432038	0.382288	-0.270106
O8	O	-1.324796	0.181693	-0.415502
O9	O	-1.588456	0.382255	-0.426492
O10	O	-1.443312	0.181668	-0.533994
O11	O	-1.318382	0.295831	-0.265368
O12	O	-1.162053	0.295787	-0.421726
O13	O	-1.313679	0.382177	-0.701319
O14	O	-1.157261	0.382209	-0.544933
O15	O	-1.436987	0.295729	-0.696604
O16	O	-1.425714	0.496349	-0.432716
O17	O	-1.307266	0.496315	-0.551185
C18	C	-1.124658	0.338997	-0.483327
C19	C	-1.017443	0.339010	-0.483341
C20	C	-1.365090	0.521870	-0.493368
C21	C	-1.360823	0.600100	-0.497686
C22	C	-1.626864	0.339016	-0.483372
C23	C	-1.734078	0.339021	-0.483382
C24	C	-0.821148	0.339012	-0.483366
C25	C	-0.930381	0.339009	-0.483349
C26	C	-1.375344	0.338944	-0.734939
C27	C	-1.375374	0.338918	-0.842151
C28	C	-1.385519	0.155429	-0.473313
C29	C	-1.389886	0.077199	-0.469036
C30	C	-1.420536	0.636847	-0.438085
C31	C	-1.416528	0.710352	-0.442152
C32	C	-1.352801	0.747109	-0.505816
C33	C	-1.293086	0.710357	-0.565423
C34	C	-1.297100	0.636853	-0.561360
C35	C	-1.334184	0.966943	-0.524580
C36	C	-1.330173	1.040452	-0.528637
C37	C	-1.453616	1.040442	-0.405366
C38	C	-1.457620	0.966936	-0.401305
C39	C	-1.397909	0.930191	-0.460916
N40	N	-1.348701	0.822243	-0.509973
N41	N	-1.402015	0.855058	-0.456763
C42	C	-1.375403	0.338870	-1.038444
C43	C	-1.375384	0.338898	-0.929213
C44	C	-1.375258	0.339018	-0.232736
C45	C	-1.375426	0.338846	-0.125513
H46	H	-1.472424	0.606924	-0.386239
C47	C	-1.231412	0.596432	-0.626927
N48	N	-1.181936	0.565988	-0.676316
C49	C	-1.482211	0.750770	-0.376580
N50	N	-1.531685	0.781213	-0.327186
C51	C	-1.527699	0.926509	-0.331245
N52	N	-1.580472	0.896059	-0.278463
H53	H	-1.285563	0.937030	-0.573116
H54	H	-1.502231	1.070368	-0.356836
C55	C	-1.260073	1.080883	-0.598681
N56	N	-1.207277	1.111336	-0.651437
C57	C	-1.222984	0.750792	-0.635451
N58	N	-1.170176	0.781248	-0.688194
