data_functionalizedCrystal
_audit_creation_method	'MofGen! by Chris Wilmer'
_symmetry_space_group_name_H-M	'P1'
_symmetry_Int_Tables_number	1
_symmetry_cell_setting	triclinic
loop_
_symmetry_equiv_pos_as_xyz
  x,y,z
_cell_length_a	14.971482
_cell_length_b	15.995292
_cell_length_c	13.448316
_cell_angle_alpha	89.996588
_cell_angle_beta	89.993798
_cell_angle_gamma	83.540612
loop_
_atom_site_label
_atom_site_type_symbol
_atom_site_fract_x
_atom_site_fract_y
_atom_site_fract_z
O1	O	1.186800	0.109105	-0.082672
O2	O	0.926382	0.122175	-0.082676
O3	O	1.063737	-0.006244	-0.082675
O4	O	1.049445	0.237524	-0.082672
O5	O	1.063720	-0.006252	0.082709
O6	O	0.926365	0.122167	0.082708
O7	O	1.186783	0.109097	0.082712
Cu8	Cu	1.056572	0.115631	0.097811
Cu9	Cu	1.056593	0.115641	-0.097775
O10	O	1.049428	0.237516	0.082711
C11	C	0.893049	0.121587	0.000016
C12	C	0.793755	0.119837	0.000014
C13	C	0.747102	0.119009	0.090166
C14	C	0.653805	0.117351	0.090167
C15	C	0.607163	0.116528	0.000015
C16	C	0.653823	0.117354	-0.090144
C17	C	0.747118	0.119006	-0.090144
C18	C	0.459366	0.113913	-0.090138
C19	C	0.366064	0.112263	-0.090138
C20	C	0.366053	0.112259	0.090173
C21	C	0.459348	0.113910	0.090173
C22	C	0.506001	0.114738	0.000014
C23	C	1.063147	-0.037444	0.000014
C24	C	1.061403	-0.130399	0.000007
C25	C	1.054992	-0.468144	0.000016
C26	C	1.154131	-0.444733	0.000387
C27	C	1.156016	-0.348056	0.000010
C28	C	1.058173	-0.300585	0.000012
C29	C	1.008618	-0.329730	-0.094428
C30	C	1.007425	-0.426522	-0.094504
C31	C	1.005381	-0.426390	0.093569
C32	C	1.009054	-0.329894	0.094813
C33	C	1.059966	-0.205887	0.000006
C34	C	1.053197	-0.562841	0.000015
C35	C	1.220116	0.109685	0.000019
C36	C	1.319411	0.111435	0.000014
C37	C	1.050018	0.268716	0.000020
C38	C	1.051762	0.361671	0.000021
N39	N	1.056565	0.115624	0.235375
N40	N	1.056608	0.115641	-0.235339
C41	C	1.117404	0.058784	0.287416
C42	C	1.117410	0.058783	0.391519
C43	C	1.056579	0.115627	0.443580
C44	C	0.995733	0.172471	0.391532
C45	C	0.995724	0.172467	0.287431
C46	C	0.995758	0.172476	0.608512
C47	C	0.995768	0.172482	0.712620
C48	C	1.117444	0.058792	0.712600
C49	C	1.117435	0.058788	0.608499
C50	C	1.056589	0.115633	0.556458
H51	H	1.192337	-0.472696	0.068114
O52	O	0.608368	0.116650	0.177673
C53	C	0.544255	0.188160	0.183082
H54	H	0.526904	0.212079	0.104808
H55	H	0.573087	0.239536	0.227581
C56	C	0.480026	0.135185	0.330749
C57	C	0.458709	0.164558	0.234612
H58	H	0.427257	0.120628	0.362540
H59	H	0.523221	0.087009	0.327109
H60	H	0.504053	0.178004	0.367819
H61	H	0.434692	0.121736	0.197540
H62	H	0.415507	0.212727	0.238248
O63	O	0.936580	0.227719	0.763040
C64	C	0.882879	0.277895	0.694788
H65	H	0.881882	0.243566	0.620581
H66	H	0.911880	0.340154	0.683710
C67	C	0.787613	0.337139	0.826581
C68	C	0.786383	0.294972	0.735441
H69	H	0.728091	0.347676	0.851659
H70	H	0.823794	0.303337	0.872565
H71	H	0.811785	0.389017	0.817337
H72	H	0.762222	0.243091	0.744689
H73	H	0.750195	0.328766	0.689460
H74	H	0.328090	0.111594	-0.163547
H75	H	0.936619	-0.297933	-0.097938
H76	H	1.036594	-0.454451	0.165154
O77	O	0.936777	0.227730	0.557848
C78	C	0.984660	0.279471	0.497632
H79	H	1.054656	0.246227	0.482027
H80	H	0.990724	0.341367	0.537742
C81	C	0.848252	0.338118	0.417921
C82	C	0.934219	0.297284	0.398747
H83	H	0.817137	0.349110	0.356926
H84	H	0.815991	0.303262	0.458491
H85	H	0.853317	0.389694	0.451348
H86	H	0.929153	0.245705	0.365332
H87	H	0.966478	0.332132	0.358169
H88	H	1.045138	-0.311296	0.164679
H89	H	0.785070	0.119686	0.163578
H90	H	0.937639	-0.296995	0.100518
O91	O	0.608580	0.116410	-0.177745
C92	C	0.641546	0.044366	-0.232607
H93	H	0.674278	-0.005834	-0.179860
H94	H	0.693414	0.061710	-0.288816
C95	C	0.523074	0.071711	-0.352642
C96	C	0.563269	0.010051	-0.287856
H97	H	0.474791	0.050545	-0.386726
H98	H	0.500865	0.120250	-0.315683
H99	H	0.566305	0.086158	-0.399473
H100	H	0.520041	-0.004388	-0.241018
H101	H	0.585469	-0.038491	-0.324808
O102	O	0.504638	0.114562	0.177771
C103	C	0.491971	0.041704	0.232629
H104	H	0.473422	-0.009395	0.179881
H105	H	0.435519	0.057126	0.288846
C106	C	0.602231	0.073073	0.352653
C107	C	0.579456	0.010310	0.287866
H108	H	0.656193	0.053709	0.386730
H109	H	0.610762	0.122161	0.315697
H110	H	0.555181	0.085919	0.399492
H111	H	0.626501	-0.002527	0.241022
H112	H	0.570934	-0.038780	0.324816
H113	H	0.946199	0.218752	0.433926
O114	O	1.202434	-0.325384	0.080716
C115	C	1.291069	-0.365786	0.077138
H116	H	1.309276	-0.383656	-0.002988
H117	H	1.296202	-0.424973	0.124981
C118	C	1.333999	-0.283882	0.215248
C119	C	1.356364	-0.305823	0.116835
H120	H	1.374276	-0.246896	0.239739
H121	H	1.274283	-0.256664	0.217662
H122	H	1.338276	-0.333210	0.255105
H123	H	1.352075	-0.256497	0.076978
H124	H	1.416081	-0.333031	0.114415
H125	H	0.946181	0.218751	0.245060
O126	O	0.504770	0.114834	-0.177653
C127	C	0.548564	0.188263	-0.183050
H128	H	0.559145	0.212662	-0.104772
H129	H	0.505504	0.238371	-0.227537
C130	C	0.627280	0.137862	-0.330731
C131	C	0.640283	0.167824	-0.234589
H132	H	0.683855	0.125256	-0.362527
H133	H	0.597773	0.088392	-0.327098
H134	H	0.591394	0.179623	-0.367791
H135	H	0.676159	0.126059	-0.197527
H136	H	0.669798	0.217287	-0.238217
H137	H	0.785102	0.119682	-0.163555
H138	H	1.043045	-0.309632	-0.164711
H139	H	1.192139	-0.473710	-0.066959
O140	O	0.320726	0.111293	0.177733
C141	C	0.276904	0.037880	0.183118
H142	H	0.312120	-0.012262	0.131951
H143	H	0.203901	0.053005	0.158908
C144	C	0.236828	0.066572	0.353669
C145	C	0.280085	0.004985	0.290831
H146	H	0.238786	0.046282	0.420111
H147	H	0.266348	0.116034	0.350040
H148	H	0.175995	0.079171	0.333481
H149	H	0.340919	-0.007605	0.311011
H150	H	0.250575	-0.044480	0.294466
H151	H	1.195069	-0.329609	-0.067805
H152	H	1.041759	-0.453301	-0.165100
O153	O	0.920707	-0.443935	-0.099810
C154	C	0.881071	-0.409382	-0.187919
H155	H	0.935859	-0.400642	-0.244624
H156	H	0.841591	-0.345845	-0.170857
C157	C	0.749803	-0.480007	-0.160967
C158	C	0.817094	-0.469279	-0.230616
H159	H	0.710335	-0.516951	-0.187303
H160	H	0.776504	-0.503284	-0.101604
H161	H	0.716913	-0.427055	-0.146754
H162	H	0.849989	-0.522228	-0.244817
H163	H	0.790396	-0.446012	-0.289982
H164	H	0.932407	-0.440453	0.094206
H165	H	1.166943	0.012498	0.245035
H166	H	1.166949	0.012498	0.433890
H167	H	1.166972	0.012506	0.566111
O168	O	1.176514	0.003456	0.763035
C169	C	1.161991	-0.079459	0.737625
H170	H	1.127505	-0.079411	0.662051
H171	H	1.117490	-0.105428	0.796229
C172	C	1.295183	-0.135072	0.825615
C173	C	1.252834	-0.135015	0.732789
H174	H	1.351218	-0.169344	0.822635
H175	H	1.304966	-0.079212	0.842737
H176	H	1.258090	-0.156711	0.874442
H177	H	1.289922	-0.113366	0.683966
H178	H	1.243059	-0.190874	0.715658
