data_functionalizedCrystal
_audit_creation_method	'MofGen! by Chris Wilmer'
_symmetry_space_group_name_H-M	'P1'
_symmetry_Int_Tables_number	1
_symmetry_cell_setting	triclinic
loop_
_symmetry_equiv_pos_as_xyz
  x,y,z
_cell_length_a	16.120530
_cell_length_b	16.120484
_cell_length_c	16.120297
_cell_angle_alpha	95.614431
_cell_angle_beta	90.128140
_cell_angle_gamma	90.167327
loop_
_atom_site_label
_atom_site_type_symbol
_atom_site_fract_x
_atom_site_fract_y
_atom_site_fract_z
Zn1	Zn	1.224987	-0.422264	-0.554813
Zn2	Zn	1.558320	-0.088931	-0.221480
Zn3	Zn	1.891654	0.244402	0.111853
Zn4	Zn	1.224883	-0.554948	-0.422118
Zn5	Zn	1.558216	-0.221615	-0.088785
Zn6	Zn	1.891549	0.111718	0.244548
Zn7	Zn	1.093726	-0.408180	-0.408056
Zn8	Zn	1.427060	-0.074847	-0.074723
Zn9	Zn	1.760393	0.258487	0.258611
Zn10	Zn	1.078880	-0.554181	-0.554051
Zn11	Zn	1.412213	-0.220848	-0.220717
Zn12	Zn	1.745547	0.112486	0.112616
O13	O	1.155619	-0.484893	-0.484760
O14	O	1.488952	-0.151560	-0.151426
O15	O	1.822286	0.181773	0.181907
O16	O	1.341009	-0.446081	-0.543415
O17	O	1.674342	-0.112747	-0.210082
O18	O	2.007676	0.220586	0.123251
O19	O	1.213654	-0.529906	-0.303620
O20	O	1.546987	-0.196573	0.029713
O21	O	1.880321	0.136760	0.363047
O22	O	1.117395	-0.293418	-0.421958
O23	O	1.450729	0.039916	-0.088624
O24	O	1.784062	0.373249	0.244709
O25	O	1.340932	-0.543563	-0.445925
O26	O	1.674266	-0.210230	-0.112591
O27	O	2.007599	0.123104	0.220742
O28	O	1.213832	-0.303765	-0.529780
O29	O	1.547166	0.029568	-0.196446
O30	O	1.880499	0.362901	0.136887
O31	O	1.117294	-0.422076	-0.293289
O32	O	1.450627	-0.088743	0.040045
O33	O	1.783961	0.244591	0.373378
O34	O	0.975721	-0.421332	-0.421218
O35	O	1.309055	-0.087998	-0.087885
O36	O	1.642388	0.245335	0.245448
O37	O	1.092092	-0.542255	-0.670785
O38	O	1.425425	-0.208922	-0.337451
O39	O	1.758758	0.124412	-0.004118
O40	O	0.964814	-0.528598	-0.528480
O41	O	1.298147	-0.195265	-0.195147
O42	O	1.631480	0.138069	0.138187
O43	O	1.199436	-0.445336	-0.671345
O44	O	1.532769	-0.112003	-0.338011
O45	O	1.866103	0.221330	-0.004678
O46	O	1.199258	-0.671477	-0.445185
O47	O	1.532591	-0.338144	-0.111852
O48	O	1.865925	-0.004811	0.221481
O49	O	1.091990	-0.670913	-0.542116
O50	O	1.425324	-0.337580	-0.208782
O51	O	1.758657	-0.004247	0.124551
C52	C	0.940181	-0.473354	-0.473241
C53	C	1.273514	-0.140021	-0.139908
C54	C	1.606847	0.193313	0.193426
C55	C	0.848013	-0.468438	-0.468334
C56	C	1.181346	-0.135105	-0.135001
C57	C	1.514680	0.198228	0.198333
C58	C	1.144023	-0.701438	-0.495113
C59	C	1.477357	-0.368105	-0.161780
C60	C	1.810690	-0.034772	0.171554
C61	C	1.139137	-0.794083	-0.499574
C62	C	1.472470	-0.460749	-0.166241
C63	C	1.805804	-0.127416	0.167093
C64	C	0.679262	-0.459445	-0.459381
C65	C	1.012595	-0.126111	-0.126048
C66	C	1.345928	0.207222	0.207285
C67	C	0.632810	-0.510407	-0.510202
C68	C	0.966144	-0.177073	-0.176868
C69	C	1.299477	0.156260	0.156465
C70	C	0.538911	-0.505403	-0.505220
C71	C	0.872245	-0.172069	-0.171887
C72	C	1.205578	0.161264	0.161446
C73	C	0.773169	-0.464448	-0.464361
C74	C	1.106503	-0.131114	-0.131028
C75	C	1.439836	0.202219	0.202305
C76	C	1.130220	-0.963706	-0.507736
C77	C	1.463553	-0.630372	-0.174403
C78	C	1.796887	-0.297039	0.158930
C79	C	1.181166	-1.005249	-0.461804
C80	C	1.514499	-0.671916	-0.128471
C81	C	1.847833	-0.338583	0.204862
C82	C	1.176204	-1.099633	-0.466346
C83	C	1.509538	-0.766300	-0.133012
C84	C	1.842871	-0.432967	0.200321
C85	C	1.135180	-0.869313	-0.503196
C86	C	1.468514	-0.535980	-0.169863
C87	C	1.801847	-0.202646	0.163471
C88	C	1.371899	-0.496479	-0.496324
C89	C	1.705232	-0.163145	-0.162990
C90	C	2.038565	0.170188	0.170343
C91	C	1.464064	-0.501416	-0.501252
C92	C	1.797398	-0.168082	-0.167918
C93	C	2.130731	0.165251	0.165415
C94	C	1.144119	-0.495281	-0.702152
C95	C	1.477453	-0.161948	-0.368818
C96	C	1.810786	0.171386	-0.035485
C97	C	1.139219	-0.499708	-0.794791
C98	C	1.472552	-0.166374	-0.461458
C99	C	1.805886	0.166959	-0.128125
C100	C	1.167282	-0.267505	-0.474385
C101	C	1.500615	0.065828	-0.141052
C102	C	1.833948	0.399162	0.192282
C103	C	1.172251	-0.174867	-0.469964
C104	C	1.505585	0.158466	-0.136631
C105	C	1.838918	0.491800	0.196703
C106	C	1.130243	-0.507770	-0.964403
C107	C	1.463576	-0.174436	-0.631069
C108	C	1.796909	0.158897	-0.297736
C109	C	1.181172	-0.461776	-1.005965
C110	C	1.514505	-0.128443	-0.672632
C111	C	1.847839	0.204890	-0.339298
C112	C	1.176177	-0.466262	-1.100342
C113	C	1.509511	-0.132929	-0.767009
C114	C	1.842844	0.200405	-0.433676
C115	C	1.135236	-0.503285	-0.870017
C116	C	1.468569	-0.169952	-0.536683
C117	C	1.801903	0.163382	-0.203350
C118	C	1.167125	-0.474489	-0.268213
C119	C	1.500458	-0.141155	0.065121
C120	C	1.833791	0.192178	0.398454
C121	C	1.172198	-0.469836	-0.175571
C122	C	1.505532	-0.136502	0.157763
C123	C	1.838865	0.196831	0.491096
H124	H	0.663563	-0.557794	-0.557453
H125	H	0.996896	-0.224461	-0.224119
H126	H	1.330230	0.108873	0.109214
C127	C	0.637723	-0.395438	-0.395548
C128	C	0.971057	-0.062105	-0.062214
C129	C	1.304390	0.271228	0.271119
H130	H	0.579147	-0.400440	-0.400528
H131	H	0.912480	-0.067107	-0.067195
H132	H	1.245814	0.266227	0.266138
H133	H	0.654213	-0.340780	-0.405885
H134	H	0.987546	-0.007446	-0.072551
H135	H	1.320880	0.325887	0.260782
H136	H	0.654168	-0.405624	-0.340841
H137	H	0.987501	-0.072290	-0.007507
H138	H	1.320834	0.261043	0.325826
C139	C	1.066264	-1.011407	-0.565461
C140	C	1.399597	-0.678074	-0.232128
C141	C	1.732931	-0.344740	0.101205
H142	H	1.034951	-0.972932	-0.593689
H143	H	1.368285	-0.639599	-0.260355
H144	H	1.701618	-0.306266	0.072978
H145	H	1.030101	-1.041962	-0.533219
H146	H	1.363434	-0.708628	-0.199886
H147	H	1.696768	-0.375295	0.133447
H148	H	1.094289	-1.048755	-0.605100
H149	H	1.427622	-0.715422	-0.271767
H150	H	1.760955	-0.382089	0.061567
C151	C	1.245119	-0.957547	-0.404067
C152	C	1.578452	-0.624214	-0.070734
C153	C	1.911786	-0.290880	0.262600
H154	H	1.276434	-0.996026	-0.375847
H155	H	1.609767	-0.662693	-0.042514
H156	H	1.943100	-0.329360	0.290819
H157	H	1.217095	-0.920199	-0.364434
H158	H	1.550429	-0.586865	-0.031101
H159	H	1.883762	-0.253532	0.302232
H160	H	1.281293	-0.926993	-0.436306
H161	H	1.614626	-0.593660	-0.102973
H162	H	1.947959	-0.260327	0.230360
C163	C	1.245147	-0.404038	-0.958288
C164	C	1.578481	-0.070704	-0.624955
C165	C	1.911814	0.262629	-0.291621
H166	H	1.240161	-0.408565	-0.900191
H167	H	1.573494	-0.075232	-0.566858
H168	H	1.906827	0.258101	-0.233525
H169	H	1.235288	-0.348049	-0.969171
H170	H	1.568621	-0.014716	-0.635838
H171	H	1.901954	0.318618	-0.302505
H172	H	1.299469	-0.419895	-0.976078
H173	H	1.632802	-0.086562	-0.642745
H174	H	1.966135	0.246772	-0.309411
C175	C	1.066284	-0.565518	-1.012081
C176	C	1.399617	-0.232185	-0.678747
C177	C	1.732951	0.101149	-0.345414
H178	H	1.071286	-0.560999	-1.070178
H179	H	1.404619	-0.227666	-0.736844
H180	H	1.737952	0.105668	-0.403511
H181	H	1.011959	-0.549684	-0.994300
H182	H	1.345292	-0.216351	-0.660966
H183	H	1.678626	0.116983	-0.327633
H184	H	1.076165	-0.621507	-1.001196
H185	H	1.409498	-0.288174	-0.667863
H186	H	1.742832	0.045159	-0.334529
