data_functionalizedCrystal
_audit_creation_method	'MofGen! by Chris Wilmer'
_symmetry_space_group_name_H-M	'P1'
_symmetry_Int_Tables_number	1
_symmetry_cell_setting	triclinic
loop_
_symmetry_equiv_pos_as_xyz
  x,y,z
_cell_length_a	16.109301
_cell_length_b	13.339070
_cell_length_c	14.586319
_cell_angle_alpha	89.998714
_cell_angle_beta	89.999213
_cell_angle_gamma	99.545388
loop_
_atom_site_label
_atom_site_type_symbol
_atom_site_fract_x
_atom_site_fract_y
_atom_site_fract_z
O1	O	1.133153	0.130021	-0.076178
O2	O	0.894827	0.146201	-0.076192
O3	O	0.986638	-0.009144	-0.076184
O4	O	1.041342	0.285365	-0.076186
O5	O	0.986629	-0.009146	0.076297
O6	O	0.894818	0.146199	0.076289
O7	O	1.133144	0.130018	0.076303
Cu8	Cu	1.013980	0.138108	0.090219
Cu9	Cu	1.013991	0.138111	-0.090107
O10	O	1.041333	0.285363	0.076295
C11	C	0.863697	0.145545	0.000047
C12	C	0.770947	0.143580	0.000041
C13	C	0.568905	0.231189	0.000051
C14	C	0.481756	0.229335	0.000057
C15	C	0.459072	0.045023	0.000055
C16	C	0.546219	0.046879	0.000055
C17	C	0.601133	0.139965	0.000049
C18	C	0.426838	0.136255	0.000054
C19	C	0.332347	0.134244	0.000061
C20	C	0.695630	0.141976	0.000044
C21	C	0.977393	-0.046831	0.000055
C22	C	0.949849	-0.159124	0.000050
C23	C	1.164017	-0.523987	0.000063
C24	C	1.189898	-0.418483	0.000073
C25	C	1.129888	-0.353638	0.000067
C26	C	1.043992	-0.394307	0.000051
C27	C	1.018108	-0.499822	0.000048
C28	C	0.983979	-0.329473	0.000052
C29	C	0.898083	-0.370142	0.000037
C30	C	0.872203	-0.475647	0.000033
C31	C	0.932213	-0.540492	0.000039
C32	C	1.009863	-0.223958	0.000055
C33	C	0.863954	-0.199793	0.000041
C34	C	0.838073	-0.305297	0.000030
C35	C	1.164275	0.130675	0.000063
C36	C	1.257024	0.132640	0.000062
C37	C	1.050578	0.323050	0.000054
C38	C	1.078122	0.435343	0.000054
N39	N	1.013978	0.138106	0.217051
N40	N	1.013998	0.138106	-0.216939
C41	C	1.054656	0.069342	0.452061
C42	C	1.054658	0.069340	0.548042
C43	C	0.973315	0.206873	0.548044
C44	C	0.973308	0.206870	0.452065
C45	C	1.013984	0.138105	0.404075
C46	C	1.013992	0.138106	0.596036
C47	C	1.013994	0.138104	0.700103
C48	C	1.013981	0.138106	0.300002
H49	H	0.455520	0.303619	0.000061
H50	H	0.613614	0.306986	0.000053
O51	O	1.093272	-0.184338	-0.000059
C52	C	1.112622	-0.124050	-0.079040
H53	H	1.053163	-0.097746	-0.105373
H54	H	1.161700	-0.054973	-0.061276
H55	H	1.138650	-0.170676	-0.134337
O56	O	0.933874	0.273809	0.594559
C57	C	0.970497	0.373949	0.571114
H58	H	1.002514	0.373832	0.501425
H59	H	0.919489	0.423741	0.567829
H60	H	1.019100	0.405251	0.625128
O61	O	1.094235	0.002684	0.594755
C62	C	1.158040	0.056875	0.650253
H63	H	1.143183	0.136018	0.664633
H64	H	1.161457	0.014657	0.717745
H65	H	1.221072	0.063772	0.613258
H66	H	0.414350	-0.030764	0.000066
H67	H	0.572459	-0.027412	0.000056
O68	O	0.933923	0.273717	0.405346
C69	C	0.992848	0.336150	0.349837
H70	H	1.048612	0.295881	0.335458
H71	H	0.961833	0.352138	0.282346
H72	H	1.015744	0.410915	0.386821
O73	O	0.906965	-0.642964	0.000148
C74	C	0.858311	-0.671603	0.079124
H75	H	0.830628	-0.603748	0.105461
H76	H	0.805132	-0.736243	0.061351
H77	H	0.899829	-0.697976	0.134421
H78	H	1.150966	-0.267732	0.000075
H79	H	0.802261	-0.508756	0.000027
H80	H	1.259835	-0.385378	0.000087
H81	H	1.212868	-0.576792	0.000075
O82	O	0.754660	-0.344930	-0.000101
C83	C	0.735332	-0.405212	-0.079087
H84	H	0.794800	-0.431501	-0.105410
H85	H	0.686258	-0.474298	-0.061333
H86	H	0.709307	-0.358586	-0.134387
H87	H	0.815089	-0.146996	0.000040
O88	O	1.094169	0.002444	0.405585
C89	C	1.130083	-0.058232	0.468525
H90	H	1.095736	-0.059381	0.536945
H91	H	1.124129	-0.139013	0.440798
H92	H	1.199425	-0.025368	0.478726
