data_functionalizedCrystal
_audit_creation_method	'MofGen! by Chris Wilmer'
_symmetry_space_group_name_H-M	'P1'
_symmetry_Int_Tables_number	1
_symmetry_cell_setting	triclinic
loop_
_symmetry_equiv_pos_as_xyz
  x,y,z
_cell_length_a	15.944551
_cell_length_b	15.944480
_cell_length_c	13.101039
_cell_angle_alpha	93.356021
_cell_angle_beta	86.632575
_cell_angle_gamma	83.484293
loop_
_atom_site_label
_atom_site_type_symbol
_atom_site_fract_x
_atom_site_fract_y
_atom_site_fract_z
O1	O	-0.103414	-1.119180	-0.085182
O2	O	0.229919	-0.785847	0.248152
O3	O	0.563253	-0.452513	0.581485
O4	O	-0.116832	-0.874623	-0.085187
O5	O	0.216501	-0.541289	0.248146
O6	O	0.549835	-0.207956	0.581479
O7	O	0.012154	-1.003580	-0.085190
O8	O	0.345487	-0.670247	0.248143
O9	O	0.678820	-0.336913	0.581476
O10	O	-0.232400	-0.990223	-0.085179
O11	O	0.100933	-0.656889	0.248155
O12	O	0.434267	-0.323556	0.581488
O13	O	0.002884	-0.994327	0.085240
O14	O	0.336217	-0.660994	0.418573
O15	O	0.669551	-0.327661	0.751906
O16	O	-0.126102	-0.865370	0.085243
O17	O	0.207231	-0.532037	0.418576
O18	O	0.540565	-0.198703	0.751910
O19	O	-0.112684	-1.109928	0.085248
O20	O	0.220649	-0.776594	0.418582
O21	O	0.553983	-0.443261	0.751915
Zn22	Zn	-0.120865	-0.986180	0.112305
Zn23	Zn	0.212469	-0.652846	0.445638
Zn24	Zn	0.545802	-0.319513	0.778972
Zn25	Zn	-0.108651	-0.998370	-0.112244
Zn26	Zn	0.224682	-0.665037	0.221089
Zn27	Zn	0.558015	-0.331704	0.554423
O28	O	-0.241670	-0.980970	0.085251
O29	O	0.091664	-0.647637	0.418585
O30	O	0.424997	-0.314303	0.751918
C31	C	-0.120920	-0.838701	0.000027
C32	C	0.212413	-0.505368	0.333360
C33	C	0.545746	-0.172035	0.666694
C34	C	-0.119282	-0.745452	0.000024
C35	C	0.214052	-0.412119	0.333358
C36	C	0.547385	-0.078786	0.666691
C37	C	-0.195213	-0.509691	0.000025
C38	C	0.138120	-0.176358	0.333359
C39	C	0.471454	0.156976	0.666692
C40	C	-0.158845	-0.454570	0.084058
C41	C	0.174488	-0.121237	0.417392
C42	C	0.507822	0.212096	0.750725
C43	C	-0.116245	-0.574730	0.000025
C44	C	0.217088	-0.241397	0.333358
C45	C	0.550421	0.091936	0.666692
C46	C	-0.149687	-0.463697	-0.083972
C47	C	0.183646	-0.130364	0.249361
C48	C	0.516980	0.202970	0.582694
C49	C	-0.113318	-0.409820	0.000021
C50	C	0.220015	-0.076487	0.333354
C51	C	0.553348	0.256847	0.666688
C52	C	-0.079903	-0.520834	0.084127
C53	C	0.253431	-0.187501	0.417461
C54	C	0.586764	0.145833	0.750794
C55	C	-0.070752	-0.529968	-0.083979
C56	C	0.262581	-0.196635	0.249354
C57	C	0.595915	0.136698	0.582688
C58	C	-0.034327	-0.474879	0.000075
C59	C	0.299006	-0.141546	0.333408
C60	C	0.632340	0.191787	0.666741
C61	C	-0.117934	-0.669731	0.000028
C62	C	0.215399	-0.336397	0.333361
C63	C	0.548733	-0.003064	0.666695
C64	C	-0.111624	-0.314822	0.000025
C65	C	0.221710	0.018511	0.333358
C66	C	0.555043	0.351845	0.666692
C67	C	-0.268329	-0.986151	0.000038
C68	C	0.065005	-0.652817	0.333371
C69	C	0.398338	-0.319484	0.666705
C70	C	-0.361575	-0.987813	0.000042
C71	C	-0.028241	-0.654480	0.333376
C72	C	0.305092	-0.321146	0.666709
C73	C	-0.576409	-1.071721	0.000029
C74	C	-0.243076	-0.738387	0.333362
C75	C	0.090257	-0.405054	0.666695
C76	C	-0.642006	-1.028195	0.084060
C77	C	-0.308673	-0.694862	0.417393
C78	C	0.024661	-0.361528	0.750726
C79	C	-0.532299	-0.990821	0.000033
C80	C	-0.198966	-0.657487	0.333367
C81	C	0.134367	-0.324154	0.666700
C82	C	-0.632852	-1.037298	-0.083971
C83	C	-0.299519	-0.703965	0.249362
C84	C	0.033815	-0.370632	0.582696
C85	C	-0.697210	-0.993732	0.000020
C86	C	-0.363877	-0.660399	0.333353
C87	C	-0.030544	-0.327066	0.666687
C88	C	-0.596671	-0.947269	0.084134
C89	C	-0.263338	-0.613936	0.417467
C90	C	0.069995	-0.280602	0.750800
C91	C	-0.587507	-0.956388	-0.083973
C92	C	-0.254174	-0.623054	0.249361
C93	C	0.079159	-0.289721	0.582694
C94	C	-0.653087	-0.912802	0.000079
C95	C	-0.319754	-0.579469	0.333412
C96	C	0.013579	-0.246135	0.666746
C97	C	-0.437298	-0.989146	0.000042
C98	C	-0.103965	-0.655812	0.333375
C99	C	0.229369	-0.322479	0.666708
C100	C	-0.792211	-0.995401	0.000019
C101	C	-0.458878	-0.662067	0.333352
C102	C	-0.125544	-0.328734	0.666686
C103	C	0.038813	-0.998399	0.000021
C104	C	0.372146	-0.665066	0.333354
C105	C	0.705479	-0.331733	0.666688
C106	C	0.132059	-0.996738	0.000010
C107	C	0.465392	-0.663404	0.333343
C108	C	0.798726	-0.330071	0.666677
N109	N	-0.129200	-0.977866	0.265554
N110	N	0.204134	-0.644533	0.598887
N111	N	0.537467	-0.311199	0.932220
C112	C	-0.108607	-0.145847	0.000030
C113	C	0.224726	0.187486	0.333363
C114	C	0.558060	0.520819	0.666697
C115	C	-0.110279	-0.239093	0.000020
C116	C	0.223054	0.094241	0.333354
C117	C	0.556388	0.427574	0.666687
N118	N	-0.100310	-1.006691	-0.265493
N119	N	0.233024	-0.673357	0.067841
N120	N	0.566357	-0.340024	0.401174
C121	C	-0.140547	-0.966555	0.474597
C122	C	0.192786	-0.633222	0.807930
C123	C	0.526119	-0.299888	1.141263
C124	C	-0.088965	-1.017999	0.525471
C125	C	0.244368	-0.684666	0.858804
C126	C	0.577702	-0.351332	1.192138
C127	C	-0.095279	-1.011705	0.641790
C128	C	0.238054	-0.678372	0.975123
C129	C	0.571388	-0.345039	1.308456
C130	C	-0.134234	-0.972848	0.358268
C131	C	0.199099	-0.639514	0.691601
C132	C	0.532432	-0.306181	1.024934
H133	H	-0.263236	-0.525310	0.000107
H134	H	0.070097	-0.191977	0.333441
H135	H	0.403431	0.141356	0.666774
Br136	Br	-0.007811	-1.099640	0.452470
Br137	Br	0.325522	-0.766306	0.785803
Br138	Br	0.658856	-0.432973	1.119136
H139	H	-0.196059	-0.421776	0.155104
H140	H	0.137275	-0.088442	0.488438
H141	H	0.470608	0.244891	0.821771
Br142	Br	-0.030798	-0.562441	0.202658
Br143	Br	0.302535	-0.229108	0.535992
Br144	Br	0.635868	0.104226	0.869325
Br145	Br	-0.520873	-1.183634	0.000162
Br146	Br	-0.187540	-0.850301	0.333496
Br147	Br	0.145794	-0.516968	0.666829
Br148	Br	-0.681954	-1.078797	0.202465
Br149	Br	-0.348621	-0.745464	0.535799
Br150	Br	-0.015287	-0.412131	0.869132
H151	H	-0.563523	-0.926056	-0.155020
H152	H	-0.230189	-0.592723	0.178314
H153	H	0.103144	-0.259390	0.511647
H154	H	-0.580557	-0.909217	0.155252
H155	H	-0.247224	-0.575884	0.488585
H156	H	0.086109	-0.242551	0.821919
Br157	Br	-0.708378	-0.800776	0.000140
Br158	Br	-0.375045	-0.467443	0.333473
Br159	Br	-0.041712	-0.134109	0.666806
H160	H	-0.649069	-1.075387	-0.155009
H161	H	-0.315736	-0.742054	0.178325
H162	H	0.017597	-0.408721	0.511658
H163	H	0.033741	-0.459411	0.000120
H164	H	0.367074	-0.126078	0.333453
H165	H	0.700407	0.207256	0.666786
H166	H	-0.189447	-0.917790	0.518395
H167	H	0.143886	-0.584456	0.851728
H168	H	0.477219	-0.251123	1.185062
H169	H	-0.179189	-0.438615	-0.155006
H170	H	0.154145	-0.105281	0.178327
H171	H	0.487478	0.228052	0.511661
Br172	Br	-0.008776	-0.584659	-0.202400
Br173	Br	0.324557	-0.251326	0.130933
Br174	Br	0.657890	0.082008	0.464267
