data_functionalizedCrystal
_audit_creation_method	'MofGen! by Chris Wilmer'
_symmetry_space_group_name_H-M	'P1'
_symmetry_Int_Tables_number	1
_symmetry_cell_setting	triclinic
loop_
_symmetry_equiv_pos_as_xyz
  x,y,z
_cell_length_a	14.971475
_cell_length_b	16.098546
_cell_length_c	14.971494
_cell_angle_alpha	87.259638
_cell_angle_beta	96.386382
_cell_angle_gamma	87.272204
loop_
_atom_site_label
_atom_site_type_symbol
_atom_site_fract_x
_atom_site_fract_y
_atom_site_fract_z
O1	O	-1.190938	0.069236	0.112509
O2	O	-0.930537	0.069241	0.126478
O3	O	-1.067713	0.069236	-0.010706
O4	O	-1.053762	0.069240	0.249693
O5	O	-1.059731	-0.069276	-0.002695
O6	O	-0.922555	-0.069272	0.134489
O7	O	-1.182956	-0.069277	0.120520
Zn8	Zn	-1.051488	-0.091266	0.128777
Zn9	Zn	-1.062005	0.091230	0.118222
O10	O	-1.045780	-0.069272	0.257704
C11	C	-0.893221	-0.000015	0.129861
C12	C	-0.793924	-0.000013	0.127994
N13	N	-1.044317	-0.215815	0.135979
C14	C	-1.010946	-0.740633	0.169224
C15	C	-1.015982	-0.653444	0.164202
C16	C	-1.079260	-0.609845	0.100972
C17	C	-1.137500	-0.653439	0.042754
C18	C	-1.132459	-0.740627	0.047772
C19	C	-1.097516	-0.346596	0.082779
C20	C	-1.102554	-0.259403	0.077767
C21	C	-0.981035	-0.259413	0.199215
C22	C	-0.976003	-0.346602	0.204232
C23	C	-1.034240	-0.390189	0.146010
C24	C	-1.084411	-0.520724	0.095839
C25	C	-1.029084	-0.479308	0.151139
C26	C	-0.742928	-0.075516	0.131481
C27	C	-0.649629	-0.075517	0.129713
C28	C	-0.607327	-0.000013	0.124463
C29	C	-0.658330	0.075497	0.120973
C30	C	-0.751628	0.075497	0.122735
C31	C	-0.463867	0.075493	0.117303
C32	C	-0.370563	0.075493	0.115542
C33	C	-0.361868	-0.075521	0.124281
C34	C	-0.455166	-0.075521	0.126043
C35	C	-0.506163	-0.000011	0.122554
C36	C	-0.220271	-0.000018	0.117144
C37	C	-0.319567	-0.000010	0.119030
C38	C	-1.063097	-0.000018	-0.040025
C39	C	-1.061223	-0.000015	-0.139322
N40	N	-1.069183	0.215779	0.111012
C41	C	-1.064696	0.075490	-0.190334
C42	C	-1.062930	0.075491	-0.283633
C43	C	-1.057697	-0.000013	-0.325919
C44	C	-1.054221	-0.075523	-0.274900
C45	C	-1.055981	-0.075524	-0.181602
C46	C	-1.050556	-0.075518	-0.469364
C47	C	-1.048797	-0.075518	-0.562668
C48	C	-1.057505	0.075496	-0.571394
C49	C	-1.059265	0.075496	-0.478096
C50	C	-1.055790	-0.000014	-0.427084
C51	C	-1.050397	-0.000015	0.287023
C52	C	-1.052270	-0.000014	0.386320
H53	H	-0.959423	-0.776125	0.220717
H54	H	-0.793148	0.136980	0.119896
H55	H	-1.068962	0.136974	-0.155912
H56	H	-1.065762	0.136974	-0.325163
H57	H	-1.189019	-0.617936	-0.008735
N58	N	-0.921560	-0.214877	0.258678
N59	N	-0.926066	-0.137033	0.254194
H60	H	-0.884058	-0.105578	0.296190
H61	H	-1.049955	-0.137000	-0.309337
H62	H	-1.179880	-0.776115	0.000368
N63	N	-1.167028	-0.214879	0.012999
N64	N	-1.218904	-0.253804	-0.039095
H65	H	-1.264372	-0.222360	-0.084900
N66	N	-1.043451	-0.152637	-0.605874
N67	N	-1.104496	-0.169493	-0.665140
H68	H	-1.100720	-0.223960	-0.695653
N69	N	-1.052423	-0.152657	-0.129504
N70	N	-1.047747	-0.220066	-0.167268
H71	H	-1.045229	-0.274545	-0.130474
N72	N	-0.615125	0.152623	0.115591
N73	N	-0.572215	0.169467	0.050630
H74	H	-0.541702	0.223939	0.046829
N75	N	-0.309797	-0.152661	0.127829
N76	N	-0.347577	-0.220070	0.132518
H77	H	-0.310799	-0.274549	0.135026
H78	H	-0.336123	0.136976	0.111268
N79	N	-1.046995	-0.152656	-0.417267
N80	N	-1.042322	-0.220066	-0.455030
H81	H	-1.039809	-0.274544	-0.418238
H82	H	-0.777362	-0.137001	0.135763
H83	H	-0.505386	0.136981	0.114462
H84	H	-1.135935	-0.485219	0.044357
N85	N	-1.064621	0.152628	-0.434915
N86	N	-1.067723	0.220040	-0.480469
H87	H	-1.071504	0.274516	-0.449973
N88	N	-0.597553	-0.152650	0.133269
N89	N	-0.635333	-0.220058	0.137958
H90	H	-0.598555	-0.274538	0.140468
H91	H	-1.144936	-0.382078	0.035374
H92	H	-0.489605	-0.137004	0.130323
H93	H	-1.060332	0.136980	-0.612932
H94	H	-0.968561	-0.617955	0.211603
N95	N	-0.964437	-0.523827	0.215723
N96	N	-0.882328	-0.514075	0.213801
H97	H	-0.836670	-0.545522	0.259415
N98	N	-0.911373	-0.391122	0.268838
N99	N	-0.859386	-0.352193	0.320816
H100	H	-0.813745	-0.383634	0.366452
