data_functionalizedCrystal
_audit_creation_method	'MofGen! by Chris Wilmer'
_symmetry_space_group_name_H-M	'P1'
_symmetry_Int_Tables_number	1
_symmetry_cell_setting	triclinic
loop_
_symmetry_equiv_pos_as_xyz
  x,y,z
_cell_length_a	12.811434
_cell_length_b	10.967926
_cell_length_c	10.065875
_cell_angle_alpha	86.879521
_cell_angle_beta	104.183716
_cell_angle_gamma	96.763162
loop_
_atom_site_label
_atom_site_type_symbol
_atom_site_fract_x
_atom_site_fract_y
_atom_site_fract_z
O1	O	-0.186058	1.610247	-0.288264
O2	O	-0.189104	1.260160	-0.206300
O3	O	-0.032644	1.446972	-0.230875
O4	O	-0.342518	1.423436	-0.263688
O5	O	-0.062605	1.411347	-0.453193
O6	O	-0.219065	1.224536	-0.428617
O7	O	-0.216018	1.574623	-0.510581
Zn8	Zn	-0.222298	1.393923	-0.504897
Zn9	Zn	-0.182824	1.440860	-0.211984
O10	O	-0.372478	1.387812	-0.486006
C11	C	-0.201599	1.197590	-0.306624
C12	C	-0.194180	1.064225	-0.274338
C13	C	-0.206393	0.986312	-0.375111
C14	C	-0.198726	0.848472	-0.341744
C15	C	-0.397280	1.405850	-0.379824
C16	C	-0.515818	1.406540	-0.394655
C17	C	-0.705898	1.446699	-0.180134
C18	C	-0.817274	1.447348	-0.194063
C19	C	-0.849948	1.408496	-0.436444
C20	C	-0.738572	1.407847	-0.422515
C21	C	-0.666550	1.426947	-0.294355
C22	C	-0.555173	1.426289	-0.280425
C23	C	-0.587848	1.387446	-0.522807
C24	C	-0.699225	1.388095	-0.536736
C25	C	-0.007842	1.428934	-0.337054
C26	C	0.110697	1.428246	-0.322214
C27	C	-0.203523	1.637194	-0.410254
C28	C	-0.210941	1.770560	-0.442531
N29	N	-0.249238	1.361899	-0.704804
C30	C	-0.192190	1.429710	-0.781472
C31	C	-0.212932	1.405073	-0.935412
N32	N	-0.155877	1.472894	-0.012078
H33	H	-0.182590	0.813136	-0.230759
Cl34	Cl	-0.789775	1.364087	-0.697843
Cl35	Cl	-0.615354	1.470691	-0.019020
H36	H	-0.227070	0.805896	-0.553517
H37	H	-0.555802	1.371354	-0.615813
Cl38	Cl	-0.169265	1.009671	-0.102990
H39	H	-0.496534	1.441834	-0.176069
Cl40	Cl	-0.231298	1.040868	-0.546457
Cl41	Cl	-0.866735	1.472184	-0.050465
H42	H	-0.908606	1.392958	-0.540789
H43	H	-0.127990	1.506002	-0.733147
H44	H	-0.313430	1.285600	-0.753129
H45	H	-0.091672	1.549190	-0.963756
Cl46	Cl	-0.312048	1.287264	-1.010006
