data_functionalizedCrystal
_audit_creation_method	'MofGen! by Chris Wilmer'
_symmetry_space_group_name_H-M	'P1'
_symmetry_Int_Tables_number	1
_symmetry_cell_setting	triclinic
loop_
_symmetry_equiv_pos_as_xyz
  x,y,z
_cell_length_a	17.077404
_cell_length_b	16.959454
_cell_length_c	17.077404
_cell_angle_alpha	90.006946
_cell_angle_beta	90.003452
_cell_angle_gamma	90.020300
loop_
_atom_site_label
_atom_site_type_symbol
_atom_site_fract_x
_atom_site_fract_y
_atom_site_fract_z
Zn1	Zn	1.199946	-0.314816	0.443863
Zn2	Zn	1.199896	-0.446962	0.312606
Zn3	Zn	1.068714	-0.314802	0.312611
Zn4	Zn	1.068652	-0.446957	0.443829
O5	O	1.134302	-0.380884	0.378227
O6	O	1.309786	-0.332353	0.426463
O7	O	1.182500	-0.429428	0.202759
O8	O	1.086169	-0.204193	0.330038
O9	O	1.309749	-0.429441	0.330029
O10	O	1.182584	-0.204203	0.426468
O11	O	1.086121	-0.332331	0.202763
O12	O	0.958859	-0.332325	0.330005
O13	O	1.086063	-0.429431	0.553680
O14	O	0.958813	-0.429418	0.426411
O15	O	1.182524	-0.332347	0.553705
O16	O	1.182439	-0.557572	0.329996
O17	O	1.086015	-0.557568	0.426406
C18	C	0.930354	-0.380870	0.378205
C19	C	0.843104	-0.380883	0.378215
C20	C	0.802111	-0.431515	0.428333
C21	C	0.720130	-0.431517	0.428345
C22	C	0.679145	-0.380890	0.378235
C23	C	0.720144	-0.330251	0.328115
C24	C	0.802123	-0.330246	0.328107
C25	C	0.549274	-0.330267	0.328134
C26	C	0.467289	-0.330273	0.328141
C27	C	0.467281	-0.431538	0.428372
C28	C	0.549260	-0.431533	0.428364
C29	C	0.590254	-0.380895	0.378243
C30	C	1.134236	-0.586250	0.378214
C31	C	1.134280	-0.674107	0.378234
C32	C	1.084167	-1.045610	0.428422
C33	C	1.184656	-1.045555	0.328112
C34	C	1.184628	-0.963009	0.328105
C35	C	1.134368	-0.921760	0.378256
C36	C	1.084136	-0.963057	0.428415
C37	C	1.234854	-0.921706	0.277942
C38	C	1.234828	-0.839155	0.277932
C39	C	1.184572	-0.797905	0.328088
C40	C	1.134338	-0.839206	0.378249
C41	C	1.084078	-0.797957	0.428400
C42	C	1.033847	-0.839258	0.478566
C43	C	1.033879	-0.921806	0.478571
C44	C	1.184540	-0.715356	0.328083
C45	C	1.084047	-0.715404	0.428393
C46	C	1.339046	-0.380899	0.378249
C47	C	1.426296	-0.380906	0.378259
C48	C	1.134292	-0.380890	0.582971
C49	C	1.134288	-0.380892	0.670221
C50	C	1.134389	-0.174716	0.378258
C51	C	1.134427	-0.086859	0.378271
C52	C	1.184522	-0.330343	1.046050
C53	C	1.184524	-0.330347	0.964069
C54	C	1.134299	-0.380891	0.923070
C55	C	1.084075	-0.431440	0.964055
C56	C	1.084078	-0.431440	1.046034
C57	C	1.084070	-0.431437	0.793185
C58	C	1.084066	-0.431436	0.711201
C59	C	1.184516	-0.330344	0.711220
C60	C	1.184519	-0.330343	0.793199
C61	C	1.134294	-0.380892	0.834179
C62	C	1.134303	-0.380894	1.174279
C63	C	1.134300	-0.380887	1.087029
H64	H	0.835499	-0.289012	0.287300
F65	F	1.030556	-0.671510	0.481776
F66	F	1.237984	-0.276558	0.836832
H67	H	1.225410	-0.289184	0.677851
F68	F	0.980355	-0.795348	0.531935
H69	H	0.582648	-0.289026	0.287327
F70	F	0.676522	-0.276365	0.274789
H71	H	0.582628	-0.472762	0.469163
F72	F	0.980424	-0.965766	0.531955
F73	F	0.423652	-0.485421	0.481724
H74	H	1.043272	-1.079241	0.469268
F75	F	0.423671	-0.276393	0.274806
F76	F	1.238142	-1.089457	0.274740
F77	F	1.288344	-0.965610	0.224574
H78	H	1.043150	-0.472575	0.677821
F79	F	1.288292	-0.795208	0.224547
F80	F	1.237987	-0.671405	0.274690
H81	H	1.225416	-0.289179	1.079425
F82	F	0.676506	-0.485407	0.481688
F83	F	1.030623	-0.485236	0.920419
F84	F	1.237977	-0.276552	0.920459
H85	H	1.043174	-0.472601	0.826549
F86	F	0.845723	-0.485405	0.481663
H87	H	1.043183	-0.472599	1.079399
