data_functionalizedCrystal
_audit_creation_method	'MofGen! by Chris Wilmer'
_symmetry_space_group_name_H-M	'P1'
_symmetry_Int_Tables_number	1
_symmetry_cell_setting	triclinic
loop_
_symmetry_equiv_pos_as_xyz
  x,y,z
_cell_length_a	14.519709
_cell_length_b	14.519709
_cell_length_c	10.868271
_cell_angle_alpha	89.998701
_cell_angle_beta	90.013556
_cell_angle_gamma	83.680146
loop_
_atom_site_label
_atom_site_type_symbol
_atom_site_fract_x
_atom_site_fract_y
_atom_site_fract_z
O1	O	-0.120892	-1.223867	-0.102186
O2	O	0.129108	-0.973867	0.147814
O3	O	0.379108	-0.723867	0.397814
O4	O	0.629108	-0.473867	0.647814
O5	O	-0.135128	-0.955390	-0.102226
O6	O	0.114872	-0.705390	0.147774
O7	O	0.364872	-0.455390	0.397774
O8	O	0.614872	-0.205390	0.647774
O9	O	0.006228	-1.096747	-0.102171
O10	O	0.256228	-0.846747	0.147829
O11	O	0.506228	-0.596747	0.397829
O12	O	0.756228	-0.346747	0.647829
O13	O	-0.262248	-1.082510	-0.102241
O14	O	-0.012248	-0.832510	0.147759
O15	O	0.237752	-0.582510	0.397759
O16	O	0.487752	-0.332510	0.647759
O17	O	0.006234	-1.096735	0.102474
O18	O	0.256234	-0.846735	0.352474
O19	O	0.506234	-0.596735	0.602474
O20	O	0.756234	-0.346735	0.852474
O21	O	-0.135123	-0.955379	0.102418
O22	O	0.114877	-0.705379	0.352418
O23	O	0.364877	-0.455379	0.602418
O24	O	0.614877	-0.205379	0.852418
O25	O	-0.120886	-1.223856	0.102459
O26	O	0.129114	-0.973856	0.352459
O27	O	0.379114	-0.723856	0.602459
O28	O	0.629114	-0.473856	0.852459
Zn29	Zn	-0.128004	-1.089615	0.134930
Zn30	Zn	0.121996	-0.839615	0.384930
Zn31	Zn	0.371996	-0.589615	0.634930
Zn32	Zn	0.621996	-0.339615	0.884930
Zn33	Zn	-0.128011	-1.089631	-0.134698
Zn34	Zn	0.121989	-0.839631	0.115302
Zn35	Zn	0.371989	-0.589631	0.365302
Zn36	Zn	0.621989	-0.339631	0.615302
O37	O	-0.262243	-1.082499	0.102403
O38	O	-0.012243	-0.832499	0.352403
O39	O	0.237757	-0.582499	0.602403
O40	O	0.487757	-0.332499	0.852403
C41	C	0.040591	-1.096078	0.000158
C42	C	0.290591	-0.846078	0.250158
C43	C	0.540591	-0.596078	0.500158
C44	C	0.790591	-0.346078	0.750158
C45	C	0.142972	-1.094090	0.000176
C46	C	0.392972	-0.844090	0.250176
C47	C	0.642972	-0.594090	0.500176
C48	C	0.892972	-0.344090	0.750176
C49	C	-0.134462	-0.921025	0.000091
C50	C	0.115538	-0.671025	0.250091
C51	C	0.365538	-0.421025	0.500091
C52	C	0.615538	-0.171025	0.750091
C53	C	-0.132474	-0.818643	0.000078
C54	C	0.117526	-0.568643	0.250078
C55	C	0.367526	-0.318643	0.500078
C56	C	0.617526	-0.068643	0.750078
C57	C	-0.121553	-1.258221	0.000138
C58	C	0.128447	-1.008221	0.250138
C59	C	0.378447	-0.758221	0.500138
C60	C	0.628447	-0.508221	0.750138
C61	C	-0.123541	-1.360602	0.000144
C62	C	0.126459	-1.110602	0.250144
C63	C	0.376459	-0.860602	0.500144
C64	C	0.626459	-0.610602	0.750144
C65	C	0.517868	-1.086770	0.000208
C66	C	0.767868	-0.836770	0.250208
C67	C	1.017868	-0.586770	0.500208
C68	C	1.267868	-0.336770	0.750208
C69	C	0.413560	-1.088803	0.000200
C70	C	0.663560	-0.838803	0.250200
C71	C	0.913560	-0.588803	0.500200
C72	C	1.163560	-0.338803	0.750200
C73	C	0.330423	-1.090430	0.000193
C74	C	0.580423	-0.840430	0.250193
C75	C	0.830423	-0.590430	0.500193
C76	C	1.080423	-0.340430	0.750193
C77	C	0.226109	-1.092463	0.000183
C78	C	0.476109	-0.842463	0.250183
C79	C	0.726109	-0.592463	0.500183
C80	C	0.976109	-0.342463	0.750183
C81	C	0.703394	-1.083168	0.000116
C82	C	0.953394	-0.833168	0.250116
C83	C	1.203394	-0.583168	0.500116
C84	C	1.453394	-0.333168	0.750116
C85	C	0.601013	-1.085156	0.000220
C86	C	0.851013	-0.835156	0.250220
C87	C	1.101013	-0.585156	0.500220
C88	C	1.351013	-0.335156	0.750220
C89	C	-0.125154	-0.443748	0.000136
C90	C	0.124846	-0.193748	0.250136
C91	C	0.374846	0.056252	0.500136
C92	C	0.624846	0.306252	0.750136
C93	C	-0.127187	-0.548056	0.000119
C94	C	0.122813	-0.298056	0.250119
C95	C	0.372813	-0.048056	0.500119
C96	C	0.622813	0.201944	0.750119
C97	C	-0.128814	-0.631192	0.000106
C98	C	0.121186	-0.381192	0.250106
C99	C	0.371186	-0.131192	0.500106
C100	C	0.621186	0.118808	0.750106
C101	C	-0.130847	-0.735507	0.000091
C102	C	0.119153	-0.485507	0.250091
C103	C	0.369153	-0.235507	0.500091
C104	C	0.619153	0.014493	0.750091
N105	N	-0.127998	-1.089612	0.318944
N106	N	0.122002	-0.839612	0.568944
N107	N	0.372002	-0.589612	0.818944
N108	N	0.622002	-0.339612	1.068944
N109	N	-0.128009	-1.089642	-0.318712
N110	N	0.121991	-0.839642	-0.068712
N111	N	0.371991	-0.589642	0.181288
N112	N	0.621991	-0.339642	0.431288
C113	C	-0.128009	-1.089626	0.569951
C114	C	0.121991	-0.839626	0.819951
C115	C	0.371991	-0.589626	1.069951
C116	C	0.621991	-0.339626	1.319951
C117	C	-0.128006	-1.089615	0.430273
C118	C	0.121994	-0.839615	0.680273
C119	C	0.371994	-0.589615	0.930273
C120	C	0.621994	-0.339615	1.180273
