data_functionalizedCrystal
_audit_creation_method	'MofGen! by Chris Wilmer'
_symmetry_space_group_name_H-M	'P1'
_symmetry_Int_Tables_number	1
_symmetry_cell_setting	triclinic
loop_
_symmetry_equiv_pos_as_xyz
  x,y,z
_cell_length_a	19.288864
_cell_length_b	23.532407
_cell_length_c	17.766277
_cell_angle_alpha	89.988964
_cell_angle_beta	89.976791
_cell_angle_gamma	82.992461
loop_
_atom_site_label
_atom_site_type_symbol
_atom_site_fract_x
_atom_site_fract_y
_atom_site_fract_z
O1	O	0.921134	0.071045	-0.062843
O2	O	1.421134	0.571045	0.437157
O3	O	0.718844	0.080629	-0.062793
O4	O	1.218844	0.580629	0.437207
O5	O	0.826089	-0.007082	-0.062806
O6	O	1.326089	0.492918	0.437194
O7	O	0.813889	0.158756	-0.062830
O8	O	1.313889	0.658756	0.437170
O9	O	0.826070	-0.007086	0.062383
O10	O	1.326070	0.492914	0.562383
O11	O	0.718825	0.080625	0.062396
O12	O	1.218825	0.580625	0.562396
O13	O	0.921115	0.071041	0.062345
O14	O	1.421115	0.571041	0.562345
Cu15	Cu	0.819968	0.075832	0.073801
Cu16	Cu	1.319968	0.575832	0.573801
Cu17	Cu	0.819991	0.075838	-0.074249
Cu18	Cu	1.319991	0.575838	0.425751
O19	O	0.813870	0.158752	0.062358
O20	O	1.313870	0.658752	0.562358
C21	C	0.692959	0.080319	-0.000192
C22	C	1.192959	0.580319	0.499808
C23	C	0.615858	0.079393	-0.000172
C24	C	1.115858	0.579393	0.499828
C25	C	0.571003	0.130858	-0.000191
C26	C	1.071003	0.630858	0.499809
C27	C	0.498559	0.129988	-0.000200
C28	C	0.998559	0.629988	0.499800
C29	C	0.470973	0.077651	-0.000203
C30	C	0.970973	0.577651	0.499797
C31	C	0.515838	0.026179	-0.000180
C32	C	1.015838	0.526179	0.499820
C33	C	0.588280	0.027050	-0.000164
C34	C	1.088280	0.527050	0.499836
C35	C	0.362844	0.036509	-0.044082
C36	C	0.862844	0.536509	0.455918
C37	C	0.290402	0.035640	-0.044102
C38	C	0.790402	0.535640	0.455898
C39	C	0.247535	0.074961	-0.000249
C40	C	0.747535	0.574961	0.499751
C41	C	0.277118	0.115162	0.043616
C42	C	0.777118	0.615162	0.543616
C43	C	0.349560	0.116033	0.043631
C44	C	0.849560	0.616033	0.543631
C45	C	0.392422	0.076700	-0.000220
C46	C	0.892422	0.576700	0.499780
C47	C	0.124127	0.125487	-0.000276
C48	C	0.624127	0.625487	0.499724
C49	C	0.051682	0.124615	-0.000279
C50	C	0.551682	0.624615	0.499721
C51	C	0.068962	0.020805	-0.000267
C52	C	0.568962	0.520805	0.499733
C53	C	0.141406	0.021678	-0.000256
C54	C	0.641406	0.521678	0.499744
C55	C	0.168984	0.074021	-0.000264
C56	C	0.668984	0.574021	0.499736
C57	C	0.825769	-0.028301	-0.000209
C58	C	1.325769	0.471699	0.499791
C59	C	0.824835	-0.091520	-0.000203
C60	C	1.324835	0.408480	0.499797
C61	C	0.882442	-0.490503	-0.000259
C62	C	1.382442	0.009497	0.499741
C63	C	0.881574	-0.549905	-0.000264
C64	C	1.381574	-0.049905	0.499736
O65	O	0.934976	-0.586539	-0.000306
O66	O	1.434976	-0.086539	0.499694
N67	N	0.817817	-0.572664	-0.000248
N68	N	1.317817	-0.072664	0.499752
C69	C	0.754923	-0.536017	-0.000234
C70	C	1.254923	-0.036017	0.499766
O71	O	0.700613	-0.560829	-0.000221
O72	O	1.200613	-0.060829	0.499779
C73	C	0.755792	-0.476616	-0.000234
C74	C	1.255792	0.023384	0.499766
C75	C	0.819553	-0.453861	-0.000242
C76	C	1.319553	0.046139	0.499758
C77	C	0.946198	-0.467748	-0.000269
C78	C	1.446198	0.032252	0.499731
C79	C	0.947065	-0.408350	-0.000262
C80	C	1.447065	0.091650	0.499738
C81	C	0.884177	-0.371707	-0.000245
C82	C	1.384177	0.128293	0.499755
C83	C	0.820420	-0.394463	-0.000236
C84	C	1.320420	0.105537	0.499764
C85	C	0.692899	-0.439970	-0.000225
C86	C	1.192899	0.060030	0.499775
C87	C	0.693773	-0.380565	-0.000225
C88	C	1.193773	0.119435	0.499775
C89	C	0.757534	-0.357810	-0.000234
C90	C	1.257534	0.142190	0.499766
C91	C	0.758399	-0.298422	-0.000212
C92	C	1.258399	0.201578	0.499788
N93	N	0.822156	-0.275664	-0.000229
N94	N	1.322156	0.224336	0.499771
C95	C	0.885045	-0.312307	-0.000245
C96	C	1.385045	0.187693	0.499755
C97	C	0.753104	-0.660763	-0.000235
C98	C	1.253104	-0.160763	0.499765
C99	C	0.752235	-0.720163	-0.000230
C100	C	1.252235	-0.220163	0.499770
C101	C	0.878886	-0.734047	-0.000262
C102	C	1.378886	-0.234047	0.499738
C103	C	0.879755	-0.674647	-0.000262
C104	C	1.379755	-0.174647	0.499738
C105	C	0.816861	-0.638005	-0.000252
C106	C	1.316861	-0.138005	0.499748
C107	C	0.886862	-0.187566	-0.000230
C108	C	1.386862	0.312434	0.499770
C109	C	0.887724	-0.128162	-0.000220
C110	C	1.387724	0.371838	0.499780
C111	C	0.761073	-0.114283	-0.000192
C112	C	1.261073	0.385717	0.499808
C113	C	0.760211	-0.173681	-0.000198
C114	C	1.260211	0.326319	0.499802
C115	C	0.823111	-0.210322	-0.000219
C116	C	1.323111	0.289678	0.499781
O117	O	0.705025	-0.261754	-0.000174
O118	O	1.205025	0.238246	0.499826
O119	O	0.939346	-0.287486	-0.000268
O120	O	1.439346	0.212514	0.499732
C121	C	0.947000	0.071351	-0.000257
C122	C	1.447000	0.571351	0.499743
C123	C	1.024101	0.072277	-0.000282
C124	C	1.524101	0.572277	0.499718
C125	C	0.814190	0.179971	-0.000240
C126	C	1.314190	0.679971	0.499760
C127	C	0.815124	0.243190	-0.000251
C128	C	1.315124	0.743190	0.499749
N129	N	0.819958	0.075828	0.177932
N130	N	1.319958	0.575828	0.677932
N131	N	0.820007	0.075837	-0.178379
N132	N	1.320007	0.575837	0.321621
C133	C	0.867461	0.037009	0.217313
C134	C	1.367461	0.537009	0.717313
C135	C	0.867465	0.037006	0.296115
C136	C	1.367465	0.537006	0.796115
C137	C	0.819973	0.075833	0.335532
C138	C	1.319973	0.575833	0.835532
C139	C	0.772460	0.114655	0.296142
C140	C	1.272460	0.614655	0.796142
C141	C	0.772453	0.114653	0.217341
C142	C	1.272453	0.614653	0.717341
C143	C	0.810514	0.127724	0.460364
C144	C	1.310514	0.627724	0.960364
C145	C	0.810526	0.127727	0.539163
C146	C	1.310526	0.627727	1.039163
C147	C	0.819991	0.075840	0.578579
C148	C	1.319991	0.575840	1.078579
C149	C	0.829459	0.023947	0.539186
C150	C	1.329459	0.523947	1.039186
C151	C	0.829452	0.023945	0.460385
C152	C	1.329452	0.523945	0.960385
C153	C	0.819975	0.075839	0.420978
C154	C	1.319975	0.575839	0.920978
C155	C	0.867501	0.037014	0.703406
C156	C	1.367501	0.537014	1.203406
C157	C	0.867501	0.037011	0.782209
C158	C	1.367501	0.537011	1.282209
C159	C	0.772499	0.114665	0.782234
C160	C	1.272499	0.614665	1.282234
C161	C	0.772496	0.114663	0.703433
C162	C	1.272496	0.614663	1.203433
C163	C	0.820001	0.075839	0.664023
C164	C	1.320001	0.575839	1.164023
H165	H	0.266322	0.002909	-0.079822
H166	H	0.766322	0.502909	0.420178
H167	H	0.397741	0.004488	-0.079797
H168	H	0.897741	0.504488	0.420203
O169	O	1.008985	-0.386221	-0.000147
O170	O	1.508985	0.113779	0.499853
C171	C	1.013273	-0.352275	0.064676
C172	C	1.513273	0.147725	0.564676
H173	H	0.977072	-0.366236	0.110008
H174	H	1.477072	0.133764	0.610008
H175	H	1.069289	-0.357751	0.086419
H176	H	1.569289	0.142249	0.586419
H177	H	0.996926	-0.305387	0.050022
H178	H	1.496926	0.194613	0.550022
H179	H	0.733827	0.146276	0.814328
H180	H	1.233827	0.646276	1.314328
H181	H	0.733790	0.146268	0.328239
H182	H	1.233790	0.646268	0.828239
H183	H	0.373643	0.148763	0.079350
H184	H	0.873643	0.648763	0.579350
H185	H	0.930094	-0.763893	-0.000279
H186	H	1.430094	-0.263893	0.499721
O187	O	0.690236	-0.742168	-0.000246
O188	O	1.190236	-0.242168	0.499754
C189	C	0.634920	-0.697082	-0.000210
C190	C	1.134920	-0.197082	0.499790
H191	H	0.654113	-0.656772	-0.023910
H192	H	1.154113	-0.156772	0.476090
H193	H	0.590384	-0.709376	-0.036546
H194	H	1.090384	-0.209376	0.463454
H195	H	0.615534	-0.688639	0.059855
H196	H	1.115534	-0.188639	0.559855
H197	H	0.906181	0.005396	0.814274
H198	H	1.406181	0.505396	1.314274
H199	H	0.733817	0.146276	0.671366
H200	H	1.233817	0.646276	1.171366
H201	H	0.701886	-0.630931	-0.000220
H202	H	1.201886	-0.130931	0.499780
H203	H	0.624802	-0.014860	-0.000149
H204	H	1.124802	0.485140	0.499851
H205	H	0.242216	0.147181	0.079326
H206	H	0.742216	0.647181	0.579326
O207	O	0.801291	0.178183	0.577309
O208	O	1.301291	0.678183	1.077309
C209	C	0.792942	0.223979	0.525625
C210	C	1.292942	0.723979	1.025625
H211	H	0.773964	0.208265	0.469470
H212	H	1.273964	0.708265	0.969470
H213	H	0.752973	0.259502	0.548405
H214	H	1.252973	0.759502	1.048405
H215	H	0.845137	0.241204	0.517207
H216	H	1.345137	0.741204	1.017207
O217	O	0.150806	0.176380	-0.000242
O218	O	0.650806	0.676380	0.499758
C219	C	0.095677	0.221619	-0.000272
C220	C	0.595677	0.721619	0.499728
H221	H	0.046558	0.205781	0.023422
H222	H	0.546558	0.705781	0.523422
H223	H	0.110548	0.258170	0.036073
H224	H	0.610548	0.758170	0.536073
H225	H	0.085346	0.237489	-0.060334
H226	H	0.585346	0.737489	0.439666
H227	H	0.015161	0.166526	-0.000291
H228	H	0.515161	0.666526	0.499709
H229	H	0.802794	0.169979	0.428278
H230	H	1.302794	0.669979	0.928278
H231	H	0.733769	0.146265	0.185276
H232	H	1.233769	0.646265	0.685276
H233	H	0.837166	-0.018304	0.571276
H234	H	1.337166	0.481696	1.071276
H235	H	0.997412	-0.497577	-0.000285
H236	H	1.497412	0.002423	0.499715
H237	H	0.931675	-0.656124	-0.000270
H238	H	1.431675	-0.156124	0.499730
H239	H	0.640978	-0.458486	-0.000222
H240	H	1.140978	0.041514	0.499778
O241	O	0.913666	-0.000757	0.665234
O242	O	1.413666	0.499243	1.165234
C243	C	0.955603	-0.035017	0.716896
C244	C	1.455603	0.464983	1.216896
H245	H	0.927135	-0.035600	0.773082
H246	H	1.427135	0.464400	1.273082
H247	H	0.966513	-0.080522	0.694134
H248	H	1.466513	0.419478	1.194134
H249	H	1.007072	-0.016633	0.725245
H250	H	1.507072	0.483367	1.225245
H251	H	0.939648	-0.109639	-0.000225
H252	H	1.439648	0.390361	0.499775
H253	H	0.593452	0.173479	-0.000199
H254	H	1.093452	0.673479	0.499801
H255	H	0.906141	0.005394	0.185228
H256	H	1.406141	0.505394	0.685228
O257	O	0.632612	-0.345053	-0.000182
O258	O	1.132612	0.154947	0.499818
C259	C	0.576156	-0.377881	-0.000195
C260	C	1.076156	0.122119	0.499805
H261	H	0.594100	-0.422263	0.023500
H262	H	1.094100	0.077737	0.523500
H263	H	0.532108	-0.355870	0.036159
H264	H	1.032108	0.144130	0.536159
H265	H	0.556607	-0.382054	-0.060252
H266	H	1.056607	0.117946	0.439748
H267	H	0.046503	-0.021810	-0.000317
H268	H	0.546503	0.478190	0.499683
O269	O	0.455075	0.180036	-0.000258
O270	O	0.955075	0.680036	0.499742
C271	C	0.494951	0.226420	-0.000242
C272	C	0.994951	0.726420	0.499758
H273	H	0.549139	0.211826	-0.023922
H274	H	1.049139	0.711826	0.476078
H275	H	0.467998	0.262465	-0.036607
H276	H	0.967998	0.762465	0.463393
H277	H	0.499959	0.242478	0.059814
H278	H	0.999959	0.742478	0.559814
H279	H	0.708291	-0.192209	-0.000170
H280	H	1.208291	0.307791	0.499830
H281	H	0.177928	-0.020230	-0.000244
H282	H	0.677928	0.479770	0.499756
O283	O	0.700049	-0.078601	-0.000210
O284	O	1.200049	0.421399	0.499790
C285	C	0.714496	-0.021295	-0.000191
C286	C	1.214496	0.478705	0.499809
H287	H	0.769043	-0.019153	-0.023898
H288	H	1.269043	0.480847	0.476102
H289	H	0.674396	0.005724	-0.036531
H290	H	1.174396	0.505724	0.463469
H291	H	0.711728	-0.004118	0.059869
H292	H	1.211728	0.495882	0.559869
O293	O	0.489159	-0.024712	-0.000154
O294	O	0.989159	0.475288	0.499846
C295	C	0.544289	-0.069951	-0.000154
C296	C	1.044289	0.430049	0.499846
H297	H	0.593382	-0.054116	0.023559
H298	H	1.093382	0.445884	0.523559
H299	H	0.529378	-0.106506	0.036189
H300	H	1.029378	0.393494	0.536189
H301	H	0.554686	-0.085815	-0.060210
H302	H	1.054686	0.414185	0.439790
O303	O	0.913676	-0.000729	0.334264
O304	O	1.413676	0.499271	0.834264
C305	C	0.955587	-0.035009	0.282582
C306	C	1.455587	0.464991	0.782582
H307	H	0.956209	-0.011664	0.226402
H308	H	1.456209	0.488336	0.726402
H309	H	1.011115	-0.043814	0.305327
H310	H	1.511115	0.456186	0.805327
H311	H	0.933327	-0.077270	0.274226
H312	H	1.433327	0.422730	0.774226
H313	H	0.837159	-0.018307	0.428315
H314	H	1.337159	0.481693	0.928315
H315	H	0.938081	-0.217393	-0.000250
H316	H	1.438081	0.282607	0.499750
