data_functionalizedCrystal
_audit_creation_method	'MofGen! by Chris Wilmer'
_symmetry_space_group_name_H-M	'P1'
_symmetry_Int_Tables_number	1
_symmetry_cell_setting	triclinic
loop_
_symmetry_equiv_pos_as_xyz
  x,y,z
_cell_length_a	22.610064
_cell_length_b	11.792241
_cell_length_c	11.792241
_cell_angle_alpha	84.193416
_cell_angle_beta	89.986199
_cell_angle_gamma	90.002654
loop_
_atom_site_label
_atom_site_type_symbol
_atom_site_fract_x
_atom_site_fract_y
_atom_site_fract_z
O1	O	0.049127	-1.506902	-0.155583
O2	O	0.049141	-1.176561	-0.171616
O3	O	0.049130	-1.349748	0.001571
O4	O	0.049139	-1.333715	-0.328770
O5	O	-0.049239	-1.349746	0.001607
O6	O	-0.049228	-1.176559	-0.171580
O7	O	-0.049242	-1.506900	-0.155547
Zn8	Zn	-0.064853	-1.341729	-0.163558
Zn9	Zn	0.064752	-1.341732	-0.163605
O10	O	-0.049230	-1.333713	-0.328734
C11	C	-0.000042	-1.134269	-0.170591
C12	C	-0.000037	-1.008255	-0.167576
N13	N	-0.153306	-1.341735	-0.163525
N14	N	0.153205	-1.341735	-0.163629
C15	C	0.438048	-1.410867	-0.233026
C16	C	0.376128	-1.410868	-0.233033
O17	O	0.344105	-1.469670	-0.292068
N18	N	0.345157	-1.341752	-0.163594
C19	C	0.376110	-1.272640	-0.094134
O20	O	0.344081	-1.213852	-0.035070
C21	C	0.438028	-1.272646	-0.094122
C22	C	0.468996	-1.341758	-0.163574
C23	C	0.469015	-1.479974	-0.302472
C24	C	0.530931	-1.479972	-0.302466
C25	C	0.561879	-1.410862	-0.233014
C26	C	0.530912	-1.341755	-0.163568
C27	C	0.468980	-1.203540	-0.024657
C28	C	0.530903	-1.203553	-0.024650
C29	C	0.561870	-1.272665	-0.094102
C30	C	0.623775	-1.272643	-0.094111
N31	N	0.654746	-1.341759	-0.163550
C32	C	0.623798	-1.410868	-0.233002
C33	C	0.246076	-1.272633	-0.094164
C34	C	0.184158	-1.272620	-0.094182
C35	C	0.184181	-1.410850	-0.233079
C36	C	0.246100	-1.410857	-0.233067
C37	C	0.277047	-1.341749	-0.163603
C38	C	0.753825	-1.410857	-0.232985
C39	C	0.815746	-1.410845	-0.232976
C40	C	0.815718	-1.272620	-0.094075
C41	C	0.753803	-1.272627	-0.094087
C42	C	0.722858	-1.341755	-0.163546
O43	O	0.655838	-1.213874	-0.035103
O44	O	0.655834	-1.469657	-0.292045
C45	C	-0.000055	-1.348740	0.043880
C46	C	-0.000054	-1.345726	0.169894
C47	C	-0.000058	-1.549192	-0.156572
C48	C	-0.000059	-1.675206	-0.159587
C49	C	-0.000054	-0.777543	-0.162034
C50	C	-0.000044	-0.905928	-0.165113
C51	C	-0.000045	-1.334721	-0.371043
C52	C	-0.000042	-1.337736	-0.497057
C53	C	-0.000044	-1.340183	0.400606
C54	C	-0.000049	-1.343262	0.272221
H55	H	0.840957	-1.467124	-0.289538
H56	H	0.271309	-1.467133	-0.289622
O57	O	0.154020	-1.477965	-0.300432
C58	C	0.092730	-1.463116	-0.285558
H59	H	0.084267	-1.430393	-0.199297
H60	H	0.069192	-1.548175	-0.289138
H61	H	0.075169	-1.398776	-0.356209
O62	O	0.438892	-1.546950	-0.370008
C63	C	0.403106	-1.478084	-0.446909
H64	H	0.393818	-1.393744	-0.410851
H65	H	0.359569	-1.523756	-0.459974
H66	H	0.426992	-1.461064	-0.532083
H67	H	0.158950	-1.216329	-0.037640
H68	H	0.728637	-1.467148	-0.289544
H69	H	0.271269	-1.216347	-0.037602
H70	H	0.443777	-1.147264	0.031900
H71	H	0.840928	-1.216349	-0.037532
O72	O	0.560872	-1.136311	0.042858
C73	C	0.520256	-1.075341	0.104171
H74	H	0.476127	-1.068920	0.057223
H75	H	0.538144	-0.986080	0.111990
H76	H	0.513656	-1.121716	0.192876
H77	H	0.728588	-1.216336	-0.037548
H78	H	0.556139	-1.536255	-0.359017
