data_functionalizedCrystal
_audit_creation_method	'MofGen! by Chris Wilmer'
_symmetry_space_group_name_H-M	'P1'
_symmetry_Int_Tables_number	1
_symmetry_cell_setting	triclinic
loop_
_symmetry_equiv_pos_as_xyz
  x,y,z
_cell_length_a	16.992701
_cell_length_b	11.892295
_cell_length_c	16.992695
_cell_angle_alpha	85.838279
_cell_angle_beta	89.332304
_cell_angle_gamma	85.845074
loop_
_atom_site_label
_atom_site_type_symbol
_atom_site_fract_x
_atom_site_fract_y
_atom_site_fract_z
O1	O	1.046133	0.094012	-0.171621
O2	O	1.379466	0.427345	0.161712
O3	O	1.712800	0.760679	0.495046
O4	O	0.817733	0.094012	-0.169792
O5	O	1.151066	0.427346	0.163541
O6	O	1.484400	0.760679	0.496875
O7	O	0.931018	0.094003	-0.056506
O8	O	1.264351	0.427336	0.276827
O9	O	1.597684	0.760670	0.610161
O10	O	0.932848	0.094021	-0.284907
O11	O	1.266181	0.427354	0.048426
O12	O	1.599515	0.760688	0.381760
O13	O	0.940441	-0.094000	-0.047074
O14	O	1.273774	0.239334	0.286259
O15	O	1.607107	0.572667	0.619592
O16	O	0.827156	-0.093990	-0.160360
O17	O	1.160489	0.239343	0.172973
O18	O	1.493822	0.572676	0.506306
O19	O	1.055556	-0.093991	-0.162190
O20	O	1.388889	0.239342	0.171144
O21	O	1.722222	0.572676	0.504477
Zn22	Zn	0.942852	-0.123840	-0.159777
Zn23	Zn	1.276185	0.209493	0.173556
Zn24	Zn	1.609518	0.542826	0.506889
Zn25	Zn	0.930437	0.123862	-0.172204
Zn26	Zn	1.263770	0.457195	0.161129
Zn27	Zn	1.597103	0.790528	0.494463
O28	O	0.942271	-0.093982	-0.275475
O29	O	1.275604	0.239352	0.057858
O30	O	1.608938	0.572685	0.391191
C31	C	0.793084	0.000011	-0.162721
C32	C	1.126417	0.333344	0.170613
C33	C	1.459751	0.666678	0.503946
C34	C	0.705600	0.000011	-0.155693
C35	C	1.038933	0.333344	0.177641
C36	C	1.372266	0.666677	0.510974
C37	C	0.213681	0.000011	-0.108471
C38	C	0.547014	0.333345	0.224862
C39	C	0.880348	0.666678	0.558196
C40	C	0.295882	0.000005	-0.115080
C41	C	0.629215	0.333338	0.218253
C42	C	0.962549	0.666672	0.551586
C43	C	0.332088	0.000016	-0.189509
C44	C	0.665422	0.333349	0.143824
C45	C	0.998755	0.666683	0.477158
C46	C	0.286090	0.000022	-0.257332
C47	C	0.619423	0.333355	0.076002
C48	C	0.952757	0.666688	0.409335
C49	C	0.203891	0.000020	-0.250721
C50	C	0.537224	0.333353	0.082612
C51	C	0.870558	0.666687	0.415945
C52	C	0.577402	0.000015	-0.216905
C53	C	0.910736	0.333348	0.116428
C54	C	1.244069	0.666681	0.449761
C55	C	0.659607	0.000020	-0.223511
C56	C	0.992940	0.333353	0.109823
C57	C	1.326274	0.666687	0.443156
C58	C	0.669394	0.000001	-0.081259
C59	C	1.002727	0.333334	0.252075
C60	C	1.336060	0.666668	0.585408
C61	C	0.587192	0.000006	-0.074655
C62	C	0.920526	0.333340	0.258678
C63	C	1.253859	0.666673	0.592012
C64	C	0.541201	0.000006	-0.142478
C65	C	0.874535	0.333339	0.190856
C66	C	1.207868	0.666673	0.524189
N67	N	0.416111	0.000013	-0.196267
N68	N	0.749444	0.333346	0.137067
N69	N	1.082777	0.666680	0.470400
N70	N	0.457181	0.000001	-0.135719
N71	N	0.790514	0.333334	0.197614
N72	N	1.123848	0.666668	0.530948
N73	N	0.951330	-0.292890	-0.151297
N74	N	1.284664	0.040443	0.182037
N75	N	1.617997	0.373777	0.515370
C76	C	0.862876	-0.529582	-0.239727
C77	C	1.196209	-0.196249	0.093606
C78	C	1.529543	0.137085	0.426939
C79	C	0.868821	-0.647921	-0.233793
C80	C	1.202154	-0.314587	0.099540
C81	C	1.535487	0.018746	0.432874
C82	C	0.969168	-0.647909	-0.133498
C83	C	1.302501	-0.314576	0.199836
C84	C	1.635835	0.018758	0.533169
C85	C	0.963223	-0.529570	-0.139432
C86	C	1.296557	-0.196237	0.193901
C87	C	1.629890	0.137097	0.527235
C88	C	0.910075	-0.470411	-0.192548
C89	C	1.243408	-0.137077	0.140785
C90	C	1.576741	0.196256	0.474119
C91	C	0.904126	-0.352070	-0.198478
C92	C	1.237460	-0.018736	0.134855
C93	C	1.570793	0.314597	0.468189
C94	C	1.004477	-0.352060	-0.098187
C95	C	1.337811	-0.018727	0.235146
C96	C	1.671144	0.314607	0.568480
C97	C	1.010422	-0.470399	-0.092253
C98	C	1.343755	-0.137066	0.241081
C99	C	1.677089	0.196268	0.574414
C100	C	1.080204	0.000013	-0.169261
C101	C	1.413538	0.333346	0.164072
C102	C	1.746871	0.666680	0.497406
C103	C	1.167688	0.000021	-0.176289
C104	C	1.501022	0.333354	0.157044
C105	C	1.834355	0.666687	0.490377
C106	C	0.933373	0.000002	-0.022430
C107	C	1.266707	0.333335	0.310903
C108	C	1.600040	0.666669	0.644237
C109	C	0.926345	0.000002	0.065054
C110	C	1.259678	0.333336	0.398388
C111	C	1.593011	0.666669	0.731721
N112	N	0.921964	0.292911	-0.180679
N113	N	1.255297	0.626245	0.152654
N114	N	1.588631	0.959578	0.485988
C115	C	0.939915	0.000022	-0.309551
C116	C	1.273248	0.333355	0.023782
C117	C	1.606582	0.666689	0.357115
C118	C	0.946943	0.000029	-0.397036
C119	C	1.280277	0.333362	-0.063703
C120	C	1.613610	0.666696	0.269630
C121	C	0.994163	0.000001	0.111046
C122	C	1.327496	0.333334	0.444379
C123	C	1.660829	0.666668	0.777713
C124	C	0.987553	0.000012	0.193246
C125	C	1.320886	0.333345	0.526579
C126	C	1.654220	0.666678	0.859913
C127	C	0.913125	0.000016	0.229454
C128	C	1.246459	0.333349	0.562787
C129	C	1.579792	0.666682	0.896120
C130	C	0.845302	0.000020	0.183456
C131	C	1.178635	0.333354	0.516789
C132	C	1.511969	0.666687	0.850122
C133	C	0.851912	0.000018	0.101257
C134	C	1.185245	0.333351	0.434590
C135	C	1.518579	0.666684	0.767923
C136	C	0.885730	0.000031	0.474767
C137	C	1.219063	0.333365	0.808100
C138	C	1.552397	0.666698	1.141433
C139	C	0.879125	0.000030	0.556972
C140	C	1.212459	0.333364	0.890305
C141	C	1.545792	0.666697	1.223639
C142	C	1.021377	0.000024	0.566757
C143	C	1.354710	0.333357	0.900090
C144	C	1.688044	0.666691	1.233423
C145	C	1.027981	0.000014	0.484556
C146	C	1.361314	0.333348	0.817889
C147	C	1.694647	0.666681	1.151223
C148	C	0.960157	0.000025	0.438565
C149	C	1.293491	0.333358	0.771898
C150	C	1.626824	0.666692	1.105232
N151	N	0.906368	0.000023	0.313475
N152	N	1.239701	0.333356	0.646809
N153	N	1.573034	0.666690	0.980142
N154	N	0.966915	0.000026	0.354544
N155	N	1.300248	0.333359	0.687878
N156	N	1.633582	0.666692	1.021211
H157	H	0.166445	0.000024	-0.305946
H158	H	0.499778	0.333357	0.027387
H159	H	0.833111	0.666690	0.360721
H160	H	0.333326	-0.000007	-0.059855
H161	H	0.666659	0.333326	0.273478
H162	H	0.999993	0.666660	0.606811
N163	N	0.846805	-0.288268	-0.255768
N164	N	1.180138	0.045066	0.077565
N165	N	1.513471	0.378399	0.410898
H166	H	0.876603	-0.239155	-0.294985
H167	H	1.209936	0.094178	0.038348
H168	H	1.543269	0.427511	0.371682
H169	H	0.807610	-0.239248	-0.225890
H170	H	1.140943	0.094085	0.107443
H171	H	1.474276	0.427419	0.440777
H172	H	1.054770	-0.000009	0.081573
H173	H	1.388103	0.333324	0.414906
H174	H	1.721437	0.666657	0.748239
H175	H	0.184208	0.000010	-0.047864
H176	H	0.517541	0.333343	0.285469
H177	H	0.850874	0.666676	0.618803
N178	N	0.698661	0.000031	-0.303791
N179	N	1.031995	0.333365	0.029543
N180	N	1.365328	0.666698	0.362876
H181	H	0.657054	0.000028	-0.345754
H182	H	0.990387	0.333361	-0.012420
H183	H	1.323721	0.666694	0.320913
H184	H	0.736049	-0.069661	-0.306131
H185	H	1.069383	0.263673	0.027202
H186	H	1.402716	0.597006	0.360536
H187	H	0.706848	-0.000000	-0.026041
H188	H	1.040181	0.333333	0.307292
H189	H	1.373515	0.666666	0.640625
N190	N	0.527810	-0.000113	-0.290047
N191	N	0.861144	0.333220	0.043286
N192	N	1.194477	0.666554	0.376620
H193	H	0.563224	-0.000144	-0.338196
H194	H	0.896558	0.333189	-0.004863
H195	H	1.229891	0.666523	0.328471
H196	H	0.489958	0.069536	-0.293957
H197	H	0.823291	0.402870	0.039376
H198	H	1.156624	0.736203	0.372710
N199	N	1.060702	-0.000003	0.242850
N200	N	1.394035	0.333330	0.576183
N201	N	1.727368	0.666663	0.909517
H202	H	1.045223	0.000004	0.300417
H203	H	1.378557	0.333338	0.633750
H204	H	1.711890	0.666671	0.967083
H205	H	1.089427	0.069686	0.227117
H206	H	1.422761	0.403020	0.560450
H207	H	1.756094	0.736353	0.893784
H208	H	1.088588	0.000011	0.455082
H209	H	1.421921	0.333344	0.788415
H210	H	1.755254	0.666678	1.121749
H211	H	0.315576	0.000024	-0.317933
H212	H	0.648909	0.333357	0.015400
H213	H	0.982243	0.666690	0.348734
N214	N	1.094526	0.000011	0.616360
N215	N	1.427859	0.333344	0.949693
N216	N	1.761193	0.666677	1.283027
H217	H	1.079049	0.000012	0.673927
H218	H	1.412382	0.333346	1.007261
H219	H	1.745715	0.666679	1.340594
H220	H	1.123248	0.069704	0.600629
H221	H	1.456582	0.403037	0.933963
H222	H	1.789915	0.736371	1.267296
N223	N	0.798846	0.000036	0.596027
N224	N	1.132179	0.333370	0.929360
N225	N	1.465513	0.666703	1.262694
H226	H	0.756882	0.000046	0.554420
H227	H	1.090216	0.333379	0.887753
H228	H	1.423549	0.666713	1.221086
H229	H	0.789521	0.069731	0.626422
H230	H	1.122854	0.403064	0.959755
H231	H	1.456187	0.736397	1.293088
N232	N	0.548146	-0.000014	0.005623
N233	N	0.881479	0.333319	0.338957
N234	N	1.214812	0.666652	0.672290
H235	H	0.489094	-0.000010	-0.000481
H236	H	0.822427	0.333323	0.332853
H237	H	1.155760	0.666656	0.666186
H238	H	0.561159	0.069677	0.032031
H239	H	0.894492	0.403011	0.365365
H240	H	1.227826	0.736344	0.698698
H241	H	0.819595	-0.481413	-0.282971
H242	H	1.152928	-0.148080	0.050362
H243	H	1.486261	0.185253	0.383696
H244	H	0.830388	-0.696095	-0.272212
H245	H	1.163721	-0.362761	0.061121
H246	H	1.497054	-0.029428	0.394454
H247	H	1.012446	-0.696092	-0.090258
H248	H	1.345779	-0.362759	0.243076
H249	H	1.679112	-0.029425	0.576409
N250	N	0.765027	0.000014	0.222507
N251	N	1.098360	0.333347	0.555840
N252	N	1.431694	0.666681	0.889174
H253	H	0.723067	0.000015	0.180896
H254	H	1.056401	0.333349	0.514229
H255	H	1.389734	0.666682	0.847563
H256	H	0.755691	0.069707	0.252901
H257	H	1.089025	0.403040	0.586235
H258	H	1.422358	0.736374	0.919568
H259	H	1.053697	-0.518580	-0.049009
H260	H	1.387030	-0.185247	0.284325
H261	H	1.720363	0.148087	0.617658
N262	N	1.055387	-0.288241	-0.047294
N263	N	1.388720	0.045092	0.286040
N264	N	1.722054	0.378426	0.619373
H265	H	1.043557	-0.204296	-0.059110
H266	H	1.376890	0.129037	0.274223
H267	H	1.710224	0.462371	0.607557
H268	H	1.112838	-0.308909	-0.058879
H269	H	1.446172	0.024424	0.274454
H270	H	1.779505	0.357758	0.607787
N271	N	0.812581	0.000038	0.425169
N272	N	1.145914	0.333371	0.758502
N273	N	1.479248	0.666705	1.091835
H274	H	0.764431	0.000035	0.460582
H275	H	1.097764	0.333368	0.793915
H276	H	1.431098	0.666702	1.127248
H277	H	0.815717	-0.069657	0.394349
H278	H	1.149050	0.263676	0.727683
H279	H	1.482383	0.597010	1.061016
H280	H	0.796687	0.000019	0.063811
H281	H	1.130020	0.333352	0.397144
H282	H	1.463354	0.666686	0.730478
