data_functionalizedCrystal
_audit_creation_method	'MofGen! by Chris Wilmer'
_symmetry_space_group_name_H-M	'P1'
_symmetry_Int_Tables_number	1
_symmetry_cell_setting	triclinic
loop_
_symmetry_equiv_pos_as_xyz
  x,y,z
_cell_length_a	27.440280
_cell_length_b	27.440280
_cell_length_c	27.440280
_cell_angle_alpha	59.992548
_cell_angle_beta	89.998875
_cell_angle_gamma	59.994730
loop_
_atom_site_label
_atom_site_type_symbol
_atom_site_fract_x
_atom_site_fract_y
_atom_site_fract_z
Zr1	Zr	0.469470	0.533439	-0.064058
O2	O	0.391640	0.635130	-0.141888
O3	O	0.493332	0.431756	-0.040187
O4	O	0.493318	0.533442	-0.141876
O5	O	0.391662	0.533439	0.040001
O6	O	0.573520	0.533434	-0.141879
O7	O	0.391654	0.533445	-0.040200
O8	O	0.573545	0.351536	0.040023
O9	O	0.391637	0.715336	-0.141901
O10	O	0.563359	0.473570	-0.030023
O11	O	0.503511	0.473572	0.029833
O12	O	0.503495	0.593294	-0.089893
O13	O	0.443647	0.593296	-0.030037
Zr14	Zr	0.597396	0.533417	0.063849
Zr15	Zr	0.597383	0.533426	-0.064062
Zr16	Zr	0.469483	0.533430	0.063853
Zr17	Zr	0.469465	0.661358	-0.064078
Zr18	Zr	0.597401	0.405498	0.063869
O19	O	0.573534	0.635100	0.039978
O20	O	0.573516	0.635113	-0.141895
O21	O	0.391659	0.635118	0.039985
O22	O	0.675226	0.431725	0.141679
O23	O	0.675208	0.431738	-0.040194
O24	O	0.493350	0.431743	0.141686
O25	O	0.675204	0.533417	-0.040210
O26	O	0.573548	0.533414	0.141667
O27	O	0.493346	0.533422	0.141670
O28	O	0.675212	0.533411	0.039991
O29	O	0.493311	0.715327	-0.141905
O30	O	0.573555	0.351529	0.141696
O31	O	0.675229	0.351519	0.141692
O32	O	0.675219	0.351527	0.040020
O33	O	0.391648	0.715329	-0.040229
O34	O	0.493321	0.715319	-0.040233
O35	O	0.563371	0.473562	0.089683
O36	O	0.623219	0.473560	0.029828
O37	O	0.563355	0.593284	-0.030042
O38	O	0.503507	0.593286	0.029813
C39	C	0.533439	0.373420	-0.000079
C40	C	0.533441	0.319115	-0.000070
C41	C	0.489242	0.026624	-0.044311
C42	C	0.489242	-0.024393	-0.044317
O43	O	0.451672	-0.013194	-0.081912
N44	N	0.533431	-0.094104	-0.000128
C45	C	0.577627	-0.112799	0.044066
O46	O	0.615214	-0.176778	0.081652
C47	C	0.577629	-0.061782	0.044070
C48	C	0.533434	0.007930	-0.000119
C49	C	0.445050	0.096333	-0.088496
C50	C	0.445050	0.147346	-0.088489
C51	C	0.489242	0.128651	-0.044297
C52	C	0.533434	0.058943	-0.000111
C53	C	0.621827	-0.080477	0.088261
C54	C	0.621826	-0.029453	0.088260
C55	C	0.577631	0.040258	0.044072
C56	C	0.577625	0.091261	0.044088
N57	N	0.533436	0.160973	-0.000101
C58	C	0.489244	0.179668	-0.044293
C59	C	0.577619	-0.219934	0.044056
C60	C	0.577615	-0.270950	0.044055
C61	C	0.489230	-0.182540	-0.044329
C62	C	0.489233	-0.131524	-0.044325
C63	C	0.533430	-0.150222	-0.000133
C64	C	0.489247	0.286796	-0.044275
C65	C	0.489250	0.337810	-0.044262
C66	C	0.577636	0.249396	0.044120
C67	C	0.577632	0.198386	0.044109
C68	C	0.533435	0.217092	-0.000093
O69	O	0.615177	0.080114	0.081662
O70	O	0.451668	0.243647	-0.081877
C71	C	0.373434	0.533444	-0.000099
C72	C	0.319131	0.533449	-0.000097
C73	C	-0.017571	0.533416	-0.044289
C74	C	-0.068589	0.533411	-0.044289
O75	O	-0.094968	0.533388	-0.081853
N76	N	-0.094102	0.533409	-0.000107
C77	C	-0.068592	0.533405	0.044083
O78	O	-0.094977	0.533402	0.081664
C79	C	-0.017572	0.533405	0.044085
C80	C	0.007935	0.533414	-0.000104
C81	C	0.007937	0.533424	-0.088474
C82	C	0.058950	0.533430	-0.088474
C83	C	0.084457	0.533428	-0.044289
C84	C	0.058949	0.533420	-0.000104
C85	C	0.007940	0.533396	0.088276
C86	C	0.058963	0.533396	0.088275
C87	C	0.084471	0.533404	0.044086
C88	C	0.135469	0.533424	0.044081
N89	N	0.160982	0.533426	-0.000102
C90	C	0.135476	0.533428	-0.044287
C91	C	-0.175735	0.533404	0.044075
C92	C	-0.226756	0.533409	0.044071
C93	C	-0.226749	0.533413	-0.044300
C94	C	-0.175730	0.533413	-0.044298
C95	C	-0.150222	0.533406	-0.000107
C96	C	0.242608	0.533442	-0.044284
C97	C	0.293625	0.533451	-0.044282
C98	C	0.293616	0.533443	0.044091
C99	C	0.242601	0.533437	0.044087
C100	C	0.217100	0.533434	-0.000103
O101	O	0.161881	0.533445	0.081627
O102	O	0.161872	0.533422	-0.081857
C103	C	0.693433	0.533412	-0.000110
C104	C	0.747735	0.533407	-0.000112
C105	C	0.533417	0.533439	-0.160102
C106	C	0.533412	0.533443	-0.214404
C107	C	0.533427	0.693435	-0.000130
C108	C	0.533425	0.747741	-0.000139
C109	C	0.489246	0.533423	-0.449089
C110	C	0.489243	0.533424	-0.398070
O111	O	0.451678	0.533405	-0.371668
N112	N	0.533425	0.533425	-0.372558
C113	C	0.577616	0.533417	-0.398065
O114	O	0.615196	0.533417	-0.371681
C115	C	0.577621	0.533411	-0.449082
C116	C	0.533433	0.533417	-0.474594
C117	C	0.445062	0.533428	-0.474601
C118	C	0.445064	0.533428	-0.525618
C119	C	0.489251	0.533422	-0.551123
C120	C	0.533435	0.533417	-0.525611
C121	C	0.621813	0.533398	-0.474586
C122	C	0.621815	0.533391	-0.525605
C123	C	0.577627	0.533397	-0.551117
C124	C	0.577624	0.533411	-0.602132
N125	N	0.533442	0.533410	-0.627644
C126	C	0.489255	0.533416	-0.602139
C127	C	0.577603	0.533430	-0.290927
C128	C	0.577596	0.533441	-0.239915
C129	C	0.489224	0.533447	-0.239922
C130	C	0.489229	0.533440	-0.290938
C131	C	0.533421	0.533429	-0.316439
C132	C	0.489263	0.533416	-0.709278
C133	C	0.489268	0.533419	-0.760301
C134	C	0.577642	0.533409	-0.760287
C135	C	0.577635	0.533410	-0.709271
C136	C	0.533443	0.533411	-0.683766
O137	O	0.615171	0.533427	-0.628565
O138	O	0.451686	0.533407	-0.628525
C139	C	0.533449	0.533417	0.159893
C140	C	0.533455	0.533413	0.214194
C141	C	0.693439	0.373405	-0.000085
C142	C	0.747743	0.319094	-0.000078
C143	C	0.533455	0.373409	0.159918
C144	C	0.533463	0.319100	0.214229
C145	C	0.693455	0.373394	0.159913
C146	C	0.747765	0.319079	0.214221
C147	C	0.373411	0.693462	-0.160122
C148	C	0.319102	0.747777	-0.214430
C149	C	0.373428	0.693451	-0.000124
C150	C	0.319123	0.747761	-0.000131
C151	C	0.533411	0.693447	-0.160127
C152	C	0.533403	0.747756	-0.214438
C153	C	0.741999	0.293595	-0.031322
C154	C	0.793019	0.242572	-0.031328
C155	C	0.849782	0.217045	-0.000086
C156	C	0.855525	0.242550	0.031159
C157	C	0.804506	0.293576	0.031161
C158	C	0.564712	0.293591	0.270980
C159	C	0.564717	0.242569	0.322015
C160	C	0.533475	0.217054	0.316298
C161	C	0.502222	0.242568	0.259540
C162	C	0.502214	0.293593	0.208506
C163	C	0.804514	0.293572	0.208481
C164	C	0.855549	0.242545	0.259504
C165	C	0.849833	0.217023	0.316267
C166	C	0.793077	0.242536	0.322006
C167	C	0.742044	0.293565	0.270983
C168	C	0.262352	0.773290	-0.208690
C169	C	0.211317	0.824333	-0.259714
C170	C	0.217033	0.849857	-0.316477
C171	C	0.273789	0.824342	-0.322215
C172	C	0.324823	0.773304	-0.271192
C173	C	0.324867	0.773266	0.031107
C174	C	0.273847	0.824304	0.031099
C175	C	0.217084	0.849832	-0.000145
C176	C	0.211341	0.824325	-0.031387
C177	C	0.262360	0.773292	-0.031382
C178	C	0.564651	0.773255	-0.208701
C179	C	0.564656	0.824277	-0.259726
C180	C	0.533409	0.849803	-0.316488
C181	C	0.502160	0.824299	-0.322224
C182	C	0.502159	0.773274	-0.271199
H183	H	0.453259	0.302036	-0.080270
H184	H	0.695784	0.314378	-0.056770
H185	H	0.371029	0.752531	-0.275873
H186	H	0.257686	0.752511	-0.162475
H187	H	0.613573	0.533447	-0.219151
H188	H	0.657817	-0.137233	0.124244
H189	H	0.165109	0.845099	-0.255029
H190	H	0.809192	0.314331	0.056607
H191	H	-0.247525	0.533413	-0.080278
H192	H	0.476711	0.752518	-0.275878
H193	H	0.175474	0.891416	-0.358018
H194	H	0.165117	0.845118	-0.056825
H195	H	0.657796	0.533393	-0.453820
H196	H	0.409063	0.111567	-0.124485
H197	H	0.788331	0.221812	-0.056771
H198	H	0.657818	-0.044687	0.124248
H199	H	0.476719	0.845090	-0.368446
H200	H	0.901749	0.221759	0.056595
H201	H	0.891321	0.175496	-0.000091
H202	H	-0.154965	0.533420	-0.080280
H203	H	0.590153	0.314360	0.275647
H204	H	0.613589	0.533426	-0.311691
H205	H	0.476769	0.314356	0.162298
H206	H	0.221828	0.533440	0.080065
H207	H	0.590170	0.221801	0.368225
H208	H	0.533487	0.175507	0.357858
H209	H	0.409084	0.533430	-0.546386
H210	H	0.453279	0.533416	-0.688518
H211	H	0.613614	0.141622	0.080096
H212	H	0.278436	0.845131	-0.368438
H213	H	0.590102	0.845037	-0.255045
H214	H	0.453256	0.394574	-0.080245
H215	H	0.476786	0.221786	0.254894
H216	H	-0.247526	0.533412	0.080048
H217	H	0.278535	0.845063	0.056542
H218	H	0.809180	0.314345	0.162266
H219	H	0.901758	0.221778	0.254821
H220	H	0.533414	0.891350	-0.358031
H221	H	0.891393	0.175472	0.357809
H222	H	0.657803	0.533380	-0.546364
H223	H	0.695837	0.314326	0.275665
H224	H	0.409066	0.204105	-0.124476
H225	H	0.788432	0.221748	0.368230
H226	H	0.371083	0.752485	0.056554
H227	H	0.175545	0.891386	-0.000144
H228	H	0.257675	0.752527	-0.056818
H229	H	-0.154972	0.533403	0.080060
H230	H	0.590097	0.752479	-0.162487
H231	H	0.453241	-0.074764	-0.080304
H232	H	0.613598	-0.327710	0.080043
H233	H	0.613610	-0.235169	0.080048
H234	H	0.453249	-0.167326	-0.080314
H235	H	0.613617	0.533408	-0.781063
H236	H	0.613614	0.234185	0.080101
H237	H	0.453283	0.533425	-0.781072
H238	H	0.314391	0.533460	-0.080268
H239	H	0.221851	0.533438	-0.080267
H240	H	0.079717	0.533434	-0.124455
H241	H	0.409080	0.533430	-0.453839
H242	H	-0.012825	0.533423	-0.124455
H243	H	0.453246	0.533450	-0.219146
H244	H	-0.012821	0.533388	0.124259
H245	H	0.314389	0.533444	0.080065
H246	H	0.453248	0.533445	-0.311707
H247	H	0.079731	0.533387	0.124262
H248	H	0.613612	0.533415	-0.688503
