data_functionalizedCrystal
_audit_creation_method	'MofGen! by Chris Wilmer'
_symmetry_space_group_name_H-M	'P1'
_symmetry_Int_Tables_number	1
_symmetry_cell_setting	triclinic
loop_
_symmetry_equiv_pos_as_xyz
  x,y,z
_cell_length_a	21.295419
_cell_length_b	21.295417
_cell_length_c	17.077396
_cell_angle_alpha	89.967021
_cell_angle_beta	89.982665
_cell_angle_gamma	90.044503
loop_
_atom_site_label
_atom_site_type_symbol
_atom_site_fract_x
_atom_site_fract_y
_atom_site_fract_z
Zn1	Zn	0.962314	-0.250355	-0.443825
Zn2	Zn	0.962231	-0.355630	-0.312550
Zn3	Zn	0.857051	-0.250406	-0.312573
Zn4	Zn	0.857008	-0.355618	-0.443774
O5	O	0.909651	-0.303002	-0.378180
O6	O	1.050393	-0.264304	-0.426423
O7	O	0.948262	-0.341698	-0.202706
O8	O	0.871067	-0.162310	-0.330014
O9	O	1.050332	-0.341649	-0.329976
O10	O	0.948403	-0.162273	-0.426445
O11	O	0.870986	-0.264390	-0.202723
O12	O	0.768956	-0.264378	-0.329965
O13	O	0.870994	-0.341628	-0.553628
O14	O	0.768925	-0.341677	-0.426358
O15	O	0.948362	-0.264293	-0.553665
O16	O	0.948221	-0.443718	-0.329927
O17	O	0.870914	-0.443709	-0.426336
C18	C	0.746100	-0.303033	-0.378158
C19	C	0.676132	-0.303061	-0.378168
C20	C	0.643319	-0.262853	-0.428465
C21	C	0.577577	-0.262836	-0.428468
C22	C	0.544649	-0.303038	-0.378182
C23	C	0.577469	-0.343248	-0.327875
C24	C	0.643211	-0.343260	-0.327867
N25	N	0.441375	-0.358116	-0.372048
N26	N	0.378924	-0.358104	-0.372060
C27	C	0.346574	-0.303005	-0.378199
N28	N	0.379036	-0.247919	-0.384342
N29	N	0.441493	-0.247932	-0.384335
C30	C	0.473364	-0.303030	-0.378184
C31	C	0.242476	-0.262776	-0.428503
C32	C	0.176733	-0.262758	-0.428500
C33	C	0.176627	-0.343176	-0.327911
C34	C	0.242369	-0.343188	-0.327909
C35	C	0.275290	-0.302989	-0.378209
C36	C	0.909571	-0.466554	-0.378141
C37	C	0.909594	-0.536522	-0.378150
C38	C	0.949840	-0.569312	-0.428397
C39	C	0.949863	-0.635055	-0.428416
C40	C	0.909645	-0.668005	-0.378175
C41	C	0.869391	-0.635206	-0.327924
C42	C	0.869366	-0.569465	-0.327911
N43	N	0.904893	-0.771270	-0.309476
N44	N	0.904921	-0.833721	-0.309490
C45	C	0.909719	-0.866079	-0.378210
N46	N	0.914500	-0.833626	-0.446917
N47	N	0.914476	-0.771169	-0.446902
C48	C	0.909668	-0.739290	-0.378183
C49	C	0.949991	-0.970155	-0.428483
C50	C	0.950009	-1.035899	-0.428503
C51	C	0.869541	-1.036049	-0.328004
C52	C	0.869520	-0.970307	-0.327990
C53	C	0.909748	-0.937363	-0.378228
C54	C	1.073842	-0.302972	-0.378203
C55	C	1.143810	-0.302960	-0.378213
C56	C	0.909683	-0.302954	-0.582925
C57	C	0.909696	-0.302933	-0.670175
C58	C	0.909749	-0.138812	-0.378237
C59	C	0.909791	-0.068844	-0.378262
C60	C	0.869471	-0.262674	-0.711173
C61	C	0.869481	-0.262659	-0.793153
C62	C	0.909721	-0.302901	-0.834134
C63	C	0.949948	-0.343165	-0.793130
C64	C	0.949934	-0.343182	-0.711151
C65	C	0.949975	-0.343126	-0.964000
C66	C	0.949990	-0.343108	-1.045985
C67	C	0.869523	-0.262603	-1.046002
C68	C	0.869509	-0.262620	-0.964023
C69	C	0.909737	-0.302883	-0.923025
C70	C	0.909656	-0.303005	-0.174233
C71	C	0.909764	-0.302849	-0.086983
H72	H	0.269085	-0.375933	-0.286955
H73	H	0.982631	-0.661758	-0.469343
H74	H	0.836645	-0.662038	-0.287018
H75	H	0.982782	-1.062595	-0.469424
O76	O	0.830251	-0.537707	-0.279022
C77	C	0.750412	-0.544794	-0.179380
C78	C	0.794687	-0.580839	-0.234696
H79	H	0.721637	-0.579650	-0.143540
H80	H	0.779292	-0.514025	-0.138309
H81	H	0.717497	-0.514013	-0.215389
H82	H	0.827611	-0.611654	-0.198750
H83	H	0.765768	-0.611568	-0.275770
H84	H	0.836750	-0.943607	-0.287071
O85	O	0.545458	-0.382369	-0.279141
C86	C	0.471124	-0.467311	-0.268395
C87	C	0.507347	-0.423057	-0.323680
H88	H	0.440292	-0.500210	-0.304382
H89	H	0.505843	-0.496099	-0.232457
H90	H	0.440386	-0.438351	-0.227406
H91	H	0.538086	-0.451969	-0.364717
H92	H	0.472594	-0.394268	-0.359564
O93	O	0.830390	-0.223617	-0.924128
C94	C	0.745367	-0.215189	-0.831598
C95	C	0.789641	-0.259429	-0.876715
H96	H	0.712402	-0.244127	-0.793266
H97	H	0.774247	-0.182288	-0.793179
H98	H	0.716646	-0.186397	-0.874996
H99	H	0.818372	-0.288262	-0.833373
H100	H	0.760725	-0.292289	-0.915145
O101	O	0.989102	-0.382167	-0.832973
C102	C	1.074076	-0.390603	-0.925572
C103	C	1.029781	-0.346362	-0.880488
H104	H	1.106967	-0.361673	-0.964011
H105	H	1.102870	-0.419371	-0.882221
H106	H	1.045148	-0.423526	-0.963902
H107	H	1.058661	-0.313401	-0.842156
H108	H	1.000985	-0.317638	-0.923880
H109	H	0.149818	-0.375909	-0.286967
O110	O	0.830455	-0.223560	-1.085945
C111	C	0.794819	-0.187845	-1.212246
C112	C	0.839084	-0.232099	-1.167105
H113	H	0.801791	-0.194724	-1.277872
H114	H	0.744041	-0.198920	-1.196165
H115	H	0.805888	-0.137092	-1.196110
H116	H	0.828072	-0.282867	-1.183217
H117	H	0.889850	-0.220970	-1.183190
H118	H	0.982756	-0.375876	-1.079350
H119	H	0.836724	-0.229879	-0.826530
H120	H	0.982738	-0.375906	-0.930622
O121	O	0.989078	-0.938247	-0.477366
C122	C	1.068908	-0.945034	-0.577028
C123	C	1.024667	-0.981246	-0.521718
H124	H	1.097703	-0.979783	-0.612889
H125	H	1.040000	-0.914283	-0.618082
H126	H	1.101806	-0.914221	-0.541015
H127	H	0.991760	-1.012093	-0.557668
H128	H	1.053614	-1.011957	-0.480662
O129	O	0.988977	-0.382377	-0.671408
C130	C	1.019430	-0.489459	-0.646249
C131	C	0.975188	-0.445137	-0.691320
H132	H	1.008289	-0.540210	-0.662318
H133	H	1.070210	-0.478448	-0.662388
H134	H	1.012516	-0.482527	-0.580622
H135	H	0.982046	-0.452044	-0.756957
H136	H	0.924424	-0.456159	-0.675115
O137	O	0.675226	-0.223829	-0.477427
C138	C	0.695436	-0.193430	-0.611021
C139	C	0.659251	-0.237655	-0.555662
H140	H	0.682544	-0.204601	-0.674286
H141	H	0.682537	-0.142646	-0.597416
H142	H	0.748058	-0.200329	-0.602338
H143	H	0.606621	-0.230812	-0.564314
H144	H	0.672202	-0.288423	-0.569281
O145	O	0.545623	-0.223867	-0.477371
C146	C	0.471466	-0.215515	-0.583409
C147	C	0.507600	-0.259715	-0.528064
H148	H	0.440726	-0.244480	-0.624419
H149	H	0.440662	-0.182567	-0.547496
H150	H	0.506299	-0.186771	-0.619321
H151	H	0.472813	-0.288500	-0.492139
H152	H	0.538413	-0.292621	-0.564021
H153	H	0.669926	-0.376003	-0.286908
O154	O	0.988978	-0.537283	-0.477090
C155	C	1.073904	-0.462921	-0.487740
C156	C	1.029633	-0.499169	-0.432505
H157	H	1.106776	-0.432088	-0.451716
H158	H	1.102720	-0.497625	-0.523646
H159	H	1.044956	-0.432183	-0.528762
H160	H	1.058533	-0.529909	-0.391435
H161	H	1.000815	-0.464432	-0.396654
H162	H	0.836791	-1.062876	-0.287101
H163	H	0.836707	-0.229900	-0.677812
H164	H	0.150018	-0.230012	-0.469457
O165	O	0.274363	-0.223667	-0.477384
C166	C	0.267531	-0.143935	-0.577192
C167	C	0.231344	-0.188181	-0.521860
H168	H	0.232766	-0.115242	-0.613177
H169	H	0.298317	-0.110947	-0.541267
H170	H	0.298307	-0.172897	-0.618134
H171	H	0.200534	-0.159270	-0.480906
H172	H	0.200598	-0.221170	-0.557833
