data_functionalizedCrystal
_audit_creation_method	'MofGen! by Chris Wilmer'
_symmetry_space_group_name_H-M	'P1'
_symmetry_Int_Tables_number	1
_symmetry_cell_setting	triclinic
loop_
_symmetry_equiv_pos_as_xyz
  x,y,z
_cell_length_a	19.121063
_cell_length_b	18.101398
_cell_length_c	18.101390
_cell_angle_alpha	90.008947
_cell_angle_beta	92.404924
_cell_angle_gamma	87.536641
loop_
_atom_site_label
_atom_site_type_symbol
_atom_site_fract_x
_atom_site_fract_y
_atom_site_fract_z
Zn1	Zn	-0.279683	-1.119561	-0.431092
Zn2	Zn	0.220317	-0.619561	0.068908
Zn3	Zn	-0.397147	-1.114180	-0.312528
Zn4	Zn	0.102853	-0.614180	0.187472
Zn5	Zn	-0.279704	-0.995718	-0.307288
Zn6	Zn	0.220296	-0.495718	0.192712
Zn7	Zn	-0.397086	-0.990397	-0.436348
Zn8	Zn	0.102914	-0.490397	0.063652
O9	O	-0.338405	-1.054964	-0.371814
O10	O	0.161595	-0.554964	0.128186
O11	O	-0.295281	-1.222479	-0.415358
O12	O	0.204719	-0.722479	0.084642
O13	O	-0.381602	-1.098440	-0.208201
O14	O	0.118398	-0.598440	0.291799
O15	O	-0.181417	-1.016625	-0.319319
O16	O	0.318583	-0.516625	0.180681
O17	O	-0.381581	-1.218526	-0.328249
O18	O	0.118419	-0.718526	0.171751
O19	O	-0.181402	-1.107612	-0.410277
O20	O	0.318598	-0.607612	0.089723
O21	O	-0.295318	-1.011407	-0.204352
O22	O	0.204682	-0.511407	0.295648
O23	O	-0.295259	-0.891380	-0.324415
O24	O	0.204741	-0.391380	0.175585
O25	O	-0.381478	-1.007556	-0.539282
O26	O	0.118522	-0.507556	-0.039282
O27	O	-0.381499	-0.887471	-0.419234
O28	O	0.118501	-0.387471	0.080766
O29	O	-0.295222	-1.102452	-0.535421
O30	O	0.204778	-0.602452	-0.035421
O31	O	-0.495423	-1.093281	-0.333345
O32	O	0.004577	-0.593281	0.166655
O33	O	-0.495378	-1.002338	-0.424315
O34	O	0.004622	-0.502338	0.075685
C35	C	-0.338375	-0.862555	-0.371827
C36	C	0.161625	-0.362555	0.128173
C37	C	-0.338379	-0.780240	-0.371851
C38	C	0.161621	-0.280240	0.128149
C39	C	-0.338417	-0.481148	-0.371827
C40	C	0.161583	0.018852	0.128173
C41	C	-0.392939	-0.510026	-0.431214
C42	C	0.107061	-0.010026	0.068786
C43	C	-0.392770	-0.595652	-0.431439
C44	C	0.107230	-0.095652	0.068561
C45	C	-0.338399	-0.629531	-0.371839
C46	C	0.161601	-0.129531	0.128161
C47	C	-0.264420	-0.601800	-0.389844
C48	C	0.235580	-0.101800	0.110156
C49	C	-0.264747	-0.516140	-0.390265
C50	C	0.235253	-0.016140	0.109735
C51	C	-0.357220	-0.511850	-0.294269
C52	C	0.142780	-0.011850	0.205731
C53	C	-0.358845	-0.597427	-0.294759
C54	C	0.141155	-0.097427	0.205241
C55	C	-0.338384	-0.713391	-0.371844
C56	C	0.161616	-0.213391	0.128156
C57	C	-0.338426	-0.397288	-0.371824
C58	C	0.161574	0.102712	0.128176
C59	C	-0.520884	-1.046668	-0.379985
C60	C	-0.020884	-0.546668	0.120015
C61	C	-0.598950	-1.043187	-0.383505
C62	C	-0.098950	-0.543187	0.116495
C63	C	-0.635625	-1.088937	-0.337835
C64	C	-0.135625	-0.588937	0.162165
C65	C	-0.708976	-1.085668	-0.341150
C66	C	-0.208976	-0.585668	0.158850
C67	C	-0.745650	-1.036644	-0.390132
C68	C	-0.245650	-0.536644	0.109868
C69	C	-0.708969	-0.990891	-0.435807
C70	C	-0.208969	-0.490891	0.064193
C71	C	-0.635620	-0.994165	-0.432495
C72	C	-0.135620	-0.494165	0.067505
C73	C	-0.967118	-1.024391	-0.402502
C74	C	-0.467118	-0.524391	0.097498
C75	C	-1.040472	-1.021119	-0.405809
C76	C	-0.540472	-0.521119	0.094191
C77	C	-1.040473	-1.115897	-0.311153
C78	C	-0.540473	-0.615897	0.188847
C79	C	-0.967123	-1.119163	-0.307842
C80	C	-0.467123	-0.619163	0.192158
C81	C	-0.930449	-1.073414	-0.353520
C82	C	-0.430449	-0.573414	0.146480
C83	C	-0.820626	-1.033299	-0.393520
C84	C	-0.320626	-0.533299	0.106480
C85	C	-0.855474	-1.076763	-0.350135
C86	C	-0.355474	-0.576763	0.149865
C87	C	-0.155213	-1.063312	-0.363628
C88	C	0.344787	-0.563312	0.136372
C89	C	-0.077148	-1.066870	-0.360139
C90	C	0.422852	-0.566870	0.139861
C91	C	-0.338341	-1.055011	-0.564973
C92	C	0.161659	-0.555011	-0.064973
C93	C	-0.338313	-1.055031	-0.647286
C94	C	0.161687	-0.555031	-0.147286
C95	C	-0.338432	-0.248124	-0.371806
C96	C	0.161568	0.251876	0.128194
C97	C	-0.338436	-0.330438	-0.371816
C98	C	0.161564	0.169562	0.128184
C99	C	-0.338270	-1.055073	-0.946375
C100	C	0.161730	-0.555073	-0.446375
C101	C	-0.284191	-1.114959	-0.912629
C102	C	0.215809	-0.614959	-0.412629
C103	C	-0.283990	-1.114789	-0.827002
C104	C	0.216010	-0.614789	-0.327002
C105	C	-0.338291	-1.055053	-0.797994
C106	C	0.161709	-0.555053	-0.297994
C107	C	-0.318176	-0.977939	-0.828178
C108	C	0.181824	-0.477939	-0.328178
C109	C	-0.317770	-0.978302	-0.913805
C110	C	0.182230	-0.478302	-0.413805
C111	C	-0.412603	-1.071606	-0.918123
C112	C	0.087397	-0.571606	-0.418123
C113	C	-0.412224	-1.073336	-0.832456
C114	C	0.087776	-0.573336	-0.332456
C115	C	-0.338305	-1.055036	-0.714135
C116	C	0.161695	-0.555036	-0.214135
C117	C	-0.338254	-1.055084	-1.030234
C118	C	0.161746	-0.555084	-0.530234
C119	C	-0.338418	-1.054962	-0.179404
C120	C	0.161582	-0.554962	0.320596
C121	C	-0.338248	-1.055094	-0.097083
C122	C	0.161752	-0.555094	0.402917
H123	H	-0.248799	-0.496896	-0.446865
H124	H	0.251201	0.003104	0.053135
H125	H	-0.229431	-1.104431	-0.931709
H126	H	0.270569	-0.604431	-0.431709
Br127	Br	-0.449584	-0.627176	-0.272028
Br128	Br	0.050416	-0.127176	0.227972
Br129	Br	-1.090249	-1.177986	-0.249169
Br130	Br	-0.590249	-0.677986	0.250831
Br131	Br	-0.758741	-0.924364	-0.502290
Br132	Br	-0.258741	-0.424364	-0.002290
H133	H	-0.605760	-0.956911	-0.469685
H134	H	-0.105760	-0.456911	0.030315
Br135	Br	-0.479761	-0.998837	-0.954889
Br136	Br	0.020239	-0.498837	-0.454889
H137	H	-0.355445	-0.932343	-0.936213
H138	H	0.144555	-0.432343	-0.436213
Br139	Br	-0.484212	-0.626542	-0.413300
Br140	Br	0.015788	-0.126542	0.086700
Br141	Br	-0.297461	-0.635845	-0.217492
Br142	Br	0.202539	-0.135845	0.282508
H143	H	-0.228923	-1.104108	-0.804058
H144	H	0.271077	-0.604108	-0.304058
H145	H	-0.380328	-0.616714	-0.488970
H146	H	0.119672	-0.116714	0.011030
H147	H	-0.222667	-0.497308	-0.348806
H148	H	0.277333	0.002692	0.151194
H149	H	-0.447977	-0.486939	-0.420469
H150	H	0.052023	0.013061	0.079531
Br151	Br	-0.372485	-0.475075	-0.526557
Br152	Br	0.127515	0.024925	-0.026557
H153	H	-0.222696	-0.624038	-0.347792
H154	H	0.277304	-0.124038	0.152208
H155	H	-0.850494	-0.993382	-0.433400
H156	H	-0.350494	-0.493382	0.066600
Br157	Br	-0.237356	-0.638788	-0.483119
Br158	Br	0.262644	-0.138788	0.016881
H159	H	-0.263433	-0.963895	-0.931358
H160	H	0.236567	-0.463895	-0.431358
H161	H	-0.296588	-1.172074	-0.806549
H162	H	0.203412	-0.672074	-0.306549
Br163	Br	-1.090245	-0.954569	-0.472277
Br164	Br	-0.590245	-0.454569	0.027723
H165	H	-0.317506	-0.493375	-0.250061
H166	H	0.182494	0.006625	0.249939
Br167	Br	-0.445586	-0.471843	-0.265925
Br168	Br	0.054414	0.028157	0.234075
H169	H	-0.605770	-1.128855	-0.297945
H170	H	-0.105770	-0.628855	0.202055
H171	H	-0.296633	-1.172440	-0.933780
H172	H	0.203367	-0.672440	-0.433780
H173	H	-0.738833	-1.122922	-0.303960
H174	H	-0.238833	-0.622922	0.196040
H175	H	-0.937264	-0.987139	-0.439694
H176	H	-0.437264	-0.487139	0.060306
H177	H	-0.937264	-1.159083	-0.267957
H178	H	-0.437264	-0.659083	0.232043
H179	H	-0.825611	-1.116682	-0.310257
H180	H	-0.325611	-0.616682	0.189743
H181	H	-0.356351	-0.932253	-0.809522
H182	H	0.143649	-0.432253	-0.309522
Br183	Br	-0.228613	-0.953371	-0.788437
Br184	Br	0.271387	-0.453371	-0.288437
H185	H	-0.430918	-1.126676	-0.940580
H186	H	0.069082	-0.626676	-0.440580
Br187	Br	-0.437506	-1.167897	-0.799732
Br188	Br	0.062494	-0.667897	-0.299732
H189	H	-0.454682	-1.032623	-0.812953
H190	H	0.045318	-0.532623	-0.312953
