data_functionalizedCrystal
_audit_creation_method	'MofGen! by Chris Wilmer'
_symmetry_space_group_name_H-M	'P1'
_symmetry_Int_Tables_number	1
_symmetry_cell_setting	triclinic
loop_
_symmetry_equiv_pos_as_xyz
  x,y,z
_cell_length_a	14.044220
_cell_length_b	27.732048
_cell_length_c	12.503572
_cell_angle_alpha	93.489054
_cell_angle_beta	86.164750
_cell_angle_gamma	87.915767
loop_
_atom_site_label
_atom_site_type_symbol
_atom_site_fract_x
_atom_site_fract_y
_atom_site_fract_z
O1	O	1.261499	0.113903	-0.089228
O2	O	1.761499	0.613903	0.410772
O3	O	0.985593	0.109700	-0.089254
O4	O	1.485593	0.609700	0.410746
O5	O	1.132113	0.041807	-0.089220
O6	O	1.632113	0.541807	0.410780
O7	O	1.114978	0.181795	-0.089262
O8	O	1.614978	0.681795	0.410738
O9	O	1.121094	0.046922	0.089419
O10	O	1.621094	0.546922	0.589419
O11	O	0.974573	0.114815	0.089385
O12	O	1.474573	0.614815	0.589385
O13	O	1.250479	0.119018	0.089411
O14	O	1.750479	0.619018	0.589411
Cu15	Cu	1.111520	0.117384	0.105709
Cu16	Cu	1.611520	0.617384	0.605709
Cu17	Cu	1.124552	0.111334	-0.105552
Cu18	Cu	1.624552	0.611334	0.394448
O19	O	1.103958	0.186910	0.089377
O20	O	1.603958	0.686910	0.589377
C21	C	0.944796	0.110418	0.000062
C22	C	1.444796	0.610418	0.500062
C23	C	0.839651	0.104930	0.000053
C24	C	1.339651	0.604930	0.500053
C25	C	0.647135	0.094899	0.000077
C26	C	1.147135	0.594899	0.500077
C27	C	0.588932	0.133816	0.000070
C28	C	1.088932	0.633816	0.500070
C29	C	0.481809	0.128235	0.000084
C30	C	0.981809	0.628235	0.500084
C31	C	0.754267	0.100480	0.000064
C32	C	1.254267	0.600480	0.500064
C33	C	1.126244	0.026341	0.000103
C34	C	1.626244	0.526341	0.500103
C35	C	1.125160	-0.027364	0.000111
C36	C	1.625160	0.472636	0.500111
C37	C	1.204929	-0.362437	0.000064
C38	C	1.704929	0.137563	0.500064
C39	C	1.200910	-0.564286	0.000049
C40	C	1.700910	-0.064286	0.500049
O41	O	1.273853	-0.592120	0.000008
O42	O	1.773853	-0.092120	0.500008
N43	N	1.114029	-0.587487	0.000041
N44	N	1.614029	-0.087487	0.500041
C45	C	1.028146	-0.560223	0.000031
C46	C	1.528146	-0.060223	0.500031
O47	O	0.954156	-0.584589	0.000013
O48	O	1.454156	-0.084589	0.500013
C49	C	1.032166	-0.358376	0.000038
C50	C	1.532166	0.141624	0.500038
C51	C	1.119052	-0.335177	0.000057
C52	C	1.619052	0.164823	0.500057
C53	C	1.291808	-0.339238	0.000081
C54	C	1.791808	0.160762	0.500081
C55	C	1.292811	-0.288779	0.000091
C56	C	1.792811	0.211221	0.500091
C57	C	1.206935	-0.261519	0.000083
C58	C	1.706935	0.238481	0.500083
C59	C	1.120056	-0.284718	0.000066
C60	C	1.620056	0.215282	0.500066
C61	C	0.946285	-0.331113	0.000020
C62	C	1.446285	0.168887	0.500020
C63	C	0.947297	-0.280648	0.000019
C64	C	1.447297	0.219352	0.500019
C65	C	1.034184	-0.257449	0.000038
C66	C	1.534184	0.242551	0.500038
C67	C	1.035183	-0.206998	0.000069
C68	C	1.535183	0.293002	0.500069
N69	N	1.122064	-0.183797	0.000076
N70	N	1.622064	0.316203	0.500076
C71	C	1.207940	-0.211057	0.000083
C72	C	1.707940	0.288943	0.500083
C73	C	1.026041	-0.666196	0.000029
C74	C	1.526041	-0.166196	0.500029
C75	C	1.025036	-0.716658	0.000029
C76	C	1.525036	-0.216658	0.500029
C77	C	1.197801	-0.720717	0.000045
C78	C	1.697801	-0.220717	0.500045
C79	C	1.198805	-0.670254	0.000052
C80	C	1.698805	-0.170254	0.500052
C81	C	1.112923	-0.642995	0.000036
C82	C	1.612923	-0.142995	0.500036
C83	C	1.210041	-0.105089	0.000105
C84	C	1.710041	0.394911	0.500105
C85	C	1.211036	-0.054625	0.000119
C86	C	1.711036	0.445375	0.500119
C87	C	1.038272	-0.050570	0.000097
C88	C	1.538272	0.449430	0.500097
C89	C	1.037276	-0.101029	0.000089
C90	C	1.537276	0.398971	0.500089
C91	C	1.123168	-0.128288	0.000089
C92	C	1.623168	0.371712	0.500089
O93	O	0.962280	-0.179134	0.000097
O94	O	1.462280	0.320866	0.500097
O95	O	1.281921	-0.186683	0.000077
O96	O	1.781921	0.313317	0.500077
C97	C	1.203925	-0.412897	0.000054
C98	C	1.703925	0.087103	0.500054
C99	C	1.117046	-0.436096	0.000037
C100	C	1.617046	0.063904	0.500037
C101	C	1.031169	-0.408835	0.000030
C102	C	1.531169	0.091165	0.500030
C103	C	1.116040	-0.486557	0.000037
C104	C	1.616040	0.013443	0.500037
C105	C	1.201917	-0.513818	0.000044
C106	C	1.701917	-0.013818	0.500044
C107	C	1.288798	-0.490616	0.000052
C108	C	1.788798	0.009384	0.500052
C109	C	1.289801	-0.440157	0.000061
C110	C	1.789801	0.059843	0.500061
C111	C	0.944288	-0.432037	0.000023
C112	C	1.444288	0.067963	0.500023
C113	C	0.943291	-0.482496	0.000014
C114	C	1.443291	0.017504	0.500014
C115	C	1.029168	-0.509756	0.000021
C116	C	1.529168	-0.009756	0.500021
C117	C	1.291276	0.118300	0.000092
C118	C	1.791276	0.618300	0.500092
C119	C	1.396422	0.123787	0.000094
C120	C	1.896422	0.623787	0.500094
C121	C	1.109828	0.202377	0.000052
C122	C	1.609828	0.702377	0.500052
C123	C	1.110912	0.256082	0.000036
C124	C	1.610912	0.756082	0.500036
N125	N	1.102361	0.121638	0.254299
N126	N	1.602361	0.621638	0.754299
N127	N	1.133718	0.107076	-0.254143
N128	N	1.633718	0.607076	0.245857
C129	C	1.088888	0.127901	0.473411
C130	C	1.588888	0.627901	0.973411
C131	C	1.147188	0.100815	0.526752
C132	C	1.647188	0.600815	1.026752
C133	C	1.139692	0.104299	0.648674
C134	C	1.639692	0.604299	1.148674
C135	C	1.096383	0.124417	0.351479
C136	C	1.596383	0.624417	0.851479
H137	H	0.616514	0.057393	0.000095
H138	H	1.116514	0.557393	0.500095
F139	F	1.303517	-0.029938	0.000137
F140	F	1.803517	0.470062	0.500137
H141	H	0.619555	0.171325	0.000054
H142	H	1.119555	0.671325	0.500054
H143	H	1.358721	-0.512821	0.000062
H144	H	1.858721	-0.012821	0.500062
H145	H	1.033350	0.153706	0.519306
H146	H	1.533350	0.653706	1.019306
F147	F	1.301457	-0.134092	0.000104
F148	F	1.801457	0.365908	0.500104
H149	H	1.361743	-0.361429	0.000083
H150	H	1.861743	0.138571	0.500083
F151	F	1.385290	-0.264096	0.000087
F152	F	1.885290	0.235904	0.500087
F153	F	1.291280	-0.645569	0.000071
F154	F	1.791280	-0.145569	0.500071
F155	F	0.852881	-0.403031	0.000012
F156	F	1.352881	0.096969	0.500012
H157	H	1.267725	-0.742921	0.000051
H158	H	1.767725	-0.242921	0.500051
F159	F	0.932559	-0.741342	0.000029
F160	F	1.432559	-0.241342	0.500029
H161	H	0.956102	-0.644006	0.000016
H162	H	1.456102	-0.144006	0.500016
H163	H	0.875533	-0.349993	-0.000001
H164	H	1.375533	0.150007	0.499999
H165	H	0.877360	-0.258456	0.000005
H166	H	1.377360	0.241544	0.500005
F167	F	0.944801	-0.125720	0.000089
F168	F	1.444801	0.374280	0.500089
F169	F	0.946881	-0.021549	0.000090
F170	F	1.446881	0.478451	0.500090
F171	F	1.382279	-0.415474	0.000074
F172	F	1.882279	0.084526	0.500074
H173	H	0.872532	-0.501380	0.000009
H174	H	1.372532	-0.001380	0.500009
F175	F	1.220068	0.067240	0.466762
F176	F	1.720068	0.567240	0.966762
