data_functionalizedCrystal
_audit_creation_method	'MofGen! by Chris Wilmer'
_symmetry_space_group_name_H-M	'P1'
_symmetry_Int_Tables_number	1
_symmetry_cell_setting	triclinic
loop_
_symmetry_equiv_pos_as_xyz
  x,y,z
_cell_length_a	12.827892
_cell_length_b	12.827893
_cell_length_c	12.827885
_cell_angle_alpha	89.978811
_cell_angle_beta	90.029786
_cell_angle_gamma	89.986399
loop_
_atom_site_label
_atom_site_type_symbol
_atom_site_fract_x
_atom_site_fract_y
_atom_site_fract_z
Zn1	Zn	-0.416032	-1.597670	0.590902
Zn2	Zn	-0.590810	-1.597564	0.416162
Zn3	Zn	-0.416078	-1.422911	0.416170
Zn4	Zn	-0.590727	-1.422896	0.590857
O5	O	-0.503412	-1.510260	0.503523
O6	O	-0.439233	-1.743892	0.567738
O7	O	-0.567685	-1.574358	0.269927
O8	O	-0.269836	-1.446144	0.439371
O9	O	-0.567641	-1.743814	0.439358
O10	O	-0.269802	-1.574538	0.567746
O11	O	-0.439310	-1.446041	0.269933
O12	O	-0.439230	-1.276673	0.439327
O13	O	-0.567499	-1.446118	0.737099
O14	O	-0.567543	-1.276662	0.567668
O15	O	-0.439152	-1.574524	0.737132
O16	O	-0.737035	-1.574343	0.439314
O17	O	-0.736974	-1.446016	0.567661
C18	C	-0.503383	-1.238750	0.503494
C19	C	-0.503396	-1.122597	0.503506
C20	C	-0.439967	-1.070851	0.567130
C21	C	-0.439979	-0.950800	0.567144
C22	C	-0.774922	-1.510195	0.503504
C23	C	-0.891075	-1.510262	0.503531
C24	C	-0.942855	-1.573838	0.440092
C25	C	-1.062905	-1.573910	0.440118
C26	C	-0.230841	-1.510354	0.503564
C27	C	-0.114688	-1.510394	0.503582
C28	C	-0.503311	-1.510331	0.776093
C29	C	-0.503269	-1.510362	0.892246
C30	C	-0.503432	-0.782830	0.503544
C31	C	-0.503419	-0.898983	0.503532
C32	C	-0.503436	-1.510249	0.232013
C33	C	-0.503185	-1.510422	0.115860
C34	C	-0.439746	-1.573907	0.944048
C35	C	-0.439700	-1.573940	1.064098
H36	H	-0.557707	-1.078022	0.449044
H37	H	-0.557732	-0.943477	0.449064
O38	O	-0.889674	-1.638562	0.375158
C39	C	-0.766355	-1.652511	0.234214
C40	C	-0.826533	-1.579091	0.307670
H41	H	-0.715274	-1.604460	0.179646
H42	H	-0.823963	-1.700373	0.186373
H43	H	-0.715220	-1.707071	0.282300
H44	H	-0.877669	-1.524469	0.259665
H45	H	-0.768869	-1.531303	0.355514
O46	O	-0.568026	-1.445370	1.062849
C47	C	-0.618692	-1.267617	1.029180
C48	C	-0.545207	-1.341167	1.089305
H49	H	-0.600255	-1.183353	1.050531
H50	H	-0.702983	-1.285846	1.050597
H51	H	-0.607193	-1.279208	0.941832
H52	H	-0.556613	-1.329617	1.176667
H53	H	-0.460943	-1.322920	1.067802
O54	O	-1.116181	-1.638845	0.375449
C55	C	-1.284413	-1.698092	0.316480
C56	C	-1.224206	-1.624494	0.389769
H57	H	-1.371761	-1.686499	0.328017
H58	H	-1.262986	-1.782360	0.334931
H59	H	-1.263052	-1.679850	0.232171
H60	H	-1.245535	-1.642642	0.474103
H61	H	-1.245638	-1.540248	0.371229
H62	H	-1.070166	-1.455957	0.557894
O63	O	-0.944322	-1.445534	0.568406
C64	C	-1.067536	-1.431588	0.709443
C65	C	-1.007322	-1.505012	0.636019
H66	H	-1.118470	-1.479648	0.764141
H67	H	-1.118791	-1.377067	0.661438
H68	H	-1.009859	-1.383686	0.757155
H69	H	-1.064924	-1.552982	0.588291
H70	H	-0.956052	-1.559464	0.684083
O71	O	-0.375265	-1.124179	0.632070
C72	C	-0.316184	-1.292454	0.691190
C73	C	-0.389530	-1.232193	0.617608
H74	H	-0.327676	-1.379793	0.679507
H75	H	-0.334619	-1.271174	0.775468
H76	H	-0.231893	-1.270993	0.673016
H77	H	-0.473846	-1.253621	0.635687
H78	H	-0.371005	-1.253478	0.533352
H79	H	-0.385678	-0.906300	0.621619
H80	H	-0.385392	-1.628283	0.899520
O81	O	-0.374782	-1.638946	1.117073
C82	C	-0.242165	-1.771528	1.105825
C83	C	-0.315651	-1.697979	1.045699
H84	H	-0.194323	-1.819260	1.048146
H85	H	-0.290124	-1.826193	1.156895
H86	H	-0.187591	-1.723519	1.156958
H87	H	-0.370239	-1.745904	0.994509
H88	H	-0.267627	-1.643311	0.994695
O89	O	-0.568227	-1.445635	0.945402
C90	C	-0.709118	-1.431677	1.068783
C91	C	-0.635630	-1.505100	1.008636
H92	H	-0.763617	-1.479724	1.119939
H93	H	-0.757030	-1.383848	1.011155
H94	H	-0.661051	-1.377087	1.119839
H95	H	-0.683616	-1.559753	0.957578
H96	H	-0.587714	-1.552856	1.066321
