data_functionalizedCrystal
_audit_creation_method	'MofGen! by Chris Wilmer'
_symmetry_space_group_name_H-M	'P1'
_symmetry_Int_Tables_number	1
_symmetry_cell_setting	triclinic
loop_
_symmetry_equiv_pos_as_xyz
  x,y,z
_cell_length_a	10.967874
_cell_length_b	14.044190
_cell_length_c	12.503552
_cell_angle_alpha	86.163821
_cell_angle_beta	105.656189
_cell_angle_gamma	88.854151
loop_
_atom_site_label
_atom_site_type_symbol
_atom_site_fract_x
_atom_site_fract_y
_atom_site_fract_z
O1	O	1.700378	0.108454	0.404059
O2	O	1.333478	0.125321	0.336153
O3	O	1.511414	-0.021070	0.369064
O4	O	1.522441	0.254844	0.371147
O5	O	1.498017	-0.010050	0.187944
O6	O	1.320080	0.136340	0.155032
O7	O	1.686980	0.119473	0.222938
Cu8	Cu	1.502307	0.128912	0.172447
Cu9	Cu	1.518151	0.115881	0.386644
O10	O	1.509044	0.265863	0.190027
C11	C	1.279540	0.130435	0.236849
C12	C	1.138782	0.129248	0.210796
C13	C	1.082968	0.123010	0.293007
C14	C	0.937487	0.121783	0.266082
C15	C	1.499893	-0.050851	0.277608
C16	C	1.485507	-0.156007	0.274936
C17	C	1.561233	-0.406663	0.288994
C18	C	1.459232	-0.348539	0.270108
C19	C	1.473855	-0.241404	0.272795
C20	C	1.546611	-0.513807	0.286307
C21	C	1.740918	0.114358	0.322245
C22	C	1.881677	0.115545	0.348304
C23	C	1.520565	0.295644	0.281485
C24	C	1.534951	0.400799	0.284164
N25	N	1.491172	0.138077	0.021795
C26	C	1.545668	0.093224	-0.240558
C27	C	1.474803	0.151559	-0.200342
C28	C	1.483913	0.144056	-0.076733
C29	C	1.536559	0.100726	-0.364178
N30	N	1.529295	0.106709	0.537298
H31	H	0.941590	0.111119	0.438628
H32	H	1.142887	0.118584	0.383323
H33	H	1.613176	0.037650	-0.182161
O34	O	1.341858	-0.384999	0.248430
C35	C	1.116949	-0.351327	0.206712
C36	C	1.249794	-0.309906	0.231278
H37	H	1.042478	-0.290634	0.192815
H38	H	1.110532	-0.401570	0.280307
H39	H	1.099488	-0.392449	0.128741
H40	H	1.267342	-0.268739	0.309214
H41	H	1.256146	-0.259714	0.157622
H42	H	1.659532	-0.375965	0.307176
O43	O	0.865977	0.126898	0.158345
C44	C	0.713036	0.050530	0.017187
C45	C	0.793973	0.044608	0.139214
H46	H	0.654780	-0.015982	0.001687
H47	H	0.777631	0.055356	-0.040576
H48	H	0.646709	0.116647	0.000130
H49	H	0.860309	-0.021504	0.156377
H50	H	0.729303	0.039834	0.196911
O51	O	1.067125	0.134483	0.103107
C52	C	0.856787	0.138126	-0.021916
C53	C	0.937783	0.132171	0.100092
H54	H	0.752197	0.136280	-0.024394
H55	H	0.883115	0.074978	-0.065114
H56	H	0.875094	0.207605	-0.066572
H57	H	0.919519	0.062732	0.144842
H58	H	0.911439	0.195368	0.143206
O59	O	1.394372	0.217843	-0.270152
C60	C	1.311758	0.285790	-0.458809
C61	C	1.402911	0.210698	-0.379865
H62	H	1.318611	0.280025	-0.547531
H63	H	1.338519	0.360271	-0.431889
H64	H	1.210583	0.272621	-0.455451
H65	H	1.504114	0.223778	-0.383184
H66	H	1.376041	0.136242	-0.406810
