data_functionalizedCrystal
_audit_creation_method	'MofGen! by Chris Wilmer'
_symmetry_space_group_name_H-M	'P1'
_symmetry_Int_Tables_number	1
_symmetry_cell_setting	triclinic
loop_
_symmetry_equiv_pos_as_xyz
  x,y,z
_cell_length_a	17.077404
_cell_length_b	16.625545
_cell_length_c	17.077396
_cell_angle_alpha	90.028053
_cell_angle_beta	89.980499
_cell_angle_gamma	89.975738
loop_
_atom_site_label
_atom_site_type_symbol
_atom_site_fract_x
_atom_site_fract_y
_atom_site_fract_z
Zn1	Zn	1.200048	0.320997	-0.443845
Zn2	Zn	1.199953	0.455839	-0.312580
Zn3	Zn	1.068780	0.321025	-0.312593
Zn4	Zn	1.068746	0.455792	-0.443804
O5	O	1.134382	0.388413	-0.378205
O6	O	1.309883	0.338892	-0.426444
O7	O	1.182527	0.437988	-0.202735
O8	O	1.086248	0.208189	-0.330027
O9	O	1.309812	0.437960	-0.330005
O10	O	1.182690	0.208168	-0.426457
O11	O	1.086155	0.338940	-0.202744
O12	O	0.958929	0.338894	-0.329986
O13	O	1.086189	0.437879	-0.553656
O14	O	0.958903	0.437906	-0.426386
O15	O	1.182656	0.338846	-0.553687
O16	O	1.182493	0.568666	-0.329964
O17	O	1.086096	0.568630	-0.426374
C18	C	0.930434	0.388399	-0.378184
C19	C	0.843184	0.388412	-0.378193
C20	C	0.802201	0.440045	-0.428308
C21	C	0.720221	0.440047	-0.428321
C22	C	0.679225	0.388419	-0.378214
C23	C	0.720213	0.336780	-0.328097
C24	C	0.802192	0.336774	-0.328089
C25	C	0.549343	0.336795	-0.328115
C26	C	0.467359	0.336801	-0.328122
C27	C	0.467372	0.440068	-0.428347
C28	C	0.549351	0.440063	-0.428339
C29	C	0.590334	0.388425	-0.378221
C30	C	1.134302	0.597904	-0.378180
C31	C	1.134339	0.687525	-0.378196
C32	C	1.134468	1.015701	-0.378290
C33	C	1.134429	0.924392	-0.378266
C34	C	1.134403	0.851616	-0.378242
C35	C	1.134366	0.760302	-0.378219
C36	C	1.339126	0.388428	-0.378228
C37	C	1.426376	0.388435	-0.378237
C38	C	1.134429	0.388354	-0.582950
C39	C	1.134449	0.388329	-0.670200
C40	C	1.134477	1.178104	-0.378257
C41	C	1.134500	1.088483	-0.378303
C42	C	1.184682	0.336758	-0.711207
C43	C	1.184691	0.336731	-0.793187
C44	C	1.134472	0.388280	-0.834159
C45	C	1.084234	0.439853	-0.793146
C46	C	1.084221	0.439875	-0.711167
C47	C	1.084265	0.439804	-0.964016
C48	C	1.084279	0.439783	-1.046001
C49	C	1.184736	0.336660	-1.046037
C50	C	1.184723	0.336682	-0.964058
C51	C	1.134486	0.388257	-0.923050
C52	C	1.134380	0.388414	-0.174258
C53	C	1.134511	0.388212	-0.087008
H54	H	0.433982	0.294752	-0.287330
O55	O	0.842039	0.286534	-0.279516
C56	C	0.889511	0.234523	-0.324290
H57	H	0.864835	0.229626	-0.386126
H58	H	0.890448	0.172434	-0.296005
H59	H	0.951634	0.259451	-0.326944
H60	H	0.686856	0.482093	-0.469128
O61	O	1.233565	0.286612	-0.832900
C62	C	1.277877	0.241110	-0.779159
H63	H	1.280567	0.274154	-0.720715
H64	H	1.339733	0.232512	-0.802858
H65	H	1.249165	0.179870	-0.770446
O66	O	1.233356	0.286640	-0.671326
C67	C	1.188679	0.234559	-0.623926
H68	H	1.129178	0.262999	-0.611624
H69	H	1.220650	0.223765	-0.566288
H70	H	1.180083	0.174799	-0.655535
O71	O	0.841987	0.490112	-0.477096
C72	C	0.821979	0.472604	-0.555361
H73	H	0.799468	0.408196	-0.559435
H74	H	0.875905	0.479596	-0.594127
H75	H	0.774386	0.515861	-0.575811
O76	O	0.589139	0.490129	-0.477125
C77	C	0.569134	0.472626	-0.555392
H78	H	0.546620	0.408219	-0.559469
H79	H	0.623063	0.479616	-0.594154
H80	H	0.521545	0.515886	-0.575843
H81	H	0.582709	0.294739	-0.287311
H82	H	1.043384	0.481757	-1.079358
O83	O	1.035519	0.490093	-0.671360
C84	C	1.052632	0.570448	-0.691392
H85	H	1.115341	0.574511	-0.713946
H86	H	1.045854	0.610296	-0.637467
H87	H	1.010541	0.591515	-0.738959
H88	H	1.225621	0.294711	-0.930701
H89	H	1.043344	0.481789	-0.930631
O90	O	1.035337	0.489842	-0.832908
C91	C	0.957107	0.472233	-0.812851
H92	H	0.953171	0.407824	-0.790332
H93	H	0.918332	0.479164	-0.866755
H94	H	0.936560	0.515471	-0.765251
H95	H	1.225640	0.294665	-1.079429
O96	O	0.427444	0.490151	-0.477012
C97	C	0.346297	0.479098	-0.466267
H98	H	0.335110	0.416839	-0.440670
H99	H	0.315167	0.484648	-0.525060
H100	H	0.322994	0.526869	-0.424384
H101	H	0.686828	0.294739	-0.287302
