data_functionalizedCrystal
_audit_creation_method	'MofGen! by Chris Wilmer'
_symmetry_space_group_name_H-M	'P1'
_symmetry_Int_Tables_number	1
_symmetry_cell_setting	triclinic
loop_
_symmetry_equiv_pos_as_xyz
  x,y,z
_cell_length_a	10.540539
_cell_length_b	10.654541
_cell_length_c	9.730217
_cell_angle_alpha	89.995122
_cell_angle_beta	89.998343
_cell_angle_gamma	84.504710
loop_
_atom_site_label
_atom_site_type_symbol
_atom_site_fract_x
_atom_site_fract_y
_atom_site_fract_z
O1	O	-1.685821	-0.176993	0.114225
O2	O	-1.316401	-0.193669	0.114241
O3	O	-1.509606	-0.002595	0.114224
O4	O	-1.492616	-0.368068	0.114242
O5	O	-1.509592	-0.002587	-0.114356
O6	O	-1.316388	-0.193662	-0.114339
O7	O	-1.685807	-0.176985	-0.114356
Zn8	Zn	-1.501095	-0.185322	-0.150639
Zn9	Zn	-1.501113	-0.185332	0.150525
O10	O	-1.492602	-0.368060	-0.114338
C11	C	-1.269092	-0.192415	-0.000046
C12	C	-1.128145	-0.188673	-0.000040
C13	C	-1.508352	0.044208	-0.000065
C14	C	-1.504622	0.183652	-0.000062
C15	C	-1.733116	-0.178240	-0.000065
C16	C	-1.874063	-0.181982	-0.000062
C17	C	-0.944771	-0.045302	-0.000581
C18	C	-1.091388	-0.049095	-0.000051
C19	C	-1.066456	-0.255849	0.130488
C20	C	-0.919913	-0.251085	0.130583
C21	C	-0.919408	-0.253916	-0.129355
C22	C	-1.066389	-0.255202	-0.131066
C23	C	-1.493856	-0.414862	-0.000046
C24	C	-1.497586	-0.554307	-0.000040
N25	N	-1.501092	-0.185315	-0.356176
C26	C	-1.735651	0.211542	-0.000090
C27	C	-1.849407	0.290996	-0.000107
C28	C	-1.845894	0.422016	-0.000103
C29	C	-1.728612	0.473582	-0.000077
C30	C	-1.614856	0.394128	-0.000061
C31	C	-1.618381	0.263107	-0.000069
C32	C	-1.383830	0.366239	-0.000023
C33	C	-1.387340	0.235219	-0.000037
C34	C	-1.266548	0.417805	0.000002
C35	C	-1.152788	0.338350	0.000009
C36	C	-1.156306	0.207324	0.000003
C37	C	-1.273583	0.155765	-0.000021
C38	C	-1.345792	-0.031484	-0.356232
C39	C	-1.268156	0.045434	-0.428200
C40	C	-1.268175	0.045434	-0.572080
C41	C	-1.345835	-0.031495	-0.643995
C42	C	-1.423471	-0.108413	-0.572027
C43	C	-1.423447	-0.108402	-0.428144
C44	C	-1.578762	-0.262248	-0.571970
C45	C	-1.578752	-0.262244	-0.428091
C46	C	-1.656423	-0.339177	-0.643885
C47	C	-1.734068	-0.416090	-0.571917
C48	C	-1.734047	-0.416086	-0.428029
C49	C	-1.656388	-0.339162	-0.356123
N50	N	-1.501126	-0.185330	0.356062
H51	H	-1.134016	0.003761	-0.093620
H52	H	-1.204951	0.108061	-0.630676
F53	F	-1.345834	-0.031508	-0.797125
F54	F	-1.035228	0.122771	0.000031
F55	F	-1.345779	-0.031464	-0.203102
F56	F	-1.185503	0.127299	-0.351654
H57	H	-1.938525	0.486708	-0.000105
H58	H	-1.944896	0.248996	-0.000140
H59	H	-0.887872	-0.208741	-0.228295
F60	F	-1.656432	-0.339184	-0.797015
F61	F	-1.816700	-0.497964	-0.648461
H62	H	-1.109067	-0.209191	0.227626
F63	F	-1.119819	-0.190956	-0.257282
H64	H	-0.916201	0.009843	-0.094191
F65	F	-0.905316	0.026471	0.121077
H66	H	-1.797261	-0.478729	-0.369441
F67	F	-1.724879	0.613025	0.000003
F68	F	-0.857162	-0.382290	0.138334
H69	H	-1.263695	0.524489	0.000014
F70	F	-1.145956	0.020189	0.122648
F71	F	-1.027982	0.393239	0.000051
H72	H	-0.891727	-0.201443	0.228150
H73	H	-1.088771	-0.358352	0.135350
H74	H	-1.090578	-0.356963	-0.138942
H75	H	-1.656367	-0.339147	-0.238968
H76	H	-1.276459	0.049084	-0.000034
F77	F	-0.857632	-0.385690	-0.130502
H78	H	-1.738523	0.104861	-0.000113
