data_functionalizedCrystal
_audit_creation_method	'MofGen! by Chris Wilmer'
_symmetry_space_group_name_H-M	'P1'
_symmetry_Int_Tables_number	1
_symmetry_cell_setting	triclinic
loop_
_symmetry_equiv_pos_as_xyz
  x,y,z
_cell_length_a	18.050589
_cell_length_b	12.759401
_cell_length_c	12.759393
_cell_angle_alpha	89.980324
_cell_angle_beta	89.970454
_cell_angle_gamma	90.028647
loop_
_atom_site_label
_atom_site_type_symbol
_atom_site_fract_x
_atom_site_fract_y
_atom_site_fract_z
Zn1	Zn	-0.295615	1.606168	-0.593992
Zn2	Zn	0.037718	1.939501	-0.260658
Zn3	Zn	0.371052	2.272834	0.072675
Zn4	Zn	-0.419823	1.606017	-0.418315
Zn5	Zn	-0.086490	1.939351	-0.084981
Zn6	Zn	0.246844	2.272684	0.248352
Zn7	Zn	-0.295652	1.430466	-0.418331
Zn8	Zn	0.037681	1.763800	-0.084997
Zn9	Zn	0.371014	2.097133	0.248336
Zn10	Zn	-0.419769	1.430417	-0.593956
Zn11	Zn	-0.086435	1.763750	-0.260622
Zn12	Zn	0.246898	2.097083	0.072711
O13	O	-0.357715	1.518267	-0.506148
O14	O	-0.024381	1.851600	-0.172815
O15	O	0.308952	2.184934	0.160519
O16	O	-0.312099	1.753169	-0.570696
O17	O	0.021235	2.086502	-0.237363
O18	O	0.354568	2.419835	0.095971
O19	O	-0.403390	1.582688	-0.271296
O20	O	-0.070056	1.916021	0.062038
O21	O	0.263277	2.249355	0.395371
O22	O	-0.191723	1.453857	-0.441654
O23	O	0.141611	1.787191	-0.108321
O24	O	0.474944	2.120524	0.225012
O25	O	-0.403354	1.753058	-0.441627
O26	O	-0.070020	2.086392	-0.108294
O27	O	0.263313	2.419725	0.225040
O28	O	-0.191695	1.582944	-0.570712
O29	O	0.141638	1.916278	-0.237378
O30	O	0.474971	2.249611	0.095955
O31	O	-0.312162	1.453711	-0.271307
O32	O	0.021171	1.787045	0.062026
O33	O	0.354505	2.120378	0.395359
O34	O	-0.312109	1.283439	-0.441619
O35	O	0.021224	1.616772	-0.108286
O36	O	0.354557	1.950105	0.225047
O37	O	-0.403261	1.453773	-0.740982
O38	O	-0.069928	1.787106	-0.407648
O39	O	0.263405	2.120439	-0.074315
O40	O	-0.403297	1.283402	-0.570650
O41	O	-0.069964	1.616736	-0.237317
O42	O	0.263369	1.950069	0.096016
O43	O	-0.312046	1.582896	-0.741008
O44	O	0.021287	1.916229	-0.407675
O45	O	0.354621	2.249563	-0.074341
O46	O	-0.523740	1.582640	-0.441592
O47	O	-0.190407	1.915973	-0.108259
O48	O	0.142926	2.249307	0.225075
O49	O	-0.523700	1.453627	-0.570635
O50	O	-0.190367	1.786960	-0.237301
O51	O	0.142966	2.120294	0.096032
C52	C	-0.357702	1.245300	-0.506133
C53	C	-0.024369	1.578633	-0.172800
C54	C	0.308965	1.911966	0.160533
C55	C	-0.357714	1.128523	-0.506152
C56	C	-0.024381	1.461856	-0.172819
C57	C	0.308952	1.795190	0.160515
C58	C	-0.310284	1.073719	-0.573462
C59	C	0.023050	1.407053	-0.240128
C60	C	0.356383	1.740386	0.093205
C61	C	-0.310291	0.963995	-0.573469
C62	C	0.023042	1.297328	-0.240135
C63	C	0.356375	1.630662	0.093198
C64	C	-0.405167	0.963888	-0.438853
C65	C	-0.071833	1.297222	-0.105520
C66	C	0.261500	1.630555	0.227814
C67	C	-0.405155	1.073610	-0.438841
C68	C	-0.071821	1.406944	-0.105508
C69	C	0.261512	1.740277	0.227825
C70	C	-0.550667	1.518140	-0.506131
C71	C	-0.217334	1.851474	-0.172797
C72	C	0.116000	2.184807	0.160536
C73	C	-0.633213	1.518182	-0.506158
C74	C	-0.299879	1.851515	-0.172825
C75	C	0.033454	2.184849	0.160508
C76	C	-0.832669	1.448094	-0.576307
C77	C	-0.499335	1.781427	-0.242974
C78	C	-0.166002	2.114760	0.090359
C79	C	-0.882116	1.422478	-0.480439
C80	C	-0.548783	1.755811	-0.147106
C81	C	-0.215449	2.089144	0.186228
C82	C	-0.784343	1.518285	-0.506172
C83	C	-0.451010	1.851619	-0.172839
C84	C	-0.117676	2.184952	0.160495
C85	C	-0.881977	1.543953	-0.602051
C86	C	-0.548644	1.877286	-0.268718
C87	C	-0.215310	2.210619	0.064615
C88	C	-0.930328	1.518383	-0.506194
C89	C	-0.596995	1.851716	-0.172860
C90	C	-0.263661	2.185050	0.160473
C91	C	-0.832703	1.492619	-0.410253
C92	C	-0.499370	1.825952	-0.076920
C93	C	-0.166037	2.159286	0.256414
C94	C	-0.832560	1.614138	-0.531930
C95	C	-0.499227	1.947472	-0.198597
C96	C	-0.165893	2.280805	0.134737
C97	C	-0.881985	1.588559	-0.435996
C98	C	-0.548652	1.921892	-0.102662
C99	C	-0.215319	2.255226	0.230671
C100	C	-0.700245	1.518226	-0.506161
C101	C	-0.366911	1.851560	-0.172828
C102	C	-0.033578	2.184893	0.160506
C103	C	-1.014425	1.518442	-0.506194
C104	C	-0.681091	1.851775	-0.172861
C105	C	-0.347758	2.185109	0.160473
C106	C	-0.164009	1.518423	-0.506189
C107	C	0.169324	1.851756	-0.172855
C108	C	0.502658	2.185090	0.160478
C109	C	-0.081463	1.518489	-0.506206
C110	C	0.251870	1.851823	-0.172873
C111	C	0.585203	2.185156	0.160461
C112	C	-0.357643	1.518346	-0.780182
C113	C	-0.024310	1.851679	-0.446848
C114	C	0.309023	2.185012	-0.113515
C115	C	-0.357613	1.518379	-0.896958
C116	C	-0.024280	1.851713	-0.563625
C117	C	0.309054	2.185046	-0.230292
C118	C	-0.357728	1.792300	-0.506164
C119	C	-0.024395	2.125634	-0.172830
C120	C	0.308939	2.458967	0.160503
C121	C	-0.357734	1.909077	-0.506170
C122	C	-0.024400	2.242410	-0.172837
C123	C	0.308933	2.575744	0.160496
C124	C	-0.310110	1.585619	-0.951836
C125	C	0.023224	1.918952	-0.618502
C126	C	0.356557	2.252285	-0.285169
C127	C	-0.310078	1.585637	-1.061560
C128	C	0.023256	1.918970	-0.728227
C129	C	0.356589	2.252303	-0.394893
C130	C	-0.405059	1.451172	-1.061520
C131	C	-0.071725	1.784506	-0.728186
C132	C	0.261608	2.117839	-0.394853
C133	C	-0.405086	1.451150	-0.951797
C134	C	-0.071753	1.784483	-0.618464
C135	C	0.261580	2.117817	-0.285131
C136	C	-0.357732	1.518249	-0.233181
C137	C	-0.024399	1.851583	0.100153
C138	C	0.308934	2.184916	0.433486
C139	C	-0.357553	1.518419	-0.116405
C140	C	-0.024220	1.851753	0.216929
C141	C	0.309113	2.185086	0.550262
H142	H	-0.443791	0.919165	-0.384052
H143	H	-0.110458	1.252499	-0.050719
H144	H	0.222875	1.585832	0.282614
Br145	Br	-0.469519	1.147994	-0.347471
Br146	Br	-0.136186	1.481328	-0.014137
Br147	Br	0.197148	1.814661	0.319196
H148	H	-0.443769	1.396388	-0.907115
H149	H	-0.110435	1.729721	-0.573782
H150	H	0.222898	2.063055	-0.240448
H151	H	-0.811014	1.388648	-0.635534
H152	H	-0.477680	1.721981	-0.302201
H153	H	-0.144347	2.055315	0.031132
H154	H	-0.903900	1.341464	-0.458672
H155	H	-0.570566	1.674797	-0.125339
H156	H	-0.237233	2.008130	0.207994
Br157	Br	-0.796783	1.456348	-0.275081
Br158	Br	-0.463450	1.789681	0.058252
Br159	Br	-0.130116	2.123015	0.391585
H160	H	-0.443711	1.396439	-1.106183
H161	H	-0.110378	1.729772	-0.772850
H162	H	0.222955	2.063106	-0.439516
Br163	Br	-0.245899	1.148241	-0.664808
Br164	Br	0.087434	1.481574	-0.331475
Br165	Br	0.420768	1.814907	0.001858
Br166	Br	-0.245915	0.889622	-0.664818
Br167	Br	0.087418	1.222955	-0.331485
Br168	Br	0.420751	1.556289	0.001849
H169	H	-0.903503	1.647959	-0.376625
H170	H	-0.570170	1.981293	-0.043292
H171	H	-0.236836	2.314626	0.290041
H172	H	-0.271452	1.640358	-0.907189
H173	H	0.061882	1.973692	-0.573856
H174	H	0.395215	2.307025	-0.240522
Br175	Br	-0.918059	1.580070	-0.737179
Br176	Br	-0.584725	1.913403	-0.403845
Br177	Br	-0.251392	2.246737	-0.070512
Br178	Br	-0.796253	1.749140	-0.568284
Br179	Br	-0.462920	2.082473	-0.234951
Br180	Br	-0.129586	2.415806	0.098382
H181	H	-0.271395	1.640388	-1.106236
H182	H	0.061939	1.973721	-0.772903
H183	H	0.395272	2.307055	-0.439570
