data_functionalizedCrystal
_audit_creation_method	'MofGen! by Chris Wilmer'
_symmetry_space_group_name_H-M	'P1'
_symmetry_Int_Tables_number	1
_symmetry_cell_setting	triclinic
loop_
_symmetry_equiv_pos_as_xyz
  x,y,z
_cell_length_a	10.723024
_cell_length_b	12.996460
_cell_length_c	10.723024
_cell_angle_alpha	90.000903
_cell_angle_beta	95.532131
_cell_angle_gamma	90.005942
loop_
_atom_site_label
_atom_site_type_symbol
_atom_site_fract_x
_atom_site_fract_y
_atom_site_fract_z
O1	O	1.657192	0.085557	-0.175019
O2	O	2.157192	0.585557	0.324981
O3	O	1.294040	0.085561	-0.191772
O4	O	1.794040	0.585561	0.308228
O5	O	1.483993	0.085555	-0.001819
O6	O	1.983993	0.585555	0.498181
O7	O	1.467240	0.085563	-0.364972
O8	O	1.967240	0.585563	0.135028
O9	O	1.483968	-0.085579	-0.001830
O10	O	1.983968	0.414421	0.498170
O11	O	1.294016	-0.085573	-0.191783
O12	O	1.794016	0.414427	0.308217
O13	O	1.657168	-0.085576	-0.175030
O14	O	2.157168	0.414424	0.324970
Cu15	Cu	1.475589	-0.101201	-0.183407
Cu16	Cu	1.975589	0.398799	0.316593
Cu17	Cu	1.475619	0.101185	-0.183394
Cu18	Cu	1.975619	0.601185	0.316606
O19	O	1.467215	-0.085571	-0.364983
O20	O	1.967215	0.414429	0.135017
C21	C	1.247528	-0.000006	-0.190558
C22	C	1.747528	0.499994	0.309442
C23	C	1.108974	-0.000005	-0.186911
C24	C	1.608974	0.499995	0.313089
C25	C	1.033991	-0.000002	-0.293198
C26	C	1.533991	0.499998	0.206802
C27	C	0.890788	-0.000000	-0.289431
C28	C	1.390788	0.500000	0.210569
N29	N	1.475578	-0.243548	-0.183416
N30	N	1.975578	0.256452	0.316584
C31	C	1.475584	-0.336654	-0.183419
C32	C	1.975584	0.163346	0.316581
C33	C	1.475595	-0.453459	-0.183411
C34	C	1.975595	0.046541	0.316589
C35	C	1.475611	-0.546557	-0.183397
C36	C	1.975611	-0.046557	0.316603
C37	C	1.475624	-0.663370	-0.183390
C38	C	1.975624	-0.163370	0.316610
C39	C	1.703680	-0.000008	-0.176243
C40	C	2.203680	0.499992	0.323757
C41	C	1.842234	-0.000002	-0.179891
C42	C	2.342234	0.499998	0.320109
C43	C	1.482762	-0.000011	0.044675
C44	C	1.982762	0.499989	0.544675
C45	C	1.479114	-0.000007	0.183229
C46	C	1.979114	0.499993	0.683229
N47	N	1.475640	0.243532	-0.183376
N48	N	1.975640	0.743532	0.316624
C49	C	1.468447	-0.000003	-0.411477
C50	C	1.968447	0.499997	0.088523
C51	C	1.472094	0.000000	-0.550031
C52	C	1.972094	0.500000	-0.050031
C53	C	1.585401	-0.000006	0.258212
C54	C	2.085401	0.499994	0.758212
C55	C	1.581634	-0.000003	0.401415
C56	C	2.081634	0.499997	0.901415
H57	H	0.906659	0.000002	-0.088896
H58	H	1.406659	0.500002	0.411104
H59	H	1.679187	-0.000014	0.216390
H60	H	2.179187	0.499986	0.716390
C61	C	0.803760	0.000008	-0.412360
C62	C	1.303760	0.500008	0.087640
H63	H	0.852799	0.000017	-0.481572
H64	H	1.352799	0.500017	0.018428
H65	H	0.752385	-0.059667	-0.415687
H66	H	1.252385	0.440333	0.084313
H67	H	0.752414	0.059697	-0.415671
H68	H	1.252414	0.559697	0.084329
H69	H	1.075814	-0.000006	-0.386984
H70	H	1.575814	0.499994	0.113016
H71	H	1.067152	0.000020	-0.093125
H72	H	1.567152	0.500020	0.406875
H73	H	1.672624	-0.000007	0.465848
H74	H	2.172624	0.499993	0.965848
H75	H	1.381099	-0.000007	0.385544
H76	H	1.881099	0.499993	0.885544
C77	C	1.352409	0.000001	0.239708
C78	C	1.852409	0.500001	0.739708
H79	H	1.286214	0.000009	0.174095
H80	H	1.786214	0.500009	0.674095
H81	H	1.346405	-0.059672	0.289935
H82	H	1.846405	0.440328	0.789935
H83	H	1.346431	0.059692	0.289923
H84	H	1.846431	0.559692	0.789923
