data_functionalizedCrystal
_audit_creation_method	'MofGen! by Chris Wilmer'
_symmetry_space_group_name_H-M	'P1'
_symmetry_Int_Tables_number	1
_symmetry_cell_setting	triclinic
loop_
_symmetry_equiv_pos_as_xyz
  x,y,z
_cell_length_a	13.339070
_cell_length_b	14.519709
_cell_length_c	11.804917
_cell_angle_alpha	101.858098
_cell_angle_beta	74.886076
_cell_angle_gamma	99.654719
loop_
_atom_site_label
_atom_site_type_symbol
_atom_site_fract_x
_atom_site_fract_y
_atom_site_fract_z
O1	O	1.322697	0.475950	0.099073
O2	O	1.028062	0.415236	0.099065
O3	O	1.183194	0.313340	0.099058
O4	O	1.167566	0.577845	0.099079
O5	O	1.224003	0.286551	-0.098981
O6	O	1.068871	0.388447	-0.098975
O7	O	1.363506	0.449161	-0.098967
Cu8	Cu	1.219915	0.416358	-0.117053
Cu9	Cu	1.171653	0.448039	0.117151
O10	O	1.208375	0.551056	-0.098960
C11	C	1.010759	0.391586	0.000044
C12	C	0.898403	0.361016	0.000040
C13	C	1.202870	0.265401	0.000038
C14	C	1.200688	0.162464	0.000038
C15	C	0.534032	0.598712	0.000078
C16	C	0.639595	0.627438	0.000085
C17	C	0.704302	0.560834	0.000073
C18	C	0.663436	0.465501	0.000055
C19	C	0.557860	0.436774	0.000058
C20	C	0.728130	0.398897	0.000053
C21	C	0.687264	0.303563	0.000035
C22	C	0.581699	0.274841	0.000037
C23	C	0.516992	0.341444	0.000048
C24	C	0.833706	0.427624	0.000051
C25	C	0.857534	0.265686	0.000031
C26	C	0.751971	0.236960	0.000024
C27	C	1.192649	-0.214471	0.000068
C28	C	1.194882	-0.109597	0.000059
C29	C	1.196669	-0.026007	0.000052
C30	C	1.198901	0.078874	0.000045
C31	C	1.380809	0.472811	0.000057
C32	C	1.493164	0.503382	0.000068
C33	C	1.188698	0.598996	0.000062
C34	C	1.190878	0.701934	0.000071
N35	N	1.253867	0.394076	-0.281780
C36	C	1.056150	0.523838	-0.655809
C37	C	1.030442	0.540699	-0.531157
C38	C	1.086296	0.504045	-0.468807
C39	C	1.167862	0.450527	-0.531120
C40	C	1.193568	0.433657	-0.655784
C41	C	1.223714	0.413865	-0.468782
C42	C	1.305280	0.360346	-0.531095
C43	C	1.330982	0.343480	-0.655746
C44	C	1.275127	0.380134	-0.718097
C45	C	1.198009	0.430734	-0.344118
C46	C	1.335426	0.340553	-0.344093
C47	C	1.361134	0.323692	-0.468745
N48	N	1.137710	0.470315	0.281878
H49	H	0.866970	0.505243	0.000061
N50	N	0.923632	0.197658	0.000027
N51	N	1.017888	0.223317	0.000026
H52	H	1.064575	0.175278	0.000027
H53	H	0.790255	0.584229	0.000082
N54	N	0.409161	0.312103	0.000026
N55	N	0.373924	0.324138	-0.083452
H56	H	0.297766	0.303419	-0.083467
N57	N	1.060071	0.521265	-0.341480
N58	N	1.031755	0.453226	-0.285826
H59	H	1.013241	0.465394	-0.195895
H60	H	1.397389	0.299893	-0.706482
N61	N	1.444449	0.269030	-0.532421
N62	N	1.467387	0.253983	-0.643720
H63	H	1.526229	0.215379	-0.688694
H64	H	1.380906	0.310704	-0.293328
H65	H	0.481337	0.652931	0.000097
H66	H	1.131597	0.474308	-0.293394
H67	H	0.718680	0.159340	0.000019
H68	H	0.548426	0.197217	0.000035
N69	N	0.681318	0.724815	0.000115
N70	N	0.623536	0.784274	0.000130
H71	H	0.653002	0.853053	0.000153
H72	H	0.964031	0.584273	-0.480427
N73	N	0.999088	0.561251	-0.719501
N74	N	0.950568	0.506441	-0.789066
H75	H	0.910261	0.532862	-0.834052
N76	N	1.301394	0.362941	-0.845429
N77	N	1.251529	0.395693	-0.901076
H78	H	1.270082	0.383558	-0.991007
