data_functionalizedCrystal
_audit_creation_method	'MofGen! by Chris Wilmer'
_symmetry_space_group_name_H-M	'P1'
_symmetry_Int_Tables_number	1
_symmetry_cell_setting	triclinic
loop_
_symmetry_equiv_pos_as_xyz
  x,y,z
_cell_length_a	12.759401
_cell_length_b	12.759400
_cell_length_c	12.759393
_cell_angle_alpha	90.030210
_cell_angle_beta	90.018202
_cell_angle_gamma	90.014845
loop_
_atom_site_label
_atom_site_type_symbol
_atom_site_fract_x
_atom_site_fract_y
_atom_site_fract_z
Zn1	Zn	1.606252	-0.418214	0.593981
Zn2	Zn	1.606148	-0.593929	0.418301
Zn3	Zn	1.430555	-0.418265	0.418321
Zn4	Zn	1.430543	-0.593852	0.593943
O5	O	1.518375	-0.506065	0.506137
O6	O	1.753260	-0.441534	0.570685
O7	O	1.582816	-0.570680	0.271283
O8	O	1.453911	-0.271237	0.441647
O9	O	1.753183	-0.570630	0.441614
O10	O	1.582995	-0.271200	0.570704
O11	O	1.453809	-0.441620	0.271297
O12	O	1.283533	-0.441546	0.441609
O13	O	1.453890	-0.570500	0.740969
O14	O	1.283524	-0.570549	0.570638
O15	O	1.582983	-0.441459	0.740997
O16	O	1.582804	-0.740939	0.441577
O17	O	1.453788	-0.740883	0.570620
C18	C	1.245407	-0.506045	0.506122
C19	C	1.128631	-0.506062	0.506141
C20	C	1.073791	-0.573342	0.573215
C21	C	0.964067	-0.573355	0.573227
C22	C	0.964031	-0.438807	0.439081
C23	C	1.073753	-0.438789	0.439075
C24	C	1.073811	-0.651026	0.650660
C25	C	0.964087	-0.651039	0.650672
C26	C	1.518312	-0.779032	0.506115
C27	C	1.518382	-0.895809	0.506140
C28	C	1.585635	-0.950665	0.439022
C29	C	1.585699	-1.060389	0.439054
C30	C	1.451249	-1.060391	0.573327
C31	C	1.451190	-0.950669	0.573299
C32	C	1.652826	-0.895805	0.371864
C33	C	1.720084	-0.950662	0.304739
C34	C	1.720149	-1.060386	0.304771
C35	C	1.652955	-1.115253	0.371929
C36	C	1.792408	-0.506085	0.506152
C37	C	1.909185	-0.506094	0.506158
C38	C	1.518447	-0.505965	0.780170
C39	C	1.518478	-0.505923	0.896947
C40	C	1.518466	-0.232031	0.506182
C41	C	1.518505	-0.115255	0.506201
C42	C	1.518363	-0.506088	0.233169
C43	C	1.518536	-0.505835	0.116393
C44	C	1.585690	-0.573048	1.061530
C45	C	1.585658	-0.573095	0.951806
C46	C	1.451316	-0.438706	0.951817
C47	C	1.451343	-0.438665	1.061539
C48	C	1.652883	-0.640217	1.116384
C49	C	1.720043	-0.707435	1.061521
C50	C	1.720011	-0.707482	0.951797
C51	C	1.652820	-0.640312	0.896936
H52	H	0.919337	-0.384034	0.384479
H53	H	1.118399	-0.383997	0.384464
H54	H	1.652918	-0.640184	1.205727
Br55	Br	1.123504	-0.614868	0.786340
Br56	Br	1.130515	-0.779820	0.601960
H57	H	1.652779	-0.806463	0.371827
H58	H	1.396664	-0.383931	1.106210
Br59	Br	1.811437	-1.134832	0.213688
H60	H	0.930089	-0.621997	0.728024
Br61	Br	0.914416	-0.786610	0.614082
Br62	Br	1.811284	-0.876203	0.213616
Br63	Br	1.652565	-1.264165	0.371490
H64	H	1.652787	-0.640368	0.807591
Br65	Br	1.811144	-0.798715	0.877342
Br66	Br	1.360063	-1.134853	0.664461
H67	H	1.396427	-0.906004	0.627954
Br68	Br	1.811213	-0.798604	1.135972
H69	H	1.396613	-0.384018	0.907140
