data_functionalizedCrystal
_audit_creation_method	'MofGen! by Chris Wilmer'
_symmetry_space_group_name_H-M	'P1'
_symmetry_Int_Tables_number	1
_symmetry_cell_setting	triclinic
loop_
_symmetry_equiv_pos_as_xyz
  x,y,z
_cell_length_a	10.540514
_cell_length_b	10.540539
_cell_length_c	9.016244
_cell_angle_alpha	90.003849
_cell_angle_beta	90.003532
_cell_angle_gamma	84.520326
loop_
_atom_site_label
_atom_site_type_symbol
_atom_site_fract_x
_atom_site_fract_y
_atom_site_fract_z
O1	O	1.685903	0.178750	0.123351
O2	O	1.316486	0.195640	0.123349
O3	O	1.509622	0.002488	0.123349
O4	O	1.492766	0.371902	0.123352
O5	O	1.509611	0.002476	-0.123332
O6	O	1.316475	0.195628	-0.123331
O7	O	1.685892	0.178739	-0.123329
Cu8	Cu	1.501182	0.187183	-0.145854
Cu9	Cu	1.501195	0.187196	0.145874
O10	O	1.492755	0.371891	-0.123329
C11	C	1.269177	0.194374	0.000009
C12	C	1.128227	0.190605	0.000008
C13	C	1.057522	0.328745	0.000013
C14	C	0.910908	0.324871	0.000580
C15	C	0.935896	0.115484	0.140609
C16	C	1.082435	0.120338	0.140719
C17	C	1.082825	0.118281	-0.139813
C18	C	0.935846	0.116948	-0.141653
C19	C	1.508353	-0.044821	0.000011
C20	C	1.504571	-0.185769	0.000019
C21	C	1.359652	-0.369182	0.000572
C22	C	1.363486	-0.222564	0.000017
C23	C	1.572461	-0.247439	-0.140848
C24	C	1.567646	-0.393983	-0.140966
C25	C	1.570528	-0.394488	0.139556
C26	C	1.571827	-0.247507	0.141418
C27	C	1.733201	0.180004	0.000014
C28	C	1.874151	0.183774	0.000025
C29	C	1.494025	0.419199	0.000012
C30	C	1.497807	0.560147	0.000014
N31	N	1.501183	0.187173	-0.351040
C32	C	1.604555	0.083861	-0.413965
C33	C	1.604941	0.084148	-0.585856
C34	C	1.530784	0.320070	-0.586508
C35	C	1.531514	0.319452	-0.414564
C36	C	1.367931	0.158803	-0.414430
C37	C	1.368809	0.155815	-0.586386
N38	N	1.501205	0.187196	0.351060
H39	H	1.087754	0.383968	0.100680
H40	H	1.672433	-0.441724	0.140504
H41	H	1.587138	-0.015181	-0.372601
O42	O	0.854372	0.396023	-0.132869
H43	H	0.931744	0.433520	-0.198390
O44	O	1.581496	-0.046605	-0.641814
H45	H	1.663851	-0.085580	-0.709981
O46	O	1.660272	0.352205	-0.361421
H47	H	1.648124	0.439990	-0.292862
H48	H	1.626882	0.345377	-0.629560
O49	O	1.330484	0.033070	-0.357025
H50	H	1.317867	-0.031703	-0.451846
O51	O	1.435639	0.424468	-0.359402
H52	H	1.388966	0.475477	-0.455542
H53	H	1.309683	-0.180808	-0.101131
H54	H	0.869181	0.378363	0.101951
H55	H	1.110664	0.170224	0.246211
H56	H	1.130441	0.018865	0.146721
O57	O	1.735900	0.108423	-0.640351
H58	H	1.799200	0.120015	-0.543891
O59	O	1.510102	-0.436341	0.280982
H60	H	1.563116	-0.403228	0.377720
H61	H	1.290996	0.234124	-0.373736
H62	H	1.346379	0.058059	-0.627192
H63	H	0.913582	0.011853	0.145439
H64	H	1.130081	0.016388	-0.141170
O65	O	1.708086	-0.215452	0.152698
H66	H	1.730100	-0.154753	0.057267
O67	O	1.734755	0.107603	-0.356486
H68	H	1.726166	0.192689	-0.283333
O69	O	1.433766	0.424475	-0.640638
H70	H	1.363270	0.382666	-0.712790
O71	O	1.506123	-0.193273	0.279466
H72	H	1.575261	-0.145971	0.348106
O73	O	1.292702	-0.166099	0.133750
H74	H	1.255415	-0.243510	0.199403
O75	O	1.262062	0.248858	-0.643253
H76	H	1.278895	0.346822	-0.608302
H77	H	1.303925	-0.397773	0.101589
O78	O	0.879533	0.177540	0.279736
H79	H	0.807562	0.257006	0.249112
H80	H	1.086057	0.384779	-0.100787
H81	H	1.114315	0.164260	-0.246404
O82	O	1.709698	-0.217829	-0.147810
H83	H	1.760893	-0.256266	-0.047473
O84	O	1.501161	-0.431352	-0.280435
H85	H	1.472739	-0.344791	-0.347157
H86	H	0.894847	0.166854	-0.245659
H87	H	0.911661	0.014102	-0.150561
H88	H	1.304143	-0.399389	-0.099881
O89	O	1.702039	-0.457551	-0.149467
H90	H	1.770179	-0.383584	-0.153487
O91	O	1.509994	-0.191020	-0.279717
H92	H	1.430606	-0.119077	-0.248763
