data_functionalizedCrystal
_audit_creation_method	'MofGen! by Chris Wilmer'
_symmetry_space_group_name_H-M	'P1'
_symmetry_Int_Tables_number	1
_symmetry_cell_setting	triclinic
loop_
_symmetry_equiv_pos_as_xyz
  x,y,z
_cell_length_a	19.288859
_cell_length_b	10.967829
_cell_length_c	18.366186
_cell_angle_alpha	77.865925
_cell_angle_beta	89.990083
_cell_angle_gamma	83.939469
loop_
_atom_site_label
_atom_site_type_symbol
_atom_site_fract_x
_atom_site_fract_y
_atom_site_fract_z
O1	O	0.922371	0.155625	-0.080089
O2	O	0.720247	0.176631	-0.082723
O3	O	0.825968	-0.015550	-0.058608
O4	O	0.816649	0.347806	-0.104205
O5	O	0.825950	-0.015559	0.062493
O6	O	0.720228	0.176622	0.038377
O7	O	0.922353	0.155615	0.041011
Zn8	Zn	0.821288	0.166117	0.058922
Zn9	Zn	0.821311	0.166130	-0.100633
O10	O	0.816631	0.347796	0.016896
C11	C	0.694356	0.175952	-0.022088
C12	C	0.617239	0.173927	-0.021833
C13	C	0.825279	-0.062040	0.007775
C14	C	0.823247	-0.200555	0.025152
C15	C	0.053845	0.272990	-0.034266
C16	C	0.126304	0.274904	-0.034510
C17	C	0.170275	0.162141	-0.020358
C18	C	0.141782	0.047456	-0.005979
C19	C	0.069324	0.045545	-0.005743
C20	C	0.290990	0.078039	0.032625
C21	C	0.363447	0.079955	0.032393
C22	C	0.393759	0.168029	-0.021089
C23	C	0.351606	0.254209	-0.074332
C24	C	0.279148	0.252298	-0.074096
C25	C	0.248844	0.164200	-0.020613
C26	C	0.500813	0.284782	-0.035736
C27	C	0.573273	0.286691	-0.035984
C28	C	0.588750	0.059239	-0.007446
C29	C	0.516291	0.057334	-0.007206
C30	C	0.472326	0.170109	-0.021348
C31	C	0.822350	-0.262297	-0.029835
C32	C	0.820249	-0.405459	-0.011876
C33	C	0.948243	0.156295	-0.019625
C34	C	1.025360	0.158320	-0.019885
C35	C	0.817320	0.394287	-0.049488
C36	C	0.819352	0.532801	-0.066870
N37	N	0.821276	0.166108	0.167814
N38	N	0.821328	0.166129	-0.209525
C39	C	0.868105	0.081052	0.216588
C40	C	0.868110	0.081046	0.292816
C41	C	0.821292	0.166118	0.320265
C42	C	0.774454	0.251181	0.271482
C43	C	0.774446	0.251176	0.195256
C44	C	0.812735	0.279813	0.426758
C45	C	0.812748	0.279820	0.502982
C46	C	0.821312	0.166134	0.555371
C47	C	0.829877	0.052436	0.531527
C48	C	0.829870	0.052431	0.455301
C49	C	0.821295	0.166133	0.402918
C50	C	0.868148	0.081065	0.686801
C51	C	0.868147	0.081058	0.763031
C52	C	0.774495	0.251203	0.741694
C53	C	0.774492	0.251199	0.665467
C54	C	0.821322	0.166132	0.638025
H55	H	0.018053	0.364820	-0.045785
Cl56	Cl	0.822025	-0.282565	0.118365
H57	H	0.823134	-0.209170	-0.090207
H58	H	0.736311	0.320440	0.155543
Cl59	Cl	0.820541	-0.385188	-0.160089
Cl60	Cl	0.819028	-0.487465	0.081341
H61	H	0.805750	0.372396	0.384107
H62	H	0.906235	0.011782	0.194247
Cl63	Cl	0.926987	-0.025890	0.354141
H64	H	0.836842	-0.040146	0.435891
Cl65	Cl	0.715594	0.358124	0.305988
H66	H	0.906278	0.011794	0.664458
Cl67	Cl	0.162123	0.419072	-0.052587
Cl68	Cl	0.197059	-0.094304	0.011809
Cl69	Cl	0.226158	0.360626	-0.141030
Cl70	Cl	0.389704	0.364950	-0.141565
Cl71	Cl	0.252895	-0.032755	0.099832
H72	H	0.465015	0.376610	-0.047253
H73	H	0.596464	0.380073	-0.047701
H74	H	0.624551	-0.032574	0.004071
H75	H	0.836851	-0.040138	0.574181
Cl76	Cl	0.480478	-0.086832	0.010871
Cl77	Cl	0.927019	-0.025886	0.824352
H78	H	0.397762	0.009788	0.075750
H79	H	0.046133	-0.047836	0.005968
H80	H	0.736372	0.320465	0.764043
Cl81	Cl	0.715622	0.358138	0.604146
H82	H	0.805777	0.372399	0.522390
