data_functionalizedCrystal
_audit_creation_method	'MofGen! by Chris Wilmer'
_symmetry_space_group_name_H-M	'P1'
_symmetry_Int_Tables_number	1
_symmetry_cell_setting	triclinic
loop_
_symmetry_equiv_pos_as_xyz
  x,y,z
_cell_length_a	21.295418
_cell_length_b	25.639239
_cell_length_c	21.295420
_cell_angle_alpha	90.013058
_cell_angle_beta	90.026872
_cell_angle_gamma	90.054499
loop_
_atom_site_label
_atom_site_type_symbol
_atom_site_fract_x
_atom_site_fract_y
_atom_site_fract_z
Zn1	Zn	0.962215	-0.208023	0.356243
Zn2	Zn	1.295548	0.125310	0.689576
Zn3	Zn	1.628882	0.458644	1.022909
Zn4	Zn	0.962134	-0.295433	0.250972
Zn5	Zn	1.295467	0.037900	0.584305
Zn6	Zn	1.628800	0.371233	0.917639
Zn7	Zn	0.856969	-0.208038	0.250952
Zn8	Zn	1.190303	0.125296	0.584286
Zn9	Zn	1.523636	0.458629	0.917619
Zn10	Zn	0.856893	-0.295454	0.356168
Zn11	Zn	1.190226	0.037880	0.689502
Zn12	Zn	1.523559	0.371213	1.022835
O13	O	0.909553	-0.251737	0.303584
O14	O	1.242886	0.081596	0.636917
O15	O	1.576219	0.414930	0.970251
O16	O	1.050294	-0.219604	0.342317
O17	O	1.383627	0.113730	0.675651
O18	O	1.716960	0.447063	1.008984
O19	O	0.948181	-0.283838	0.162880
O20	O	1.281515	0.049496	0.496213
O21	O	1.614848	0.382829	0.829547
O22	O	0.870997	-0.134871	0.264942
O23	O	1.204330	0.198463	0.598276
O24	O	1.537663	0.531796	0.931609
O25	O	1.050234	-0.283824	0.264976
O26	O	1.383567	0.049510	0.598309
O27	O	1.716900	0.382843	0.931642
O28	O	0.948320	-0.134860	0.342299
O29	O	1.281654	0.198473	0.675632
O30	O	1.614987	0.531807	1.008965
O31	O	0.870917	-0.219629	0.162866
O32	O	1.204251	0.113705	0.496199
O33	O	1.537584	0.447038	0.829532
O34	O	0.768870	-0.219648	0.264870
O35	O	1.102203	0.113685	0.598204
O36	O	1.435536	0.447018	0.931537
O37	O	0.870866	-0.283858	0.444268
O38	O	1.204199	0.049475	0.777601
O39	O	1.537533	0.382809	1.110934
O40	O	0.768813	-0.283872	0.342172
O41	O	1.102147	0.049461	0.675505
O42	O	1.435480	0.382794	1.008839
O43	O	0.948246	-0.219623	0.444322
O44	O	1.281579	0.113710	0.777655
O45	O	1.614913	0.447043	1.110989
O46	O	0.948107	-0.368601	0.264904
O47	O	1.281440	-0.035268	0.598237
O48	O	1.614774	0.298065	0.931570
O49	O	0.870787	-0.368616	0.342191
O50	O	1.204120	-0.035283	0.675524
O51	O	1.537454	0.298051	1.008858
C52	C	0.746001	-0.251764	0.303511
C53	C	1.079334	0.081569	0.636845
C54	C	1.412668	0.414902	0.970178
C55	C	0.676033	-0.251789	0.303495
C56	C	1.009366	0.081545	0.636829
C57	C	1.342700	0.414878	0.970162
C58	C	0.643153	-0.285274	0.343686
C59	C	0.976487	0.048059	0.677019
C60	C	1.309820	0.381392	1.010353
C61	C	0.577411	-0.285262	0.343714
C62	C	0.910744	0.048072	0.677048
C63	C	1.244078	0.381405	1.010381
C64	C	0.544550	-0.251769	0.303541
C65	C	0.877884	0.081565	0.636874
C66	C	1.211217	0.414898	0.970207
C67	C	0.577438	-0.218276	0.263347
C68	C	0.910771	0.115057	0.596680
C69	C	1.244104	0.448390	0.930014
C70	C	0.643179	-0.218286	0.263324
C71	C	0.976512	0.115047	0.596658
C72	C	1.309846	0.448380	0.929991
N73	N	0.441291	-0.247671	0.248483
N74	N	0.774625	0.085662	0.581816
N75	N	1.107958	0.418996	0.915150
N76	N	0.378840	-0.247664	0.248506
N77	N	0.712173	0.085669	0.581839
N78	N	1.045507	0.419002	0.915173
C79	C	0.346476	-0.251735	0.303607
C80	C	0.679809	0.081598	0.636941
C81	C	1.013142	0.414931	0.970274
N82	N	0.378922	-0.255823	0.358686
N83	N	0.712256	0.077510	0.692019
N84	N	1.045589	0.410844	1.025352
N85	N	0.441379	-0.255832	0.358662
N86	N	0.774713	0.077501	0.691995
N87	N	1.108046	0.410834	1.025328
C88	C	0.473265	-0.251754	0.303561
C89	C	0.806598	0.081580	0.636894
C90	C	1.139932	0.414913	0.970228
C91	C	0.242311	-0.285209	0.343832
C92	C	0.575644	0.048125	0.677166
C93	C	0.908977	0.381458	1.010499
C94	C	0.176567	-0.285192	0.343862
C95	C	0.509900	0.048141	0.677195
C96	C	0.843234	0.381475	1.010528
C97	C	0.176595	-0.218210	0.263489
C98	C	0.509929	0.115124	0.596822
C99	C	0.843262	0.448457	0.930155
C100	C	0.242338	-0.218223	0.263465
C101	C	0.575671	0.115110	0.596798
C102	C	0.909004	0.448443	0.930131
C103	C	0.275191	-0.251726	0.303636
C104	C	0.608525	0.081608	0.636969
C105	C	0.941858	0.414941	0.970302
C106	C	0.909447	-0.387580	0.303555
C107	C	1.242780	-0.054246	0.636888
C108	C	1.576113	0.279087	0.970222
C109	C	0.909459	-0.445694	0.303564
C110	C	1.242792	-0.112360	0.636897
C111	C	1.576126	0.220973	0.970230
C112	C	0.949918	-0.806036	0.263409
C113	C	1.283252	-0.472703	0.596742
C114	C	1.616585	-0.139370	0.930076
C115	C	0.949943	-0.860641	0.263417
C116	C	1.283276	-0.527307	0.596751
C117	C	1.616609	-0.193974	0.930084
O118	O	0.984233	-0.888860	0.229245
O119	O	1.317566	-0.555527	0.562578
O120	O	1.650899	-0.222193	0.895911
N121	N	0.909663	-0.887976	0.303626
N122	N	1.242997	-0.554643	0.636959
N123	N	1.576330	-0.221309	0.970292
C124	C	0.869361	-0.860704	0.343833
C125	C	1.202695	-0.527371	0.677166
C126	C	1.536028	-0.194038	1.010499
O127	O	0.835103	-0.888969	0.378034
O128	O	1.168437	-0.555636	0.711367
O129	O	1.501770	-0.222302	1.044701
C130	C	0.869341	-0.806101	0.343827
C131	C	1.202674	-0.472768	0.677160
C132	C	1.536007	-0.139434	1.010493
C133	C	0.909618	-0.778768	0.303611
C134	C	1.242952	-0.445435	0.636945
C135	C	1.576285	-0.112102	0.970278
C136	C	0.990193	-0.778704	0.223197
C137	C	1.323526	-0.445370	0.556531
C138	C	1.656860	-0.112037	0.889864
C139	C	0.990167	-0.724103	0.223188
C140	C	1.323501	-0.390770	0.556522
C141	C	1.656834	-0.057436	0.889855
C142	C	0.949867	-0.696835	0.263391
C143	C	1.283201	-0.363502	0.596724
C144	C	1.616534	-0.030169	0.930057
C145	C	0.909593	-0.724168	0.303602
C146	C	1.242926	-0.390834	0.636936
C147	C	1.576259	-0.057501	0.970269
C148	C	0.829043	-0.778830	0.384036
C149	C	1.162376	-0.445497	0.717370
C150	C	1.495709	-0.112164	1.050703
C151	C	0.829026	-0.724223	0.384028
C152	C	1.162359	-0.390890	0.717361
C153	C	1.495692	-0.057557	1.050694
C154	C	0.869303	-0.696891	0.343812
C155	C	1.202636	-0.363557	0.677146
C156	C	1.535970	-0.030224	1.010479
C157	C	0.869267	-0.642299	0.343796
C158	C	1.202601	-0.308966	0.677129
C159	C	1.535934	0.024367	1.010462
N160	N	0.909547	-0.614964	0.303588
N161	N	1.242880	-0.281631	0.636921
N162	N	1.576213	0.051703	0.970254
C163	C	0.949847	-0.642232	0.263385
C164	C	1.283180	-0.308899	0.596718
C165	C	1.616513	0.024435	0.930052
C166	C	0.869409	-0.975375	0.343842
C167	C	1.202742	-0.642042	0.677176
C168	C	1.536076	-0.308708	1.010509
C169	C	0.869426	-1.029977	0.343845
C170	C	1.202759	-0.696644	0.677179
C171	C	1.536093	-0.363310	1.010512
C172	C	0.950008	-1.029910	0.263431
C173	C	1.283341	-0.696576	0.596764
C174	C	1.616675	-0.363243	0.930097
C175	C	0.949987	-0.975306	0.263425
C176	C	1.283321	-0.641973	0.596758
C177	C	1.616654	-0.308640	0.930092
C178	C	0.909688	-0.948039	0.303634
C179	C	1.243022	-0.614706	0.636967
C180	C	1.576355	-0.281373	0.970301
C181	C	0.949790	-0.527567	0.263369
C182	C	1.283123	-0.194234	0.596702
C183	C	1.616457	0.139100	0.930035
C184	C	0.949759	-0.472961	0.263361
C185	C	1.283092	-0.139628	0.596695
C186	C	1.616426	0.193705	0.930028
C187	C	0.869180	-0.473034	0.343778
C188	C	1.202513	-0.139700	0.677111
C189	C	1.535846	0.193633	1.010444
C190	C	0.869208	-0.527634	0.343783
C191	C	1.202541	-0.194301	0.677116
C192	C	1.535875	0.139032	1.010450
C193	C	0.909518	-0.554900	0.303576
C194	C	1.242851	-0.221566	0.636910
C195	C	1.576185	0.111767	0.970243
O196	O	0.834997	-0.614045	0.377953
O197	O	1.168330	-0.280712	0.711286
O198	O	1.501663	0.052621	1.044619
O199	O	0.984105	-0.613960	0.229195
O200	O	1.317438	-0.280627	0.562529
O201	O	1.650771	0.052706	0.895862
C202	C	1.073743	-0.251710	0.303657
C203	C	1.407076	0.081624	0.636990
C204	C	1.740410	0.414957	0.970324
C205	C	1.143711	-0.251698	0.303688
C206	C	1.477044	0.081635	0.637021
C207	C	1.810378	0.414969	0.970355
C208	C	0.909557	-0.251741	0.467774
C209	C	1.242890	0.081592	0.801107
C210	C	1.576223	0.414925	1.134441
C211	C	0.909558	-0.251743	0.537742
C212	C	1.242892	0.081590	0.871076
C213	C	1.576225	0.414923	1.204409
C214	C	0.909676	-0.115364	0.303627
C215	C	1.243009	0.217969	0.636960
C216	C	1.576343	0.551303	0.970293
C217	C	0.909729	-0.057250	0.303645
C218	C	1.243062	0.276084	0.636978
C219	C	1.576395	0.609417	0.970311
C220	C	0.949783	-0.285167	1.037208
C221	C	1.283117	0.048167	1.370541
C222	C	1.616450	0.381500	1.703875
C223	C	0.949782	-0.285170	0.971466
C224	C	1.283115	0.048163	1.304799
C225	C	1.616449	0.381496	1.638132
C226	C	0.909556	-0.251740	0.938582
C227	C	1.242890	0.081593	1.271915
C228	C	1.576223	0.414926	1.605248
C229	C	0.869318	-0.218314	0.971446
C230	C	1.202651	0.115020	1.304779
C231	C	1.535984	0.448353	1.638112
C232	C	0.869316	-0.218315	1.037187
C233	C	1.202649	0.115019	1.370520
C234	C	1.535982	0.448352	1.703854
N235	N	0.904772	-0.205973	0.835373
N236	N	1.238105	0.127360	1.168706
N237	N	1.571438	0.460693	1.502039
N238	N	0.904777	-0.205974	0.772921
N239	N	1.238111	0.127359	1.106255
N240	N	1.571444	0.460693	1.439588
C241	C	0.909559	-0.251737	0.740507
C242	C	1.242892	0.081597	1.073840
C243	C	1.576226	0.414930	1.407174
N244	N	0.914347	-0.297500	0.772903
N245	N	1.247681	0.035834	1.106237
N246	N	1.581014	0.369167	1.439570
N247	N	0.914345	-0.297498	0.835360
N248	N	1.247678	0.035835	1.168694
N249	N	1.581012	0.369168	1.502027
C250	C	0.909554	-0.251736	0.867296
C251	C	1.242887	0.081597	1.200630
C252	C	1.576221	0.414931	1.533963
C253	C	0.949791	-0.285168	0.636365
C254	C	1.283124	0.048165	0.969699
C255	C	1.616457	0.381499	1.303032
C256	C	0.949785	-0.285173	0.570622
C257	C	1.283118	0.048160	0.903955
C258	C	1.616452	0.381494	1.237288
C259	C	0.869324	-0.218311	0.570603
C260	C	1.202657	0.115022	0.903936
C261	C	1.535991	0.448355	1.237270
C262	C	0.869326	-0.218311	0.636345
C263	C	1.202660	0.115022	0.969679
C264	C	1.535993	0.448355	1.303012
C265	C	0.909563	-0.251739	0.669223
C266	C	1.242896	0.081594	1.002556
C267	C	1.576230	0.414928	1.335889
C268	C	0.909547	-0.251744	1.140032
C269	C	1.242880	0.081589	1.473366
C270	C	1.576213	0.414922	1.806699
C271	C	0.909552	-0.251742	1.070064
C272	C	1.242886	0.081591	1.403397
C273	C	1.576219	0.414925	1.736731
H274	H	0.982558	-0.450709	0.230611
H275	H	1.315891	-0.117376	0.563944
H276	H	1.649224	0.215958	0.897278
O277	O	0.675149	-0.185704	0.224368
O278	O	1.008483	0.147629	0.557701
O279	O	1.341816	0.480963	0.891034
C280	C	0.713268	-0.151998	0.260264
C281	C	1.046602	0.181335	0.593598
C282	C	1.379935	0.514668	0.926931
H283	H	0.693503	-0.148829	0.309858
H284	H	1.026837	0.184504	0.643191
H285	H	1.360170	0.517838	0.976524
H286	H	0.714054	-0.111732	0.237584
H287	H	1.047387	0.221601	0.570917
H288	H	1.380720	0.554935	0.904251
H289	H	0.763071	-0.168178	0.262379
H290	H	1.096404	0.165156	0.595712
H291	H	1.429737	0.498489	0.929045
H292	H	0.149798	-0.312459	0.376594
H293	H	0.483131	0.020874	0.709927
H294	H	0.816464	0.354207	1.043260
H295	H	0.982543	-0.312396	0.543871
H296	H	1.315876	0.020937	0.877205
H297	H	1.649209	0.354271	1.210538
H298	H	0.982785	-0.953055	0.230679
H299	H	1.316118	-0.619722	0.564012
H300	H	1.649452	-0.286389	0.897345
O301	O	0.830306	-0.185855	0.538570
O302	O	1.163639	0.147478	0.871904
O303	O	1.496972	0.480811	1.205237
C304	C	0.838919	-0.193033	0.473499
C305	C	1.172253	0.140301	0.806832
C306	C	1.505586	0.473634	1.140165
H307	H	0.887485	-0.210145	0.464537
H308	H	1.220819	0.123189	0.797871
H309	H	1.554152	0.456522	1.131204
H310	H	0.834680	-0.153871	0.448521
H311	H	1.168014	0.179462	0.781855
H312	H	1.501347	0.512796	1.115188
H313	H	0.801558	-0.220885	0.454819
H314	H	1.134891	0.112449	0.788152
H315	H	1.468225	0.445782	1.121486
O316	O	0.545529	-0.317763	0.382845
O317	O	0.878862	0.015570	0.716178
O318	O	1.212196	0.348903	1.049512
C319	C	0.561644	-0.306416	0.445606
C320	C	0.894977	0.026917	0.778940
C321	C	1.228310	0.360251	1.112273
H322	H	0.609408	-0.286331	0.446944
H323	H	0.942741	0.047002	0.780277
H324	H	1.276074	0.380335	1.113610
H325	H	0.563856	-0.344188	0.473749
H326	H	0.897189	-0.010855	0.807082
H327	H	1.230522	0.322478	1.140416
H328	H	0.524700	-0.279554	0.466877
H329	H	0.858033	0.053779	0.800210
H330	H	1.191366	0.387112	1.133544
H331	H	0.550679	-0.191005	0.230638
H332	H	0.884012	0.142328	0.563972
H333	H	1.217345	0.475662	0.897305
H334	H	1.023013	-0.800899	0.190459
H335	H	1.356347	-0.467566	0.523793
H336	H	1.689680	-0.134233	0.857126
O337	O	0.830071	-0.446595	0.382920
O338	O	1.163404	-0.113262	0.716253
O339	O	1.496737	0.220071	1.049587
C340	C	0.843805	-0.459894	0.445678
C341	C	1.177139	-0.126560	0.779011
C342	C	1.510472	0.206773	1.112344
H343	H	0.868010	-0.499517	0.447017
H344	H	1.201343	-0.166184	0.780350
H345	H	1.534676	0.167150	1.113684
H346	H	0.798359	-0.461793	0.473858
H347	H	1.131692	-0.128459	0.807191
H348	H	1.465025	0.204874	1.140524
H349	H	0.876152	-0.429125	0.466906
H350	H	1.209486	-0.095792	0.800239
H351	H	1.542819	0.237541	1.133572
O352	O	0.830336	-0.185817	0.668338
O353	O	1.163669	0.147517	1.001671
O354	O	1.497002	0.480850	1.335004
C355	C	0.866200	-0.152032	0.706384
C356	C	1.199533	0.181301	1.039718
C357	C	1.532867	0.514635	1.373051
H358	H	0.913892	-0.170459	0.716248
H359	H	1.247225	0.162874	1.049581
H360	H	1.580558	0.496207	1.382914
H361	H	0.840564	-0.145037	0.752605
H362	H	1.173898	0.188296	1.085938
H363	H	1.507231	0.521629	1.419271
H364	H	0.873144	-0.113281	0.681068
H365	H	1.206478	0.220052	1.014401
H366	H	1.539811	0.553385	1.347734
H367	H	0.269062	-0.312486	0.376545
H368	H	0.602395	0.020848	0.709878
H369	H	0.935728	0.354181	1.043212
O370	O	0.675134	-0.317740	0.382746
O371	O	1.008467	0.015593	0.716079
O372	O	1.341800	0.348927	1.049412
C373	C	0.713219	-0.288030	0.423468
C374	C	1.046552	0.045303	0.756801
C375	C	1.379885	0.378637	1.090134
H376	H	0.723107	-0.248381	0.401348
H377	H	1.056440	0.084953	0.734681
H378	H	1.389774	0.418286	1.068014
H379	H	0.759425	-0.309345	0.431848
H380	H	1.092758	0.023988	0.765182
H381	H	1.426091	0.357322	1.098515
H382	H	0.687923	-0.282340	0.470135
H383	H	1.021256	0.050993	0.803469
H384	H	1.354590	0.384326	1.136802
H385	H	0.269108	-0.190958	0.230734
H386	H	0.602442	0.142375	0.564067
H387	H	0.935775	0.475708	0.897401
O388	O	0.144585	-0.185736	0.224468
O389	O	0.477919	0.147598	0.557801
O390	O	0.811252	0.480931	0.891135
C391	C	0.079509	-0.192902	0.233110
C392	C	0.412842	0.140431	0.566443
C393	C	0.746176	0.473764	0.899777
H394	H	0.070496	-0.233271	0.253663
H395	H	0.403829	0.100063	0.586996
H396	H	0.737162	0.433396	0.920329
H397	H	0.054498	-0.189312	0.185968
H398	H	0.387831	0.144022	0.519302
H399	H	0.721164	0.477355	0.852635
H400	H	0.060911	-0.161921	0.266686
H401	H	0.394244	0.171413	0.600019
H402	H	0.727577	0.504746	0.933352
O403	O	0.989036	-0.553985	0.224341
O404	O	1.322369	-0.220652	0.557675
O405	O	1.655703	0.112682	0.891008
C406	C	1.051756	-0.540569	0.238189
C407	C	1.385089	-0.207236	0.571522
C408	C	1.718422	0.126098	0.904855
H409	H	1.053012	-0.500919	0.262394
H410	H	1.386346	-0.167586	0.595727
H411	H	1.719679	0.165748	0.929060
H412	H	1.080016	-0.538669	0.192793
H413	H	1.413349	-0.205336	0.526126
H414	H	1.746683	0.127998	0.859460
H415	H	1.072955	-0.571269	0.270575
H416	H	1.406289	-0.237936	0.603909
H417	H	1.739622	0.095397	0.937242
O418	O	1.029359	-0.697637	0.184109
O419	O	1.362693	-0.364304	0.517443
O420	O	1.696026	-0.030970	0.850776
C421	C	1.064921	-0.733422	0.148624
C422	C	1.398254	-0.400089	0.481957
C423	C	1.731587	-0.066756	0.815290
H424	H	1.067084	-0.772335	0.174419
H425	H	1.400417	-0.439002	0.507752
H426	H	1.733751	-0.105668	0.841086
H427	H	1.114521	-0.717602	0.141974
H428	H	1.447854	-0.384269	0.475308
H429	H	1.781187	-0.050935	0.808641
H430	H	1.041914	-0.739267	0.100784
H431	H	1.375247	-0.405934	0.434117
H432	H	1.708581	-0.072601	0.767451
H433	H	0.836565	-0.191095	0.944667
H434	H	1.169898	0.142238	1.278001
H435	H	1.503232	0.475571	1.611334
O436	O	0.989182	-1.056484	0.224482
O437	O	1.322516	-0.723151	0.557815
O438	O	1.655849	-0.389817	0.891148
C439	C	0.980573	-1.110538	0.233128
C440	C	1.313906	-0.777205	0.566462
C441	C	1.647239	-0.443871	0.899795
H442	H	0.959860	-1.117986	0.281661
H443	H	1.293193	-0.784653	0.614994
H444	H	1.626527	-0.451320	0.948328
H445	H	1.027753	-1.131226	0.229000
H446	H	1.361086	-0.797892	0.562333
H447	H	1.694420	-0.464559	0.895666
H448	H	0.947145	-1.126112	0.195717
H449	H	1.280478	-0.792779	0.529050
H450	H	1.613812	-0.459445	0.862383
O451	O	0.830317	-1.056606	0.382848
O452	O	1.163650	-0.723272	0.716181
O453	O	1.496984	-0.389939	1.049514
C454	C	0.838986	-1.110649	0.374254
C455	C	1.172319	-0.777315	0.707587
C456	C	1.505653	-0.443982	1.040920
H457	H	0.859642	-1.118104	0.325701
H458	H	1.192975	-0.784771	0.659035
H459	H	1.526309	-0.451437	0.992368
H460	H	0.791839	-1.131448	0.378472
H461	H	1.125172	-0.798115	0.711805
H462	H	1.458506	-0.464782	1.045138
H463	H	0.872486	-1.126094	0.411638
H464	H	1.205819	-0.792761	0.744971
H465	H	1.539152	-0.459428	1.078305
H466	H	0.836587	-0.953177	0.376583
H467	H	1.169921	-0.619843	0.709917
H468	H	1.503254	-0.286510	1.043250
O469	O	0.789899	-0.805292	0.423164
O470	O	1.123232	-0.471958	0.756497
O471	O	1.456565	-0.138625	1.089831
C472	C	0.754322	-0.769505	0.458632
C473	C	1.087656	-0.436171	0.791966
C474	C	1.420989	-0.102838	1.125299
H475	H	0.780094	-0.730555	0.460828
H476	H	1.113427	-0.397222	0.794161
H477	H	1.446761	-0.063889	1.127494
H478	H	0.747578	-0.785266	0.508227
H479	H	1.080912	-0.451933	0.841561
H480	H	1.414245	-0.118600	1.174894
H481	H	0.706527	-0.763754	0.435524
H482	H	1.039861	-0.430421	0.768858
H483	H	1.373194	-0.097087	1.102191
H484	H	0.796210	-0.702025	0.416773
H485	H	1.129543	-0.368692	0.750106
H486	H	1.462876	-0.035358	1.083439
O487	O	0.830167	-0.554247	0.382873
O488	O	1.163501	-0.220914	0.716207
O489	O	1.496834	0.112420	1.049540
C490	C	0.865992	-0.585766	0.423594
C491	C	1.199325	-0.252433	0.756927
C492	C	1.532659	0.080900	1.090260
H493	H	0.913719	-0.593899	0.401454
H494	H	1.247052	-0.260565	0.734787
H495	H	1.580386	0.072768	1.068121
H496	H	0.840366	-0.624190	0.432006
H497	H	1.173699	-0.290857	0.765339
H498	H	1.507032	0.042476	1.098673
H499	H	0.872860	-0.564698	0.470247
H500	H	1.206194	-0.231365	0.803580
H501	H	1.539527	0.101968	1.136914
H502	H	0.982545	-0.312387	1.063973
H503	H	1.315879	0.020946	1.397306
H504	H	1.649212	0.354279	1.730639
O505	O	0.830166	-0.185918	1.069133
O506	O	1.163499	0.147415	1.402466
O507	O	1.496833	0.480748	1.735799
C508	C	0.789495	-0.215695	1.107144
C509	C	1.122829	0.117638	1.440477
C510	C	1.456162	0.450972	1.773811
H511	H	0.785576	-0.256875	1.087320
H512	H	1.118909	0.076458	1.420653
H513	H	1.452243	0.409791	1.753987
H514	H	0.741065	-0.196798	1.107871
H515	H	1.074399	0.136536	1.441204
H516	H	1.407732	0.469869	1.774537
H517	H	0.808956	-0.217490	1.156977
H518	H	1.142289	0.115843	1.490311
H519	H	1.475622	0.449177	1.823644
H520	H	0.982552	-0.312383	0.944709
H521	H	1.315885	0.020951	1.278042
H522	H	1.649219	0.354284	1.611376
O523	O	0.988890	-0.317691	0.668210
O524	O	1.322223	0.015642	1.001543
O525	O	1.655556	0.348976	1.334876
C526	C	1.024406	-0.347189	0.625109
C527	C	1.357740	-0.013855	0.958442
C528	C	1.691073	0.319478	1.291775
H529	H	0.998620	-0.349005	0.578234
H530	H	1.331954	-0.015672	0.911567
H531	H	1.665287	0.317662	1.244900
H532	H	1.031085	-0.388381	0.644097
H533	H	1.364419	-0.055048	0.977430
H534	H	1.697752	0.278285	1.310763
H535	H	1.072232	-0.328034	0.618143
H536	H	1.405565	0.005300	0.951477
H537	H	1.738898	0.338633	1.284810
