data_functionalizedCrystal
_audit_creation_method	'MofGen! by Chris Wilmer'
_symmetry_space_group_name_H-M	'P1'
_symmetry_Int_Tables_number	1
_symmetry_cell_setting	triclinic
loop_
_symmetry_equiv_pos_as_xyz
  x,y,z
_cell_length_a	16.120444
_cell_length_b	21.295420
_cell_length_c	16.120256
_cell_angle_alpha	87.122604
_cell_angle_beta	95.616860
_cell_angle_gamma	87.075933
loop_
_atom_site_label
_atom_site_type_symbol
_atom_site_fract_x
_atom_site_fract_y
_atom_site_fract_z
Zn1	Zn	-0.356822	-0.929939	-0.489488
Zn2	Zn	-0.023488	-0.596606	-0.156155
Zn3	Zn	0.309845	-0.263273	0.177178
Zn4	Zn	-0.489508	-0.929858	-0.356800
Zn5	Zn	-0.156175	-0.596525	-0.023466
Zn6	Zn	0.177159	-0.263192	0.309867
Zn7	Zn	-0.349747	-0.830293	-0.349730
Zn8	Zn	-0.016414	-0.496960	-0.016397
Zn9	Zn	0.316919	-0.163627	0.316936
Zn10	Zn	-0.496547	-0.819020	-0.496520
Zn11	Zn	-0.163213	-0.485687	-0.163186
Zn12	Zn	0.170120	-0.152354	0.170147
O13	O	-0.423156	-0.877278	-0.423135
O14	O	-0.089823	-0.543944	-0.089801
O15	O	0.243511	-0.210611	0.243532
O16	O	-0.374438	-1.018017	-0.471902
O17	O	-0.041104	-0.684683	-0.138569
O18	O	0.292229	-0.351350	0.194764
O19	O	-0.465062	-0.921335	-0.238899
O20	O	-0.131729	-0.588001	0.094434
O21	O	0.201605	-0.254668	0.427767
O22	O	-0.233720	-0.848263	-0.362368
O23	O	0.099613	-0.514930	-0.029035
O24	O	0.432947	-0.181597	0.304298
O25	O	-0.471922	-1.017957	-0.374417
O26	O	-0.138588	-0.684624	-0.041083
O27	O	0.194745	-0.351291	0.292250
O28	O	-0.238918	-0.921473	-0.465048
O29	O	0.094416	-0.588139	-0.131714
O30	O	0.427749	-0.254806	0.201619
O31	O	-0.362380	-0.848185	-0.233706
O32	O	-0.029047	-0.514851	0.099628
O33	O	0.304286	-0.181518	0.432961
O34	O	-0.369206	-0.740710	-0.369187
O35	O	-0.035872	-0.407376	-0.035853
O36	O	0.297461	-0.074043	0.297480
O37	O	-0.483918	-0.829050	-0.612550
O38	O	-0.150585	-0.495717	-0.279216
O39	O	0.182748	-0.162383	0.054117
O40	O	-0.477058	-0.732428	-0.477032
O41	O	-0.143725	-0.399094	-0.143699
O42	O	0.189608	-0.065761	0.189634
O43	O	-0.381263	-0.910542	-0.607383
O44	O	-0.047930	-0.577208	-0.274050
O45	O	0.285404	-0.243875	0.059283
O46	O	-0.607407	-0.910404	-0.381235
O47	O	-0.274074	-0.577070	-0.047902
O48	O	0.059259	-0.243737	0.285432
O49	O	-0.612579	-0.828972	-0.483887
O50	O	-0.279245	-0.495638	-0.150554
O51	O	0.054088	-0.162305	0.182780
C52	C	-0.423129	-0.713728	-0.423106
C53	C	-0.089795	-0.380395	-0.089773
C54	C	0.243538	-0.047062	0.243561
C55	C	-0.423138	-0.643760	-0.423114
C56	C	-0.089805	-0.310426	-0.089781
C57	C	0.243528	0.022907	0.243552
C58	C	-0.479396	-0.140003	-0.479227
C59	C	-0.146062	0.193330	-0.145894
C60	C	0.187271	0.526663	0.187439
C61	C	-0.479397	-0.205746	-0.479220
C62	C	-0.146064	0.127587	-0.145886
C63	C	0.187270	0.460921	0.187447
C64	C	-0.423163	-0.242918	-0.423148
C65	C	-0.089830	0.090415	-0.089815
C66	C	0.243503	0.423749	0.243518
C67	C	-0.366939	-0.214342	-0.367065
C68	C	-0.033605	0.118992	-0.033732
C69	C	0.299728	0.452325	0.299601
C70	C	-0.366945	-0.148600	-0.367069
C71	C	-0.033611	0.184733	-0.033735
C72	C	0.299722	0.518067	0.299598
N73	N	-0.349661	-0.349352	-0.413152
N74	N	-0.016328	-0.016019	-0.079819
N75	N	0.317006	0.317315	0.253514
N76	N	-0.349658	-0.411804	-0.413154
N77	N	-0.016325	-0.078470	-0.079821
N78	N	0.317009	0.254863	0.253512
C79	C	-0.423143	-0.440994	-0.423133
C80	C	-0.089810	-0.107661	-0.089800
C81	C	0.243524	0.225673	0.243533
N82	N	-0.496633	-0.405373	-0.433127
N83	N	-0.163300	-0.072039	-0.099794
N84	N	0.170033	0.261294	0.233539
N85	N	-0.496636	-0.342915	-0.433130
N86	N	-0.163302	-0.009582	-0.099796
N87	N	0.170031	0.323751	0.233537
C88	C	-0.423151	-0.314204	-0.423138
C89	C	-0.089817	0.019129	-0.089805
C90	C	0.243516	0.352463	0.243529
C91	C	-0.479369	-0.540848	-0.479201
C92	C	-0.146036	-0.207515	-0.145867
C93	C	0.187297	0.125819	0.187466
C94	C	-0.479371	-0.606592	-0.479188
C95	C	-0.146038	-0.273259	-0.145854
C96	C	0.187295	0.060074	0.187479
C97	C	-0.366906	-0.615187	-0.367037
C98	C	-0.033573	-0.281853	-0.033704
C99	C	0.299761	0.051480	0.299629
C100	C	-0.366911	-0.549444	-0.367046
C101	C	-0.033578	-0.216110	-0.033713
C102	C	0.299756	0.117223	0.299620
C103	C	-0.423142	-0.512278	-0.423133
C104	C	-0.089808	-0.178945	-0.089799
C105	C	0.243525	0.154388	0.243534
C106	C	-0.640322	-0.868472	-0.434109
C107	C	-0.306988	-0.535139	-0.100776
C108	C	0.026345	-0.201805	0.232557
C109	C	-0.733228	-0.864761	-0.438832
C110	C	-0.399894	-0.531428	-0.105499
C111	C	-0.066561	-0.198094	0.227834
C112	C	-0.942138	-0.896674	-0.398814
C113	C	-0.608805	-0.563341	-0.065480
C114	C	-0.275472	-0.230008	0.267853
C115	C	-0.903323	-0.857998	-0.447464
C116	C	-0.569989	-0.524664	-0.114131
C117	C	-0.236656	-0.191331	0.219202
C118	C	-0.808673	-0.861762	-0.442660
C119	C	-0.475340	-0.528429	-0.109327
C120	C	-0.142006	-0.195095	0.224007
C121	C	-1.036797	-0.892911	-0.403617
C122	C	-0.703463	-0.559577	-0.070283
C123	C	-0.370130	-0.226244	0.263050
C124	C	-0.205143	-0.886135	-0.412135
C125	C	0.128190	-0.552801	-0.078802
C126	C	0.461524	-0.219468	0.254531
C127	C	-0.112239	-0.889909	-0.407448
C128	C	0.221095	-0.556575	-0.074115
C129	C	0.554428	-0.223242	0.259219
C130	C	-0.434165	-0.868547	-0.641142
C131	C	-0.100831	-0.535214	-0.307808
C132	C	0.232502	-0.201881	0.025525
C133	C	-0.438856	-0.864827	-0.734043
C134	C	-0.105523	-0.531494	-0.400710
C135	C	0.227810	-0.198160	-0.067376
C136	C	-0.423179	-0.041466	-0.423158
C137	C	-0.089845	0.291867	-0.089825
C138	C	0.243488	0.625200	0.243508
C139	C	-0.423175	-0.111435	-0.423155
C140	C	-0.089842	0.221899	-0.089822
C141	C	0.243491	0.555232	0.243512
C142	C	-0.398670	-0.896679	-0.942969
C143	C	-0.065336	-0.563345	-0.609636
C144	C	0.267997	-0.230012	-0.276303
C145	C	-0.447387	-0.858015	-0.904128
C146	C	-0.114053	-0.524682	-0.570795
C147	C	0.219280	-0.191348	-0.237461
C148	C	-0.442639	-0.861806	-0.809484
C149	C	-0.109306	-0.528473	-0.476151
C150	C	0.224028	-0.195140	-0.142817
C151	C	-0.403416	-0.892888	-1.037622
C152	C	-0.070083	-0.559555	-0.704289
C153	C	0.263250	-0.226222	-0.370955
C154	C	-0.412129	-0.886013	-0.205973
C155	C	-0.078796	-0.552680	0.127361
C156	C	0.254537	-0.219346	0.460694
C157	C	-0.407203	-0.889865	-0.113060
C158	C	-0.073869	-0.556531	0.220274
C159	C	0.259464	-0.223198	0.553607
H160	H	-0.525186	-0.109747	-0.524894
H161	H	-0.191853	0.223586	-0.191561
H162	H	0.141481	0.556920	0.141772
H163	H	-0.904289	-0.932611	-0.353557
H164	H	-0.570956	-0.599278	-0.020223
H165	H	-0.237623	-0.265944	0.313110
H166	H	-0.492656	-0.822063	-0.941955
H167	H	-0.159323	-0.488730	-0.608621
H168	H	0.174011	-0.155396	-0.275288
Cl169	Cl	-0.961761	-0.802507	-0.517338
Cl170	Cl	-0.628428	-0.469173	-0.184005
Cl171	Cl	-0.295094	-0.135840	0.149328
H172	H	-0.321161	-0.125340	-0.321407
H173	H	0.012172	0.207993	0.011926
H174	H	0.345506	0.541326	0.345259
Cl175	Cl	-0.328764	-0.952170	-0.884570
Cl176	Cl	0.004569	-0.618837	-0.551237
Cl177	Cl	0.337903	-0.285503	-0.217903
H178	H	-0.525178	-0.229011	-0.524883
H179	H	-0.191845	0.104322	-0.191550
H180	H	0.141488	0.437655	0.141783
H181	H	-0.525156	-0.510586	-0.524869
H182	H	-0.191823	-0.177253	-0.191535
H183	H	0.141510	0.156080	0.141798
Cl184	Cl	-0.296248	-0.261071	-0.296572
Cl185	Cl	0.037086	0.072262	0.036761
Cl186	Cl	0.370419	0.405596	0.370094
H187	H	-0.525159	-0.629851	-0.524846
H188	H	-0.191825	-0.296518	-0.191513
H189	H	0.141508	0.036815	0.141820
H190	H	-0.321127	-0.526183	-0.321389
H191	H	0.012206	-0.192850	0.011944
H192	H	0.345539	0.140483	0.345278
Cl193	Cl	-0.296219	-0.661911	-0.296539
Cl194	Cl	0.037115	-0.328578	0.036795
Cl195	Cl	0.370448	0.004756	0.370128
