data_functionalizedCrystal
_audit_creation_method	'MofGen! by Chris Wilmer'
_symmetry_space_group_name_H-M	'P1'
_symmetry_Int_Tables_number	1
_symmetry_cell_setting	triclinic
loop_
_symmetry_equiv_pos_as_xyz
  x,y,z
_cell_length_a	21.295417
_cell_length_b	19.121102
_cell_length_c	21.295411
_cell_angle_alpha	87.545010
_cell_angle_beta	90.028718
_cell_angle_gamma	92.415380
loop_
_atom_site_label
_atom_site_type_symbol
_atom_site_fract_x
_atom_site_fract_y
_atom_site_fract_z
Zn1	Zn	-0.291757	-1.073671	0.396909
Zn2	Zn	0.208243	-0.573671	0.896909
Zn3	Zn	-0.397019	-1.073578	0.291631
Zn4	Zn	0.102981	-0.573578	0.791631
Zn5	Zn	-0.287273	-0.956227	0.287170
Zn6	Zn	0.212727	-0.456227	0.787170
Zn7	Zn	-0.392493	-0.956176	0.392380
Zn8	Zn	0.107507	-0.456176	0.892380
O9	O	-0.342135	-1.014913	0.342022
O10	O	0.157865	-0.514913	0.842022
O11	O	-0.309491	-1.171942	0.386706
O12	O	0.190509	-0.671942	0.886706
O13	O	-0.382478	-1.057994	0.202949
O14	O	0.117522	-0.557994	0.702949
O15	O	-0.199781	-0.971866	0.301755
O16	O	0.300219	-0.471866	0.801755
O17	O	-0.386826	-1.171874	0.309359
O18	O	0.113174	-0.671874	0.809359
O19	O	-0.203075	-1.058151	0.382380
O20	O	0.296925	-0.558151	0.882380
O21	O	-0.301848	-0.971777	0.199671
O22	O	0.198152	-0.471777	0.699671
O23	O	-0.297460	-0.857936	0.297363
O24	O	0.202540	-0.357936	0.797363
O25	O	-0.379113	-0.971779	0.481071
O26	O	0.120887	-0.471779	0.981071
O27	O	-0.374764	-0.857899	0.374661
O28	O	0.125236	-0.357899	0.874661
O29	O	-0.305103	-1.058102	0.484398
O30	O	0.194897	-0.558102	0.984398
O31	O	-0.484505	-1.057945	0.304967
O32	O	0.015495	-0.557945	0.804967
O33	O	-0.481180	-0.971690	0.378987
O34	O	0.018820	-0.471690	0.878987
C35	C	-0.335135	-0.832434	0.335037
C36	C	0.164865	-0.332434	0.835037
C37	C	-0.332155	-0.754369	0.332063
C38	C	0.167845	-0.254369	0.832063
C39	C	-0.505684	-1.014821	0.341984
C40	C	-0.005684	-0.514821	0.841984
C41	C	-0.575653	-1.014846	0.341991
C42	C	-0.075653	-0.514846	0.841991
C43	C	-0.342103	-1.014945	0.506214
C44	C	0.157897	-0.514945	1.006214
C45	C	-0.342089	-1.014959	0.576183
C46	C	0.157911	-0.514959	1.076183
C47	C	-0.610231	-1.059799	0.303492
C48	C	-0.110231	-0.559799	0.803492
C49	C	-0.675975	-1.059832	0.303507
C50	C	-0.175975	-0.559832	0.803507
C51	C	-0.707137	-1.014899	0.342015
C52	C	-0.207137	-0.514899	0.842015
C53	C	-0.672550	-0.969943	0.380522
C54	C	-0.172550	-0.469943	0.880522
C55	C	-0.606808	-0.969917	0.380510
C56	C	-0.106808	-0.469917	0.880510
N57	N	-0.808050	-0.953459	0.344462
N58	N	-0.308050	-0.453459	0.844462
N59	N	-0.870503	-0.953486	0.344469
N60	N	-0.370503	-0.453486	0.844469
C61	C	-0.905215	-1.014978	0.342054
C62	C	-0.405215	-0.514978	0.842054
N63	N	-0.875115	-1.076443	0.339618
N64	N	-0.375115	-0.576443	0.839618
N65	N	-0.812657	-1.076415	0.339607
N66	N	-0.312657	-0.576415	0.839607
C67	C	-0.778423	-1.014923	0.342032
C68	C	-0.278423	-0.514923	0.842032
C69	C	-1.011081	-1.059970	0.303569
C70	C	-0.511081	-0.559970	0.803569
C71	C	-1.076826	-1.060004	0.303589
C72	C	-0.576826	-0.560004	0.803589
C73	C	-1.073399	-0.970110	0.380600
C74	C	-0.573399	-0.470110	0.880600
C75	C	-1.007656	-0.970082	0.380584
C76	C	-0.507656	-0.470082	0.880584
C77	C	-0.976500	-1.015011	0.342065
C78	C	-0.476500	-0.515011	0.842065
C79	C	-0.177949	-1.015025	0.342075
C80	C	0.322051	-0.515025	0.842075
C81	C	-0.107983	-1.015072	0.342098
C82	C	0.392017	-0.515072	0.842098
C83	C	-0.349164	-1.198105	0.349036
C84	C	0.150836	-0.698105	0.849036
C85	C	-0.352159	-1.276170	0.352024
C86	C	0.147841	-0.776170	0.852024
C87	C	-0.371064	-0.717692	0.370848
C88	C	0.128936	-0.217692	0.870848
C89	C	-0.368256	-0.644342	0.368057
C90	C	0.131744	-0.144342	0.868057
C91	C	-0.326541	-0.607668	0.326478
C92	C	0.173459	-0.107668	0.826478
C93	C	-0.287628	-0.644350	0.287692
C94	C	0.212372	-0.144350	0.787692
C95	C	-0.290433	-0.717699	0.290486
C96	C	0.209567	-0.217699	0.790486
C97	C	-0.316051	-0.386201	0.316033
C98	C	0.183949	0.113799	0.816033
C99	C	-0.313250	-0.312846	0.313240
C100	C	0.186750	0.187154	0.813240
C101	C	-0.393878	-0.312843	0.393606
C102	C	0.106122	0.187157	0.893606
C103	C	-0.396682	-0.386194	0.396394
C104	C	0.103318	0.113806	0.896394
C105	C	-0.357766	-0.422869	0.357610
C106	C	0.142234	0.077131	0.857610
C107	C	-0.323671	-0.532692	0.323623
C108	C	0.176329	-0.032692	0.823623
C109	C	-0.360633	-0.497844	0.360469
C110	C	0.139367	0.002156	0.860469
C111	C	-0.342124	-1.014921	0.178471
C112	C	0.157876	-0.514921	0.678471
C113	C	-0.341965	-1.015044	0.108508
C114	C	0.158035	-0.515044	0.608508
C115	C	-0.383946	-1.059931	1.077351
C116	C	0.116054	-0.559931	1.577351
C117	C	-0.383965	-1.059918	1.011608
C118	C	0.116035	-0.559918	1.511608
C119	C	-0.341994	-1.015026	0.977025
C120	C	0.158006	-0.515026	1.477025
C121	C	-0.300010	-0.970129	1.008189
C122	C	0.199990	-0.470129	1.508189
C123	C	-0.299996	-0.970138	1.073931
C124	C	0.200004	-0.470138	1.573931
N125	N	-0.286709	-1.009661	0.873615
N126	N	0.213291	-0.509661	1.373615
N127	N	-0.286724	-1.009656	0.811163
N128	N	0.213276	-0.509656	1.311163
C129	C	-0.342035	-1.014995	0.778949
C130	C	0.157965	-0.514995	1.278949
N131	N	-0.397331	-1.020351	0.811546
N132	N	0.102669	-0.520351	1.311546
N133	N	-0.397315	-1.020359	0.874003
N134	N	0.102685	-0.520359	1.374003
C135	C	-0.342005	-1.015010	0.905739
C136	C	0.157995	-0.515010	1.405739
C137	C	-0.384040	-1.059871	0.676506
C138	C	0.115960	-0.559871	1.176506
C139	C	-0.384061	-1.059853	0.610761
C140	C	0.115939	-0.559853	1.110761
C141	C	-0.300100	-0.970068	0.607344
C142	C	0.199900	-0.470068	1.107344
C143	C	-0.300085	-0.970082	0.673087
C144	C	0.199915	-0.470082	1.173087
C145	C	-0.342054	-1.014987	0.707664
C146	C	0.157946	-0.514987	1.207664
H147	H	-0.584867	-1.096384	0.272129
H148	H	-0.084867	-0.596384	0.772129
H149	H	-0.418252	-1.096402	0.585394
H150	H	0.081748	-0.596402	1.085394
H151	H	-0.697927	-0.933360	0.411876
H152	H	-0.197927	-0.433360	0.911876
H153	H	-0.578653	-0.933310	0.411861
H154	H	-0.078653	-0.433310	0.911861
H155	H	-0.979500	-0.933474	0.411931
H156	H	-0.479500	-0.433474	0.911931
O157	O	-0.424660	-1.103562	0.981267
O158	O	0.075340	-0.603562	1.481267
C159	C	-0.436766	-1.198402	0.910707
C160	C	0.063234	-0.698402	1.410707
C161	C	-0.390611	-1.149009	0.945014
C162	C	0.109389	-0.649009	1.445014
H163	H	-0.409256	-1.235168	0.881399
H164	H	0.090744	-0.735168	1.381399
H165	H	-0.468445	-1.166175	0.878640
H166	H	0.031555	-0.666175	1.378640
H167	H	-0.466772	-1.230462	0.946726
H168	H	0.033228	-0.730462	1.446726
H169	H	-0.360564	-1.116938	0.909040
H170	H	0.139436	-0.616938	1.409040
H171	H	-0.358975	-1.181276	0.977092
H172	H	0.141025	-0.681276	1.477092
O173	O	-0.437219	-0.421707	0.436840
O174	O	0.062781	0.078293	0.936840
C175	C	-0.516924	-0.413961	0.516228
C176	C	-0.016924	0.086039	1.016228
C177	C	-0.471031	-0.373655	0.470465
C178	C	0.028969	0.126345	0.970465
H179	H	-0.544282	-0.375128	0.543417
H180	H	-0.044282	0.124872	1.043417
H181	H	-0.489414	-0.448313	0.550548
H182	H	0.010586	0.051687	1.050548
H183	H	-0.551084	-0.448289	0.488560
H184	H	-0.051084	0.051711	0.988560
H185	H	-0.436860	-0.339288	0.498081
H186	H	0.063140	0.160712	0.998081
H187	H	-0.498581	-0.339347	0.436145
H188	H	0.001419	0.160653	0.936145
O189	O	-0.424778	-1.103567	1.110841
O190	O	0.075222	-0.603567	1.610841
C191	C	-0.508029	-1.192649	1.107291
C192	C	-0.008029	-0.692649	1.607291
C193	C	-0.461829	-1.143258	1.069284
C194	C	0.038171	-0.643258	1.569284
H195	H	-0.537988	-1.224763	1.073709
H196	H	-0.037988	-0.724763	1.573709
H197	H	-0.539746	-1.160421	1.136805
H198	H	-0.039746	-0.660421	1.636805
H199	H	-0.480520	-1.229366	1.139504
H200	H	0.019480	-0.729366	1.639504
H201	H	-0.489287	-1.106532	1.037037
H202	H	0.010713	-0.606532	1.537037
H203	H	-0.430112	-1.175530	1.039811
H204	H	0.069888	-0.675530	1.539811
H205	H	-0.265898	-0.933532	0.698455
H206	H	0.234102	-0.433532	1.198455
O207	O	-0.980745	-1.103652	0.266247
O208	O	-0.480745	-0.603652	0.766247
C209	C	-0.910111	-1.198480	0.261465
C210	C	-0.410111	-0.698480	0.761465
C211	C	-0.944413	-1.149043	0.303803
C212	C	-0.444413	-0.649043	0.803803
H213	H	-0.880739	-1.235201	0.291812
H214	H	-0.380739	-0.735201	0.791812
H215	H	-0.878108	-1.166285	0.227295
H216	H	-0.378108	-0.666285	0.727295
H217	H	-0.946135	-1.230587	0.233940
H218	H	-0.446135	-0.730587	0.733940
H219	H	-0.908435	-1.116926	0.331369
H220	H	-0.408435	-0.616926	0.831369
H221	H	-0.976427	-1.181279	0.337933
H222	H	-0.476427	-0.681279	0.837933
O223	O	-0.709477	-1.103520	0.266046
O224	O	-0.209477	-0.603520	0.766046
C225	C	-0.705943	-1.192697	0.189678
C226	C	-0.205943	-0.692697	0.689678
C227	C	-0.667928	-1.143246	0.232061
C228	C	-0.167928	-0.643246	0.732061
H229	H	-0.672367	-1.224838	0.162200
H230	H	-0.172367	-0.724838	0.662200
H231	H	-0.735518	-1.160513	0.155474
H232	H	-0.235518	-0.660513	0.655474
H233	H	-0.738097	-1.229384	0.220022
H234	H	-0.238097	-0.729384	0.720022
H235	H	-0.635739	-1.106548	0.201768
H236	H	-0.135739	-0.606548	0.701768
H237	H	-0.638394	-1.175473	0.266268
H238	H	-0.138394	-0.675473	0.766268
O239	O	-0.411602	-0.753205	0.411294
O240	O	0.088398	-0.253205	0.911294
C241	C	-0.491298	-0.745451	0.490688
C242	C	0.008702	-0.245451	0.990688
C243	C	-0.445409	-0.705149	0.444919
C244	C	0.054591	-0.205149	0.944919
H245	H	-0.518653	-0.706616	0.517877
H246	H	-0.018653	-0.206616	1.017877
H247	H	-0.463786	-0.779801	0.525007
H248	H	0.036214	-0.279801	1.025007
H249	H	-0.525462	-0.779781	0.463026
H250	H	-0.025462	-0.279781	0.963026
H251	H	-0.411235	-0.670781	0.472529
H252	H	0.088765	-0.170781	0.972529
H253	H	-0.472963	-0.670843	0.410600
H254	H	0.027037	-0.170843	0.910600
H255	H	-1.104979	-1.096615	0.272240
H256	H	-0.604979	-0.596615	0.772240
H257	H	-0.399941	-0.614483	0.399639
H258	H	0.100059	-0.114483	0.899639
H259	H	-0.425560	-0.282974	0.425182
H260	H	0.074440	0.217026	0.925182
H261	H	-0.289709	-0.502825	0.289768
H262	H	0.210291	-0.002825	0.789768
O263	O	-0.272676	-0.277153	0.272943
O264	O	0.227324	0.222847	0.772943
C265	C	-0.184468	-0.194433	0.261516
C266	C	0.315532	0.305567	0.761516
C267	C	-0.230390	-0.234793	0.307213
C268	C	0.269610	0.265207	0.807213
H269	H	-0.150260	-0.160186	0.289207
H270	H	0.349740	0.339814	0.789207
H271	H	-0.211953	-0.160009	0.227234
H272	H	0.288047	0.339991	0.727234
H273	H	-0.157165	-0.233268	0.234274
H274	H	0.342835	0.266732	0.734274
H275	H	-0.257705	-0.196009	0.334498
H276	H	0.242295	0.303991	0.834498
H277	H	-0.202869	-0.269227	0.341455
H278	H	0.297131	0.230773	0.841455
H279	H	-0.265838	-0.933576	0.980027
H280	H	0.234162	-0.433576	1.480027
H281	H	-0.265927	-0.933514	0.579187
H282	H	0.234073	-0.433514	1.079187
O283	O	-0.247158	-0.608619	0.247321
O284	O	0.252842	-0.108619	0.747321
C285	C	-0.207071	-0.495625	0.207429
C286	C	0.292929	0.004375	0.707429
C287	C	-0.252943	-0.536000	0.253167
C288	C	0.247057	-0.036000	0.753167
H289	H	-0.211724	-0.436905	0.212150
H290	H	0.288276	0.063095	0.712150
H291	H	-0.218602	-0.509966	0.157181
H292	H	0.281398	-0.009966	0.657181
H293	H	-0.156890	-0.510122	0.219127
H294	H	0.343110	-0.010122	0.719127
H295	H	-0.303140	-0.521525	0.241527
H296	H	0.196860	-0.021525	0.741527
H297	H	-0.241359	-0.521655	0.303402
H298	H	0.258641	-0.021655	0.803402
H299	H	-0.284368	-0.416053	0.284448
H300	H	0.215632	0.083947	0.784448
O301	O	-0.424841	-1.103385	0.710162
O302	O	0.075159	-0.603385	1.210162
C303	C	-0.510200	-1.112784	0.784692
C304	C	-0.010200	-0.612784	1.284692
C305	C	-0.464019	-1.063427	0.746628
C306	C	0.035981	-0.563427	1.246628
H307	H	-0.541896	-1.080497	0.814174
H308	H	-0.041896	-0.580497	1.314174
H309	H	-0.482738	-1.149524	0.816928
H310	H	0.017262	-0.649524	1.316928
H311	H	-0.540185	-1.144874	0.751115
H312	H	-0.040185	-0.644874	1.251115
H313	H	-0.434023	-1.031291	0.780159
H314	H	0.065977	-0.531291	1.280159
H315	H	-0.491519	-1.026733	0.714384
H316	H	0.008481	-0.526733	1.214384
H317	H	-0.258746	-0.747560	0.258907
H318	H	0.241254	-0.247560	0.758907
H319	H	-1.098771	-0.933528	0.411957
H320	H	-0.598771	-0.433528	0.911957
H321	H	-0.265809	-0.933585	1.099298
H322	H	0.234191	-0.433585	1.599298
H323	H	-0.394595	-0.527706	0.394325
H324	H	0.105405	-0.027706	0.894325
