data_functionalizedCrystal
_audit_creation_method	'MofGen! by Chris Wilmer'
_symmetry_space_group_name_H-M	'P1'
_symmetry_Int_Tables_number	1
_symmetry_cell_setting	triclinic
loop_
_symmetry_equiv_pos_as_xyz
  x,y,z
_cell_length_a	16.974800
_cell_length_b	16.992695
_cell_length_c	16.776229
_cell_angle_alpha	89.993259
_cell_angle_beta	93.649672
_cell_angle_gamma	87.021674
loop_
_atom_site_label
_atom_site_type_symbol
_atom_site_fract_x
_atom_site_fract_y
_atom_site_fract_z
O1	O	1.055459	0.099873	0.001825
O2	O	0.826058	0.112614	-0.012981
O3	O	0.939839	-0.007898	-0.005631
O4	O	0.941678	0.220385	-0.005525
O5	O	0.939822	-0.007905	0.126945
O6	O	0.826042	0.112607	0.119594
O7	O	1.055443	0.099866	0.134401
Zn8	Zn	0.940739	0.106235	0.148047
Zn9	Zn	0.940761	0.106245	-0.026627
O10	O	0.941662	0.220378	0.127051
C11	C	0.796561	0.112128	0.051404
C12	C	0.708693	0.110681	0.045732
C13	C	0.937465	-0.037112	0.060504
C14	C	0.930405	-0.124148	0.060048
C15	C	0.667408	0.109995	0.115337
C16	C	0.584848	0.108623	0.110011
C17	C	0.543573	0.107942	0.035079
C18	C	0.584864	0.108625	-0.034531
C19	C	0.667423	0.109992	-0.029203
C20	C	0.296658	0.103849	0.011398
C21	C	0.214093	0.102485	0.006076
C22	C	0.214082	0.102481	0.150618
C23	C	0.296643	0.103852	0.155938
C24	C	0.337927	0.104532	0.086329
N25	N	0.459183	0.106541	0.029633
N26	N	0.422316	0.105926	0.091775
C27	C	0.998520	-0.174465	0.064445
C28	C	0.991882	-0.256244	0.064009
C29	C	0.917129	-0.287704	0.059182
C30	C	0.849008	-0.237380	0.054782
C31	C	0.855647	-0.155603	0.055212
C32	C	0.889614	-0.531271	0.057395
C33	C	0.882980	-0.613055	0.056967
C34	C	1.025855	-0.631913	0.066193
C35	C	1.032487	-0.550134	0.066628
C36	C	0.964367	-0.499817	0.062224
N37	N	0.910342	-0.371295	0.058739
N38	N	0.971155	-0.416227	0.062662
C39	C	1.084940	0.100352	0.070014
C40	C	1.172808	0.101799	0.075680
C41	C	0.944036	0.249591	0.060914
C42	C	0.951096	0.336628	0.061365
N43	N	0.940730	0.106228	0.267257
N44	N	0.940776	0.106246	-0.145837
C45	C	0.991130	0.052887	0.312230
C46	C	0.991135	0.052886	0.395683
C47	C	0.940742	0.106231	0.434161
C48	C	0.890337	0.159574	0.389182
C49	C	0.890329	0.159571	0.305731
C50	C	0.890366	0.159590	0.725731
C51	C	0.890380	0.159591	0.809189
C52	C	0.991172	0.052906	0.815683
C53	C	0.991164	0.052902	0.732232
C54	C	0.940756	0.106242	0.687260
C55	C	0.940751	0.106241	0.596771
C56	C	0.940751	0.106236	0.524648
H57	H	0.701007	0.110556	0.176354
H58	H	0.800180	-0.114634	0.051631
C59	C	0.801743	-0.647060	0.051671
C60	C	0.743506	-0.585493	0.047881
C61	C	0.668666	-0.616789	0.042990
H62	H	0.796060	-0.678563	0.097523
H63	H	0.796159	-0.678543	0.005058
H64	H	0.749088	-0.554023	0.094489
H65	H	0.749163	-0.553984	0.002031
H66	H	0.663082	-0.648272	-0.003622
H67	H	0.662992	-0.648292	0.088843
H68	H	0.629144	-0.575021	0.040411
C69	C	1.045904	-0.004925	0.270398
C70	C	1.096952	0.036781	0.225755
C71	C	1.147408	-0.016461	0.187209
H72	H	1.015453	-0.037548	0.235841
H73	H	1.075967	-0.036702	0.309098
H74	H	1.066892	0.068545	0.187060
H75	H	1.127419	0.069401	0.260294
H76	H	1.177471	-0.048238	0.225909
H77	H	1.116951	-0.049081	0.152656
H78	H	1.182055	0.011829	0.156921
H79	H	0.834145	-0.490312	0.053809
H80	H	1.032201	0.009466	0.700906
C81	C	1.045771	-0.004991	0.444649
C82	C	1.034977	0.006410	0.525967
C83	C	1.085288	-0.046902	0.571097
H84	H	1.099105	0.003446	0.434499
H85	H	1.033875	-0.057331	0.430259
H86	H	1.046879	0.058739	0.540351
H87	H	0.981654	-0.002033	0.536141
H88	H	1.073392	-0.099242	0.556708
H89	H	1.138619	-0.038460	0.560941
H90	H	1.077966	-0.039178	0.626275
C91	C	0.835615	0.217593	0.677054
C92	C	0.791505	0.264324	0.728618
C93	C	0.741065	0.317775	0.683802
H94	H	0.800847	0.189499	0.642267
H95	H	0.866094	0.250259	0.646471
H96	H	0.761028	0.231663	0.759188
H97	H	0.826252	0.292436	0.763405
H98	H	0.771544	0.350441	0.653219
H99	H	0.706303	0.289674	0.649017
H100	H	0.711136	0.349494	0.718781
H101	H	1.047349	-0.297210	0.067592
H102	H	0.788142	-0.263001	0.050846
H103	H	0.849303	0.203006	0.420516
H104	H	0.180460	0.101926	0.207290
C105	C	0.835613	0.217381	0.851066
C106	C	0.784606	0.175635	0.895720
C107	C	0.734155	0.228841	0.934317
H108	H	0.805513	0.249170	0.812419
H109	H	0.866095	0.249996	0.885620
H110	H	0.754127	0.143033	0.861169
H111	H	0.814685	0.143849	0.934381
H112	H	0.764637	0.261456	0.968871
H113	H	0.704060	0.260627	0.895664
H114	H	0.699546	0.200524	0.964625
C115	C	0.540163	0.107925	0.185675
C116	C	0.593978	0.108841	0.252436
C117	C	0.552844	0.108210	0.322154
H118	H	0.511099	0.061705	0.186925
H119	H	0.504826	0.153110	0.186436
H120	H	0.629302	0.063662	0.251675
H121	H	0.623044	0.155058	0.251211
H122	H	0.517507	0.153394	0.322915
H123	H	0.523781	0.061989	0.323396
H124	H	0.589350	0.108839	0.367459
C125	C	0.835581	0.217575	0.257042
C126	C	0.791466	0.264308	0.308600
C127	C	0.741028	0.317755	0.263778
H128	H	0.800816	0.189478	0.222255
H129	H	0.866062	0.250239	0.226459
H130	H	0.760988	0.231647	0.339169
H131	H	0.826210	0.292422	0.343388
H132	H	0.771509	0.350420	0.233195
H133	H	0.706269	0.289652	0.228992
H134	H	0.711096	0.349475	0.298754
C135	C	0.341313	0.104549	0.237368
C136	C	0.287487	0.103636	0.297187
C137	C	0.328608	0.104272	0.372210
H138	H	0.370376	0.150770	0.242355
H139	H	0.376650	0.059366	0.242700
H140	H	0.252163	0.148815	0.291857
H141	H	0.258422	0.057418	0.292227
H142	H	0.363946	0.059089	0.377542
H143	H	0.357670	0.150494	0.377188
H144	H	0.292094	0.103645	0.412806
C145	C	1.045762	-0.005106	0.864547
C146	C	1.000620	-0.053094	0.909542
C147	C	1.050879	-0.106546	0.954554
H148	H	1.080471	0.022989	0.899396
H149	H	1.075760	-0.036920	0.829704
H150	H	0.970634	-0.021283	0.944381
H151	H	0.965913	-0.081206	0.874712
H152	H	1.080877	-0.138360	0.919711
H153	H	1.085585	-0.078444	0.989399
H154	H	1.020257	-0.139116	0.985083
H155	H	0.551252	0.108065	-0.095541
H156	H	0.330262	0.104400	-0.045283
C157	C	0.169423	0.101715	-0.075357
C158	C	0.223249	0.102585	-0.135179
C159	C	0.182128	0.101872	-0.210200
H160	H	0.134075	0.146873	-0.080753
H161	H	0.140374	0.055469	-0.080277
H162	H	0.252285	0.148826	-0.130262
H163	H	0.258598	0.057430	-0.129810
H164	H	0.153079	0.055626	-0.215120
H165	H	0.146782	0.147031	-0.215587
H166	H	0.218643	0.102455	-0.250798
H167	H	0.701036	0.110552	-0.085883
C168	C	1.079613	-0.140161	0.069722
C169	C	1.070852	-0.057774	0.069179
C170	C	1.145539	-0.026149	0.074047
H171	H	1.107948	-0.157346	0.025330
H172	H	1.107882	-0.157401	0.117796
H173	H	1.042596	-0.040540	0.021110
H174	H	1.042531	-0.040567	0.113568
H175	H	1.173807	-0.043389	0.122121
H176	H	1.173868	-0.043340	0.029654
H177	H	1.139605	0.029754	0.073687
H178	H	1.093360	-0.524526	0.070559
H179	H	1.081315	-0.672890	0.069777
