data_functionalizedCrystal
_audit_creation_method	'MofGen! by Chris Wilmer'
_symmetry_space_group_name_H-M	'P1'
_symmetry_Int_Tables_number	1
_symmetry_cell_setting	triclinic
loop_
_symmetry_equiv_pos_as_xyz
  x,y,z
_cell_length_a	9.065218
_cell_length_b	11.792241
_cell_length_c	7.540329
_cell_angle_alpha	89.996256
_cell_angle_beta	89.996962
_cell_angle_gamma	84.604650
loop_
_atom_site_label
_atom_site_type_symbol
_atom_site_fract_x
_atom_site_fract_y
_atom_site_fract_z
O1	O	1.958839	0.166430	-0.147488
O2	O	2.458839	0.666430	0.352512
O3	O	1.529426	0.180081	-0.147491
O4	O	2.029426	0.680081	0.352509
O5	O	1.754553	0.008143	-0.147477
O6	O	2.254553	0.508143	0.352523
O7	O	1.733712	0.338368	-0.147502
O8	O	2.233712	0.838368	0.352498
O9	O	1.754539	0.008141	0.147488
O10	O	2.254539	0.508141	0.647488
O11	O	1.529412	0.180079	0.147474
O12	O	2.029412	0.680079	0.647474
O13	O	1.958825	0.166428	0.147477
O14	O	2.458825	0.666428	0.647477
Cu15	Cu	1.744118	0.173253	0.174408
Cu16	Cu	2.244118	0.673253	0.674408
Cu17	Cu	1.744134	0.173256	-0.174422
Cu18	Cu	2.244134	0.673256	0.325578
O19	O	1.733698	0.338366	0.147463
O20	O	2.233698	0.838366	0.647463
C21	C	1.474445	0.178768	-0.000008
C22	C	1.974445	0.678768	0.499992
C23	C	1.310639	0.174845	-0.000009
C24	C	1.810639	0.674845	0.499991
C25	C	1.753237	-0.034156	0.000005
C26	C	2.253237	0.465844	0.500005
C27	C	1.749319	-0.160192	0.000003
C28	C	2.249319	0.339808	0.500003
C29	C	1.742113	-0.390944	-0.000026
C30	C	2.242113	0.109056	0.499974
C31	C	1.746117	-0.262537	-0.000010
C32	C	2.246117	0.237463	0.499990
C33	C	2.013806	0.167741	-0.000009
C34	C	2.513806	0.667741	0.499991
C35	C	2.177612	0.171664	-0.000020
C36	C	2.677612	0.671664	0.499980
C37	C	1.735014	0.380665	-0.000023
C38	C	2.235014	0.880665	0.499977
C39	C	1.738933	0.506701	-0.000032
C40	C	2.238933	1.006701	0.499968
N41	N	1.744117	0.173251	0.419757
N42	N	2.244117	0.673251	0.919757
N43	N	1.744146	0.173249	-0.419770
N44	N	2.244146	0.673249	0.080230
