data_functionalizedCrystal
_audit_creation_method	'MofGen! by Chris Wilmer'
_symmetry_space_group_name_H-M	'P1'
_symmetry_Int_Tables_number	1
_symmetry_cell_setting	triclinic
loop_
_symmetry_equiv_pos_as_xyz
  x,y,z
_cell_length_a	12.645331
_cell_length_b	16.625546
_cell_length_c	16.625539
_cell_angle_alpha	89.971468
_cell_angle_beta	89.982734
_cell_angle_gamma	90.021447
loop_
_atom_site_label
_atom_site_type_symbol
_atom_site_fract_x
_atom_site_fract_y
_atom_site_fract_z
Zn1	Zn	1.620639	-0.321037	-0.455902
Zn2	Zn	1.620523	-0.455876	-0.321064
Zn3	Zn	1.443371	-0.321058	-0.321082
Zn4	Zn	1.443321	-0.455829	-0.455854
O5	O	1.531964	-0.388450	-0.388476
O6	O	1.768971	-0.338934	-0.438028
O7	O	1.596996	-0.438020	-0.208234
O8	O	1.466955	-0.208223	-0.338994
O9	O	1.768886	-0.438000	-0.338964
O10	O	1.597194	-0.208207	-0.438046
O11	O	1.466843	-0.338971	-0.208247
O12	O	1.295017	-0.338925	-0.338947
O13	O	1.466871	-0.437920	-0.568693
O14	O	1.294980	-0.437941	-0.437963
O15	O	1.597146	-0.338889	-0.568728
O16	O	1.596947	-0.568702	-0.338917
O17	O	1.466758	-0.568668	-0.437946
C18	C	1.531863	-0.597941	-0.388442
C19	C	1.531917	-0.687562	-0.388454
C20	C	1.256534	-0.388431	-0.388452
C21	C	1.138704	-0.388442	-0.388461
C22	C	1.532102	-1.015738	-0.388538
C23	C	1.532047	-0.924429	-0.388517
C24	C	1.532009	-0.851653	-0.388496
C25	C	1.531956	-0.760338	-0.388476
C26	C	0.971127	-0.325865	-0.326514
C27	C	1.093687	-0.326027	-0.326241
C28	C	1.094177	-0.473380	-0.365243
C29	C	0.971579	-0.473038	-0.364820
C30	C	0.971546	-0.366890	-0.473867
C31	C	1.094152	-0.364992	-0.473392
C32	C	1.808469	-0.388470	-0.388499
C33	C	1.926299	-0.388478	-0.388510
C34	C	1.532016	-0.388397	-0.598785
C35	C	1.532038	-0.388374	-0.688406
C36	C	1.532093	-0.178141	-0.388527
C37	C	1.532148	-0.088520	-0.388549
C38	C	1.532055	-0.388356	-0.761188
C39	C	1.532080	-0.388326	-0.852497
C40	C	1.532105	-0.388298	-0.925273
C41	C	1.532131	-0.388269	-1.016588
C42	C	1.531973	-0.388445	-0.178985
C43	C	1.532156	-0.388240	-0.089364
H44	H	0.941668	-0.262691	-0.340912
N45	N	1.134733	-0.420998	-0.537854
H46	H	1.104805	-0.404464	-0.591695
H47	H	1.214475	-0.418150	-0.539774
H48	H	0.942557	-0.412495	-0.520059
H49	H	0.940286	-0.339975	-0.263633
N50	N	1.134762	-0.498054	-0.283468
H51	H	1.176396	-0.549643	-0.288450
H52	H	1.181940	-0.454295	-0.261387
N53	N	0.932302	-0.536935	-0.422012
H54	H	0.888014	-0.577305	-0.391535
H55	H	0.887997	-0.511054	-0.465423
N56	N	1.132757	-0.536827	-0.423192
H57	H	1.179589	-0.511061	-0.465151
H58	H	1.174292	-0.578893	-0.392820
H59	H	1.123793	-0.263042	-0.340795
H60	H	0.942939	-0.491346	-0.302420
H61	H	1.122971	-0.340295	-0.262988
N62	N	0.930626	-0.286284	-0.501843
H63	H	0.882335	-0.262943	-0.459464
H64	H	0.992134	-0.248635	-0.511127
N65	N	1.132692	-0.282194	-0.496587
H66	H	1.178821	-0.259961	-0.452271
H67	H	1.174954	-0.285758	-0.548016
