data_functionalizedCrystal
_audit_creation_method	'MofGen! by Chris Wilmer'
_symmetry_space_group_name_H-M	'P1'
_symmetry_Int_Tables_number	1
_symmetry_cell_setting	triclinic
loop_
_symmetry_equiv_pos_as_xyz
  x,y,z
_cell_length_a	15.944493
_cell_length_b	15.995350
_cell_length_c	14.472310
_cell_angle_alpha	89.998838
_cell_angle_beta	89.987540
_cell_angle_gamma	96.516291
loop_
_atom_site_label
_atom_site_type_symbol
_atom_site_fract_x
_atom_site_fract_y
_atom_site_fract_z
O1	O	1.114559	-0.107752	-0.076824
O2	O	0.870002	-0.121116	-0.076828
O3	O	0.998966	0.007455	-0.076825
O4	O	0.985596	-0.236323	-0.076827
O5	O	0.998933	0.007447	0.076857
O6	O	0.869969	-0.121124	0.076854
O7	O	1.114526	-0.107759	0.076858
Cu8	Cu	0.992245	-0.114442	0.090888
Cu9	Cu	0.992284	-0.114433	-0.090858
O10	O	0.985563	-0.236330	0.076855
C11	C	0.838691	-0.120574	0.000012
C12	C	0.745443	-0.118936	0.000011
C13	C	0.509678	-0.194616	0.000009
C14	C	0.459106	-0.153809	0.075787
C15	C	0.574722	-0.115902	0.000013
C16	C	0.459143	-0.153783	-0.075731
C17	C	0.409812	-0.112977	0.000010
C18	C	0.525378	-0.075116	0.075853
C19	C	0.525418	-0.075101	-0.075734
C20	C	0.474879	-0.034236	0.000062
C21	C	0.669721	-0.117589	0.000015
C22	C	0.314815	-0.111283	0.000015
C23	C	0.998397	0.038646	0.000014
C24	C	0.996740	0.131596	0.000009
C25	C	1.145838	-0.108302	0.000015
C26	C	1.239086	-0.109939	0.000011
C27	C	0.986132	-0.267521	0.000014
C28	C	0.987789	-0.360471	0.000013
N29	N	0.992223	-0.114448	0.218719
C30	C	0.990788	0.469342	0.000012
C31	C	0.898943	0.421894	-0.000334
C32	C	0.900600	0.325204	0.000012
C33	C	0.993740	0.301782	0.000010
C34	C	1.039023	0.342862	0.087769
C35	C	1.036716	0.439498	0.087842
C36	C	1.038651	0.439865	-0.086923
C37	C	1.038629	0.342919	-0.088083
C38	C	0.995414	0.207085	0.000012
C39	C	0.989118	0.564040	0.000016
N40	N	0.992312	-0.114421	-0.218689
C41	C	0.992283	-0.114430	0.592810
C42	C	0.923046	-0.182995	0.553643
C43	C	0.923205	-0.183245	0.446555
C44	C	0.992253	-0.114439	0.407219
C45	C	1.079897	-0.133507	0.446058
C46	C	1.079508	-0.133995	0.553179
C47	C	0.974657	-0.026593	0.553340
C48	C	0.972647	-0.027179	0.446213
C49	C	0.992241	-0.114442	0.302331
C50	C	0.992300	-0.114428	0.697699
H51	H	0.525298	-0.262420	0.000080
H52	H	1.019801	0.026233	0.419440
H53	H	0.459417	0.033619	0.000106
H54	H	1.025149	0.024431	0.578668
Cl55	Cl	0.842281	0.450499	-0.097500
Cl56	Cl	0.414484	-0.205123	-0.174628
Cl57	Cl	0.878109	0.001705	0.595096
H58	H	0.554380	-0.041881	-0.139800
Cl59	Cl	0.842339	0.452489	0.096002
H60	H	0.858057	-0.171886	0.420298
H61	H	0.865004	0.296780	-0.062897
H62	H	0.864737	0.297331	0.063028
Cl63	Cl	0.985687	0.467744	0.189124
Cl64	Cl	1.161366	-0.059743	0.593183
H65	H	0.430153	-0.187054	0.139850
Cl66	Cl	1.144669	0.321071	0.092811
Cl67	Cl	0.569861	-0.023830	0.174864
H68	H	0.908175	-0.012708	0.420829
H69	H	1.095040	-0.198053	0.578155
H70	H	1.104146	0.471756	0.091823
Cl71	Cl	0.940549	-0.283892	0.406970
H72	H	1.007545	0.314473	0.153078
Cl73	Cl	0.992302	0.471561	-0.189620
H74	H	1.005522	0.315669	-0.153004
Cl75	Cl	1.143497	0.319215	-0.096273
H76	H	1.106368	0.471636	-0.087514
H77	H	0.857687	-0.171823	0.579430
H78	H	0.934145	-0.247811	0.580552
Cl79	Cl	1.161347	-0.058456	0.406721
H80	H	1.095800	-0.196835	0.419220
