data_functionalizedCrystal
_audit_creation_method	'MofGen! by Chris Wilmer'
_symmetry_space_group_name_H-M	'P1'
_symmetry_Int_Tables_number	1
_symmetry_cell_setting	triclinic
loop_
_symmetry_equiv_pos_as_xyz
  x,y,z
_cell_length_a	23.532407
_cell_length_b	23.532357
_cell_length_c	22.610064
_cell_angle_alpha	89.998517
_cell_angle_beta	89.997161
_cell_angle_gamma	82.838485
loop_
_atom_site_label
_atom_site_type_symbol
_atom_site_fract_x
_atom_site_fract_y
_atom_site_fract_z
O1	O	0.755251	0.069129	-0.049118
O2	O	0.589386	0.079132	-0.049136
O3	O	0.677335	-0.008803	-0.049114
O4	O	0.667302	0.157064	-0.049140
O5	O	0.677319	-0.008790	0.049255
O6	O	0.589370	0.079145	0.049233
O7	O	0.755236	0.069142	0.049251
Zn8	Zn	0.672301	0.074145	0.064860
Zn9	Zn	0.672321	0.074128	-0.064745
O10	O	0.667286	0.157077	0.049229
C11	C	0.568162	0.078884	0.000046
C12	C	0.504945	0.078118	0.000040
C13	C	0.677076	-0.030013	0.000072
C14	C	0.676322	-0.093232	0.000078
C15	C	0.105834	0.125353	0.000059
C16	C	0.046434	0.124641	0.000063
O17	O	0.009681	0.168428	0.000078
N18	N	0.023817	0.072364	0.000070
C19	C	0.060604	0.020794	0.000079
O20	O	0.035912	-0.023737	0.000086
C21	C	0.120003	0.021506	0.000080
C22	C	0.142616	0.073787	0.000067
C23	C	0.128448	0.177629	0.000047
C24	C	0.187844	0.178341	0.000042
C25	C	0.224626	0.126775	0.000050
C26	C	0.202012	0.074498	0.000062
C27	C	0.156788	-0.030063	0.000093
C28	C	0.216191	-0.029346	0.000094
C29	C	0.238804	0.022935	0.000081
C30	C	0.298190	0.023644	0.000065
N31	N	0.320807	0.075922	0.000058
C32	C	0.284025	0.127487	0.000050
C33	C	-0.064139	0.019303	0.000079
C34	C	-0.123536	0.018590	0.000075
C35	C	-0.137702	0.122437	0.000059
C36	C	-0.078303	0.123149	0.000060
C37	C	-0.041522	0.071580	0.000072
C38	C	0.408761	0.128977	0.000040
C39	C	0.468163	0.129684	0.000032
C40	C	0.482324	0.025837	0.000051
C41	C	0.422927	0.025130	0.000055
C42	C	0.386147	0.076704	0.000051
O43	O	0.334977	-0.020120	0.000052
O44	O	0.308725	0.172011	0.000051
C45	C	0.671594	-0.485250	-0.053576
C46	C	0.670876	-0.544650	-0.053579
O47	O	0.670493	-0.575372	-0.099182
N48	N	0.670512	-0.574354	0.000041
C49	C	0.670859	-0.544655	0.053668
O50	O	0.670483	-0.575375	0.099276
C51	C	0.671573	-0.485256	0.053671
C52	C	0.671943	-0.455556	0.000047
C53	C	0.671963	-0.455550	-0.107195
C54	C	0.672681	-0.396155	-0.107192
C55	C	0.673030	-0.366460	-0.053569
C56	C	0.672661	-0.396160	0.000051
C57	C	0.671916	-0.455557	0.107298
C58	C	0.672629	-0.396154	0.107296
C59	C	0.672998	-0.366454	0.053672
C60	C	0.673728	-0.307070	0.053678
N61	N	0.674092	-0.277366	0.000057
C62	C	0.673743	-0.307061	-0.053566
C63	C	0.669361	-0.669396	0.053658
C64	C	0.668652	-0.728795	0.053656
C65	C	0.668668	-0.728785	-0.053592
C66	C	0.669381	-0.669387	-0.053589
C67	C	0.669725	-0.639692	0.000038
C68	C	0.675252	-0.182327	-0.053554
C69	C	0.675973	-0.122927	-0.053545
C70	C	0.675954	-0.122941	0.053702
C71	C	0.675236	-0.182336	0.053694
C72	C	0.674883	-0.212027	0.000061
O73	O	0.674109	-0.276310	0.099257
O74	O	0.674112	-0.276333	-0.099166
C75	C	0.776459	0.069390	0.000068
C76	C	0.839676	0.070156	0.000070
C77	C	0.667545	0.178287	0.000042
C78	C	0.668300	0.241506	0.000032
N79	N	0.672291	0.074157	0.153313
N80	N	0.672335	0.074113	-0.153198
C81	C	0.711267	0.035197	0.561964
C82	C	0.711269	0.035192	0.623884
O83	O	0.744384	0.002076	0.655911
N84	N	0.672321	0.074117	0.654850
C85	C	0.633362	0.113044	0.623893
O86	O	0.600233	0.146151	0.655918
C87	C	0.633357	0.113045	0.561974
C88	C	0.672312	0.074122	0.531011
C89	C	0.750218	-0.003724	0.531001
C90	C	0.750216	-0.003719	0.469085
C91	C	0.711262	0.035207	0.438133
C92	C	0.672310	0.074127	0.469096
C93	C	0.594397	0.151969	0.531018
C94	C	0.594395	0.151966	0.469095
C95	C	0.633350	0.113043	0.438133
C96	C	0.633354	0.113057	0.376227
N97	N	0.672303	0.074133	0.345261
C98	C	0.711257	0.035208	0.376214
C99	C	0.633376	0.113038	0.753927
C100	C	0.633383	0.113040	0.815844
C101	C	0.711290	0.035188	0.815831
C102	C	0.711284	0.035189	0.753912
C103	C	0.672324	0.074114	0.722961
C104	C	0.711249	0.035221	0.246187
C105	C	0.711245	0.035231	0.184265
C106	C	0.633337	0.113081	0.184284
C107	C	0.633342	0.113073	0.246200
C108	C	0.672301	0.074139	0.277150
O109	O	0.600255	0.146155	0.344161
O110	O	0.744375	0.002101	0.344182
H111	H	0.486571	0.172259	0.000021
H112	H	0.742972	0.003516	0.271379
H113	H	0.781939	-0.035424	0.556197
H114	H	0.672980	-0.371978	-0.150858
O115	O	0.556605	0.189859	0.439057
C116	C	0.522623	0.289062	0.420153
C117	C	0.565457	0.246211	0.454196
H118	H	0.529757	0.334632	0.432390
H119	H	0.529308	0.282433	0.370571
H120	H	0.477061	0.281838	0.432326
H121	H	0.611036	0.253409	0.442073
H122	H	0.558723	0.252851	0.503770
O123	O	0.671652	-0.484306	-0.159342
C124	C	0.671720	-0.478004	-0.265715
C125	C	0.672080	-0.445375	-0.206697
H126	H	0.672053	-0.446541	-0.304017
H127	H	0.711260	-0.511236	-0.268436
H128	H	0.631535	-0.500392	-0.268381
H129	H	0.712238	-0.422953	-0.203992
H130	H	0.632513	-0.412175	-0.204001
O131	O	0.669825	-0.640518	-0.105660
C132	C	0.719938	-0.580140	-0.167887
C133	C	0.719523	-0.612819	-0.108901
H134	H	0.760108	-0.557726	-0.170521
H135	H	0.719599	-0.611545	-0.206239
H136	H	0.680385	-0.546920	-0.170549
H137	H	0.759069	-0.646038	-0.106181
H138	H	0.719832	-0.581379	-0.070577
O139	O	0.595447	0.150904	0.276189
C140	C	0.518188	0.228135	0.269660
C141	C	0.561072	0.185322	0.235630
H142	H	0.490392	0.255982	0.236883
H143	H	0.489845	0.203711	0.298627
H144	H	0.542611	0.256437	0.298671
H145	H	0.536695	0.157009	0.206587
H146	H	0.589414	0.209782	0.206700
O147	O	0.373119	0.179128	0.000006
C148	C	0.365353	0.282204	0.000014
C149	C	0.405782	0.225452	0.000044
H150	H	0.391745	0.319672	0.000057
H151	H	0.337203	0.284502	-0.041163
H152	H	0.337176	0.284450	0.041171
H153	H	0.433995	0.223168	-0.041086
H154	H	0.433894	0.223177	0.041248
H155	H	0.206249	0.220913	0.000031
H156	H	0.098505	0.219623	0.000043
H157	H	-0.034193	-0.022694	0.000084
H158	H	-0.059896	0.165721	0.000053
H159	H	0.512282	-0.016147	0.000055
H160	H	0.668381	-0.752973	-0.097255
O161	O	-0.173496	0.172493	-0.000023
C162	C	-0.248763	0.231961	-0.051007
C163	C	-0.208269	0.175251	-0.050979
H164	H	-0.276879	0.234215	-0.092207
H165	H	-0.276966	0.234233	-0.009867
H166	H	-0.222388	0.269442	-0.050985
H167	H	-0.234598	0.137738	-0.051023
H168	H	-0.180063	0.173029	-0.092116
H169	H	0.668359	-0.752973	0.097322
H170	H	-0.141942	-0.023982	0.000076
H171	H	0.138388	-0.072635	0.000105
H172	H	0.671616	-0.479729	0.150964
H173	H	0.246136	-0.071341	0.000105
H174	H	0.781935	-0.035415	0.443879
O175	O	0.401052	-0.025705	0.000086
C176	C	0.421379	-0.128632	0.000061
C177	C	0.446223	-0.071102	0.000034
H178	H	0.457887	-0.165350	0.000007
H179	H	0.393948	-0.131598	0.041242
H180	H	0.393902	-0.131534	-0.041093
H181	H	0.473726	-0.068161	0.041160
H182	H	0.473621	-0.068161	-0.041174
H183	H	0.743005	0.003494	0.728706
H184	H	0.743007	0.003492	0.841044
O185	O	0.676304	-0.094161	-0.105691
C186	C	0.676278	-0.100436	-0.212066
C187	C	0.675890	-0.133079	-0.153057
H188	H	0.675956	-0.131889	-0.250376
H189	H	0.636743	-0.067198	-0.214793
H190	H	0.716468	-0.078054	-0.214711
H191	H	0.635727	-0.155496	-0.150372
H192	H	0.715452	-0.166285	-0.150355
H193	H	0.674962	-0.206494	-0.097227
H194	H	0.562676	0.183663	0.556220
O195	O	0.669726	-0.640646	0.105808
C196	C	0.669599	-0.646931	0.212181
C197	C	0.669201	-0.679560	0.153166
H198	H	0.669163	-0.678378	0.250486
H199	H	0.709803	-0.624580	0.214914
H200	H	0.630080	-0.613669	0.214831
H201	H	0.708693	-0.712850	0.150477
H202	H	0.628970	-0.701872	0.150458
O203	O	0.672981	-0.367401	0.159444
C204	C	0.672832	-0.373676	0.265818
C205	C	0.672448	-0.406310	0.206805
H206	H	0.672388	-0.405119	0.304124
H207	H	0.713035	-0.351323	0.268557
H208	H	0.633311	-0.340414	0.268456
H209	H	0.711941	-0.439600	0.204127
H210	H	0.632218	-0.428624	0.204090
H211	H	0.601668	0.144741	0.841050
O212	O	0.674858	-0.211100	0.105835
C213	C	0.674950	-0.204837	0.212210
C214	C	0.675373	-0.172197	0.153202
H215	H	0.675378	-0.173400	0.250522
H216	H	0.634739	-0.227182	0.214926
H217	H	0.714463	-0.238107	0.214864
H218	H	0.635887	-0.138900	0.150509
H219	H	0.715609	-0.149892	0.150512
O220	O	0.676187	-0.094045	0.105771
C221	C	0.627641	-0.020210	0.167965
C222	C	0.627307	-0.052904	0.108984
H223	H	0.588132	0.013068	0.170576
H224	H	0.627215	-0.051600	0.206321
H225	H	0.667853	0.002134	0.170644
H226	H	0.587101	-0.075249	0.106247
H227	H	0.627763	-0.021487	0.070655
O228	O	0.595511	0.150913	0.723954
C229	C	0.518221	0.228112	0.730515
C230	C	0.561079	0.185259	0.764528
H231	H	0.490364	0.255884	0.763305
H232	H	0.542608	0.256482	0.701541
H233	H	0.489935	0.203662	0.701514
H234	H	0.589376	0.209663	0.793562
H235	H	0.536657	0.156890	0.793465
H236	H	0.742969	0.003536	0.159057
H237	H	0.601622	0.144775	0.159073
