data_functionalizedCrystal
_audit_creation_method	'MofGen! by Chris Wilmer'
_symmetry_space_group_name_H-M	'P1'
_symmetry_Int_Tables_number	1
_symmetry_cell_setting	triclinic
loop_
_symmetry_equiv_pos_as_xyz
  x,y,z
_cell_length_a	16.109301
_cell_length_b	10.654550
_cell_length_c	9.730223
_cell_angle_alpha	89.996251
_cell_angle_beta	89.998659
_cell_angle_gamma	83.973243
loop_
_atom_site_label
_atom_site_type_symbol
_atom_site_fract_x
_atom_site_fract_y
_atom_site_fract_z
O1	O	0.116770	1.666250	-0.114403
O2	O	0.127896	1.300621	-0.114381
O3	O	0.001362	1.493479	-0.114383
O4	O	0.243304	1.473391	-0.114400
O5	O	0.001365	1.493477	0.114196
O6	O	0.127899	1.300618	0.114199
O7	O	0.116773	1.666248	0.114177
Zn8	Zn	0.122337	1.483433	0.150480
Zn9	Zn	0.122332	1.483436	-0.150684
O10	O	0.243307	1.473389	0.114180
C11	C	0.127080	1.253833	-0.000088
C12	C	0.124636	1.114423	-0.000079
C13	C	0.199138	1.033926	-0.000105
C14	C	0.196836	0.902937	-0.000128
C15	C	0.045526	0.932953	-0.000107
C16	C	0.047828	1.063940	-0.000074
C17	C	0.286496	1.016596	-0.000123
C18	C	0.284194	0.885606	-0.000147
C19	C	-0.029616	1.492664	-0.000094
C20	C	-0.121926	1.490225	-0.000096
C21	C	-0.430291	1.596688	-0.000126
C22	C	-0.343558	1.598992	-0.000118
C23	C	-0.325045	1.370171	-0.000086
C24	C	-0.411777	1.367869	-0.000084
C25	C	-0.464399	1.481131	-0.000111
C26	C	-0.290932	1.485738	-0.000105
C27	C	-0.196891	1.488235	-0.000097
C28	C	-0.558445	1.478634	-0.000117
C29	C	0.274286	1.474204	-0.000113
C30	C	0.366595	1.476644	-0.000120
C31	C	0.117589	1.713036	-0.000119
C32	C	0.120033	1.852446	-0.000137
N33	N	0.122339	1.483440	0.356016
N34	N	0.122324	1.483438	-0.356220
C35	C	0.066329	1.568859	0.427941
C36	C	0.066319	1.568856	0.571824
C37	C	0.178336	1.398010	0.571845
C38	C	0.178342	1.398008	0.427964
C39	C	0.001659	1.667500	0.427931
C40	C	0.001649	1.667497	0.571814
H41	H	0.310596	0.839576	0.098536
H42	H	-0.062244	1.646924	0.388883
H43	H	0.223942	1.328442	0.369404
H44	H	-0.473134	1.688913	-0.000148
Br45	Br	-0.297273	1.755826	-0.000139
Br46	Br	0.332851	1.075411	-0.164610
Br47	Br	-0.458070	1.211030	-0.000049
H48	H	0.015894	1.763815	0.610857
H49	H	0.320662	1.045462	0.095540
Br50	Br	0.339051	0.815294	-0.159594
H51	H	-0.282190	1.277958	-0.000067
H52	H	-0.012838	1.129476	-0.000033
Br53	Br	-0.058709	0.864431	-0.000095
Br54	Br	0.254334	1.282069	0.669495
Br55	Br	0.035423	1.819007	0.353524
H56	H	-0.058740	1.637803	0.616435
