data_functionalizedCrystal
_audit_creation_method	'MofGen! by Chris Wilmer'
_symmetry_space_group_name_H-M	'P1'
_symmetry_Int_Tables_number	1
_symmetry_cell_setting	triclinic
loop_
_symmetry_equiv_pos_as_xyz
  x,y,z
_cell_length_a	23.532407
_cell_length_b	22.010155
_cell_length_c	23.532407
_cell_angle_alpha	90.000423
_cell_angle_beta	97.151284
_cell_angle_gamma	89.994913
loop_
_atom_site_label
_atom_site_type_symbol
_atom_site_fract_x
_atom_site_fract_y
_atom_site_fract_z
O1	O	-0.755264	0.050484	0.069127
O2	O	-0.505264	0.300484	0.319127
O3	O	-0.255264	0.550484	0.569127
O4	O	-0.005264	0.800484	0.819127
O5	O	-0.589400	0.050496	0.079130
O6	O	-0.339400	0.300496	0.329130
O7	O	-0.089400	0.550496	0.579130
O8	O	0.160600	0.800496	0.829130
O9	O	-0.677334	0.050479	-0.008803
O10	O	-0.427334	0.300479	0.241197
O11	O	-0.177334	0.550479	0.491197
O12	O	0.072666	0.800479	0.741197
O13	O	-0.667330	0.050502	0.157061
O14	O	-0.417330	0.300502	0.407061
O15	O	-0.167330	0.550502	0.657061
O16	O	0.082670	0.800502	0.907061
O17	O	-0.677318	-0.050572	-0.008790
O18	O	-0.427318	0.199428	0.241210
O19	O	-0.177318	0.449428	0.491210
O20	O	0.072682	0.699428	0.741210
O21	O	-0.589384	-0.050554	0.079144
O22	O	-0.339384	0.199446	0.329144
O23	O	-0.089384	0.449446	0.579144
O24	O	0.160616	0.699446	0.829144
O25	O	-0.755248	-0.050566	0.069141
O26	O	-0.505248	0.199434	0.319141
O27	O	-0.255248	0.449434	0.569141
O28	O	-0.005248	0.699434	0.819141
Cu29	Cu	-0.672315	-0.059787	0.074143
Cu30	Cu	-0.422315	0.190213	0.324143
Cu31	Cu	-0.172315	0.440213	0.574143
Cu32	Cu	0.077685	0.690213	0.824143
Cu33	Cu	-0.672333	0.059717	0.074128
Cu34	Cu	-0.422333	0.309717	0.324128
Cu35	Cu	-0.172333	0.559717	0.574128
Cu36	Cu	0.077667	0.809717	0.824128
O37	O	-0.667314	-0.050549	0.157074
O38	O	-0.417314	0.199451	0.407074
O39	O	-0.167314	0.449451	0.657074
O40	O	0.082686	0.699451	0.907074
C41	C	-0.568176	-0.000027	0.078882
C42	C	-0.318176	0.249973	0.328882
C43	C	-0.068176	0.499973	0.578882
C44	C	0.181824	0.749973	0.828882
C45	C	-0.504959	-0.000023	0.078116
C46	C	-0.254959	0.249977	0.328116
C47	C	-0.004959	0.499977	0.578116
C48	C	0.245041	0.749977	0.828116
N49	N	-0.672305	-0.143839	0.074154
N50	N	-0.422305	0.106161	0.324154
N51	N	-0.172305	0.356161	0.574154
N52	N	0.077695	0.606161	0.824154
C53	C	-0.238792	-0.000044	0.022921
C54	C	0.011208	0.249956	0.272921
C55	C	0.261208	0.499956	0.522921
C56	C	0.511208	0.749956	0.772921
C57	C	-0.298192	-0.000045	0.023632
C58	C	-0.048192	0.249955	0.273632
C59	C	0.201808	0.499955	0.523632
C60	C	0.451808	0.749955	0.773632
O61	O	-0.334937	-0.000072	-0.020153
O62	O	-0.084937	0.249928	0.229847
O63	O	0.165063	0.499928	0.479847
O64	O	0.415063	0.749928	0.729847
N65	N	-0.320818	-0.000033	0.075909
N66	N	-0.070818	0.249967	0.325909
N67	N	0.179182	0.499967	0.575909
N68	N	0.429182	0.749967	0.825909
C69	C	-0.284041	-0.000028	0.127477
C70	C	-0.034041	0.249972	0.377477
C71	C	0.215959	0.499972	0.627477
C72	C	0.465959	0.749972	0.877477
O73	O	-0.308740	-0.000019	0.172007
O74	O	-0.058740	0.249981	0.422007
O75	O	0.191260	0.499981	0.672007
O76	O	0.441260	0.749981	0.922007
C77	C	-0.224642	-0.000032	0.126765
C78	C	0.025358	0.249968	0.376765
C79	C	0.275358	0.499968	0.626765
C80	C	0.525358	0.749968	0.876765
C81	C	-0.202019	-0.000037	0.074485
C82	C	0.047981	0.249963	0.324485
C83	C	0.297981	0.499963	0.574485
C84	C	0.547981	0.749963	0.824485
C85	C	-0.216168	-0.000050	-0.029354
C86	C	0.033832	0.249950	0.220646
C87	C	0.283832	0.499950	0.470646
C88	C	0.533832	0.749950	0.720646
C89	C	-0.156772	-0.000048	-0.030066
C90	C	0.093228	0.249952	0.219934
C91	C	0.343228	0.499952	0.469934
C92	C	0.593228	0.749952	0.719934
C93	C	-0.119999	-0.000041	0.021499
C94	C	0.130001	0.249959	0.271499
C95	C	0.380001	0.499959	0.521499
C96	C	0.630001	0.749959	0.771499
C97	C	-0.142623	-0.000035	0.073774
C98	C	0.107377	0.249965	0.323774
C99	C	0.357377	0.499965	0.573774
C100	C	0.607377	0.749965	0.823774
C101	C	-0.187865	-0.000031	0.178333
C102	C	0.062135	0.249969	0.428333
C103	C	0.312135	0.499969	0.678333
C104	C	0.562135	0.749969	0.928333
C105	C	-0.128463	-0.000035	0.177616
C106	C	0.121537	0.249965	0.427616
C107	C	0.371537	0.499965	0.677616
C108	C	0.621537	0.749965	0.927616
C109	C	-0.105840	-0.000040	0.125336
C110	C	0.144160	0.249960	0.375336
C111	C	0.394160	0.499960	0.625336
C112	C	0.644160	0.749960	0.875336
C113	C	-0.046454	-0.000027	0.124627
C114	C	0.203546	0.249973	0.374627
C115	C	0.453546	0.499973	0.624627
C116	C	0.703546	0.749973	0.874627
N117	N	-0.023828	-0.000038	0.072351
N118	N	0.226172	0.249962	0.322351
N119	N	0.476172	0.499962	0.572351
N120	N	0.726172	0.749962	0.822351
C121	C	-0.060600	-0.000045	0.020787
C122	C	0.189400	0.249955	0.270787
C123	C	0.439400	0.499955	0.520787
C124	C	0.689400	0.749955	0.770787
C125	C	-0.408783	-0.000021	0.128968
C126	C	-0.158783	0.249979	0.378968
C127	C	0.091217	0.499979	0.628968
C128	C	0.341217	0.749979	0.878968
C129	C	-0.468181	-0.000013	0.129681
C130	C	-0.218181	0.249987	0.379681
C131	C	0.031819	0.499987	0.629681
C132	C	0.281819	0.749987	0.879681
C133	C	-0.482328	-0.000030	0.025836
C134	C	-0.232328	0.249970	0.275836
C135	C	0.017672	0.499970	0.525836
C136	C	0.267672	0.749970	0.775836
C137	C	-0.422929	-0.000034	0.025124
C138	C	-0.172929	0.249966	0.275124
C139	C	0.077071	0.499966	0.525124
C140	C	0.327071	0.749966	0.775124
C141	C	-0.386157	-0.000032	0.076692
C142	C	-0.136157	0.249968	0.326692
C143	C	0.113843	0.499968	0.576692
C144	C	0.363843	0.749968	0.826692
C145	C	0.064136	-0.000041	0.019297
C146	C	0.314136	0.249959	0.269297
C147	C	0.564136	0.499959	0.519297
C148	C	0.814136	0.749959	0.769297
C149	C	0.123538	-0.000037	0.018590
C150	C	0.373538	0.249963	0.268590
C151	C	0.623538	0.499963	0.518590
C152	C	0.873538	0.749963	0.768590
C153	C	0.137680	-0.000023	0.122435
C154	C	0.387680	0.249977	0.372435
C155	C	0.637680	0.499977	0.622435
C156	C	0.887680	0.749977	0.872435
C157	C	0.078284	-0.000023	0.123142
C158	C	0.328284	0.249977	0.373142
C159	C	0.578284	0.499977	0.623142
C160	C	0.828284	0.749977	0.873142
C161	C	0.041512	-0.000035	0.071568
C162	C	0.291512	0.249965	0.321568
C163	C	0.541512	0.499965	0.571568
C164	C	0.791512	0.749965	0.821568
O165	O	-0.009675	-0.000002	0.168390
O166	O	0.240325	0.249998	0.418390
O167	O	0.490325	0.499998	0.668390
O168	O	0.740325	0.749998	0.918390
O169	O	-0.035892	-0.000062	-0.023737
O170	O	0.214108	0.249938	0.226263
O171	O	0.464108	0.499938	0.476263
O172	O	0.714108	0.749938	0.726263
C173	C	-0.711273	-0.563627	0.035196
C174	C	-0.461273	-0.313627	0.285196
C175	C	-0.211273	-0.063627	0.535196
C176	C	0.038727	0.186373	0.785196
C177	C	-0.711275	-0.627234	0.035192
C178	C	-0.461275	-0.377234	0.285192
C179	C	-0.211275	-0.127234	0.535192
C180	C	0.038725	0.122766	0.785192
O181	O	-0.744383	-0.660132	0.002077
O182	O	-0.494383	-0.410132	0.252077
O183	O	-0.244383	-0.160132	0.502077
O184	O	0.005617	0.089868	0.752077
N185	N	-0.672333	-0.659047	0.074116
N186	N	-0.422333	-0.409047	0.324116
N187	N	-0.172333	-0.159047	0.574116
N188	N	0.077667	0.090953	0.824116
C189	C	-0.633382	-0.627248	0.113042
C190	C	-0.383382	-0.377248	0.363042
C191	C	-0.133382	-0.127248	0.613042
C192	C	0.116618	0.122752	0.863042
O193	O	-0.600259	-0.660147	0.146148
O194	O	-0.350259	-0.410147	0.396148
O195	O	-0.100259	-0.160147	0.646148
O196	O	0.149741	0.089853	0.896148
C197	C	-0.633377	-0.563641	0.113043
C198	C	-0.383377	-0.313641	0.363043
C199	C	-0.133377	-0.063641	0.613043
C200	C	0.116623	0.186359	0.863043
C201	C	-0.672326	-0.531832	0.074120
C202	C	-0.422326	-0.281832	0.324120
C203	C	-0.172326	-0.031832	0.574120
C204	C	0.077674	0.218168	0.824120
C205	C	-0.750217	-0.531818	-0.003723
C206	C	-0.500217	-0.281818	0.246277
C207	C	-0.250217	-0.031818	0.496277
C208	C	-0.000217	0.218182	0.746277
C209	C	-0.750215	-0.468214	-0.003718
C210	C	-0.500215	-0.218214	0.246282
C211	C	-0.250215	0.031786	0.496282
C212	C	-0.000215	0.281786	0.746282
C213	C	-0.711268	-0.436420	0.035206
C214	C	-0.461268	-0.186420	0.285206
C215	C	-0.211268	0.063580	0.535206
C216	C	0.038732	0.313580	0.785206
C217	C	-0.672323	-0.468229	0.074125
C218	C	-0.422323	-0.218229	0.324125
C219	C	-0.172323	0.031771	0.574125
C220	C	0.077677	0.281771	0.824125
C221	C	-0.594424	-0.531844	0.151965
C222	C	-0.344424	-0.281844	0.401965
C223	C	-0.094424	-0.031844	0.651965
C224	C	0.155576	0.218156	0.901965
C225	C	-0.594422	-0.468233	0.151962
C226	C	-0.344422	-0.218233	0.401962
C227	C	-0.094422	0.031767	0.651962
C228	C	0.155578	0.281767	0.901962
C229	C	-0.633370	-0.436424	0.113040
C230	C	-0.383370	-0.186424	0.363040
C231	C	-0.133370	0.063576	0.613040
C232	C	0.116630	0.313576	0.863040
C233	C	-0.633374	-0.372832	0.113054
C234	C	-0.383374	-0.122832	0.363054
C235	C	-0.133374	0.127168	0.613054
C236	C	0.116626	0.377168	0.863054
N237	N	-0.672316	-0.341020	0.074131
N238	N	-0.422316	-0.091020	0.324131
N239	N	-0.172316	0.158980	0.574131
N240	N	0.077684	0.408980	0.824131
C241	C	-0.711263	-0.372814	0.035207
C242	C	-0.461263	-0.122814	0.285207
C243	C	-0.211263	0.127186	0.535207
C244	C	0.038737	0.377186	0.785207
C245	C	-0.633395	-0.760826	0.113037
C246	C	-0.383395	-0.510826	0.363037
C247	C	-0.133395	-0.260826	0.613037
C248	C	0.116605	-0.010826	0.863037
C249	C	-0.633402	-0.824431	0.113039
C250	C	-0.383402	-0.574431	0.363039
C251	C	-0.133402	-0.324431	0.613039
C252	C	0.116598	-0.074431	0.863039
C253	C	-0.711294	-0.824413	0.035189
C254	C	-0.461294	-0.574413	0.285189
C255	C	-0.211294	-0.324413	0.535189
C256	C	0.038706	-0.074413	0.785189
C257	C	-0.711290	-0.760807	0.035190
C258	C	-0.461290	-0.510807	0.285190
C259	C	-0.211290	-0.260807	0.535190
C260	C	0.038710	-0.010807	0.785190
C261	C	-0.672337	-0.729013	0.074113
C262	C	-0.422337	-0.479013	0.324113
C263	C	-0.172337	-0.229013	0.574113
C264	C	0.077663	0.020987	0.824113
C265	C	-0.711256	-0.239242	0.035220
C266	C	-0.461256	0.010758	0.285220
C267	C	-0.211256	0.260758	0.535220
C268	C	0.038744	0.510758	0.785220
C269	C	-0.711252	-0.175634	0.035230
C270	C	-0.461252	0.074366	0.285230
C271	C	-0.211252	0.324366	0.535230
C272	C	0.038748	0.574366	0.785230
C273	C	-0.633358	-0.175657	0.113078
C274	C	-0.383358	0.074343	0.363078
C275	C	-0.133358	0.324343	0.613078
C276	C	0.116642	0.574343	0.863078
C277	C	-0.633364	-0.239260	0.113070
C278	C	-0.383364	0.010740	0.363070
C279	C	-0.133364	0.260740	0.613070
C280	C	0.116636	0.510740	0.863070
C281	C	-0.672315	-0.271052	0.074137
C282	C	-0.422315	-0.021052	0.324137
C283	C	-0.172315	0.228948	0.574137
C284	C	0.077685	0.478948	0.824137
O285	O	-0.600282	-0.339893	0.146151
O286	O	-0.350282	-0.089893	0.396151
O287	O	-0.100282	0.160107	0.646151
O288	O	0.149718	0.410107	0.896151
O289	O	-0.744376	-0.339907	0.002101
O290	O	-0.494376	-0.089907	0.252101
O291	O	-0.244376	0.160093	0.502101
O292	O	0.005624	0.410093	0.752101
C293	C	0.223528	-0.000038	0.069389
C294	C	0.473528	0.249962	0.319389
C295	C	0.723528	0.499962	0.569389
C296	C	0.973528	0.749962	0.819389
C297	C	0.160311	-0.000030	0.070155
C298	C	0.410311	0.249970	0.320155
C299	C	0.660311	0.499970	0.570155
C300	C	0.910311	0.749970	0.820155
C301	C	-0.677071	-0.000048	-0.030012
C302	C	-0.427071	0.249952	0.219988
C303	C	-0.177071	0.499952	0.469988
C304	C	0.072929	0.749952	0.719988
C305	C	-0.676305	-0.000053	-0.093229
C306	C	-0.426305	0.249947	0.156771
C307	C	-0.176305	0.499947	0.406771
C308	C	0.073695	0.749947	0.656771
N309	N	-0.672347	0.143769	0.074113
N310	N	-0.422347	0.393769	0.324113
N311	N	-0.172347	0.643769	0.574113
N312	N	0.077653	0.893769	0.824113
C313	C	-0.723538	-0.000023	-0.492332
C314	C	-0.473538	0.249977	-0.242332
C315	C	-0.223538	0.499977	0.007668
C316	C	0.026462	0.749977	0.257668
C317	C	-0.722827	-0.000018	-0.551733
C318	C	-0.472827	0.249982	-0.301733
C319	C	-0.222827	0.499982	-0.051733
C320	C	0.027173	0.749982	0.198267
O321	O	-0.766613	0.000001	-0.588477
O322	O	-0.516613	0.250001	-0.338477
O323	O	-0.266613	0.500001	-0.088477
O324	O	-0.016613	0.750001	0.161523
N325	N	-0.670551	-0.000015	-0.574359
N326	N	-0.420551	0.249985	-0.324359
N327	N	-0.170551	0.499985	-0.074359
N328	N	0.079449	0.749985	0.175641
C329	C	-0.618982	-0.000010	-0.537581
C330	C	-0.368982	0.249990	-0.287581
C331	C	-0.118982	0.499990	-0.037581
C332	C	0.131018	0.749990	0.212419
O333	O	-0.574452	-0.000006	-0.562281
O334	O	-0.324452	0.249994	-0.312281
O335	O	-0.074452	0.499994	-0.062281
O336	O	0.175548	0.749994	0.187719
C337	C	-0.619695	-0.000010	-0.478182
C338	C	-0.369695	0.249990	-0.228182
C339	C	-0.119695	0.499990	0.021818
C340	C	0.130305	0.749990	0.271818
C341	C	-0.671974	-0.000020	-0.455559
C342	C	-0.421974	0.249980	-0.205559
C343	C	-0.171974	0.499980	0.044441
C344	C	0.078026	0.749980	0.294441
C345	C	-0.775814	-0.000032	-0.469709
C346	C	-0.525814	0.249968	-0.219709
C347	C	-0.275814	0.499968	0.030291
C348	C	-0.025814	0.749968	0.280291
C349	C	-0.776525	-0.000038	-0.410313
C350	C	-0.526525	0.249962	-0.160313
C351	C	-0.276525	0.499962	0.089687
C352	C	-0.026525	0.749962	0.339687
C353	C	-0.724961	-0.000035	-0.373540
C354	C	-0.474961	0.249965	-0.123540
C355	C	-0.224961	0.499965	0.126460
C356	C	0.025039	0.749965	0.376460
C357	C	-0.672685	-0.000026	-0.396163
C358	C	-0.422685	0.249974	-0.146163
C359	C	-0.172685	0.499974	0.103837
C360	C	0.077315	0.749974	0.353837
C361	C	-0.568127	-0.000001	-0.441406
C362	C	-0.318127	0.249999	-0.191406
C363	C	-0.068127	0.499999	0.058594
C364	C	0.181873	0.749999	0.308594
C365	C	-0.568843	-0.000001	-0.382003
C366	C	-0.318843	0.249999	-0.132003
C367	C	-0.068843	0.499999	0.117997
C368	C	0.181157	0.749999	0.367997
C369	C	-0.621123	-0.000010	-0.359381
C370	C	-0.371123	0.249990	-0.109381
C371	C	-0.121123	0.499990	0.140619
C372	C	0.128877	0.749990	0.390619
C373	C	-0.621832	-0.000028	-0.299994
C374	C	-0.371832	0.249972	-0.049994
C375	C	-0.121832	0.499972	0.200006
C376	C	0.128168	0.749972	0.450006
N377	N	-0.674109	-0.000032	-0.277368
N378	N	-0.424109	0.249968	-0.027368
N379	N	-0.174109	0.499968	0.222632
N380	N	0.075891	0.749968	0.472632
C381	C	-0.725673	-0.000035	-0.314141
C382	C	-0.475673	0.249965	-0.064141
C383	C	-0.225673	0.499965	0.185859
C384	C	0.024327	0.749965	0.435859
C385	C	-0.617491	-0.000008	-0.662324
C386	C	-0.367491	0.249992	-0.412324
C387	C	-0.117491	0.499992	-0.162324
C388	C	0.132509	0.749992	0.087676
C389	C	-0.616778	-0.000012	-0.721722
C390	C	-0.366778	0.249988	-0.471722
C391	C	-0.116778	0.499988	-0.221722
C392	C	0.133222	0.749988	0.028278
C393	C	-0.720623	-0.000019	-0.735869
C394	C	-0.470623	0.249981	-0.485869
C395	C	-0.220623	0.499981	-0.235869
C396	C	0.029377	0.749981	0.014131
C397	C	-0.721335	-0.000020	-0.676470
C398	C	-0.471335	0.249980	-0.426470
C399	C	-0.221335	0.499980	-0.176470
C400	C	0.028665	0.749980	0.073530
C401	C	-0.669767	-0.000012	-0.639698
C402	C	-0.419767	0.249988	-0.389698
C403	C	-0.169767	0.499988	-0.139698
C404	C	0.080233	0.749988	0.110302
C405	C	-0.727163	-0.000048	-0.189404
C406	C	-0.477163	0.249952	0.060596
C407	C	-0.227163	0.499952	0.310596
C408	C	0.022837	0.749952	0.560596
C409	C	-0.727869	-0.000056	-0.130002
C410	C	-0.477869	0.249944	0.119998
C411	C	-0.227869	0.499944	0.369998
C412	C	0.022131	0.749944	0.619998
C413	C	-0.624025	-0.000045	-0.115860
C414	C	-0.374025	0.249955	0.134140
C415	C	-0.124025	0.499955	0.384140
C416	C	0.125975	0.749955	0.634140
C417	C	-0.623318	-0.000040	-0.175257
C418	C	-0.373318	0.249960	0.074743
C419	C	-0.123318	0.499960	0.324743
C420	C	0.126682	0.749960	0.574743
C421	C	-0.674891	-0.000039	-0.212028
C422	C	-0.424891	0.249961	0.037972
C423	C	-0.174891	0.499961	0.287972
C424	C	0.075109	0.749961	0.537972
O425	O	-0.578069	-0.000045	-0.263215
O426	O	-0.328069	0.249955	-0.013215
O427	O	-0.078069	0.499955	0.236785
O428	O	0.171931	0.749955	0.486785
O429	O	-0.770196	-0.000031	-0.289433
O430	O	-0.520196	0.249969	-0.039433
O431	O	-0.270196	0.499969	0.210567
O432	O	-0.020196	0.749969	0.460567
C433	C	-0.667577	-0.000021	0.178283
C434	C	-0.417577	0.249979	0.428283
C435	C	-0.167577	0.499979	0.678283
C436	C	0.082423	0.749979	0.928283
C437	C	-0.668343	-0.000012	0.241500
C438	C	-0.418343	0.249988	0.491500
C439	C	-0.168343	0.499988	0.741500
C440	C	0.081657	0.749988	0.991500
H441	H	0.141954	-0.000039	-0.023984
H442	H	0.391954	0.249961	0.226016
H443	H	0.641954	0.499961	0.476016
H444	H	0.891954	0.749961	0.726016
H445	H	-0.762610	-0.000020	-0.765821
H446	H	-0.512610	0.249980	-0.515821
H447	H	-0.262610	0.499980	-0.265821
H448	H	-0.012610	0.749980	-0.015821
H449	H	-0.582043	-0.000045	-0.085909
H450	H	-0.332043	0.249955	0.164091
H451	H	-0.082043	0.499955	0.414091
H452	H	0.167957	0.749955	0.664091
H453	H	-0.580747	-0.000049	-0.193677
H454	H	-0.330747	0.249951	0.056323
H455	H	-0.080747	0.499951	0.306323
H456	H	0.169253	0.749951	0.556323
H457	H	0.034204	-0.000050	-0.022699
H458	H	0.284204	0.249950	0.227301
H459	H	0.534204	0.499950	0.477301
H460	H	0.784204	0.749950	0.727301
H461	H	-0.138359	-0.000055	-0.072637
H462	H	0.111641	0.249945	0.177363
H463	H	0.361641	0.499945	0.427363
H464	H	0.611641	0.749945	0.677363
H465	H	-0.562708	-0.557734	0.183659
H466	H	-0.312708	-0.307734	0.433659
H467	H	-0.062708	-0.057734	0.683659
H468	H	0.187292	0.192266	0.933659
H469	H	0.059864	-0.000019	0.165712
H470	H	0.309864	0.249981	0.415712
H471	H	0.559864	0.499981	0.665712
H472	H	0.809864	0.749981	0.915712
H473	H	0.167631	-0.000014	0.164417
H474	H	0.417631	0.249986	0.414417
H475	H	0.667631	0.499986	0.664417
H476	H	0.917631	0.749986	0.914417
H477	H	-0.246104	-0.000057	-0.071347
H478	H	0.003896	0.249943	0.178653
H479	H	0.253896	0.499943	0.428653
H480	H	0.503896	0.749943	0.678653
H481	H	-0.742971	-0.149737	0.003535
H482	H	-0.492971	0.100263	0.253535
H483	H	-0.242971	0.350263	0.503535
H484	H	0.007029	0.600263	0.753535
H485	H	-0.601676	-0.734943	0.144738
H486	H	-0.351676	-0.484943	0.394738
H487	H	-0.101676	-0.234943	0.644738
H488	H	0.148324	0.015057	0.894738
H489	H	-0.817806	-0.000032	-0.499644
H490	H	-0.567806	0.249968	-0.249644
H491	H	-0.317806	0.499968	0.000356
H492	H	-0.067806	0.749968	0.250356
H493	H	-0.098525	-0.000036	0.219610
H494	H	0.151475	0.249964	0.469610
H495	H	0.401475	0.499964	0.719610
H496	H	0.651475	0.749964	0.969610
H497	H	-0.575496	-0.000007	-0.632386
H498	H	-0.325496	0.249993	-0.382386
H499	H	-0.075496	0.499993	-0.132386
H500	H	0.174504	0.749993	0.117614
H501	H	-0.742973	-0.265120	0.003516
H502	H	-0.492973	-0.015120	0.253516
H503	H	-0.242973	0.234880	0.503516
H504	H	0.007027	0.484880	0.753516
H505	H	-0.763906	-0.000027	-0.658055
H506	H	-0.513906	0.249973	-0.408055
H507	H	-0.263906	0.499973	-0.158055
H508	H	-0.013906	0.749973	0.091945
H509	H	-0.378846	-0.000015	0.170964
H510	H	-0.128846	0.249985	0.420964
H511	H	0.121154	0.499985	0.670964
H512	H	0.371154	0.749985	0.920964
H513	H	-0.601654	-0.265160	0.144770
H514	H	-0.351654	-0.015160	0.394770
H515	H	-0.101654	0.234840	0.644770
H516	H	0.148346	0.484840	0.894770
H517	H	-0.404515	-0.000039	-0.017447
H518	H	-0.154515	0.249961	0.232553
H519	H	0.095485	0.499961	0.482553
H520	H	0.345485	0.749961	0.732553
H521	H	-0.512280	-0.000036	-0.016150
H522	H	-0.262280	0.249964	0.233850
H523	H	-0.012280	0.499964	0.483850
H524	H	0.237720	0.749964	0.733850
H525	H	-0.601649	-0.149760	0.144771
H526	H	-0.351649	0.100240	0.394771
H527	H	-0.101649	0.350240	0.644771
H528	H	0.148351	0.600240	0.894771
H529	H	-0.770443	-0.000065	-0.111586
H530	H	-0.520443	0.249935	0.138414
H531	H	-0.270443	0.499935	0.388414
H532	H	-0.020443	0.749935	0.638414
H533	H	-0.562700	-0.442350	0.183658
H534	H	-0.312700	-0.192350	0.433658
H535	H	-0.062700	0.057650	0.683658
H536	H	0.187300	0.307650	0.933658
H537	H	-0.781929	-0.442319	-0.035413
H538	H	-0.531929	-0.192319	0.214587
H539	H	-0.281929	0.057681	0.464587
H540	H	-0.031929	0.307681	0.714587
H541	H	-0.525555	0.000011	-0.459814
H542	H	-0.275555	0.250011	-0.209814
H543	H	-0.025555	0.500011	0.040186
H544	H	0.224445	0.750011	0.290186
H545	H	-0.743006	-0.850311	0.003494
H546	H	-0.493006	-0.600311	0.253494
H547	H	-0.243006	-0.350311	0.503494
H548	H	0.006994	-0.100311	0.753494
H549	H	-0.486595	-0.000000	0.172252
H550	H	-0.236595	0.250000	0.422252
H551	H	0.013405	0.500000	0.672252
H552	H	0.263405	0.750000	0.922252
H553	H	-0.819097	-0.000043	-0.391899
H554	H	-0.569097	0.249957	-0.141899
H555	H	-0.319097	0.499957	0.108101
H556	H	-0.069097	0.749957	0.358101
H557	H	-0.206274	-0.000024	0.220904
H558	H	0.043726	0.249976	0.470904
H559	H	0.293726	0.499976	0.720904
H560	H	0.543726	0.749976	0.970904
H561	H	-0.781933	-0.557699	-0.035422
H562	H	-0.531933	-0.307699	0.214578
H563	H	-0.281933	-0.057699	0.464578
H564	H	-0.031933	0.192301	0.714578
H565	H	-0.574207	-0.000015	-0.740135
H566	H	-0.324207	0.249985	-0.490135
H567	H	-0.074207	0.499985	-0.240135
H568	H	0.175793	0.749985	0.009865
H569	H	-0.769159	-0.000044	-0.219337
H570	H	-0.519159	0.249956	0.030663
H571	H	-0.269159	0.499956	0.280663
H572	H	-0.019159	0.749956	0.530663
H573	H	-0.526850	0.000007	-0.352065
H574	H	-0.276850	0.250007	-0.102065
H575	H	-0.026850	0.500007	0.147935
H576	H	0.223150	0.750007	0.397935
H577	H	-0.743004	-0.734911	0.003496
H578	H	-0.493004	-0.484911	0.253496
H579	H	-0.243004	-0.234911	0.503496
H580	H	0.006996	0.015089	0.753496
H581	H	-0.601692	-0.850325	0.144739
H582	H	-0.351692	-0.600325	0.394739
H583	H	-0.101692	-0.350325	0.644739
H584	H	0.148308	-0.100325	0.894739
