data_functionalizedCrystal
_audit_creation_method	'MofGen! by Chris Wilmer'
_symmetry_space_group_name_H-M	'P1'
_symmetry_Int_Tables_number	1
_symmetry_cell_setting	triclinic
loop_
_symmetry_equiv_pos_as_xyz
  x,y,z
_cell_length_a	13.032831
_cell_length_b	12.645330
_cell_length_c	13.032328
_cell_angle_alpha	97.150231
_cell_angle_beta	90.887223
_cell_angle_gamma	82.822813
loop_
_atom_site_label
_atom_site_type_symbol
_atom_site_fract_x
_atom_site_fract_y
_atom_site_fract_z
Zn1	Zn	1.498472	-0.715913	-0.780853
Zn2	Zn	1.998472	-0.215913	-0.280853
Zn3	Zn	1.520216	-0.873863	-0.608879
Zn4	Zn	2.020216	-0.373863	-0.108879
Zn5	Zn	1.348332	-0.671632	-0.587094
Zn6	Zn	1.848332	-0.171632	-0.087094
Zn7	Zn	1.326463	-0.868129	-0.759003
Zn8	Zn	1.826463	-0.368129	-0.259003
O9	O	1.423371	-0.782384	-0.683957
O10	O	1.923371	-0.282384	-0.183957
O11	O	1.645277	-0.757798	-0.776302
O12	O	2.145277	-0.257798	-0.276302
O13	O	1.515667	-0.830905	-0.462073
O14	O	2.015667	-0.330905	0.037927
O15	O	1.368302	-0.529169	-0.612823
O16	O	1.868302	-0.029169	-0.112823
O17	O	1.661252	-0.873843	-0.649953
O18	O	2.161252	-0.373843	-0.149953
O19	O	1.478609	-0.561702	-0.755177
O20	O	1.978609	-0.061702	-0.255177
O21	O	1.389385	-0.682327	-0.446067
O22	O	1.889385	-0.182327	0.053933
O23	O	1.201511	-0.676766	-0.591636
O24	O	1.701511	-0.176766	-0.091636
O25	O	1.331028	-0.864069	-0.905818
O26	O	1.831028	-0.364069	-0.405818
O27	O	1.185443	-0.821131	-0.717938
O28	O	1.685443	-0.321131	-0.217938
O29	O	1.457403	-0.752237	-0.921871
O30	O	1.957403	-0.252237	-0.421871
O31	O	1.494461	-1.021440	-0.628767
O32	O	1.994461	-0.521440	-0.128767
O33	O	1.352111	-1.017226	-0.739062
O34	O	1.852111	-0.517226	-0.239062
C35	C	1.156160	-0.743522	-0.650053
C36	C	1.656160	-0.243522	-0.150053
C37	C	1.041843	-0.726925	-0.635572
C38	C	1.541843	-0.226925	-0.135572
C39	C	0.982966	-0.791047	-0.691515
C40	C	1.482966	-0.291047	-0.191515
C41	C	0.864814	-0.773894	-0.676550
C42	C	1.364814	-0.273894	-0.176550
C43	C	1.423297	-1.057802	-0.683933
C44	C	1.923297	-0.557802	-0.183933
C45	C	1.423356	-1.175644	-0.683969
C46	C	1.923356	-0.675644	-0.183969
C47	C	1.334100	-1.340676	-0.753643
C48	C	1.834100	-0.840676	-0.253643
C49	C	1.333728	-1.218029	-0.753335
C50	C	1.833728	-0.718029	-0.253335
C51	C	1.407789	-1.203795	-0.571869
C52	C	1.907789	-0.703795	-0.071869
C53	C	1.407245	-1.326378	-0.572291
C54	C	1.907245	-0.826378	-0.072291
C55	C	1.528774	-1.361692	-0.725579
C56	C	2.028774	-0.861692	-0.225579
C57	C	1.527805	-1.239255	-0.727865
C58	C	2.027805	-0.739255	-0.227865
C59	C	1.691625	-0.821399	-0.717995
C60	C	2.191625	-0.321399	-0.217995
C61	C	1.805939	-0.838025	-0.732500
C62	C	2.305939	-0.338025	-0.232500
C63	C	1.389351	-0.812453	-0.952204
C64	C	1.889351	-0.312453	-0.452204
C65	C	1.374853	-0.825266	-1.066514
C66	C	1.874853	-0.325266	-0.566514
C67	C	1.423469	-0.505898	-0.684007
C68	C	1.923469	-0.005898	-0.184007
C69	C	1.423511	-0.388076	-0.684029
C70	C	1.923511	0.111924	-0.184029
C71	C	1.415948	-0.788897	-1.243568
C72	C	1.915948	-0.288897	-0.743568
C73	C	1.430927	-0.775644	-1.125422
C74	C	1.930927	-0.275644	-0.625422
C75	C	1.457318	-0.752365	-0.416762
C76	C	1.957318	-0.252365	0.083238
C77	C	1.472014	-0.739282	-0.302477
C78	C	1.972014	-0.239282	0.197523
H79	H	1.004777	-0.659325	-0.576604
H80	H	1.504777	-0.159325	-0.076604
Cl81	Cl	1.506084	-1.160749	-0.488661
Cl82	Cl	2.006084	-0.660749	0.011339
Cl83	Cl	1.324712	-0.869624	-1.300735
Cl84	Cl	1.824712	-0.369624	-0.800735
H85	H	1.545666	-1.405156	-0.806661
H86	H	2.045666	-0.905156	-0.306661
H87	H	1.342042	-1.381792	-0.836576
H88	H	1.842042	-0.881792	-0.336576
Cl89	Cl	0.807600	-0.669518	-0.585499
Cl90	Cl	1.307600	-0.169518	-0.085499
Cl91	Cl	1.290981	-1.134729	-0.519501
Cl92	Cl	1.790981	-0.634729	-0.019501
H93	H	1.539795	-1.222283	-0.810433
H94	H	2.039795	-0.722283	-0.310433
Cl95	Cl	1.563240	-0.658544	-1.245310
Cl96	Cl	2.063240	-0.158544	-0.745310
Cl97	Cl	1.040184	-0.895418	-0.782562
Cl98	Cl	1.540184	-0.395418	-0.282562
Cl99	Cl	0.863146	-0.942383	-0.823573
Cl100	Cl	1.363146	-0.442383	-0.323573
Cl101	Cl	1.213920	-1.367274	-0.709948
Cl102	Cl	1.713920	-0.867274	-0.209948
Cl103	Cl	1.346296	-1.189529	-0.881005
Cl104	Cl	1.846296	-0.689529	-0.381005
Cl105	Cl	1.522157	-0.694902	-1.068258
Cl106	Cl	2.022157	-0.194902	-0.568258
H107	H	1.315750	-0.877546	-1.103540
H108	H	1.815750	-0.377546	-0.603540
Cl109	Cl	1.212814	-1.151596	-0.709160
Cl110	Cl	1.712814	-0.651596	-0.209160
Cl111	Cl	1.634373	-1.196550	-0.656982
Cl112	Cl	2.134373	-0.696550	-0.156982
Cl113	Cl	1.289076	-1.348754	-0.520421
Cl114	Cl	1.789076	-0.848754	-0.020421
H115	H	1.470288	-1.357167	-0.517913
H116	H	1.970288	-0.857167	-0.017913
H117	H	1.595218	-1.392746	-0.675044
H118	H	2.095218	-0.892746	-0.175044
