data_functionalizedCrystal
_audit_creation_method	'MofGen! by Chris Wilmer'
_symmetry_space_group_name_H-M	'P1'
_symmetry_Int_Tables_number	1
_symmetry_cell_setting	triclinic
loop_
_symmetry_equiv_pos_as_xyz
  x,y,z
_cell_length_a	19.121241
_cell_length_b	19.121063
_cell_length_c	18.215399
_cell_angle_alpha	87.590157
_cell_angle_beta	92.463275
_cell_angle_gamma	95.003121
loop_
_atom_site_label
_atom_site_type_symbol
_atom_site_fract_x
_atom_site_fract_y
_atom_site_fract_z
Zn1	Zn	1.063748	-0.234335	0.474205
Zn2	Zn	1.313748	0.015665	0.724205
Zn3	Zn	1.563748	0.265665	0.974205
Zn4	Zn	1.813748	0.515665	1.224205
Zn5	Zn	1.058635	-0.352008	0.356162
Zn6	Zn	1.308635	-0.102008	0.606162
Zn7	Zn	1.558635	0.147992	0.856162
Zn8	Zn	1.808635	0.397992	1.106162
Zn9	Zn	0.946079	-0.239367	0.346108
Zn10	Zn	1.196079	0.010633	0.596108
Zn11	Zn	1.446079	0.260633	0.846108
Zn12	Zn	1.696079	0.510633	1.096108
Zn13	Zn	0.941024	-0.356975	0.474142
Zn14	Zn	1.191024	-0.106975	0.724142
Zn15	Zn	1.441024	0.143025	0.974142
Zn16	Zn	1.691024	0.393025	1.224142
O17	O	1.002372	-0.295671	0.412654
O18	O	1.252372	-0.045671	0.662654
O19	O	1.502372	0.204329	0.912654
O20	O	1.752372	0.454329	1.162654
O21	O	1.161536	-0.245761	0.462780
O22	O	1.411536	0.004239	0.712780
O23	O	1.661536	0.254239	0.962780
O24	O	1.911536	0.504239	1.212780
O25	O	1.043680	-0.337093	0.251844
O26	O	1.293680	-0.087093	0.501844
O27	O	1.543680	0.162907	0.751844
O28	O	1.793680	0.412907	1.001844
O29	O	0.965944	-0.140234	0.358919
O30	O	1.215944	0.109766	0.608919
O31	O	1.465944	0.359766	0.858919
O32	O	1.715944	0.609766	1.108919
O33	O	1.157779	-0.332214	0.376054
O34	O	1.407779	-0.082214	0.626054
O35	O	1.657779	0.167786	0.876054
O36	O	1.907779	0.417786	1.126054
O37	O	1.052395	-0.136537	0.453031
O38	O	1.302395	0.113463	0.703031
O39	O	1.552395	0.363463	0.953031
O40	O	1.802395	0.613463	1.203031
O41	O	0.960986	-0.254336	0.244458
O42	O	1.210986	-0.004336	0.494458
O43	O	1.460986	0.245664	0.744458
O44	O	1.710986	0.495664	0.994458
O45	O	0.846943	-0.259152	0.358858
O46	O	1.096943	-0.009152	0.608858
O47	O	1.346943	0.240848	0.858858
O48	O	1.596943	0.490848	1.108858
O49	O	0.957327	-0.340680	0.577135
O50	O	1.207327	-0.090680	0.827135
O51	O	1.457327	0.159320	1.077135
O52	O	1.707327	0.409320	1.327135
O53	O	0.843228	-0.345558	0.452925
O54	O	1.093228	-0.095558	0.702925
O55	O	1.343228	0.154442	0.952925
O56	O	1.593228	0.404442	1.202925
O57	O	1.047493	-0.250577	0.577181
O58	O	1.297493	-0.000577	0.827181
O59	O	1.547493	0.249423	1.077181
O60	O	1.797493	0.499423	1.327181
O61	O	1.038778	-0.451133	0.375993
O62	O	1.288778	-0.201133	0.625993
O63	O	1.538778	0.048867	0.875993
O64	O	1.788778	0.298867	1.125993
O65	O	0.952369	-0.454782	0.462673
O66	O	1.202369	-0.204782	0.712673
O67	O	1.452369	0.045218	0.962673
O68	O	1.702369	0.295218	1.212673
C69	C	0.819555	-0.303441	0.404794
C70	C	1.069555	-0.053441	0.654794
C71	C	1.319555	0.196559	0.904794
C72	C	1.569555	0.446559	1.154794
C73	C	0.741344	-0.306782	0.401450
C74	C	0.991344	-0.056782	0.651450
C75	C	1.241344	0.193218	0.901450
C76	C	1.491344	0.443218	1.151450
C77	C	0.706554	-0.263411	0.445107
C78	C	0.956554	-0.013411	0.695107
C79	C	1.206554	0.236589	0.945107
C80	C	1.456554	0.486589	1.195107
C81	C	0.633067	-0.266546	0.441958
C82	C	0.883067	-0.016546	0.691958
C83	C	1.133067	0.233454	0.941958
C84	C	1.383067	0.483454	1.191958
C85	C	0.594371	-0.313057	0.395155
C86	C	0.844371	-0.063057	0.645155
C87	C	1.094371	0.186943	0.895155
C88	C	1.344371	0.436943	1.145155
C89	C	0.629166	-0.356429	0.351493
C90	C	0.879166	-0.106429	0.601493
C91	C	1.129166	0.143571	0.851493
C92	C	1.379166	0.393571	1.101493
C93	C	0.702652	-0.353290	0.354639
C94	C	0.952652	-0.103290	0.604639
C95	C	1.202652	0.146710	0.854639
C96	C	1.452652	0.396710	1.104639
C97	C	0.372393	-0.324782	0.383392
C98	C	0.622393	-0.074782	0.633392
C99	C	0.872393	0.175218	0.883392
C100	C	1.122393	0.425218	1.133392
C101	C	0.298902	-0.327919	0.380251
C102	C	0.548902	-0.077919	0.630251
C103	C	0.798902	0.172081	0.880251
C104	C	1.048902	0.422081	1.130251
C105	C	0.302808	-0.238035	0.470715
C106	C	0.552808	0.011965	0.720715
C107	C	0.802808	0.261965	0.970715
C108	C	1.052808	0.511965	1.220715
C109	C	0.376295	-0.234902	0.473860
C110	C	0.626295	0.015098	0.723860
C111	C	0.876295	0.265098	0.973860
C112	C	1.126295	0.515098	1.223860
C113	C	0.411084	-0.278272	0.430195
C114	C	0.661084	-0.028272	0.680195
C115	C	0.911084	0.221728	0.930195
C116	C	1.161084	0.471728	1.180195
C117	C	0.519255	-0.316265	0.391937
C118	C	0.769255	-0.066265	0.641937
C119	C	1.019255	0.183735	0.891937
C120	C	1.269255	0.433735	1.141937
C121	C	0.486199	-0.275061	0.433410
C122	C	0.736199	-0.025061	0.683410
C123	C	0.986199	0.224939	0.933410
C124	C	1.236199	0.474939	1.183410
C125	C	0.994489	-0.478488	0.420434
C126	C	1.244489	-0.228488	0.670434
C127	C	1.494489	0.021512	0.920434
C128	C	1.744489	0.271512	1.170434
C129	C	0.991182	-0.556694	0.423790
C130	C	1.241182	-0.306694	0.673790
C131	C	1.491182	-0.056694	0.923790
C132	C	1.741182	0.193306	1.173790
C133	C	1.034651	-0.591511	0.380278
C134	C	1.284651	-0.341511	0.630278
C135	C	1.534651	-0.091511	0.880278
C136	C	1.784651	0.158489	1.130278
C137	C	1.031545	-0.664995	0.383438
C138	C	1.281545	-0.414995	0.633438
C139	C	1.531545	-0.164995	0.883438
C140	C	1.781545	0.085005	1.133438
C141	C	0.984965	-0.703660	0.430108
C142	C	1.234965	-0.453660	0.680108
C143	C	1.484965	-0.203660	0.930108
C144	C	1.734965	0.046340	1.180108
C145	C	0.941493	-0.668838	0.473625
C146	C	1.191493	-0.418838	0.723625
C147	C	1.441493	-0.168838	0.973625
C148	C	1.691493	0.081162	1.223625
C149	C	0.944604	-0.595356	0.470468
C150	C	1.194604	-0.345356	0.720468
C151	C	1.444604	-0.095356	0.970468
C152	C	1.694604	0.154644	1.220468
C153	C	0.973323	-0.925626	0.441900
C154	C	1.223323	-0.675626	0.691900
C155	C	1.473323	-0.425626	0.941900
C156	C	1.723323	-0.175626	1.191900
C157	C	0.970214	-0.999113	0.445052
C158	C	1.220214	-0.749113	0.695052
C159	C	1.470214	-0.499113	0.945052
C160	C	1.720214	-0.249113	1.195052
C161	C	1.060267	-0.995265	0.354866
C162	C	1.310267	-0.745265	0.604866
C163	C	1.560267	-0.495265	0.854866
C164	C	1.810267	-0.245265	1.104866
C165	C	1.063370	-0.921782	0.351709
C166	C	1.313370	-0.671782	0.601709
C167	C	1.563370	-0.421782	0.851709
C168	C	1.813370	-0.171782	1.101709
C169	C	1.019902	-0.886966	0.395229
C170	C	1.269902	-0.636966	0.645229
C171	C	1.519902	-0.386966	0.895229
C172	C	1.769902	-0.136966	1.145229
C173	C	0.981786	-0.778773	0.433338
C174	C	1.231786	-0.528773	0.683338
C175	C	1.481786	-0.278773	0.933338
C176	C	1.731786	-0.028773	1.183338
C177	C	1.023084	-0.811855	0.392003
C178	C	1.273084	-0.561855	0.642003
C179	C	1.523084	-0.311855	0.892003
C180	C	1.773084	-0.061855	1.142003
C181	C	1.185902	-0.287872	0.420545
C182	C	1.435902	-0.037872	0.670545
C183	C	1.685902	0.212128	0.920545
C184	C	1.935902	0.462128	1.170545
C185	C	1.264112	-0.284549	0.423908
C186	C	1.514112	-0.034549	0.673908
C187	C	1.764112	0.215451	0.923908
C188	C	2.014112	0.465451	1.173908
C189	C	1.002416	-0.295621	0.604607
C190	C	1.252416	-0.045621	0.854607
C191	C	1.502416	0.204379	1.104607
C192	C	1.752416	0.454379	1.354607
C193	C	1.002436	-0.295600	0.686406
C194	C	1.252436	-0.045600	0.936406
C195	C	1.502436	0.204400	1.186406
C196	C	1.752436	0.454400	1.436406
C197	C	1.010304	-0.112140	0.404861
C198	C	1.260304	0.137860	0.654861
C199	C	1.510304	0.387860	0.904861
C200	C	1.760304	0.637860	1.154861
C201	C	1.013684	-0.033930	0.401540
C202	C	1.263684	0.216070	0.651540
C203	C	1.513684	0.466070	0.901540
C204	C	1.763684	0.716070	1.151540
C205	C	1.002369	-0.295669	0.221448
C206	C	1.252369	-0.045669	0.471448
C207	C	1.502369	0.204331	0.721448
C208	C	1.752369	0.454331	0.971448
C209	C	1.002495	-0.295486	0.139647
C210	C	1.252495	-0.045486	0.389647
C211	C	1.502495	0.204514	0.639647
C212	C	1.752495	0.454514	0.889647
C213	C	1.049403	-0.248640	0.874624
C214	C	1.299403	0.001360	1.124624
C215	C	1.549403	0.251360	1.374624
C216	C	1.799403	0.501360	1.624624
C217	C	1.049412	-0.248619	0.951482
C218	C	1.299412	0.001381	1.201482
C219	C	1.549412	0.251381	1.451482
C220	C	1.799412	0.501381	1.701482
C221	C	0.955523	-0.342448	0.951423
C222	C	1.205523	-0.092448	1.201423
C223	C	1.455523	0.157552	1.451423
C224	C	1.705523	0.407552	1.701423
C225	C	0.955511	-0.342465	0.874566
C226	C	1.205511	-0.092465	1.124566
C227	C	1.455511	0.157535	1.374566
C228	C	1.705511	0.407535	1.624566
C229	C	1.002455	-0.295562	0.836169
C230	C	1.252455	-0.045562	1.086169
C231	C	1.502455	0.204438	1.336169
C232	C	1.752455	0.454438	1.586169
C233	C	1.002476	-0.295524	0.989884
C234	C	1.252476	-0.045524	1.239884
C235	C	1.502476	0.204476	1.489884
C236	C	1.752476	0.454476	1.739884
C237	C	1.002486	-0.295502	1.073217
C238	C	1.252486	-0.045502	1.323217
C239	C	1.502486	0.204498	1.573217
C240	C	1.752486	0.454498	1.823217
C241	C	1.002444	-0.295583	0.752830
C242	C	1.252444	-0.045583	1.002830
C243	C	1.502444	0.204417	1.252830
C244	C	1.752444	0.454417	1.502830
H245	H	0.604744	-0.231231	0.477510
H246	H	0.854744	0.018769	0.727510
H247	H	1.104744	0.268769	0.977510
H248	H	1.354744	0.518769	1.227510
Cl249	Cl	0.896482	-0.401453	0.826218
Cl250	Cl	1.146482	-0.151453	1.076218
Cl251	Cl	1.396482	0.098547	1.326218
Cl252	Cl	1.646482	0.348547	1.576218
Cl253	Cl	1.114914	-1.039037	0.300163
Cl254	Cl	1.364914	-0.789037	0.550163
Cl255	Cl	1.614914	-0.539037	0.800163
Cl256	Cl	1.864914	-0.289037	1.050163
H257	H	1.101300	-0.890301	0.313707
H258	H	1.351300	-0.640301	0.563707
H259	H	1.601300	-0.390301	0.813707
H260	H	1.851300	-0.140301	1.063707
H261	H	0.738055	-0.225539	0.483221
H262	H	0.988055	0.024461	0.733221
H263	H	1.238055	0.274461	0.983221
H264	H	1.488055	0.524461	1.233221
H265	H	0.932292	-1.030593	0.483069
H266	H	1.182292	-0.780593	0.733069
H267	H	1.432292	-0.530593	0.983069
H268	H	1.682292	-0.280593	1.233069
H269	H	0.917305	-0.380636	0.982696
H270	H	1.167305	-0.130636	1.232696
H271	H	1.417305	0.119364	1.482696
H272	H	1.667305	0.369364	1.732696
H273	H	0.407797	-0.197031	0.511974
H274	H	0.657797	0.052969	0.761974
H275	H	0.907797	0.302969	1.011974
H276	H	1.157797	0.552969	1.261974
H277	H	0.909208	-0.567009	0.505901
H278	H	1.159208	-0.317009	0.755901
H279	H	1.409208	-0.067009	1.005901
H280	H	1.659208	0.182991	1.255901
H281	H	0.274475	-0.202725	0.506264
H282	H	0.524475	0.047275	0.756264
H283	H	0.774475	0.297275	1.006264
H284	H	1.024475	0.547275	1.256264
H285	H	1.066942	-0.693340	0.348005
H286	H	1.316942	-0.443340	0.598005
H287	H	1.566942	-0.193340	0.848005
H288	H	1.816942	0.056660	1.098005
Cl289	Cl	0.918675	-0.881867	0.496610
Cl290	Cl	1.168675	-0.631867	0.746610
Cl291	Cl	1.418675	-0.381867	0.996610
Cl292	Cl	1.668675	-0.131867	1.246610
H293	H	1.087625	-0.210447	0.843363
H294	H	1.337625	0.039553	1.093363
H295	H	1.587625	0.289553	1.343363
H296	H	1.837625	0.539553	1.593363
Cl297	Cl	0.250256	-0.386411	0.321427
Cl298	Cl	0.500256	-0.136411	0.571427
Cl299	Cl	0.750256	0.113589	0.821427
Cl300	Cl	1.000256	0.363589	1.071427
Cl301	Cl	0.882939	-0.717446	0.532301
Cl302	Cl	1.132939	-0.467446	0.782301
Cl303	Cl	1.382939	-0.217446	1.032301
Cl304	Cl	1.632939	0.032554	1.282301
Cl305	Cl	1.081642	-0.763246	0.333337
Cl306	Cl	1.331642	-0.513246	0.583337
Cl307	Cl	1.581642	-0.263246	0.833337
Cl308	Cl	1.831642	-0.013246	1.083337
H309	H	0.400709	-0.360097	0.347837
H310	H	0.650709	-0.110097	0.597837
H311	H	0.900709	0.139903	0.847837
H312	H	1.150709	0.389903	1.097837
H313	H	0.730977	-0.388607	0.319088
H314	H	0.980977	-0.138607	0.569088
H315	H	1.230977	0.111393	0.819088
H316	H	1.480977	0.361393	1.069088
Cl317	Cl	0.580520	-0.414896	0.292651
Cl318	Cl	0.830520	-0.164896	0.542651
Cl319	Cl	1.080520	0.085104	0.792651
Cl320	Cl	1.330520	0.335104	1.042651
Cl321	Cl	0.534846	-0.216591	0.492243
Cl322	Cl	0.784846	0.033409	0.742243
Cl323	Cl	1.034846	0.283409	0.992243
Cl324	Cl	1.284846	0.533409	1.242243
Cl325	Cl	0.470603	-0.374734	0.333103
Cl326	Cl	0.720603	-0.124734	0.583103
Cl327	Cl	0.970603	0.125266	0.833103
Cl328	Cl	1.220603	0.375266	1.083103
H329	H	0.943859	-0.810262	0.471335
H330	H	1.193859	-0.560262	0.721335
H331	H	1.443859	-0.310262	0.971335
H332	H	1.693859	-0.060262	1.221335
Cl333	Cl	1.108441	-0.189635	0.999823
Cl334	Cl	1.358441	0.060365	1.249823
Cl335	Cl	1.608441	0.310365	1.499823
Cl336	Cl	1.858441	0.560365	1.749823
Cl337	Cl	1.093208	-0.542911	0.321599
Cl338	Cl	1.343208	-0.292911	0.571599
Cl339	Cl	1.593208	-0.042911	0.821599
Cl340	Cl	1.843208	0.207089	1.071599
