data_functionalizedCrystal
_audit_creation_method	'MofGen! by Chris Wilmer'
_symmetry_space_group_name_H-M	'P1'
_symmetry_Int_Tables_number	1
_symmetry_cell_setting	triclinic
loop_
_symmetry_equiv_pos_as_xyz
  x,y,z
_cell_length_a	16.992694
_cell_length_b	27.732048
_cell_length_c	15.455313
_cell_angle_alpha	92.637842
_cell_angle_beta	87.142206
_cell_angle_gamma	86.655439
loop_
_atom_site_label
_atom_site_type_symbol
_atom_site_fract_x
_atom_site_fract_y
_atom_site_fract_z
O1	O	1.042606	0.100467	-0.072038
O2	O	1.542606	0.600467	0.427962
O3	O	0.814336	0.099342	-0.072063
O4	O	1.314336	0.599342	0.427937
O5	O	0.935560	0.029815	-0.072033
O6	O	1.435560	0.529815	0.427967
O7	O	0.921382	0.169994	-0.072068
O8	O	1.421382	0.669994	0.427932
O9	O	0.928628	0.033773	0.072227
O10	O	1.428628	0.533773	0.572227
O11	O	0.807404	0.103301	0.072197
O12	O	1.307404	0.603301	0.572197
O13	O	1.035674	0.104425	0.072223
O14	O	1.535674	0.604425	0.572223
Cu15	Cu	0.920906	0.104225	0.085382
Cu16	Cu	1.420906	0.604225	0.585382
Cu17	Cu	0.929104	0.099543	-0.085222
Cu18	Cu	1.429104	0.599543	0.414778
O19	O	0.914450	0.173953	0.072193
O20	O	1.414450	0.673953	0.572193
C21	C	0.781675	0.099876	0.000064
C22	C	1.281675	0.599876	0.500064
C23	C	0.694684	0.095561	0.000055
C24	C	1.194684	0.595561	0.500055
C25	C	0.643939	0.137184	0.000046
C26	C	1.143939	0.637184	0.500046
C27	C	0.562201	0.133129	0.000059
C28	C	1.062201	0.633129	0.500059
C29	C	0.531209	0.087449	0.000075
C30	C	1.031209	0.587449	0.500075
C31	C	0.581960	0.045823	0.000087
C32	C	1.081960	0.545823	0.500087
C33	C	0.663696	0.049880	0.000080
C34	C	1.163696	0.549880	0.500080
C35	C	0.287814	0.070637	0.000102
C36	C	0.787814	0.570637	0.500102
C37	C	0.206071	0.066583	0.000106
C38	C	0.706071	0.566583	0.500106
C39	C	0.186318	0.153889	0.000080
C40	C	0.686318	0.653889	0.500080
C41	C	0.268057	0.157941	0.000068
C42	C	0.768057	0.657941	0.500068
C43	C	0.318800	0.116315	0.000084
C44	C	0.818800	0.616315	0.500084
N45	N	0.447660	0.083302	0.000086
N46	N	0.947660	0.583302	0.500086
N47	N	0.402347	0.120463	0.000080
N48	N	0.902347	0.620463	0.500080
C49	C	0.931796	0.013774	0.000100
C50	C	1.431796	0.513774	0.500100
C51	C	0.930900	-0.039919	0.000107
C52	C	1.430900	0.460081	0.500107
C53	C	0.996895	-0.375882	0.000069
C54	C	1.496895	0.124118	0.500069
C55	C	0.993571	-0.577686	0.000057
C56	C	1.493571	-0.077686	0.500057
O57	O	1.053919	-0.606333	0.000026
O58	O	1.553919	-0.106333	0.500026
N59	N	0.921689	-0.599917	0.000050
N60	N	1.421689	-0.099917	0.500050
C61	C	0.850634	-0.571695	0.000040
C62	C	1.350634	-0.071695	0.500040
O63	O	0.789419	-0.595235	0.000025
O64	O	1.289419	-0.095235	0.500025
C65	C	0.853960	-0.369892	0.000046
C66	C	1.353960	0.130108	0.500046
C67	C	0.925846	-0.347663	0.000062
C68	C	1.425846	0.152337	0.500062
C69	C	1.068775	-0.353652	0.000084
C70	C	1.568775	0.146348	0.500084
C71	C	1.069605	-0.303204	0.000092
C72	C	1.569605	0.196796	0.500092
C73	C	0.998556	-0.274986	0.000085
C74	C	1.498556	0.225014	0.500085
C75	C	0.926676	-0.297215	0.000070
C76	C	1.426676	0.202785	0.500070
C77	C	0.782906	-0.341671	0.000030
C78	C	1.282906	0.158329	0.500030
C79	C	0.783744	-0.291218	0.000030
C80	C	1.283744	0.208782	0.500030
C81	C	0.855630	-0.268989	0.000046
C82	C	1.355630	0.231011	0.500046
C83	C	0.856457	-0.218549	0.000071
C84	C	1.356457	0.281451	0.500071
N85	N	0.928338	-0.196317	0.000078
N86	N	1.428338	0.303683	0.500078
C87	C	0.999387	-0.224535	0.000085
C88	C	1.499387	0.275465	0.500085
C89	C	0.848893	-0.677644	0.000038
C90	C	1.348893	-0.177644	0.500038
C91	C	0.848061	-0.728095	0.000038
C92	C	1.348061	-0.228095	0.500038
C93	C	0.990998	-0.734082	0.000054
C94	C	1.490998	-0.234082	0.500054
C95	C	0.991829	-0.683630	0.000060
C96	C	1.491829	-0.183630	0.500060
C97	C	0.920775	-0.655413	0.000046
C98	C	1.420775	-0.155413	0.500046
C99	C	1.001126	-0.118591	0.000102
C100	C	1.501126	0.381409	0.500102
C101	C	1.001949	-0.068138	0.000114
C102	C	1.501949	0.431862	0.500114
C103	C	0.859013	-0.062155	0.000094
C104	C	1.359013	0.437845	0.500094
C105	C	0.858189	-0.112603	0.000087
C106	C	1.358189	0.387397	0.500087
C107	C	0.929251	-0.140820	0.000088
C108	C	1.429251	0.359180	0.500088
O109	O	0.796141	-0.189872	0.000092
O110	O	1.296141	0.310128	0.500092
O111	O	1.060595	-0.200987	0.000081
O112	O	1.560595	0.299013	0.500081
C113	C	0.996065	-0.426330	0.000062
C114	C	1.496065	0.073670	0.500062
C115	C	0.924185	-0.448559	0.000047
C116	C	1.424185	0.051441	0.500047
C117	C	0.853136	-0.420341	0.000039
C118	C	1.353136	0.079659	0.500039
C119	C	0.923354	-0.499010	0.000047
C120	C	1.423354	0.000990	0.500047
C121	C	0.994403	-0.527228	0.000054
C122	C	1.494403	-0.027228	0.500054
C123	C	1.066285	-0.504997	0.000061
C124	C	1.566285	-0.004997	0.500061
C125	C	1.067115	-0.454549	0.000069
C126	C	1.567115	0.045451	0.500069
C127	C	0.781254	-0.442573	0.000032
C128	C	1.281254	0.057427	0.500032
C129	C	0.780430	-0.493021	0.000025
C130	C	1.280430	0.006979	0.500025
C131	C	0.851480	-0.521240	0.000033
C132	C	1.351480	-0.021240	0.500033
C133	C	1.068335	0.103892	0.000094
C134	C	1.568335	0.603892	0.500094
C135	C	1.155327	0.108206	0.000097
C136	C	1.655327	0.608206	0.500097
C137	C	0.918214	0.189993	0.000058
C138	C	1.418214	0.689993	0.500058
C139	C	0.919111	0.243687	0.000046
C140	C	1.419111	0.743687	0.500046
N141	N	0.915146	0.107517	0.205376
N142	N	1.415146	0.607517	0.705376
N143	N	0.934870	0.096247	-0.205217
N144	N	1.434870	0.596247	0.294783
C145	C	0.966664	0.077992	0.250783
C146	C	1.466664	0.577992	0.750783
C147	C	0.962315	0.080486	0.341590
C148	C	1.462315	0.580486	0.841590
C149	C	0.906451	0.112509	0.386988
C150	C	1.406451	0.612509	0.886988
C151	C	0.854928	0.142036	0.341575
C152	C	1.354928	0.642036	0.841575
C153	C	0.859274	0.139538	0.250770
C154	C	1.359274	0.639538	0.750770
C155	C	0.887693	0.123276	0.658565
C156	C	1.387693	0.623276	1.158565
C157	C	0.883353	0.125773	0.749377
C158	C	1.383353	0.625773	1.249377
C159	C	0.990739	0.064222	0.749385
C160	C	1.490739	0.564222	1.249385
C161	C	0.995083	0.061730	0.658578
C162	C	1.495083	0.561730	1.158578
C163	C	0.943557	0.091254	0.613173
C164	C	1.443557	0.591254	1.113173
N165	N	0.902006	0.115061	0.479807
N166	N	1.402006	0.615061	0.979807
N167	N	0.947999	0.088700	0.520356
N168	N	1.447999	0.588700	1.020356
H169	H	1.060489	-0.050041	0.000129
H170	H	1.560489	0.449959	0.500129
C171	C	0.548164	-0.003731	0.000062
C172	C	1.048164	0.496269	0.500062
C173	C	0.465723	0.001623	0.000041
C174	C	0.965723	0.501623	0.500041
C175	C	0.434566	-0.044016	0.000003
C176	C	0.934566	0.455984	0.500003
H177	H	0.563122	-0.019662	0.050359
H178	H	1.063122	0.480338	0.550359
H179	H	0.567987	-0.022389	-0.050261
H180	H	1.067987	0.477611	0.449739
H181	H	0.445907	0.020275	0.050358
H182	H	0.945907	0.520275	0.550358
H183	H	0.450743	0.017546	-0.050253
H184	H	0.950743	0.517546	0.449747
H185	H	0.454389	-0.062675	-0.050320
H186	H	0.954389	0.437325	0.449680
H187	H	0.449530	-0.059943	0.050301
H188	H	0.949530	0.440057	0.550301
H189	H	0.378628	-0.040390	-0.000019
H190	H	0.878628	0.459610	0.499981
C191	C	0.718666	0.004630	0.000042
C192	C	1.218666	0.504630	0.500042
C193	C	0.674034	-0.036244	0.000032
C194	C	1.174034	0.463756	0.500032
C195	C	0.724644	-0.077938	-0.000012
C196	C	1.224644	0.422062	0.499988
H197	H	0.748571	0.005709	0.050332
H198	H	1.248571	0.505709	0.550332
H199	H	0.753362	0.002990	-0.050288
H200	H	1.253362	0.502990	0.449712
H201	H	0.639352	-0.034604	0.050356
H202	H	1.139352	0.465396	0.550356
H203	H	0.644130	-0.037339	-0.050255
H204	H	1.144130	0.462661	0.449745
H205	H	0.759340	-0.079578	-0.050341
H206	H	1.259340	0.420422	0.449659
H207	H	0.754547	-0.076853	0.050280
H208	H	1.254547	0.423147	0.550280
H209	H	0.694370	-0.105675	-0.000027
H210	H	1.194370	0.394325	0.499973
H211	H	0.809439	0.168108	0.378544
H212	H	1.309439	0.668108	0.878544
H213	H	1.032688	0.040184	0.786363
H214	H	1.532688	0.540184	1.286363
H215	H	1.058992	-0.141559	0.000100
H216	H	1.558992	0.358441	0.500100
H217	H	1.125651	-0.436454	0.000081
H218	H	1.625651	0.063546	0.500081
H219	H	1.128142	-0.285110	0.000102
H220	H	1.628142	0.214890	0.500102
H221	H	0.669166	0.174382	0.000032
H222	H	1.169166	0.674382	0.500032
H223	H	0.799653	-0.130703	0.000098
H224	H	1.299653	0.369297	0.500098
H225	H	1.126636	-0.376623	0.000087
H226	H	1.626636	0.123377	0.500087
H227	H	0.520888	0.167023	0.000050
H228	H	1.020888	0.667023	0.500050
H229	H	0.725882	-0.268245	0.000017
H230	H	1.225882	0.231755	0.500017
C231	C	1.069960	-0.659590	0.000023
C232	C	1.569960	-0.159590	0.500023
C233	C	1.131999	-0.695108	0.000009
C234	C	1.631999	-0.195108	0.500009
C235	C	1.203988	-0.672984	-0.000041
C236	C	1.703988	-0.172984	0.499959
H237	H	1.070957	-0.638659	0.050313
H238	H	1.570957	-0.138659	0.550313
H239	H	1.075718	-0.641426	-0.050307
H240	H	1.575718	-0.141426	0.449693
H241	H	1.126243	-0.713264	0.050333
H242	H	1.626243	-0.213264	0.550333
H243	H	1.131028	-0.716041	-0.050278
H244	H	1.631028	-0.216041	0.449722
H245	H	1.209746	-0.654820	-0.050370
H246	H	1.709746	-0.154820	0.449630
H247	H	1.204977	-0.652053	0.050251
H248	H	1.704977	-0.152053	0.550251
H249	H	1.246091	-0.697079	-0.000058
H250	H	1.746091	-0.197079	0.499942
H251	H	0.293284	0.195138	0.000044
H252	H	0.793284	0.695138	0.500044
H253	H	0.144995	0.187778	0.000068
H254	H	0.644995	0.687778	0.500068
H255	H	0.329120	0.036742	0.000117
H256	H	0.829120	0.536742	0.500117
H257	H	1.004264	0.056444	0.378560
H258	H	1.504264	0.556444	0.878560
H259	H	0.724370	-0.359761	0.000012
H260	H	1.224370	0.140239	0.500012
C261	C	1.143410	-0.535669	-0.000114
C262	C	1.643410	-0.035669	0.499886
C263	C	1.150672	-0.566826	-0.074348
C264	C	1.650672	-0.066826	0.425652
C265	C	1.221709	-0.595087	-0.074550
C266	C	1.721709	-0.095087	0.425450
H267	H	1.143717	-0.554145	0.050131
H268	H	1.643717	-0.054145	0.550131
H269	H	1.186370	-0.515226	-0.000154
H270	H	1.686370	-0.015226	0.499846
H271	H	1.107723	-0.587268	-0.074300
H272	H	1.607723	-0.087268	0.425700
H273	H	1.150379	-0.548363	-0.124605
H274	H	1.650379	-0.048363	0.375395
H275	H	1.264669	-0.574644	-0.074591
H276	H	1.764669	-0.074644	0.425409
H277	H	1.222010	-0.613560	-0.024303
H278	H	1.722010	-0.113560	0.475697
H279	H	1.226649	-0.616227	-0.124921
H280	H	1.726649	-0.116227	0.375079
H281	H	0.817322	0.163580	0.213800
H282	H	1.317322	0.663580	0.713800
H283	H	1.040572	0.035654	0.621617
H284	H	1.540572	0.535654	1.121617
C285	C	0.769934	-0.752136	-0.000013
C286	C	1.269934	-0.252136	0.499987
C287	C	0.707897	-0.716620	-0.000044
C288	C	1.207897	-0.216620	0.499956
C289	C	0.635913	-0.738747	-0.000109
C290	C	1.135913	-0.238747	0.499891
H291	H	0.764104	-0.770314	0.050278
H292	H	1.264104	-0.270314	0.550278
H293	H	0.769012	-0.773057	-0.050342
H294	H	1.269012	-0.273057	0.449658
H295	H	0.708817	-0.695709	0.050279
H296	H	1.208817	-0.195709	0.550279
H297	H	0.713700	-0.698440	-0.050332
H298	H	1.213700	-0.198440	0.449668
H299	H	0.634992	-0.759667	-0.050438
H300	H	1.134992	-0.259667	0.449562
H301	H	0.630092	-0.756924	0.050183
H302	H	1.130092	-0.256924	0.550183
H303	H	0.593813	-0.714653	-0.000138
H304	H	1.093813	-0.214653	0.499862
H305	H	0.723396	-0.419602	0.000024
H306	H	1.223396	0.080398	0.500024
H307	H	0.801166	-0.039170	0.000091
H308	H	1.301166	0.460830	0.500091
H309	H	1.048849	-0.757066	0.000060
H310	H	1.548849	-0.257066	0.500060
C311	C	0.771774	-0.646993	-0.000149
C312	C	1.271774	-0.146993	0.499851
C313	C	0.771620	-0.619895	-0.074379
C314	C	1.271620	-0.119895	0.425621
C315	C	0.700586	-0.591661	-0.074584
C316	C	1.200586	-0.091661	0.425416
H317	H	0.766632	-0.625770	0.050098
H318	H	1.266632	-0.125770	0.550098
H319	H	0.728831	-0.667449	-0.000199
H320	H	1.228831	-0.167449	0.499801
H321	H	0.814550	-0.599440	-0.074322
H322	H	1.314550	-0.099440	0.425678
H323	H	0.776749	-0.641105	-0.124639
H324	H	1.276749	-0.141105	0.375361
H325	H	0.657643	-0.612117	-0.074633
H326	H	1.157643	-0.112117	0.425367
H327	H	0.695450	-0.570441	-0.024333
H328	H	1.195450	-0.070441	0.475667
H329	H	0.700468	-0.573275	-0.124951
H330	H	1.200468	-0.073275	0.375049
H331	H	0.837859	0.151851	0.786336
H332	H	1.337859	0.651851	1.286336
C333	C	1.027346	0.043174	0.201655
C334	C	1.527346	0.543174	0.701655
C335	C	1.071517	0.017842	0.260861
C336	C	1.571517	0.517842	0.760861
C337	C	1.127416	-0.014242	0.215638
C338	C	1.627416	0.485758	0.715638
H339	H	1.061529	0.060797	0.166215
H340	H	1.561529	0.560797	0.666215
H341	H	1.001113	0.020964	0.166264
H342	H	1.501113	0.520964	0.666264
H343	H	1.097748	0.040050	0.296236
H344	H	1.597748	0.540050	0.796236
H345	H	1.037355	0.000210	0.296302
H346	H	1.537355	0.500210	0.796302
H347	H	1.101184	-0.036453	0.180248
H348	H	1.601184	0.463547	0.680248
H349	H	1.161594	0.003385	0.180200
H350	H	1.661594	0.503385	0.680200
H351	H	1.157388	-0.031437	0.255802
H352	H	1.657388	0.468563	0.755802
C353	C	0.702391	-0.517174	0.000185
C354	C	1.202391	-0.017174	0.500185
C355	C	0.694148	-0.543927	0.074405
C356	C	1.194148	-0.043927	0.574405
C357	C	0.622268	-0.566177	0.074577
C358	C	1.122268	-0.066177	0.574577
H359	H	0.701437	-0.538137	-0.050070
H360	H	1.201437	-0.038137	0.449930
H361	H	0.660174	-0.493151	0.000225
H362	H	1.160174	0.006849	0.500225
H363	H	0.736354	-0.567947	0.074356
H364	H	1.236354	-0.067947	0.574356
H365	H	0.695088	-0.522975	0.124671
H366	H	1.195088	-0.022975	0.624671
H367	H	0.580051	-0.542154	0.074618
H368	H	1.080051	-0.042154	0.574618
H369	H	0.621320	-0.587138	0.024320
H370	H	1.121320	-0.087138	0.524320
H371	H	0.616662	-0.584328	0.124938
H372	H	1.116662	-0.084328	0.624938
C373	C	0.172572	0.016943	0.000167
C374	C	0.672572	0.516943	0.500167
C375	C	0.234503	-0.018643	0.000202
C376	C	0.734503	0.481357	0.500202
C377	C	0.203673	-0.064374	0.000265
C378	C	0.703673	0.435626	0.500265
H379	H	0.143523	0.012098	-0.050126
H380	H	0.643523	0.512098	0.449874
H381	H	0.138705	0.014904	0.050494
H382	H	0.638705	0.514904	0.550494
H383	H	0.268357	-0.016605	-0.050120
H384	H	0.768357	0.483395	0.449880
H385	H	0.263558	-0.013814	0.050492
H386	H	0.763558	0.486186	0.550492
H387	H	0.169806	-0.066413	0.050592
H388	H	0.669806	0.433587	0.550592
H389	H	0.174624	-0.069213	-0.050029
H390	H	0.674624	0.430787	0.449971
H391	H	0.245688	-0.088524	0.000297
H392	H	0.745688	0.411476	0.500297
C393	C	0.831713	0.155391	0.609432
C394	C	1.331713	0.655391	1.109432
C395	C	0.781879	0.183979	0.668629
C396	C	1.281879	0.683979	1.168629
C397	C	0.730305	0.213575	0.623396
C398	C	1.230305	0.713575	1.123396
H399	H	0.800919	0.135820	0.574020
H400	H	1.300919	0.635820	1.074020
H401	H	0.861332	0.175655	0.574013
H402	H	1.361332	0.675655	1.074013
H403	H	0.752263	0.163718	0.704033
H404	H	1.252263	0.663718	1.204033
H405	H	0.812651	0.203560	0.704043
H406	H	1.312651	0.703560	1.204043
H407	H	0.759924	0.233839	0.587977
H408	H	1.259924	0.733839	1.087977
H409	H	0.699517	0.194000	0.587986
H410	H	1.199517	0.694000	1.087986
H411	H	0.696492	0.232979	0.663554
H412	H	1.196492	0.732979	1.163554
