data_functionalizedCrystal
_audit_creation_method	'MofGen! by Chris Wilmer'
_symmetry_space_group_name_H-M	'P1'
_symmetry_Int_Tables_number	1
_symmetry_cell_setting	triclinic
loop_
_symmetry_equiv_pos_as_xyz
  x,y,z
_cell_length_a	31.640172
_cell_length_b	17.052862
_cell_length_c	17.052977
_cell_angle_alpha	45.842756
_cell_angle_beta	77.689779
_cell_angle_gamma	70.263359
loop_
_atom_site_label
_atom_site_type_symbol
_atom_site_fract_x
_atom_site_fract_y
_atom_site_fract_z
Zr1	Zr	0.506271	0.878458	-0.240817
O2	O	0.470099	1.045921	-0.394840
O3	O	0.505861	0.711005	-0.175678
O4	O	0.541691	0.878451	-0.368969
O5	O	0.419086	0.878477	-0.069465
O6	O	0.611244	0.878434	-0.368949
O7	O	0.434269	0.878475	-0.201549
O8	O	0.547151	0.578904	-0.023186
O9	O	0.483179	1.178007	-0.415228
O10	O	0.571485	0.779864	-0.169535
O11	O	0.508247	0.779879	-0.070977
O12	O	0.550433	0.977025	-0.298553
O13	O	0.487195	0.977039	-0.199995
Zr14	Zr	0.592985	0.878435	-0.030126
Zr15	Zr	0.617201	0.878431	-0.240785
Zr16	Zr	0.482056	0.878461	-0.030158
Zr17	Zr	0.527133	1.089121	-0.273333
Zr18	Zr	0.572124	0.667772	0.002390
O19	O	0.593396	1.045888	-0.095265
O20	O	0.627827	1.045883	-0.394794
O21	O	0.435668	1.045926	-0.095311
O22	O	0.629157	0.710972	0.123897
O23	O	0.663588	0.710967	-0.175632
O24	O	0.471430	0.711009	0.123852
O25	O	0.680171	0.878416	-0.201478
O26	O	0.557565	0.878442	0.098026
O27	O	0.488012	0.878458	0.098006
O28	O	0.664988	0.878418	-0.069394
O29	O	0.571354	1.177986	-0.415202
O30	O	0.527903	0.578906	0.144259
O31	O	0.616077	0.578885	0.144285
O32	O	0.635325	0.578882	-0.023160
O33	O	0.463932	1.178010	-0.247782
O34	O	0.552106	1.177989	-0.247757
O35	O	0.548823	0.779868	0.027610
O36	O	0.612061	0.779854	-0.070947
O37	O	0.591009	0.977014	-0.199965
O38	O	0.527771	0.977028	-0.101408
C39	C	0.523533	0.614939	-0.094799
C40	C	0.514677	0.525507	-0.080995
C41	C	0.621751	0.273393	-0.247884
C42	C	0.630071	0.357423	-0.260860
C43	C	0.601224	0.399448	-0.215895
C44	C	0.564053	0.357435	-0.157951
C45	C	0.555730	0.273402	-0.144980
C46	C	0.535203	0.399458	-0.112992
C47	C	0.498033	0.357444	-0.055048
C48	C	0.489711	0.273420	-0.042079
C49	C	0.518559	0.231395	-0.087044
C50	C	0.543526	0.483490	-0.125962
C51	C	0.477506	0.483500	-0.023059
C52	C	0.469185	0.399469	-0.010082
C53	C	0.410872	0.878479	-0.135512
C54	C	0.363780	0.878491	-0.135525
C55	C	0.082750	0.775520	-0.068104
C56	C	-0.094240	0.775500	-0.068081
O57	O	-0.107784	0.687974	-0.010770
N58	N	-0.127358	0.878415	-0.135429
C59	C	-0.116229	0.981342	-0.202781
O60	O	-0.148460	1.068877	-0.260055
C61	C	0.060759	0.981361	-0.202797
C62	C	0.093877	0.878439	-0.135453
C63	C	0.115867	0.672607	-0.000765
C64	C	0.160112	0.672613	-0.000776
C65	C	0.171240	0.775532	-0.068125
C66	C	0.138123	0.878445	-0.135464
C67	C	0.071888	1.084287	-0.270143
C68	C	0.116138	1.084282	-0.270139
C69	C	0.149256	0.981361	-0.202795
C70	C	0.193495	0.981370	-0.202824
N71	N	0.226614	0.878455	-0.135477
C72	C	0.215486	0.775536	-0.068128
C73	C	-0.209149	0.981325	-0.202769
C74	C	-0.253395	0.981321	-0.202767
C75	C	-0.231404	0.775478	-0.068066
C76	C	-0.187156	0.775484	-0.068075
C77	C	-0.176030	0.878410	-0.135422
C78	C	0.308403	0.775556	-0.068156
C79	C	0.352652	0.775572	-0.068176
C80	C	0.330656	0.981413	-0.202872
C81	C	0.286412	0.981399	-0.202857
C82	C	0.275287	0.878461	-0.135490
O83	O	0.207071	1.068851	-0.260096
O84	O	0.247722	0.688014	-0.010844
C85	C	0.038505	0.775514	-0.068093
C86	C	0.005387	0.878427	-0.135432
C87	C	0.016515	0.981346	-0.202782
C88	C	-0.038859	0.878423	-0.135430
C89	C	-0.049987	0.775504	-0.068080
C90	C	-0.016868	0.672589	-0.000733
C91	C	0.027377	0.672595	-0.000744
C92	C	-0.016604	1.084261	-0.270129
C93	C	-0.060848	1.084247	-0.270113
C94	C	-0.071976	0.981328	-0.202764
C95	C	0.688384	0.878413	-0.135431
C96	C	0.735477	0.878402	-0.135417
C97	C	0.579918	0.878442	-0.398973
C98	C	0.590198	0.878441	-0.488403
C99	C	0.575723	1.141953	-0.176144
C100	C	0.584579	1.231385	-0.189948
C101	C	0.633347	0.878434	-0.530403
C102	C	0.643010	0.878426	-0.614422
C103	C	0.609523	0.878433	-0.656456
C104	C	0.566372	0.878447	-0.614462
C105	C	0.556709	0.878447	-0.530428
C106	C	0.532885	0.878445	-0.656481
C107	C	0.489733	0.878460	-0.614487
C108	C	0.480072	0.878460	-0.530462
C109	C	0.513559	0.878453	-0.488428
C110	C	0.542547	0.878446	-0.740515
C111	C	0.465909	0.878458	-0.740540
C112	C	0.456246	0.878466	-0.656520
C113	C	0.519339	0.878450	0.128030
C114	C	0.509059	0.878452	0.217460
C115	C	0.662289	0.614906	-0.094759
C116	C	0.700525	0.525463	-0.080941
C117	C	0.493244	0.614943	0.168703
C118	C	0.474107	0.525513	0.271937
C119	C	0.632000	0.614910	0.168743
C120	C	0.659956	0.525468	0.271991
C121	C	0.467257	1.141982	-0.439686
C122	C	0.439300	1.231424	-0.542933
C123	C	0.436967	1.141987	-0.176184
C124	C	0.398731	1.231430	-0.190002
C125	C	0.606013	1.141949	-0.439645
C126	C	0.625149	1.231380	-0.542879
C127	C	0.697302	0.483465	-0.125923
C128	C	0.733228	0.399435	-0.112961
C129	C	0.772376	0.357399	-0.055011
C130	C	0.775599	0.399405	-0.010029
C131	C	0.739674	0.483439	-0.022998
C132	C	0.486300	0.483510	0.371887
C133	C	0.468318	0.399492	0.468892
C134	C	0.438145	0.357473	0.465946
C135	C	0.425951	0.399485	0.365985
C136	C	0.443931	0.483507	0.268981
C137	C	0.706099	0.483458	0.269031
C138	C	0.732373	0.399430	0.366033
C139	C	0.712503	0.357408	0.465995
C140	C	0.666356	0.399426	0.468951
C141	C	0.640083	0.483458	0.371949
C142	C	0.393159	1.273444	-0.539975
C143	C	0.366887	1.357499	-0.636981
C144	C	0.386758	1.399526	-0.736944
C145	C	0.432904	1.357502	-0.739900
C146	C	0.459175	1.273455	-0.642895
C147	C	0.401956	1.273436	-0.145030
C148	C	0.366035	1.357489	-0.158018
C149	C	0.326888	1.399528	-0.215972
C150	C	0.323664	1.357518	-0.260949
C151	C	0.359586	1.273473	-0.247967
C152	C	0.655320	1.273372	-0.539897
C153	C	0.673309	1.357390	-0.636887
C154	C	0.661123	1.399420	-0.736858
C155	C	0.630950	1.357420	-0.739837
C156	C	0.612964	1.273397	-0.642848
H157	H	0.608001	0.467869	-0.226464
H158	H	0.368667	1.391680	-0.121385
H159	H	0.801624	0.288972	-0.044458
H160	H	0.722285	0.517661	0.187646
H161	H	0.665432	0.517690	-0.173124
H162	H	0.807478	0.365167	0.037154
H163	H	0.769946	0.365227	0.363606
H164	H	0.660335	0.391628	-0.308039
H165	H	0.259446	1.065206	-0.257706
Br166	Br	0.572013	1.216427	-0.646916
Br167	Br	-0.194058	1.121025	-0.294180
Br168	Br	0.748165	0.243362	0.597632
Br169	Br	0.455080	1.216405	-0.066377
Br170	Br	0.351097	1.513591	-0.868584
H171	H	0.730596	0.365244	-0.149593
Br172	Br	0.459864	1.414548	-0.875573
Br173	Br	0.639396	0.342384	0.604624
H174	H	0.511788	0.162965	-0.076476
Br175	Br	0.593970	0.540499	-0.204600
Br176	Br	0.744055	0.540420	0.038065
Br177	Br	0.660892	0.216371	-0.308918
H178	H	0.376971	1.239231	-0.458589
H179	H	0.665247	1.239164	-0.458506
H180	H	0.459442	0.239224	0.005093
Br181	Br	0.685536	1.513454	-0.868478
Br182	Br	0.278140	1.513592	-0.233580
Br183	Br	0.418744	0.342434	0.068562
H184	H	0.602511	0.517652	0.374375
Br185	Br	0.205051	0.532926	0.090631
H186	H	0.510867	0.517712	0.374306
Br187	Br	0.438350	0.540535	0.037959
Br188	Br	0.270532	1.414581	-0.339595
Br189	Br	0.420461	0.878456	-0.797572
Br190	Br	0.427380	0.540496	0.133339
H191	H	0.356954	1.239273	-0.284587
H192	H	0.505692	0.878464	-0.420016
H193	H	0.379616	0.691757	-0.013333
Br194	Br	0.678792	0.878405	-0.473345
Br195	Br	0.521797	1.216432	-0.646929
Br196	Br	0.304262	1.414511	-0.632943
Br197	Br	0.614413	1.414483	-0.875523
H198	H	0.299352	0.691735	-0.013298
H199	H	-0.007549	1.168072	-0.324976
H200	H	0.106813	0.588793	0.054085
H201	H	0.478252	0.365296	0.550275
H202	H	0.401383	0.365261	0.363602
Br203	Br	-0.142214	0.635800	0.023323
Br204	Br	-0.246514	0.635803	0.023336
H205	H	0.044929	1.168097	-0.324980
Br206	Br	-0.298335	1.121006	-0.294183
H207	H	0.678144	0.878413	-0.648610
H208	H	0.125191	1.168099	-0.324970
H209	H	0.339725	1.065207	-0.257710
H210	H	0.577682	0.878434	-0.774699
Br211	Br	0.072317	0.532908	0.090656
Br212	Br	-0.031979	0.532914	0.090664
H213	H	0.617392	0.878426	-0.724869
Br214	Br	-0.105789	1.223940	-0.361522
Br215	Br	0.421513	0.878455	-0.473451
H216	H	0.421112	0.878478	-0.622318
H217	H	0.423508	0.289057	0.544941
H218	H	0.697875	1.391578	-0.634441
