data_functionalizedCrystal
_audit_creation_method	'MofGen! by Chris Wilmer'
_symmetry_space_group_name_H-M	'P1'
_symmetry_Int_Tables_number	1
_symmetry_cell_setting	triclinic
loop_
_symmetry_equiv_pos_as_xyz
  x,y,z
_cell_length_a	14.044220
_cell_length_b	14.044220
_cell_length_c	9.130313
_cell_angle_alpha	89.997493
_cell_angle_beta	90.004466
_cell_angle_gamma	93.188878
loop_
_atom_site_label
_atom_site_type_symbol
_atom_site_fract_x
_atom_site_fract_y
_atom_site_fract_z
O1	O	1.277162	0.230163	-0.121649
O2	O	1.000491	0.221857	-0.121686
O3	O	1.134674	0.087674	-0.121654
O4	O	1.142979	0.364346	-0.121682
O5	O	1.134672	0.087678	0.121945
O6	O	1.000489	0.221861	0.121913
O7	O	1.277161	0.230167	0.121949
Cu8	Cu	1.138825	0.226014	0.144174
Cu9	Cu	1.138827	0.226010	-0.143910
O10	O	1.142978	0.364349	0.121917
C11	C	1.131037	0.052054	0.000146
C12	C	1.120193	-0.054088	0.000146
C13	C	0.964868	0.218223	0.000109
C14	C	0.858725	0.207379	0.000095
C15	C	0.664388	0.187553	0.000126
C16	C	0.613258	0.264467	0.000124
C17	C	0.505122	0.253435	0.000142
C18	C	0.772534	0.198583	0.000109
C19	C	1.100366	-0.248426	0.000122
C20	C	1.177281	-0.299556	0.000128
C21	C	1.166249	-0.407692	0.000115
C22	C	1.111397	-0.140280	0.000135
C23	C	1.312783	0.233800	0.000151
C24	C	1.418926	0.244645	0.000155
C25	C	1.146614	0.399969	0.000114
C26	C	1.157459	0.506112	0.000104
N27	N	1.138831	0.226017	0.346796
N28	N	1.138828	0.226000	-0.346533
C29	C	1.198265	0.166624	0.423462
C30	C	1.198262	0.166613	0.576799
C31	C	1.079387	0.285395	0.576790
C32	C	1.079386	0.285401	0.423456
C33	C	1.257710	0.107241	0.346803
C34	C	1.317150	0.047844	0.423469
C35	C	1.317146	0.047832	0.576806
C36	C	1.257703	0.107217	0.653476
H37	H	0.626951	0.113425	0.000141
O38	O	1.002175	-0.298017	0.000125
H39	H	0.962841	-0.277017	-0.099164
H40	H	1.365541	-0.000512	0.361036
H41	H	0.650697	0.338600	0.000110
H42	H	1.030991	0.333745	0.639225
O43	O	1.257702	0.107246	0.181419
H44	H	1.309013	0.055969	0.140989
O45	O	1.381259	-0.016220	0.659505
H46	H	1.422599	-0.057500	0.580433
H47	H	1.030988	0.333763	0.361034
O48	O	1.275478	-0.249964	0.000156
H49	H	1.314806	-0.270955	-0.099131
O50	O	1.257696	0.107210	0.818863
H51	H	1.309014	0.055936	0.859298
