data_functionalizedCrystal
_audit_creation_method	'MofGen! by Chris Wilmer'
_symmetry_space_group_name_H-M	'P1'
_symmetry_Int_Tables_number	1
_symmetry_cell_setting	triclinic
loop_
_symmetry_equiv_pos_as_xyz
  x,y,z
_cell_length_a	19.188930
_cell_length_b	19.188930
_cell_length_c	18.266242
_cell_angle_alpha	90.011475
_cell_angle_beta	89.977082
_cell_angle_gamma	96.855221
loop_
_atom_site_label
_atom_site_type_symbol
_atom_site_fract_x
_atom_site_fract_y
_atom_site_fract_z
O1	O	0.926149	-0.087169	-0.061124
O2	O	0.722838	-0.098903	-0.061075
O3	O	0.830361	0.008620	-0.061087
O4	O	0.818627	-0.194691	-0.061113
O5	O	0.830343	0.008625	0.060675
O6	O	0.722820	-0.098897	0.060687
O7	O	0.926131	-0.087163	0.060638
Zn8	Zn	0.824473	-0.093029	0.079994
Zn9	Zn	0.824497	-0.093037	-0.080432
O10	O	0.818608	-0.194686	0.060649
C11	C	0.696818	-0.098520	-0.000188
C12	C	0.619313	-0.097380	-0.000169
C13	C	0.574389	-0.160470	-0.000188
C14	C	0.501566	-0.159399	-0.000196
C15	C	0.473669	-0.095233	-0.000199
C16	C	0.518603	-0.032133	-0.000175
C17	C	0.591425	-0.033207	-0.000160
N18	N	0.365695	-0.046188	-0.041663
N19	N	0.296516	-0.045172	-0.041679
C20	C	0.254260	-0.091994	-0.000243
N21	N	0.283795	-0.139881	0.041200
N22	N	0.352980	-0.140899	0.041213
C23	C	0.394707	-0.094062	-0.000215
C24	C	0.130372	-0.153928	-0.000270
C25	C	0.057547	-0.152853	-0.000274
C26	C	0.074586	-0.025586	-0.000261
C27	C	0.147409	-0.026662	-0.000250
C28	C	0.175298	-0.090835	-0.000258
C29	C	0.829972	0.034634	-0.000204
C30	C	0.828831	0.112138	-0.000197
C31	C	0.952151	-0.087546	-0.000252
C32	C	1.029656	-0.088687	-0.000276
C33	C	0.818997	-0.220700	-0.000236
C34	C	0.820138	-0.298204	-0.000247
N35	N	0.824461	-0.093024	0.189481
C36	C	0.891922	0.157062	-0.000209
C37	C	0.890850	0.229886	-0.000220
C38	C	0.826684	0.257782	-0.000206
C39	C	0.763585	0.212849	-0.000198
C40	C	0.764658	0.140026	-0.000194
N41	N	0.777631	0.365789	0.041244
N42	N	0.776615	0.434968	0.041242
C43	C	0.823446	0.477191	-0.000220
N44	N	0.871341	0.447624	-0.041669
N45	N	0.872359	0.378439	-0.041664
C46	C	0.825513	0.336745	-0.000210
C47	C	0.885379	0.601079	-0.000245
C48	C	0.884305	0.673904	-0.000261
C49	C	0.757038	0.656865	-0.000231
C50	C	0.758114	0.584042	-0.000222
C51	C	0.822287	0.556154	-0.000226
N52	N	0.824513	-0.093037	-0.189919
C53	C	0.872088	-0.045436	0.227785
C54	C	0.872092	-0.045433	0.304430
C55	C	0.824477	-0.093030	0.342768
C56	C	0.776841	-0.140621	0.304455
C57	C	0.776834	-0.140618	0.227812
N58	N	0.815401	-0.154837	0.463094
N59	N	0.815413	-0.154838	0.535902
C60	C	0.824496	-0.093040	0.573691
N61	N	0.833582	-0.031239	0.535920
N62	N	0.833574	-0.031240	0.463106
C63	C	0.824480	-0.093038	0.425875
C64	C	0.872131	-0.045444	0.695101
C65	C	0.872130	-0.045440	0.771748
C66	C	0.776882	-0.140634	0.771772
C67	C	0.776879	-0.140632	0.695127
C68	C	0.824507	-0.093038	0.656796
H69	H	0.464982	-0.210776	-0.000210
C70	C	0.724503	-0.192991	0.813936
C71	C	0.724555	-0.193040	0.898240
C72	C	0.672172	-0.245396	0.940409
C73	C	0.619737	-0.297701	0.898273
C74	C	0.619683	-0.297654	0.813963
C75	C	0.672066	-0.245298	0.771795
H76	H	0.763372	-0.154319	0.929436
H77	H	0.672213	-0.245430	1.002821
H78	H	0.580960	-0.336458	0.929489
H79	H	0.580866	-0.336375	0.782768
H80	H	0.672026	-0.245263	0.709383
H81	H	0.628003	0.018171	-0.000145
H82	H	0.597091	-0.212725	-0.000196
C83	C	0.161056	-0.224514	-0.000269
C84	C	0.111636	-0.293917	-0.000278
C85	C	0.142317	-0.364503	-0.000275
C86	C	0.222418	-0.365688	-0.000264
C87	C	0.271843	-0.296283	-0.000256
C88	C	0.241161	-0.225696	-0.000258
H89	H	0.052336	-0.293042	-0.000286
H90	H	0.105729	-0.415881	-0.000282
H91	H	0.245130	-0.417940	-0.000263
H92	H	0.331142	-0.297157	-0.000248
H93	H	0.277749	-0.174318	-0.000252
H94	H	0.944176	0.134360	-0.000214
C95	C	0.688712	0.534621	-0.000196
C96	C	0.618128	0.565301	-0.000177
C97	C	0.548723	0.515879	-0.000152
C98	C	0.549901	0.435777	-0.000146
C99	C	0.620487	0.405093	-0.000164
C100	C	0.689892	0.454515	-0.000189
H101	H	0.617254	0.624601	-0.000182
H102	H	0.496470	0.538594	-0.000139
H103	H	0.498523	0.399192	-0.000127
H104	H	0.621361	0.345793	-0.000159
H105	H	0.742145	0.431800	-0.000203
H106	H	0.020970	-0.204232	-0.000285
C107	C	0.955965	0.570394	-0.000256
C108	C	1.008304	0.587452	0.062957
C109	C	1.078889	0.556768	0.062947
C110	C	1.097135	0.509026	-0.000277
C111	C	1.044794	0.491965	-0.063495
C112	C	0.974209	0.522649	-0.063484
H113	H	0.994798	0.622796	0.109764
H114	H	1.117635	0.569398	0.109745
H115	H	1.149386	0.486312	-0.000285
H116	H	1.058300	0.456621	-0.110301
H117	H	0.935464	0.510020	-0.110283
H118	H	0.183988	0.024713	-0.000238
H119	H	0.738071	-0.179374	0.335674
H120	H	0.051874	0.026659	-0.000309
H121	H	0.935683	0.710481	-0.000274
H122	H	0.942228	0.266470	-0.000233
H123	H	0.738100	-0.179386	0.663938
C124	C	0.924470	0.006921	0.185620
C125	C	0.976858	0.059273	0.227756
C126	C	1.029238	0.111632	0.185587
C127	C	1.029230	0.111637	0.101282
C128	C	0.976839	0.059283	0.059141
C129	C	0.924459	0.006925	0.101310
H130	H	0.976866	0.059271	0.290167
H131	H	1.068021	0.150388	0.216783
H132	H	1.068004	0.150396	0.070066
H133	H	0.976831	0.059286	-0.003270
H134	H	0.885677	-0.031831	0.070114
C135	C	0.924513	0.006914	0.652934
C136	C	0.976895	0.059269	0.695074
C137	C	1.029278	0.111628	0.652910
C138	C	1.029278	0.111632	0.568605
C139	C	0.976894	0.059275	0.526460
C140	C	0.924511	0.006916	0.568624
H141	H	0.976897	0.059268	0.757486
H142	H	1.068056	0.150386	0.684109
H143	H	1.068055	0.150392	0.537392
H144	H	0.976893	0.059276	0.464048
H145	H	0.885733	-0.031842	0.537425
H146	H	0.738049	-0.179371	0.196624
C147	C	0.693002	0.243532	-0.000180
C148	C	0.640642	0.226504	0.063057
C149	C	0.570056	0.257187	0.063071
C150	C	0.551830	0.304898	-0.000154
C151	C	0.604191	0.321928	-0.063396
C152	C	0.674777	0.291245	-0.063409
H153	H	0.654132	0.191184	0.109864
H154	H	0.531295	0.244580	0.109887
H155	H	0.499578	0.327611	-0.000144
H156	H	0.590701	0.357248	-0.110203
H157	H	0.713538	0.303852	-0.110226
H158	H	0.495885	0.020111	-0.000188
H159	H	0.713281	0.103448	-0.000184
H160	H	0.910911	-0.006685	0.802935
H161	H	0.704792	0.679578	-0.000222
H162	H	0.910877	-0.006680	0.335623
