data_functionalizedCrystal
_audit_creation_method	'MofGen! by Chris Wilmer'
_symmetry_space_group_name_H-M	'P1'
_symmetry_Int_Tables_number	1
_symmetry_cell_setting	triclinic
loop_
_symmetry_equiv_pos_as_xyz
  x,y,z
_cell_length_a	12.837943
_cell_length_b	14.044220
_cell_length_c	11.892095
_cell_angle_alpha	94.243827
_cell_angle_beta	85.689438
_cell_angle_gamma	94.008909
loop_
_atom_site_label
_atom_site_type_symbol
_atom_site_fract_x
_atom_site_fract_y
_atom_site_fract_z
O1	O	1.404549	0.242985	-0.093990
O2	O	1.904549	0.742985	0.406010
O3	O	1.101609	0.230709	-0.093996
O4	O	1.601609	0.730709	0.406004
O5	O	1.248531	0.098452	-0.093982
O6	O	1.748531	0.598452	0.406018
O7	O	1.257627	0.375241	-0.094004
O8	O	1.757627	0.875241	0.405996
O9	O	1.236280	0.109461	0.094025
O10	O	1.736280	0.609461	0.594025
O11	O	1.089357	0.241718	0.094010
O12	O	1.589357	0.741718	0.594010
O13	O	1.392297	0.253993	0.094017
O14	O	1.892297	0.753993	0.594017
Zn15	Zn	1.238882	0.249603	0.123864
Zn16	Zn	1.738882	0.749603	0.623864
Zn17	Zn	1.255024	0.235099	-0.123843
Zn18	Zn	1.755024	0.735099	0.376157
O19	O	1.245375	0.386250	0.094002
O20	O	1.745375	0.886250	0.594002
C21	C	1.056479	0.232067	0.000007
C22	C	1.556479	0.732067	0.500007
C23	C	0.940259	0.219699	0.000005
C24	C	1.440259	0.719699	0.500005
C25	C	0.713048	0.368378	0.000009
C26	C	1.213048	0.868378	0.500009
C27	C	0.603848	0.356763	0.000008
C28	C	1.103848	0.856763	0.500008
C29	C	0.612657	0.184853	0.000009
C30	C	1.112657	0.684853	0.500009
C31	C	0.721856	0.196469	0.000011
C32	C	1.221856	0.696469	0.500011
C33	C	0.772048	0.288234	0.000008
C34	C	1.272048	0.788234	0.500008
C35	C	0.881251	0.299849	0.000001
C36	C	1.381251	0.799849	0.500001
C37	C	0.890056	0.127940	0.000011
C38	C	1.390056	0.627940	0.500011
C39	C	0.780857	0.116324	0.000010
C40	C	1.280857	0.616324	0.500010
C41	C	1.238425	0.068282	0.000022
C42	C	1.738425	0.568282	0.500022
C43	C	1.226550	-0.038016	0.000023
C44	C	1.726550	0.461984	0.500023
C45	C	1.204843	-0.232639	0.000006
C46	C	1.704843	0.267361	0.500006
C47	C	1.289060	-0.282665	0.000005
C48	C	1.789060	0.217335	0.500005
C49	C	1.276982	-0.390960	-0.000005
C50	C	1.776982	0.109040	0.499995
C51	C	1.216919	-0.124334	0.000016
C52	C	1.716919	0.375666	0.500016
C53	C	1.437428	0.252635	0.000012
C54	C	1.937428	0.752635	0.500012
C55	C	1.553649	0.265002	0.000006
C56	C	2.053649	0.765002	0.500006
C57	C	1.255482	0.416420	-0.000004
C58	C	1.755482	0.916420	0.499996
C59	C	1.267357	0.522717	-0.000012
C60	C	1.767357	1.022717	0.499988
N61	N	1.227873	0.259502	0.292917
N62	N	1.727873	0.759502	0.792917
N63	N	1.266041	0.225193	-0.292896
N64	N	1.766041	0.725193	0.207104
C65	C	1.342643	0.156258	0.529576
C66	C	1.842643	0.656258	1.029576
C67	C	1.334956	0.163185	0.647917
C68	C	1.834956	0.663185	1.147917
C69	C	1.204807	0.280277	0.647942
C70	C	1.704807	0.780277	1.147942
C71	C	1.212494	0.273350	0.529601
C72	C	1.712494	0.773350	1.029601
C73	C	1.281415	0.211340	0.470422
C74	C	1.781415	0.711340	0.970422
C75	C	1.289107	0.204418	0.352079
C76	C	1.789107	0.704418	0.852079
C77	C	1.158954	0.321505	0.352106
C78	C	1.658954	0.821505	0.852106
C79	C	1.151267	0.328432	0.470447
C80	C	1.651267	0.828432	0.970447
H81	H	0.555814	0.422025	0.000011
H82	H	1.055814	0.922025	0.500011
H83	H	1.384812	0.118331	0.696076
H84	H	1.884812	0.618331	1.196076
H85	H	1.123677	-0.271140	0.000002
H86	H	1.623677	0.228860	0.500002
O87	O	0.726719	0.017352	0.000018
O88	O	1.226719	0.517352	0.500018
H89	H	0.682175	0.003460	-0.076612
H90	H	1.182175	0.503460	0.423388
O91	O	1.130475	0.347156	0.711778
O92	O	1.630475	0.847156	1.211778
H93	H	1.135423	0.342718	0.804005
H94	H	1.635423	0.842718	1.304005
H95	H	1.095149	0.378917	0.518645
H96	H	1.595149	0.878917	1.018645
O97	O	1.363422	0.137528	0.288233
O98	O	1.863422	0.637528	0.788233
H99	H	1.444571	0.158416	0.310922
H100	H	1.944571	0.658416	0.810922
O101	O	0.935393	0.398820	0.000014
O102	O	1.435393	0.898820	0.500014
H103	H	0.876015	0.452597	0.000030
H104	H	1.376015	0.952597	0.500030
O105	O	0.767195	0.467347	0.000009
O106	O	1.267195	0.967347	0.500009
H107	H	0.707821	0.521127	0.000014
H108	H	1.207821	1.021127	0.500014
O109	O	0.558513	0.085883	0.000029
O110	O	1.058513	0.585883	0.500029
H111	H	0.472668	0.091275	0.000030
H112	H	0.972668	0.591275	0.500030
O113	O	0.953689	0.041489	0.000017
O114	O	1.453689	0.541489	0.500017
H115	H	1.038056	0.064980	0.000024
H116	H	1.538056	0.564980	0.500024
O117	O	1.396587	-0.231676	0.000009
O118	O	1.896587	0.268324	0.500009
H119	H	1.434650	-0.247651	0.076633
H120	H	1.934650	0.252349	0.576633
O121	O	1.416974	0.089381	0.465734
O122	O	1.916974	0.589381	0.965734
H123	H	1.458257	0.052239	0.526751
H124	H	1.958257	0.552239	1.026751
O125	O	1.092901	0.380915	0.288308
O126	O	1.592901	0.880915	0.788308
H127	H	1.109817	0.365678	0.196075
H128	H	1.609817	0.865678	0.696075
