data_functionalizedCrystal
_audit_creation_method	'MofGen! by Chris Wilmer'
_symmetry_space_group_name_H-M	'P1'
_symmetry_Int_Tables_number	1
_symmetry_cell_setting	triclinic
loop_
_symmetry_equiv_pos_as_xyz
  x,y,z
_cell_length_a	21.295417
_cell_length_b	16.625548
_cell_length_c	16.625539
_cell_angle_alpha	89.977655
_cell_angle_beta	90.033373
_cell_angle_gamma	89.969635
loop_
_atom_site_label
_atom_site_type_symbol
_atom_site_fract_x
_atom_site_fract_y
_atom_site_fract_z
Zn1	Zn	-0.250610	-1.232635	0.455919
Zn2	Zn	0.082723	-0.899302	0.789252
Zn3	Zn	0.416056	-0.565969	1.122586
Zn4	Zn	-0.355884	-1.232520	0.321074
Zn5	Zn	-0.022550	-0.899186	0.654408
Zn6	Zn	0.310783	-0.565853	0.987741
Zn7	Zn	-0.250632	-1.097797	0.321095
Zn8	Zn	0.082701	-0.764464	0.654429
Zn9	Zn	0.416034	-0.431131	0.987762
Zn10	Zn	-0.355845	-1.097749	0.455860
Zn11	Zn	-0.022512	-0.764415	0.789193
Zn12	Zn	0.310821	-0.431082	1.122527
O13	O	-0.303243	-1.165175	0.388487
O14	O	0.030090	-0.831842	0.721821
O15	O	0.363424	-0.498509	1.055154
O16	O	-0.264582	-1.345452	0.438048
O17	O	0.068751	-1.012119	0.771381
O18	O	0.402085	-0.678786	1.104714
O19	O	-0.341947	-1.214620	0.208245
O20	O	-0.008614	-0.881287	0.541578
O21	O	0.324720	-0.547954	0.874911
O22	O	-0.162540	-1.115753	0.339014
O23	O	0.170793	-0.782419	0.672347
O24	O	0.504127	-0.449086	1.005680
O25	O	-0.341926	-1.345367	0.338978
O26	O	-0.008593	-1.012034	0.672311
O27	O	0.324741	-0.678701	1.005644
O28	O	-0.162524	-1.214818	0.438068
O29	O	0.170809	-0.881484	0.771401
O30	O	0.504143	-0.548151	1.104735
O31	O	-0.264619	-1.115640	0.208260
O32	O	0.068714	-0.782307	0.541594
O33	O	0.402047	-0.448974	0.874927
O34	O	-0.264582	-0.984958	0.338956
O35	O	0.068751	-0.651625	0.672290
O36	O	0.402085	-0.318292	1.005623
O37	O	-0.341861	-1.115670	0.568700
O38	O	-0.008527	-0.782337	0.902034
O39	O	0.324806	-0.449003	1.235367
O40	O	-0.341882	-0.984923	0.437967
O41	O	-0.008548	-0.651589	0.771301
O42	O	0.324785	-0.318256	1.104634
O43	O	-0.264545	-1.214771	0.568744
O44	O	0.068788	-0.881437	0.902077
O45	O	0.402122	-0.548104	1.235410
O46	O	-0.443968	-1.214573	0.338921
O47	O	-0.110635	-0.881240	0.672254
O48	O	0.222699	-0.547907	1.005587
O49	O	-0.443940	-1.115558	0.437947
O50	O	-0.110607	-0.782224	0.771280
O51	O	0.222727	-0.448891	1.104614
C52	C	-0.303231	-0.955684	0.388458
C53	C	0.030103	-0.622351	0.721792
C54	C	0.363436	-0.289018	1.055125
C55	C	-0.303240	-0.866063	0.388465
C56	C	0.030093	-0.532730	0.721798
C57	C	0.363426	-0.199397	1.055132
C58	C	-0.303239	-0.537888	0.388489
C59	C	0.030094	-0.204554	0.721823
C60	C	0.363428	0.128779	1.055156
C61	C	-0.303238	-0.629196	0.388480
C62	C	0.030096	-0.295863	0.721813
C63	C	0.363429	0.037471	1.055147
C64	C	-0.303240	-0.701973	0.388476
C65	C	0.030093	-0.368639	0.721810
C66	C	0.363427	-0.035306	1.055143
C67	C	-0.303238	-0.793287	0.388468
C68	C	0.030095	-0.459954	0.721802
C69	C	0.363429	-0.126620	1.055135
C70	C	-0.466795	-1.165070	0.388443
C71	C	-0.133461	-0.831736	0.721776
C72	C	0.199872	-0.498403	1.055109
C73	C	-0.536763	-1.165098	0.388451
C74	C	-0.203429	-0.831765	0.721784
C75	C	0.129904	-0.498431	1.055117
C76	C	-0.569623	-1.216701	0.336940
C77	C	-0.236290	-0.883368	0.670274
C78	C	0.097044	-0.550035	1.003607
C79	C	-0.635366	-1.216739	0.336958
C80	C	-0.302032	-0.883406	0.670292
C81	C	0.031301	-0.550073	1.003625
C82	C	-0.668245	-1.165159	0.388478
C83	C	-0.334912	-0.831826	0.721812
C84	C	-0.001579	-0.498493	1.055145
C85	C	-0.635377	-1.113552	0.439999
C86	C	-0.302044	-0.780219	0.773332
C87	C	0.031290	-0.446886	1.106665
C88	C	-0.569636	-1.113522	0.439985
C89	C	-0.236302	-0.780188	0.773318
C90	C	0.097031	-0.446855	1.106651
N91	N	-0.771511	-1.094624	0.394615
N92	N	-0.438177	-0.761291	0.727949
N93	N	-0.104844	-0.427958	1.061282
N94	N	-0.833962	-1.094656	0.394624
N95	N	-0.500629	-0.761322	0.727957
N96	N	-0.167295	-0.427989	1.061291
C97	C	-0.866320	-1.165250	0.388525
C98	C	-0.532987	-0.831916	0.721858
C99	C	-0.199653	-0.498583	1.055191
N100	N	-0.833867	-1.235813	0.382401
N101	N	-0.500534	-0.902479	0.715734
N102	N	-0.167200	-0.569146	1.049067
N103	N	-0.771410	-1.235780	0.382388
N104	N	-0.438076	-0.902447	0.715721
N105	N	-0.104743	-0.569114	1.049055
C106	C	-0.739531	-1.165187	0.388499
C107	C	-0.406197	-0.831854	0.721833
C108	C	-0.072864	-0.498520	1.055166
C109	C	-0.970466	-1.216898	0.337031
C110	C	-0.637132	-0.883565	0.670365
C111	C	-0.303799	-0.550232	1.003698
C112	C	-1.036210	-1.216937	0.337055
C113	C	-0.702876	-0.883604	0.670388
C114	C	-0.369543	-0.550271	1.003722
C115	C	-1.036219	-1.113743	0.440091
C116	C	-0.702886	-0.780410	0.773424
C117	C	-0.369553	-0.447077	1.106758
C118	C	-0.970477	-1.113711	0.440071
C119	C	-0.637144	-0.780378	0.773405
C120	C	-0.303810	-0.447045	1.106738
C121	C	-0.937604	-1.165288	0.388537
C122	C	-0.604271	-0.831954	0.721871
C123	C	-0.270937	-0.498621	1.055204
C124	C	-0.139053	-1.165303	0.388550
C125	C	0.194281	-0.831970	0.721883
C126	C	0.527614	-0.498637	1.055216
C127	C	-0.069085	-1.165358	0.388576
C128	C	0.264249	-0.832025	0.721910
C129	C	0.597582	-0.498691	1.055243
C130	C	-0.303196	-1.165228	0.598796
C131	C	0.030137	-0.831894	0.932130
C132	C	0.363471	-0.498561	1.265463
C133	C	-0.303176	-1.165250	0.688417
C134	C	0.030157	-0.831917	1.021751
C135	C	0.363491	-0.498583	1.355084
C136	C	-0.303252	-0.375484	0.388509
C137	C	0.030082	-0.042151	0.721842
C138	C	0.363415	0.291183	1.055176
C139	C	-0.303245	-0.465105	0.388499
C140	C	0.030088	-0.131772	0.721832
C141	C	0.363422	0.201561	1.055165
C142	C	-0.303244	-1.165169	0.178996
C143	C	0.030089	-0.831836	0.512330
C144	C	0.363422	-0.498503	0.845663
C145	C	-0.303087	-1.165303	0.089376
C146	C	0.030246	-0.831970	0.422709
C147	C	0.363580	-0.498637	0.756042
C148	C	-0.303106	-1.165287	1.016593
C149	C	0.030228	-0.831954	1.349927
C150	C	0.363561	-0.498621	1.683260
C151	C	-0.303127	-1.165275	0.925285
C152	C	0.030206	-0.831941	1.258618
C153	C	0.363539	-0.498608	1.591951
C154	C	-0.303141	-1.165269	0.852508
C155	C	0.030192	-0.831936	1.185842
C156	C	0.363525	-0.498602	1.519175
C157	C	-0.303162	-1.165256	0.761194
C158	C	0.030171	-0.831922	1.094527
C159	C	0.363505	-0.498589	1.427861
H160	H	-0.542860	-1.258700	0.294980
H161	H	-0.209527	-0.925366	0.628314
H162	H	0.123807	-0.592033	0.961647
H163	H	-0.542880	-1.071500	0.481931
H164	H	-0.209547	-0.738166	0.815265
H165	H	0.123787	-0.404833	1.148598
Cl166	Cl	-0.929137	-1.281735	0.272247
Cl167	Cl	-0.595804	-0.948402	0.605580
Cl168	Cl	-0.262470	-0.615068	0.938913
H169	H	-0.662126	-1.258764	0.295013
H170	H	-0.328792	-0.925430	0.628346
H171	H	0.004541	-0.592097	0.961679
Cl172	Cl	-0.676710	-1.048713	0.504770
Cl173	Cl	-0.343377	-0.715379	0.838104
Cl174	Cl	-0.010044	-0.382046	1.171437
H175	H	-0.943720	-1.071688	0.482013
H176	H	-0.610387	-0.738354	0.815346
H177	H	-0.277054	-0.405021	1.148679
H178	H	-1.062963	-1.258964	0.295111
H179	H	-0.729630	-0.925631	0.628444
H180	H	-0.396297	-0.592297	0.961777
Cl181	Cl	-1.077548	-1.048905	0.504865
Cl182	Cl	-0.744214	-0.715572	0.838199
Cl183	Cl	-0.410881	-0.382238	1.171532
