data_functionalizedCrystal
_audit_creation_method	'MofGen! by Chris Wilmer'
_symmetry_space_group_name_H-M	'P1'
_symmetry_Int_Tables_number	1
_symmetry_cell_setting	triclinic
loop_
_symmetry_equiv_pos_as_xyz
  x,y,z
_cell_length_a	12.811457
_cell_length_b	10.489716
_cell_length_c	11.892095
_cell_angle_alpha	93.932635
_cell_angle_beta	91.498327
_cell_angle_gamma	84.284886
loop_
_atom_site_label
_atom_site_type_symbol
_atom_site_fract_x
_atom_site_fract_y
_atom_site_fract_z
O1	O	1.390509	0.175987	0.048557
O2	O	1.890509	0.675987	0.548557
O3	O	1.087268	0.191987	0.017469
O4	O	1.587268	0.691987	0.517469
O5	O	1.245802	-0.001593	0.033718
O6	O	1.745802	0.498407	0.533718
O7	O	1.231975	0.369567	0.032308
O8	O	1.731975	0.869567	0.532308
O9	O	1.232584	0.014522	0.220371
O10	O	1.732584	0.514522	0.720371
O11	O	1.074049	0.208102	0.204122
O12	O	1.574049	0.708102	0.704122
O13	O	1.377291	0.192102	0.235210
O14	O	1.877291	0.692102	0.735210
Zn15	Zn	1.223571	0.202661	0.249301
Zn16	Zn	1.723571	0.702661	0.749301
Zn17	Zn	1.240987	0.181428	0.003378
Zn18	Zn	1.740987	0.681428	0.503378
O19	O	1.218756	0.385682	0.218961
O20	O	1.718756	0.885682	0.718961
C21	C	1.041829	0.198654	0.106814
C22	C	1.541829	0.698654	0.606814
C23	C	0.926128	0.194496	0.094952
C24	C	1.426128	0.694496	0.594952
C25	C	0.694302	0.204229	0.276173
C26	C	1.194302	0.704229	0.776173
C27	C	0.585591	0.200322	0.265033
C28	C	1.085591	0.700322	0.765033
C29	C	0.599992	0.182766	0.061533
C30	C	1.099992	0.682766	0.561533
C31	C	0.708704	0.186673	0.072673
C32	C	1.208704	0.686673	0.572673
C33	C	0.755854	0.197406	0.179997
C34	C	1.255854	0.697406	0.679997
C35	C	0.864567	0.201322	0.191136
C36	C	1.364567	0.701322	0.691136
C37	C	0.878967	0.183757	-0.012363
C38	C	1.378967	0.683757	0.487637
C39	C	0.770256	0.179850	-0.023503
C40	C	1.270256	0.679850	0.476497
C41	C	1.238154	-0.041071	0.126934
C42	C	1.738154	0.458929	0.626934
C43	C	1.235047	-0.182712	0.126605
C44	C	1.735047	0.317288	0.626605
C45	C	1.332264	-0.280098	0.136582
C46	C	1.832264	0.219902	0.636582
C47	C	1.287409	-0.365556	0.039289
C48	C	1.787409	0.134444	0.539289
C49	C	1.274354	-0.349631	0.223312
C50	C	1.774354	0.150369	0.723312
C51	C	1.190238	-0.266310	0.029240
C52	C	1.690238	0.233690	0.529240
C53	C	1.177191	-0.250373	0.213347
C54	C	1.677191	0.249627	0.713347
C55	C	1.132266	-0.335784	0.116024
C56	C	1.632266	0.164216	0.616024
C57	C	1.422730	0.185435	0.145862
C58	C	1.922730	0.685435	0.645862
C59	C	1.538431	0.189592	0.157717
C60	C	2.038431	0.689592	0.657717
C61	C	1.226404	0.425160	0.125742
C62	C	1.726404	0.925160	0.625742
C63	C	1.229512	0.566800	0.126064
C64	C	1.729512	1.066800	0.626064
N65	N	1.211693	0.217151	0.417138
N66	N	1.711693	0.717151	0.917138
N67	N	1.252874	0.166929	-0.164458
N68	N	1.752874	0.666929	0.335542
C69	C	1.335528	0.066028	0.666478
C70	C	1.835528	0.566028	1.166478
C71	C	1.327233	0.076166	0.783970
C72	C	1.827233	0.576166	1.283970
C73	C	1.186803	0.247557	0.769614
C74	C	1.686803	0.747557	1.269614
C75	C	1.195098	0.237419	0.652123
C76	C	1.695098	0.737419	1.152123
C77	C	1.269464	0.146653	0.600559
C78	C	1.769464	0.646653	1.100559
C79	C	1.277764	0.136522	0.483066
C80	C	1.777764	0.636522	0.983066
C81	C	1.137330	0.307906	0.468712
C82	C	1.637330	0.807906	0.968712
C83	C	1.129034	0.318044	0.586204
C84	C	1.629034	0.818044	1.086204
H85	H	0.731851	0.171105	-0.110883
H86	H	1.231851	0.671105	0.389117
H87	H	0.929095	0.178210	-0.090678
H88	H	1.429095	0.678210	0.409322
H89	H	1.416834	-0.255181	0.145158
H90	H	1.916834	0.244819	0.645158
F91	F	1.348251	-0.431032	-0.056905
F92	F	1.848251	0.068968	0.443095
H93	H	0.732691	0.212985	0.363560
H94	H	1.232691	0.712985	0.863560
F95	F	0.520086	0.207580	0.367398
F96	F	1.020086	0.707580	0.867398
H97	H	1.154736	-0.229852	-0.052852
H98	H	1.654736	0.270148	0.447148
H99	H	1.083539	0.373560	0.415027
H100	H	1.583539	0.873560	0.915027
H101	H	1.338319	0.062620	0.441084
H102	H	1.838319	0.562620	0.941084
H103	H	1.068484	0.391941	0.628200
H104	H	1.568484	0.891941	1.128200
H105	H	0.561585	0.174005	-0.025844
H106	H	1.061585	0.674005	0.474156
H107	H	1.047643	-0.360468	0.107298
H108	H	1.547643	0.139532	0.607298
F109	F	1.116411	-0.184843	0.309554
F110	F	1.616411	0.315157	0.809554
H111	H	1.309905	-0.386266	0.305321
H112	H	1.809905	0.113734	0.805321
H113	H	1.396086	-0.007869	0.624495
H114	H	1.896086	0.492131	1.124495
F115	F	0.914746	0.212750	0.305357
F116	F	1.414746	0.712750	0.805357
H117	H	1.381027	0.010512	0.837638
H118	H	1.881027	0.510512	1.337638
H119	H	1.126249	0.321448	0.811612
H120	H	1.626249	0.821448	1.311612
