data_functionalizedCrystal
_audit_creation_method	'MofGen! by Chris Wilmer'
_symmetry_space_group_name_H-M	'P1'
_symmetry_Int_Tables_number	1
_symmetry_cell_setting	triclinic
loop_
_symmetry_equiv_pos_as_xyz
  x,y,z
_cell_length_a	14.971486
_cell_length_b	19.188930
_cell_length_c	13.448316
_cell_angle_alpha	89.988273
_cell_angle_beta	89.998199
_cell_angle_gamma	83.379455
loop_
_atom_site_label
_atom_site_type_symbol
_atom_site_fract_x
_atom_site_fract_y
_atom_site_fract_z
O1	O	1.186467	0.090988	-0.082589
O2	O	1.686467	0.590988	0.417411
O3	O	0.926009	0.101884	-0.082618
O4	O	1.426009	0.601884	0.417382
O5	O	1.063754	-0.005195	-0.082583
O6	O	1.563754	0.494805	0.417417
O7	O	1.048722	0.198067	-0.082624
O8	O	1.548722	0.698067	0.417376
O9	O	1.063737	-0.005202	0.082801
O10	O	1.563737	0.494798	0.582801
O11	O	0.925992	0.101877	0.082766
O12	O	1.425992	0.601877	0.582766
O13	O	1.186450	0.090981	0.082795
O14	O	1.686450	0.590981	0.582795
Cu15	Cu	1.056219	0.096429	0.097881
Cu16	Cu	1.556219	0.596429	0.597881
Cu17	Cu	1.056239	0.096437	-0.097704
Cu18	Cu	1.556239	0.596437	0.402296
O19	O	1.048704	0.198061	0.082760
O20	O	1.548704	0.698061	0.582760
C21	C	0.892678	0.101393	0.000071
C22	C	1.392678	0.601393	0.500071
C23	C	0.793389	0.099933	0.000061
C24	C	1.293389	0.599933	0.500061
C25	C	0.735831	0.162839	0.000050
C26	C	1.235831	0.662839	0.500050
C27	C	0.642539	0.161463	0.000065
C28	C	1.142539	0.661463	0.500065
C29	C	0.606806	0.097180	0.000084
C30	C	1.106806	0.597180	0.500084
C31	C	0.664371	0.034269	0.000098
C32	C	1.164371	0.534269	0.500098
C33	C	0.757662	0.035646	0.000090
C34	C	1.257662	0.535646	0.500090
C35	C	0.469924	0.031403	0.000112
C36	C	0.969924	0.531403	0.500112
C37	C	0.376627	0.030026	0.000119
C38	C	0.876627	0.530026	0.500119
C39	C	0.354801	0.157221	0.000087
C40	C	0.854801	0.657221	0.500087
C41	C	0.448092	0.158598	0.000079
C42	C	0.948092	0.658598	0.500079
C43	C	0.505650	0.095686	0.000091
C44	C	1.005650	0.595686	0.500091
C45	C	1.063259	-0.031211	0.000112
C46	C	1.563259	0.468789	0.500112
C47	C	1.061797	-0.108721	0.000120
C48	C	1.561797	0.391279	0.500120
C49	C	1.142622	-0.153384	0.000134
C50	C	1.642622	0.346616	0.500134
C51	C	1.141249	-0.226213	0.000118
C52	C	1.641249	0.273787	0.500118
C53	C	1.059047	-0.254374	0.000108
C54	C	1.559047	0.245626	0.500108
C55	C	0.978212	-0.209700	0.000089
C56	C	1.478212	0.290300	0.500089
C57	C	0.979587	-0.136874	0.000095
C58	C	1.479587	0.363126	0.500095
N59	N	0.996208	-0.362583	0.056384
N60	N	1.496208	0.137417	0.556384
N61	N	0.994907	-0.431766	0.056381
N62	N	1.494907	0.068234	0.556381
C63	C	1.054899	-0.473796	0.000087
C64	C	1.554899	0.026204	0.500087
N65	N	1.116254	-0.444030	-0.056190
N66	N	1.616254	0.055970	0.443810
N67	N	1.117558	-0.374842	-0.056182
N68	N	1.617558	0.125158	0.443818
C69	C	1.057547	-0.333341	0.000101
C70	C	1.557547	0.166659	0.500101
C71	C	1.134240	-0.597429	0.000082
C72	C	1.634240	-0.097429	0.500082
C73	C	1.132864	-0.670258	0.000060
C74	C	1.632864	-0.170258	0.500060
C75	C	0.969825	-0.653744	0.000041
C76	C	1.469825	-0.153744	0.500041
C77	C	0.971203	-0.580916	0.000053
C78	C	1.471203	-0.080916	0.500053
C79	C	1.053413	-0.552763	0.000078
C80	C	1.553413	-0.052763	0.500078
C81	C	1.219780	0.091472	0.000104
C82	C	1.719780	0.591472	0.500104
C83	C	1.319070	0.092932	0.000107
C84	C	1.819070	0.592932	0.500107
C85	C	1.049200	0.224077	0.000063
C86	C	1.549200	0.724077	0.500063
C87	C	1.050661	0.301586	0.000048
C88	C	1.550661	0.801586	0.500048
N89	N	1.056211	0.096423	0.235446
N90	N	1.556211	0.596423	0.735446
N91	N	1.056254	0.096437	-0.235268
N92	N	1.556254	0.596437	0.264732
C93	C	1.117224	0.049028	0.287501
C94	C	1.617224	0.549028	0.787501
C95	C	1.117229	0.049027	0.391604
C96	C	1.617229	0.549027	0.891604
C97	C	1.056226	0.096426	0.443650
C98	C	1.556226	0.596426	0.943650
C99	C	0.995207	0.143823	0.391587
C100	C	1.495207	0.643823	0.891587
C101	C	0.995198	0.143820	0.287486
C102	C	1.495198	0.643820	0.787486
C103	C	0.995232	0.143828	0.608567
C104	C	1.495232	0.643828	1.108567
C105	C	0.995242	0.143832	0.712676
C106	C	1.495242	0.643832	1.212676
C107	C	1.117263	0.049035	0.712686
C108	C	1.617263	0.549035	1.212686
C109	C	1.117254	0.049032	0.608585
C110	C	1.617254	0.549032	1.108585
C111	C	1.056236	0.096430	0.556529
C112	C	1.556236	0.596430	1.056529
H113	H	0.477182	0.210943	0.000054
H114	H	0.977182	0.710943	0.500054
N115	N	0.532010	-0.036448	0.000120
N116	N	1.032010	0.463552	0.500120
H117	H	0.571205	-0.038716	0.061425
H118	H	1.071205	0.461284	0.561425
H119	H	0.495158	-0.077343	0.000092
H120	H	0.995158	0.422657	0.500092
N121	N	0.292758	0.225093	0.000098
N122	N	0.792758	0.725093	0.500098
H123	H	0.253550	0.227382	-0.061199
H124	H	0.753550	0.727382	0.438801
H125	H	0.253637	0.227324	0.061458
H126	H	0.753637	0.727324	0.561458
H127	H	0.347537	-0.022319	0.000135
H128	H	0.847537	0.477681	0.500135
N129	N	0.625826	-0.035063	0.000130
N130	N	1.125826	0.464937	0.500130
H131	H	0.587605	-0.038469	-0.061173
H132	H	1.087605	0.461531	0.438827
H133	H	0.676493	-0.074667	0.000178
H134	H	1.176493	0.425333	0.500178
N135	N	0.889552	-0.240071	0.000092
N136	N	1.389552	0.259929	0.500092
H137	H	0.838556	-0.200723	0.000087
H138	H	1.338556	0.299277	0.500087
H139	H	0.885435	-0.269921	-0.061217
H140	H	1.385435	0.230079	0.438783
H141	H	0.804525	-0.015579	0.000099
H142	H	1.304525	0.484421	0.500099
H143	H	1.209564	-0.130467	0.000151
H144	H	1.709564	0.369533	0.500151
N145	N	0.881168	-0.684116	0.000038
N146	N	1.381168	-0.184116	0.500038
H147	H	0.845766	-0.667845	0.061344
H148	H	1.345766	-0.167845	0.561344
H149	H	0.845843	-0.667817	-0.061312
H150	H	1.345843	-0.167817	0.438688
N151	N	1.228426	-0.274398	0.000130
N152	N	1.728426	0.225602	0.500130
H153	H	1.280713	-0.245512	0.000145
H154	H	1.780713	0.254488	0.500145
H155	H	1.231391	-0.304983	0.061439
H156	H	1.731391	0.195017	0.561439
H157	H	1.198683	-0.706623	0.000065
H158	H	1.698683	-0.206623	0.500065
N159	N	0.892414	-0.088690	0.000087
N160	N	1.392414	0.411310	0.500087
H161	H	0.856541	-0.097738	-0.061226
H162	H	1.356541	0.402262	0.438774
H163	H	0.856600	-0.097787	0.061430
H164	H	1.356600	0.402213	0.561430
N165	N	1.222903	-0.567057	0.000105
N166	N	1.722903	-0.067057	0.500105
H167	H	1.273899	-0.606405	0.000103
H168	H	1.773899	-0.106405	0.500103
H169	H	1.227031	-0.537186	-0.061199
H170	H	1.727031	-0.037186	0.438801
H171	H	0.945566	0.182428	0.755046
H172	H	1.445566	0.682428	1.255046
N173	N	0.884028	-0.532737	0.000044
N174	N	1.384028	-0.032737	0.500044
H175	H	0.831743	-0.561626	0.000036
H176	H	1.331743	-0.061626	0.500036
H177	H	0.881042	-0.502173	0.061356
H178	H	1.381042	-0.002173	0.561356
H179	H	1.166903	0.010433	0.245132
H180	H	1.666903	0.510433	0.745132
N181	N	1.183066	-0.002068	0.447751
N182	N	1.683066	0.497932	0.947751
H183	H	1.221723	-0.032084	0.398984
H184	H	1.721723	0.467916	0.898984
H185	H	1.222485	0.024744	0.490909
H186	H	1.722485	0.524744	0.990909
H187	H	1.166931	0.010440	0.566209
H188	H	1.666931	0.510440	1.066209
N189	N	1.183079	-0.002087	0.768824
N190	N	1.683079	0.497913	1.268824
H191	H	1.173828	0.005103	0.842669
H192	H	1.673828	0.505103	1.342669
H193	H	1.172949	-0.051633	0.750644
H194	H	1.672949	0.448367	1.250644
N195	N	0.929417	0.194946	0.552418
N196	N	1.429417	0.694946	1.052418
H197	H	0.890775	0.224976	0.601183
H198	H	1.390775	0.724976	1.101183
H199	H	0.963533	0.225855	0.509209
H200	H	1.463533	0.725855	1.009209
N201	N	0.929415	0.194945	0.447727
N202	N	1.429415	0.694945	0.947727
H203	H	0.939515	0.244512	0.429588
H204	H	1.439515	0.744512	0.929588
H205	H	0.865994	0.186761	0.429605
H206	H	1.365994	0.686761	0.929605
H207	H	0.945515	0.182413	0.245103
H208	H	1.445515	0.682413	0.745103
H209	H	0.764917	0.215186	0.000034
H210	H	1.264917	0.715186	0.500034
H211	H	0.595679	0.212688	0.000055
H212	H	1.095679	0.712688	0.500055
