data_functionalizedCrystal
_audit_creation_method	'MofGen! by Chris Wilmer'
_symmetry_space_group_name_H-M	'P1'
_symmetry_Int_Tables_number	1
_symmetry_cell_setting	triclinic
loop_
_symmetry_equiv_pos_as_xyz
  x,y,z
_cell_length_a	16.974885
_cell_length_b	10.268362
_cell_length_c	16.992695
_cell_angle_alpha	90.001568
_cell_angle_beta	87.023153
_cell_angle_gamma	86.352585
loop_
_atom_site_label
_atom_site_type_symbol
_atom_site_fract_x
_atom_site_fract_y
_atom_site_fract_z
O1	O	1.055447	-0.002836	0.099901
O2	O	0.826048	0.021323	0.112635
O3	O	0.939828	0.009330	-0.007874
O4	O	0.941667	0.009157	0.220409
O5	O	0.939816	-0.207269	-0.007870
O6	O	0.826037	-0.195277	0.112639
O7	O	1.055436	-0.219435	0.099905
Cu8	Cu	0.940735	-0.227133	0.106272
Cu9	Cu	0.940749	0.029021	0.106267
O10	O	0.941656	-0.207443	0.220414
C11	C	0.796554	-0.083872	0.112153
C12	C	0.708686	-0.074619	0.110703
C13	C	0.214090	-0.009770	0.102515
C14	C	0.296651	-0.018482	0.103878
C15	C	0.337916	-0.140907	0.104567
C16	C	0.296618	-0.254628	0.103886
C17	C	0.214059	-0.245915	0.102518
C18	C	0.584829	-0.179627	0.108654
C19	C	0.667394	-0.188331	0.110024
C20	C	0.667421	0.047816	0.110015
C21	C	0.584860	0.056519	0.108651
C22	C	0.543569	-0.057202	0.107966
N23	N	0.422306	-0.149815	0.105962
N24	N	0.459181	-0.048293	0.106565
N25	N	0.940731	-0.407299	0.106275
C26	C	0.940737	-0.525142	0.106276
C27	C	0.940747	-0.672981	0.106268
C28	C	1.084930	-0.114238	0.100386
C29	C	1.172797	-0.123482	0.101836
C30	C	0.937456	-0.098720	-0.037082
C31	C	0.930397	-0.097977	-0.124118
N32	N	0.940758	0.209186	0.106258
C33	C	0.998511	-0.105151	-0.174434
C34	C	0.991873	-0.104440	-0.256213
C35	C	0.917120	-0.096563	-0.287675
C36	C	0.849001	-0.089384	-0.237353
C37	C	0.855639	-0.090086	-0.155575
C38	C	0.889606	-0.093648	-0.531243
C39	C	0.882972	-0.092950	-0.613027
C40	C	1.025846	-0.108003	-0.631881
C41	C	1.032478	-0.108713	-0.550101
C42	C	0.964358	-0.101527	-0.499786
N43	N	0.910333	-0.095840	-0.371266
N44	N	0.971146	-0.102241	-0.416196
C45	C	0.944027	-0.099389	0.249621
C46	C	0.951087	-0.100124	0.336658
H47	H	0.551267	0.156210	0.108089
H48	H	1.047340	-0.110285	-0.297177
H49	H	0.180439	-0.338512	0.101973
C50	C	0.341572	0.104877	0.104744
C51	C	0.384348	0.107257	0.172938
C52	C	0.425745	0.220873	0.173758
H53	H	0.305256	0.179133	0.104184
H54	H	0.376966	0.106065	0.059601
H55	H	0.348958	0.106081	0.218069
H56	H	0.420677	0.033027	0.173513
H57	H	0.461139	0.222061	0.128615
H58	H	0.389424	0.295120	0.173196
H59	H	0.454779	0.222497	0.220023
H60	H	1.093350	-0.115127	-0.524491
H61	H	0.551221	-0.272227	0.108084
H62	H	0.701049	0.140401	0.110572
H63	H	1.059383	-0.111573	-0.148824
H64	H	0.700989	-0.288030	0.110591
C65	C	1.099773	-0.115518	-0.686547
C66	C	1.100151	-0.004102	-0.734028
C67	C	1.168248	-0.010965	-0.784389
H68	H	1.100223	-0.191008	-0.718918
H69	H	1.145264	-0.120239	-0.656125
H70	H	1.054672	0.000606	-0.764448
H71	H	1.099713	0.071405	-0.701678
H72	H	1.213740	-0.015686	-0.753966
H73	H	1.168693	-0.086459	-0.816754
H74	H	1.168517	0.064633	-0.816605
C75	C	0.801736	-0.084308	-0.647035
C76	C	0.743499	-0.078124	-0.585469
C77	C	0.668660	-0.070144	-0.616768
H78	H	0.796055	-0.159220	-0.678534
H79	H	0.796150	-0.008154	-0.678522
H80	H	0.749083	-0.154270	-0.553996
H81	H	0.749154	-0.003214	-0.553965
H82	H	0.663074	0.006010	-0.648255
H83	H	0.662988	-0.145059	-0.648267
H84	H	0.629138	-0.065935	-0.575001
C85	C	0.341558	-0.387429	0.104677
C86	C	0.422696	-0.370725	0.106044
C87	C	0.464116	-0.493033	0.106786
H88	H	0.331262	-0.434963	0.058770
H89	H	0.324918	-0.434189	0.150173
H90	H	0.439330	-0.323985	0.060552
H91	H	0.433016	-0.323213	0.151947
H92	H	0.447477	-0.539793	0.152283
H93	H	0.453814	-0.540557	0.060879
H94	H	0.519172	-0.481716	0.107721
C95	C	0.815674	-0.085589	-0.476588
C96	C	0.815300	0.025905	-0.429102
C97	C	0.747197	0.033381	-0.378749
H98	H	0.815213	-0.160984	-0.444219
H99	H	0.770186	-0.080730	-0.507016
H100	H	0.860776	0.021035	-0.398677
H101	H	0.815749	0.101319	-0.461449
H102	H	0.701710	0.038240	-0.409178
H103	H	0.746742	-0.042019	-0.346386
H104	H	0.746931	0.109035	-0.346530
C105	C	0.781619	-0.082088	-0.101035
C106	C	0.736906	0.034043	-0.115252
C107	C	0.668707	0.041456	-0.065033
H108	H	0.796168	-0.083551	-0.047800
H109	H	0.751129	-0.154369	-0.110574
H110	H	0.767391	0.106306	-0.105708
H111	H	0.722337	0.035533	-0.168478
H112	H	0.638217	-0.030825	-0.074571
H113	H	0.683264	0.039988	-0.011800
H114	H	0.638358	0.120244	-0.074677
C115	C	0.169436	0.123274	0.101733
C116	C	0.223275	0.220991	0.102598
C117	C	0.182173	0.343569	0.101866
H118	H	0.134085	0.132106	0.146886
H119	H	0.140393	0.131313	0.055483
H120	H	0.252306	0.212956	0.148844
H121	H	0.258628	0.212202	0.057448
H122	H	0.153129	0.351609	0.055616
H123	H	0.146823	0.352388	0.147021
H124	H	0.218697	0.409885	0.102446
H125	H	0.788135	-0.082962	-0.262976
