data_functionalizedCrystal
_audit_creation_method	'MofGen! by Chris Wilmer'
_symmetry_space_group_name_H-M	'P1'
_symmetry_Int_Tables_number	1
_symmetry_cell_setting	triclinic
loop_
_symmetry_equiv_pos_as_xyz
  x,y,z
_cell_length_a	17.038272
_cell_length_b	17.019372
_cell_length_c	13.930277
_cell_angle_alpha	86.130923
_cell_angle_beta	90.004143
_cell_angle_gamma	92.757580
loop_
_atom_site_label
_atom_site_type_symbol
_atom_site_fract_x
_atom_site_fract_y
_atom_site_fract_z
O1	O	-0.099573	1.053348	-0.007185
O2	O	-0.112280	0.824539	0.011714
O3	O	0.007888	0.937584	0.002385
O4	O	-0.219741	0.940304	0.002144
O5	O	0.007885	0.937566	-0.157275
O6	O	-0.112282	0.824522	-0.147946
O7	O	-0.099576	1.053331	-0.166845
Zn8	Zn	-0.105929	0.938923	-0.182745
Zn9	Zn	-0.105926	0.938947	0.027614
O10	O	-0.219743	0.940286	-0.157516
C11	C	-0.111800	0.795110	-0.065686
C12	C	-0.110358	0.707444	-0.058444
C13	C	-0.102174	0.211627	-0.013056
C14	C	-0.103529	0.293999	-0.019874
C15	C	-0.104214	0.335166	-0.110314
C16	C	-0.103535	0.293959	-0.193943
C17	C	-0.102175	0.211590	-0.187124
C18	C	-0.108318	0.583868	-0.135254
C19	C	-0.109681	0.666243	-0.142066
C20	C	-0.109674	0.666277	0.032003
C21	C	-0.108318	0.583905	0.038814
C22	C	-0.107635	0.542706	-0.044815
C23	C	-0.105602	0.419363	-0.117285
C24	C	-0.106242	0.458511	-0.037844
C25	C	-0.248868	0.942769	-0.077893
C26	C	-0.335654	0.950149	-0.078508
C27	C	-0.385828	0.882390	-0.072911
C28	C	-0.467373	0.889329	-0.073472
C29	C	-0.498742	0.964028	-0.079638
C30	C	-0.448561	1.031792	-0.085232
C31	C	-0.367018	1.024852	-0.084664
C32	C	-0.744478	0.988545	-0.081641
C33	C	-0.826027	0.995480	-0.082211
C34	C	-0.844833	0.853017	-0.070450
C35	C	-0.763288	0.846083	-0.069888
C36	C	-0.713115	0.913847	-0.075478
C37	C	-0.582093	0.971123	-0.080214
C38	C	-0.629765	0.906752	-0.074894
C39	C	0.037012	0.935101	-0.077236
C40	C	0.123799	0.927721	-0.076614
C41	C	-0.100056	1.082760	-0.089443
C42	C	-0.101498	1.170426	-0.096679
N43	N	-0.105931	0.938913	-0.326311
C44	C	-0.058542	0.887897	-0.372356
C45	C	-0.153317	0.989940	-0.380771
C46	C	-0.153316	0.989950	-0.481267
C47	C	-0.105927	0.938933	-0.527313
C48	C	-0.058538	0.887907	-0.472862
C49	C	-0.200698	1.040981	-0.535726
C50	C	-0.200699	1.040993	-0.636229
C51	C	-0.153313	0.989972	-0.682276
C52	C	-0.105923	0.938943	-0.627819
C53	C	-0.058533	0.887926	-0.673864
C54	C	-0.011147	0.836893	-0.619408
C55	C	-0.011152	0.836886	-0.518909
C56	C	-0.153308	0.989979	-0.782776
C57	C	-0.058529	0.887936	-0.774370
N58	N	-0.105918	0.938962	0.171179
H59	H	-0.106161	0.452890	-0.190921
Br60	Br	-0.298924	1.116814	-0.092250
Br61	Br	0.053172	0.767665	-0.681911
H62	H	0.027429	0.795338	-0.474562
H63	H	-0.360295	0.821562	-0.067902
Br64	Br	0.005760	0.818635	-0.298457
Br65	Br	-0.101246	0.155673	-0.300616
Br66	Br	-0.535464	0.797366	-0.065863
H67	H	-0.737754	0.785256	-0.064856
Br68	Br	-0.107413	0.527963	-0.248751
H69	H	-0.110229	0.699830	0.100089
H70	H	-0.019942	0.846388	-0.811853
Br71	Br	-0.217620	1.059180	-0.318281
Br72	Br	-0.110612	0.722113	-0.264815
Br73	Br	-0.101253	0.155764	0.109690
H74	H	-0.885692	0.797847	-0.065898
Br75	Br	-0.868599	1.096864	-0.090612
Br76	Br	-0.265001	1.110220	-0.473233
Br77	Br	-0.217604	1.059241	-0.856677
H78	H	-0.604221	0.845932	-0.069869
Br79	Br	-0.676396	1.080512	-0.089235
Br80	Br	-0.104461	0.349829	-0.316685
H81	H	-0.474108	1.092613	-0.090254
Br82	Br	-0.105296	0.402641	0.084893
H83	H	-0.607643	1.031943	-0.085266
H84	H	-0.104075	0.327542	0.048221
Br85	Br	-0.107392	0.528040	0.161559
Br86	Br	-0.265010	1.110248	-0.710125
