data_functionalizedCrystal
_audit_creation_method	'MofGen! by Chris Wilmer'
_symmetry_space_group_name_H-M	'P1'
_symmetry_Int_Tables_number	1
_symmetry_cell_setting	triclinic
loop_
_symmetry_equiv_pos_as_xyz
  x,y,z
_cell_length_a	19.805407
_cell_length_b	15.297327
_cell_length_c	15.297908
_cell_angle_alpha	69.244266
_cell_angle_beta	99.697340
_cell_angle_gamma	99.707092
loop_
_atom_site_label
_atom_site_type_symbol
_atom_site_fract_x
_atom_site_fract_y
_atom_site_fract_z
Zn1	Zn	1.051408	-0.461248	0.589881
Zn2	Zn	1.017930	-0.589866	0.461269
Zn3	Zn	0.921531	-0.434371	0.434389
Zn4	Zn	0.921483	-0.616713	0.616717
O5	O	0.978088	-0.525549	0.525564
O6	O	1.141684	-0.478323	0.572838
O7	O	0.991152	-0.546755	0.327574
O8	O	0.952790	-0.307799	0.432535
O9	O	1.117088	-0.572817	0.478348
O10	O	1.048210	-0.327546	0.546774
O11	O	0.920328	-0.432513	0.307826
O12	O	0.826807	-0.458546	0.458557
O13	O	0.952709	-0.618574	0.743286
O14	O	0.826772	-0.592512	0.592513
O15	O	1.048164	-0.504355	0.723570
O16	O	0.991106	-0.723565	0.504370
O17	O	0.920247	-0.743289	0.618577
C18	C	0.802231	-0.525526	0.525531
C19	C	0.726998	-0.525543	0.525543
C20	C	0.952059	-0.767173	0.567323
C21	C	0.940989	-0.870547	0.585218
C22	C	0.691633	-0.595372	0.595212
C23	C	0.620946	-0.595376	0.595226
C24	C	0.585624	-0.525554	0.525565
C25	C	0.620994	-0.455718	0.455891
C26	C	0.691681	-0.455711	0.455883
C27	C	0.335922	-0.455744	0.455925
C28	C	0.265229	-0.455758	0.455938
C29	C	0.265187	-0.595408	0.595269
C30	C	0.335874	-0.595402	0.595260
C31	C	0.371238	-0.525563	0.525590
C32	C	0.447886	-0.525559	0.525577
C33	C	0.508977	-0.525561	0.525573
C34	C	1.057521	-1.120763	0.397978
C35	C	1.067921	-1.023638	0.381160
C36	C	1.036189	-0.985360	0.432173
C37	C	0.994055	-1.044217	0.500008
C38	C	0.983649	-1.141351	0.516823
C39	C	0.962317	-1.005948	0.551018
C40	C	0.920183	-1.064805	0.618852
C41	C	0.909780	-1.161929	0.635665
C42	C	0.941512	-1.200207	0.584651
C43	C	0.972723	-0.908815	0.534202
C44	C	0.898851	-0.929403	0.653047
C45	C	0.888451	-1.026528	0.669865
C46	C	1.154632	-0.525573	0.525598
C47	C	1.229864	-0.525583	0.525612
C48	C	1.004165	-0.567458	0.768113
C49	C	1.015278	-0.585316	0.871472
C50	C	1.004239	-0.282985	0.483663
C51	C	1.015384	-0.179619	0.465807
C52	C	0.952158	-0.483737	0.283948
C53	C	0.941205	-0.465617	0.180543
C54	C	0.899111	-0.397743	1.121707
C55	C	0.888672	-0.380954	1.024593
C56	C	0.920322	-0.432044	0.986308
C57	C	0.962414	-0.499924	1.045146
C58	C	0.972858	-0.516708	1.142268
C59	C	0.994069	-0.551009	1.006869
C60	C	1.036160	-0.618889	1.065707
C61	C	1.046602	-0.635671	1.162819
C62	C	1.014952	-0.584582	1.201104
C63	C	0.983625	-0.534224	0.909748
C64	C	1.057372	-0.653190	0.930309
C65	C	1.067811	-0.669978	1.027422
H66	H	0.720387	-0.652232	0.651936
H67	H	1.102083	-0.725246	1.075341
C68	C	0.582036	-0.672234	0.671815
H69	H	0.613191	-0.713837	0.713281
H70	H	0.562631	-0.643795	0.706289
H71	H	0.546282	-0.706517	0.643113
C72	C	0.374726	-0.672203	0.671889
H73	H	0.343541	-0.713787	0.713391
H74	H	0.394108	-0.706508	0.643245
H75	H	0.410493	-0.643689	0.706324
H76	H	0.236472	-0.398894	0.399210
H77	H	0.720475	-0.398845	0.399154
C78	C	0.374816	-0.378930	0.379291
H79	H	0.421976	-0.388914	0.389263
H80	H	0.355047	-0.381644	0.319125
H81	H	0.371432	-0.318837	0.382216
C82	C	1.019063	-0.844079	0.459588
H83	H	1.020712	-0.780749	0.456869
H84	H	1.064303	-0.862299	0.475991
H85	H	1.000754	-0.849240	0.399858
C86	C	1.092902	-0.710336	1.227538
H87	H	1.110250	-0.738366	1.190832
H88	H	1.130303	-0.681320	1.259288
H89	H	1.066706	-0.757399	1.272413
H90	H	1.083348	-1.151938	0.356445
C91	C	1.092186	-0.709395	0.888206
H92	H	1.079931	-0.689685	0.821942
H93	H	1.140842	-0.698547	0.901776
H94	H	1.077247	-0.774631	0.914914
C95	C	0.863944	-0.887313	0.709168
H96	H	0.837352	-0.936274	0.751966
H97	H	0.898235	-0.856385	0.743151
H98	H	0.834696	-0.843316	0.667001
C99	C	0.226286	-0.672223	0.671914
H100	H	0.179130	-0.662225	0.661953
H101	H	0.229666	-0.732316	0.668996
H102	H	0.246060	-0.669502	0.732081
C103	C	0.864303	-0.341548	1.163816
H104	H	0.837741	-0.298715	1.114869
H105	H	0.835051	-0.383662	1.207845
H106	H	0.898646	-0.307578	1.194702
C107	C	0.582141	-0.378918	0.379263
H108	H	0.534975	-0.388928	0.389239
H109	H	0.601926	-0.318820	0.382173
H110	H	0.585542	-0.381639	0.319094
H111	H	1.023444	-0.598253	1.280182
H112	H	1.102226	-0.975720	0.325929
C113	C	0.930069	-1.307045	0.603146
H114	H	0.955001	-1.321407	0.563046
H115	H	0.945840	-1.339355	0.666967
H116	H	0.882303	-1.326281	0.590814
C117	C	0.863430	-1.226669	0.710275
H118	H	0.846026	-1.189966	0.738255
H119	H	0.826067	-1.258454	0.681236
H120	H	0.889610	-1.271519	0.757379
H121	H	1.044659	-0.906276	0.418474
C122	C	0.842104	-1.091271	0.744478
H123	H	0.824698	-1.054572	0.772459
H124	H	0.804742	-1.123059	0.715438
H125	H	0.868287	-1.136119	0.791579
C126	C	0.937326	-0.459567	0.845034
H127	H	0.935641	-0.456880	0.781711
H128	H	0.892094	-0.475919	0.863296
H129	H	0.955688	-0.399834	0.850162
C130	C	0.842377	-0.306292	0.959879
H131	H	0.825019	-0.278274	0.996588
H132	H	0.868568	-0.259232	0.915003
H133	H	0.804972	-0.335315	0.928132
H134	H	0.911820	-0.418371	0.907234
