data_functionalizedCrystal
_audit_creation_method	'MofGen! by Chris Wilmer'
_symmetry_space_group_name_H-M	'P1'
_symmetry_Int_Tables_number	1
_symmetry_cell_setting	triclinic
loop_
_symmetry_equiv_pos_as_xyz
  x,y,z
_cell_length_a	21.395362
_cell_length_b	21.395361
_cell_length_c	21.395356
_cell_angle_alpha	89.971386
_cell_angle_beta	89.964230
_cell_angle_gamma	90.046585
loop_
_atom_site_label
_atom_site_type_symbol
_atom_site_fract_x
_atom_site_fract_y
_atom_site_fract_z
Zn1	Zn	0.957809	-0.249202	-0.354573
Zn2	Zn	0.957726	-0.353974	-0.249790
Zn3	Zn	0.853039	-0.249244	-0.249774
Zn4	Zn	0.852993	-0.353974	-0.354494
O5	O	0.905392	-0.301599	-0.302158
O6	O	1.045476	-0.263082	-0.340712
O7	O	0.943824	-0.340099	-0.162110
O8	O	0.866991	-0.161560	-0.263702
O9	O	1.045415	-0.340059	-0.263729
O10	O	0.943965	-0.161529	-0.340697
O11	O	0.866910	-0.263154	-0.162098
O12	O	0.765355	-0.263154	-0.263626
O13	O	0.866913	-0.340058	-0.442183
O14	O	0.765321	-0.340099	-0.340564
O15	O	0.943920	-0.263082	-0.442240
O16	O	0.943780	-0.441652	-0.263653
O17	O	0.866832	-0.441652	-0.340579
C18	C	0.742604	-0.301632	-0.302085
C19	C	0.672963	-0.301661	-0.302069
C20	C	0.640249	-0.341779	-0.342070
C21	C	0.574813	-0.341764	-0.342098
C22	C	0.542095	-0.301637	-0.302113
C23	C	0.574817	-0.261511	-0.262109
C24	C	0.640251	-0.261523	-0.262087
C25	C	0.438378	-0.296596	-0.245708
C26	C	0.372945	-0.296589	-0.245730
C27	C	0.340274	-0.301596	-0.302182
C28	C	0.373044	-0.306624	-0.358616
C29	C	0.438478	-0.306636	-0.358593
C30	C	0.471142	-0.301619	-0.302133
C31	C	0.236607	-0.341700	-0.342218
C32	C	0.171171	-0.341680	-0.342247
C33	C	0.171175	-0.261430	-0.262252
C34	C	0.236611	-0.261446	-0.262229
C35	C	0.269323	-0.301585	-0.302211
C36	C	0.905309	-0.464386	-0.302123
C37	C	0.905331	-0.534027	-0.302129
C38	C	0.945433	-0.566720	-0.262114
C39	C	0.945462	-0.632155	-0.262128
C40	C	0.905378	-0.664896	-0.302150
C41	C	0.865273	-0.632196	-0.342172
C42	C	0.865250	-0.566761	-0.342162
C43	C	0.848963	-0.768626	-0.307041
C44	C	0.848985	-0.834059	-0.307047
C45	C	0.905451	-0.866716	-0.302187
C46	C	0.961896	-0.833933	-0.297307
C47	C	0.961873	-0.768499	-0.297296
C48	C	0.905399	-0.735848	-0.302167
C49	C	0.945588	-0.970361	-0.262186
C50	C	0.945618	-1.035798	-0.262204
C51	C	0.865424	-1.035837	-0.342245
C52	C	0.865399	-0.970402	-0.342230
C53	C	0.905481	-0.937668	-0.302197
C54	C	1.068815	-0.301566	-0.302231
C55	C	1.138456	-0.301552	-0.302262
C56	C	0.905421	-0.301566	-0.465581
C57	C	0.905433	-0.301552	-0.535222
C58	C	0.905492	-0.138175	-0.302206
C59	C	0.905535	-0.068534	-0.302227
C60	C	0.945552	-0.341486	-1.037025
C61	C	0.945541	-0.341505	-0.971590
C62	C	0.905493	-0.301452	-0.938861
C63	C	0.865441	-0.261388	-0.971573
C64	C	0.865449	-0.261373	-1.037007
C65	C	0.900567	-0.245027	-0.835207
C66	C	0.900563	-0.245040	-0.769774
C67	C	0.905464	-0.301497	-0.737040
C68	C	0.910382	-0.357942	-0.769747
C69	C	0.910390	-0.357928	-0.835181
C70	C	0.905479	-0.301464	-0.867908
C71	C	0.945498	-0.341584	-0.633383
C72	C	0.945482	-0.341604	-0.567947
C73	C	0.865386	-0.261481	-0.567931
C74	C	0.865398	-0.261466	-0.633366
C75	C	0.905458	-0.301516	-0.666089
C76	C	0.905399	-0.301586	-0.139370
C77	C	0.905508	-0.301424	-0.069729
H78	H	0.346445	-0.310700	-0.404585
C79	C	0.989613	-0.385548	-1.073016
N80	N	1.022797	-0.418739	-1.100125
C81	C	0.538820	-0.385901	-0.386102
N82	N	0.511712	-0.419146	-0.419246
H83	H	0.465157	-0.310728	-0.404543
H84	H	1.007832	-0.741808	-0.293325
H85	H	0.978120	-0.658778	-0.229544
H86	H	0.144536	-0.374348	-0.374824
C87	C	0.989517	-0.530716	-0.218070
N88	N	1.022718	-0.503597	-0.184893
H89	H	0.802978	-0.742043	-0.311001
H90	H	0.978226	-0.943708	-0.229590
C91	C	0.821141	-0.530799	-0.386190
N92	N	0.787919	-0.503711	-0.419356
C93	C	0.676238	-0.217391	-0.218077
N94	N	0.703344	-0.184151	-0.184926
H95	H	0.144536	-0.228755	-0.229699
H96	H	0.978158	-0.374122	-0.944957
H97	H	1.007876	-0.860521	-0.293349
C98	C	0.821332	-1.071848	-0.386271
N99	N	0.788122	-1.098974	-0.419433
H100	H	0.978278	-1.062415	-0.229621
H101	H	0.832840	-0.228749	-1.063634
C102	C	0.786895	-0.870114	-0.312414
N103	N	0.740126	-0.897270	-0.316456
C104	C	0.676228	-0.385931	-0.386054
N105	N	0.703329	-0.419185	-0.419183
C106	C	0.272598	-0.217318	-0.218217
N107	N	0.299703	-0.184078	-0.185067
C108	C	0.821296	-0.934439	-0.386262
N109	N	0.788083	-0.907352	-0.419437
C110	C	0.821179	-0.668211	-0.386194
N111	N	0.787966	-0.695339	-0.419354
H112	H	0.914392	-0.403888	-0.861809
C113	C	0.915771	-0.420050	-0.733745
N114	N	0.919831	-0.466828	-0.706625
H115	H	0.263243	-0.374380	-0.374776
C116	C	0.989557	-0.385646	-0.669380
N117	N	1.022742	-0.418835	-0.696491
H118	H	0.346269	-0.292498	-0.199778
H119	H	0.896563	-0.199078	-0.743149
H120	H	0.978087	-0.374234	-0.541320
H121	H	0.464973	-0.292516	-0.199734
H122	H	0.832776	-0.228870	-0.541284
H123	H	0.548173	-0.228838	-0.229554
H124	H	0.832793	-0.228840	-0.659994
C125	C	0.895188	-0.182914	-0.871208
N126	N	0.891141	-0.136132	-0.898323
H127	H	0.832833	-0.228777	-0.944920
