data_functionalizedCrystal
_audit_creation_method	'MofGen! by Chris Wilmer'
_symmetry_space_group_name_H-M	'P1'
_symmetry_Int_Tables_number	1
_symmetry_cell_setting	triclinic
loop_
_symmetry_equiv_pos_as_xyz
  x,y,z
_cell_length_a	11.169417
_cell_length_b	18.050589
_cell_length_c	11.169409
_cell_angle_alpha	90.032850
_cell_angle_beta	90.019824
_cell_angle_gamma	90.029099
loop_
_atom_site_label
_atom_site_type_symbol
_atom_site_fract_x
_atom_site_fract_y
_atom_site_fract_z
Zn1	Zn	1.834813	-0.295582	0.678538
Zn2	Zn	1.834640	-0.419797	0.477854
Zn3	Zn	1.634099	-0.295627	0.477873
Zn4	Zn	1.634044	-0.419737	0.678498
O5	O	1.734399	-0.357686	0.578191
O6	O	2.002740	-0.312066	0.651926
O7	O	1.807988	-0.403370	0.309906
O8	O	1.660820	-0.191697	0.504516
O9	O	2.002613	-0.403326	0.504483
O10	O	1.808284	-0.191663	0.651945
O11	O	1.660652	-0.312143	0.309920
O12	O	1.466142	-0.312084	0.504478
O13	O	1.660726	-0.403223	0.846454
O14	O	1.466102	-0.403267	0.651876
O15	O	1.808230	-0.312007	0.846483
O16	O	1.807935	-0.523714	0.504445
O17	O	1.660558	-0.523669	0.651858
C18	C	1.422574	-0.357674	0.578175
C19	C	1.289174	-0.357687	0.578197
C20	C	1.734254	-0.550638	0.578171
C21	C	1.734302	-0.633184	0.578202
C22	C	1.654237	-0.832637	0.658338
C23	C	1.624974	-0.882089	0.548822
C24	C	1.734420	-0.784314	0.578218
C25	C	1.763742	-0.881944	0.687746
C26	C	1.734532	-0.930299	0.578243
C27	C	1.705099	-0.832678	0.468645
C28	C	1.843918	-0.832529	0.607642
C29	C	1.814697	-0.881959	0.498052
C30	C	1.734353	-0.700216	0.578205
C31	C	1.734599	-1.014395	0.578243
C32	C	2.047441	-0.357697	0.578207
C33	C	2.180841	-0.357703	0.578214
C34	C	1.734491	-0.357603	0.891233
C35	C	1.734531	-0.357568	1.024633
C36	C	1.734577	-0.163980	0.578237
C37	C	1.734653	-0.081434	0.578257
C38	C	1.734376	-0.357714	0.266366
C39	C	1.734570	-0.357540	0.132967
H40	H	1.586330	-0.810980	0.725996
H41	H	1.680236	-0.811127	0.376003
H42	H	1.788498	-0.903585	0.780363
Br43	Br	1.927801	-0.917827	0.385018
Br44	Br	1.998137	-0.796220	0.649171
H45	H	1.532427	-0.903874	0.523958
