data_functionalizedCrystal
_audit_creation_method	'MofGen! by Chris Wilmer'
_symmetry_space_group_name_H-M	'P1'
_symmetry_Int_Tables_number	1
_symmetry_cell_setting	triclinic
loop_
_symmetry_equiv_pos_as_xyz
  x,y,z
_cell_length_a	23.532361
_cell_length_b	23.532357
_cell_length_c	22.010155
_cell_angle_alpha	89.998697
_cell_angle_beta	89.995873
_cell_angle_gamma	82.828980
loop_
_atom_site_label
_atom_site_type_symbol
_atom_site_fract_x
_atom_site_fract_y
_atom_site_fract_z
O1	O	0.755269	0.069002	-0.050471
O2	O	1.088602	0.402336	0.282862
O3	O	1.421935	0.735669	0.616195
O4	O	0.589400	0.079033	-0.050487
O5	O	0.922733	0.412367	0.282846
O6	O	1.256066	0.745700	0.616180
O7	O	0.677351	-0.008917	-0.050466
O8	O	1.010684	0.324417	0.282867
O9	O	1.344017	0.657750	0.616200
O10	O	0.667317	0.156952	-0.050492
O11	O	1.000651	0.490286	0.282841
O12	O	1.333984	0.823619	0.616174
O13	O	0.677335	-0.008903	0.050584
O14	O	1.010668	0.324430	0.383917
O15	O	1.344001	0.657763	0.717251
O16	O	0.589384	0.079047	0.050563
O17	O	0.922717	0.412380	0.383897
O18	O	1.256050	0.745713	0.717230
O19	O	0.755253	0.069015	0.050579
O20	O	1.088586	0.402349	0.383912
O21	O	1.421919	0.735682	0.717246
Cu22	Cu	0.672317	0.074032	0.059798
Cu23	Cu	1.005650	0.407366	0.393131
Cu24	Cu	1.338983	0.740699	0.726464
Cu25	Cu	0.672336	0.074017	-0.059706
Cu26	Cu	1.005669	0.407350	0.273627
Cu27	Cu	1.339002	0.740683	0.606961
O28	O	0.667302	0.156966	0.050558
O29	O	1.000635	0.490299	0.383891
O30	O	1.333968	0.823632	0.717225
C31	C	0.568175	0.078789	0.000036
C32	C	0.901508	0.412122	0.333370
C33	C	1.234842	0.745456	0.666703
C34	C	0.504957	0.078034	0.000031
C35	C	0.838290	0.411367	0.333364
C36	C	1.171623	0.744700	0.666698
C37	C	0.677092	-0.030127	0.000061
C38	C	1.010425	0.303207	0.333394
C39	C	1.343758	0.636540	0.666727
C40	C	0.676337	-0.093345	0.000066
C41	C	1.009671	0.239988	0.333400
C42	C	1.343004	0.573322	0.666733
C43	C	0.231722	0.074723	-0.055047
C44	C	0.565056	0.408056	0.278286
C45	C	0.898389	0.741390	0.611619
C46	C	0.291122	0.075438	-0.055049
C47	C	0.624455	0.408771	0.278284
C48	C	0.957789	0.742104	0.611618
O49	O	0.321855	0.075782	-0.101894
O50	O	0.655189	0.409115	0.231440
O51	O	0.988522	0.742448	0.564773
N52	N	0.320819	0.075806	0.000034
N53	N	0.654152	0.409140	0.333367
N54	N	0.987486	0.742473	0.666700
C55	C	0.291114	0.075454	0.055122
C56	C	0.624447	0.408787	0.388455
C57	C	0.957781	0.742120	0.721788
O58	O	0.321828	0.075832	0.101974
O59	O	0.655161	0.409165	0.435307
O60	O	0.988494	0.742499	0.768640
C61	C	0.231716	0.074735	0.055123
C62	C	0.565049	0.408068	0.388456
C63	C	0.898383	0.741401	0.721789
C64	C	0.202021	0.074372	0.000036
C65	C	0.535355	0.407706	0.333370
C66	C	0.868688	0.741039	0.666703
C67	C	0.202028	0.074360	-0.110129
C68	C	0.535361	0.407693	0.223204
C69	C	0.868694	0.741026	0.556537
C70	C	0.142632	0.073646	-0.110127
C71	C	0.475965	0.406979	0.223206
C72	C	0.809299	0.740313	0.556539
C73	C	0.112931	0.073295	-0.055044
C74	C	0.446264	0.406629	0.278290
C75	C	0.779598	0.739962	0.611623
C76	C	0.142626	0.073658	0.000038
C77	C	0.475959	0.406992	0.333371
C78	C	0.809292	0.740325	0.666705
C79	C	0.202013	0.074378	0.110210
C80	C	0.535346	0.407711	0.443543
C81	C	0.868679	0.741045	0.776876
C82	C	0.142611	0.073659	0.110206
C83	C	0.475944	0.406992	0.443539
C84	C	0.809277	0.740325	0.776873
C85	C	0.112916	0.073296	0.055120
C86	C	0.446249	0.406629	0.388453
C87	C	0.779583	0.739963	0.721786
C88	C	0.053529	0.072594	0.055124
C89	C	0.386862	0.405927	0.388457
C90	C	0.720195	0.739261	0.721790
N91	N	0.023832	0.072225	0.000041
N92	N	0.357165	0.405559	0.333374
N93	N	0.690499	0.738892	0.666707
C94	C	0.053533	0.072576	-0.055043
C95	C	0.386866	0.405910	0.278290
C96	C	0.720200	0.739243	0.611624
C97	C	0.415854	0.076963	0.055115
C98	C	0.749187	0.410296	0.388449
C99	C	1.082520	0.743629	0.721782
C100	C	0.475250	0.077686	0.055115
C101	C	0.808583	0.411019	0.388448
C102	C	1.141917	0.744353	0.721782
C103	C	0.475254	0.077669	-0.055056
C104	C	0.808588	0.411002	0.278277
C105	C	1.141921	0.744336	0.611611
C106	C	0.415856	0.076950	-0.055055
C107	C	0.749190	0.410283	0.278278
C108	C	1.082523	0.743616	0.611612
C109	C	0.386157	0.076594	0.000033
C110	C	0.719490	0.409928	0.333366
C111	C	1.052824	0.743261	0.666699
C112	C	-0.071202	0.071078	-0.055035
C113	C	0.262131	0.404411	0.278299
C114	C	0.595464	0.737744	0.611632
C115	C	-0.130604	0.070366	-0.055028
C116	C	0.202730	0.403699	0.278305
C117	C	0.536063	0.737033	0.611639
C118	C	-0.130602	0.070380	0.055142
C119	C	0.202731	0.403713	0.388476
C120	C	0.536065	0.737047	0.721809
C121	C	-0.071206	0.071095	0.055136
C122	C	0.262127	0.404428	0.388469
C123	C	0.595460	0.737761	0.721803
C124	C	-0.041508	0.071441	0.000043
C125	C	0.291826	0.404775	0.333376
C126	C	0.625159	0.738108	0.666709
O127	O	0.022758	0.072247	0.101944
O128	O	0.356092	0.405580	0.435278
O129	O	0.689425	0.738914	0.768611
O130	O	0.022813	0.072190	-0.101887
O131	O	0.356146	0.405523	0.231446
O132	O	0.689480	0.738857	0.564780
C133	C	0.671609	-0.485363	-0.055049
C134	C	1.004942	-0.152029	0.278284
C135	C	1.338276	0.181304	0.611617
C136	C	0.670892	-0.544762	-0.055053
C137	C	1.004225	-0.211429	0.278280
C138	C	1.337558	0.121905	0.611614
O139	O	0.670509	-0.575484	-0.101899
O140	O	1.003842	-0.242151	0.231435
O141	O	1.337176	0.091182	0.564768
N142	N	0.670527	-0.574466	0.000029
N143	N	1.003861	-0.241133	0.333362
N144	N	1.337194	0.092201	0.666695
C145	C	0.670875	-0.544767	0.055118
C146	C	1.004208	-0.211433	0.388451
C147	C	1.337541	0.121900	0.721784
O148	O	0.670498	-0.575486	0.101969
O149	O	1.003832	-0.242153	0.435302
O150	O	1.337165	0.091180	0.768635
C151	C	0.671588	-0.485368	0.055121
C152	C	1.004921	-0.152035	0.388454
C153	C	1.338254	0.181299	0.721787
C154	C	0.671958	-0.455668	0.000035
C155	C	1.005291	-0.122335	0.333369
C156	C	1.338625	0.210999	0.666702
C157	C	0.671979	-0.455663	-0.110130
C158	C	1.005312	-0.122329	0.223203
C159	C	1.338645	0.211004	0.556536
C160	C	0.672697	-0.396267	-0.110127
C161	C	1.006030	-0.062934	0.223207
C162	C	1.339364	0.270399	0.556540
C163	C	0.673046	-0.366573	-0.055042
C164	C	1.006379	-0.033239	0.278291
C165	C	1.339712	0.300094	0.611625
C166	C	0.672676	-0.396273	0.000039
C167	C	1.006009	-0.062939	0.333372
C168	C	1.339343	0.270394	0.666706
C169	C	0.671931	-0.455669	0.110209
C170	C	1.005264	-0.122336	0.443542
C171	C	1.338597	0.210997	0.776875
C172	C	0.672643	-0.396266	0.110207
C173	C	1.005977	-0.062933	0.443540
C174	C	1.339310	0.270400	0.776874
C175	C	0.673014	-0.366566	0.055122
C176	C	1.006347	-0.033233	0.388455
C177	C	1.339680	0.300100	0.721788
C178	C	0.673743	-0.307183	0.055127
C179	C	1.007077	0.026150	0.388461
C180	C	1.340410	0.359484	0.721794
N181	N	0.674108	-0.277479	0.000046
N182	N	1.007441	0.055854	0.333379
N183	N	1.340774	0.389188	0.666712
C184	C	0.673759	-0.307174	-0.055039
C185	C	1.007092	0.026160	0.278294
C186	C	1.340425	0.359493	0.611628
C187	C	0.669376	-0.669508	0.055107
C188	C	1.002709	-0.336175	0.388441
C189	C	1.336043	-0.002841	0.721774
C190	C	0.668667	-0.728906	0.055105
C191	C	1.002000	-0.395573	0.388438
C192	C	1.335333	-0.062240	0.721772
C193	C	0.668683	-0.728897	-0.055066
C194	C	1.002016	-0.395564	0.278268
C195	C	1.335350	-0.062231	0.611601
C196	C	0.669396	-0.669499	-0.055063
C197	C	1.002730	-0.336165	0.278271
C198	C	1.336063	-0.002832	0.611604
C199	C	0.669740	-0.639804	0.000026
C200	C	1.003074	-0.306471	0.333359
C201	C	1.336407	0.026863	0.666692
C202	C	0.675268	-0.182440	-0.055027
C203	C	1.008601	0.150893	0.278306
C204	C	1.341934	0.484227	0.611640
C205	C	0.675988	-0.123040	-0.055018
C206	C	1.009322	0.210293	0.278315
C207	C	1.342655	0.543627	0.611648
C208	C	0.675969	-0.123054	0.055152
C209	C	1.009302	0.210280	0.388486
C210	C	1.342636	0.543613	0.721819
C211	C	0.675251	-0.182449	0.055144
C212	C	1.008585	0.150884	0.388477
C213	C	1.341918	0.484218	0.721811
C214	C	0.674899	-0.212140	0.000049
C215	C	1.008232	0.121193	0.333383
C216	C	1.341566	0.454526	0.666716
O217	O	0.674124	-0.276422	0.101949
O218	O	1.007457	0.056911	0.435282
O219	O	1.340791	0.390244	0.768616
O220	O	0.674128	-0.276446	-0.101882
O221	O	1.007461	0.056888	0.231451
O222	O	1.340794	0.390221	0.564785
C223	C	0.776477	0.069260	0.000054
C224	C	1.109810	0.402593	0.333388
C225	C	1.443144	0.735927	0.666721
C226	C	0.839695	0.070015	0.000056
C227	C	1.173029	0.403349	0.333389
C228	C	1.506362	0.736682	0.666722
C229	C	0.667560	0.178176	0.000030
C230	C	1.000894	0.511509	0.333363
C231	C	1.334227	0.844842	0.666696
C232	C	0.668315	0.241394	0.000020
C233	C	1.001648	0.574727	0.333353
C234	C	1.334982	0.908061	0.666687
N235	N	0.672308	0.074043	0.143850
N236	N	1.005641	0.407376	0.477184
N237	N	1.338974	0.740710	0.810517
N238	N	0.672349	0.074002	-0.143758
N239	N	1.005683	0.407335	0.189575
N240	N	1.339016	0.740668	0.522908
C241	C	0.711283	0.035078	0.563639
C242	C	1.044616	0.368411	0.896972
C243	C	1.377949	0.701745	1.230306
C244	C	0.711285	0.035074	0.627246
C245	C	1.044618	0.368407	0.960580
C246	C	1.377952	0.701741	1.293913
O247	O	0.744400	0.001952	0.660146
O248	O	1.077733	0.335285	0.993479
O249	O	1.411067	0.668619	1.326812
N250	N	0.672335	0.074005	0.659057
N251	N	1.005669	0.407338	0.992391
N252	N	1.339002	0.740671	1.325724
C253	C	0.633376	0.112938	0.627257
C254	C	0.966710	0.446272	0.960591
C255	C	1.300043	0.779605	1.293924
O256	O	0.600246	0.146051	0.660156
O257	O	0.933580	0.479385	0.993489
O258	O	1.266913	0.812718	1.326822
C259	C	0.633371	0.112939	0.563651
C260	C	0.966705	0.446272	0.896984
C261	C	1.300038	0.779606	1.230318
C262	C	0.672328	0.074009	0.531843
C263	C	1.005661	0.407343	0.865177
C264	C	1.338994	0.740676	1.198510
C265	C	0.750235	-0.003849	0.531831
C266	C	1.083569	0.329484	0.865164
C267	C	1.416902	0.662818	1.198498
C268	C	0.750233	-0.003844	0.468228
C269	C	1.083566	0.329489	0.801561
C270	C	1.416900	0.662822	1.134895
C271	C	0.711278	0.035087	0.436432
C272	C	1.044612	0.368421	0.769766
C273	C	1.377945	0.701754	1.103099
C274	C	0.672326	0.074014	0.468240
C275	C	1.005659	0.407348	0.801573
C276	C	1.338992	0.740681	1.134907
C277	C	0.594410	0.151869	0.531852
C278	C	0.927744	0.485203	0.865185
C279	C	1.261077	0.818536	1.198519
C280	C	0.594408	0.151866	0.468241
C281	C	0.927742	0.485200	0.801575
C282	C	1.261075	0.818533	1.134908
C283	C	0.633365	0.112937	0.436434
C284	C	0.966698	0.446270	0.769767
C285	C	1.300031	0.779603	1.103100
C286	C	0.633369	0.112951	0.372841
C287	C	0.966702	0.446284	0.706175
C288	C	1.300035	0.779617	1.039508
N289	N	0.672319	0.074020	0.341030
N290	N	1.005652	0.407353	0.674364
N291	N	1.338985	0.740686	1.007697
C292	C	0.711273	0.035088	0.372826
C293	C	1.044607	0.368421	0.706159
C294	C	1.377940	0.701755	1.039493
C295	C	0.633389	0.112933	0.760835
C296	C	0.966722	0.446266	1.094169
C297	C	1.300056	0.779600	1.427502
C298	C	0.633396	0.112935	0.824440
C299	C	0.966729	0.446269	1.157774
C300	C	1.300063	0.779602	1.491107
C301	C	0.711304	0.035070	0.824425
C302	C	1.044638	0.368404	1.157758
C303	C	1.377971	0.701737	1.491092
C304	C	0.711299	0.035071	0.760819
C305	C	1.044633	0.368404	1.094152
C306	C	1.377966	0.701738	1.427485
C307	C	0.672339	0.074002	0.729024
C308	C	1.005672	0.407335	1.062358
C309	C	1.339006	0.740669	1.395691
C310	C	0.711266	0.035101	0.239255
C311	C	1.044600	0.368435	0.572588
C312	C	1.377933	0.701768	0.905921
C313	C	0.711262	0.035111	0.175646
C314	C	1.044596	0.368445	0.508979
C315	C	1.377929	0.701778	0.842312
C316	C	0.633352	0.112974	0.175667
C317	C	0.966686	0.446308	0.509000
C318	C	1.300019	0.779641	0.842333
C319	C	0.633358	0.112967	0.239270
C320	C	0.966691	0.446300	0.572603
C321	C	1.300025	0.779633	0.905937
C322	C	0.672317	0.074026	0.271062
C323	C	1.005651	0.407359	0.604396
C324	C	1.338984	0.740692	0.937729
O325	O	0.600269	0.146054	0.339902
O326	O	0.933602	0.479387	0.673235
O327	O	1.266936	0.812721	1.006568
O328	O	0.744393	0.001976	0.339920
O329	O	1.077726	0.335309	0.673253
O330	O	1.411060	0.668642	1.006587
H331	H	-0.154778	0.070073	-0.099888
H332	H	0.178555	0.403406	0.233445
H333	H	0.511888	0.736739	0.566779
C334	C	0.754147	-0.007755	0.725836
C335	C	1.087480	0.325578	1.059169
C336	C	1.420813	0.658911	1.392503
H337	H	0.777343	-0.030942	0.753888
H338	H	1.110676	0.302392	1.087221
H339	H	1.444010	0.635725	1.420554
H340	H	0.777732	0.012605	0.701016
H341	H	1.111065	0.345938	1.034349
H342	H	1.444399	0.679271	1.367683
H343	H	0.733795	-0.031361	0.701030
H344	H	1.067128	0.301972	1.034364
H345	H	1.400461	0.635306	1.367697
H346	H	-0.047029	0.071361	-0.099897
H347	H	0.286305	0.404694	0.233436
H348	H	0.619638	0.738027	0.566769
C349	C	0.668295	-0.761566	-0.115660
C350	C	1.001628	-0.428233	0.217673
C351	C	1.334962	-0.094899	0.551007
H352	H	0.668619	-0.735374	-0.148468
H353	H	1.001953	-0.402041	0.184865
H354	H	1.335286	-0.068707	0.518198
H355	H	0.634800	-0.780198	-0.117950
H356	H	0.968133	-0.446865	0.215383
H357	H	1.301466	-0.113531	0.548716
H358	H	0.701237	-0.789277	-0.117945
H359	H	1.034570	-0.455944	0.215388
H360	H	1.367904	-0.122611	0.548721
C361	C	0.590504	0.155796	0.140686
C362	C	0.923837	0.489130	0.474020
C363	C	1.257171	0.822463	0.807353
H364	H	0.567305	0.178985	0.168736
H365	H	0.900638	0.512318	0.502070
H366	H	1.233972	0.845652	0.835403
H367	H	0.566921	0.135429	0.115876
H368	H	0.900254	0.468763	0.449209
H369	H	1.233588	0.802096	0.782542
H370	H	0.610853	0.179400	0.115872
H371	H	0.944186	0.512734	0.449205
H372	H	1.277520	0.846067	0.782539
C373	C	0.668265	-0.761571	0.115699
C374	C	1.001598	-0.428237	0.449032
C375	C	1.334931	-0.094904	0.782366
H376	H	0.668571	-0.735373	0.148503
H377	H	1.001905	-0.402039	0.481836
H378	H	1.335238	-0.068706	0.815169
H379	H	0.701200	-0.789284	0.117996
H380	H	1.034533	-0.455951	0.451329
H381	H	1.367866	-0.122618	0.784662
H382	H	0.634763	-0.780198	0.117985
H383	H	0.968096	-0.446865	0.451319
H384	H	1.301429	-0.113532	0.784652
H385	H	0.391683	0.076655	-0.099911
H386	H	0.725016	0.409988	0.233422
H387	H	1.058350	0.743321	0.566756
C388	C	0.109944	0.073271	0.170804
C389	C	0.443277	0.406605	0.504137
C390	C	0.776611	0.739938	0.837471
H391	H	0.136139	0.073595	0.203607
H392	H	0.469472	0.406928	0.536940
H393	H	0.802806	0.740261	0.870274
H394	H	0.091310	0.039777	0.173102
H395	H	0.424644	0.373111	0.506435
H396	H	0.757977	0.706444	0.839769
H397	H	0.082235	0.106215	0.173091
H398	H	0.415568	0.439548	0.506424
H399	H	0.748901	0.772881	0.839757
C400	C	0.671512	-0.488328	0.170802
C401	C	1.004846	-0.154994	0.504135
C402	C	1.338179	0.178339	0.837469
H403	H	0.671038	-0.527958	0.162921
H404	H	1.004371	-0.194625	0.496254
H405	H	1.337705	0.138709	0.829588
H406	H	0.638405	-0.474045	0.193421
H407	H	0.971739	-0.140712	0.526755
H408	H	1.305072	0.192621	0.860088
H409	H	0.704843	-0.483133	0.193445
H410	H	1.038176	-0.149800	0.526779
H411	H	1.371509	0.183533	0.860112
H412	H	0.742987	0.003410	0.149750
H413	H	1.076321	0.336743	0.483083
H414	H	1.409654	0.670077	0.816417
H415	H	0.391675	0.076681	0.099977
H416	H	0.725008	0.410014	0.433310
H417	H	1.058342	0.743347	0.766644
H418	H	0.226204	0.074643	-0.154988
H419	H	0.559538	0.407977	0.178346
H420	H	0.892871	0.741310	0.511679
C421	C	0.109977	0.073232	-0.170723
C422	C	0.443311	0.406566	0.162610
C423	C	0.776644	0.739899	0.495944
H424	H	0.136182	0.073536	-0.203524
H425	H	0.469515	0.406869	0.129809
H426	H	0.802848	0.740202	0.463142
H427	H	0.082262	0.106165	-0.173031
H428	H	0.415595	0.439498	0.160302
H429	H	0.748929	0.772832	0.493636
H430	H	0.091354	0.039728	-0.173002
H431	H	0.424687	0.373061	0.160331
H432	H	0.758020	0.706395	0.493664
C433	C	0.673024	-0.363606	0.170806
C434	C	1.006357	-0.030273	0.504139
C435	C	1.339691	0.303061	0.837473
H436	H	0.672705	-0.389806	0.203608
H437	H	1.006039	-0.056472	0.536941
H438	H	1.339372	0.276861	0.870275
H439	H	0.640088	-0.335893	0.173095
H440	H	0.973421	-0.002560	0.506428
H441	H	1.306754	0.330773	0.839761
H442	H	0.706525	-0.344978	0.173104
H443	H	1.039858	-0.011645	0.506437
H444	H	1.373192	0.321689	0.839770
C445	C	-0.163274	0.069946	0.115730
C446	C	0.170059	0.403279	0.449063
C447	C	0.503392	0.736612	0.782396
H448	H	-0.202899	0.069448	0.107836
H449	H	0.130434	0.402781	0.441170
H450	H	0.463768	0.736114	0.774503
H451	H	-0.158100	0.103266	0.138395
H452	H	0.175233	0.436599	0.471728
H453	H	0.508566	0.769932	0.805062
H454	H	-0.148983	0.036829	0.138332
H455	H	0.184350	0.370162	0.471666
H456	H	0.517684	0.703496	0.804999
H457	H	0.499448	0.077954	-0.099908
H458	H	0.832781	0.411287	0.233425
H459	H	1.166114	0.744621	0.566759
C460	C	0.590551	0.155762	0.859425
C461	C	0.923884	0.489095	1.192758
C462	C	1.257217	0.822428	1.526092
H463	H	0.596130	0.150191	0.901862
H464	H	0.929463	0.483524	1.235195
H465	H	1.262796	0.816857	1.568528
H466	H	0.552579	0.149777	0.849002
H467	H	0.885912	0.483110	1.182335
H468	H	1.219246	0.816444	1.515669
H469	H	0.596517	0.193742	0.848999
H470	H	0.929850	0.527075	1.182332
H471	H	1.263184	0.860409	1.515665
C472	C	0.669765	-0.636851	0.115709
C473	C	1.003098	-0.303517	0.449042
C474	C	1.336432	0.029816	0.782375
H475	H	0.669451	-0.663053	0.148509
H476	H	1.002785	-0.329720	0.481842
H477	H	1.336118	0.003614	0.815176
H478	H	0.636828	-0.609139	0.118004
H479	H	0.970161	-0.275806	0.451337
H480	H	1.303495	0.057528	0.784670
H481	H	0.703265	-0.618222	0.118003
H482	H	1.036599	-0.284888	0.451337
H483	H	1.369932	0.048445	0.784670
H484	H	0.743023	0.003369	0.850325
H485	H	1.076356	0.336703	1.183658
H486	H	1.409689	0.670036	1.516991
H487	H	0.499421	0.077990	0.099972
H488	H	0.832755	0.411324	0.433305
H489	H	1.166088	0.744657	0.766638
C490	C	0.676392	-0.090373	-0.115614
C491	C	1.009725	0.242961	0.217719
C492	C	1.343059	0.576294	0.551052
H493	H	0.676075	-0.116567	-0.148420
H494	H	1.009409	0.216766	0.184913
H495	H	1.342742	0.550099	0.518247
H496	H	0.709888	-0.071741	-0.117903
H497	H	1.043222	0.261592	0.215430
H498	H	1.376555	0.594925	0.548763
H499	H	0.643451	-0.062661	-0.117906
H500	H	0.976784	0.270672	0.215427
H501	H	1.310118	0.604006	0.548760
C502	C	0.674846	-0.215120	0.115736
C503	C	1.008179	0.118213	0.449069
C504	C	1.341513	0.451546	0.782402
H505	H	0.675154	-0.188925	0.148542
H506	H	1.008487	0.144408	0.481875
H507	H	1.341820	0.477741	0.815209
H508	H	0.707778	-0.242837	0.118032
H509	H	1.041112	0.090496	0.451366
H510	H	1.374445	0.423829	0.784699
H511	H	0.641341	-0.233744	0.118018
H512	H	0.974674	0.099589	0.451352
H513	H	1.308008	0.432923	0.784685
C514	C	0.234664	0.074778	0.170806
C515	C	0.567997	0.408112	0.504139
C516	C	0.901330	0.741445	0.837472
H517	H	0.208460	0.074461	0.203606
H518	H	0.541794	0.407794	0.536940
H519	H	0.875127	0.741127	0.870273
H520	H	0.253294	0.108275	0.173097
H521	H	0.586627	0.441608	0.506430
H522	H	0.919961	0.774941	0.839763
H523	H	0.262375	0.041837	0.173105
H524	H	0.595708	0.375171	0.506438
H525	H	0.929041	0.708504	0.839771
H526	H	-0.047029	0.071401	0.099992
H527	H	0.286304	0.404734	0.433325
H528	H	0.619637	0.738068	0.766658
H529	H	0.601664	0.144640	0.734951
H530	H	0.934997	0.477973	1.068285
H531	H	1.268331	0.811307	1.401618
C532	C	0.674896	-0.215094	-0.115629
C533	C	1.008229	0.118239	0.217704
C534	C	1.341562	0.451572	0.551037
H535	H	0.675227	-0.188893	-0.148428
H536	H	1.008561	0.144440	0.184905
H537	H	1.341894	0.477773	0.518238
H538	H	0.641404	-0.233731	-0.117940
H539	H	0.974738	0.099603	0.215393
H540	H	1.308071	0.432936	0.548727
H541	H	0.707842	-0.242801	-0.117910
H542	H	1.041175	0.090533	0.215423
H543	H	1.374508	0.423866	0.548757
H544	H	0.672996	-0.372091	-0.154983
H545	H	1.006329	-0.038757	0.178351
H546	H	1.339663	0.294576	0.511684
H547	H	0.671693	-0.479834	-0.154989
H548	H	1.005026	-0.146500	0.178344
H549	H	1.338359	0.186833	0.511677
H550	H	0.562688	0.183569	0.557741
H551	H	0.896022	0.516902	0.891074
H552	H	1.229355	0.850235	1.224408
H553	H	0.669697	-0.645321	-0.099918
H554	H	1.003030	-0.311987	0.233415
H555	H	1.336363	0.021346	0.566748
C556	C	0.551553	0.194695	0.433271
C557	C	0.884887	0.528028	0.766604
C558	C	1.218220	0.861361	1.099938
H559	H	0.528359	0.217880	0.461328
H560	H	0.861692	0.551213	0.794662
H561	H	1.195026	0.884546	1.127995
H562	H	0.527966	0.174334	0.408459
H563	H	0.861299	0.507668	0.741792
H564	H	1.194633	0.841001	1.075125
H565	H	0.571902	0.218302	0.408459
H566	H	0.905235	0.551635	0.741793
H567	H	1.238568	0.884968	1.075126
H568	H	0.601642	0.144672	0.265168
H569	H	0.934975	0.478005	0.598502
H570	H	1.268308	0.811339	0.931835
C571	C	0.676350	-0.090381	0.115741
C572	C	1.009683	0.242952	0.449074
C573	C	1.343016	0.576285	0.782407
H574	H	0.676823	-0.050752	0.107848
H575	H	1.010157	0.282581	0.441182
H576	H	1.343490	0.615915	0.774515
H577	H	0.709442	-0.104652	0.138384
H578	H	1.042775	0.228681	0.471717
H579	H	1.376109	0.562015	0.805051
H580	H	0.643005	-0.095574	0.138365
H581	H	0.976338	0.237759	0.471698
H582	H	1.309672	0.571092	0.805031
H583	H	0.781953	-0.035545	0.442334
H584	H	1.115286	0.297788	0.775667
H585	H	1.448620	0.631121	1.109000
C586	C	0.754123	-0.007730	0.274217
C587	C	1.087456	0.325603	0.607551
C588	C	1.420789	0.658936	0.940884
H589	H	0.777321	-0.030907	0.246157
H590	H	1.110655	0.302427	0.579490
H591	H	1.443988	0.635760	0.912824
H592	H	0.733783	-0.031337	0.299033
H593	H	1.067116	0.301996	0.632366
H594	H	1.400449	0.635329	0.965699
H595	H	0.777714	0.012635	0.299026
H596	H	1.111047	0.345968	0.632359
H597	H	1.444380	0.679301	0.965693
H598	H	0.781957	-0.035554	0.557713
H599	H	1.115290	0.297779	0.891047
H600	H	1.448624	0.631112	1.224380
