data_functionalizedCrystal
_audit_creation_method	'MofGen! by Chris Wilmer'
_symmetry_space_group_name_H-M	'P1'
_symmetry_Int_Tables_number	1
_symmetry_cell_setting	triclinic
loop_
_symmetry_equiv_pos_as_xyz
  x,y,z
_cell_length_a	8.597366
_cell_length_b	8.634740
_cell_length_c	7.088929
_cell_angle_alpha	97.190393
_cell_angle_beta	76.045470
_cell_angle_gamma	92.879812
loop_
_atom_site_label
_atom_site_type_symbol
_atom_site_fract_x
_atom_site_fract_y
_atom_site_fract_z
O1	O	2.133920	0.211718	-0.192536
O2	O	1.673109	0.236889	-0.116625
O3	O	1.881702	-0.000143	-0.150992
O4	O	1.925327	0.448750	-0.158169
O5	O	1.909567	-0.031892	-0.473558
O6	O	1.700974	0.205140	-0.439191
O7	O	2.161785	0.179970	-0.515102
Cu8	Cu	1.933924	0.189656	-0.506599
Cu9	Cu	1.900970	0.227202	-0.125127
O10	O	1.953193	0.417002	-0.480735
C11	C	1.627435	0.220081	-0.268088
C12	C	1.449824	0.217280	-0.238829
C13	C	1.885751	-0.073454	-0.310644
C14	C	1.856283	-0.244596	-0.305781
C15	C	2.207459	0.196778	-0.363634
C16	C	2.385069	0.199580	-0.392880
C17	C	1.949143	0.490313	-0.321079
C18	C	1.978610	0.661457	-0.325929
N19	N	1.957114	0.163247	-0.774908
N20	N	1.877791	0.253599	0.143179
H21	H	1.465518	0.186568	-0.547176
C22	C	1.341165	0.234849	-0.030390
C23	C	1.353880	0.383305	0.110551
C24	C	1.245210	0.400874	0.318994
C25	C	1.123824	0.269987	0.386496
C26	C	1.111105	0.121520	0.245553
C27	C	1.219775	0.103951	0.037110
H28	H	1.443741	0.480205	0.060584
H29	H	1.254626	0.510780	0.423329
H30	H	1.043380	0.282992	0.540798
H31	H	1.021244	0.024620	0.295520
H32	H	1.210358	-0.005955	-0.067226
H33	H	2.105876	-0.288039	-0.346828
H34	H	1.729001	-0.295099	-0.284800
C35	C	1.766718	0.380086	-0.728234
C36	C	1.798683	0.552853	-0.761334
C37	C	1.687608	0.679342	-0.632732
C38	C	1.544568	0.633064	-0.471031
C39	C	1.512596	0.460288	-0.437924
C40	C	1.623672	0.333799	-0.566525
H41	H	1.904576	0.587119	-0.881041
H42	H	1.711276	0.807243	-0.657242
H43	H	1.462343	0.726699	-0.375833
H44	H	1.406704	0.426023	-0.318216
H45	H	1.600004	0.205899	-0.542016
C46	C	2.068193	0.036754	-0.903504
C47	C	2.160082	-0.067917	-0.808780
C48	C	2.271158	-0.194408	-0.937376
C49	C	2.290346	-0.216228	-1.160694
C50	C	2.198454	-0.111554	-1.255430
C51	C	2.087378	0.014937	-1.126835
H52	H	2.145880	-0.051767	-0.643456
H53	H	2.339183	-0.271894	-0.867245
H54	H	2.372572	-0.309864	-1.255888
H55	H	2.212656	-0.127703	-1.420754
H56	H	2.019353	0.092423	-1.196965
