data_functionalizedCrystal
_audit_creation_method	'MofGen! by Chris Wilmer'
_symmetry_space_group_name_H-M	'P1'
_symmetry_Int_Tables_number	1
_symmetry_cell_setting	triclinic
loop_
_symmetry_equiv_pos_as_xyz
  x,y,z
_cell_length_a	12.759401
_cell_length_b	19.805405
_cell_length_c	12.759393
_cell_angle_alpha	90.033867
_cell_angle_beta	90.020938
_cell_angle_gamma	90.028251
loop_
_atom_site_label
_atom_site_type_symbol
_atom_site_fract_x
_atom_site_fract_y
_atom_site_fract_z
Zn1	Zn	1.606179	-0.269403	0.593995
Zn2	Zn	1.606033	-0.382606	0.418305
Zn3	Zn	1.430477	-0.269439	0.418331
Zn4	Zn	1.430432	-0.382558	0.593942
O5	O	1.518280	-0.326001	0.506143
O6	O	1.753180	-0.284424	0.570701
O7	O	1.582703	-0.367629	0.271287
O8	O	1.453864	-0.174718	0.441666
O9	O	1.753073	-0.367594	0.441623
O10	O	1.582951	-0.174691	0.570726
O11	O	1.453723	-0.284486	0.271306
O12	O	1.283450	-0.284440	0.441614
O13	O	1.453788	-0.367513	0.740971
O14	O	1.283417	-0.367548	0.570636
O15	O	1.582908	-0.284378	0.741010
O16	O	1.582659	-0.477316	0.441571
O17	O	1.453646	-0.477281	0.570611
C18	C	1.245313	-0.325993	0.506123
C19	C	1.128536	-0.326006	0.506139
C20	C	1.073685	-0.369346	0.573214
C21	C	0.963961	-0.369349	0.573235
C22	C	0.963949	-0.282669	0.439096
C23	C	1.073672	-0.282663	0.439081
C24	C	1.518161	-0.501857	0.506105
C25	C	1.518205	-0.577089	0.506124
C26	C	1.585381	-0.612362	0.573379
C27	C	1.585419	-0.683050	0.573398
C28	C	1.518286	-0.718465	0.506157
C29	C	1.451103	-0.683188	0.438900
C30	C	1.451060	-0.612501	0.438887
C31	C	1.451271	-0.968261	0.438954
C32	C	1.451321	-1.038953	0.438970
C33	C	1.585630	-1.038810	0.573465
C34	C	1.585588	-0.968123	0.573452
C35	C	1.518401	-0.932852	0.506199
C36	C	1.518360	-0.856204	0.506180
C37	C	1.518332	-0.795112	0.506170
C38	C	1.792313	-0.326010	0.506165
C39	C	1.909090	-0.326014	0.506174
C40	C	1.518359	-0.325936	0.780177
C41	C	1.518392	-0.325909	0.896954
C42	C	1.518429	-0.149459	0.506205
C43	C	1.518492	-0.074227	0.506231
C44	C	1.518262	-0.326017	0.233176
C45	C	1.518432	-0.325854	0.116400
C46	C	1.585630	-0.282614	0.951838
C47	C	1.585648	-0.282584	1.061562
C48	C	1.451187	-0.369151	1.061508
C49	C	1.451165	-0.369177	0.951786
H50	H	0.919265	-0.247382	0.384498
C51	C	1.377167	-0.573698	0.364905
C52	C	1.422700	-0.525110	0.282455
C53	C	1.348800	-0.486307	0.208477
C54	C	1.229366	-0.496092	0.216949
C55	C	1.183826	-0.544682	0.299403
C56	C	1.257726	-0.583485	0.373381
H57	H	1.511118	-0.517865	0.276181
H58	H	1.382513	-0.450338	0.147439
H59	H	1.174661	-0.467368	0.162186
H60	H	1.095408	-0.551928	0.305677
H61	H	1.224014	-0.619454	0.434419
C62	C	1.659529	-1.077610	0.647457
C63	C	1.742063	-1.126183	0.602017
C64	C	1.815961	-1.164981	0.676003
C65	C	1.807325	-1.155206	0.795429
C66	C	1.724787	-1.106631	0.840875
C67	C	1.650889	-1.067833	0.766889
H68	H	1.748459	-1.133421	0.513605
H69	H	1.877061	-1.200940	0.642361
H70	H	1.862029	-1.183927	0.850198
H71	H	1.718391	-1.099393	0.929287
H72	H	1.589789	-1.031875	0.800531
H73	H	1.118333	-0.247366	0.384460
H74	H	1.640054	-0.583531	0.628129
C75	C	1.659615	-0.234961	1.121933
C76	C	1.742085	-0.264275	1.197372
C77	C	1.816054	-0.216648	1.257742
C78	C	1.807553	-0.139707	1.242673
C79	C	1.725080	-0.110388	1.167231
C80	C	1.651110	-0.158015	1.106861
H81	H	1.748381	-0.321236	1.208529
H82	H	1.877107	-0.238353	1.313589
H83	H	1.862310	-0.104450	1.287363
H84	H	1.718784	-0.053427	1.156074
H85	H	1.590058	-0.136310	1.051014
H86	H	1.640129	-0.711765	0.628155
H87	H	1.640368	-0.247380	0.907196
C88	C	1.659433	-0.929166	0.647419
C89	C	1.613827	-0.880558	0.729848
C90	C	1.687670	-0.841601	0.803820
C91	C	1.807117	-0.851253	0.795363
C92	C	1.852729	-0.899864	0.712931
C93	C	1.778887	-0.938820	0.638959
H94	H	1.525400	-0.873411	0.736112
H95	H	1.653904	-0.805616	0.864842
H96	H	1.861780	-0.822415	0.850122
H97	H	1.941157	-0.907011	0.706667
H98	H	1.812652	-0.974805	0.577937
H99	H	0.919305	-0.404640	0.627856
H100	H	1.396648	-1.067786	0.384213
H101	H	1.396568	-0.939549	0.384192
H102	H	1.396404	-0.404432	0.907098
H103	H	1.396437	-0.712028	0.384156
H104	H	1.118352	-0.404637	0.627820
H105	H	1.396455	-0.404380	1.106166
