data_functionalizedCrystal
_audit_creation_method	'MofGen! by Chris Wilmer'
_symmetry_space_group_name_H-M	'P1'
_symmetry_Int_Tables_number	1
_symmetry_cell_setting	triclinic
loop_
_symmetry_equiv_pos_as_xyz
  x,y,z
_cell_length_a	18.215407
_cell_length_b	11.169416
_cell_length_c	11.169409
_cell_angle_alpha	90.030816
_cell_angle_beta	89.975944
_cell_angle_gamma	89.989212
loop_
_atom_site_label
_atom_site_type_symbol
_atom_site_fract_x
_atom_site_fract_y
_atom_site_fract_z
Zn1	Zn	1.125177	0.477696	-0.678667
Zn2	Zn	1.375177	0.727696	-0.428667
Zn3	Zn	1.625177	0.977696	-0.178667
Zn4	Zn	1.875177	1.227696	0.071333
Zn5	Zn	1.125108	0.678437	-0.477989
Zn6	Zn	1.375108	0.928437	-0.227989
Zn7	Zn	1.625108	1.178437	0.022011
Zn8	Zn	1.875108	1.428437	0.272011
Zn9	Zn	1.002101	0.477768	-0.477989
Zn10	Zn	1.252101	0.727768	-0.227989
Zn11	Zn	1.502101	0.977768	0.022011
Zn12	Zn	1.752101	1.227768	0.272011
Zn13	Zn	1.002107	0.678338	-0.678621
Zn14	Zn	1.252107	0.928338	-0.428621
Zn15	Zn	1.502107	1.178338	-0.178621
Zn16	Zn	1.752107	1.428338	0.071379
O17	O	1.063623	0.578059	-0.578316
O18	O	1.313623	0.828059	-0.328316
O19	O	1.563623	1.078059	-0.078316
O20	O	1.813623	1.328059	0.171684
O21	O	1.228152	0.504336	-0.652065
O22	O	1.478152	0.754336	-0.402065
O23	O	1.728152	1.004336	-0.152065
O24	O	1.978152	1.254336	0.097935
O25	O	1.108759	0.651889	-0.310039
O26	O	1.358759	0.901889	-0.060039
O27	O	1.608759	1.151889	0.189961
O28	O	1.858759	1.401889	0.439961
O29	O	1.018453	0.309808	-0.504628
O30	O	1.268453	0.559808	-0.254628
O31	O	1.518453	0.809808	-0.004628
O32	O	1.768453	1.059808	0.245372
O33	O	1.228101	0.651819	-0.504628
O34	O	1.478101	0.901819	-0.254628
O35	O	1.728101	1.151819	-0.004628
O36	O	1.978101	1.401819	0.245372
O37	O	1.108877	0.309756	-0.652065
O38	O	1.358877	0.559756	-0.402065
O39	O	1.608877	0.809756	-0.152065
O40	O	1.858877	1.059756	0.097935
O41	O	1.018386	0.504458	-0.310039
O42	O	1.268386	0.754458	-0.060039
O43	O	1.518386	1.004458	0.189961
O44	O	1.768386	1.254458	0.439961
O45	O	0.899117	0.504362	-0.504584
O46	O	1.149117	0.754362	-0.254584
O47	O	1.399117	1.004362	-0.004584
O48	O	1.649117	1.254362	0.245416
O49	O	1.018464	0.651651	-0.846577
O50	O	1.268464	0.901651	-0.596577
O51	O	1.518464	1.151651	-0.346577
O52	O	1.768464	1.401651	-0.096577
O53	O	0.899122	0.651720	-0.651988
O54	O	1.149122	0.901720	-0.401988
O55	O	1.399122	1.151720	-0.151988
O56	O	1.649122	1.401720	0.098012
O57	O	1.108883	0.504240	-0.846611
O58	O	1.358883	0.754240	-0.596611
O59	O	1.608883	1.004240	-0.346611
O60	O	1.858883	1.254240	-0.096611
O61	O	1.108765	0.846373	-0.504584
O62	O	1.358765	1.096373	-0.254584
O63	O	1.608765	1.346373	-0.004584
O64	O	1.858765	1.596373	0.245416
O65	O	1.018397	0.846300	-0.651988
O66	O	1.268397	1.096300	-0.401988
O67	O	1.518397	1.346300	-0.151988
O68	O	1.768397	1.596300	0.098012
C69	C	0.872417	0.578039	-0.578282
C70	C	1.122417	0.828039	-0.328282
C71	C	1.372417	1.078039	-0.078282
C72	C	1.622417	1.328039	0.171718
C73	C	0.790618	0.578059	-0.578296
C74	C	1.040618	0.828059	-0.328296
C75	C	1.290618	1.078059	-0.078296
C76	C	1.540618	1.328059	0.171704
C77	C	1.063682	0.577927	-0.891359
C78	C	1.313682	0.827927	-0.641359
C79	C	1.563682	1.077927	-0.391359
C80	C	1.813682	1.327927	-0.141359
C81	C	1.063707	0.577870	-1.024759
C82	C	1.313707	0.827870	-0.774759
C83	C	1.563707	1.077870	-0.524759
C84	C	1.813707	1.327870	-0.274759
C85	C	1.063594	0.889884	-0.578307
C86	C	1.313594	1.139884	-0.328307
C87	C	1.563594	1.389884	-0.078307
C88	C	1.813594	1.639884	0.171693
C89	C	1.063649	1.023284	-0.578344
C90	C	1.313649	1.273284	-0.328344
C91	C	1.563649	1.523284	-0.078344
C92	C	1.813649	1.773284	0.171656
C93	C	0.602446	0.654909	-0.654953
C94	C	0.852446	0.904909	-0.404953
C95	C	1.102446	1.154909	-0.154953
C96	C	1.352446	1.404909	0.095047
C97	C	0.525587	0.654913	-0.654968
C98	C	0.775587	0.904913	-0.404968
C99	C	1.025587	1.154913	-0.154968
C100	C	1.275587	1.404913	0.095032
C101	C	0.525552	0.501232	-0.501707
C102	C	0.775552	0.751232	-0.251707
C103	C	1.025552	1.001232	-0.001707
C104	C	1.275552	1.251232	0.248293
C105	C	0.602410	0.501223	-0.501698
C106	C	0.852410	0.751223	-0.251698
C107	C	1.102410	1.001223	-0.001698
C108	C	1.352410	1.251223	0.248302
C109	C	0.640854	0.578068	-0.578320
C110	C	0.890854	0.828068	-0.328320
C111	C	1.140854	1.078068	-0.078320
C112	C	1.390854	1.328068	0.171680
C113	C	0.487138	0.578081	-0.578343
C114	C	0.737138	0.828081	-0.328343
C115	C	0.987138	1.078081	-0.078343
C116	C	1.237138	1.328081	0.171657
C117	C	0.403805	0.578084	-0.578358
C118	C	0.653805	0.828084	-0.328358
C119	C	0.903805	1.078084	-0.078358
C120	C	1.153805	1.328084	0.171642
C121	C	0.724193	0.578064	-0.578306
C122	C	0.974193	0.828064	-0.328306
C123	C	1.224193	1.078064	-0.078306
C124	C	1.474193	1.328064	0.171694
C125	C	1.255576	0.578081	-0.578352
C126	C	1.505576	0.828081	-0.328352
C127	C	1.755576	1.078081	-0.078352
C128	C	2.005576	1.328081	0.171648
C129	C	1.337375	0.578090	-0.578367
C130	C	1.587375	0.828090	-0.328367
C131	C	1.837375	1.078090	-0.078367
C132	C	2.087375	1.328090	0.171633
C133	C	1.063672	0.265017	-0.578352
C134	C	1.313672	0.515017	-0.328352
C135	C	1.563672	0.765017	-0.078352
C136	C	1.813672	1.015017	0.171648
C137	C	1.063693	0.131617	-0.578367
C138	C	1.313693	0.381617	-0.328367
C139	C	1.563693	0.631617	-0.078367
C140	C	1.813693	0.881617	0.171633
C141	C	1.063607	0.578105	-0.266492
C142	C	1.313607	0.828105	-0.016492
C143	C	1.563607	1.078105	0.233508
C144	C	1.813607	1.328105	0.483508
C145	C	1.063724	0.577824	-0.133092
C146	C	1.313724	0.827824	0.116908
C147	C	1.563724	1.077824	0.366908
C148	C	1.813724	1.327824	0.616908
H149	H	0.633745	0.717478	-0.717346
H150	H	0.883745	0.967478	-0.467346
H151	H	1.133745	1.217478	-0.217346
H152	H	1.383745	1.467478	0.032654
Br153	Br	0.654541	0.396920	-0.397701
Br154	Br	0.904541	0.646920	-0.147701
Br155	Br	1.154541	0.896920	0.102299
Br156	Br	1.404541	1.146920	0.352299
H157	H	0.494318	0.717482	-0.717372
H158	H	0.744318	0.967482	-0.467372
H159	H	0.994318	1.217482	-0.217372
H160	H	1.244318	1.467482	0.032628
H161	H	0.494242	0.438669	-0.439322
H162	H	0.744242	0.688669	-0.189322
H163	H	0.994242	0.938669	0.060678
H164	H	1.244242	1.188669	0.310678
