data_functionalizedCrystal
_audit_creation_method	'MofGen! by Chris Wilmer'
_symmetry_space_group_name_H-M	'P1'
_symmetry_Int_Tables_number	1
_symmetry_cell_setting	triclinic
loop_
_symmetry_equiv_pos_as_xyz
  x,y,z
_cell_length_a	14.044220
_cell_length_b	10.654545
_cell_length_c	9.130313
_cell_angle_alpha	89.996934
_cell_angle_beta	89.994483
_cell_angle_gamma	88.835978
loop_
_atom_site_label
_atom_site_type_symbol
_atom_site_fract_x
_atom_site_fract_y
_atom_site_fract_z
O1	O	0.133211	1.681229	-0.121789
O2	O	0.633211	2.181229	0.378211
O3	O	0.145909	1.317026	-0.121796
O4	O	0.645909	1.817026	0.378204
O5	O	0.001540	1.493661	-0.121778
O6	O	0.501540	1.993661	0.378222
O7	O	0.277580	1.504594	-0.121807
O8	O	0.777580	2.004594	0.378193
O9	O	0.001535	1.493647	0.121821
O10	O	0.501535	1.993647	0.621821
O11	O	0.145905	1.317012	0.121803
O12	O	0.645905	1.817012	0.621803
O13	O	0.133207	1.681216	0.121810
O14	O	0.633207	2.181216	0.621810
Cu15	Cu	0.139555	1.499113	0.144049
Cu16	Cu	0.639555	1.999113	0.644049
Cu17	Cu	0.139560	1.499129	-0.144035
Cu18	Cu	0.639560	1.999129	0.355965
O19	O	0.277576	1.504581	0.121792
O20	O	0.777576	2.004581	0.621792
C21	C	0.144975	1.270128	0.000003
C22	C	0.644975	1.770128	0.500003
C23	C	0.142189	1.130404	0.000001
C24	C	0.642189	1.630404	0.500001
C25	C	0.140874	1.064760	0.132788
C26	C	0.640874	1.564760	0.632788
C27	C	0.138240	0.933476	0.132788
C28	C	0.638240	1.433476	0.632788
C29	C	0.138239	0.933491	-0.132797
C30	C	0.638239	1.433491	0.367203
C31	C	0.140866	1.064773	-0.132796
C32	C	0.640866	1.564773	0.367204
C33	C	-0.033808	1.488868	0.000022
C34	C	0.466192	1.988868	0.500022
C35	C	-0.139128	1.474593	0.000023
C36	C	0.360872	1.974593	0.500023
C37	C	-0.331961	1.448494	0.000002
C38	C	0.168039	1.948494	0.500002
C39	C	-0.388929	1.549742	-0.000001
C40	C	0.111071	2.049742	0.499999
C41	C	-0.496228	1.535220	-0.000013
C42	C	0.003772	2.035220	0.499987
C43	C	-0.224652	1.463014	0.000014
C44	C	0.275348	1.963014	0.500014
C45	C	0.312924	1.509373	-0.000011
C46	C	0.812924	2.009373	0.499989
C47	C	0.418244	1.523649	-0.000022
C48	C	0.918244	2.023649	0.499978
C49	C	0.134140	1.728114	0.000008
C50	C	0.634140	2.228114	0.500008
C51	C	0.136927	1.867838	0.000000
C52	C	0.636927	2.367838	0.500000
N53	N	0.139551	1.499110	0.346671
N54	N	0.639551	1.999110	0.846671
N55	N	0.139557	1.499140	-0.346658
N56	N	0.639557	1.999140	0.153342
C57	C	0.075652	1.577356	0.423331
C58	C	0.575652	2.077356	0.923331
C59	C	0.075652	1.577368	0.576668
C60	C	0.575652	2.077368	1.076668
C61	C	0.203460	1.420886	0.576672
C62	C	0.703460	1.920886	1.076672
C63	C	0.203454	1.420868	0.423338
C64	C	0.703454	1.920868	0.923338
H65	H	0.137163	0.880038	-0.240915
H66	H	0.637163	1.380038	0.259085
C67	C	0.273750	1.334797	0.339006
C68	C	0.773750	1.834797	0.839006
H69	H	0.311818	1.288215	0.406624
H70	H	0.811818	1.788215	0.906624
H71	H	0.239256	1.278659	0.279210
H72	H	0.739256	1.778659	0.779210
H73	H	0.313554	1.384429	0.279173
H74	H	0.813554	1.884429	0.779173
H75	H	-0.357118	1.647329	-0.000097
H76	H	0.142882	2.147329	0.499903
H77	H	0.141951	1.118193	0.240919
H78	H	0.641951	1.618193	0.740919
H79	H	-0.363770	1.350914	-0.000004
H80	H	0.136230	1.850914	0.499996
C81	C	0.005353	1.663406	0.339003
C82	C	0.505353	2.163406	0.839003
H83	H	-0.032709	1.709998	0.406625
H84	H	0.467291	2.209998	0.906625
H85	H	0.039837	1.719536	0.279164
H86	H	0.539837	2.219536	0.779164
H87	H	-0.034456	1.613760	0.279211
H88	H	0.465544	2.113760	0.779211
C89	C	0.005366	1.663443	0.660988
C90	C	0.505366	2.163443	1.160988
H91	H	-0.032685	1.710042	0.593362
H92	H	0.467315	2.210042	1.093362
H93	H	-0.034441	1.613828	0.720822
H94	H	0.465559	2.113828	1.220822
H95	H	0.039867	1.719586	0.720782
H96	H	0.539867	2.219586	1.220782
C97	C	0.142316	1.136992	-0.278864
C98	C	0.642316	1.636992	0.221136
H99	H	0.144061	1.224578	-0.259841
H100	H	0.644061	1.724578	0.240159
H101	H	0.197104	1.112086	-0.333435
H102	H	0.697104	1.612086	0.166565
H103	H	0.086661	1.118880	-0.333418
H104	H	0.586661	1.618880	0.166582
C105	C	0.273756	1.334839	0.661009
C106	C	0.773756	1.834839	1.161009
H107	H	0.264615	1.346065	0.763310
H108	H	0.764615	1.846065	1.263310
H109	H	0.262868	1.249807	0.635906
H110	H	0.762868	1.749807	1.135906
H111	H	0.337161	1.355583	0.635856
H112	H	0.837161	1.855583	1.135856
H113	H	0.137171	0.880035	0.240916
H114	H	0.637171	1.380035	0.740916
