data_functionalizedCrystal
_audit_creation_method	'MofGen! by Chris Wilmer'
_symmetry_space_group_name_H-M	'P1'
_symmetry_Int_Tables_number	1
_symmetry_cell_setting	triclinic
loop_
_symmetry_equiv_pos_as_xyz
  x,y,z
_cell_length_a	14.908571
_cell_length_b	19.120786
_cell_length_c	14.908308
_cell_angle_alpha	89.316475
_cell_angle_beta	89.824947
_cell_angle_gamma	89.019960
loop_
_atom_site_label
_atom_site_type_symbol
_atom_site_fract_x
_atom_site_fract_y
_atom_site_fract_z
Zn1	Zn	1.326486	-0.364755	0.566477
Zn2	Zn	1.329365	-0.475309	0.409721
Zn3	Zn	1.185494	-0.351330	0.408252
Zn4	Zn	1.170436	-0.474479	0.551420
O5	O	1.252945	-0.416468	0.483967
O6	O	1.452386	-0.385386	0.552599
O7	O	1.317787	-0.453592	0.284006
O8	O	1.209293	-0.255305	0.434927
O9	O	1.454502	-0.466610	0.437431
O10	O	1.312880	-0.265169	0.551175
O11	O	1.212085	-0.362505	0.282927
O12	O	1.057978	-0.361700	0.420327
O13	O	1.183630	-0.465195	0.678937
O14	O	1.046915	-0.452177	0.525513
O15	O	1.298279	-0.384581	0.689999
O16	O	1.303186	-0.573005	0.422831
O17	O	1.186422	-0.572395	0.526937
C18	C	1.019901	-0.405392	0.471127
C19	C	0.920201	-0.400672	0.465654
C20	C	0.721386	-0.486147	0.564738
C21	C	0.627709	-0.481714	0.559598
C22	C	0.639169	-0.387369	0.450242
C23	C	0.732846	-0.391802	0.455381
C24	C	0.773951	-0.441194	0.512630
C25	C	0.867630	-0.445630	0.517764
C26	C	0.879087	-0.351282	0.408413
C27	C	0.785410	-0.346849	0.403274
C28	C	1.243506	-0.598062	0.473430
C29	C	1.239548	-0.675754	0.468957
C30	C	1.291575	-0.717328	0.527424
C31	C	1.287852	-0.790327	0.523222
C32	C	1.232106	-0.821751	0.460549
C33	C	1.180074	-0.780171	0.402079
C34	C	1.183792	-0.707173	0.406286
C35	C	1.218179	-1.041904	0.444821
C36	C	1.214466	-1.114908	0.440617
C37	C	1.322244	-1.125059	0.561761
C38	C	1.325961	-1.052059	0.565958
C39	C	1.273925	-1.010486	0.507492
C40	C	1.228302	-0.896368	0.456250
C41	C	1.277725	-0.935870	0.511796
C42	C	1.486900	-0.427588	0.496858
C43	C	1.586597	-0.432327	0.502352
C44	C	1.238954	-0.426293	0.717924
C45	C	1.232991	-0.430480	0.817623
C46	C	1.262445	-0.234168	0.494567
C47	C	1.266493	-0.156482	0.499083
C48	C	1.266937	-0.406634	0.250926
C49	C	1.273083	-0.402259	0.151249
C50	C	1.341170	-0.354387	1.016488
C51	C	1.335570	-0.358318	1.110164
C52	C	1.216189	-0.442270	1.098652
C53	C	1.221789	-0.438338	1.004976
C54	C	1.284282	-0.394396	0.963898
C55	C	1.289885	-0.390469	0.870220
C56	C	1.170500	-0.474416	0.858710
C57	C	1.164901	-0.478347	0.952386
H58	H	0.751929	-0.306634	0.356666
H59	H	1.124180	-0.506996	0.815880
N60	N	0.763396	-0.536598	0.623197
N61	N	0.815252	-0.582238	0.591825
H62	H	0.844923	-0.617871	0.633112
N63	N	1.165033	-0.999434	0.385108
N64	N	1.202111	-0.957783	0.332068
H65	H	1.164571	-0.927782	0.289900
N66	N	0.574028	-0.527634	0.612836
N67	N	0.610745	-0.571726	0.663947
H68	H	0.572833	-0.604159	0.701550
N69	N	1.157542	-1.147032	0.376596
N70	N	1.190514	-1.186862	0.318873
H71	H	1.150321	-1.209557	0.273660
H72	H	0.605684	-0.347153	0.403639
N73	N	0.932795	-0.305369	0.355182
N74	N	1.016434	-0.309336	0.359771
H75	H	1.054367	-0.276914	0.322175
N76	N	1.353715	-0.345592	0.828242
N77	N	1.412719	-0.370701	0.777689
H78	H	1.457799	-0.339004	0.748043
N79	N	1.375389	-1.167536	0.621471
N80	N	1.372066	-1.232712	0.617709
H81	H	1.409601	-1.262712	0.659883
N82	N	1.348531	-0.685244	0.591442
N83	N	1.394978	-0.722377	0.643639
H84	H	1.435205	-0.699720	0.688856
H85	H	1.330225	-0.824175	0.570825
H86	H	1.371354	-1.026476	0.616992
H87	H	1.392058	-0.318611	0.983042
H88	H	1.141425	-0.673323	0.358678
N89	N	0.909606	-0.496087	0.576237
N90	N	0.862658	-0.536220	0.622757
H91	H	0.892300	-0.571857	0.664057
H92	H	1.134681	-0.805762	0.351053
H93	H	1.323110	-0.910283	0.562827
H94	H	1.182917	-0.921961	0.405219
N95	N	1.393681	-0.317441	1.163871
N96	N	1.449467	-0.278209	1.127178
H97	H	1.490509	-0.249335	1.165108
N98	N	1.152355	-0.487139	1.140636
N99	N	1.147361	-0.490634	1.224275
H100	H	1.102276	-0.522323	1.253929
H101	H	1.114019	-0.514122	0.985845
