data_functionalizedCrystal
_audit_creation_method	'MofGen! by Chris Wilmer'
_symmetry_space_group_name_H-M	'P1'
_symmetry_Int_Tables_number	1
_symmetry_cell_setting	triclinic
loop_
_symmetry_equiv_pos_as_xyz
  x,y,z
_cell_length_a	14.519709
_cell_length_b	14.519710
_cell_length_c	13.596369
_cell_angle_alpha	90.004381
_cell_angle_beta	89.993066
_cell_angle_gamma	96.319855
loop_
_atom_site_label
_atom_site_type_symbol
_atom_site_fract_x
_atom_site_fract_y
_atom_site_fract_z
O1	O	-0.120893	1.223868	0.081772
O2	O	0.379107	1.723868	0.581772
O3	O	-0.135129	0.955392	0.081779
O4	O	0.364871	1.455392	0.581779
O5	O	0.006227	1.096748	0.081766
O6	O	0.506227	1.596748	0.581766
O7	O	-0.262249	1.082512	0.081785
O8	O	0.237751	1.582512	0.581785
O9	O	0.006235	1.096734	-0.081816
O10	O	0.506235	1.596734	0.418184
O11	O	-0.135122	0.955377	-0.081804
O12	O	0.364878	1.455377	0.418196
O13	O	-0.120885	1.223854	-0.081811
O14	O	0.379115	1.723854	0.418189
Zn15	Zn	-0.128002	1.089614	-0.107780
Zn16	Zn	0.371998	1.589614	0.392220
Zn17	Zn	-0.128012	1.089632	0.107748
Zn18	Zn	0.371988	1.589632	0.607748
O19	O	-0.262242	1.082498	-0.081798
O20	O	0.237758	1.582498	0.418202
C21	C	0.040591	1.096078	-0.000025
C22	C	0.540591	1.596078	0.499975
C23	C	0.142972	1.094090	-0.000026
C24	C	0.642972	1.594090	0.499974
C25	C	-0.121553	1.258221	-0.000018
C26	C	0.378447	1.758221	0.499982
C27	C	-0.123541	1.360602	-0.000014
C28	C	0.376459	1.860602	0.499986
C29	C	-0.134462	0.921025	-0.000012
C30	C	0.365538	1.421025	0.499988
C31	C	-0.132474	0.818643	-0.000009
C32	C	0.367526	1.318643	0.499991
C33	C	-0.296606	1.083168	-0.000005
C34	C	0.203394	1.583168	0.499995
C35	C	-0.398987	1.085156	0.000002
C36	C	0.101013	1.585156	0.500002
C37	C	0.517868	1.086770	0.000000
C38	C	1.017868	1.586770	0.500000
C39	C	0.413560	1.088803	-0.000007
C40	C	0.913560	1.588803	0.499993
C41	C	0.330423	1.090430	-0.000014
C42	C	0.830423	1.590430	0.499986
C43	C	0.226109	1.092463	-0.000019
C44	C	0.726109	1.592463	0.499981
N45	N	-0.127995	1.089608	-0.254872
N46	N	0.372005	1.589608	0.245128
C47	C	-0.130860	1.735498	-0.000013
C48	C	0.369140	2.235498	0.499987
C49	C	-0.128828	1.631190	-0.000013
C50	C	0.371172	2.131190	0.499987
C51	C	-0.127201	1.548054	-0.000013
C52	C	0.372799	2.048054	0.499987
C53	C	-0.125168	1.443739	-0.000014
C54	C	0.374832	1.943739	0.499986
C55	C	-0.128013	1.089631	-0.656162
C56	C	0.371987	1.589631	-0.156162
C57	C	-0.128011	1.089622	-0.544511
C58	C	0.371989	1.589622	-0.044511
C59	C	-0.128005	1.089620	-0.455521
C60	C	0.371995	1.589620	0.044479
C61	C	-0.128001	1.089610	-0.343862
C62	C	0.371999	1.589610	0.156138
N63	N	-0.128012	1.089645	0.254840
N64	N	0.371988	1.589645	0.754840
