data_functionalizedCrystal
_audit_creation_method	'MofGen! by Chris Wilmer'
_symmetry_space_group_name_H-M	'P1'
_symmetry_Int_Tables_number	1
_symmetry_cell_setting	triclinic
loop_
_symmetry_equiv_pos_as_xyz
  x,y,z
_cell_length_a	21.395362
_cell_length_b	21.295417
_cell_length_c	21.295412
_cell_angle_alpha	89.969860
_cell_angle_beta	89.964183
_cell_angle_gamma	90.045579
loop_
_atom_site_label
_atom_site_type_symbol
_atom_site_fract_x
_atom_site_fract_y
_atom_site_fract_z
Zn1	Zn	0.957814	-0.250355	-0.356241
Zn2	Zn	0.957733	-0.355624	-0.250969
Zn3	Zn	0.853043	-0.250402	-0.250951
Zn4	Zn	0.853000	-0.355619	-0.356165
O5	O	0.905397	-0.303000	-0.303582
O6	O	1.045481	-0.264301	-0.342316
O7	O	0.943830	-0.341688	-0.162877
O8	O	0.866994	-0.162306	-0.264943
O9	O	1.045421	-0.341642	-0.264973
O10	O	0.943968	-0.162272	-0.342299
O11	O	0.866915	-0.264382	-0.162864
O12	O	0.765360	-0.264377	-0.264868
O13	O	0.866919	-0.341634	-0.444264
O14	O	0.765328	-0.341680	-0.342169
O15	O	0.943925	-0.264297	-0.444321
O16	O	0.943788	-0.443713	-0.264899
O17	O	0.866841	-0.443709	-0.342186
C18	C	0.742610	-0.303033	-0.303508
C19	C	0.672968	-0.303063	-0.303492
C20	C	0.640255	-0.343368	-0.343682
C21	C	0.574820	-0.343352	-0.343710
C22	C	0.542100	-0.303039	-0.303537
C23	C	0.574822	-0.262726	-0.263344
C24	C	0.640256	-0.262738	-0.263322
C25	C	0.438383	-0.297977	-0.246867
C26	C	0.372950	-0.297969	-0.246889
C27	C	0.340279	-0.302997	-0.303607
C28	C	0.373050	-0.308047	-0.360305
C29	C	0.438484	-0.308059	-0.360282
C30	C	0.471148	-0.303021	-0.303557
C31	C	0.236613	-0.343288	-0.343830
C32	C	0.171177	-0.343268	-0.343859
C33	C	0.171180	-0.262645	-0.263488
C34	C	0.236615	-0.262661	-0.263464
C35	C	0.269328	-0.302986	-0.303635
C36	C	0.905318	-0.466552	-0.303550
C37	C	0.905341	-0.536520	-0.303557
C38	C	0.945398	-0.569311	-0.343865
C39	C	0.945420	-0.635054	-0.343881
C40	C	0.905391	-0.668002	-0.303577
C41	C	0.865326	-0.635203	-0.263266
C42	C	0.865301	-0.569462	-0.263256
N43	N	0.900662	-0.771265	-0.248484
N44	N	0.900690	-0.833717	-0.248495
C45	C	0.905465	-0.866077	-0.303605
N46	N	0.910223	-0.833627	-0.358705
N47	N	0.910198	-0.771170	-0.358693
C48	C	0.905414	-0.739288	-0.303583
C49	C	0.945548	-0.970154	-0.343934
C50	C	0.945566	-1.035898	-0.343950
C51	C	0.865475	-1.036046	-0.263330
C52	C	0.865454	-0.970303	-0.263319
C53	C	0.905494	-0.937361	-0.303620
C54	C	1.068821	-0.302967	-0.303655
C55	C	1.138462	-0.302953	-0.303687
C56	C	0.905426	-0.302959	-0.467772
C57	C	0.905439	-0.302942	-0.537740
C58	C	0.905495	-0.138810	-0.303627
C59	C	0.905536	-0.068842	-0.303647
C60	C	0.945595	-0.262573	-1.037229
C61	C	0.945590	-0.262588	-0.971486
C62	C	0.905493	-0.302859	-0.938580
C63	C	0.865409	-0.343129	-0.971421
C64	C	0.865419	-0.343117	-1.037163
N65	N	0.850629	-0.307718	-0.835332
N66	N	0.850621	-0.307726	-0.772881
C67	C	0.905460	-0.302898	-0.740505
N68	N	0.960309	-0.298051	-0.772939
N69	N	0.960316	-0.298040	-0.835397
C70	C	0.905477	-0.302877	-0.867294
C71	C	0.945539	-0.262650	-0.636386
C72	C	0.945536	-0.262670	-0.570642
C73	C	0.865348	-0.343208	-0.570578
C74	C	0.865358	-0.343191	-0.636321
C75	C	0.905452	-0.302909	-0.669221
C76	C	0.905405	-0.302995	-0.140030
C77	C	0.905514	-0.302835	-0.070062
H78	H	0.144543	-0.376088	-0.376591
H79	H	0.978187	-0.229850	-0.663174
H80	H	0.832733	-0.662034	-0.230451
H81	H	0.978035	-0.661758	-0.376712
H82	H	0.465162	-0.312168	-0.406448
H83	H	0.263250	-0.376119	-0.376543
H84	H	0.978179	-0.229885	-0.543910
H85	H	0.548177	-0.229901	-0.230636
H86	H	0.832716	-0.375975	-0.663054
H87	H	0.977999	-0.542492	-0.376682
H88	H	0.832879	-1.062872	-0.230517
H89	H	0.832779	-0.375905	-1.063896
H90	H	0.978186	-1.062595	-0.376777
H91	H	0.978229	-0.229799	-0.944748
H92	H	0.832680	-0.542762	-0.230431
H93	H	0.832703	-0.375999	-0.543787
H94	H	0.978149	-0.943332	-0.376752
H95	H	0.666886	-0.376202	-0.376393
H96	H	0.832838	-0.943603	-0.230493
H97	H	0.144541	-0.229818	-0.230781
H98	H	0.978246	-0.229775	-1.064011
H99	H	0.548179	-0.376173	-0.376440
H100	H	0.346450	-0.312140	-0.406490
H101	H	0.832762	-0.375919	-0.944625
H102	H	0.666891	-0.229915	-0.230594
H103	H	0.346274	-0.293862	-0.200721
H104	H	0.263251	-0.229844	-0.230734
H105	H	0.464979	-0.293880	-0.200678
