data_functionalizedCrystal
_audit_creation_method	'MofGen! by Chris Wilmer'
_symmetry_space_group_name_H-M	'P1'
_symmetry_Int_Tables_number	1
_symmetry_cell_setting	triclinic
loop_
_symmetry_equiv_pos_as_xyz
  x,y,z
_cell_length_a	23.532407
_cell_length_b	23.532407
_cell_length_c	22.010155
_cell_angle_alpha	90.003069
_cell_angle_beta	89.999577
_cell_angle_gamma	97.151322
loop_
_atom_site_label
_atom_site_type_symbol
_atom_site_fract_x
_atom_site_fract_y
_atom_site_fract_z
O1	O	0.069127	-0.755264	-0.050455
O2	O	0.569127	-0.255264	0.449545
O3	O	0.079130	-0.589400	-0.050474
O4	O	0.579130	-0.089400	0.449526
O5	O	-0.008803	-0.677334	-0.050453
O6	O	0.491197	-0.177334	0.449547
O7	O	0.157060	-0.667330	-0.050476
O8	O	0.657060	-0.167330	0.449524
O9	O	-0.008790	-0.677318	0.050597
O10	O	0.491210	-0.177318	0.550597
O11	O	0.079143	-0.589384	0.050576
O12	O	0.579143	-0.089384	0.550576
O13	O	0.069140	-0.755248	0.050595
O14	O	0.569140	-0.255248	0.550595
Cu15	Cu	0.074143	-0.672315	0.059812
Cu16	Cu	0.574143	-0.172315	0.559812
Cu17	Cu	0.074127	-0.672333	-0.059691
Cu18	Cu	0.574127	-0.172333	0.440309
O19	O	0.157073	-0.667314	0.050574
O20	O	0.657073	-0.167314	0.550574
C21	C	0.078882	-0.568176	0.000049
C22	C	0.578882	-0.068176	0.500049
C23	C	0.078116	-0.504959	0.000042
C24	C	0.578116	-0.004959	0.500042
N25	N	0.074153	-0.672305	0.143865
N26	N	0.574153	-0.172305	0.643865
C27	C	-0.030013	-0.677071	0.000074
C28	C	0.469987	-0.177071	0.500074
C29	C	-0.093230	-0.676305	0.000078
C30	C	0.406770	-0.176305	0.500078
C31	C	-0.492333	-0.723539	0.000050
C32	C	0.007667	-0.223539	0.500050
C33	C	-0.551733	-0.722827	0.000046
C34	C	-0.051733	-0.222827	0.500046
O35	O	-0.588478	-0.766613	0.000028
O36	O	-0.088478	-0.266613	0.500028
N37	N	-0.574359	-0.670551	0.000040
N38	N	-0.074359	-0.170551	0.500040
C39	C	-0.537582	-0.618983	0.000033
C40	C	-0.037582	-0.118983	0.500033
O41	O	-0.562281	-0.574452	0.000027
O42	O	-0.062281	-0.074452	0.500027
C43	C	-0.478182	-0.619695	0.000033
C44	C	0.021818	-0.119695	0.500033
C45	C	-0.455560	-0.671974	0.000045
C46	C	0.044440	-0.171974	0.500045
C47	C	-0.469710	-0.775814	0.000061
C48	C	0.030290	-0.275814	0.500061
C49	C	-0.410313	-0.776525	0.000067
C50	C	0.089687	-0.276525	0.500067
C51	C	-0.373540	-0.724961	0.000062
C52	C	0.126460	-0.224961	0.500062
C53	C	-0.396164	-0.672685	0.000051
C54	C	0.103836	-0.172685	0.500051
C55	C	-0.441406	-0.568127	0.000022
C56	C	0.058594	-0.068127	0.500022
C57	C	-0.382004	-0.568844	0.000022
C58	C	0.117996	-0.068844	0.500022
C59	C	-0.359381	-0.621123	0.000034
C60	C	0.140619	-0.121123	0.500034
C61	C	-0.299995	-0.621832	0.000052
C62	C	0.200005	-0.121832	0.500052
N63	N	-0.277368	-0.674109	0.000057
N64	N	0.222632	-0.174109	0.500057
C65	C	-0.314141	-0.725673	0.000062
C66	C	0.185859	-0.225673	0.500062
C67	C	-0.662324	-0.617491	0.000031
C68	C	-0.162324	-0.117491	0.500031
C69	C	-0.721722	-0.616778	0.000035
C70	C	-0.221722	-0.116778	0.500035
C71	C	-0.735869	-0.720623	0.000047
C72	C	-0.235869	-0.220623	0.500047
C73	C	-0.676470	-0.721335	0.000047
C74	C	-0.176470	-0.221335	0.500047
C75	C	-0.639698	-0.669767	0.000037
C76	C	-0.139698	-0.169767	0.500037
C77	C	-0.189405	-0.727163	0.000075
C78	C	0.310595	-0.227163	0.500075
C79	C	-0.130003	-0.727869	0.000083
C80	C	0.369997	-0.227869	0.500083
C81	C	-0.115860	-0.624025	0.000069
C82	C	0.384140	-0.124025	0.500069
C83	C	-0.175257	-0.623318	0.000064
C84	C	0.324743	-0.123318	0.500064
C85	C	-0.212029	-0.674891	0.000065
C86	C	0.287971	-0.174891	0.500065
O87	O	-0.263215	-0.578070	0.000067
O88	O	0.236785	-0.078070	0.500067
O89	O	-0.289433	-0.770196	0.000060
O90	O	0.210567	-0.270196	0.500060
C91	C	0.178283	-0.667577	0.000046
C92	C	0.678283	-0.167577	0.500046
C93	C	0.241500	-0.668343	0.000037
C94	C	0.741500	-0.168343	0.500037
C95	C	0.069388	-0.776472	0.000071
C96	C	0.569388	-0.276472	0.500071
C97	C	0.070154	-0.839689	0.000073
C98	C	0.570154	-0.339689	0.500073
C99	C	0.125350	-0.105856	0.000063
C100	C	0.625350	0.394144	0.500063
C101	C	0.124638	-0.046456	0.000067
C102	C	0.624638	0.453544	0.500067
O103	O	0.168424	-0.009711	0.000083
O104	O	0.668424	0.490289	0.500083
N105	N	0.072362	-0.023830	0.000073
N106	N	0.572362	0.476170	0.500073
C107	C	0.020794	-0.060607	0.000082
C108	C	0.520794	0.439393	0.500082
O109	O	-0.023737	-0.035908	0.000088
O110	O	0.476263	0.464092	0.500088
C111	C	0.021506	-0.120006	0.000082
C112	C	0.521506	0.379994	0.500082
C113	C	0.073785	-0.142629	0.000070
C114	C	0.573785	0.357371	0.500070
C115	C	0.177625	-0.128479	0.000051
C116	C	0.677625	0.371521	0.500051
C117	C	0.178336	-0.187876	0.000046
C118	C	0.678336	0.312124	0.500046
C119	C	0.126772	-0.224649	0.000053
C120	C	0.626772	0.275351	0.500053
C121	C	0.074497	-0.202025	0.000065
C122	C	0.574497	0.297975	0.500065
C123	C	-0.030062	-0.156783	0.000096
C124	C	0.469938	0.343217	0.500096
C125	C	-0.029345	-0.216185	0.000097
C126	C	0.470655	0.283815	0.500097
C127	C	0.022934	-0.238808	0.000084
C128	C	0.522934	0.261192	0.500084
C129	C	0.023643	-0.298194	0.000067
C130	C	0.523643	0.201806	0.500067
N131	N	0.075920	-0.320820	0.000061
N132	N	0.575920	0.179180	0.500061
C133	C	0.127484	-0.284048	0.000054
C134	C	0.627484	0.215952	0.500054
C135	C	0.019302	0.064135	0.000082
C136	C	0.519302	0.564135	0.500082
C137	C	0.018589	0.123533	0.000077
C138	C	0.518589	0.623533	0.500077
C139	C	0.122434	0.137680	0.000063
C140	C	0.622434	0.637680	0.500063
C141	C	0.123146	0.078281	0.000064
C142	C	0.623146	0.578281	0.500064
C143	C	0.071578	0.041509	0.000076
C144	C	0.571578	0.541509	0.500076
C145	C	0.128974	-0.408784	0.000043
C146	C	0.628974	0.091216	0.500043
C147	C	0.129680	-0.468186	0.000035
C148	C	0.629680	0.031814	0.500035
C149	C	0.025836	-0.482329	0.000052
C150	C	0.525836	0.017671	0.500052
C151	C	0.025129	-0.422932	0.000057
C152	C	0.525129	0.077068	0.500057
C153	C	0.076702	-0.386160	0.000054
C154	C	0.576702	0.113840	0.500054
O155	O	-0.020119	-0.334974	0.000054
O156	O	0.479881	0.165026	0.500054
O157	O	0.172007	-0.308755	0.000055
O158	O	0.672007	0.191245	0.500055
N159	N	0.074112	-0.672347	-0.143744
N160	N	0.574112	-0.172347	0.356256
C161	C	0.035196	-0.711273	0.563653
C162	C	0.535196	-0.211273	1.063653
C163	C	0.035192	-0.711275	0.627261
C164	C	0.535192	-0.211275	1.127261
O165	O	0.002076	-0.744384	0.660160
O166	O	0.502076	-0.244384	1.160160
N167	N	0.074115	-0.672333	0.659072
N168	N	0.574115	-0.172333	1.159072
C169	C	0.113041	-0.633382	0.627272
C170	C	0.613041	-0.133382	1.127272
O171	O	0.146148	-0.600259	0.660170
O172	O	0.646148	-0.100259	1.160170
C173	C	0.113042	-0.633377	0.563665
C174	C	0.613042	-0.133377	1.063665
C175	C	0.074120	-0.672326	0.531858
C176	C	0.574120	-0.172326	1.031858
C177	C	-0.003723	-0.750217	0.531846
C178	C	0.496277	-0.250217	1.031846
C179	C	-0.003719	-0.750215	0.468243
C180	C	0.496281	-0.250215	0.968243
C181	C	0.035205	-0.711268	0.436447
C182	C	0.535205	-0.211268	0.936447
C183	C	0.074125	-0.672324	0.468255
C184	C	0.574125	-0.172324	0.968255
C185	C	0.151965	-0.594424	0.531866
C186	C	0.651965	-0.094424	1.031866
C187	C	0.151962	-0.594422	0.468256
C188	C	0.651962	-0.094422	0.968256
C189	C	0.113040	-0.633370	0.436448
C190	C	0.613040	-0.133370	0.936448
C191	C	0.113054	-0.633374	0.372856
C192	C	0.613054	-0.133374	0.872856
N193	N	0.074130	-0.672317	0.341045
N194	N	0.574130	-0.172317	0.841045
C195	C	0.035206	-0.711263	0.372841
C196	C	0.535206	-0.211263	0.872841
C197	C	0.113036	-0.633395	0.760850
C198	C	0.613036	-0.133395	1.260850
C199	C	0.113039	-0.633402	0.824455
C200	C	0.613039	-0.133402	1.324455
C201	C	0.035188	-0.711294	0.824440
C202	C	0.535188	-0.211294	1.324440
C203	C	0.035189	-0.711290	0.760833
C204	C	0.535189	-0.211290	1.260833
C205	C	0.074113	-0.672337	0.729039
C206	C	0.574113	-0.172337	1.229039
C207	C	0.035220	-0.711256	0.239269
C208	C	0.535220	-0.211256	0.739269
C209	C	0.035229	-0.711252	0.175660
C210	C	0.535229	-0.211252	0.675660
C211	C	0.113077	-0.633358	0.175681
C212	C	0.613077	-0.133358	0.675681
C213	C	0.113070	-0.633364	0.239284
C214	C	0.613070	-0.133364	0.739284
C215	C	0.074136	-0.672315	0.271077
C216	C	0.574136	-0.172315	0.771077
O217	O	0.146151	-0.600282	0.339916
O218	O	0.646151	-0.100282	0.839916
O219	O	0.002100	-0.744376	0.339935
O220	O	0.502100	-0.244376	0.839935
H221	H	-0.111587	-0.770443	0.000094
H222	H	0.388413	-0.270443	0.500094
H223	H	0.003534	-0.742971	0.149765
H224	H	0.503534	-0.242971	0.649765
H225	H	-0.219337	-0.769159	0.000073
H226	H	0.280663	-0.269159	0.500073
C227	C	0.155889	-0.590522	0.274274
C228	C	0.655889	-0.090522	0.774274
N229	N	0.188138	-0.558249	0.300623
N230	N	0.688138	-0.058249	0.800623
H231	H	-0.391900	-0.819097	0.000074
H232	H	0.108100	-0.319097	0.500074
H233	H	-0.016146	-0.512280	0.000056
H234	H	0.483854	-0.012280	0.500056
C235	C	-0.087575	-0.131912	0.000121
C236	C	0.412425	0.368088	0.500121
N237	N	-0.130897	-0.113181	0.000146
N238	N	0.369103	0.386819	0.500146
H239	H	-0.765821	-0.762610	0.000048
H240	H	-0.265821	-0.262610	0.500048
H241	H	-0.740136	-0.574207	0.000036
H242	H	-0.240136	-0.074207	0.500036
H243	H	0.144771	-0.601650	0.149783
H244	H	0.644771	-0.101650	0.649783
C245	C	0.185707	-0.368344	0.000036
C246	C	0.685707	0.131656	0.500036
N247	N	0.228439	-0.337885	0.000027
N248	N	0.728439	0.162115	0.500027
H249	H	0.183658	-0.562708	0.557755
H250	H	0.683658	-0.062708	1.057755
H251	H	-0.085909	-0.582043	0.000067
H252	H	0.414091	-0.082043	0.500067
C253	C	-0.086076	-0.256632	0.000107
C254	C	0.413924	0.243368	0.500107
N255	N	-0.128805	-0.287095	0.000113
N256	N	0.371195	0.212905	0.500113
H257	H	-0.017441	-0.404512	0.000058
H258	H	0.482559	0.095488	0.500058
H259	H	-0.632386	-0.575496	0.000028
H260	H	-0.132386	-0.075496	0.500028
H261	H	0.220908	-0.206289	0.000036
H262	H	0.720908	0.293711	0.500036
C263	C	0.194788	-0.551576	0.433286
C264	C	0.694788	-0.051576	0.933286
N265	N	0.227048	-0.519307	0.406947
N266	N	0.727048	-0.019307	0.906947
H267	H	-0.023982	0.141947	0.000078
H268	H	0.476018	0.641947	0.500078
H269	H	-0.193677	-0.580748	0.000071
H270	H	0.306323	-0.080748	0.500071
C271	C	0.155860	-0.590560	0.859436
C272	C	0.655860	-0.090560	1.359436
N273	N	0.188112	-0.558286	0.885782
N274	N	0.688112	-0.058286	1.385782
C275	C	-0.007608	-0.754106	0.274232
C276	C	0.492392	-0.254106	0.774232
N277	N	-0.039863	-0.786383	0.300565
N278	N	0.460137	-0.286383	0.800565
C279	C	-0.046543	-0.793056	0.433263
C280	C	0.453457	-0.293056	0.933263
N281	N	-0.078802	-0.825324	0.406920
N282	N	0.421198	-0.325324	0.906920
H283	H	0.172255	-0.486602	0.000025
H284	H	0.672255	0.013398	0.500025
H285	H	-0.459814	-0.525555	0.000009
H286	H	0.040186	-0.025555	0.500009
C287	C	-0.510152	-0.832544	0.000073
C288	C	-0.010152	-0.332544	0.500073
N289	N	-0.540609	-0.875277	0.000089
N290	N	-0.040609	-0.375277	0.500089
H291	H	0.144737	-0.601676	0.734966
H292	H	0.644737	-0.101676	1.234966
C293	C	0.234355	-0.088037	0.000046
C294	C	0.734355	0.411963	0.500046
N295	N	0.277088	-0.057580	0.000038
N296	N	0.777088	0.442420	0.500038
C297	C	-0.046551	-0.793062	0.566811
C298	C	0.453449	-0.293062	1.066811
N299	N	-0.078811	-0.825336	0.593143
N300	N	0.421189	-0.325336	1.093143
C301	C	-0.007633	-0.754133	0.859427
C302	C	0.492367	-0.254133	1.359427
N303	N	-0.039885	-0.786397	0.885782
N304	N	0.460115	-0.286397	1.385782
C305	C	-0.651592	-0.778846	0.000054
C306	C	-0.151592	-0.278846	0.500054
N307	N	-0.632856	-0.822166	0.000058
N308	N	-0.132856	-0.322166	0.500058
C309	C	-0.341557	-0.512113	0.000013
C310	C	0.158443	-0.012113	0.500013
N311	N	-0.311094	-0.469384	0.000009
N312	N	0.188906	0.030616	0.500009
C313	C	0.180657	0.053403	0.000056
C314	C	0.680657	0.553403	0.500056
N315	N	0.223977	0.034667	0.000054
N316	N	0.723977	0.534667	0.500054
C317	C	-0.037431	0.023690	0.000085
C318	C	0.462569	0.523690	0.500085
N319	N	-0.080162	-0.006771	0.000087
N320	N	0.419838	0.493229	0.500087
H321	H	0.164421	0.167632	0.000060
H322	H	0.664421	0.667632	0.500060
H323	H	0.003495	-0.743004	0.734939
H324	H	0.503495	-0.243004	1.234939
