data_functionalizedCrystal
_audit_creation_method	'MofGen! by Chris Wilmer'
_symmetry_space_group_name_H-M	'P1'
_symmetry_Int_Tables_number	1
_symmetry_cell_setting	triclinic
loop_
_symmetry_equiv_pos_as_xyz
  x,y,z
_cell_length_a	18.050591
_cell_length_b	18.215405
_cell_length_c	18.215399
_cell_angle_alpha	89.969449
_cell_angle_beta	89.974300
_cell_angle_gamma	90.020891
loop_
_atom_site_label
_atom_site_type_symbol
_atom_site_fract_x
_atom_site_fract_y
_atom_site_fract_z
Zn1	Zn	1.135345	-0.293070	-0.416218
Zn2	Zn	1.468678	0.040263	-0.082884
Zn3	Zn	1.802011	0.373596	0.250449
Zn4	Zn	1.135252	-0.416141	-0.293146
Zn5	Zn	1.468586	-0.082808	0.040188
Zn6	Zn	1.801919	0.250525	0.373521
Zn7	Zn	1.011154	-0.293085	-0.293152
Zn8	Zn	1.344487	0.040249	0.040181
Zn9	Zn	1.677820	0.373582	0.373514
Zn10	Zn	1.011119	-0.416091	-0.416158
Zn11	Zn	1.344453	-0.082758	-0.082825
Zn12	Zn	1.677786	0.250576	0.250509
O13	O	1.073217	-0.354597	-0.354669
O14	O	1.406551	-0.021264	-0.021335
O15	O	1.739884	0.312070	0.311998
O16	O	1.239257	-0.309411	-0.399914
O17	O	1.572590	0.023922	-0.066581
O18	O	1.905924	0.357256	0.266753
O19	O	1.118766	-0.399845	-0.190162
O20	O	1.452099	-0.066512	0.143171
O21	O	1.785433	0.266822	0.476504
O22	O	1.027681	-0.190099	-0.309505
O23	O	1.361014	0.143235	0.023828
O24	O	1.694348	0.476568	0.357162
O25	O	1.239189	-0.399831	-0.309494
O26	O	1.572523	-0.066498	0.023840
O27	O	1.905856	0.266836	0.357173
O28	O	1.118924	-0.190088	-0.399921
O29	O	1.452257	0.143245	-0.066587
O30	O	1.785590	0.476579	0.266746
O31	O	1.027591	-0.309436	-0.190167
O32	O	1.360925	0.023898	0.143166
O33	O	1.694258	0.357231	0.476499
O34	O	0.907224	-0.309387	-0.309447
O35	O	1.240558	0.023947	0.023886
O36	O	1.573891	0.357280	0.357219
O37	O	1.027622	-0.399745	-0.519150
O38	O	1.360956	-0.066411	-0.185817
O39	O	1.694289	0.266922	0.147516
O40	O	0.907199	-0.399759	-0.399819
O41	O	1.240533	-0.066426	-0.066486
O42	O	1.573866	0.266908	0.266848
O43	O	1.118890	-0.309362	-0.519194
O44	O	1.452224	0.023971	-0.185861
O45	O	1.785557	0.357305	0.147473
O46	O	1.118733	-0.519119	-0.309436
O47	O	1.452066	-0.185786	0.023897
O48	O	1.785399	0.147548	0.357231
O49	O	1.027533	-0.519082	-0.399813
O50	O	1.360866	-0.185749	-0.066479
O51	O	1.694199	0.147585	0.266854
C52	C	1.073139	-0.545803	-0.354633
C53	C	1.406472	-0.212470	-0.021300
C54	C	1.739806	0.120864	0.312034
C55	C	1.073173	-0.627602	-0.354643
C56	C	1.406507	-0.294269	-0.021309
C57	C	1.739840	0.039065	0.312024
C58	C	0.880265	-0.354569	-0.354628
C59	C	1.213599	-0.021236	-0.021295
C60	C	1.546932	0.312097	0.312039
C61	C	0.797720	-0.354575	-0.354628
C62	C	1.131053	-0.021242	-0.021295
C63	C	1.464386	0.312091	0.312039
C64	C	1.120773	-0.815791	-0.307670
C65	C	1.454106	-0.482457	0.025663
C66	C	1.787439	-0.149124	0.358997
C67	C	1.120806	-0.892650	-0.307688
C68	C	1.454139	-0.559316	0.025645
C69	C	1.787473	-0.225983	0.358979
C70	C	1.025757	-0.892651	-0.401720
C71	C	1.359090	-0.559318	-0.068387
C72	C	1.692424	-0.225984	0.264947
C73	C	1.025728	-0.815794	-0.401705
C74	C	1.359062	-0.482460	-0.068372
C75	C	1.692395	-0.149127	0.264961
C76	C	1.073235	-0.777365	-0.354676
C77	C	1.406568	-0.444032	-0.021343
C78	C	1.739902	-0.110699	0.311990
C79	C	1.073297	-0.931082	-0.354709
C80	C	1.406630	-0.597748	-0.021375
C81	C	1.739964	-0.264415	0.311958
C82	C	1.073333	-1.014415	-0.354728
C83	C	1.406666	-0.681082	-0.021395
C84	C	1.739999	-0.347749	0.311938
C85	C	1.073201	-0.694027	-0.354657
C86	C	1.406534	-0.360693	-0.021324
C87	C	1.739867	-0.027360	0.312009
C88	C	0.598261	-0.305374	-0.305597
C89	C	0.931594	0.027959	0.027736
C90	C	1.264928	0.361293	0.361070
C91	C	0.548844	-0.372499	-0.287483
C92	C	0.882177	-0.039165	0.045850
C93	C	1.215511	0.294168	0.379183
C94	C	0.646589	-0.354598	-0.354661
C95	C	0.979923	-0.021264	-0.021328
C96	C	1.313256	0.312069	0.312006
C97	C	0.548925	-0.287496	-0.372773
C98	C	0.882258	0.045837	-0.039440
C99	C	1.215591	0.379170	0.293894
C100	C	0.500604	-0.354613	-0.354692
C101	C	0.833937	-0.021280	-0.021359
C102	C	1.167271	0.312053	0.311975
C103	C	0.598259	-0.421758	-0.336512
C104	C	0.931592	-0.088424	-0.003179
C105	C	1.264926	0.244909	0.330154
C106	C	0.598344	-0.336710	-0.421833
C107	C	0.931678	-0.003377	-0.088500
C108	C	1.265011	0.329957	0.244833
C109	C	0.548949	-0.403881	-0.403745
C110	C	0.882283	-0.070548	-0.070412
C111	C	1.215616	0.262786	0.262922
C112	C	0.730687	-0.354588	-0.354642
C113	C	1.064021	-0.021254	-0.021308
C114	C	1.397354	0.312079	0.312025
C115	C	0.416508	-0.354631	-0.354712
C116	C	0.749841	-0.021298	-0.021378
C117	C	1.083174	0.312036	0.311955
C118	C	1.266923	-0.354625	-0.354710
C119	C	1.600256	-0.021292	-0.021376
C120	C	1.933590	0.312042	0.311957
C121	C	1.349469	-0.354637	-0.354727
C122	C	1.682802	-0.021304	-0.021394
C123	C	2.016135	0.312030	0.311939
C124	C	1.073263	-0.354546	-0.546622
C125	C	1.406596	-0.021213	-0.213288
C126	C	1.739929	0.312121	0.120045
C127	C	1.073282	-0.354524	-0.628420
C128	C	1.406615	-0.021191	-0.295087
C129	C	1.739949	0.312142	0.038246
C130	C	1.073316	-0.162644	-0.354720
C131	C	1.406650	0.170689	-0.021387
C132	C	1.739983	0.504023	0.311946
C133	C	1.073359	-0.080845	-0.354742
C134	C	1.406692	0.252488	-0.021409
C135	C	1.740025	0.585822	0.311924
C136	C	1.120822	-0.307418	-0.816639
C137	C	1.454156	0.025915	-0.483305
C138	C	1.787489	0.359249	-0.149972
C139	C	1.120831	-0.307397	-0.893497
C140	C	1.454165	0.025937	-0.560164
C141	C	1.787498	0.359270	-0.226831
C142	C	1.025794	-0.401517	-0.893440
C143	C	1.359128	-0.068184	-0.560107
C144	C	1.692461	0.265150	-0.226774
C145	C	1.025782	-0.401534	-0.816583
C146	C	1.359115	-0.068201	-0.483250
C147	C	1.692449	0.265132	-0.149916
C148	C	1.073300	-0.354486	-0.778184
C149	C	1.406634	-0.021153	-0.444851
C150	C	1.739967	0.312181	-0.111517
C151	C	1.073321	-0.354447	-0.931900
C152	C	1.406655	-0.021114	-0.598567
C153	C	1.739988	0.312219	-0.265234
C154	C	1.073331	-0.354424	-1.015234
C155	C	1.406664	-0.021091	-0.681901
C156	C	1.739997	0.312242	-0.348567
C157	C	1.073290	-0.354508	-0.694845
C158	C	1.406624	-0.021174	-0.361512
C159	C	1.739957	0.312159	-0.028178
C160	C	1.073215	-0.354594	-0.163462
C161	C	1.406548	-0.021261	0.169871
C162	C	1.739882	0.312072	0.503204
C163	C	1.073340	-0.354409	-0.081664
C164	C	1.406673	-0.021075	0.251669
C165	C	1.740006	0.312258	0.585003
H166	H	1.159457	-0.784504	-0.269377
H167	H	1.492790	-0.451171	0.063956
H168	H	1.826123	-0.117838	0.397289
F169	F	0.975133	-0.774896	-0.451742
F170	F	1.308466	-0.441563	-0.118408
F171	F	1.641799	-0.108229	0.214925
H172	H	0.987108	-0.439824	-0.924714
H173	H	1.320441	-0.106490	-0.591381
H174	H	1.653775	0.226843	-0.258048
F175	F	1.171404	-0.933541	-0.257659
F176	F	1.504738	-0.600208	0.075674
F177	F	1.838071	-0.266875	0.409007
F178	F	0.975199	-0.933555	-0.451767
F179	F	1.308532	-0.600222	-0.118434
F180	F	1.641865	-0.266888	0.214899
F181	F	0.626784	-0.316895	-0.496046
F182	F	0.960118	0.016439	-0.162713
F183	F	1.293451	0.349772	0.170621
F184	F	0.975197	-0.451629	-0.775655
F185	F	1.308530	-0.118296	-0.442321
F186	F	1.641863	0.215037	-0.108988
F187	F	0.520594	-0.213317	-0.392778
F188	F	0.853928	0.120016	-0.059445
F189	F	1.187261	0.453349	0.273888
F190	F	0.626564	-0.251023	-0.251308
F191	F	0.959897	0.082311	0.082026
F192	F	1.293230	0.415644	0.415359
F193	F	0.520424	-0.392290	-0.213252
F194	F	0.853758	-0.058957	0.120082
F195	F	1.187091	0.274376	0.453415
F196	F	1.171415	-0.257306	-0.934420
F197	F	1.504749	0.076028	-0.601087
F198	F	1.838082	0.409361	-0.267753
H199	H	0.527434	-0.445563	-0.445250
H200	H	0.860767	-0.112229	-0.111917
H201	H	1.194101	0.221104	0.221416
F202	F	0.626463	-0.495960	-0.316420
F203	F	0.959797	-0.162627	0.016913
F204	F	1.293130	0.170706	0.350247
H205	H	1.159513	-0.269106	-0.785376
H206	H	1.492846	0.064227	-0.452043
H207	H	1.826179	0.397560	-0.118710
