data_functionalizedCrystal
_audit_creation_method	'MofGen! by Chris Wilmer'
_symmetry_space_group_name_H-M	'P1'
_symmetry_Int_Tables_number	1
_symmetry_cell_setting	triclinic
loop_
_symmetry_equiv_pos_as_xyz
  x,y,z
_cell_length_a	16.793024
_cell_length_b	16.793047
_cell_length_c	33.586455
_cell_angle_alpha	113.253857
_cell_angle_beta	66.219990
_cell_angle_gamma	112.758327
loop_
_atom_site_label
_atom_site_type_symbol
_atom_site_fract_x
_atom_site_fract_y
_atom_site_fract_z
O1	O	0.005016	-0.570216	-0.583573
O2	O	-0.034529	-0.474528	-0.453458
O3	O	0.114723	-0.474535	-0.528082
O4	O	-0.144235	-0.570209	-0.508949
O5	O	0.108729	-0.346329	-0.530229
O6	O	-0.040523	-0.346322	-0.455605
O7	O	-0.000977	-0.442010	-0.585721
Cu8	Cu	-0.021297	-0.382459	-0.520859
Cu9	Cu	-0.014209	-0.534079	-0.518320
O10	O	-0.150229	-0.442003	-0.511097
C11	C	0.005100	-0.790970	-0.238461
C12	C	0.009223	-0.693065	-0.217557
C13	C	0.003804	-0.645758	-0.241627
C14	C	-0.075059	-0.538459	-0.266316
C15	C	0.049838	-0.422849	-0.250165
C16	C	-0.040584	-0.395375	-0.435637
C17	C	-0.044693	-0.353446	-0.386631
C18	C	-0.039275	-0.401741	-0.363054
C19	C	-0.040566	-0.125547	-0.300731
C20	C	-0.044689	-0.223451	-0.321635
C21	C	-0.039266	-0.270752	-0.297563
C22	C	0.039597	-0.378051	-0.272874
C23	C	-0.085304	-0.493667	-0.289026
C24	C	0.005118	-0.521142	-0.103554
C25	C	0.009231	-0.563064	-0.152559
C26	C	0.003809	-0.514775	-0.176138
C27	C	0.010758	-0.652581	-0.172822
C28	C	0.001010	-0.556371	-0.220792
C29	C	-0.008251	-0.506059	-0.245823
C30	C	-0.046224	-0.263935	-0.366370
C31	C	-0.036476	-0.360146	-0.318399
C32	C	-0.027211	-0.410451	-0.293367
C33	C	0.815184	-0.521162	-0.508596
C34	C	0.415541	-0.125553	-0.528781
C35	C	0.375032	-0.223457	-0.531493
C36	C	0.423813	-0.270761	-0.529101
C37	C	0.149318	-0.395376	-0.530584
C38	C	0.246774	-0.353455	-0.532364
C39	C	0.294574	-0.401748	-0.529976
C40	C	0.548961	-0.790984	-0.510398
C41	C	0.286104	-0.263940	-0.532530
C42	C	0.383336	-0.360149	-0.528302
C43	C	0.432207	-0.407971	-0.525810
C44	C	0.392316	-0.497392	-0.524993
C45	C	0.303554	-0.538991	-0.526667
C46	C	0.254683	-0.491169	-0.529159
C47	C	0.263666	-0.628421	-0.525851
C48	C	0.312537	-0.676243	-0.523359
C49	C	0.401299	-0.634644	-0.521685
C50	C	0.441190	-0.545223	-0.522502
C51	C	0.529952	-0.503624	-0.520828
C52	C	0.578823	-0.551446	-0.518336
C53	C	0.538939	-0.640864	-0.517520
C54	C	0.450177	-0.682463	-0.519194
C55	C	0.587810	-0.688687	-0.515028
C56	C	0.676572	-0.647088	-0.513354
C57	C	0.716463	-0.557666	-0.514172
C58	C	0.667586	-0.509847	-0.516662
C59	C	0.569840	-0.414195	-0.521644
C60	C	0.658602	-0.372596	-0.519970
C61	C	0.707476	-0.420426	-0.517480
C62	C	0.698493	-0.283174	-0.520788
C63	C	0.649622	-0.235352	-0.523280
C64	C	0.560860	-0.276951	-0.524954
C65	C	0.520969	-0.366372	-0.524136
C66	C	0.511989	-0.229129	-0.527446
C67	C	-0.040530	-0.395407	-0.935652
C68	C	0.005063	-0.791004	-0.738448
C69	C	0.009186	-0.693099	-0.717543
C70	C	0.003779	-0.645796	-0.741620
C71	C	0.005077	-0.521171	-0.603544
C72	C	0.009198	-0.563096	-0.652550
C73	C	0.003786	-0.514804	-0.676131
C74	C	-0.040516	-0.125574	-0.800747
C75	C	0.010719	-0.652613	-0.672809
C76	C	0.000994	-0.556406	-0.720789
C77	C	-0.004621	-0.508585	-0.744908
C78	C	-0.007444	-0.419162	-0.724369
C79	C	-0.004651	-0.377560	-0.679711
C80	C	0.000964	-0.425381	-0.655592
C81	C	-0.007471	-0.288129	-0.659174
C82	C	-0.013086	-0.240308	-0.683293
C83	C	-0.015878	-0.281910	-0.727951
C84	C	-0.013056	-0.371333	-0.748490
C85	C	-0.015848	-0.412935	-0.793148
C86	C	-0.021463	-0.365114	-0.817267
C87	C	-0.024282	-0.275694	-0.796731
C88	C	-0.021490	-0.234092	-0.752073
C89	C	-0.029897	-0.227873	-0.820850
C90	C	-0.032690	-0.269476	-0.865508
C91	C	-0.029867	-0.358899	-0.886047
C92	C	-0.024255	-0.406717	-0.861925
C93	C	-0.013028	-0.502367	-0.813685
C94	C	-0.015821	-0.543969	-0.858343
C95	C	-0.021433	-0.496140	-0.882464
C96	C	-0.012998	-0.633392	-0.878882
C97	C	-0.007383	-0.681213	-0.854763
C98	C	-0.004591	-0.639611	-0.810105
C99	C	-0.007414	-0.550188	-0.789566
C100	C	0.001024	-0.687432	-0.785986
O101	O	-0.000965	0.173549	-0.277957
O102	O	-0.040516	-0.085616	-0.325254
O103	O	0.108737	0.059592	-0.327284
O104	O	-0.150219	0.028341	-0.275927
O105	O	0.114753	0.055151	-0.263265
O106	O	-0.034500	-0.090057	-0.261234
O107	O	0.005051	0.169108	-0.213937
Cu108	Cu	-0.014175	0.039120	-0.231740
Cu109	Cu	-0.021290	0.044372	-0.307451
O110	O	-0.144202	0.023900	-0.211907
O111	O	-0.034458	-0.474571	0.046517
O112	O	0.005076	-0.570190	-0.083599
O113	O	-0.144170	-0.570237	-0.008972
O114	O	0.114787	-0.474523	-0.028110
O115	O	-0.150200	-0.442024	-0.011093
O116	O	-0.000954	-0.441976	-0.085720
O117	O	-0.040488	-0.346357	0.044396
Cu118	Cu	-0.021272	-0.382460	-0.020856
Cu119	Cu	-0.014141	-0.534087	-0.018347
O120	O	0.108757	-0.346309	-0.030231
C121	C	-0.850734	0.086244	-0.289716
C122	C	-0.753280	0.087165	-0.312001
C123	C	-0.705462	0.081107	-0.288506
C124	C	-0.599592	0.000085	-0.264184
C125	C	-0.481080	0.121287	-0.283645
C126	C	-0.450996	0.035117	-0.097351
C127	C	-0.410501	0.028587	-0.146852
C128	C	-0.459292	0.034683	-0.169840
C129	C	-0.184802	0.024283	-0.235878
C130	C	-0.282257	0.023363	-0.213592
C131	C	-0.330068	0.029423	-0.237088
C132	C	-0.435938	0.110445	-0.261411
C133	C	-0.554456	-0.010759	-0.241948
C134	C	-0.584541	0.075410	-0.428242
C135	C	-0.625029	0.081943	-0.378743
C136	C	-0.576244	0.075844	-0.355753
C137	C	-0.713963	0.086424	-0.357292
C138	C	-0.616708	0.075351	-0.310510
C139	C	-0.565963	0.065400	-0.286043
C140	C	-0.321573	0.024104	-0.168302
C141	C	-0.418828	0.035176	-0.215083
C142	C	-0.469568	0.045131	-0.239552
O143	O	0.585213	0.169090	-0.504004
O144	O	0.494056	-0.090076	-0.525516
O145	O	0.488081	0.055124	-0.449918
O146	O	0.591189	0.023889	-0.579602
O147	O	0.359978	0.059584	-0.452885
O148	O	0.365953	-0.085616	-0.528483
O149	O	0.457110	0.173550	-0.506971
Cu150	Cu	0.399835	0.044374	-0.517998
Cu151	Cu	0.551332	0.039099	-0.514489
O152	O	0.463086	0.028349	-0.582569
C153	C	0.815354	-0.521094	-0.008709
C154	C	0.717898	-0.563028	-0.006927
C155	C	0.670072	-0.514739	-0.009298
C156	C	0.564182	-0.463204	-0.048354
C157	C	0.445681	-0.498945	0.013847
C158	C	0.415547	-0.125494	-0.028771
C159	C	0.375059	-0.223405	-0.031498
C160	C	0.423859	-0.270708	-0.029121
C161	C	0.149365	-0.395355	-0.030599
C162	C	0.246820	-0.353421	-0.032381
C163	C	0.294640	-0.401713	-0.030008
C164	C	0.400530	-0.453248	0.009048
C165	C	0.519038	-0.417504	-0.053155
C166	C	0.549171	-0.790955	-0.010537
C167	C	0.589653	-0.693047	-0.007809
C168	C	0.540859	-0.645741	-0.010187
C169	C	0.678588	-0.652551	-0.006775
C170	C	0.581317	-0.556344	-0.010973
C171	C	0.530562	-0.506029	-0.015250
C172	C	0.286131	-0.263897	-0.032533
C173	C	0.383402	-0.360104	-0.028335
C174	C	0.434150	-0.410423	-0.024057
O175	O	-0.620614	0.089309	0.052274
O176	O	-0.529507	0.043784	-0.078544
O177	O	-0.523494	0.194833	-0.006033
O178	O	-0.626628	-0.061740	-0.020236
O179	O	-0.395386	0.185419	-0.005549
O180	O	-0.401400	0.034370	-0.078059
O181	O	-0.492507	0.079895	0.052758
Cu182	Cu	-0.435256	0.056273	-0.012607
Cu183	Cu	-0.586758	0.067406	-0.013179
O184	O	-0.498521	-0.071154	-0.019752
C185	C	-0.437537	0.048335	0.402491
C186	C	-0.397043	0.041789	0.352989
C187	C	-0.445822	0.047883	0.329994
C188	C	-0.496646	0.126653	0.277022
C189	C	-0.465894	-0.000633	0.218811
C190	C	-0.837226	0.099430	0.210091
C191	C	-0.739773	0.100339	0.187806
C192	C	-0.691967	0.094287	0.211308
C193	C	-0.571027	0.088563	0.071568
C194	C	-0.611521	0.095108	0.121070
C195	C	-0.562739	0.089011	0.144061
C196	C	-0.511915	0.010241	0.197033
C197	C	-0.542670	0.137531	0.255247
C198	C	-0.171338	0.037467	0.263967
C199	C	-0.268788	0.036555	0.286249
C200	C	-0.316597	0.042611	0.262750
C201	C	-0.308112	0.037305	0.331542
C202	C	-0.405351	0.048369	0.284750
C203	C	-0.456092	0.058317	0.260279
C204	C	-0.700452	0.099593	0.142516
C205	C	-0.603213	0.088528	0.189308
C206	C	-0.552469	0.078578	0.213776
O207	O	-0.040608	-1.085661	-0.825229
O208	O	-0.001018	-0.826491	-0.777938
O209	O	-0.150287	-0.971682	-0.775894
O210	O	0.108661	-0.940470	-0.827272
O211	O	-0.144253	-0.976123	-0.711878
O212	O	0.005016	-0.830932	-0.713922
O213	O	-0.034575	-1.090102	-0.761213
Cu214	Cu	-0.014228	-0.960923	-0.731722
Cu215	Cu	-0.021364	-0.955670	-0.807428
O216	O	0.114695	-0.944911	-0.763256
O217	O	-0.036816	-0.230509	-0.253950
C218	C	-0.111405	-0.277868	-0.225319
H219	H	-0.136412	-0.349914	-0.245937
H220	H	-0.090117	-0.278715	-0.197297
H221	H	-0.167999	-0.243272	-0.209571
H222	H	0.003321	-0.760550	-0.802778
O223	O	0.003839	-0.384804	-0.612057
C224	C	0.084807	-0.385262	-0.608836
H225	H	0.137458	-0.391746	-0.643622
H226	H	0.110936	-0.319777	-0.583886
H227	H	0.071502	-0.444629	-0.596396
H228	H	-0.142704	-0.524425	-0.305055
O229	O	-0.580266	0.207628	0.274069
C230	C	-0.512045	0.289405	0.279878
H231	H	-0.444168	0.278270	0.255316
H232	H	-0.528070	0.341730	0.272821
H233	H	-0.508730	0.314342	0.316196
H234	H	0.634201	-0.467612	-0.072637
H235	H	0.417564	-0.755580	-0.518528
H236	H	0.001650	-0.679613	-0.278166
O237	O	-0.476144	0.083441	0.122634
C238	C	-0.474447	0.006033	0.085052
H239	H	-0.536977	-0.014575	0.073829
H240	H	-0.411157	0.021318	0.055961
H241	H	-0.473832	-0.051238	0.094975
H242	H	0.261721	-0.474856	-0.029430
H243	H	0.780052	-0.386407	-0.516111
O244	O	-0.004759	-0.768471	-0.874822
C245	C	-0.083868	-0.820169	-0.887883
H246	H	-0.113880	-0.774406	-0.891909
H247	H	-0.066568	-0.873445	-0.921523
H248	H	-0.135124	-0.854460	-0.860779
H249	H	0.182115	-0.525189	-0.530531
O250	O	0.717250	-0.691678	-0.504529
C251	C	0.667758	-0.707655	-0.461849
H252	H	0.595064	-0.706368	-0.452837
H253	H	0.668310	-0.776343	-0.463189
H254	H	0.699877	-0.653174	-0.435009
O255	O	0.688483	-0.148157	-0.524133
C256	C	0.689834	-0.139829	-0.564577
H257	H	0.635013	-0.197536	-0.578341
H258	H	0.676869	-0.072945	-0.557372
H259	H	0.758708	-0.142271	-0.590721
O260	O	0.785052	-0.242454	-0.519140
C261	C	0.809892	-0.152914	-0.520414
H262	H	0.746537	-0.129407	-0.508062
H263	H	0.854766	-0.107659	-0.497517
H264	H	0.848461	-0.149270	-0.556693
H265	H	-0.740818	0.102779	0.123104
O266	O	-0.004796	-0.247429	-0.615613
C267	C	-0.008480	-0.157873	-0.602610
H268	H	-0.040908	-0.151484	-0.624807
H269	H	-0.050432	-0.138857	-0.565568
H270	H	0.062919	-0.110860	-0.606940
H271	H	0.550886	-0.383867	-0.081621
O272	O	-0.545867	0.040332	-0.148438
C273	C	-0.547526	0.117730	-0.110850
H274	H	-0.478221	0.168579	-0.116200
H275	H	-0.600422	0.148936	-0.107176
H276	H	-0.565275	0.098262	-0.078779
O277	O	-0.273451	0.020427	-0.145088
C278	C	-0.267497	0.098071	-0.107826
H279	H	-0.325574	0.127734	-0.098272
H280	H	-0.271722	0.079376	-0.077746
H281	H	-0.200382	0.149887	-0.117327
H282	H	-0.518563	-0.039000	0.162804
O283	O	-0.132972	-0.620359	-0.262946
C284	C	-0.197165	-0.643984	-0.285561
H285	H	-0.168586	-0.605669	-0.311971
H286	H	-0.213226	-0.719457	-0.303055
H287	H	-0.261589	-0.625933	-0.259947
H288	H	-0.489994	0.175891	0.311254
O289	O	0.317015	-0.448070	0.038059
C290	C	0.292280	-0.495125	0.069804
H291	H	0.355720	-0.499721	0.072594
H292	H	0.253070	-0.457872	0.104328
H293	H	0.248048	-0.565829	0.058162
H294	H	0.413839	-0.532573	0.042316
O295	O	0.550904	-0.141855	-0.528153
C296	C	0.576295	-0.090190	-0.488240
H297	H	0.584996	-0.135966	-0.473562
H298	H	0.642836	-0.036863	-0.496508
H299	H	0.521587	-0.055963	-0.462377
O300	O	0.177141	-0.669141	-0.527545
C301	C	0.175696	-0.744286	-0.566224
H302	H	0.238316	-0.768230	-0.577290
H303	H	0.112491	-0.800855	-0.557761
H304	H	0.175112	-0.724540	-0.594896
O305	O	-0.049204	-0.216238	-0.390138
C306	C	0.027481	-0.141415	-0.392510
H307	H	0.083735	-0.155127	-0.387530
H308	H	0.051478	-0.129349	-0.427119
H309	H	0.009238	-0.079266	-0.364801
O310	O	-0.024007	-0.536760	-0.926046
C311	C	0.055133	-0.565064	-0.952794
H312	H	0.085115	-0.573444	-0.930154
H313	H	0.037884	-0.632134	-0.979055
H314	H	0.106393	-0.512504	-0.970803
O315	O	0.510451	-0.230250	-0.027496
C316	C	0.512170	-0.155105	0.011173
H317	H	0.442897	-0.163917	0.037561
H318	H	0.565119	-0.149185	0.026027
H319	H	0.529884	-0.091451	0.001199
O320	O	-0.592403	-0.077782	-0.221459
C321	C	-0.609027	-0.161658	-0.254120
H322	H	-0.562436	-0.155179	-0.289125
H323	H	-0.595654	-0.213876	-0.245682
H324	H	-0.682432	-0.183742	-0.253962
H325	H	0.468233	-0.679598	-0.011487
O326	O	0.013727	-0.700348	-0.649069
C327	C	-0.063082	-0.775036	-0.646594
H328	H	-0.090933	-0.792567	-0.675750
H329	H	-0.043473	-0.835082	-0.649107
H330	H	-0.116947	-0.757853	-0.612923
H331	H	0.718963	-0.692464	-0.005731
O332	O	-0.290821	0.029578	-0.281271
C333	C	-0.265315	-0.050930	-0.307266
H334	H	-0.307875	-0.105068	-0.288962
H335	H	-0.276655	-0.074108	-0.341830
H336	H	-0.190794	-0.038714	-0.312025
H337	H	0.702991	-0.441593	-0.009870
O338	O	-0.036843	-0.489026	-0.383301
C339	C	-0.115995	-0.540347	-0.396374
H340	H	-0.145862	-0.494256	-0.400236
H341	H	-0.098800	-0.593451	-0.430101
H342	H	-0.167328	-0.574834	-0.369359
H343	H	-0.434254	-0.059305	0.203012
O344	O	0.237984	-0.216205	-0.533715
C345	C	0.232040	-0.141518	-0.494812
H346	H	0.290123	-0.123985	-0.480772
H347	H	0.236261	-0.081471	-0.504215
H348	H	0.164929	-0.158702	-0.467993
O349	O	0.273493	-0.763425	-0.522507
C350	C	0.196392	-0.768299	-0.484355
H351	H	0.170514	-0.706926	-0.473038
H352	H	0.141435	-0.832099	-0.493611
H353	H	0.214880	-0.769816	-0.455565
H354	H	-0.015393	-0.167196	-0.666497
H355	H	-0.023809	-0.160979	-0.735279
H356	H	-0.047834	-0.232081	-0.882358
O357	O	0.097565	-0.296230	-0.276345
C358	C	0.186422	-0.304784	-0.298672
H359	H	0.184117	-0.377380	-0.320143
H360	H	0.224597	-0.258160	-0.321473
H361	H	0.222402	-0.285729	-0.272457
O362	O	-0.015585	-0.674023	-0.922461
C363	C	0.063544	-0.702342	-0.949215
H364	H	0.093545	-0.710704	-0.926578
H365	H	0.046277	-0.769423	-0.975465
H366	H	0.114797	-0.649799	-0.967237
H367	H	-0.365918	0.157102	-0.260160
H368	H	0.245737	-0.223998	-0.033572
O369	O	-0.442983	0.188101	-0.304278
C370	C	-0.360844	0.175736	-0.337489
H371	H	-0.361654	0.101997	-0.348524
H372	H	-0.352205	0.195641	-0.368050
H373	H	-0.302252	0.219570	-0.322751
O374	O	0.118408	-0.386277	-0.231111
C375	C	0.174779	-0.444307	-0.250185
H376	H	0.166979	-0.489307	-0.284917
H377	H	0.248134	-0.402686	-0.254012
H378	H	0.154810	-0.487852	-0.227051
H379	H	-0.283673	0.042875	0.225734
H380	H	-0.503619	0.071273	-0.373665
H381	H	0.001660	-0.441639	-0.159184
H382	H	-0.754334	0.089615	-0.376700
H383	H	-0.738384	0.080845	-0.251490
H384	H	-0.669612	-0.046576	-0.265443
O385	O	-0.259894	0.033383	0.354633
C386	C	-0.232717	-0.046877	0.333300
H387	H	-0.231794	-0.072039	0.296278
H388	H	-0.162137	-0.033416	0.335112
H389	H	-0.282241	-0.100074	0.351260
O390	O	-0.532399	0.053523	0.351399
C391	C	-0.534069	0.130920	0.388987
H392	H	-0.464774	0.181784	0.383635
H393	H	-0.586984	0.162106	0.392665
H394	H	-0.551799	0.111456	0.421057
O395	O	-0.731326	0.093816	0.255445
C396	C	-0.808492	0.019653	0.258888
H397	H	-0.802039	-0.034327	0.224823
H398	H	-0.814507	-0.009104	0.285884
H399	H	-0.871329	0.042417	0.268743
H400	H	0.013390	-0.692483	-0.152899
