data_functionalizedCrystal
_audit_creation_method	'MofGen! by Chris Wilmer'
_symmetry_space_group_name_H-M	'P1'
_symmetry_Int_Tables_number	1
_symmetry_cell_setting	triclinic
loop_
_symmetry_equiv_pos_as_xyz
  x,y,z
_cell_length_a	17.699083
_cell_length_b	9.065218
_cell_length_c	7.540329
_cell_angle_alpha	90.003038
_cell_angle_beta	89.995522
_cell_angle_gamma	95.850550
loop_
_atom_site_label
_atom_site_type_symbol
_atom_site_fract_x
_atom_site_fract_y
_atom_site_fract_z
O1	O	0.110973	-1.957110	-0.147491
O2	O	0.120075	-1.527555	-0.147494
O3	O	0.005430	-1.754468	-0.147477
O4	O	0.225619	-1.730196	-0.147508
O5	O	0.005428	-1.754455	0.147488
O6	O	0.120074	-1.527542	0.147471
O7	O	0.110971	-1.957096	0.147474
Cu8	Cu	0.115522	-1.742318	0.174405
Cu9	Cu	0.115524	-1.742334	-0.174425
O10	O	0.225617	-1.730183	0.147457
C11	C	0.119200	-1.472588	-0.000012
C12	C	0.116584	-1.308822	-0.000012
C13	C	-0.022775	-1.753592	0.000006
C14	C	-0.106813	-1.750983	0.000007
C15	C	0.111847	-2.012064	-0.000012
C16	C	0.114463	-2.175829	-0.000023
C17	C	-0.154396	-1.884176	0.000010
C18	C	-0.233358	-1.881716	-0.000006
C19	C	-0.264737	-1.746060	-0.000012
C20	C	-0.217149	-1.612857	-0.000021
C21	C	-0.138188	-1.615319	-0.000018
C22	C	-0.535589	-1.602925	-0.000035
C23	C	-0.614556	-1.600474	-0.000033
C24	C	-0.630760	-1.869322	-0.000023
C25	C	-0.551799	-1.871784	-0.000020
C26	C	-0.504217	-1.738581	-0.000038
C27	C	-0.418597	-1.741251	-0.000025
C28	C	-0.350355	-1.743390	-0.000013
C29	C	0.253822	-1.731059	-0.000030
C30	C	0.337860	-1.733669	-0.000042
N31	N	0.115521	-1.742317	0.419754
N32	N	0.115520	-1.742346	-0.419774
H33	H	-0.128854	-1.994642	0.000026
C34	C	-0.649070	-1.451235	-0.000055
N35	N	-0.675066	-1.338835	-0.000072
C36	C	-0.517287	-2.021015	-0.000013
N37	N	-0.491294	-2.133419	-0.000016
H38	H	-0.669510	-1.977782	-0.000018
C39	C	-0.251668	-1.463634	-0.000013
N40	N	-0.277667	-1.351237	0.000006
H41	H	-0.099446	-1.506859	-0.000021
C42	C	-0.285696	-2.028239	0.000027
N43	N	-0.325116	-2.138608	0.000060
C44	C	-0.483259	-1.456398	-0.000065
N45	N	-0.443842	-1.346026	-0.000092
