data_functionalizedCrystal
_audit_creation_method	'MofGen! by Chris Wilmer'
_symmetry_space_group_name_H-M	'P1'
_symmetry_Int_Tables_number	1
_symmetry_cell_setting	triclinic
loop_
_symmetry_equiv_pos_as_xyz
  x,y,z
_cell_length_a	10.654550
_cell_length_b	15.995350
_cell_length_c	9.730223
_cell_angle_alpha	90.000899
_cell_angle_beta	89.996251
_cell_angle_gamma	83.988639
loop_
_atom_site_label
_atom_site_type_symbol
_atom_site_fract_x
_atom_site_fract_y
_atom_site_fract_z
O1	O	1.666298	0.117599	-0.114395
O2	O	1.300673	0.128803	-0.114373
O3	O	1.493480	0.001371	-0.114383
O4	O	1.473491	0.245031	-0.114385
O5	O	1.493478	0.001375	0.114197
O6	O	1.300671	0.128806	0.114207
O7	O	1.666295	0.117602	0.114185
Zn8	Zn	1.483483	0.123205	0.150488
Zn9	Zn	1.483486	0.123200	-0.150676
O10	O	1.473488	0.245034	0.114195
C11	C	1.253885	0.127982	-0.000080
C12	C	1.114473	0.125521	-0.000071
C13	C	1.492652	-0.029827	-0.000096
C14	C	1.490175	-0.122791	-0.000104
C15	C	1.034008	0.200551	-0.000092
C16	C	0.903017	0.198233	-0.000116
C17	C	0.932971	0.045849	-0.000104
C18	C	1.063959	0.048168	-0.000071
C19	C	1.084522	0.277904	-0.000093
C20	C	1.004055	0.352940	-0.000115
C21	C	0.873064	0.350622	-0.000138
C22	C	0.822541	0.273268	-0.000140
C23	C	1.481278	-0.460591	-0.000098
C24	C	1.343964	-0.413954	-0.000603
C25	C	1.346442	-0.317249	-0.000087
C26	C	1.485691	-0.293004	-0.000102
C27	C	1.553417	-0.333687	0.130422
C28	C	1.549968	-0.430342	0.130531
C29	C	1.552807	-0.430688	-0.129407
C30	C	1.552775	-0.333743	-0.131132
C31	C	1.488192	-0.198292	-0.000099
C32	C	1.478780	-0.555303	-0.000092
C33	C	1.713084	0.118423	-0.000111
C34	C	1.852495	0.120884	-0.000129
C35	C	1.474316	0.276232	-0.000095
C36	C	1.476793	0.369197	-0.000097
N37	N	1.483490	0.123207	0.356024
N38	N	1.483488	0.123191	-0.356212
C39	C	1.568886	0.066800	0.427946
C40	C	1.568883	0.066789	0.571829
C41	C	1.398083	0.179602	0.571856
C42	C	1.398081	0.179607	0.427976
C43	C	1.654295	0.010400	0.355994
C44	C	1.739700	-0.046012	0.427915
C45	C	1.739697	-0.046022	0.571798
C46	C	1.654289	0.010379	0.643760
H47	H	1.191179	0.279800	-0.000080
N48	N	0.790850	0.427257	-0.000156
N49	N	0.673899	0.425179	-0.000175
H50	H	0.615835	0.479304	-0.000189
N51	N	1.310853	0.237203	0.645380
N52	N	1.310868	0.237190	0.773843
H53	H	1.249262	0.277873	0.825771
H54	H	1.045200	0.415918	-0.000102
N55	N	1.654278	0.010388	0.790733
N56	N	1.578030	0.060755	0.854962
H57	H	1.578026	0.060765	0.958761
H58	H	1.654308	0.010404	0.238837
N59	N	1.826916	-0.103624	0.354395
N60	N	1.826907	-0.103611	0.225931
H61	H	1.888503	-0.144302	0.174007
H62	H	1.328542	0.225539	0.369417
N63	N	1.680166	-0.313742	-0.141079
N64	N	1.714573	-0.274817	-0.243471
H65	H	1.804549	-0.260694	-0.250493
H66	H	0.715878	0.271387	-0.000138
N67	N	0.881387	-0.033168	-0.000133
N68	N	0.953247	-0.100155	-0.000120
H69	H	0.916818	-0.155963	-0.000146
H70	H	1.503258	-0.306783	-0.227690
N71	N	1.146144	-0.028480	-0.000033
N72	N	1.101029	-0.097538	-0.000036
H73	H	1.159071	-0.151673	0.000000
N74	N	1.275123	-0.437619	-0.118021
N75	N	1.257127	-0.512834	-0.135798
H76	H	1.208511	-0.529554	-0.218731
H77	H	1.809228	-0.091960	0.630355
N78	N	1.679823	-0.469772	-0.130520
N79	N	1.752213	-0.458217	-0.032835
H80	H	1.841917	-0.485819	-0.033610
H81	H	1.293204	-0.289138	-0.093652
H82	H	1.507914	-0.451490	-0.228337
H83	H	1.289324	-0.433864	0.092484
H84	H	1.500580	-0.448929	0.228110
N85	N	1.279204	-0.282688	0.117501
N86	N	1.230307	-0.329999	0.199449
H87	H	1.182819	-0.305592	0.282504
N88	N	1.676438	-0.470056	0.137967
N89	N	1.766966	-0.426362	0.143068
H90	H	1.856285	-0.454406	0.148329
H91	H	1.655720	-0.318967	0.135266
H92	H	1.506376	-0.305577	0.227563
