data_functionalizedCrystal
_audit_creation_method	'MofGen! by Chris Wilmer'
_symmetry_space_group_name_H-M	'P1'
_symmetry_Int_Tables_number	1
_symmetry_cell_setting	triclinic
loop_
_symmetry_equiv_pos_as_xyz
  x,y,z
_cell_length_a	18.101398
_cell_length_b	18.101395
_cell_length_c	18.101389
_cell_angle_alpha	89.979213
_cell_angle_beta	89.977624
_cell_angle_gamma	90.026371
loop_
_atom_site_label
_atom_site_type_symbol
_atom_site_fract_x
_atom_site_fract_y
_atom_site_fract_z
Zn1	Zn	1.132107	-0.294972	-0.418847
Zn2	Zn	1.632107	0.205028	0.081153
Zn3	Zn	1.132007	-0.418806	-0.295009
Zn4	Zn	1.632007	0.081194	0.204991
Zn5	Zn	1.008270	-0.294973	-0.295008
Zn6	Zn	1.508270	0.205027	0.204992
Zn7	Zn	1.008216	-0.418766	-0.418797
Zn8	Zn	1.508216	0.081234	0.081203
O9	O	1.070150	-0.356879	-0.356915
O10	O	1.570150	0.143121	0.143085
O11	O	1.235726	-0.311415	-0.402440
O12	O	1.735726	0.188585	0.097560
O13	O	1.115573	-0.402397	-0.191376
O14	O	1.615573	0.097603	0.308624
O15	O	1.024761	-0.191340	-0.311456
O16	O	1.524761	0.308660	0.188544
O17	O	1.235653	-0.402396	-0.311457
O18	O	1.735653	0.097604	0.188543
O19	O	1.115744	-0.191339	-0.402440
O20	O	1.615744	0.308661	0.097560
O21	O	1.024664	-0.311417	-0.191375
O22	O	1.524664	0.188583	0.308625
O23	O	0.904630	-0.311378	-0.311408
O24	O	1.404630	0.188622	0.188592
O25	O	1.024670	-0.402327	-0.522437
O26	O	1.524670	0.097673	-0.022437
O27	O	0.904591	-0.402328	-0.402355
O28	O	1.404591	0.097672	0.097645
O29	O	1.115692	-0.311376	-0.522473
O30	O	1.615692	0.188624	-0.022473
O31	O	1.115522	-0.522434	-0.311409
O32	O	1.615522	-0.022434	0.188591
O33	O	1.024573	-0.522404	-0.402356
O34	O	1.524573	-0.022404	0.097644
C35	C	0.877739	-0.356849	-0.356877
C36	C	1.377739	0.143151	0.143123
C37	C	0.795425	-0.356854	-0.356878
C38	C	1.295425	0.143146	0.143122
C39	C	0.496334	-0.356900	-0.356940
C40	C	0.996334	0.143100	0.143060
C41	C	0.527660	-0.299391	-0.299997
C42	C	1.027660	0.200609	0.200003
C43	C	0.613278	-0.299545	-0.299754
C44	C	1.113278	0.200455	0.200246
C45	C	0.644717	-0.356877	-0.356909
C46	C	1.144717	0.143123	0.143091
C47	C	0.613600	-0.434886	-0.335587
C48	C	1.113600	0.065114	0.164413
C49	C	0.527954	-0.434567	-0.335191
C50	C	1.027954	0.065433	0.164809
C51	C	0.527946	-0.337079	-0.435339
C52	C	1.027946	0.162921	0.064661
C53	C	0.613597	-0.335341	-0.434911
C54	C	1.113597	0.164659	0.065089
C55	C	0.728576	-0.356868	-0.356893
C56	C	1.228576	0.143132	0.143107
C57	C	0.412475	-0.356914	-0.356954
C58	C	0.912475	0.143086	0.143046
C59	C	1.070051	-0.549290	-0.356893
C60	C	1.570051	-0.049290	0.143107
C61	C	1.070076	-0.631604	-0.356909
C62	C	1.570076	-0.131604	0.143091
C63	C	1.070239	-0.930695	-0.356949
C64	C	1.570239	-0.430695	0.143051
C65	C	1.013149	-0.899382	-0.414312
C66	C	1.513149	-0.399382	0.085688
C67	C	1.012878	-0.813764	-0.414133
C68	C	1.512878	-0.313764	0.085867
C69	C	1.070158	-0.782312	-0.356930
C70	C	1.570158	-0.282312	0.143070
C71	C	1.049032	-0.813453	-0.278878
C72	C	1.549032	-0.313453	0.221122
C73	C	1.048664	-0.899098	-0.279221
C74	C	1.548664	-0.399098	0.220779
C75	C	1.148580	-0.899047	-0.376950
C76	C	1.648580	-0.399047	0.123050
C77	C	1.148119	-0.813396	-0.378661
C78	C	1.648119	-0.313396	0.121339
C79	C	1.070114	-0.698453	-0.356914
C80	C	1.570114	-0.198453	0.143086
C81	C	1.070281	-1.014554	-0.356959
C82	C	1.570281	-0.514554	0.143041
C83	C	1.263312	-0.356910	-0.356954
C84	C	1.763312	0.143090	0.143046
C85	C	1.345626	-0.356923	-0.356971
C86	C	1.845626	0.143077	0.143029
C87	C	1.070186	-0.356847	-0.550077
C88	C	1.570186	0.143153	-0.050077
C89	C	1.070202	-0.356834	-0.632391
C90	C	1.570202	0.143166	-0.132391
C91	C	1.070270	-0.163717	-0.356953
C92	C	1.570270	0.336283	0.143047
C93	C	1.070321	-0.081403	-0.356970
C94	C	1.570321	0.418597	0.143030
C95	C	1.070229	-0.356776	-0.783100
C96	C	1.570229	0.143224	-0.283100
C97	C	1.012970	-0.413988	-0.814431
C98	C	1.512970	0.086012	-0.314431
C99	C	1.012762	-0.413787	-0.900049
C100	C	1.512762	0.086213	-0.400049
C101	C	1.070257	-0.356720	-0.931482
C102	C	1.570257	0.143280	-0.431482
C103	C	1.049370	-0.278624	-0.900396
C104	C	1.549370	0.221376	-0.400396
C105	C	1.048938	-0.278987	-0.814751
C106	C	1.548938	0.221013	-0.314751
C107	C	1.148526	-0.376966	-0.814675
C108	C	1.648526	0.123034	-0.314675
C109	C	1.148122	-0.378655	-0.900326
C110	C	1.648122	0.121345	-0.400326
C111	C	1.070274	-0.356684	-1.015342
C112	C	1.570274	0.143316	-0.515342
C113	C	1.070211	-0.356807	-0.699240
C114	C	1.570211	0.143193	-0.199240
C115	C	1.070157	-0.356858	-0.164505
C116	C	1.570157	0.143142	0.335495
C117	C	1.070285	-0.356663	-0.082191
C118	C	1.570285	0.143337	0.417809
H119	H	0.506374	-0.281185	-0.454725
H120	H	1.006374	0.218815	0.045275
C121	C	1.169646	-0.785909	-0.456261
C122	C	1.669646	-0.285909	0.043739
H123	H	1.216853	-0.804905	-0.469096
H124	H	1.716853	-0.304905	0.030904
H125	H	1.171283	-0.733455	-0.456437
H126	H	1.671283	-0.233455	0.043563
H127	H	1.134081	-0.802423	-0.491132
H128	H	1.634081	-0.302423	0.008868
H129	H	0.992783	-0.261232	-0.921840
H130	H	1.492783	0.238768	-0.421840
C131	C	1.208820	-0.326470	-0.929219
C132	C	1.708820	0.173530	-0.429219
H133	H	1.187372	-0.290458	-0.960799
H134	H	1.687372	0.209542	-0.460799
H135	H	1.244457	-0.354174	-0.955973
H136	H	1.744457	0.145826	-0.455973
H137	H	1.232068	-0.302564	-0.888704
H138	H	1.732068	0.197436	-0.388704
H139	H	0.635001	-0.374176	-0.479611
H140	H	1.135001	0.125824	0.020389
H141	H	0.954753	-0.400389	-0.920531
H142	H	1.454753	0.099611	-0.420531
H143	H	0.507231	-0.478866	-0.374857
H144	H	1.007231	0.021134	0.125143
C145	C	0.641709	-0.221401	-0.317804
C146	C	1.141709	0.278599	0.182196
H147	H	0.694193	-0.221391	-0.317682
H148	H	1.194193	0.278609	0.182318
H149	H	0.624125	-0.187637	-0.281695
H150	H	1.124125	0.312363	0.218305
H151	H	0.624355	-0.206967	-0.365180
H152	H	1.124355	0.293033	0.134820
H153	H	1.191113	-0.919296	-0.335170
H154	H	1.691113	-0.419296	0.164830
C155	C	1.169412	-0.456295	-0.927776
C156	C	1.669412	0.043705	-0.427776
H157	H	1.131016	-0.475267	-0.958102
H158	H	1.631016	0.024733	-0.458102
H159	H	1.176497	-0.488080	-0.886618
H160	H	1.676497	0.011920	-0.386618
H161	H	1.213857	-0.453431	-0.955562
H162	H	1.713857	0.046569	-0.455562
C163	C	1.030364	-0.492008	-0.928447
C164	C	1.530364	0.007992	-0.428447
H165	H	1.037704	-0.524195	-0.887640
H166	H	1.537704	-0.024195	-0.387640
H167	H	1.073915	-0.490597	-0.957710
H168	H	1.573915	0.009403	-0.457710
H169	H	0.990316	-0.509497	-0.957499
H170	H	1.490316	-0.009497	-0.457499
H171	H	0.633941	-0.277935	-0.450989
H172	H	1.133941	0.222065	0.049011
C173	C	1.030728	-0.785311	-0.492313
C174	C	1.530728	-0.285311	0.007687
H175	H	1.030588	-0.732827	-0.492307
H176	H	1.530588	-0.232827	0.007693
H177	H	0.994544	-0.802904	-0.525993
H178	H	1.494544	-0.302904	-0.025993
H179	H	1.078076	-0.802641	-0.506868
H180	H	1.578076	-0.302641	-0.006868
H181	H	0.633963	-0.478883	-0.375763
H182	H	1.133963	0.021117	0.124237
H183	H	1.192904	-0.791983	-0.339927
H184	H	1.692904	-0.291983	0.160073
C185	C	0.972484	-0.784569	-0.255583
C186	C	1.472484	-0.284569	0.244417
H187	H	0.953299	-0.753541	-0.293312
H188	H	1.453299	-0.253541	0.206688
H189	H	0.976916	-0.757231	-0.211018
H190	H	1.476916	-0.257231	0.288982
H191	H	0.940007	-0.825123	-0.248063
H192	H	1.440007	-0.325123	0.251937
H193	H	0.507688	-0.378966	-0.477766
H194	H	1.007688	0.121034	0.022234
C195	C	1.102385	-0.927088	-0.219505
C196	C	1.602385	-0.427088	0.280495
H197	H	1.124332	-0.886113	-0.195140
H198	H	1.624332	-0.386113	0.304860
H199	H	1.139835	-0.956204	-0.241929
H200	H	1.639835	-0.456204	0.258071
H201	H	1.076116	-0.956202	-0.184593
H202	H	1.576116	-0.456202	0.315407
H203	H	1.088845	-0.234890	-0.794025
H204	H	1.588845	0.265110	-0.294025
C205	C	1.103430	-0.785930	-0.219561
C206	C	1.603430	-0.285930	0.280439
H207	H	1.139593	-0.755126	-0.241923
H208	H	1.639593	-0.255126	0.258077
H209	H	1.126975	-0.827040	-0.197002
H210	H	1.626975	-0.327040	0.302998
H211	H	1.077277	-0.758629	-0.183168
H212	H	1.577277	-0.258629	0.316832
H213	H	1.026235	-0.919937	-0.472374
H214	H	1.526235	-0.419937	0.027626
H215	H	0.507089	-0.241367	-0.313215
H216	H	1.007089	0.258633	0.186785
C217	C	0.935179	-0.928525	-0.396639
C218	C	1.435179	-0.428525	0.103361
H219	H	0.937266	-0.959690	-0.354451
H220	H	1.437266	-0.459690	0.145549
H221	H	0.916982	-0.955772	-0.437621
H222	H	1.416982	-0.455772	0.062379
H223	H	0.903187	-0.888086	-0.386924
H224	H	1.403187	-0.388086	0.113076
H225	H	0.991715	-0.261905	-0.794769
H226	H	1.491715	0.238095	-0.294769
C227	C	1.030355	-0.492476	-0.786606
C228	C	1.530355	0.007524	-0.286606
H229	H	1.072686	-0.491059	-0.755628
H230	H	1.572686	0.008941	-0.255628
H231	H	1.039709	-0.523883	-0.827583
H232	H	1.539709	-0.023883	-0.327583
H233	H	0.989395	-0.510903	-0.759421
H234	H	1.489395	-0.010903	-0.259421
C235	C	0.935039	-0.396127	-0.785357
C236	C	1.435039	0.103873	-0.285357
H237	H	0.937245	-0.353953	-0.754210
H238	H	1.437245	0.146047	-0.254210
H239	H	0.916686	-0.437071	-0.758105
H240	H	1.416686	0.062929	-0.258105
H241	H	0.903108	-0.386322	-0.825825
H242	H	1.403108	0.113678	-0.325825
C243	C	0.642521	-0.457990	-0.258995
C244	C	1.142521	0.042010	0.241005
H245	H	0.673550	-0.420207	-0.239909
H246	H	1.173550	0.079793	0.260091
H247	H	0.669865	-0.502558	-0.263331
H248	H	1.169865	-0.002558	0.236669
H249	H	0.601982	-0.465444	-0.226485
H250	H	1.101982	0.034556	0.273515
C251	C	1.174601	-0.928161	-0.452528
C252	C	1.674601	-0.428161	0.047472
H253	H	1.137925	-0.959892	-0.472594
H254	H	1.637925	-0.459892	0.027406
H255	H	1.219404	-0.954798	-0.446538
H256	H	1.719404	-0.454798	0.053462
H257	H	1.182508	-0.887748	-0.485088
H258	H	1.682508	-0.387748	0.014912
H259	H	0.954810	-0.793334	-0.400884
H260	H	1.454810	-0.293334	0.099116
C261	C	1.103987	-0.219437	-0.927904
C262	C	1.603987	0.280563	-0.427904
H263	H	1.140097	-0.241882	-0.958669
H264	H	1.640097	0.258118	-0.458669
H265	H	1.127578	-0.196946	-0.886787
H266	H	1.627578	0.303054	-0.386787
H267	H	1.077977	-0.182972	-0.955244
H268	H	1.577977	0.317028	-0.455244
C269	C	1.174270	-0.452618	-0.785507
C270	C	1.674270	0.047382	-0.285507
H271	H	1.137504	-0.472599	-0.753797
H272	H	1.637504	0.027401	-0.253797
H273	H	1.219075	-0.446749	-0.758837
H274	H	1.719075	0.053251	-0.258837
H275	H	1.182096	-0.485185	-0.825900
H276	H	1.682096	0.014815	-0.325900
C277	C	0.498557	-0.316889	-0.221974
C278	C	0.998557	0.183111	0.278026
H279	H	0.467400	-0.359091	-0.223950
H280	H	0.967400	0.140909	0.276050
H281	H	0.471309	-0.275873	-0.203861
H282	H	0.971309	0.224127	0.296139
H283	H	0.539014	-0.326516	-0.189977
H284	H	1.039014	0.173484	0.310023
H285	H	1.191184	-0.335293	-0.794420
H286	H	1.691184	0.164707	-0.294420
H287	H	0.991397	-0.919134	-0.262279
H288	H	1.491397	-0.419134	0.237721
C289	C	0.640921	-0.317251	-0.221281
C290	C	1.140921	0.182749	0.278719
H291	H	0.693403	-0.317400	-0.220862
H292	H	1.193403	0.182600	0.279138
H293	H	0.623147	-0.364436	-0.206683
H294	H	1.123147	0.135564	0.293317
H295	H	0.623274	-0.280830	-0.187882
H296	H	1.123274	0.219170	0.312118
C297	C	0.500919	-0.457268	-0.257766
C298	C	1.000919	0.042732	0.242234
H299	H	0.542278	-0.466595	-0.226849
H300	H	1.042278	0.033405	0.273151
H301	H	0.471677	-0.500700	-0.261445
H302	H	0.971677	-0.000700	0.238555
H303	H	0.472132	-0.418502	-0.237229
H304	H	0.972132	0.081498	0.262771
