data_functionalizedCrystal
_audit_creation_method	'MofGen! by Chris Wilmer'
_symmetry_space_group_name_H-M	'P1'
_symmetry_Int_Tables_number	1
_symmetry_cell_setting	triclinic
loop_
_symmetry_equiv_pos_as_xyz
  x,y,z
_cell_length_a	17.000371
_cell_length_b	16.098524
_cell_length_c	14.044220
_cell_angle_alpha	87.176494
_cell_angle_beta	95.605937
_cell_angle_gamma	93.245953
loop_
_atom_site_label
_atom_site_type_symbol
_atom_site_fract_x
_atom_site_fract_y
_atom_site_fract_z
O1	O	1.061939	0.069261	-0.037453
O2	O	1.561939	0.569261	0.462547
O3	O	0.832635	0.069263	-0.071652
O4	O	1.332635	0.569263	0.428348
O5	O	0.943845	0.069254	0.083146
O6	O	1.443845	0.569254	0.583146
O7	O	0.950729	0.069270	-0.192251
O8	O	1.450729	0.569270	0.307749
O9	O	0.936983	-0.069260	0.090145
O10	O	1.436983	0.430740	0.590145
O11	O	0.825773	-0.069251	-0.064653
O12	O	1.325773	0.430749	0.435347
O13	O	1.055077	-0.069253	-0.030454
O14	O	1.555077	0.430747	0.469546
Zn15	Zn	0.939336	-0.091244	-0.046442
Zn16	Zn	1.439336	0.408756	0.453558
Zn17	Zn	0.948376	0.091254	-0.055664
Zn18	Zn	1.448376	0.591254	0.444336
O19	O	0.943867	-0.069244	-0.185252
O20	O	1.443867	0.430756	0.314748
C21	C	0.799680	0.000006	-0.069990
C22	C	1.299680	0.500006	0.430010
C23	C	0.711710	0.000006	-0.075452
C24	C	1.211710	0.500006	0.424548
N25	N	0.933171	-0.215794	-0.040148
N26	N	1.433171	0.284206	0.459852
C27	C	0.673716	-0.000000	0.008606
C28	C	1.173716	0.500000	0.508606
C29	C	0.591058	0.000006	0.003468
C30	C	1.091058	0.500006	0.503468
C31	C	0.546395	0.000013	-0.085729
C32	C	1.046395	0.500013	0.414271
C33	C	0.584395	0.000022	-0.169794
C34	C	1.084395	0.500022	0.330206
C35	C	0.667051	0.000021	-0.164655
C36	C	1.167051	0.500021	0.335345
C37	C	0.296659	0.000020	-0.105580
C38	C	0.796659	0.500020	0.394420
C39	C	0.213997	0.000017	-0.110712
C40	C	0.713997	0.500017	0.389288
C41	C	0.220665	0.000003	0.062550
C42	C	0.720665	0.500003	0.562550
C43	C	0.303323	-0.000002	0.067681
C44	C	0.803323	0.499998	0.567681
C45	C	0.341316	0.000011	-0.016383
C46	C	0.841316	0.500011	0.483617
C47	C	0.461905	0.000017	-0.090984
C48	C	0.961905	0.500017	0.409016
C49	C	0.425804	0.000013	-0.011129
C50	C	0.925804	0.500013	0.488871
C51	C	0.983062	-0.259373	-0.091133
C52	C	1.483062	0.240627	0.408867
C53	C	0.978760	-0.346562	-0.086723
C54	C	1.478760	0.153438	0.413277
C55	C	0.924563	-0.390172	-0.031332
C56	C	1.424563	0.109828	0.468668
C57	C	0.874670	-0.346587	0.019660
C58	C	1.374670	0.153413	0.519660
C59	C	0.878976	-0.259399	0.015254
C60	C	1.378976	0.240601	0.515254
C61	C	0.908960	-0.653424	-0.015364
C62	C	1.408960	-0.153424	0.484636
C63	C	0.904655	-0.740618	-0.010965
C64	C	1.404655	-0.240618	0.489035
C65	C	1.008747	-0.740587	-0.117346
C66	C	1.508747	-0.240587	0.382654
C67	C	1.013046	-0.653397	-0.121752
C68	C	1.513046	-0.153397	0.378248
C69	C	0.963156	-0.609820	-0.070756
C70	C	1.463156	-0.109820	0.429244
C71	C	0.920162	-0.479293	-0.026825
C72	C	1.420162	0.020707	0.473175
C73	C	0.967560	-0.520700	-0.075258
C74	C	1.467560	-0.020700	0.424742
C75	C	1.088032	0.000006	-0.032116
C76	C	1.588032	0.500006	0.467884
C77	C	1.176003	0.000011	-0.026654
C78	C	1.676003	0.500011	0.473346
C79	C	0.937400	-0.000004	0.121708
C80	C	1.437400	0.499996	0.621708
C81	C	0.928412	-0.000005	0.226185
C82	C	1.428412	0.499995	0.726185
N83	N	0.954546	0.215804	-0.061950
N84	N	1.454546	0.715804	0.438050
C85	C	0.950312	0.000015	-0.223815
C86	C	1.450312	0.500015	0.276185
C87	C	0.959300	0.000022	-0.328292
C88	C	1.459300	0.500022	0.171708
C89	C	0.911981	0.000007	0.417476
C90	C	1.411981	0.500007	0.917476
C91	C	0.975728	0.000010	0.480423
C92	C	1.475728	0.500010	0.980423
C93	C	0.966585	0.000016	0.586864
C94	C	1.466585	0.500016	1.086864
C95	C	0.921122	0.000001	0.311025
C96	C	1.421122	0.500001	0.811025
H97	H	0.710074	-0.000009	0.081241
H98	H	1.210074	0.499991	0.581241
C99	C	0.178867	-0.000003	0.155015
C100	C	0.678867	0.499997	0.655015
N101	N	0.147385	-0.000005	0.224663
N102	N	0.647385	0.499995	0.724663
H103	H	0.177634	0.000019	-0.183351
H104	H	0.677634	0.500019	0.316649
C105	C	0.474936	0.000001	0.086986
C106	C	0.974936	0.500001	0.586986
N107	N	0.511948	-0.000014	0.160886
N108	N	1.011948	0.499986	0.660886
C109	C	1.058733	-0.000003	0.445233
C110	C	1.558733	0.499997	0.945233
N111	N	1.121249	-0.000016	0.418724
N112	N	1.621249	0.499984	0.918724
C113	C	0.535263	0.000028	-0.267912
C114	C	1.035263	0.500028	0.232088
N115	N	0.498257	0.000028	-0.341817
N116	N	0.998257	0.500028	0.158183
C117	C	0.352446	-0.000010	0.165805
C118	C	0.852446	0.499990	0.665805
N119	N	0.389446	-0.000018	0.239714
N120	N	0.889446	0.499982	0.739714
C121	C	0.338439	0.000017	-0.198054
C122	C	0.838439	0.500017	0.301946
N123	N	0.369910	0.000010	-0.267709
N124	N	0.869910	0.500010	0.232291
H125	H	0.697984	0.000023	-0.233104
H126	H	1.197984	0.500023	0.266896
C127	C	1.042684	-0.211410	-0.152067
C128	C	1.542684	0.288590	0.347933
N129	N	1.087596	-0.175287	-0.197961
N130	N	1.587596	0.324713	0.302039
C131	C	1.033616	-0.394494	-0.142851
C132	C	1.533616	0.105506	0.357149
N133	N	1.074926	-0.430596	-0.185144
N134	N	1.574926	0.069404	0.314856
C135	C	1.072672	-0.605433	-0.182679
C136	C	1.572672	-0.105433	0.317321
N137	N	1.117584	-0.569307	-0.228571
N138	N	1.617584	-0.069307	0.271429
H139	H	0.560127	0.000001	0.071917
H140	H	1.060127	0.500001	0.571917
H141	H	0.425532	0.000021	-0.163608
H142	H	0.925532	0.500021	0.336392
C143	C	0.828981	-0.000003	0.452668
C144	C	1.328981	0.499997	0.952668
N145	N	0.766465	-0.000017	0.479186
N146	N	1.266465	0.499983	0.979186
H147	H	1.049366	-0.776076	-0.158863
H148	H	1.549366	-0.276076	0.341137
H149	H	0.868336	-0.617954	0.026161
H150	H	1.368336	-0.117954	0.526161
C151	C	0.845038	-0.788586	0.049981
C152	C	1.345038	-0.288586	0.549981
N153	N	0.800138	-0.824716	0.095885
N154	N	1.300138	-0.324716	0.595885
H155	H	0.830545	-0.382101	0.064765
H156	H	1.330545	0.117899	0.564765
H157	H	0.838349	-0.223919	0.056772
H158	H	1.338349	0.276081	0.556772
C159	C	0.860539	-0.527272	0.034094
C160	C	1.360539	-0.027272	0.534094
N161	N	0.815630	-0.563413	0.079977
N162	N	1.315630	-0.063413	0.579977
H163	H	1.011690	-0.485189	-0.120354
H164	H	1.511690	0.014811	0.379646
