data_functionalizedCrystal
_audit_creation_method	'MofGen! by Chris Wilmer'
_symmetry_space_group_name_H-M	'P1'
_symmetry_Int_Tables_number	1
_symmetry_cell_setting	triclinic
loop_
_symmetry_equiv_pos_as_xyz
  x,y,z
_cell_length_a	19.805407
_cell_length_b	19.077432
_cell_length_c	19.805399
_cell_angle_alpha	92.324821
_cell_angle_beta	90.020409
_cell_angle_gamma	87.728849
loop_
_atom_site_label
_atom_site_type_symbol
_atom_site_fract_x
_atom_site_fract_y
_atom_site_fract_z
Zn1	Zn	1.045560	-0.280176	0.371921
Zn2	Zn	1.050022	-0.397873	0.254190
Zn3	Zn	0.932376	-0.280200	0.258743
Zn4	Zn	0.936884	-0.397840	0.367336
O5	O	0.991210	-0.339022	0.313047
O6	O	1.140869	-0.295793	0.356317
O7	O	1.034397	-0.382287	0.160076
O8	O	0.943636	-0.181707	0.277580
O9	O	1.144147	-0.382264	0.269820
O10	O	1.026792	-0.181690	0.360732
O11	O	0.947962	-0.295833	0.163421
O12	O	0.838257	-0.295801	0.273135
O13	O	0.951320	-0.382207	0.462662
O14	O	0.841569	-0.382230	0.352918
O15	O	1.031163	-0.295761	0.466030
O16	O	1.038768	-0.496358	0.265375
O17	O	0.955646	-0.496333	0.348503
C18	C	0.815354	-0.339015	0.313023
C19	C	0.740123	-0.339029	0.313028
C20	C	0.276631	-0.294081	0.358175
C21	C	0.347320	-0.294082	0.358170
C22	C	0.384361	-0.339033	0.313069
C23	C	0.350711	-0.383990	0.267974
C24	C	0.280024	-0.383992	0.267983
C25	C	0.635784	-0.383985	0.267938
C26	C	0.706476	-0.383978	0.267932
C27	C	0.703080	-0.294075	0.358126
C28	C	0.632393	-0.294076	0.358135
C29	C	0.598749	-0.339036	0.313043
C30	C	0.522100	-0.339035	0.313049
C31	C	0.461008	-0.339031	0.313058
C32	C	0.998199	-0.521883	0.305962
C33	C	1.001251	-0.600111	0.302954
C34	C	0.959377	-0.636876	0.344785
C35	C	0.962248	-0.710380	0.341955
C36	C	1.006995	-0.747118	0.297297
C37	C	1.048870	-0.710348	0.255462
C38	C	1.045996	-0.636845	0.258288
C39	C	1.020232	-0.966946	0.284203
C40	C	1.023104	-1.040454	0.281381
C41	C	0.936481	-1.040481	0.367875
C42	C	0.933614	-0.966977	0.370700
C43	C	0.975486	-0.930213	0.328862
N44	N	1.009931	-0.822251	0.294406
N45	N	0.972546	-0.855082	0.331751
C46	C	1.167753	-0.339030	0.313072
C47	C	1.242986	-0.339033	0.313083
C48	C	0.991247	-0.338978	0.489592
C49	C	0.991262	-0.338959	0.564825
C50	C	0.984213	-0.155447	0.320175
C51	C	0.981231	-0.077219	0.323213
C52	C	0.991211	-0.339015	0.137192
C53	C	0.991319	-0.338836	0.061967
C54	C	1.032838	-0.293944	0.601924
C55	C	1.032844	-0.293923	0.672613
C56	C	0.991278	-0.338922	0.706202
C57	C	0.949697	-0.383939	0.669098
C58	C	0.949688	-0.383955	0.598410
C59	C	0.949733	-0.383874	0.954174
C60	C	0.949747	-0.383855	1.024866
C61	C	1.032889	-0.293841	1.028377
C62	C	1.032880	-0.293858	0.957689
C63	C	0.991297	-0.338872	0.920591
C64	C	0.991290	-0.338892	0.843942
C65	C	0.991288	-0.338905	0.782850
H66	H	0.922942	-0.606969	0.381153
H67	H	0.915826	-0.420604	0.568205
C68	C	1.078580	-0.244410	0.713425
C69	C	1.047153	-0.189138	0.764160
C70	C	1.092890	-0.139623	0.804973
C71	C	1.170053	-0.145380	0.795053
C72	C	1.201484	-0.200655	0.744316
C73	C	1.155747	-0.250170	0.703503
H74	H	0.990028	-0.184874	0.771506
H75	H	1.069623	-0.098705	0.842532
H76	H	1.203911	-0.108726	0.825266
H77	H	1.258609	-0.204918	0.736970
H78	H	1.179015	-0.291087	0.665944
H79	H	1.080092	-0.606912	0.224224
C80	C	1.098092	-0.750759	0.206337
C81	C	1.070773	-0.801359	0.151227
C82	C	1.119998	-0.841769	0.102104
C83	C	1.196542	-0.831580	0.108090
C84	C	1.223864	-0.780978	0.163202
C85	C	1.174640	-0.740567	0.212326
H86	H	1.014108	-0.808904	0.146794
H87	H	1.099772	-0.879228	0.061306
H88	H	1.232981	-0.861494	0.071726
H89	H	1.280530	-0.773433	0.167636
H90	H	1.194866	-0.703108	0.253124
H91	H	0.374711	-0.257479	0.394892
C92	C	0.235888	-0.244633	0.407788
C93	C	0.245866	-0.250483	0.484497
C94	C	0.205124	-0.201036	0.534112
C95	C	0.154405	-0.145739	0.507020
C96	C	0.144425	-0.139887	0.430307
C97	C	0.185166	-0.189334	0.380692
H98	H	0.283414	-0.291419	0.504556
H99	H	0.212513	-0.205368	0.590900
H100	H	0.124246	-0.109135	0.543748
H101	H	0.106877	-0.098951	0.410248
H102	H	0.177778	-0.185002	0.323904
C103	C	0.591648	-0.244635	0.407752
C104	C	0.513895	-0.244639	0.407765
C105	C	0.473152	-0.195201	0.457387
C106	C	0.510161	-0.145759	0.506996
C107	C	0.587918	-0.145753	0.506984
C108	C	0.628662	-0.195191	0.457362
H109	H	0.486495	-0.281241	0.371040
H110	H	0.415590	-0.195205	0.457395
H111	H	0.480000	-0.109162	0.543729
H112	H	0.615318	-0.109151	0.543709
H113	H	0.686223	-0.195187	0.457354
C114	C	0.740091	-0.244622	0.407734
C115	C	0.789876	-0.275185	0.459640
C116	C	0.826885	-0.225731	0.509244
C117	C	0.814109	-0.145715	0.506941
C118	C	0.764322	-0.115147	0.455032
C119	C	0.727312	-0.164601	0.405428
H120	H	0.799336	-0.334422	0.461347
H121	H	0.863742	-0.248360	0.547670
H122	H	0.841506	-0.109106	0.543660
H123	H	0.754862	-0.055910	0.453325
H124	H	0.690456	-0.141972	0.367002
H125	H	0.380876	-0.420593	0.231254
C126	C	0.243010	-0.433439	0.218378
C127	C	0.252465	-0.427591	0.141667
C128	C	0.215452	-0.477042	0.092064
C129	C	0.168984	-0.532339	0.119172
C130	C	0.159527	-0.538189	0.195887
C131	C	0.196540	-0.488739	0.245490
H132	H	0.286866	-0.386654	0.121597
H133	H	0.222453	-0.472711	0.035274
H134	H	0.141585	-0.568946	0.082452
H135	H	0.125126	-0.579126	0.215957
H136	H	0.189538	-0.493069	0.302280
H137	H	0.915896	-0.420500	1.052212
C138	C	1.078625	-0.244317	1.069186
C139	C	1.078638	-0.244290	1.146941
C140	C	1.124374	-0.194769	1.187748
C141	C	1.170099	-0.145276	1.150801
C142	C	1.170089	-0.145301	1.073042
C143	C	1.124352	-0.194822	1.032235
H144	H	1.044788	-0.280930	1.174295
H145	H	1.124382	-0.194751	1.245310
H146	H	1.203956	-0.108618	1.181008
H147	H	1.203938	-0.108662	1.045688
H148	H	1.124344	-0.194841	0.974673
C149	C	0.903999	-0.433394	0.913371
C150	C	0.858284	-0.482895	0.950320
C151	C	0.812549	-0.532419	0.909514
C152	C	0.812530	-0.532442	0.831760
C153	C	0.858248	-0.482940	0.794808
C154	C	0.903982	-0.433415	0.835613
H155	H	0.858296	-0.482879	1.007882
H156	H	0.778706	-0.569064	0.936870
H157	H	0.778675	-0.569103	0.801554
H158	H	0.858235	-0.482955	0.737246
H159	H	0.937825	-0.396770	0.808258
H160	H	0.915851	-0.420575	0.696451
C161	C	0.747223	-0.433431	0.218321
C162	C	0.824976	-0.433424	0.218310
C163	C	0.865724	-0.482873	0.168702
C164	C	0.828719	-0.532330	0.119104
C165	C	0.750962	-0.532340	0.119112
C166	C	0.710214	-0.482890	0.168721
H167	H	0.852373	-0.396811	0.255028
H168	H	0.923285	-0.482866	0.168696
H169	H	0.858883	-0.568936	0.082381
H170	H	0.723565	-0.568953	0.082395
H171	H	0.652653	-0.482898	0.168727
H172	H	0.608399	-0.420592	0.231220
C173	C	0.916186	-0.750817	0.387974
C174	C	0.838853	-0.740783	0.382769
C175	C	0.792787	-0.781217	0.428790
C176	C	0.824055	-0.831686	0.480017
C177	C	0.901393	-0.841722	0.485224
C178	C	0.947458	-0.801288	0.439203
H179	H	0.815703	-0.703421	0.344846
H180	H	0.735537	-0.773787	0.424935
H181	H	0.789955	-0.861618	0.514084
H182	H	0.924543	-0.879084	0.523147
H183	H	1.004709	-0.808718	0.443058
H184	H	0.902390	-1.070422	0.401936
H185	H	0.897177	-0.937066	0.407064
H186	H	1.059547	-1.070364	0.245016
H187	H	1.054327	-0.937019	0.250138
H188	H	1.066688	-0.257303	0.574581
H189	H	1.066729	-0.257217	0.930345
