data_functionalizedCrystal
_audit_creation_method	'MofGen! by Chris Wilmer'
_symmetry_space_group_name_H-M	'P1'
_symmetry_Int_Tables_number	1
_symmetry_cell_setting	triclinic
loop_
_symmetry_equiv_pos_as_xyz
  x,y,z
_cell_length_a	21.295420
_cell_length_b	21.295417
_cell_length_c	21.295411
_cell_angle_alpha	89.978356
_cell_angle_beta	90.024592
_cell_angle_gamma	89.973711
loop_
_atom_site_label
_atom_site_type_symbol
_atom_site_fract_x
_atom_site_fract_y
_atom_site_fract_z
Zn1	Zn	0.962355	0.250752	0.355912
Zn2	Zn	1.212355	0.500752	0.605912
Zn3	Zn	1.462355	0.750752	0.855912
Zn4	Zn	1.712355	1.000752	1.105912
Zn5	Zn	0.962258	0.356004	0.250637
Zn6	Zn	1.212258	0.606004	0.500637
Zn7	Zn	1.462258	0.856004	0.750637
Zn8	Zn	1.712258	1.106004	1.000637
Zn9	Zn	0.857079	0.250744	0.250657
Zn10	Zn	1.107079	0.500744	0.500657
Zn11	Zn	1.357079	0.750744	0.750657
Zn12	Zn	1.607079	1.000744	1.000657
Zn13	Zn	0.857048	0.355979	0.355869
Zn14	Zn	1.107048	0.605979	0.605869
Zn15	Zn	1.357048	0.855979	0.855869
Zn16	Zn	1.607048	1.105979	1.105869
O17	O	0.909685	0.303370	0.303269
O18	O	1.159685	0.553370	0.553269
O19	O	1.409685	0.803370	0.803269
O20	O	1.659685	1.053370	1.053269
O21	O	1.050432	0.264727	0.341957
O22	O	1.300432	0.514727	0.591957
O23	O	1.550432	0.764727	0.841957
O24	O	1.800432	1.014727	1.091957
O25	O	0.948277	0.342048	0.162550
O26	O	1.198277	0.592048	0.412550
O27	O	1.448277	0.842048	0.662550
O28	O	1.698277	1.092048	0.912550
O29	O	0.871097	0.162656	0.264645
O30	O	1.121097	0.412656	0.514645
O31	O	1.371097	0.662656	0.764645
O32	O	1.621097	0.912656	1.014645
O33	O	1.050360	0.342055	0.264612
O34	O	1.300360	0.592055	0.514612
O35	O	1.550360	0.842055	0.764612
O36	O	1.800360	1.092055	1.014612
O37	O	0.948444	0.162661	0.341976
O38	O	1.198444	0.412661	0.591976
O39	O	1.448444	0.662661	0.841976
O40	O	1.698444	0.912661	1.091976
O41	O	0.871003	0.264714	0.162565
O42	O	1.121003	0.514714	0.412565
O43	O	1.371003	0.764714	0.662565
O44	O	1.621003	1.014714	0.912565
O45	O	0.768985	0.264691	0.264604
O46	O	1.018985	0.514691	0.514604
O47	O	1.268985	0.764691	0.764604
O48	O	1.518985	1.014691	1.014604
O49	O	0.871045	0.342014	0.443964
O50	O	1.121045	0.592014	0.693964
O51	O	1.371045	0.842014	0.943964
O52	O	1.621045	1.092014	1.193964
O53	O	0.768963	0.342006	0.341903
O54	O	1.018963	0.592006	0.591903
O55	O	1.268963	0.842006	0.841903
O56	O	1.518963	1.092006	1.091903
O57	O	0.948414	0.264703	0.443996
O58	O	1.198414	0.514703	0.693996
O59	O	1.448414	0.764703	0.943996
O60	O	1.698414	1.014703	1.193996
O61	O	0.948248	0.444090	0.264570
O62	O	1.198248	0.694090	0.514570
O63	O	1.448248	0.944090	0.764570
O64	O	1.698248	1.194090	1.014570
O65	O	0.870951	0.444072	0.341884
O66	O	1.120951	0.694072	0.591884
O67	O	1.370951	0.944072	0.841884
O68	O	1.620951	1.194072	1.091884
C69	C	0.746133	0.303346	0.303251
C70	C	0.996133	0.553346	0.553251
C71	C	1.246133	0.803346	0.803251
C72	C	1.496133	1.053346	1.053251
C73	C	0.676165	0.303351	0.303258
C74	C	0.926165	0.553351	0.553258
C75	C	1.176165	0.803351	0.803258
C76	C	1.426165	1.053351	1.053258
C77	C	0.176744	0.263200	0.343617
C78	C	0.426744	0.513200	0.593617
C79	C	0.676744	0.763200	0.843617
C80	C	0.926744	1.013200	1.093617
C81	C	0.242486	0.263195	0.343617
C82	C	0.492486	0.513195	0.593617
C83	C	0.742486	0.763195	0.843617
C84	C	0.992486	1.013195	1.093617
C85	C	0.275326	0.303389	0.303283
C86	C	0.525326	0.553389	0.553283
C87	C	0.775326	0.803389	0.803283
C88	C	1.025326	1.053389	1.053283
C89	C	0.242417	0.343602	0.262958
C90	C	0.492417	0.593602	0.512958
C91	C	0.742417	0.843602	0.762958
C92	C	0.992417	1.093602	1.012958
C93	C	0.176676	0.343610	0.262964
C94	C	0.426676	0.593610	0.512964
C95	C	0.676676	0.843610	0.762964
C96	C	0.926676	1.093610	1.012964
N97	N	0.378516	0.308125	0.248164
N98	N	0.628516	0.558125	0.498164
N99	N	0.878516	0.808125	0.748164
N100	N	1.128516	1.058125	0.998164
N101	N	0.440967	0.308113	0.248160
N102	N	0.690967	0.558113	0.498160
N103	N	0.940967	0.808113	0.748160
N104	N	1.190967	1.058113	0.998160
C105	C	0.473400	0.303368	0.303265
C106	C	0.723400	0.553368	0.553265
C107	C	0.973400	0.803368	0.803265
C108	C	1.223400	1.053368	1.053265
N109	N	0.441023	0.298623	0.358375
N110	N	0.691023	0.548623	0.608375
N111	N	0.941023	0.798623	0.858375
N112	N	1.191023	1.048623	1.108375
N113	N	0.378566	0.298631	0.358377
N114	N	0.628566	0.548631	0.608377
N115	N	0.878566	0.798631	0.858377
N116	N	1.128566	1.048631	1.108377
C117	C	0.346611	0.303385	0.303273
C118	C	0.596611	0.553385	0.553273
C119	C	0.846611	0.803385	0.803273
C120	C	1.096611	1.053385	1.053273
C121	C	0.577587	0.263156	0.343591
C122	C	0.827587	0.513156	0.593591
C123	C	1.077587	0.763156	0.843591
C124	C	1.327587	1.013156	1.093591
C125	C	0.643330	0.263156	0.343592
C126	C	0.893330	0.513156	0.593592
C127	C	1.143330	0.763156	0.843592
C128	C	1.393330	1.013156	1.093592
C129	C	0.643260	0.343559	0.262927
C130	C	0.893260	0.593559	0.512927
C131	C	1.143260	0.843559	0.762927
C132	C	1.393260	1.093559	1.012927
C133	C	0.577517	0.343562	0.262932
C134	C	0.827517	0.593562	0.512932
C135	C	1.077517	0.843562	0.762932
C136	C	1.327517	1.093562	1.012932
C137	C	0.544685	0.303358	0.303263
C138	C	0.794685	0.553358	0.553263
C139	C	1.044685	0.803358	0.803263
C140	C	1.294685	1.053358	1.053263
C141	C	0.909602	0.466921	0.303234
C142	C	1.159602	0.716921	0.553234
C143	C	1.409602	0.966921	0.803234
C144	C	1.659602	1.216921	1.053234
C145	C	0.909625	0.536890	0.303240
C146	C	1.159625	0.786890	0.553240
C147	C	1.409625	1.036890	0.803240
C148	C	1.659625	1.286890	1.053240
C149	C	0.909737	0.303357	0.467459
C150	C	1.159737	0.553357	0.717459
C151	C	1.409737	0.803357	0.967459
C152	C	1.659737	1.053357	1.217459
C153	C	0.909759	0.303351	0.537427
C154	C	1.159759	0.553351	0.787427
C155	C	1.409759	0.803351	1.037427
C156	C	1.659759	1.053351	1.287427
C157	C	1.073875	0.303394	0.303287
C158	C	1.323875	0.553394	0.553287
C159	C	1.573875	0.803394	0.803287
C160	C	1.823875	1.053394	1.053287
C161	C	1.143843	0.303405	0.303295
C162	C	1.393843	0.553405	0.553295
C163	C	1.643843	0.803405	0.803295
C164	C	1.893843	1.053405	1.053295
C165	C	0.909785	0.139180	0.303318
C166	C	1.159785	0.389180	0.553318
C167	C	1.409785	0.639180	0.803318
C168	C	1.659785	0.889180	1.053318
C169	C	0.909827	0.069211	0.303338
C170	C	1.159827	0.319211	0.553338
C171	C	1.409827	0.569211	0.803338
C172	C	1.659827	0.819211	1.053338
C173	C	0.949909	0.569745	0.263024
C174	C	1.199909	0.819745	0.513024
C175	C	1.449909	1.069745	0.763024
C176	C	1.699909	1.319745	1.013024
C177	C	0.949939	0.635487	0.263038
C178	C	1.199939	0.885487	0.513038
C179	C	1.449939	1.135487	0.763038
C180	C	1.699939	1.385487	1.013038
C181	C	0.909672	0.668372	0.303262
C182	C	1.159672	0.918372	0.553262
C183	C	1.409672	1.168372	0.803262
C184	C	1.659672	1.418372	1.053262
C185	C	0.869385	0.635509	0.343485
C186	C	1.119385	0.885509	0.593485
C187	C	1.369385	1.135509	0.843485
C188	C	1.619385	1.385509	1.093485
C189	C	0.869361	0.569768	0.343474
C190	C	1.119361	0.819768	0.593474
C191	C	1.369361	1.069768	0.843474
C192	C	1.619361	1.319768	1.093474
N193	N	0.854605	0.771635	0.308055
N194	N	1.104605	1.021635	0.558055
N195	N	1.354605	1.271635	0.808055
N196	N	1.604605	1.521635	1.058055
N197	N	0.854630	0.834086	0.308061
N198	N	1.104630	1.084086	0.558061
N199	N	1.354630	1.334086	0.808061
N200	N	1.604630	1.584086	1.058061
C201	C	0.909743	0.866447	0.303298
C202	C	1.159743	1.116447	0.553298
C203	C	1.409743	1.366447	0.803298
C204	C	1.659743	1.616447	1.053298
N205	N	0.964832	0.833997	0.298515
N206	N	1.214832	1.083997	0.548515
N207	N	1.464832	1.333997	0.798515
N208	N	1.714832	1.583997	1.048515
N209	N	0.964807	0.771540	0.298505
N210	N	1.214807	1.021540	0.548505
N211	N	1.464807	1.271540	0.798505
N212	N	1.714807	1.521540	1.048505
C213	C	0.909694	0.739657	0.303278
C214	C	1.159694	0.989657	0.553278
C215	C	1.409694	1.239657	0.803278
C216	C	1.659694	1.489657	1.053278
C217	C	0.950063	0.970587	0.263095
C218	C	1.200063	1.220587	0.513095
C219	C	1.450063	1.470587	0.763095
C220	C	1.700063	1.720587	1.013095
C221	C	0.950093	1.036331	0.263114
C222	C	1.200093	1.286331	0.513114
C223	C	1.450093	1.536331	0.763114
C224	C	1.700093	1.786331	1.013114
C225	C	0.869534	1.036352	0.343557
C226	C	1.119534	1.286352	0.593557
C227	C	1.369534	1.536352	0.843557
C228	C	1.619534	1.786352	1.093557
C229	C	0.869509	0.970609	0.343542
C230	C	1.119509	1.220609	0.593542
C231	C	1.369509	1.470609	0.843542
C232	C	1.619509	1.720609	1.093542
C233	C	0.909773	0.937731	0.303308
C234	C	1.159773	1.187731	0.553308
C235	C	1.409773	1.437731	0.803308
C236	C	1.659773	1.687731	1.053308
C237	C	0.909669	0.303338	0.139717
C238	C	1.159669	0.553338	0.389717
C239	C	1.409669	0.803338	0.639717
C240	C	1.659669	1.053338	0.889717
C241	C	0.909769	0.303166	0.069749
C242	C	1.159769	0.553166	0.319749
C243	C	1.409769	0.803166	0.569749
C244	C	1.659769	1.053166	0.819749
C245	C	0.950044	0.263094	0.570311
C246	C	1.200044	0.513094	0.820311
C247	C	1.450044	0.763094	1.070311
C248	C	1.700044	1.013094	1.320311
C249	C	0.950043	0.263066	0.636054
C250	C	1.200043	0.513066	0.886054
C251	C	1.450043	0.763066	1.136054
C252	C	1.700043	1.013066	1.386054
C253	C	0.909764	0.303308	0.668910
C254	C	1.159764	0.553308	0.918910
C255	C	1.409764	0.803308	1.168910
C256	C	1.659764	1.053308	1.418910
C257	C	0.869472	0.343568	0.636018
C258	C	1.119472	0.593568	0.886018
C259	C	1.369472	0.843568	1.136018
C260	C	1.619472	1.093568	1.386018
C261	C	0.869470	0.343589	0.570276
C262	C	1.119470	0.593589	0.820276
C263	C	1.369470	0.843589	1.070276
C264	C	1.619470	1.093589	1.320276
N265	N	0.904908	0.358375	0.772125
N266	N	1.154908	0.608375	1.022125
N267	N	1.404908	0.858375	1.272125
N268	N	1.654908	1.108375	1.522125
N269	N	0.904914	0.358353	0.834577
N270	N	1.154914	0.608353	1.084577
N271	N	1.404914	0.858353	1.334577
N272	N	1.654914	1.108353	1.584577
C273	C	0.909768	0.303244	0.866985
C274	C	1.159768	0.553244	1.116985
C275	C	1.409768	0.803244	1.366985
C276	C	1.659768	1.053244	1.616985
N277	N	0.914629	0.248157	0.834582
N278	N	1.164629	0.498157	1.084582
N279	N	1.414629	0.748157	1.334582
N280	N	1.664629	0.998157	1.584582
N281	N	0.914626	0.248180	0.772125
N282	N	1.164626	0.498180	1.022125
N283	N	1.414626	0.748180	1.272125
N284	N	1.664626	0.998180	1.522125
C285	C	0.909762	0.303288	0.740195
C286	C	1.159762	0.553288	0.990195
C287	C	1.409762	0.803288	1.240195
C288	C	1.659762	1.053288	1.490195
C289	C	0.950054	0.262953	0.971154
C290	C	1.200054	0.512953	1.221154
C291	C	1.450054	0.762953	1.471154
C292	C	1.700054	1.012953	1.721154
C293	C	0.950048	0.262925	1.036898
C294	C	1.200048	0.512925	1.286898
C295	C	1.450048	0.762925	1.536898
C296	C	1.700048	1.012925	1.786898
C297	C	0.869481	0.343432	1.036861
C298	C	1.119481	0.593432	1.286861
C299	C	1.369481	0.843432	1.536861
C300	C	1.619481	1.093432	1.786861
C301	C	0.869483	0.343455	0.971118
C302	C	1.119483	0.593455	1.221118
C303	C	1.369483	0.843455	1.471118
C304	C	1.619483	1.093455	1.721118
C305	C	0.909773	0.303216	0.938269
C306	C	1.159773	0.553216	1.188269
C307	C	1.409773	0.803216	1.438269
C308	C	1.659773	1.053216	1.688269
H309	H	0.550853	0.230419	0.376430
H310	H	0.800853	0.480419	0.626430
H311	H	1.050853	0.730419	0.876430
H312	H	1.300853	0.980419	1.126430
Br313	Br	0.814810	0.398094	0.926486
Br314	Br	1.064810	0.648094	1.176486
Br315	Br	1.314810	0.898094	1.426486
Br316	Br	1.564810	1.148094	1.676486
H317	H	0.982850	0.230328	0.543570
H318	H	1.232850	0.480328	0.793570
H319	H	1.482850	0.730328	1.043570
H320	H	1.732850	0.980328	1.293570
Br321	Br	0.687983	0.208594	0.398327
Br322	Br	0.937983	0.458594	0.648327
Br323	Br	1.187983	0.708594	0.898327
Br324	Br	1.437983	0.958594	1.148327
Br325	Br	0.814808	0.398038	1.081444
Br326	Br	1.064808	0.648038	1.331444
Br327	Br	1.314808	0.898038	1.581444
Br328	Br	1.564808	1.148038	1.831444
H329	H	0.269279	0.230453	0.376452
H330	H	0.519279	0.480453	0.626452
H331	H	0.769279	0.730453	0.876452
H332	H	1.019279	0.980453	1.126452
H333	H	0.149888	0.376351	0.230128
H334	H	0.399888	0.626351	0.480128
H335	H	0.649888	0.876351	0.730128
H336	H	0.899888	1.126351	0.980128
Br337	Br	0.687820	0.398116	0.208195
Br338	Br	0.937820	0.648116	0.458195
Br339	Br	1.187820	0.898116	0.708195
Br340	Br	1.437820	1.148116	0.958195
Br341	Br	0.132188	0.208641	0.398356
Br342	Br	0.382188	0.458641	0.648356
Br343	Br	0.632188	0.708641	0.898356
Br344	Br	0.882188	0.958641	1.148356
Br345	Br	0.286983	0.398155	0.208224
Br346	Br	0.536983	0.648155	0.458224
Br347	Br	0.786983	0.898155	0.708224
Br348	Br	1.036983	1.148155	0.958224
H349	H	0.982902	1.063080	0.230367
H350	H	1.232902	1.313080	0.480367
H351	H	1.482902	1.563080	0.730367
H352	H	1.732902	1.813080	0.980367
Br353	Br	1.004614	0.680086	0.208456
Br354	Br	1.254614	0.930086	0.458456
Br355	Br	1.504614	1.180086	0.708456
Br356	Br	1.754614	1.430086	0.958456
H357	H	0.982846	0.230281	0.662833
H358	H	1.232846	0.480281	0.912833
H359	H	1.482846	0.730281	1.162833
H360	H	1.732846	0.980281	1.412833
H361	H	0.836601	0.662288	0.376237
H362	H	1.086601	0.912288	0.626237
H363	H	1.336601	1.162288	0.876237
H364	H	1.586601	1.412288	1.126237
H365	H	0.836675	0.376330	0.662773
H366	H	1.086675	0.626330	0.912773
H367	H	1.336675	0.876330	1.162773
H368	H	1.586675	1.126330	1.412773
Br369	Br	0.814893	1.080974	0.398154
Br370	Br	1.064893	1.330974	0.648154
Br371	Br	1.314893	1.580974	0.898154
Br372	Br	1.564893	1.830974	1.148154
Br373	Br	0.532863	0.398120	0.208196
Br374	Br	0.782863	0.648120	0.458196
Br375	Br	1.032863	0.898120	0.708196
Br376	Br	1.282863	1.148120	0.958196
H377	H	0.836663	0.376371	0.543503
H378	H	1.086663	0.626371	0.793503
H379	H	1.336663	0.876371	1.043503
H380	H	1.586663	1.126371	1.293503
H381	H	0.982852	0.230139	1.063671
H382	H	1.232852	0.480139	1.313671
H383	H	1.482852	0.730139	1.563671
H384	H	1.732852	0.980139	1.813671
H385	H	0.982695	0.542977	0.230265
H386	H	1.232695	0.792977	0.480265
H387	H	1.482695	1.042977	0.730265
H388	H	1.732695	1.292977	0.980265
Br389	Br	0.814686	0.525175	0.398058
Br390	Br	1.064686	0.775175	0.648058
Br391	Br	1.314686	1.025175	0.898058
Br392	Br	1.564686	1.275175	1.148058
H393	H	0.982856	0.230185	0.944407
H394	H	1.232856	0.480185	1.194407
H395	H	1.482856	0.730185	1.444407
H396	H	1.732856	0.980185	1.694407
H397	H	0.982850	0.943817	0.230336
H398	H	1.232850	1.193817	0.480336
H399	H	1.482850	1.443817	0.730336
H400	H	1.732850	1.693817	0.980336
Br401	Br	0.814833	0.926017	0.398122
Br402	Br	1.064833	1.176017	0.648122
Br403	Br	1.314833	1.426017	0.898122
Br404	Br	1.564833	1.676017	1.148122
