data_functionalizedCrystal
_audit_creation_method	'MofGen! by Chris Wilmer'
_symmetry_space_group_name_H-M	'P1'
_symmetry_Int_Tables_number	1
_symmetry_cell_setting	triclinic
loop_
_symmetry_equiv_pos_as_xyz
  x,y,z
_cell_length_a	14.044220
_cell_length_b	11.026623
_cell_length_c	10.065875
_cell_angle_alpha	100.697799
_cell_angle_beta	99.592716
_cell_angle_gamma	79.112210
loop_
_atom_site_label
_atom_site_type_symbol
_atom_site_fract_x
_atom_site_fract_y
_atom_site_fract_z
O1	O	0.393292	-1.670494	-0.113518
O2	O	0.726625	-1.337161	0.219815
O3	O	1.059959	-1.003827	0.553149
O4	O	0.347242	-1.312203	-0.113517
O5	O	0.680575	-0.978870	0.219817
O6	O	1.013909	-0.645536	0.553150
O7	O	0.231366	-1.485969	-0.113504
O8	O	0.564699	-1.152635	0.219829
O9	O	0.898033	-0.819302	0.553163
O10	O	0.509168	-1.496728	-0.113531
O11	O	0.842501	-1.163395	0.219802
O12	O	1.175835	-0.830062	0.553136
O13	O	0.253575	-1.452846	0.113482
O14	O	0.586909	-1.119513	0.446816
O15	O	0.920242	-0.786180	0.780149
O16	O	0.369451	-1.279081	0.113470
O17	O	0.702785	-0.945747	0.446803
O18	O	1.036118	-0.612414	0.780136
O19	O	0.415501	-1.637372	0.113468
O20	O	0.748835	-1.304038	0.446802
O21	O	1.082168	-0.970705	0.780135
Zn22	Zn	0.396003	-1.452967	0.149508
Zn23	Zn	0.729336	-1.119634	0.482841
Zn24	Zn	1.062669	-0.786301	0.816175
Zn25	Zn	0.366741	-1.496607	-0.149556
Zn26	Zn	0.700074	-1.163274	0.183777
Zn27	Zn	1.033407	-0.829941	0.517110
O28	O	0.531377	-1.463606	0.113455
O29	O	0.864711	-1.130273	0.446789
O30	O	1.198044	-0.796939	0.780122
C31	C	0.349851	-1.249511	-0.000023
C32	C	0.683185	-0.916178	0.333310
C33	C	1.016518	-0.582845	0.666643
C34	C	0.324527	-1.112056	-0.000022
C35	C	0.657860	-0.778723	0.333311
C36	C	0.991193	-0.445389	0.666644
C37	C	0.206353	-1.464699	-0.000010
C38	C	0.539686	-1.131366	0.333323
C39	C	0.873020	-0.798032	0.666657
C40	C	0.098731	-1.450655	-0.000008
C41	C	0.432064	-1.117322	0.333325
C42	C	0.765398	-0.783988	0.666658
C43	C	0.394450	-1.045821	-0.000030
C44	C	0.727783	-0.712487	0.333304
C45	C	1.061117	-0.379154	0.666637
C46	C	0.368277	-0.903753	-0.000029
C47	C	0.701611	-0.570420	0.333304
C48	C	1.034944	-0.237087	0.666638
C49	C	-0.098313	-1.424983	-0.000028
C50	C	0.235020	-1.091650	0.333305
C51	C	0.568353	-0.758316	0.666639
C52	C	-0.138951	-1.524588	-0.000032
C53	C	0.194382	-1.191255	0.333301
C54	C	0.527716	-0.857921	0.666634
C55	C	-0.248593	-1.510304	-0.000043
C56	C	0.084740	-1.176970	0.333290
C57	C	0.418074	-0.843637	0.666623
C58	C	0.011338	-1.439265	-0.000017
C59	C	0.344672	-1.105932	0.333316
C60	C	0.678005	-0.772599	0.666650
C61	C	0.556390	-1.484876	-0.000041
C62	C	0.889723	-1.151543	0.333292
C63	C	1.223057	-0.818209	0.666625
C64	C	0.664011	-1.498921	-0.000052
C65	C	0.997345	-1.165588	0.333281
C66	C	1.330678	-0.832255	0.666615
C67	C	0.412890	-0.700064	-0.000028
C68	C	0.746224	-0.366730	0.333306
C69	C	1.079557	-0.033397	0.666639
C70	C	0.438211	-0.837520	-0.000036
C71	C	0.771544	-0.504187	0.333297
C72	C	1.104878	-0.170854	0.666630
N73	N	0.415974	-1.423193	0.353611
N74	N	0.749307	-1.089860	0.686945
N75	N	1.082641	-0.756526	1.020278
N76	N	0.346763	-1.526391	-0.353660
N77	N	0.680097	-1.193057	-0.020326
N78	N	1.013430	-0.859724	0.313007
C79	C	0.373682	-1.486240	0.421395
C80	C	0.707015	-1.152906	0.754728
C81	C	1.040349	-0.819573	1.088061
C82	C	0.389062	-1.463335	0.578560
C83	C	0.722395	-1.130002	0.911894
C84	C	1.055728	-0.796668	1.245227
H85	H	0.473691	-1.094290	-0.000030
H86	H	0.807024	-0.760956	0.333304
H87	H	1.140358	-0.427623	0.666637
H88	H	0.299162	-1.597325	0.588025
H89	H	0.632495	-1.263991	0.921358
H90	H	0.965829	-0.930658	1.254691
H91	H	0.517458	-0.885982	-0.000035
H92	H	0.850791	-0.552649	0.333298
H93	H	1.184124	-0.219316	0.666632
H94	H	-0.145863	-1.328988	-0.000031
H95	H	0.187470	-0.995655	0.333302
H96	H	0.520803	-0.662321	0.666636
H97	H	0.326084	-1.557169	0.363076
H98	H	0.659417	-1.223836	0.696409
H99	H	0.992750	-0.890502	1.029742
H100	H	0.436654	-1.392391	0.636876
H101	H	0.769988	-1.059058	0.970209
H102	H	1.103321	-0.725725	1.303543
H103	H	0.463564	-1.352254	0.411932
H104	H	0.796897	-1.018921	0.745265
H105	H	1.130230	-0.685587	1.078599
H106	H	0.289029	-0.855293	-0.000056
H107	H	0.622362	-0.521960	0.333277
H108	H	0.955695	-0.188627	0.666611
N109	N	0.219562	-1.047866	0.000005
N110	N	0.552895	-0.714533	0.333338
N111	N	0.886229	-0.381199	0.666671
H112	H	0.215744	-0.955476	0.000007
H113	H	0.549078	-0.622142	0.333341
H114	H	0.882411	-0.288809	0.666674
H115	H	0.178130	-1.084930	-0.084137
H116	H	0.511464	-0.751597	0.249197
H117	H	0.844797	-0.418263	0.582530
H118	H	-0.091407	-1.620605	-0.000124
H119	H	0.241926	-1.287271	0.333209
H120	H	0.575260	-0.953938	0.666542
