data_functionalizedCrystal
_audit_creation_method	'MofGen! by Chris Wilmer'
_symmetry_space_group_name_H-M	'P1'
_symmetry_Int_Tables_number	1
_symmetry_cell_setting	triclinic
loop_
_symmetry_equiv_pos_as_xyz
  x,y,z
_cell_length_a	16.992694
_cell_length_b	15.538191
_cell_length_c	15.455313
_cell_angle_alpha	91.603349
_cell_angle_beta	87.142206
_cell_angle_gamma	68.970158
loop_
_atom_site_label
_atom_site_type_symbol
_atom_site_fract_x
_atom_site_fract_y
_atom_site_fract_z
O1	O	0.989241	0.191780	-0.072014
O2	O	0.761568	0.189633	-0.072040
O3	O	0.919723	0.056913	-0.072026
O4	O	0.831085	0.324499	-0.072028
O5	O	0.910688	0.064469	0.072235
O6	O	0.752533	0.197189	0.072222
O7	O	0.980206	0.199336	0.072247
Cu8	Cu	0.865545	0.198952	0.085407
Cu9	Cu	0.876229	0.190016	-0.085199
O10	O	0.822051	0.332055	0.072233
C11	C	0.728624	0.190651	0.000088
C12	C	0.643924	0.182416	0.000078
C13	C	0.571070	0.261869	0.000078
C14	C	0.491487	0.254127	0.000090
C15	C	0.484758	0.166930	0.000095
C16	C	0.557620	0.087471	0.000098
C17	C	0.637201	0.095214	0.000092
C18	C	0.250294	0.134837	0.000119
C19	C	0.170704	0.127099	0.000122
C20	C	0.104576	0.293756	0.000116
C21	C	0.184162	0.301491	0.000105
C22	C	0.257016	0.222033	0.000112
N23	N	0.403412	0.159014	0.000105
N24	N	0.338360	0.229950	0.000108
C25	C	0.924480	0.026294	0.000103
C26	C	0.952104	-0.076201	0.000097
C27	C	0.677671	-0.384652	0.000085
C28	C	0.703646	-0.480962	0.000090
C29	C	0.849754	-0.492404	0.000106
C30	C	0.823791	-0.396094	0.000097
C31	C	0.737748	-0.342224	0.000087
C32	C	0.883868	-0.353667	0.000099
C33	C	0.857907	-0.257364	0.000095
C34	C	0.771868	-0.203488	0.000088
C35	C	0.711786	-0.245922	0.000083
C36	C	0.969911	-0.407537	0.000115
C37	C	1.029988	-0.365110	0.000117
C38	C	1.004027	-0.268806	0.000106
C39	C	0.917988	-0.214930	0.000099
C40	C	1.064108	-0.226373	0.000111
C41	C	1.038146	-0.130070	0.000107
C42	C	0.892026	-0.118628	0.000095
C43	C	1.013150	0.198318	0.000118
C44	C	1.097851	0.206553	0.000122
C45	C	0.817294	0.362675	0.000103
C46	C	0.789671	0.465169	0.000103
N47	N	0.858036	0.205237	0.205401
N48	N	0.883746	0.183724	-0.205194
C49	C	0.925237	0.148877	0.250801
C50	C	0.919563	0.153639	0.341609
C51	C	0.846689	0.214767	0.387015
C52	C	0.779482	0.271130	0.341608
C53	C	0.785154	0.266362	0.250803
C54	C	0.822212	0.235320	0.658594
C55	C	0.816545	0.240085	0.749406
C56	C	0.956626	0.122592	0.749400
C57	C	0.962294	0.117834	0.658593
C58	C	0.895085	0.174194	0.613194
N59	N	0.840889	0.219638	0.479834
N60	N	0.900884	0.169317	0.520376
H61	H	0.576539	0.332874	0.000072
C62	C	0.583025	-0.325390	0.000066
H63	H	0.550959	-0.364449	0.000067
H64	H	0.573017	-0.290221	-0.050242
H65	H	0.566708	-0.284948	0.050378
C66	C	1.124629	-0.424370	0.000123
H67	H	1.131488	-0.487802	0.000120
H68	H	1.147248	-0.408301	0.050428
H69	H	1.153538	-0.413577	-0.050192
H70	H	0.757200	0.289866	0.786371
H71	H	0.165234	0.056090	0.000126
C72	C	1.042452	0.050588	0.608653
H73	H	1.081660	0.017697	0.648698
H74	H	1.067169	0.084330	0.573219
H75	H	1.027978	0.008237	0.573240
H76	H	0.974283	0.107745	0.378573
C77	C	1.104229	-0.083396	0.000108
H78	H	1.159191	-0.129271	0.000106
H79	H	1.093986	-0.043429	0.050414
H80	H	1.100287	-0.048704	-0.050207
H81	H	1.011344	0.076706	0.786372
C82	C	0.748289	0.297321	0.608667
H83	H	0.704082	0.334415	0.648717
H84	H	0.727993	0.259862	0.573252
H85	H	0.767185	0.335954	0.573237
C86	C	0.617141	-0.186660	0.000064
H87	H	0.585075	-0.225719	0.000065
H88	H	0.607133	-0.151492	-0.050245
H89	H	0.600824	-0.146218	0.050376
H90	H	0.309604	0.070135	0.000125
H91	H	0.720144	0.320898	0.378583
C92	C	0.550225	-0.008446	0.000103
H93	H	0.605014	-0.054656	0.000110
H94	H	0.523699	-0.017567	-0.050202
H95	H	0.517411	-0.012294	0.050418
C96	C	0.711237	0.328359	0.200859
H97	H	0.725048	0.316759	0.140275
H98	H	0.701119	0.391325	0.215730
H99	H	0.661938	0.315223	0.215750
C100	C	1.158748	-0.285635	0.000126
H101	H	1.165605	-0.349066	0.000126
H102	H	1.181362	-0.269562	0.050433
H103	H	1.187663	-0.274846	-0.050188
H104	H	0.654716	-0.515501	0.000100
C105	C	0.717341	0.007815	0.000083
H106	H	0.701938	-0.045226	0.000078
H107	H	0.746620	0.010004	0.050387
H108	H	0.752900	0.004740	-0.050234
C109	C	1.005398	0.081634	0.200863
H110	H	1.044603	0.048744	0.240910
H111	H	1.030117	0.115374	0.165430
H112	H	0.990925	0.039282	0.165451
C113	C	0.797381	-0.059362	0.000079
H114	H	0.790528	0.004068	0.000071
H115	H	0.768461	-0.070153	0.050380
H116	H	0.774772	-0.075429	-0.050240
H117	H	0.991046	-0.485953	0.000111
H118	H	0.432169	0.318826	0.000089
C119	C	0.191557	0.397408	0.000111
H120	H	0.136768	0.443621	0.000122
H121	H	0.224372	0.401263	-0.050196
H122	H	0.218082	0.406522	0.050425
H123	H	0.045251	0.358447	0.000112
H124	H	0.750731	-0.125072	0.000089
H125	H	0.919810	-0.536277	0.000117
