data_functionalizedCrystal
_audit_creation_method	'MofGen! by Chris Wilmer'
_symmetry_space_group_name_H-M	'P1'
_symmetry_Int_Tables_number	1
_symmetry_cell_setting	triclinic
loop_
_symmetry_equiv_pos_as_xyz
  x,y,z
_cell_length_a	15.297475
_cell_length_b	16.959453
_cell_length_c	15.296720
_cell_angle_alpha	80.355972
_cell_angle_beta	88.382886
_cell_angle_gamma	80.322456
loop_
_atom_site_label
_atom_site_type_symbol
_atom_site_fract_x
_atom_site_fract_y
_atom_site_fract_z
Zn1	Zn	1.253431	-0.615175	0.726583
Zn2	Zn	1.278700	-0.728993	0.580096
Zn3	Zn	1.132307	-0.570770	0.554825
Zn4	Zn	1.106926	-0.721223	0.701225
O5	O	1.192841	-0.659040	0.640683
O6	O	1.379362	-0.652108	0.728340
O7	O	1.280477	-0.692672	0.454170
O8	O	1.148422	-0.466062	0.577646
O9	O	1.397927	-0.735730	0.620717
O10	O	1.237411	-0.498686	0.703836
O11	O	1.172923	-0.576427	0.435603
O12	O	1.006361	-0.568893	0.553057
O13	O	1.105163	-0.722487	0.827163
O14	O	0.987713	-0.679430	0.660616
O15	O	1.212800	-0.644574	0.845794
O16	O	1.255866	-0.838560	0.596128
O17	O	1.129664	-0.832852	0.685120
C18	C	0.965254	-0.618500	0.601343
C19	C	0.867887	-0.601179	0.584534
C20	C	1.192773	-0.864389	0.640638
C21	C	1.192820	-0.952257	0.640662
C22	C	0.554750	-0.782846	0.760820
C23	C	0.646231	-0.799126	0.776610
C24	C	0.701650	-0.749640	0.728593
C25	C	0.665578	-0.683872	0.664782
C26	C	0.574089	-0.667594	0.648985
C27	C	0.720989	-0.634389	0.616758
C28	C	0.684917	-0.568621	0.552947
C29	C	0.593437	-0.552346	0.537154
C30	C	0.538018	-0.601831	0.585171
C31	C	0.812478	-0.650667	0.632555
C32	C	0.831817	-0.535415	0.520720
C33	C	0.740336	-0.519135	0.504930
C34	C	1.239231	-1.340693	0.706508
C35	C	1.146673	-1.306843	0.575030
C36	C	1.146644	-1.224289	0.575004
C37	C	1.192908	-1.199934	0.640732
C38	C	1.239201	-1.258132	0.706486
C39	C	1.100344	-1.166085	0.509257
C40	C	1.100312	-1.083525	0.509229
C41	C	1.146582	-1.059168	0.574954
C42	C	1.192878	-1.117372	0.640710
C43	C	1.239143	-1.093016	0.706438
C44	C	1.285445	-1.151220	0.772191
C45	C	1.285472	-1.233775	0.772211
C46	C	1.146555	-0.976612	0.574934
C47	C	1.239113	-1.010455	0.706416
C48	C	1.421317	-0.699739	0.680176
C49	C	1.518679	-0.717082	0.697006
C50	C	1.153332	-0.687617	0.869149
C51	C	1.136495	-0.699795	0.966508
C52	C	1.192929	-0.452896	0.640751
C53	C	1.192967	-0.365049	0.640780
C54	C	1.232247	-0.630526	0.413113
C55	C	1.249253	-0.618156	0.315784
C56	C	1.313207	-0.571870	1.279748
C57	C	1.329031	-0.560430	1.188276
C58	C	1.280898	-0.595270	1.132829
C59	C	1.216939	-0.641552	1.168864
C60	C	1.201118	-0.652998	1.260347
C61	C	1.168809	-0.676399	1.113428
C62	C	1.104850	-0.722681	1.149463
C63	C	1.089031	-0.734124	1.240937
C64	C	1.137164	-0.699284	1.296383
C65	C	1.184630	-0.664953	1.021946
C66	C	1.072541	-0.746081	1.002544
C67	C	1.056717	-0.757521	1.094017
H68	H	0.841838	-0.704215	0.684511
O69	O	1.360091	-0.538134	1.333588
C70	C	1.504276	-0.529786	1.387311
C71	C	1.451279	-0.568069	1.326316
H72	H	1.578012	-0.553961	1.381438
H73	H	1.482058	-0.545937	1.458905
H74	H	1.491987	-0.461065	1.366697
H75	H	1.463542	-0.636796	1.346850
H76	H	1.473506	-0.551854	1.254736
H77	H	0.776137	-0.762899	0.741454
O78	O	0.681417	-0.862990	0.838539
C79	C	0.813772	-0.939107	0.912483
C80	C	0.774044	-0.866765	0.842300
H81	H	0.888664	-0.942173	0.915560
H82	H	0.798515	-0.997709	0.893882
H83	H	0.783530	-0.930959	0.980016
H84	H	0.804263	-0.874834	0.774742
H85	H	0.789293	-0.808189	0.860977
H86	H	1.276932	-1.388086	0.760040
H87	H	0.509622	-0.823134	0.799903
O88	O	1.246847	-0.620115	0.986919
C89	C	1.382945	-0.617601	0.904035
C90	C	1.312560	-0.668485	0.943676
H91	H	1.436081	-0.656682	0.869048
H92	H	1.414697	-0.594683	0.959346
H93	H	1.350122	-0.563739	0.854310
H94	H	1.345315	-0.722383	0.993391
H95	H	1.280812	-0.691341	0.888317
O96	O	1.101813	-1.330641	0.511227
C97	C	1.060798	-1.442824	0.453023
C98	C	1.111654	-1.415984	0.525326
H99	H	1.068721	-1.511825	0.464408
H100	H	1.088454	-1.420585	0.385053
H101	H	0.987508	-1.415921	0.456117
H102	H	1.184950	-1.442876	0.522314
H103	H	1.083925	-1.438211	0.593264
H104	H	0.463526	-0.588578	0.572320
O105	O	0.705410	-0.455294	0.442836
C106	C	0.703101	-0.393127	0.289071
C107	C	0.742740	-0.465462	0.359304
H108	H	0.733252	-0.401331	0.221516
H109	H	0.718453	-0.334536	0.307618
H110	H	0.628193	-0.389989	0.286079
H111	H	0.817653	-0.468676	0.362333
H112	H	0.727318	-0.524017	0.340730
H113	H	1.108852	-0.929227	0.521402
H114	H	1.062675	-1.185922	0.455746
H115	H	1.062612	-1.036140	0.455689
H116	H	1.276791	-0.990632	0.759937
H117	H	1.293786	-0.585954	1.058349
O118	O	1.391050	-0.515339	1.153308
C119	C	1.438480	-0.384982	1.132802
C120	C	1.368168	-0.435959	1.172422
H121	H	1.420015	-0.320798	1.148257
H122	H	1.441532	-0.382704	1.057886
H123	H	1.505989	-0.413730	1.162989
H124	H	1.300622	-0.407251	1.142305
H125	H	1.365194	-0.438239	1.247339
O126	O	0.558537	-0.488410	0.475160
C127	C	0.587382	-0.375843	0.365866
C128	C	0.627018	-0.448212	0.436061
H129	H	0.642732	-0.343333	0.334221
H130	H	0.537631	-0.331940	0.398734
H131	H	0.552436	-0.398720	0.312628
H132	H	0.662009	-0.425408	0.489319
H133	H	0.676723	-0.492100	0.403129
H134	H	1.124284	-0.708596	1.370868
H135	H	0.876939	-0.495121	0.481619
H136	H	1.036958	-0.771818	1.270274
O137	O	0.994653	-0.802588	1.128938
C138	C	0.947259	-0.932965	1.149587
C139	C	1.017598	-0.882015	1.109976
H140	H	0.965795	-0.997197	1.134286
H141	H	0.879731	-0.904315	1.119379
H142	H	0.944209	-0.935114	1.224483
H143	H	1.020728	-0.879848	1.035081
H144	H	1.085091	-0.910684	1.140252
O145	O	1.330369	-1.127419	0.835951
C146	C	1.371281	-1.015222	0.894210
C147	C	1.320387	-1.042069	0.821941
H148	H	1.363213	-0.946215	0.882919
H149	H	1.444604	-1.042012	0.891103
H150	H	1.343650	-1.037571	0.962156
H151	H	1.347943	-1.019728	0.753960
H152	H	1.247070	-1.015288	0.825126
O153	O	1.330362	-1.290416	0.836040
C154	C	1.371458	-1.432603	0.894314
C155	C	1.320571	-1.368540	0.821988
H156	H	1.363576	-1.495782	0.882968
H157	H	1.343795	-1.422498	0.962276
H158	H	1.444738	-1.426953	0.891208
H159	H	1.247285	-1.374152	0.825012
H160	H	1.348307	-1.378665	0.754058
O161	O	1.025831	-0.779841	0.948563
C162	C	1.000567	-0.798203	0.799041
C163	C	1.053507	-0.759910	0.860077
H164	H	1.022936	-0.782117	0.727491
H165	H	0.926822	-0.773980	0.804753
H166	H	1.012793	-0.866918	0.819712
H167	H	1.041355	-0.691194	0.839447
H168	H	1.127234	-0.784197	0.854357
