data_functionalizedCrystal
_audit_creation_method	'MofGen! by Chris Wilmer'
_symmetry_space_group_name_H-M	'P1'
_symmetry_Int_Tables_number	1
_symmetry_cell_setting	triclinic
loop_
_symmetry_equiv_pos_as_xyz
  x,y,z
_cell_length_a	14.971482
_cell_length_b	11.792254
_cell_length_c	14.048226
_cell_angle_alpha	89.993407
_cell_angle_beta	89.994098
_cell_angle_gamma	83.905603
loop_
_atom_site_label
_atom_site_type_symbol
_atom_site_fract_x
_atom_site_fract_y
_atom_site_fract_z
O1	O	1.187547	0.147888	-0.079149
O2	O	1.687547	0.647888	0.420851
O3	O	0.927218	0.165605	-0.079153
O4	O	1.427218	0.665605	0.420847
O5	O	1.063694	-0.008464	-0.079144
O6	O	1.563694	0.491536	0.420856
O7	O	1.051071	0.321957	-0.079158
O8	O	1.551071	0.821957	0.420842
O9	O	1.063677	-0.008474	0.079177
O10	O	1.563677	0.491526	0.579177
O11	O	0.927201	0.165595	0.079168
O12	O	1.427201	0.665595	0.579168
O13	O	1.187530	0.147878	0.079173
O14	O	1.687530	0.647878	0.579173
Zn15	Zn	1.057363	0.156735	0.104307
Zn16	Zn	1.557363	0.656735	0.604307
Zn17	Zn	1.057385	0.156748	-0.104288
Zn18	Zn	1.557385	0.656748	0.395712
O19	O	1.051054	0.321947	0.079163
O20	O	1.551054	0.821947	0.579163
C21	C	0.893882	0.164808	0.000007
C22	C	1.393882	0.664808	0.500007
C23	C	0.794575	0.162436	0.000005
C24	C	1.294575	0.662436	0.500005
C25	C	0.747917	0.161313	0.086307
C26	C	1.247917	0.661313	0.586307
C27	C	0.654609	0.159066	0.086308
C28	C	1.154609	0.659066	0.586308
C29	C	0.607961	0.157950	0.000006
C30	C	1.107961	0.657950	0.500006
C31	C	0.654626	0.159070	-0.086302
C32	C	1.154626	0.659070	0.413698
C33	C	0.747932	0.161309	-0.086302
C34	C	1.247932	0.661309	0.413698
C35	C	0.460145	0.154406	-0.086296
C36	C	0.960145	0.654406	0.413704
C37	C	0.366832	0.152169	-0.086296
C38	C	0.866832	0.652169	0.413704
C39	C	0.366822	0.152164	0.086315
C40	C	0.866822	0.652164	0.586315
C41	C	0.460128	0.154403	0.086315
C42	C	0.960128	0.654403	0.586315
C43	C	0.506787	0.155524	0.000006
C44	C	1.006787	0.655524	0.500006
C45	C	1.062891	-0.050755	0.000016
C46	C	1.562891	0.449245	0.500016
C47	C	1.060510	-0.176752	0.000015
C48	C	1.560510	0.323248	0.500015
C49	C	1.058577	-0.279076	0.000012
C50	C	1.558577	0.220924	0.500012
C51	C	1.056159	-0.407447	0.000003
C52	C	1.556159	0.092553	0.500003
C53	C	1.220867	0.148675	0.000010
C54	C	1.720867	0.648675	0.500010
C55	C	1.320173	0.151047	0.000006
C56	C	1.820173	0.651047	0.500006
C57	C	1.051858	0.364237	0.000001
C58	C	1.551858	0.864237	0.500001
C59	C	1.054238	0.490235	-0.000004
C60	C	1.554238	0.990235	0.499996
N61	N	1.057355	0.156725	0.246668
N62	N	1.557355	0.656725	0.746668
N63	N	1.057400	0.156749	-0.246649
N64	N	1.557400	0.656749	0.253351
C65	C	1.117806	0.079679	0.296490
C66	C	1.617806	0.579679	0.796490
C67	C	1.117812	0.079678	0.396148
C68	C	1.617812	0.579678	0.896148
C69	C	1.057371	0.156730	0.445981
C70	C	1.557371	0.656730	0.945981
C71	C	0.996913	0.233779	0.396152
C72	C	1.496913	0.733779	0.896152
C73	C	0.996904	0.233773	0.296496
C74	C	1.496904	0.733773	0.796496
C75	C	0.996939	0.233787	0.603867
C76	C	1.496939	0.733787	1.103867
C77	C	0.996950	0.233795	0.703529
C78	C	1.496950	0.733795	1.203529
C79	C	1.117847	0.079692	0.703518
C80	C	1.617847	0.579692	1.203518
C81	C	1.117838	0.079687	0.603862
C82	C	1.617838	0.579687	1.103862
C83	C	1.057381	0.156738	0.554040
C84	C	1.557381	0.656738	1.054040
H85	H	0.328853	0.151262	-0.156571
H86	H	0.828853	0.651262	0.343429
H87	H	0.947731	0.296537	0.744099
H88	H	1.447731	0.796537	1.244099
H89	H	0.947706	0.296527	0.563305
H90	H	1.447706	0.796527	1.063305
C91	C	1.184291	-0.005106	0.450947
C92	C	1.684291	0.494894	0.950947
N93	N	1.234358	-0.068979	0.492222
N94	N	1.734358	0.431021	0.992222
H95	H	0.498131	0.155320	-0.156578
H96	H	0.998131	0.655320	0.343422
C97	C	1.184347	-0.005069	0.758324
C98	C	1.684347	0.494931	1.258324
N99	N	1.234434	-0.068907	0.799608
N100	N	1.734434	0.431093	1.299608
H101	H	0.785890	0.162231	0.156584
H102	H	1.285890	0.662231	0.656584
H103	H	0.616626	0.158133	0.156584
H104	H	1.116626	0.658133	0.656584
H105	H	0.498106	0.155318	0.156589
H106	H	0.998106	0.655318	0.656589
C107	C	0.315497	0.150922	0.181256
C108	C	0.815497	0.650922	0.681256
N109	N	0.276834	0.149989	0.252763
N110	N	0.776834	0.649989	0.752763
H111	H	0.616638	0.158153	-0.156571
H112	H	1.116638	0.658153	0.343429
H113	H	1.167028	0.016940	0.255922
H114	H	1.667028	0.516940	0.755922
C115	C	0.930419	0.318526	0.450973
C116	C	1.430419	0.818526	0.950973
N117	N	0.880333	0.382359	0.492263
N118	N	1.380333	0.882359	0.992263
H119	H	0.785920	0.162225	-0.156578
H120	H	1.285920	0.662225	0.343422
H121	H	1.167057	0.016951	0.563287
H122	H	1.667057	0.516951	1.063287
C123	C	0.930410	0.318539	0.241693
C124	C	1.430410	0.818539	0.741693
N125	N	0.880326	0.382388	0.200416
N126	N	1.380326	0.882388	0.700416
