data_functionalizedCrystal
_audit_creation_method	'MofGen! by Chris Wilmer'
_symmetry_space_group_name_H-M	'P1'
_symmetry_Int_Tables_number	1
_symmetry_cell_setting	triclinic
loop_
_symmetry_equiv_pos_as_xyz
  x,y,z
_cell_length_a	13.033808
_cell_length_b	12.759400
_cell_length_c	13.032268
_cell_angle_alpha	82.851086
_cell_angle_beta	103.297372
_cell_angle_gamma	82.784015
loop_
_atom_site_label
_atom_site_type_symbol
_atom_site_fract_x
_atom_site_fract_y
_atom_site_fract_z
Zn1	Zn	1.547413	0.270751	-0.394610
Zn2	Zn	1.569855	0.420920	-0.217027
Zn3	Zn	1.392366	0.270826	-0.239549
Zn4	Zn	1.369770	0.471973	-0.417092
O5	O	1.469851	0.358617	-0.317070
O6	O	1.699014	0.269274	-0.352219
O7	O	1.565160	0.379674	-0.071394
O8	O	1.412998	0.123789	-0.260135
O9	O	1.715502	0.379602	-0.221750
O10	O	1.526910	0.123734	-0.374058
O11	O	1.434759	0.269401	-0.087941
O12	O	1.240745	0.318906	-0.281935
O13	O	1.374486	0.466616	-0.562731
O14	O	1.224144	0.466688	-0.412375
O15	O	1.504999	0.318778	-0.546213
O16	O	1.543249	0.574719	-0.243549
O17	O	1.396248	0.612228	-0.390536
C18	C	1.193908	0.398346	-0.352039
C19	C	1.075855	0.415371	-0.367024
C20	C	1.469758	0.631595	-0.317058
C21	C	1.469810	0.748367	-0.317076
C22	C	0.909383	0.367348	-0.324756
C23	C	1.031397	0.349752	-0.309265
C24	C	1.529075	0.803135	-0.376455
C25	C	1.529105	0.912858	-0.376474
C26	C	1.410604	0.913034	-0.257726
C27	C	1.410568	0.803315	-0.257714
C28	C	1.588317	0.748187	-0.435817
C29	C	1.647588	0.802955	-0.495200
C30	C	1.647618	0.912677	-0.495219
C31	C	1.588377	0.967632	-0.435855
C32	C	1.746872	0.318735	-0.281964
C33	C	1.864921	0.301739	-0.267005
C34	C	1.469934	1.084577	-0.317099
C35	C	1.469876	0.967809	-0.317107
C36	C	1.434719	0.398384	-0.594085
C37	C	1.419748	0.415330	-0.712133
C38	C	1.477648	0.349738	-0.756590
C39	C	1.462176	0.367251	-0.878598
C40	C	1.504908	0.318921	-0.041124
C41	C	1.520085	0.301650	0.076949
H42	H	0.857118	0.436549	-0.385664
H43	H	1.358716	0.484445	-0.764399
C44	C	1.588281	0.627497	-0.435797
H45	H	1.544504	0.602747	-0.391926
H46	H	1.561171	0.615149	-0.506649
H47	H	1.659153	0.590134	-0.408781
C48	C	1.101989	0.256265	-0.226974
H49	H	1.174735	0.256697	-0.227362
H50	H	1.092896	0.263877	-0.157875
H51	H	1.081897	0.190538	-0.244933
C52	C	1.005271	0.508868	-0.449309
H53	H	1.048991	0.547754	-0.483524
H54	H	0.956136	0.481609	-0.501110
H55	H	0.967153	0.554937	-0.414043
H56	H	1.588393	1.056980	-0.435889
H57	H	0.917187	0.232546	-0.206089
C58	C	1.560092	0.256361	-0.685994
H59	H	1.559681	0.256845	-0.613251
H60	H	1.542302	0.190587	-0.706095
H61	H	1.629166	0.264057	-0.695073
H62	H	1.695813	0.758206	-0.543539
H63	H	1.362374	0.957787	-0.209394
H64	H	1.362308	0.758723	-0.209363
C65	C	1.712810	0.972919	-0.560536
H66	H	1.748091	0.924475	-0.595879
H67	H	1.666300	1.028230	-0.611941
H68	H	1.764282	1.003201	-0.514073
C69	C	1.379735	0.460638	-0.949189
H70	H	1.380158	0.460164	-1.021931
H71	H	1.310662	0.452960	-0.940112
H72	H	1.397543	0.526410	-0.929084
H73	H	1.581109	0.232519	-0.870792
