data_functionalizedCrystal
_audit_creation_method	'MofGen! by Chris Wilmer'
_symmetry_space_group_name_H-M	'P1'
_symmetry_Int_Tables_number	1
_symmetry_cell_setting	triclinic
loop_
_symmetry_equiv_pos_as_xyz
  x,y,z
_cell_length_a	11.792241
_cell_length_b	8.559649
_cell_length_c	7.681208
_cell_angle_alpha	85.067523
_cell_angle_beta	95.768971
_cell_angle_gamma	76.986040
loop_
_atom_site_label
_atom_site_type_symbol
_atom_site_fract_x
_atom_site_fract_y
_atom_site_fract_z
O1	O	-1.474846	-0.233850	0.146259
O2	O	-0.974846	0.266150	0.646259
O3	O	-1.142437	-0.256408	0.146299
O4	O	-0.642437	0.243592	0.646299
O5	O	-1.337927	-0.012780	0.146274
O6	O	-0.837927	0.487220	0.646274
O7	O	-1.279356	-0.477478	0.146284
O8	O	-0.779356	0.022522	0.646284
O9	O	-1.362003	0.017284	-0.146600
O10	O	-0.862003	0.517284	0.353400
O11	O	-1.166513	-0.226343	-0.146574
O12	O	-0.666513	0.273657	0.353426
O13	O	-1.498922	-0.203786	-0.146615
O14	O	-0.998922	0.296214	0.353385
Zn15	Zn	-1.336540	-0.210291	-0.193094
Zn16	Zn	-0.836540	0.289709	0.306906
Zn17	Zn	-1.304819	-0.249903	0.192779
Zn18	Zn	-0.804819	0.250097	0.692779
O19	O	-1.303432	-0.447413	-0.146589
O20	O	-0.803432	0.052587	0.353411
C21	C	-1.112313	-0.239960	-0.000132
C22	C	-0.612313	0.260040	0.499868
C23	C	-0.986687	-0.235721	-0.000117
C24	C	-0.486687	0.264279	0.499883
N25	N	-1.283173	-0.276925	0.456127
N26	N	-0.783173	0.223075	0.956127
C27	C	-1.529045	-0.220234	-0.000179
C28	C	-1.029045	0.279766	0.499821
C29	C	-1.654671	-0.224474	-0.000183
C30	C	-1.154671	0.275526	0.499817
C31	C	-0.756692	-0.227918	-0.000168
C32	C	-0.256692	0.272082	0.499832
C33	C	-0.884679	-0.232253	-0.000140
C34	C	-0.384679	0.267747	0.499860
C35	C	-1.354404	0.061743	-0.000160
C36	C	-0.854404	0.561743	0.499840
C37	C	-1.367615	0.239008	-0.000152
C38	C	-0.867615	0.739008	0.499848
C39	C	-1.286955	-0.521937	-0.000151
C40	C	-0.786955	-0.021937	0.499849
C41	C	-1.273743	-0.699203	-0.000148
C42	C	-0.773743	-0.199203	0.499852
N43	N	-1.358186	-0.183269	0.543557
N44	N	-0.858186	0.316731	1.043557
H45	H	-1.183267	0.218083	-0.000143
H46	H	-0.683267	0.718083	0.499857
H47	H	-1.458099	0.321733	-0.000177
H48	H	-0.958099	0.821733	0.499823
H49	H	-1.206621	-0.372492	0.531374
H50	H	-0.706621	0.127508	1.031374
H51	H	-1.434750	-0.087707	0.468301
H52	H	-0.934750	0.412293	0.968301
