data_functionalizedCrystal
_audit_creation_method	'MofGen! by Chris Wilmer'
_symmetry_space_group_name_H-M	'P1'
_symmetry_Int_Tables_number	1
_symmetry_cell_setting	triclinic
loop_
_symmetry_equiv_pos_as_xyz
  x,y,z
_cell_length_a	17.640112
_cell_length_b	29.839131
_cell_length_c	17.637464
_cell_angle_alpha	101.171283
_cell_angle_beta	109.606029
_cell_angle_gamma	101.266684
loop_
_atom_site_label
_atom_site_type_symbol
_atom_site_fract_x
_atom_site_fract_y
_atom_site_fract_z
Zn1	Zn	1.165461	-0.069119	-0.211669
Zn2	Zn	1.665461	0.430881	0.288331
Zn3	Zn	1.193215	-0.125224	-0.073888
Zn4	Zn	1.693215	0.374776	0.426112
Zn5	Zn	1.055540	-0.069141	-0.101696
Zn6	Zn	1.555540	0.430859	0.398304
Zn7	Zn	1.027581	-0.163275	-0.239445
Zn8	Zn	1.527581	0.336725	0.260555
O9	O	1.110449	-0.106690	-0.156675
O10	O	1.610449	0.393310	0.343325
O11	O	1.284463	-0.060628	-0.170130
O12	O	1.784463	0.439372	0.329870
O13	O	1.198269	-0.101869	0.037733
O14	O	1.698269	0.398131	0.537733
O15	O	1.070207	-0.006262	-0.116297
O16	O	1.570207	0.493738	0.383703
O17	O	1.304854	-0.101848	-0.068903
O18	O	1.804854	0.398152	0.431097
O19	O	1.150965	-0.006247	-0.197094
O20	O	1.650965	0.493753	0.302906
O21	O	1.097120	-0.060665	0.017303
O22	O	1.597120	0.439335	0.517303
O23	O	0.936511	-0.097561	-0.143231
O24	O	1.436511	0.402439	0.356769
O25	O	1.022554	-0.166700	-0.351071
O26	O	1.522554	0.333300	0.148929
O27	O	0.915969	-0.166721	-0.244435
O28	O	1.415969	0.333279	0.255565
O29	O	1.123854	-0.097525	-0.330664
O30	O	1.623854	0.402475	0.169336
O31	O	1.171158	-0.193147	-0.095837
O32	O	1.671158	0.306853	0.404163
O33	O	1.049467	-0.221103	-0.217471
O34	O	1.549467	0.278897	0.282529
C35	C	0.896338	-0.136273	-0.199865
C36	C	1.396338	0.363727	0.300135
C37	C	0.804737	-0.148942	-0.218362
C38	C	1.304737	0.351058	0.281638
C39	C	0.556750	-0.010435	-0.016165
C40	C	1.056750	0.489565	0.483835
C41	C	0.470674	-0.022351	-0.033556
C42	C	0.970674	0.477649	0.466444
C43	C	0.449375	-0.094421	-0.138758
C44	C	0.949375	0.405579	0.361242
C45	C	0.535450	-0.082510	-0.121378
C46	C	1.035450	0.417490	0.378622
C47	C	0.589131	-0.040517	-0.060080
C48	C	1.089131	0.459483	0.439920
C49	C	0.567831	-0.112592	-0.165294
C50	C	1.067831	0.387408	0.334706
C51	C	0.653900	-0.100684	-0.147912
C52	C	1.153900	0.399316	0.352088
C53	C	0.707587	-0.058693	-0.086615
C54	C	1.207587	0.441307	0.413385
C55	C	0.675199	-0.028609	-0.042698
C56	C	1.175199	0.471391	0.457302
C57	C	0.514150	-0.154587	-0.226587
C58	C	1.014150	0.345413	0.273413
C59	C	0.546531	-0.184669	-0.270502
C60	C	1.046531	0.315331	0.229498
C61	C	0.632600	-0.172759	-0.253125
C62	C	1.132600	0.327241	0.246875
C63	C	0.686287	-0.130769	-0.191828
C64	C	1.186287	0.369231	0.308172
C65	C	0.664987	-0.202844	-0.297042
C66	C	1.164987	0.297156	0.202958
C67	C	0.751056	-0.190935	-0.279660
C68	C	1.251056	0.309065	0.220340
C69	C	0.772355	-0.118860	-0.174446
C70	C	1.272355	0.381140	0.325554
C71	C	1.110309	-0.223427	-0.156664
C72	C	1.610309	0.276573	0.343336
C73	C	1.110318	-0.273361	-0.156672
C74	C	1.610318	0.226639	0.343328
C75	C	1.173894	-0.568418	-0.093398
C76	C	1.673894	-0.068418	0.406602
C77	C	1.173989	-0.756082	-0.093409
C78	C	1.673989	-0.256082	0.406591
O79	O	1.227932	-0.767956	-0.039604
O80	O	1.727932	-0.267956	0.460396
N81	N	1.110608	-0.794117	-0.156702
N82	N	1.610608	-0.294117	0.343298
C83	C	1.047201	-0.785234	-0.220000
C84	C	1.547201	-0.285234	0.280000
O85	O	0.993298	-0.821891	-0.273840
O86	O	1.493298	-0.321891	0.226160
C87	C	1.047109	-0.597571	-0.219992
C88	C	1.547109	-0.097571	0.280008
C89	C	1.110491	-0.559538	-0.156689
C90	C	1.610491	-0.059538	0.343311
C91	C	1.237270	-0.530386	-0.030101
C92	C	1.737270	-0.030386	0.469899
C93	C	1.237243	-0.483473	-0.030096
C94	C	1.737243	0.016527	0.469904
C95	C	1.173840	-0.474592	-0.093388
C96	C	1.673840	0.025408	0.406612
C97	C	1.110464	-0.512625	-0.156685
C98	C	1.610464	-0.012625	0.343315
C99	C	0.983707	-0.588689	-0.283292
C100	C	1.483707	-0.088689	0.216708
C101	C	0.983691	-0.541769	-0.283285
C102	C	1.483691	-0.041769	0.216715
C103	C	1.047072	-0.503736	-0.219983
C104	C	1.547072	-0.003736	0.280017
C105	C	1.047033	-0.456832	-0.219972
C106	C	1.547033	0.043168	0.280028
N107	N	1.110415	-0.418796	-0.156678
N108	N	1.610415	0.081204	0.343322
C109	C	1.173818	-0.427677	-0.093386
C110	C	1.673818	0.072323	0.406614
C111	C	1.047252	-0.883759	-0.220000
C112	C	1.547252	-0.383759	0.280000
C113	C	1.047274	-0.930674	-0.220001
C114	C	1.547274	-0.430674	0.279999
C115	C	1.174064	-0.901518	-0.093410
C116	C	1.674064	-0.401518	0.406590
C117	C	1.174038	-0.854602	-0.093406
C118	C	1.674038	-0.354602	0.406594
C119	C	1.110634	-0.845724	-0.156706
C120	C	1.610634	-0.345724	0.343294
C121	C	1.173756	-0.329158	-0.093381
C122	C	1.673756	0.170842	0.406619
C123	C	1.173722	-0.282242	-0.093380
C124	C	1.673722	0.217758	0.406620
C125	C	1.046935	-0.311402	-0.219973
C126	C	1.546935	0.188598	0.280027
C127	C	1.046967	-0.358313	-0.219972
C128	C	1.546967	0.141687	0.280028
C129	C	1.110385	-0.367189	-0.156672
C130	C	1.610385	0.132811	0.343328
O131	O	0.993124	-0.444921	-0.273754
O132	O	1.493124	0.055079	0.226246
O133	O	1.227723	-0.391013	-0.039565
O134	O	1.727723	0.108987	0.460435
C135	C	1.173921	-0.615331	-0.093402
C136	C	1.673921	-0.115331	0.406598
C137	C	1.110545	-0.653364	-0.156699
C138	C	1.610545	-0.153364	0.343301
C139	C	1.047141	-0.644483	-0.219991
C140	C	1.547141	-0.144483	0.280009
C141	C	1.110566	-0.700279	-0.156700
C142	C	1.610566	-0.200279	0.343300
C143	C	1.173970	-0.709159	-0.093409
C144	C	1.673970	-0.209159	0.406591
C145	C	1.237351	-0.671124	-0.030115
C146	C	1.737351	-0.171124	0.469885
C147	C	1.237324	-0.624211	-0.030111
C148	C	1.737324	-0.124211	0.469889
C149	C	0.983759	-0.682518	-0.283284
C150	C	1.483759	-0.182518	0.216716
C151	C	0.983791	-0.729430	-0.283283
C152	C	1.483791	-0.229430	0.216717
C153	C	1.047195	-0.738310	-0.219991
C154	C	1.547195	-0.238310	0.280009
C155	C	1.325396	-0.076991	-0.113316
C156	C	1.825396	0.423009	0.386684
C157	C	1.416994	-0.064336	-0.094839
C158	C	1.916994	0.435664	0.405161
C159	C	1.066990	-0.136355	-0.371602
C160	C	1.566990	0.363645	0.128398
C161	C	1.048470	-0.148996	-0.463191
C162	C	1.548470	0.351004	0.036809
C163	C	1.110609	0.010504	-0.156699
C164	C	1.610609	0.510504	0.343301
C165	C	1.110677	0.060445	-0.156709
C166	C	1.610677	0.560445	0.343291
C167	C	0.969631	-0.202827	-0.602907
C168	C	1.469631	0.297173	-0.102907
C169	C	0.987039	-0.190944	-0.516844
C170	C	1.487039	0.309056	-0.016844
C171	C	1.092520	-0.118916	-0.495586
C172	C	1.592520	0.381084	0.004414
C173	C	1.075123	-0.130794	-0.581649
C174	C	1.575123	0.369206	-0.081649
C175	C	1.013677	-0.172749	-0.635303
C176	C	1.513677	0.327251	-0.135303
C177	C	1.119170	-0.100716	-0.614045
C178	C	1.619170	0.399284	-0.114045
C179	C	1.101771	-0.112592	-0.700100
C180	C	1.601771	0.387408	-0.200100
C181	C	1.040326	-0.154545	-0.753760
C182	C	1.540326	0.345455	-0.253760
C183	C	0.996279	-0.184625	-0.721358
C184	C	1.496279	0.315375	-0.221358
C185	C	1.180611	-0.058759	-0.560390
C186	C	1.680611	0.441241	-0.060390
C187	C	1.224658	-0.028682	-0.592786
C188	C	1.724658	0.471318	-0.092786
C189	C	1.207264	-0.040559	-0.678842
C190	C	1.707264	0.459441	-0.178842
C191	C	1.145819	-0.082512	-0.732502
C192	C	1.645819	0.417488	-0.232502
C193	C	1.251311	-0.010479	-0.711244
C194	C	1.751311	0.489521	-0.211244
C195	C	1.233913	-0.022355	-0.797299
C196	C	1.733913	0.477645	-0.297299
C197	C	1.128420	-0.094388	-0.818557
C198	C	1.628420	0.405612	-0.318557
C199	C	1.153787	-0.077101	0.057426
C200	C	1.653787	0.422899	0.557426
C201	C	1.172467	-0.064311	0.149047
C202	C	1.672467	0.435689	0.649047
H203	H	0.621269	-0.237037	-0.346944
H204	H	1.121269	0.262963	0.153056
H205	H	0.816064	-0.084660	-0.124544
H206	H	1.316064	0.415340	0.375456
H207	H	0.777420	-0.215431	-0.315421
H208	H	1.277420	0.284569	0.184579
H209	H	0.405657	-0.128613	-0.188665
H210	H	0.905657	0.371387	0.311335
H211	H	0.777669	-0.048999	-0.072462
H212	H	1.277669	0.451001	0.427538
H213	H	1.288975	-0.678363	0.021421
H214	H	1.788975	-0.178363	0.521421
H215	H	1.078390	-0.128555	-0.862245
H216	H	1.578390	0.371445	-0.362245
H217	H	0.718908	0.005591	0.007204
H218	H	1.218908	0.505591	0.507204
H219	H	1.274685	0.005479	-0.549090
H220	H	1.774685	0.505479	-0.049090
H221	H	1.288935	-0.593247	0.021436
H222	H	1.788935	-0.093247	0.521436
H223	H	0.995311	-0.304164	-0.271502
H224	H	1.495311	0.195836	0.228498
H225	H	0.600458	0.023765	0.033738
H226	H	1.100458	0.523765	0.533738
H227	H	1.301335	0.023683	-0.667547
H228	H	1.801335	0.523683	-0.167547
H229	H	1.288906	-0.537609	0.021440
H230	H	1.788906	-0.037609	0.521440
H231	H	0.932129	-0.675293	-0.334825
H232	H	1.432129	-0.175293	0.165175
H233	H	0.946249	-0.218792	-0.765046
H234	H	1.446249	0.281208	-0.265046
H235	H	1.225689	-0.908756	-0.041876
H236	H	1.725689	-0.408756	0.458124
H237	H	1.225648	-0.823637	-0.041861
H238	H	1.725648	-0.323637	0.458139
H239	H	0.995656	-0.961639	-0.271542
H240	H	1.495656	-0.461639	0.228458
H241	H	1.026156	-0.164212	-0.823833
H242	H	1.526156	0.335788	-0.323833
H243	H	0.444313	0.002151	0.002204
H244	H	0.944313	0.502151	0.502204
H245	H	0.932092	-0.619650	-0.334837
H246	H	1.432092	-0.119650	0.165163
H247	H	0.502813	-0.218861	-0.320409
H248	H	1.002813	0.281139	0.179591
H249	H	1.142547	-0.084754	-0.451890
H250	H	1.642547	0.415246	0.048110
H251	H	0.444068	-0.164282	-0.240737
H252	H	0.944068	0.335718	0.259263
H253	H	1.225335	-0.251274	-0.041829
H254	H	1.725335	0.248726	0.458171
H255	H	1.225399	-0.336377	-0.041837
H256	H	1.725399	0.163623	0.458163
H257	H	0.951151	-0.215433	-0.490475
H258	H	1.451151	0.284567	0.009525
H259	H	1.288856	-0.452507	0.021448
H260	H	1.788856	0.047493	0.521448
H261	H	0.932171	-0.760395	-0.334832
H262	H	1.432171	-0.260395	0.165168
H263	H	0.919601	-0.236993	-0.646594
H264	H	1.419601	0.263007	-0.146594
H265	H	0.932060	-0.534545	-0.334834
H266	H	1.432060	-0.034545	0.165166
H267	H	0.995619	-0.876535	-0.271548
H268	H	1.495619	-0.376535	0.228452
H269	H	0.995359	-0.389282	-0.271519
H270	H	1.495359	0.110718	0.228481
H271	H	1.194777	-0.049092	-0.490318
H272	H	1.694777	0.450908	0.009682
H273	H	1.269776	0.002138	-0.823677
H274	H	1.769776	0.502138	-0.323677
