data_functionalizedCrystal
_audit_creation_method	'MofGen! by Chris Wilmer'
_symmetry_space_group_name_H-M	'P1'
_symmetry_Int_Tables_number	1
_symmetry_cell_setting	triclinic
loop_
_symmetry_equiv_pos_as_xyz
  x,y,z
_cell_length_a	12.759401
_cell_length_b	13.897448
_cell_length_c	12.759393
_cell_angle_alpha	89.966654
_cell_angle_beta	89.981504
_cell_angle_gamma	90.017853
loop_
_atom_site_label
_atom_site_type_symbol
_atom_site_fract_x
_atom_site_fract_y
_atom_site_fract_z
Zn1	Zn	1.606234	-0.383954	-0.593968
Zn2	Zn	1.606119	-0.545283	-0.418283
Zn3	Zn	1.430536	-0.384004	-0.418308
Zn4	Zn	1.430515	-0.545209	-0.593924
O5	O	1.518351	-0.464613	-0.506121
O6	O	1.753239	-0.405365	-0.570671
O7	O	1.582788	-0.523942	-0.271265
O8	O	1.453899	-0.249016	-0.441638
O9	O	1.753155	-0.523893	-0.441596
O10	O	1.582983	-0.248979	-0.570695
O11	O	1.453788	-0.405451	-0.271283
O12	O	1.283512	-0.405379	-0.441596
O13	O	1.453864	-0.523766	-0.740951
O14	O	1.283497	-0.523815	-0.570621
O15	O	1.582964	-0.405293	-0.740984
O16	O	1.582768	-0.680255	-0.441554
O17	O	1.453753	-0.680201	-0.570597
C18	C	1.245383	-0.464595	-0.506107
C19	C	1.128607	-0.464611	-0.506125
C20	C	1.073764	-0.526379	-0.573198
C21	C	0.964040	-0.526391	-0.573209
C22	C	0.964011	-0.402864	-0.439067
C23	C	1.073733	-0.402847	-0.439062
C24	C	1.128638	-0.588142	-0.640261
C25	C	1.073796	-0.649917	-0.707338
C26	C	0.964072	-0.649929	-0.707349
C27	C	0.909190	-0.588167	-0.640284
C28	C	1.518274	-0.715227	-0.506090
C29	C	1.518337	-0.822441	-0.506113
C30	C	1.518448	-1.018736	-0.506178
C31	C	1.518383	-0.909503	-0.506145
C32	C	1.792384	-0.464631	-0.506136
C33	C	1.909161	-0.464639	-0.506142
C34	C	1.518424	-0.464515	-0.780154
C35	C	1.518456	-0.464474	-0.896931
C36	C	1.518456	-0.213020	-0.506174
C37	C	1.518501	-0.105806	-0.506197
C38	C	1.585687	-0.402779	-0.951812
C39	C	1.585712	-0.402744	-1.061536
C40	C	1.451271	-0.526107	-1.061489
C41	C	1.451242	-0.526137	-0.951767
C42	C	1.652901	-0.341116	-0.896976
C43	C	1.720139	-0.279417	-0.951856
C44	C	1.720164	-0.279382	-1.061580
C45	C	1.652951	-0.341046	-1.116424
C46	C	1.518338	-0.464640	-0.233154
C47	C	1.518510	-0.464410	-0.116377
H48	H	1.118488	-0.700195	-0.761947
H49	H	1.396480	-0.576359	-0.907082
H50	H	1.118386	-0.352543	-0.384454
O51	O	1.653141	-0.340923	-1.223011
C52	C	1.726904	-0.273150	-1.380493
C53	C	1.726806	-0.273202	-1.259788
H54	H	1.786440	-0.218390	-1.410264
H55	H	1.748743	-0.347814	-1.410315
H56	H	1.645534	-0.253164	-1.410259
H57	H	1.808151	-0.293148	-1.229932
H58	H	1.704908	-0.198530	-1.230038
H59	H	1.774904	-0.229136	-1.106261
H60	H	0.919317	-0.352581	-0.384465
H61	H	1.217981	-0.588141	-0.640258
O62	O	1.785567	-0.219564	-0.898700
C63	C	1.964294	-0.172803	-0.865105
C64	C	1.890316	-0.240634	-0.925385
H65	H	2.048999	-0.189827	-0.886641
H66	H	1.945969	-0.095000	-0.886718
H67	H	1.952674	-0.183409	-0.777262
H68	H	1.901894	-0.230113	-1.013242
H69	H	1.908659	-0.318412	-0.903686
O70	O	0.910959	-0.710020	-0.772541
C71	C	0.922575	-0.832502	-0.905632
C72	C	0.982852	-0.764508	-0.831841
H73	H	0.980674	-0.876559	-0.953611
H74	H	0.871205	-0.882956	-0.857353
H75	H	0.871208	-0.788269	-0.960615
H76	H	1.034275	-0.808663	-0.776844
H77	H	1.034156	-0.714052	-0.880185
O78	O	1.386092	-0.585980	-1.114923
C79	C	1.326523	-0.640574	-1.283938
C80	C	1.400405	-0.572730	-1.223557
H81	H	1.338054	-0.629870	-1.371779
H82	H	1.344938	-0.718380	-1.262418
H83	H	1.241818	-0.623648	-1.262307
H84	H	1.485135	-0.589569	-1.245156
H85	H	1.381900	-0.494944	-1.245083
O86	O	0.802604	-0.588139	-0.640500
C87	C	0.645223	-0.563352	-0.741291
C88	C	0.765927	-0.563387	-0.741195
H89	H	0.615533	-0.543323	-0.822688
H90	H	0.615306	-0.638019	-0.719423
H91	H	0.615470	-0.508619	-0.681796
H92	H	0.795769	-0.618074	-0.800691
H93	H	0.795772	-0.488686	-0.763016
H94	H	1.652890	-0.341139	-0.807633
