data_functionalizedCrystal
_audit_creation_method	'MofGen! by Chris Wilmer'
_symmetry_space_group_name_H-M	'P1'
_symmetry_Int_Tables_number	1
_symmetry_cell_setting	triclinic
loop_
_symmetry_equiv_pos_as_xyz
  x,y,z
_cell_length_a	29.839131
_cell_length_b	29.839135
_cell_length_c	29.839125
_cell_angle_alpha	89.984512
_cell_angle_beta	89.982291
_cell_angle_gamma	90.043950
loop_
_atom_site_label
_atom_site_type_symbol
_atom_site_fract_x
_atom_site_fract_y
_atom_site_fract_z
Zn1	Zn	-0.178886	0.686720	-0.254047
Zn2	Zn	-0.253998	0.686652	-0.178917
Zn3	Zn	-0.178886	0.611602	-0.178925
Zn4	Zn	-0.253993	0.611550	-0.254014
O5	O	-0.216441	0.649131	-0.216476
O6	O	-0.188852	0.749578	-0.244092
O7	O	-0.244036	0.676690	-0.116051
O8	O	-0.116019	0.621617	-0.188908
O9	O	-0.244036	0.749528	-0.188894
O10	O	-0.116019	0.676805	-0.244099
O11	O	-0.188852	0.621551	-0.116057
O12	O	-0.188847	0.548728	-0.188876
O13	O	-0.244028	0.621528	-0.316886
O14	O	-0.244028	0.548690	-0.244043
O15	O	-0.188847	0.676755	-0.316910
O16	O	-0.316865	0.676639	-0.188862
O17	O	-0.316861	0.621462	-0.244035
C18	C	-0.216437	0.532408	-0.216457
C19	C	-0.216447	0.482474	-0.216459
C20	C	-0.187750	0.172854	-0.245260
C21	C	-0.187753	-0.014819	-0.245273
O22	O	-0.163344	-0.039065	-0.269738
N23	N	-0.216441	-0.038311	-0.216492
C24	C	-0.245129	-0.014882	-0.187705
O25	O	-0.269527	-0.039169	-0.163223
C26	C	-0.245123	0.172791	-0.187690
C27	C	-0.216436	0.196280	-0.216475
C28	C	-0.159065	0.196343	-0.274042
C29	C	-0.159066	0.243258	-0.274040
C30	C	-0.187752	0.266684	-0.245256
C31	C	-0.216437	0.243195	-0.216474
C32	C	-0.273808	0.196219	-0.158901
C33	C	-0.273803	0.243140	-0.158899
C34	C	-0.245116	0.266630	-0.187684
C35	C	-0.245125	0.313537	-0.187688
N36	N	-0.216437	0.337029	-0.216468
C37	C	-0.187750	0.313602	-0.245252
C38	C	-0.245130	-0.113412	-0.187715
C39	C	-0.245133	-0.160330	-0.187720
C40	C	-0.187756	-0.160265	-0.245287
C41	C	-0.187756	-0.113346	-0.245284
C42	C	-0.216442	-0.089921	-0.216495
C43	C	-0.187755	0.412128	-0.245246
C44	C	-0.187760	0.459048	-0.245243
C45	C	-0.245135	0.458978	-0.187675
C46	C	-0.245132	0.412063	-0.187679
C47	C	-0.216438	0.388639	-0.216467
O48	O	-0.269518	0.337811	-0.163231
O49	O	-0.163349	0.337898	-0.269724
C50	C	-0.187749	0.125938	-0.245262
C51	C	-0.216434	0.102449	-0.216479
C52	C	-0.245120	0.125875	-0.187695
C53	C	-0.216436	0.055531	-0.216483
C54	C	-0.187749	0.032105	-0.245267
C55	C	-0.159061	0.055596	-0.274048
C56	C	-0.159062	0.102512	-0.274046
C57	C	-0.273808	0.102384	-0.158915
C58	C	-0.273805	0.055468	-0.158919
C59	C	-0.245119	0.032042	-0.187703
C60	C	-0.333163	0.649050	-0.216454
C61	C	-0.383098	0.649056	-0.216459
C62	C	-0.692730	0.677914	-0.187789
C63	C	-0.880403	0.677969	-0.187807
O64	O	-0.904659	0.702441	-0.163413
N65	N	-0.903883	0.649224	-0.216510
C66	C	-0.880441	0.620465	-0.245213
O67	O	-0.904718	0.596020	-0.269630
C68	C	-0.692769	0.620412	-0.245197
C69	C	-0.669292	0.649156	-0.216489
C70	C	-0.669253	0.706656	-0.159084
C71	C	-0.622338	0.706640	-0.159078
C72	C	-0.598900	0.677882	-0.187778
C73	C	-0.622377	0.649140	-0.216483
C74	C	-0.669328	0.591656	-0.273902
C75	C	-0.622407	0.591646	-0.273897
C76	C	-0.598930	0.620390	-0.245188
C77	C	-0.552023	0.620367	-0.245177
N78	N	-0.528543	0.649112	-0.216474
C79	C	-0.551982	0.677869	-0.187774
C80	C	-0.978972	0.620494	-0.245218
C81	C	-1.025889	0.620507	-0.245222
C82	C	-1.025849	0.678012	-0.187816
C83	C	-0.978930	0.677997	-0.187811
C84	C	-0.955492	0.649239	-0.216515
C85	C	-0.453456	0.677834	-0.187764
C86	C	-0.406536	0.677814	-0.187759
C87	C	-0.406581	0.620311	-0.245167
C88	C	-0.453497	0.620329	-0.245170
C89	C	-0.476933	0.649094	-0.216467
O90	O	-0.527738	0.595912	-0.269561
O91	O	-0.527697	0.702318	-0.163367
C92	C	-0.739646	0.677930	-0.187795
C93	C	-0.763123	0.649188	-0.216501
C94	C	-0.739684	0.620430	-0.245200
C95	C	-0.810041	0.649200	-0.216504
C96	C	-0.833479	0.677958	-0.187804
C97	C	-0.810000	0.706703	-0.159101
C98	C	-0.763084	0.706687	-0.159095
C99	C	-0.763164	0.591685	-0.273904
C100	C	-0.810079	0.591703	-0.273907
C101	C	-0.833518	0.620461	-0.245207
C102	C	-0.099262	0.649225	-0.216508
C103	C	-0.049328	0.649265	-0.216522
C104	C	-0.216437	0.649143	-0.333654
C105	C	-0.216435	0.649148	-0.383589
C106	C	-0.216445	0.766309	-0.216495
C107	C	-0.216446	0.816244	-0.216504
C108	C	-0.187627	0.677935	-0.693248
C109	C	-0.187589	0.677957	-0.880921
O110	O	-0.163138	0.702400	-0.905199
N111	N	-0.216315	0.649208	-0.904374
C112	C	-0.245050	0.620449	-0.880906
O113	O	-0.269479	0.595993	-0.905160
C114	C	-0.245086	0.620425	-0.693234
C115	C	-0.216361	0.649179	-0.669783
C116	C	-0.158905	0.706687	-0.669797
C117	C	-0.158916	0.706683	-0.622882
C118	C	-0.187650	0.677927	-0.599417
C119	C	-0.216373	0.649175	-0.622868
C120	C	-0.273819	0.591663	-0.669766
C121	C	-0.273824	0.591659	-0.622845
C122	C	-0.245100	0.620414	-0.599395
C123	C	-0.245119	0.620415	-0.552487
N124	N	-0.216393	0.649164	-0.529034
C125	C	-0.187659	0.677920	-0.552499
C126	C	-0.245030	0.620464	-0.979437
C127	C	-0.245022	0.620471	-1.026354
C128	C	-0.187560	0.677979	-1.026366
C129	C	-0.187571	0.677974	-0.979448
C130	C	-0.216304	0.649214	-0.955984
C131	C	-0.187685	0.677910	-0.453973
C132	C	-0.187701	0.677904	-0.407054
C133	C	-0.245161	0.620395	-0.407046
C134	C	-0.245147	0.620402	-0.453961
C135	C	-0.216406	0.649161	-0.477424
O136	O	-0.269553	0.595982	-0.528180
O137	O	-0.163226	0.702366	-0.528237
C138	C	-0.187616	0.677939	-0.740163
C139	C	-0.216338	0.649187	-0.763614
C140	C	-0.245072	0.620431	-0.740149
C141	C	-0.216330	0.649194	-0.810532
C142	C	-0.187596	0.677950	-0.833997
C143	C	-0.158870	0.706699	-0.810544
C144	C	-0.158881	0.706695	-0.763628
C145	C	-0.273798	0.591682	-0.763602
C146	C	-0.273785	0.591689	-0.810518
C147	C	-0.245050	0.620445	-0.833983
C148	C	-0.216412	0.649145	-0.099753
C149	C	-0.216288	0.649227	-0.049819
H150	H	-0.135705	0.262379	-0.297480
C151	C	-0.127505	0.029821	-0.305710
C152	C	-0.131244	0.036278	-0.356776
C153	C	-0.099688	0.010500	-0.388434
C154	C	-0.064392	-0.021734	-0.369026
C155	C	-0.060650	-0.028192	-0.317957
C156	C	-0.092207	-0.002414	-0.286299
H157	H	-0.157374	0.060141	-0.371145
H158	H	-0.102458	0.015281	-0.426238
H159	H	-0.041032	-0.040816	-0.392461
H160	H	-0.034520	-0.052055	-0.303588
H161	H	-0.089437	-0.007195	-0.248495
H162	H	-0.688332	0.730076	-0.135713
C163	C	-0.156199	-0.186038	-0.276950
C164	C	-0.175719	-0.218297	-0.312186
C165	C	-0.144161	-0.244072	-0.343845
C166	C	-0.093084	-0.237588	-0.340268
C167	C	-0.073561	-0.205327	-0.305030
C168	C	-0.105119	-0.179552	-0.273371
H169	H	-0.213532	-0.223098	-0.314836
H170	H	-0.158613	-0.267953	-0.369931
H171	H	-0.069723	-0.256668	-0.363704
H172	H	-0.035748	-0.200526	-0.302380
H173	H	-0.090666	-0.155671	-0.247285
H174	H	-0.297180	0.568274	-0.829607
C175	C	-0.305360	0.268908	-0.127231
C176	C	-0.285841	0.301166	-0.091993
C177	C	-0.317398	0.326932	-0.060327
C178	C	-0.368475	0.320441	-0.063899
C179	C	-0.387997	0.288182	-0.099139
C180	C	-0.356440	0.262415	-0.130805
H181	H	-0.248028	0.305972	-0.089348
H182	H	-0.302946	0.350813	-0.034241
H183	H	-0.391836	0.339515	-0.040458
H184	H	-0.425810	0.283375	-0.101784
H185	H	-0.370892	0.238535	-0.156891
H186	H	-0.603226	0.730047	-0.135702
C187	C	-0.695142	0.560036	-0.305484
C188	C	-0.727439	0.524781	-0.285995
C189	C	-0.753251	0.493158	-0.317580
C190	C	-0.746767	0.496792	-0.368653
C191	C	-0.714469	0.532049	-0.388144
C192	C	-0.688656	0.563672	-0.356560
H193	H	-0.732241	0.522089	-0.248186
H194	H	-0.777161	0.467059	-0.303151
H195	H	-0.765875	0.473383	-0.392033
H196	H	-0.709667	0.534741	-0.425954
H197	H	-0.664747	0.589771	-0.370989
C198	C	-0.127508	0.170580	-0.305711
C199	C	-0.131259	0.177058	-0.356774
C200	C	-0.099703	0.151300	-0.388449
C201	C	-0.064397	0.119065	-0.369061
C202	C	-0.060644	0.112586	-0.317996
C203	C	-0.092200	0.138344	-0.286321
H204	H	-0.157397	0.200921	-0.371128
H205	H	-0.102482	0.156096	-0.426250
H206	H	-0.041037	0.099998	-0.392509
H207	H	-0.034507	0.088723	-0.303642
H208	H	-0.089422	0.133548	-0.248520
C209	C	-0.276693	-0.186165	-0.156059
C210	C	-0.272947	-0.179725	-0.104994
C211	C	-0.304507	-0.205558	-0.073331
C212	C	-0.339812	-0.237830	-0.092732
C213	C	-0.343559	-0.244271	-0.143799
C214	C	-0.312000	-0.218438	-0.175463
H215	H	-0.246811	-0.155834	-0.090630
H216	H	-0.301732	-0.200789	-0.035527
H217	H	-0.363174	-0.256952	-0.069292
H218	H	-0.369696	-0.268162	-0.158163
H219	H	-0.314774	-0.223206	-0.213266
C220	C	-0.156201	0.484884	-0.276908
C221	C	-0.159944	0.478442	-0.327973
C222	C	-0.128385	0.504277	-0.359636
C223	C	-0.093084	0.536553	-0.340234
C224	C	-0.089340	0.542997	-0.289167
C225	C	-0.120899	0.517163	-0.257504
H226	H	-0.186077	0.454548	-0.342337
H227	H	-0.131157	0.499506	-0.397439
H228	H	-0.069723	0.555677	-0.363673
H229	H	-0.063207	0.566891	-0.274803
H230	H	-0.118127	0.521933	-0.219701
C231	C	-0.276638	0.588820	-0.953634
C232	C	-0.257176	0.553552	-0.921386
C233	C	-0.288785	0.521906	-0.895588
C234	C	-0.339855	0.525527	-0.902039
C235	C	-0.359319	0.560796	-0.934289
C236	C	-0.327711	0.592443	-0.960087
H237	H	-0.219369	0.550870	-0.916609
H238	H	-0.274376	0.495797	-0.871715
H239	H	-0.363253	0.502101	-0.882942
H240	H	-0.397127	0.563478	-0.939066
H241	H	-0.342120	0.618551	-0.983960
C242	C	-0.276688	0.484753	-0.156013
C243	C	-0.276683	0.536361	-0.156011
C244	C	-0.308234	0.562137	-0.124346
C245	C	-0.339790	0.536305	-0.092682
C246	C	-0.339796	0.484694	-0.092682
C247	C	-0.308246	0.458918	-0.124347
H248	H	-0.253322	0.555486	-0.179452
H249	H	-0.308229	0.600342	-0.124346
H250	H	-0.363146	0.555386	-0.069242
H251	H	-0.363157	0.465569	-0.069242
H252	H	-0.308251	0.420712	-0.124347
C253	C	-0.953107	0.709618	-0.156234
C254	C	-0.959584	0.705990	-0.105160
C255	C	-0.933764	0.737614	-0.073583
C256	C	-0.901468	0.772865	-0.093081
C257	C	-0.894990	0.776494	-0.144158
C258	C	-0.920809	0.744870	-0.175735
H259	H	-0.983493	0.679894	-0.090724
H260	H	-0.938560	0.734927	-0.035772
H261	H	-0.882354	0.796275	-0.069706
H262	H	-0.871080	0.802590	-0.158593
H263	H	-0.916014	0.747557	-0.213545
C264	C	-0.156195	0.386366	-0.276914
C265	C	-0.159944	0.392835	-0.327978
C266	C	-0.128387	0.367073	-0.359647
C267	C	-0.093081	0.334841	-0.340253
C268	C	-0.089330	0.328370	-0.289187
C269	C	-0.120888	0.354132	-0.257518
H270	H	-0.186081	0.416697	-0.342337
H271	H	-0.131163	0.371863	-0.397450
H272	H	-0.069720	0.315770	-0.363697
H273	H	-0.063193	0.304509	-0.274828
H274	H	-0.118111	0.349342	-0.219715
C275	C	-0.156073	0.709547	-0.479778
C276	C	-0.159748	0.760614	-0.473329
C277	C	-0.128139	0.792253	-0.499134
C278	C	-0.092854	0.772826	-0.531387
C279	C	-0.089177	0.721757	-0.537837
C280	C	-0.120787	0.690117	-0.512032
H281	H	-0.185869	0.774997	-0.449453
H282	H	-0.130861	0.830058	-0.494359
H283	H	-0.069455	0.796247	-0.550489
H284	H	-0.063056	0.707373	-0.561713
H285	H	-0.118065	0.652312	-0.516807
H286	H	-0.297218	0.568233	-0.603743
H287	H	-0.268491	-0.094343	-0.164271
C288	C	-0.596626	0.560010	-0.305471
C289	C	-0.603136	0.508944	-0.301756
C290	C	-0.577355	0.477307	-0.333328
C291	C	-0.545065	0.496737	-0.368616
C292	C	-0.538554	0.547807	-0.372332
C293	C	-0.564334	0.579443	-0.340760
H294	H	-0.627040	0.494558	-0.275633
H295	H	-0.582176	0.439502	-0.330577
H296	H	-0.525981	0.473318	-0.391988
H297	H	-0.514649	0.562192	-0.398455
H298	H	-0.559513	0.617248	-0.343511
C299	C	-0.127295	0.738324	-0.695603
C300	C	-0.130970	0.789390	-0.689149
C301	C	-0.099360	0.821032	-0.714950
C302	C	-0.064076	0.801608	-0.747206
C303	C	-0.060400	0.750539	-0.753661
C304	C	-0.092009	0.718897	-0.727860
H305	H	-0.157090	0.803771	-0.665271
H306	H	-0.102082	0.858836	-0.710172
H307	H	-0.040677	0.825031	-0.766305
H308	H	-0.034279	0.736158	-0.777540
H309	H	-0.089287	0.681092	-0.732639
C310	C	-0.305410	0.560047	-0.737799
C311	C	-0.301742	0.508980	-0.744252
C312	C	-0.333359	0.477343	-0.718453
C313	C	-0.368644	0.496772	-0.686202
C314	C	-0.372314	0.547842	-0.679748
C315	C	-0.340697	0.579479	-0.705547
H316	H	-0.275620	0.494594	-0.768127
H317	H	-0.330642	0.439538	-0.723231
H318	H	-0.392048	0.473353	-0.667105
H319	H	-0.398435	0.562227	-0.655873
H320	H	-0.343414	0.617284	-0.700769
C321	C	-0.305367	0.128149	-0.127252
C322	C	-0.340670	0.160380	-0.146654
C323	C	-0.372233	0.186144	-0.114991
C324	C	-0.368494	0.179676	-0.063927
C325	C	-0.333190	0.147444	-0.044522
C326	C	-0.301627	0.121680	-0.076185
H327	H	-0.343439	0.165169	-0.184457
H328	H	-0.398368	0.210004	-0.129356
H329	H	-0.391859	0.198748	-0.040488
H330	H	-0.330421	0.142655	-0.006719
H331	H	-0.275492	0.097820	-0.061820
H332	H	-0.472613	0.596925	-0.268548
H333	H	-0.297170	0.036347	-0.135480
C334	C	-0.155949	0.709609	-1.052183
C335	C	-0.175407	0.744867	-1.084444
C336	C	-0.143795	0.776493	-1.110262
C337	C	-0.092725	0.772860	-1.103820
C338	C	-0.073264	0.737601	-1.071557
C339	C	-0.104876	0.705975	-1.045739
H340	H	-0.213215	0.747557	-1.089214
H341	H	-0.158202	0.802594	-1.134145
H342	H	-0.069324	0.796271	-1.122932
H343	H	-0.035456	0.734910	-1.066786
H344	H	-0.090469	0.679874	-1.021856
C345	C	-0.380792	0.588680	-0.276736
C346	C	-0.348579	0.553417	-0.257232
C347	C	-0.322787	0.521789	-0.288804
C348	C	-0.329209	0.525425	-0.339880
C349	C	-0.361423	0.560690	-0.359387
C350	C	-0.387215	0.592318	-0.327815
H351	H	-0.343824	0.550724	-0.219420
H352	H	-0.298940	0.495684	-0.274364
H353	H	-0.310116	0.502012	-0.363252
H354	H	-0.366178	0.563383	-0.397199
H355	H	-0.411062	0.618423	-0.342255
C356	C	-0.276747	0.588781	-0.479767
C357	C	-0.312004	0.608229	-0.512025
C358	C	-0.343601	0.576607	-0.537830
C359	C	-0.339940	0.525536	-0.531376
C360	C	-0.304681	0.506085	-0.499116
C361	C	-0.273084	0.537708	-0.473311
H362	H	-0.314716	0.646037	-0.516804
H363	H	-0.369702	0.591006	-0.561711
H364	H	-0.363330	0.502128	-0.550478
H365	H	-0.301970	0.468278	-0.494337
H366	H	-0.246983	0.523308	-0.449430
C367	C	-0.479231	0.709472	-0.156188
C368	C	-0.472800	0.705834	-0.105114
C369	C	-0.498576	0.737469	-0.073536
C370	C	-0.530783	0.772742	-0.093032
C371	C	-0.537215	0.776381	-0.144110
C372	C	-0.511440	0.744746	-0.175688
H373	H	-0.448957	0.679721	-0.090679
H374	H	-0.493813	0.734774	-0.035725
H375	H	-0.549863	0.796160	-0.069657
H376	H	-0.561058	0.802494	-0.158545
H377	H	-0.516202	0.747441	-0.213499
C378	C	-0.127261	0.738331	-0.836361
C379	C	-0.146723	0.773585	-0.868624
C380	C	-0.115113	0.805212	-0.894444
C381	C	-0.064043	0.801585	-0.888001
C382	C	-0.044578	0.766329	-0.855737
C383	C	-0.076187	0.734702	-0.829917
H384	H	-0.184530	0.776272	-0.873395
H385	H	-0.129522	0.831311	-0.918328
H386	H	-0.040644	0.824997	-0.907114
H387	H	-0.006770	0.763643	-0.850966
H388	H	-0.061778	0.708603	-0.806032
H389	H	-0.387423	0.701220	-0.164380
H390	H	-0.164180	0.701388	-0.960357
C391	C	-0.953195	0.588857	-0.276795
C392	C	-0.959707	0.537790	-0.273076
C393	C	-0.933934	0.506151	-0.304652
C394	C	-0.901649	0.525578	-0.339946
C395	C	-0.895136	0.576647	-0.343666
C396	C	-0.920909	0.608286	-0.312090
H397	H	-0.983608	0.523407	-0.246948
H398	H	-0.938756	0.468347	-0.301898
H399	H	-0.882570	0.502157	-0.363320
H400	H	-0.871236	0.591031	-0.369794
H401	H	-0.916087	0.646091	-0.314844
H402	H	-0.164396	-0.094224	-0.268723
H403	H	-0.268496	0.392937	-0.164245
H404	H	-0.297168	0.177102	-0.135460
C405	C	-0.737264	0.738309	-0.127517
C406	C	-0.743747	0.734683	-0.076444
C407	C	-0.717931	0.766307	-0.044865
C408	C	-0.685632	0.801558	-0.064359
C409	C	-0.679148	0.805186	-0.115436
C410	C	-0.704965	0.773562	-0.147015
H411	H	-0.767657	0.708586	-0.062010
H412	H	-0.722731	0.763621	-0.007054
H413	H	-0.666522	0.824969	-0.040983
H414	H	-0.655238	0.831282	-0.129869
H415	H	-0.700165	0.776248	-0.184825
H416	H	-0.135702	0.121633	-0.297485
H417	H	-1.044940	0.701427	-0.164447
H418	H	-0.297209	0.568248	-0.688852
H419	H	-1.045000	0.597097	-0.268595
H420	H	-0.829092	0.730118	-0.135731
H421	H	-0.829190	0.568292	-0.297284
H422	H	-0.744084	0.568268	-0.297275
H423	H	-0.164310	0.701321	-0.387962
H424	H	-0.135525	0.730097	-0.603793
H425	H	-0.268417	0.597061	-1.045444
H426	H	-0.268557	0.596984	-0.387932
H427	H	-0.135491	0.730110	-0.744539
