data_functionalizedCrystal
_audit_creation_method	'MofGen! by Chris Wilmer'
_symmetry_space_group_name_H-M	'P1'
_symmetry_Int_Tables_number	1
_symmetry_cell_setting	triclinic
loop_
_symmetry_equiv_pos_as_xyz
  x,y,z
_cell_length_a	19.188925
_cell_length_b	19.188924
_cell_length_c	15.455313
_cell_angle_alpha	92.653849
_cell_angle_beta	87.326905
_cell_angle_gamma	83.142256
loop_
_atom_site_label
_atom_site_type_symbol
_atom_site_fract_x
_atom_site_fract_y
_atom_site_fract_z
O1	O	0.929216	0.084085	-0.072153
O2	O	1.429216	0.584085	0.427847
O3	O	0.725904	0.095824	-0.072151
O4	O	1.225904	0.595824	0.427849
O5	O	0.833429	-0.011701	-0.072142
O6	O	1.333429	0.488299	0.427858
O7	O	0.821690	0.191610	-0.072163
O8	O	1.321690	0.691610	0.427837
O9	O	0.827280	-0.005578	0.072119
O10	O	1.327280	0.494422	0.572119
O11	O	0.719755	0.101947	0.072110
O12	O	1.219755	0.601947	0.572110
O13	O	0.923067	0.090209	0.072108
O14	O	1.423067	0.590209	0.572108
Cu15	Cu	0.820850	0.096637	0.085281
Cu16	Cu	1.320850	0.596637	0.585281
Cu17	Cu	0.828121	0.089395	-0.085325
Cu18	Cu	1.328121	0.589395	0.414675
O19	O	0.815542	0.197734	0.072099
O20	O	1.315542	0.697734	0.572099
C21	C	0.696818	0.098506	-0.000020
C22	C	1.196818	0.598506	0.499980
C23	C	0.619313	0.097367	-0.000019
C24	C	1.119313	0.597367	0.499981
C25	C	0.057542	0.152831	-0.000027
C26	C	0.557542	0.652831	0.499973
C27	C	0.130365	0.153907	-0.000032
C28	C	0.630365	0.653907	0.499968
C29	C	0.175301	0.090815	-0.000024
C30	C	0.675301	0.590815	0.499976
C31	C	0.147409	0.026641	-0.000033
C32	C	0.647409	0.526641	0.499967
C33	C	0.074587	0.025566	-0.000037
C34	C	0.574587	0.525566	0.499963
N35	N	0.293886	0.047223	0.049088
N36	N	0.793886	0.547223	0.549088
N37	N	0.363063	0.048249	0.049094
N38	N	0.863063	0.548249	0.549094
C39	C	0.394710	0.094050	-0.000014
C40	C	0.894710	0.594050	0.499986
N41	N	0.354564	0.138797	-0.049117
N42	N	0.854564	0.638797	0.450883
N43	N	0.285380	0.137774	-0.049118
N44	N	0.785380	0.637774	0.450882
C45	C	0.254265	0.091973	-0.000020
C46	C	0.754265	0.591973	0.499980
C47	C	0.501557	0.159386	-0.000016
C48	C	1.001557	0.659386	0.499984
C49	C	0.574383	0.160460	-0.000026
C50	C	1.074383	0.660460	0.499974
C51	C	0.591425	0.033192	-0.000019
C52	C	1.091425	0.533192	0.499981
C53	C	0.518601	0.032120	-0.000017
C54	C	1.018601	0.532120	0.499983
C55	C	0.473671	0.095219	-0.000012
C56	C	0.973671	0.595219	0.499988
C57	C	0.829975	-0.034650	-0.000011
C58	C	1.329975	0.465350	0.499989
C59	C	0.828836	-0.112155	-0.000008
C60	C	1.328836	0.387845	0.499992
C61	C	0.831656	-0.151892	-0.078645
C62	C	1.331656	0.348108	0.421355
C63	C	0.830577	-0.224715	-0.078652
C64	C	1.330577	0.275285	0.421348
C65	C	0.826691	-0.257800	-0.000017
C66	C	1.326691	0.242200	0.499983
C67	C	0.823866	-0.218053	0.078631
C68	C	1.323866	0.281947	0.578631
C69	C	0.824939	-0.145231	0.078635
C70	C	1.324939	0.354769	0.578635
N71	N	0.862244	-0.374980	0.058509
N72	N	1.362244	0.125020	0.558509
N73	N	0.861227	-0.444158	0.058499
N74	N	1.361227	0.055842	0.558499
C75	C	0.823457	-0.477209	-0.000025
C76	C	1.323457	0.022791	0.499975
N77	N	0.786752	-0.438470	-0.058553
N78	N	1.286752	0.061530	0.441447
N79	N	0.787773	-0.369286	-0.058546
N80	N	1.287773	0.130714	0.441454
C81	C	0.825527	-0.336763	-0.000013
C82	C	1.325527	0.163237	0.499987
C83	C	0.825106	-0.595909	-0.078675
C84	C	1.325106	-0.095909	0.421325
C85	C	0.824022	-0.668733	-0.078678
C86	C	1.324022	-0.168733	0.421322
C87	C	0.817318	-0.662071	0.078607
C88	C	1.317318	-0.162071	0.578607
C89	C	0.818395	-0.589248	0.078608
C90	C	1.318395	-0.089248	0.578608
C91	C	0.822293	-0.556172	-0.000036
C92	C	1.322293	-0.056172	0.499964
C93	C	0.952153	0.087527	-0.000025
C94	C	1.452153	0.587527	0.499975
C95	C	1.029658	0.088665	-0.000032
C96	C	1.529658	0.588665	0.499968
C97	C	0.818996	0.220683	-0.000034
C98	C	1.318996	0.720683	0.499966
C99	C	0.820135	0.298187	-0.000043
C100	C	1.320135	0.798187	0.499957
N101	N	0.815740	0.101730	0.205276
N102	N	1.315740	0.601730	0.705276
N103	N	0.833236	0.084297	-0.205320
N104	N	1.333236	0.584297	0.294680
C105	C	0.861436	0.056067	0.250675
C106	C	1.361436	0.556067	0.750675
C107	C	0.857579	0.059925	0.341482
C108	C	1.357579	0.559925	0.841482
C109	C	0.808028	0.109450	0.386890
C110	C	1.308028	0.609450	0.886890
C111	C	0.762327	0.155116	0.341486
C112	C	1.262327	0.655116	0.841486
C113	C	0.766181	0.151254	0.250680
C114	C	1.266181	0.651254	0.750680
C115	C	0.791390	0.126101	0.658470
C116	C	1.291390	0.626101	1.158470
C117	C	0.787540	0.129961	0.749282
C118	C	1.287540	0.629961	1.249282
C119	C	0.882791	0.034768	0.749273
C120	C	1.382791	0.534768	1.249273
C121	C	0.886645	0.030913	0.658465
C122	C	1.386645	0.530913	1.158465
C123	C	0.840941	0.076576	0.613068
C124	C	1.340941	0.576576	1.113068
N125	N	0.804085	0.113396	0.479710
N126	N	1.304085	0.613396	0.979710
N127	N	0.844881	0.072626	0.520250
N128	N	1.344881	0.572626	1.020250
H129	H	0.597084	0.212712	-0.000029
H130	H	1.097084	0.712712	0.499971
H131	H	0.901789	0.015741	0.213709
H132	H	1.401789	0.515741	0.713709
H133	H	0.820700	-0.244996	0.142656
H134	H	1.320700	0.255004	0.642656
H135	H	0.153073	0.206160	-0.000020
H136	H	0.653073	0.706160	0.499980
H137	H	0.834828	-0.124966	-0.142683
H138	H	1.334828	0.375034	0.357317
Br139	Br	0.834402	-0.278655	-0.185382
Br140	Br	1.334402	0.221345	0.314618
H141	H	0.628011	-0.018179	-0.000019
H142	H	1.128011	0.481821	0.499981
H143	H	0.747187	0.170293	0.786249
H144	H	1.247187	0.670293	1.286249
H145	H	0.020964	0.204211	-0.000026
H146	H	0.520964	0.704211	0.499974
Br147	Br	0.944813	-0.027202	0.810885
Br148	Br	1.444813	0.472798	1.310885
H149	H	0.894788	0.022741	0.378445
H150	H	1.394788	0.522741	0.878445
H151	H	0.926993	-0.009414	0.621496
H152	H	1.426993	0.490586	1.121496
Br153	Br	0.821108	-0.091298	0.185365
Br154	Br	1.321108	0.408702	0.685365
Br155	Br	0.729367	0.188071	0.596865
Br156	Br	1.229367	0.688071	1.096865
H157	H	0.828275	-0.568977	-0.142711
H158	H	1.328275	-0.068977	0.357289
H159	H	0.826315	-0.701085	-0.142717
H160	H	1.326315	-0.201085	0.357283
Br161	Br	0.812037	-0.706963	0.185328
Br162	Br	1.312037	-0.206963	0.685328
H163	H	0.184001	-0.024729	-0.000029
H164	H	0.684001	0.475271	0.499971
Br165	Br	0.695072	0.222326	0.403107
Br166	Br	1.195072	0.722326	0.903107
Br167	Br	0.440577	0.245018	-0.000008
Br168	Br	0.940577	0.745018	0.499992
H169	H	0.728970	0.188437	0.213717
H170	H	1.228970	0.688437	0.713717
H171	H	0.051885	-0.026687	-0.000041
H172	H	0.551885	0.473313	0.499959
Br173	Br	0.480755	-0.054967	-0.000031
Br174	Br	0.980755	0.445033	0.499969
H175	H	0.816105	-0.556894	0.142643
H176	H	1.316105	-0.056894	0.642643
