data_functionalizedCrystal
_audit_creation_method	'MofGen! by Chris Wilmer'
_symmetry_space_group_name_H-M	'P1'
_symmetry_Int_Tables_number	1
_symmetry_cell_setting	triclinic
loop_
_symmetry_equiv_pos_as_xyz
  x,y,z
_cell_length_a	12.784905
_cell_length_b	23.532407
_cell_length_c	22.010155
_cell_angle_alpha	89.999577
_cell_angle_beta	89.991794
_cell_angle_gamma	77.977998
loop_
_atom_site_label
_atom_site_type_symbol
_atom_site_fract_x
_atom_site_fract_y
_atom_site_fract_z
O1	O	1.410285	0.003562	-0.050529
O2	O	1.100573	0.027964	-0.050532
O3	O	1.264768	-0.067603	-0.050519
O4	O	1.246089	0.099129	-0.050541
O5	O	1.264738	-0.067589	0.050531
O6	O	1.100543	0.027978	0.050519
O7	O	1.410255	0.003576	0.050521
Cu8	Cu	1.255396	0.015779	0.059747
Cu9	Cu	1.255431	0.015761	-0.059757
O10	O	1.246060	0.099143	0.050509
C11	C	1.060941	0.029558	-0.000007
C12	C	0.942898	0.034280	-0.000007
C13	C	0.747530	-0.061927	-0.000005
C14	C	0.636618	-0.057493	-0.000005
C15	C	0.610161	0.047582	-0.000013
C16	C	0.721072	0.043148	-0.000012
C17	C	0.789753	-0.011608	-0.000007
C18	C	0.900667	-0.016042	-0.000003
C19	C	0.874208	0.089032	-0.000014
C20	C	0.763296	0.093466	-0.000015
C21	C	1.264278	-0.088790	0.000008
C22	C	1.262848	-0.151940	0.000012
C23	C	1.351045	-0.555144	-0.000020
C24	C	1.349717	-0.614482	-0.000025
O25	O	1.431477	-0.655028	-0.000047
N26	N	1.252103	-0.632570	-0.000025
C27	C	1.155811	-0.591316	-0.000027
O28	O	1.072660	-0.612150	-0.000028
C29	C	1.157140	-0.531979	-0.000027
C30	C	1.254761	-0.513895	-0.000020
C31	C	1.448658	-0.537059	-0.000014
C32	C	1.449986	-0.477724	-0.000009
C33	C	1.353701	-0.436475	-0.000009
C34	C	1.256089	-0.454560	-0.000015
C35	C	1.060849	-0.490726	-0.000033
C36	C	1.062187	-0.431385	-0.000033
C37	C	1.159808	-0.413301	-0.000027
C38	C	1.161132	-0.353977	-0.000009
N39	N	1.258746	-0.335889	-0.000009
C40	C	1.355031	-0.377138	-0.000008
C41	C	1.153026	-0.715929	-0.000029
C42	C	1.151695	-0.775265	-0.000025
C43	C	1.345602	-0.798427	-0.000024
C44	C	1.346931	-0.739090	-0.000023
C45	C	1.250640	-0.697841	-0.000028
C46	C	1.357813	-0.252530	0.000004
C47	C	1.359132	-0.193190	0.000012
C48	C	1.165226	-0.170033	0.000008
C49	C	1.163906	-0.229368	0.000003
C50	C	1.260208	-0.270617	-0.000001
O51	O	1.079415	-0.313398	0.000010
O52	O	1.438168	-0.356295	-0.000015
C53	C	1.449886	0.001982	-0.000005
C54	C	1.567930	-0.002740	-0.000008
C55	C	1.246550	0.120330	-0.000019
C56	C	1.247980	0.183480	-0.000028
N57	N	1.255379	0.015790	0.143799
N58	N	1.255457	0.015745	-0.143809
C59	C	1.328142	-0.026550	0.563584
C60	C	1.328146	-0.026555	0.627192
O61	O	1.389969	-0.062544	0.660088
N62	N	1.255431	0.015749	0.659006
C63	C	1.182699	0.058057	0.627210
O64	O	1.120848	0.094039	0.660112
C65	C	1.182689	0.058058	0.563604
C66	C	1.255417	0.015755	0.531792
C67	C	1.400862	-0.068851	0.531773
C68	C	1.400858	-0.068846	0.468170
C69	C	1.328134	-0.026540	0.436378
C70	C	1.255413	0.015760	0.468189
C71	C	1.109953	0.100362	0.531808
C72	C	1.109949	0.100360	0.468198
C73	C	1.182677	0.058056	0.436386
C74	C	1.182684	0.058070	0.372794
N75	N	1.255400	0.015766	0.340979
C76	C	1.328124	-0.026539	0.372771
C77	C	1.182722	0.058050	0.760788
C78	C	1.182736	0.058052	0.824393
C79	C	1.328182	-0.026560	0.824370
C80	C	1.328173	-0.026559	0.760764
C81	C	1.255438	0.015747	0.728973
C82	C	1.328111	-0.026525	0.239200
C83	C	1.328104	-0.026515	0.175591
C84	C	1.182654	0.058095	0.175619
C85	C	1.182664	0.058087	0.239223
C86	C	1.255397	0.015772	0.271011
O87	O	1.120891	0.094040	0.339858
O88	O	1.389955	-0.062520	0.339862
H89	H	1.438630	-0.178470	0.000019
H90	H	1.460083	-0.103303	0.557652
H91	H	0.908598	0.130005	-0.000013
N92	N	1.108393	0.101300	0.271727
N93	N	1.141746	0.135008	0.307223
H94	H	1.089284	0.165525	0.330176
N95	N	1.402443	-0.069782	0.856861
N96	N	1.402414	-0.069780	0.913652
H97	H	1.454848	-0.100307	0.936601
N98	N	1.054658	-0.673796	-0.000012
N99	N	1.033751	-0.638105	0.042587
H100	H	0.964279	-0.608351	0.042600
N101	N	1.066866	-0.127901	0.000008
N102	N	1.001774	-0.126768	0.042596
H103	H	0.932304	-0.097013	0.042592
N104	N	1.456181	-0.294658	0.000018
N105	N	1.477062	-0.330350	0.042615
H106	H	1.546535	-0.360103	0.042630
N107	N	1.475124	-0.112062	0.435671
N108	N	1.475116	-0.112065	0.378880
H109	H	1.527566	-0.142591	0.355930
H110	H	1.529479	-0.463007	-0.000006
N111	N	0.540011	0.103513	-0.000013
N112	N	0.577720	0.148439	-0.000013
H113	H	0.528177	0.187942	-0.000013
H114	H	1.527069	-0.570640	-0.000017
N115	N	0.961121	-0.509178	-0.000041
N116	N	0.875170	-0.472332	-0.000048
H117	H	0.804730	-0.485362	-0.000056
N118	N	1.402415	-0.069801	0.728282
N119	N	1.467305	-0.107584	0.756683
H120	H	1.519721	-0.138137	0.733746
H121	H	1.072203	-0.789983	-0.000020
N122	N	1.035667	0.143584	0.435726
N123	N	1.069025	0.177300	0.400235
H124	H	1.016566	0.207828	0.377302
N125	N	0.963815	-0.389259	-0.000046
N126	N	0.876670	-0.405419	-0.000055
H127	H	0.807193	-0.375669	-0.000064
H128	H	1.426423	-0.724371	-0.000018
N129	N	1.108384	0.101312	0.143137
N130	N	1.141743	0.135022	0.107640
H131	H	1.089286	0.165544	0.084698
H132	H	1.387331	-0.060964	0.149692
N133	N	1.402408	-0.069754	0.271656
N134	N	1.467326	-0.107516	0.243235
H135	H	1.519803	-0.138046	0.266156
N136	N	0.817689	-0.117855	-0.000009
N137	N	0.882540	-0.132059	-0.042604
H138	H	0.932089	-0.171560	-0.042608
H139	H	0.956586	-0.060627	0.000002
N140	N	1.108454	0.101276	0.856874
N141	N	1.043534	0.139045	0.828473
H142	H	0.991067	0.169572	0.851410
N143	N	1.443969	-0.840561	-0.000023
N144	N	1.509026	-0.841693	0.042572
H145	H	1.578495	-0.871449	0.042573
H146	H	0.602244	-0.098467	-0.000004
H147	H	1.050731	0.134809	0.557700
H148	H	1.084415	-0.244093	0.000015
H149	H	0.707362	0.138047	-0.000021
H150	H	1.123495	0.092505	0.734907
