data_functionalizedCrystal
_audit_creation_method	'MofGen! by Chris Wilmer'
_symmetry_space_group_name_H-M	'P1'
_symmetry_Int_Tables_number	1
_symmetry_cell_setting	triclinic
loop_
_symmetry_equiv_pos_as_xyz
  x,y,z
_cell_length_a	8.497374
_cell_length_b	10.686203
_cell_length_c	10.685661
_cell_angle_alpha	99.053948
_cell_angle_beta	94.365569
_cell_angle_gamma	85.629853
loop_
_atom_site_label
_atom_site_type_symbol
_atom_site_fract_x
_atom_site_fract_y
_atom_site_fract_z
Zn1	Zn	1.018713	0.654515	1.979237
Zn2	Zn	1.518713	1.154515	2.479237
Zn3	Zn	0.736175	0.866712	1.995479
Zn4	Zn	1.236175	1.366712	2.495479
Zn5	Zn	0.736199	0.638201	1.767030
Zn6	Zn	1.236199	1.138201	2.267030
Zn7	Zn	0.981162	0.850407	1.783252
Zn8	Zn	1.481162	1.350407	2.283252
O9	O	0.868062	0.752459	1.881249
O10	O	1.368062	1.252459	2.381249
O11	O	0.996939	0.696315	2.159019
O12	O	1.496939	1.196315	2.659019
O13	O	0.515417	0.836396	1.965183
O14	O	1.015417	1.336396	2.465183
O15	O	0.789400	0.462751	1.781594
O16	O	1.289400	0.962751	2.281594
O17	O	0.789360	0.852215	2.170952
O18	O	1.289360	1.352215	2.670952
O19	O	0.996962	0.474737	1.937502
O20	O	1.496962	0.974737	2.437502
O21	O	0.515435	0.668510	1.797342
O22	O	1.015435	1.168510	2.297342
O23	O	0.752988	0.652699	1.591555
O24	O	1.252988	1.152699	2.091555
O25	O	1.206905	0.824425	1.809241
O26	O	1.706905	1.324425	2.309241
O27	O	0.932962	0.808606	1.603473
O28	O	1.432962	1.308606	2.103473
O29	O	1.234493	0.680504	1.953231
O30	O	1.734493	1.180504	2.453231
O31	O	0.752948	1.042164	1.980912
O32	O	1.252948	1.542164	2.480912
O33	O	0.932939	1.030184	1.824990
O34	O	1.432939	1.530184	2.324990
C35	C	0.838904	0.727114	1.551457
C36	C	1.338904	1.227114	2.051457
C37	C	0.826464	0.716302	1.410372
C38	C	1.326464	1.216302	1.910372
C39	C	0.838904	1.082230	1.906508
C40	C	1.338904	1.582230	2.406508
C41	C	0.826492	1.223316	1.917430
C42	C	1.326492	1.723316	2.417430
C43	C	1.279542	0.752460	1.881240
C44	C	1.779542	1.252460	2.381240
C45	C	1.458185	0.752474	1.881244
C46	C	1.958185	1.252474	2.381244
C47	C	0.897336	0.777904	2.212330
C48	C	1.397336	1.277904	2.712330
C49	C	0.909810	0.788747	2.353417
C50	C	1.409810	1.288747	2.853417
C51	C	0.897388	1.421402	1.855914
C52	C	1.397388	1.921402	2.355914
C53	C	0.909925	1.280322	1.845086
C54	C	1.409925	1.780322	2.345086
H55	H	0.990694	0.859033	1.412588
H56	H	1.490694	1.359033	1.912588
F57	F	1.015706	1.203037	1.753209
F58	F	1.515706	1.703037	2.253209
F59	F	0.720754	0.624410	1.333027
F60	F	1.220754	1.124410	1.833027
F61	F	0.720689	1.300606	2.009300
F62	F	1.220689	1.800606	2.509300
