data_functionalizedCrystal
_audit_creation_method	'MofGen! by Chris Wilmer'
_symmetry_space_group_name_H-M	'P1'
_symmetry_Int_Tables_number	1
_symmetry_cell_setting	triclinic
loop_
_symmetry_equiv_pos_as_xyz
  x,y,z
_cell_length_a	19.288862
_cell_length_b	10.268362
_cell_length_c	19.288865
_cell_angle_alpha	90.010511
_cell_angle_beta	96.864237
_cell_angle_gamma	89.978763
loop_
_atom_site_label
_atom_site_type_symbol
_atom_site_fract_x
_atom_site_fract_y
_atom_site_fract_z
O1	O	-0.921349	0.108817	0.086640
O2	O	-0.421349	0.608817	0.586640
O3	O	-0.719088	0.108712	0.098331
O4	O	-0.219088	0.608712	0.598331
O5	O	-0.826063	0.108742	-0.008645
O6	O	-0.326063	0.608742	0.491355
O7	O	-0.814375	0.108787	0.193616
O8	O	-0.314375	0.608787	0.693616
O9	O	-0.826054	-0.107859	-0.008649
O10	O	-0.326054	0.392141	0.491351
O11	O	-0.719079	-0.107889	0.098327
O12	O	-0.219079	0.392111	0.598327
O13	O	-0.921340	-0.107783	0.086636
O14	O	-0.421340	0.392217	0.586636
Cu15	Cu	-0.820209	-0.127613	0.092481
Cu16	Cu	-0.320209	0.372387	0.592481
Cu17	Cu	-0.820220	0.128542	0.092486
Cu18	Cu	-0.320220	0.628542	0.592486
O19	O	-0.814365	-0.107813	0.193612
O20	O	-0.314365	0.392187	0.693612
C21	C	-0.693207	0.000398	0.097953
C22	C	-0.193207	0.500398	0.597953
C23	C	-0.616104	0.000356	0.096824
C24	C	-0.116104	0.500356	0.596824
C25	C	-0.571407	0.000387	0.159593
C26	C	-0.071407	0.500387	0.659593
C27	C	-0.498960	0.000394	0.158533
C28	C	0.001040	0.500394	0.658533
C29	C	-0.471213	0.000397	0.094701
C30	C	0.028787	0.500397	0.594701
C31	C	-0.515919	0.000359	0.031924
C32	C	-0.015919	0.500359	0.531924
C33	C	-0.588364	0.000339	0.032986
C34	C	-0.088364	0.500339	0.532986
C35	C	-0.362954	0.076304	0.044524
C36	C	0.137046	0.576304	0.544524
C37	C	-0.290509	0.076333	0.043465
C38	C	0.209491	0.576333	0.543465
C39	C	-0.247767	0.000455	0.091423
C40	C	0.252233	0.500455	0.591423
C41	C	-0.277476	-0.075435	0.140452
C42	C	0.222524	0.424565	0.640452
C43	C	-0.349922	-0.075456	0.141514
C44	C	0.150078	0.424544	0.641514
C45	C	-0.392659	0.000419	0.093542
C46	C	0.107341	0.500419	0.593542
C47	C	-0.124514	0.000492	0.153046
C48	C	0.375486	0.500492	0.653046
C49	C	-0.052066	0.000491	0.151983
C50	C	0.447934	0.500491	0.651983
C51	C	-0.069027	0.000469	0.025373
C52	C	0.430973	0.500469	0.525373
C53	C	-0.141473	0.000456	0.026438
C54	C	0.358527	0.500456	0.526438
C55	C	-0.169212	0.000474	0.090276
C56	C	0.330788	0.500474	0.590276
N57	N	-0.820206	-0.307779	0.092477
N58	N	-0.320206	0.192221	0.592477
C59	C	-0.820216	-0.573450	0.092485
C60	C	-0.320216	-0.073450	0.592485
C61	C	-0.820208	-0.425612	0.092482
C62	C	-0.320208	0.074388	0.592482
C63	C	0.052779	0.000511	0.087016
C64	C	0.552779	0.500511	0.587016
C65	C	-0.024324	0.000492	0.088151
C66	C	0.475676	0.500492	0.588151
C67	C	-0.825683	0.000437	-0.034523
C68	C	-0.325683	0.500437	0.465477
C69	C	-0.824554	0.000425	-0.111627
C70	C	-0.324554	0.500425	0.388373
N71	N	-0.820228	0.308708	0.092485
N72	N	-0.320228	0.808708	0.592485
C73	C	-0.887322	0.000452	-0.156324
C74	C	-0.387322	0.500452	0.343676
C75	C	-0.886261	0.000472	-0.228771
C76	C	-0.386261	0.500472	0.271229
C77	C	-0.822429	0.000439	-0.256518
C78	C	-0.322429	0.500439	0.243482
C79	C	-0.759652	0.000420	-0.211811
C80	C	-0.259652	0.500420	0.288189
C81	C	-0.760715	0.000413	-0.139366
C82	C	-0.260715	0.500413	0.360634
C83	C	-0.772246	-0.075457	-0.364806
C84	C	-0.272246	0.424543	0.135194
C85	C	-0.771186	-0.075458	-0.437251
C86	C	-0.271186	0.424542	0.062749
C87	C	-0.819149	0.000467	-0.479963
C88	C	-0.319149	0.500467	0.020037
C89	C	-0.868184	0.076376	-0.450224
C90	C	-0.368184	0.576376	0.049776
C91	C	-0.869246	0.076369	-0.377779
C92	C	-0.369246	0.576369	0.122221
C93	C	-0.821269	0.000448	-0.335072
C94	C	-0.321269	0.500448	0.164928
C95	C	-0.880771	0.000517	-0.603216
C96	C	-0.380771	0.500517	-0.103216
C97	C	-0.879708	0.000545	-0.675664
C98	C	-0.379708	0.500545	-0.175664
C99	C	-0.753098	0.000480	-0.658703
C100	C	-0.253098	0.500480	-0.158703
C101	C	-0.754163	0.000465	-0.586257
C102	C	-0.254163	0.500465	-0.086257
C103	C	-0.818001	0.000477	-0.558518
C104	C	-0.318001	0.500477	-0.058518
C105	C	-0.814746	0.000494	0.219490
C106	C	-0.314746	0.500494	0.719490
C107	C	-0.815875	0.000515	0.296594
C108	C	-0.315875	0.500515	0.796594
H109	H	-0.397750	0.138101	0.005469
H110	H	0.102250	0.638101	0.505469
H111	H	-0.624757	0.000314	-0.018129
H112	H	-0.124757	0.500314	0.481871
Br113	Br	-0.438289	0.000428	0.243724
Br114	Br	0.061711	0.500428	0.743724
Br115	Br	-0.704644	-0.178485	-0.477605
Br116	Br	-0.204644	0.321515	0.022395
Br117	Br	-0.707147	-0.178509	-0.306846
Br118	Br	-0.207147	0.321491	0.193154
H119	H	-0.177866	0.000438	-0.024675
H120	H	0.322134	0.500438	0.475325
H121	H	-0.493322	0.000379	-0.020048
H122	H	0.006678	0.500379	0.479952
H123	H	-0.709600	0.000391	-0.102973
H124	H	-0.209600	0.500391	0.397027
Br125	Br	-0.250195	0.179343	-0.023065
Br126	Br	0.249805	0.679343	0.476935
H127	H	-0.707680	0.000397	-0.234407
H128	H	-0.207680	0.500397	0.265593
H129	H	-0.015674	0.000509	0.203099
H130	H	0.484326	0.500509	0.703099
Br131	Br	-0.973959	0.000505	-0.118681
Br132	Br	-0.473959	0.500505	0.381319
Br133	Br	-0.971452	0.000513	-0.289443
Br134	Br	-0.471452	0.500513	0.210557
Br135	Br	-0.666466	0.000449	-0.696351
Br136	Br	-0.166466	0.500449	-0.196351
H137	H	-0.907240	0.138203	-0.485000
H138	H	-0.407240	0.638203	0.015000
Br139	Br	-0.935786	0.179390	-0.337419
Br140	Br	-0.435786	0.679390	0.162581
Br141	Br	-0.967407	0.000520	-0.565566
Br142	Br	-0.467407	0.500520	-0.065566
Br143	Br	-0.964901	0.000595	-0.736327
Br144	Br	-0.464901	0.500595	-0.236327
H145	H	-0.703050	0.000436	-0.549863
H146	H	-0.203050	0.500436	-0.049863
H147	H	-0.374108	-0.137252	0.181433
H148	H	0.125892	0.362748	0.681433
Br149	Br	-0.609051	0.000409	0.246230
Br150	Br	-0.109051	0.500409	0.746230
H151	H	-0.046435	0.000552	-0.026600
H152	H	0.453565	0.500552	0.473400
H153	H	-0.147101	0.000487	0.205027
H154	H	0.352899	0.500487	0.705027
Br155	Br	-0.219478	-0.178416	0.205546
Br156	Br	0.280522	0.321584	0.705546
