data_functionalizedCrystal
_audit_creation_method	'MofGen! by Chris Wilmer'
_symmetry_space_group_name_H-M	'P1'
_symmetry_Int_Tables_number	1
_symmetry_cell_setting	triclinic
loop_
_symmetry_equiv_pos_as_xyz
  x,y,z
_cell_length_a	31.640172
_cell_length_b	14.560438
_cell_length_c	31.640172
_cell_angle_alpha	60.003410
_cell_angle_beta	89.999175
_cell_angle_gamma	59.995003
loop_
_atom_site_label
_atom_site_type_symbol
_atom_site_fract_x
_atom_site_fract_y
_atom_site_fract_z
Zr1	Zr	0.407180	1.005208	-0.055507
Zr2	Zr	0.907180	1.505208	0.444493
O3	O	0.339691	1.196812	-0.122991
O4	O	0.839691	1.696812	0.377009
O5	O	0.427868	0.813601	-0.034815
O6	O	0.927868	1.313601	0.465185
O7	O	0.427868	1.005185	-0.122989
O8	O	0.927868	1.505185	0.377011
O9	O	0.339692	1.005247	0.034731
O10	O	0.839692	1.505247	0.534731
O11	O	0.497424	1.005169	-0.122992
O12	O	0.997424	1.505169	0.377008
O13	O	0.339691	1.005228	-0.034818
O14	O	0.839691	1.505228	0.465182
O15	O	0.497425	0.662460	0.034735
O16	O	0.997425	1.162460	0.534735
O17	O	0.339691	1.347956	-0.122995
O18	O	0.839691	1.847956	0.377005
O19	O	0.488601	0.892401	-0.025998
O20	O	0.988601	1.392401	0.474002
O21	O	0.436693	0.892426	0.025908
O22	O	0.936693	1.392426	0.525908
O23	O	0.436693	1.117992	-0.077905
O24	O	0.936693	1.617992	0.422095
O25	O	0.384784	1.118018	-0.026000
O26	O	0.884784	1.618018	0.474000
Zr27	Zr	0.518116	1.005213	0.055410
Zr28	Zr	1.018116	1.505213	0.555410
Zr29	Zr	0.518114	1.005183	-0.055511
Zr30	Zr	1.018114	1.505183	0.444489
Zr31	Zr	0.407181	1.005238	0.055415
Zr32	Zr	0.907181	1.505238	0.555415
Zr33	Zr	0.407181	1.246265	-0.055514
Zr34	Zr	0.907181	1.746265	0.444486
Zr35	Zr	0.518115	0.764156	0.055417
Zr36	Zr	1.018115	1.264156	0.555417
O37	O	0.497427	1.196820	0.034719
O38	O	0.997427	1.696820	0.534719
O39	O	0.497425	1.196777	-0.122997
O40	O	0.997425	1.696777	0.377003
O41	O	0.339693	1.196856	0.034725
O42	O	0.839693	1.696856	0.534725
O43	O	0.585605	0.813609	0.122894
O44	O	1.085605	1.313609	0.622894
O45	O	0.585603	0.813565	-0.034822
O46	O	1.085603	1.313565	0.465178
O47	O	0.427871	0.813644	0.122901
O48	O	0.927871	1.313644	0.622901
O49	O	0.585603	1.005173	-0.034827
O50	O	1.085603	1.505173	0.465173
O51	O	0.497428	1.005236	0.122892
O52	O	0.997428	1.505236	0.622892
O53	O	0.427871	1.005252	0.122895
O54	O	0.927871	1.505252	0.622895
O55	O	0.585604	1.005193	0.034721
O56	O	1.085604	1.505193	0.534721
O57	O	0.427869	1.347937	-0.122999
O58	O	0.927869	1.847937	0.377001
O59	O	0.497426	0.662484	0.122902
O60	O	0.997426	1.162484	0.622902
O61	O	0.585604	0.662465	0.122899
O62	O	1.085604	1.162465	0.622899
O63	O	0.585603	0.662441	0.034731
O64	O	1.085603	1.162441	0.534731
O65	O	0.339692	1.347980	-0.034828
O66	O	0.839692	1.847980	0.465172
O67	O	0.427870	1.347961	-0.034831
O68	O	0.927870	1.847961	0.465169
O69	O	0.488603	0.892429	0.077809
O70	O	0.988603	1.392429	0.577809
O71	O	0.540511	0.892403	0.025903
O72	O	1.040511	1.392403	0.525903
O73	O	0.488602	1.117995	-0.026004
O74	O	0.988602	1.617995	0.473996
O75	O	0.436694	1.118020	0.025901
O76	O	0.936694	1.618020	0.525901
C77	C	0.462647	0.703685	-0.000039
C78	C	0.962647	1.203685	0.499961
C79	C	0.462646	0.601350	-0.000036
C80	C	0.962646	1.101350	0.499964
C81	C	0.424326	0.636562	-0.038358
C82	C	0.924326	1.136562	0.461642
C83	C	0.424328	0.540422	-0.038371
C84	C	0.924328	1.040422	0.461629
C85	C	0.500974	0.373859	0.038263
C86	C	1.000974	0.873859	0.538263
C87	C	0.500973	0.469998	0.038274
C88	C	1.000973	0.969998	0.538274
C89	C	0.323886	1.005241	-0.000043
C90	C	0.823886	1.505241	0.499957
C91	C	0.276792	1.005252	-0.000041
C92	C	0.776792	1.505252	0.499959
C93	C	-0.015214	1.005177	-0.038362
C94	C	0.484786	1.505177	0.461638
C95	C	-0.192201	1.005160	-0.038366
C96	C	0.307799	1.505160	0.461634
O97	O	-0.215074	1.005094	-0.070938
O98	O	0.284926	1.505094	0.429062
N99	N	-0.214331	1.005173	-0.000052
N100	N	0.285669	1.505173	0.499948
C101	C	-0.192210	1.005182	0.038268
C102	C	0.307790	1.505182	0.538268
O103	O	-0.215091	1.005179	0.070860
O104	O	0.284909	1.505179	0.570860
C105	C	-0.015222	1.005189	0.038274
C106	C	0.484778	1.505189	0.538274
C107	C	0.006903	1.005189	-0.000046
C108	C	0.506903	1.505189	0.499954
C109	C	0.006911	1.005175	-0.076678
C110	C	0.506911	1.505175	0.423322
C111	C	0.051153	1.005186	-0.076679
C112	C	0.551153	1.505186	0.423321
C113	C	0.073270	1.005199	-0.038363
C114	C	0.573270	1.505199	0.461637
C115	C	0.051145	1.005200	-0.000046
C116	C	0.551145	1.505200	0.499954
C117	C	0.006900	1.005188	0.076595
C118	C	0.506900	1.505188	0.576595
C119	C	0.051151	1.005187	0.076594
C120	C	0.551151	1.505187	0.576594
C121	C	0.073276	1.005187	0.038274
C122	C	0.573276	1.505187	0.538274
C123	C	0.117505	1.005224	0.038269
C124	C	0.617505	1.505224	0.538269
N125	N	0.139635	1.005211	-0.000045
N126	N	0.639635	1.505211	0.499955
C127	C	0.117518	1.005198	-0.038361
C128	C	0.617518	1.505198	0.461639
C129	C	-0.285132	1.005181	0.038262
C130	C	0.214868	1.505181	0.538262
C131	C	-0.329379	1.005182	0.038260
C132	C	0.170621	1.505182	0.538260
C133	C	-0.329366	1.005157	-0.038373
C134	C	0.170634	1.505157	0.461627
C135	C	-0.285120	1.005166	-0.038373
C136	C	0.214880	1.505166	0.461627
C137	C	-0.263002	1.005168	-0.000052
C138	C	0.236998	1.505168	0.499948
C139	C	0.210429	1.005223	-0.038359
C140	C	0.710429	1.505223	0.461641
C141	C	0.254674	1.005239	-0.038357
C142	C	0.754674	1.505239	0.461643
C143	C	0.254660	1.005257	0.038278
C144	C	0.754660	1.505257	0.538278
C145	C	0.210417	1.005247	0.038275
C146	C	0.710417	1.505247	0.538275
C147	C	0.188304	1.005226	-0.000046
C148	C	0.688304	1.505226	0.499954
O149	O	0.140408	1.005276	0.070828
O150	O	0.640408	1.505276	0.570828
O151	O	0.140413	1.005172	-0.070941
O152	O	0.640413	1.505172	0.429059
C153	C	-0.059457	1.005165	-0.038362
C154	C	0.440543	1.505165	0.461638
C155	C	-0.081582	1.005167	-0.000045
C156	C	0.418418	1.505167	0.499955
C157	C	-0.059465	1.005179	0.038271
C158	C	0.440535	1.505179	0.538271
C159	C	-0.125829	1.005167	-0.000047
C160	C	0.374171	1.505167	0.499953
C161	C	-0.147946	1.005155	-0.038363
C162	C	0.352054	1.505155	0.461637
C163	C	-0.125816	1.005142	-0.076677
C164	C	0.374184	1.505142	0.423323
C165	C	-0.081574	1.005153	-0.076678
C166	C	0.418426	1.505153	0.423322
C167	C	-0.081595	1.005193	0.076585
C168	C	0.418405	1.505193	0.576585
C169	C	-0.125838	1.005183	0.076582
C170	C	0.374162	1.505183	0.576582
C171	C	-0.147955	1.005170	0.038266
C172	C	0.352045	1.505170	0.538266
C173	C	0.601409	1.005179	-0.000054
C174	C	1.101409	1.505179	0.499946
C175	C	0.648504	1.005169	-0.000056
C176	C	1.148504	1.505169	0.499944
C177	C	0.462646	1.005172	-0.138794
C178	C	0.962646	1.505172	0.361206
C179	C	0.462645	1.005160	-0.185883
C180	C	0.962645	1.505160	0.314117
C181	C	0.462649	1.306736	-0.000057
C182	C	0.962649	1.806736	0.499943
C183	C	0.462649	1.409071	-0.000060
C184	C	0.962649	1.909071	0.499940
C185	C	0.435557	1.122979	-0.505014
C186	C	0.935557	1.622979	-0.005014
C187	C	0.435557	1.123002	-0.682009
C188	C	0.935557	1.623002	-0.182009
O189	O	0.412532	1.223150	-0.727939
O190	O	0.912532	1.723150	-0.227939
N191	N	0.462652	1.005246	-0.677044
N192	N	0.962652	1.505246	-0.177044
C193	C	0.489752	0.887477	-0.627825
C194	C	0.989752	1.387477	-0.127825
O195	O	0.512802	0.787319	-0.627663
O196	O	1.012802	1.287319	-0.127663
C197	C	0.489754	0.887455	-0.450831
C198	C	0.989754	1.387455	0.049169
C199	C	0.462653	1.005219	-0.455800
C200	C	0.962653	1.505219	0.044200
C201	C	0.408458	1.240733	-0.509981
C202	C	0.908458	1.740733	-0.009981
C203	C	0.408456	1.240726	-0.465734
C204	C	0.908456	1.740726	0.034266
C205	C	0.435552	1.122965	-0.416521
C206	C	0.935552	1.622965	0.083479
C207	C	0.462651	1.005212	-0.411554
C208	C	0.962651	1.505212	0.088446
C209	C	0.516856	0.769687	-0.401613
C210	C	1.016856	1.269687	0.098387
C211	C	0.516855	0.769693	-0.357364
C212	C	1.016855	1.269693	0.142636
C213	C	0.489754	0.887456	-0.362334
C214	C	0.989754	1.387456	0.137666
C215	C	0.489744	0.887445	-0.318094
C216	C	0.989744	1.387445	0.181906
N217	N	0.462650	1.005200	-0.323059
N218	N	0.962650	1.505200	0.176941
C219	C	0.435553	1.122960	-0.372272
C220	C	0.935553	1.622960	0.127728
C221	C	0.489748	0.887496	-0.720752
C222	C	0.989748	1.387496	-0.220752
C223	C	0.489747	0.887501	-0.765000
C224	C	0.989747	1.387501	-0.265000
C225	C	0.435553	1.123026	-0.819181
C226	C	0.935553	1.623026	-0.319181
C227	C	0.435551	1.123020	-0.774931
C228	C	0.935551	1.623020	-0.274931
C229	C	0.462653	1.005251	-0.725717
C230	C	0.962653	1.505251	-0.225717
C231	C	0.435550	1.122937	-0.279349
C232	C	0.935550	1.622937	0.220651
C233	C	0.435549	1.122920	-0.235097
C234	C	0.935549	1.622920	0.264903
C235	C	0.489745	0.887395	-0.180920
C236	C	0.989745	1.387395	0.319080
C237	C	0.489744	0.887412	-0.225169
C238	C	0.989744	1.387412	0.274831
C239	C	0.462646	1.005193	-0.274385
C240	C	0.962646	1.505193	0.225615
O241	O	0.512763	0.787349	-0.272149
O242	O	1.012763	1.287349	0.227851
O243	O	0.412516	1.223103	-0.372423
O244	O	0.912516	1.723103	0.127577
C245	C	0.435559	1.122986	-0.549260
C246	C	0.935559	1.622986	-0.049260
C247	C	0.462657	1.005232	-0.544293
C248	C	0.962657	1.505232	-0.044293
C249	C	0.489753	0.887472	-0.495080
C250	C	0.989753	1.387472	0.004920
C251	C	0.462656	1.005237	-0.588541
C252	C	0.962656	1.505237	-0.088541
C253	C	0.435560	1.122998	-0.637755
C254	C	0.935560	1.622998	-0.137755
C255	C	0.408465	1.240753	-0.642720
C256	C	0.908465	1.740753	-0.142720
C257	C	0.408463	1.240746	-0.598474
C258	C	0.908463	1.740746	-0.098474
C259	C	0.516848	0.769716	-0.490114
C260	C	1.016848	1.269716	0.009886
C261	C	0.516848	0.769733	-0.534363
C262	C	1.016848	1.269733	-0.034363
C263	C	0.489751	0.887493	-0.583577
C264	C	0.989751	1.387493	-0.083577
C265	C	0.462650	1.005248	0.138698
C266	C	0.962650	1.505248	0.638698
C267	C	0.462650	1.005261	0.185787
C268	C	0.962650	1.505261	0.685787
C269	C	0.601408	0.703654	-0.000045
C270	C	1.101408	1.203654	0.499955
C271	C	0.648503	0.601308	-0.000044
C272	C	1.148503	1.101308	0.499956
C273	C	0.462649	0.703723	0.138706
C274	C	0.962649	1.203723	0.638706
C275	C	0.462649	0.601401	0.185799
C276	C	0.962649	1.101401	0.685799
C277	C	0.601410	0.703692	0.138701
C278	C	1.101410	1.203692	0.638701
C279	C	0.648505	0.601359	0.185791
C280	C	1.148505	1.101359	0.685791
C281	C	0.323885	1.306729	-0.138797
C282	C	0.823885	1.806729	0.361203
C283	C	0.276790	1.409062	-0.185888
C284	C	0.776790	1.909062	0.314112
C285	C	0.323887	1.306767	-0.000052
C286	C	0.823887	1.806767	0.499948
C287	C	0.276793	1.409112	-0.000053
C288	C	0.776793	1.909112	0.499947
C289	C	0.462647	1.306698	-0.138803
C290	C	0.962647	1.806698	0.361197
C291	C	0.462646	1.409020	-0.185895
C292	C	0.962646	1.909020	0.314105
C293	C	0.643522	0.553245	-0.027140
C294	C	1.143522	1.053245	0.472860
C295	C	0.687768	0.457093	-0.027149
C296	C	1.187768	0.957093	0.472851
C297	C	0.736993	0.409001	-0.000059
C298	C	1.236993	0.909001	0.499941
C299	C	0.741973	0.457075	0.027038
C300	C	1.241973	0.957075	0.527038
C301	C	0.697728	0.553231	0.027044
C302	C	1.197728	1.053231	0.527044
C303	C	0.489745	0.553351	0.235010
C304	C	0.989745	1.053351	0.735010
C305	C	0.489744	0.457222	0.279262
C306	C	0.989744	0.957222	0.779262
C307	C	0.462648	0.409138	0.274302
C308	C	0.962648	0.909138	0.774302
C309	C	0.435549	0.457198	0.225085
C310	C	0.935549	0.957198	0.725085
C311	C	0.435547	0.553331	0.180834
C312	C	0.935547	1.053331	0.680834
C313	C	0.697722	0.553289	0.180811
C314	C	1.197722	1.053289	0.680811
C315	C	0.741976	0.457150	0.225053
C316	C	1.241976	0.957150	0.725053
C317	C	0.737014	0.409077	0.274275
C318	C	1.237014	0.909077	0.774275
C319	C	0.687792	0.457156	0.279253
C320	C	1.187792	0.957156	0.779253
C321	C	0.643538	0.553300	0.235012
C322	C	1.143538	1.053300	0.735012
C323	C	0.227574	1.457143	-0.180908
C324	C	0.727574	1.957143	0.319092
C325	C	0.183319	1.553312	-0.225150
C326	C	0.683319	2.053312	0.274850
C327	C	0.188282	1.601391	-0.274371
C328	C	0.688282	2.101391	0.225629
C329	C	0.237504	1.553305	-0.279350
C330	C	0.737504	2.053305	0.220650
C331	C	0.281757	1.457145	-0.235109
C332	C	0.781757	1.957145	0.264891
C333	C	0.281773	1.457186	0.027038
C334	C	0.781773	1.957186	0.527038
C335	C	0.237528	1.553364	0.027036
C336	C	0.737528	2.053364	0.527036
C337	C	0.188302	1.601460	-0.000056
C338	C	0.688302	2.101460	0.499944
C339	C	0.183323	1.553382	-0.027151
C340	C	0.683323	2.053382	0.472849
C341	C	0.227568	1.457212	-0.027150
C342	C	0.727568	1.957212	0.472850
C343	C	0.489747	1.457073	-0.180918
C344	C	0.989747	1.957073	0.319082
C345	C	0.489757	1.553203	-0.225162
C346	C	0.989757	2.053203	0.274838
C347	C	0.462663	1.601284	-0.274382
C348	C	0.962663	2.101284	0.225618
C349	C	0.435561	1.553222	-0.279358
C350	C	0.935561	2.053222	0.220642
C351	C	0.435555	1.457087	-0.235115
C352	C	0.935555	1.957087	0.264885
H353	H	0.393115	0.743511	-0.069550
H354	H	0.893115	1.243511	0.430450
H355	H	0.413502	1.592384	-0.319439
H356	H	0.913502	2.092384	0.180561
H357	H	0.701790	0.592352	0.049111
H358	H	1.201790	1.092352	0.549111
H359	H	0.701772	0.592417	0.140737
H360	H	1.201772	1.092417	0.640737
H361	H	0.069166	1.005181	-0.107880
H362	H	0.569166	1.505181	0.392120
H363	H	-0.267126	1.005183	0.069469
H364	H	0.232874	1.505183	0.569469
H365	H	0.773052	0.330790	0.310295
H366	H	1.273052	0.830790	0.810295
H367	H	0.393124	0.569104	-0.069577
H368	H	0.893124	1.069104	0.430423
H369	H	0.462653	0.330860	0.310338
H370	H	0.962653	0.830860	0.810338
H371	H	0.538915	0.673829	-0.530309
H372	H	1.038915	1.173829	-0.030309
H373	H	0.192398	1.005266	0.069474
H374	H	0.692398	1.505266	0.569474
H375	H	0.223505	1.418073	-0.049210
H376	H	0.723505	1.918073	0.450790
H377	H	0.782051	0.418014	0.220990
H378	H	1.282051	0.918014	0.720990
H379	H	0.773016	0.330704	-0.000068
H380	H	1.273016	0.830704	0.499932
H381	H	0.413483	1.218913	-0.778983
H382	H	0.913483	1.718913	-0.278983
H383	H	0.413488	0.418034	0.221054
H384	H	0.913488	0.918034	0.721054
H385	H	0.413484	0.592441	0.140766
H386	H	0.913484	1.092441	0.640766
H387	H	0.603444	0.592400	-0.049206
H388	H	1.103444	1.092400	0.450794
H389	H	0.511810	0.592490	0.239059
H390	H	1.011810	1.092490	0.739059
H391	H	0.532181	0.441316	0.069481
H392	H	1.032181	0.941316	0.569481
H393	H	0.143245	1.592447	-0.221086
H394	H	0.643245	2.092447	0.278914
H395	H	0.152243	1.679691	-0.310391
H396	H	0.652243	2.179691	0.189609
H397	H	0.386399	1.336638	-0.682798
H398	H	0.886399	1.836638	-0.182798
H399	H	0.683759	0.418000	0.319335
H400	H	1.183759	0.918000	0.819335
H401	H	0.241538	1.592464	-0.319431
H402	H	0.741538	2.092464	0.180569
H403	H	0.603466	0.592426	0.239074
H404	H	1.103466	1.092426	0.739074
H405	H	0.321830	1.417997	-0.239170
H406	H	0.821830	1.917997	0.260830
H407	H	0.321851	1.418034	0.049103
H408	H	0.821851	1.918034	0.549103
H409	H	0.223523	1.418003	-0.140833
H410	H	0.723523	1.918003	0.359167
H411	H	0.272686	1.005243	-0.069563
H412	H	0.772686	1.505243	0.430437
H413	H	0.462672	1.679564	-0.310404
H414	H	0.962672	2.179564	0.189596
H415	H	0.532177	0.266904	0.069454
H416	H	1.032177	0.766904	0.569454
H417	H	0.192431	1.005203	-0.069563
H418	H	0.692431	1.505203	0.430437
H419	H	0.241592	1.592493	0.049101
H420	H	0.741592	2.092493	0.549101
H421	H	0.152279	1.679767	-0.000052
H422	H	0.652279	2.179767	0.499948
H423	H	-0.011092	1.005160	-0.107880
H424	H	0.488908	1.505160	0.392120
H425	H	0.782058	0.417904	0.049093
H426	H	1.282058	0.917904	0.549093
H427	H	0.143237	1.592556	-0.049208
H428	H	0.643237	2.092556	0.450792
H429	H	0.511805	0.791520	-0.221121
H430	H	1.011805	1.291520	0.278879
H431	H	0.511811	1.417940	-0.140845
H432	H	1.011811	1.917940	0.359155
H433	H	-0.063563	1.005152	-0.107881
H434	H	0.436437	1.505152	0.392119
H435	H	0.511826	1.592325	-0.221101
H436	H	1.011826	2.092325	0.278899
H437	H	-0.267109	1.005165	-0.069576
H438	H	0.232891	1.505165	0.430424
H439	H	-0.347382	1.005150	-0.069573
H440	H	0.152618	1.505150	0.430427
H441	H	-0.347395	1.005202	0.069459
H442	H	0.152605	1.505202	0.569459
H443	H	0.386393	1.336633	-0.550050
H444	H	0.886393	1.836633	-0.050050
H445	H	0.511814	0.418103	0.319332
H446	H	1.011814	0.918103	0.819332
H447	H	0.413484	1.417973	-0.239174
H448	H	0.913484	1.917973	0.260826
H449	H	0.413485	1.218846	-0.319419
H450	H	0.913485	1.718846	0.180581
H451	H	-0.011107	1.005187	0.107799
H452	H	0.488893	1.505187	0.607799
H453	H	0.386390	1.336621	-0.469787
H454	H	0.886390	1.836621	0.030213
H455	H	0.069159	1.005184	0.107801
H456	H	0.569159	1.505184	0.607801
H457	H	0.272673	1.005273	0.069473
H458	H	0.772673	1.505273	0.569473
H459	H	-0.143833	1.005138	-0.107878
H460	H	0.356167	1.505138	0.392122
H461	H	-0.143851	1.005193	0.107786
H462	H	0.356149	1.505193	0.607786
H463	H	0.413478	1.218821	-0.239149
H464	H	0.913478	1.718821	0.260851
H465	H	0.413488	1.218912	-0.859259
H466	H	0.913488	1.718912	-0.359259
H467	H	0.511808	0.791606	-0.760948
H468	H	1.011808	1.291606	-0.260948
H469	H	-0.063590	1.005200	0.107787
H470	H	0.436410	1.505200	0.607787
H471	H	0.511818	0.791589	-0.680681
H472	H	1.011818	1.291589	-0.180681
H473	H	0.683703	0.417964	-0.049214
H474	H	1.183703	0.917964	0.450786
H475	H	0.538925	0.673792	-0.397557
H476	H	1.038925	1.173792	0.102443
H477	H	0.538925	0.673789	-0.317292
H478	H	1.038925	1.173789	0.182708
H479	H	0.511804	0.791518	-0.140843
H480	H	1.011804	1.291518	0.359157
H481	H	0.386394	1.336641	-0.602526
H482	H	0.886394	1.836641	-0.102526
H483	H	0.538915	0.673820	-0.450046
H484	H	1.038915	1.173820	0.049954
