data_functionalizedCrystal
_audit_creation_method	'MofGen! by Chris Wilmer'
_symmetry_space_group_name_H-M	'P1'
_symmetry_Int_Tables_number	1
_symmetry_cell_setting	triclinic
loop_
_symmetry_equiv_pos_as_xyz
  x,y,z
_cell_length_a	19.121063
_cell_length_b	17.077404
_cell_length_c	17.077396
_cell_angle_alpha	90.021457
_cell_angle_beta	92.408800
_cell_angle_gamma	87.531824
loop_
_atom_site_label
_atom_site_type_symbol
_atom_site_fract_x
_atom_site_fract_y
_atom_site_fract_z
Zn1	Zn	-0.279630	-1.186696	-0.457193
Zn2	Zn	0.220370	-0.686696	0.042807
Zn3	Zn	-0.397087	-1.180992	-0.331518
Zn4	Zn	0.102913	-0.680992	0.168482
Zn5	Zn	-0.279653	-1.055427	-0.325938
Zn6	Zn	0.220347	-0.555427	0.174062
Zn7	Zn	-0.397043	-1.049787	-0.462735
Zn8	Zn	0.102957	-0.549787	0.037265
O9	O	-0.338354	-1.118226	-0.394346
O10	O	0.161646	-0.618226	0.105654
O11	O	-0.295220	-1.295786	-0.440538
O12	O	0.204780	-0.795786	0.059462
O13	O	-0.381537	-1.164309	-0.220932
O14	O	0.118463	-0.664309	0.279068
O15	O	-0.181365	-1.077588	-0.338695
O16	O	0.318635	-0.577588	0.161305
O17	O	-0.381516	-1.291595	-0.348205
O18	O	0.118484	-0.791595	0.151795
O19	O	-0.181349	-1.174031	-0.435127
O20	O	0.318651	-0.674031	0.064873
O21	O	-0.295259	-1.072057	-0.216832
O22	O	0.204741	-0.572057	0.283168
O23	O	-0.295216	-0.944832	-0.344068
O24	O	0.204784	-0.444832	0.155932
O25	O	-0.381441	-1.067975	-0.571845
O26	O	0.118559	-0.567975	-0.071845
O27	O	-0.381462	-0.940689	-0.444572
O28	O	0.118538	-0.440689	0.055428
O29	O	-0.295178	-1.168562	-0.567774
O30	O	0.204822	-0.668562	-0.067774
O31	O	-0.495366	-1.158840	-0.353578
O32	O	0.004634	-0.658840	0.146422
O33	O	-0.495334	-1.062444	-0.449983
O34	O	0.004666	-0.562444	0.050017
C35	C	-0.338337	-0.914279	-0.394316
C36	C	0.161663	-0.414279	0.105684
C37	C	-0.338347	-0.827028	-0.394323
C38	C	0.161653	-0.327028	0.105677
C39	C	-0.383323	-0.783898	-0.446577
C40	C	0.116677	-0.283898	0.053423
C41	C	-0.383323	-0.701918	-0.446587
C42	C	0.116677	-0.201918	0.053413
C43	C	-0.338350	-0.663069	-0.394338
C44	C	0.161650	-0.163069	0.105662
C45	C	-0.293370	-0.706205	-0.342082
C46	C	0.206630	-0.206205	0.157918
C47	C	-0.293367	-0.788184	-0.342077
C48	C	0.206633	-0.288184	0.157923
C49	C	-0.293381	-0.535335	-0.342096
C50	C	0.206619	-0.035335	0.157904
C51	C	-0.293385	-0.453350	-0.342100
C52	C	0.206615	0.046650	0.157900
C53	C	-0.383337	-0.449068	-0.446606
C54	C	0.116663	0.050932	0.053394
C55	C	-0.383334	-0.531047	-0.446600
C56	C	0.116666	-0.031047	0.053400
C57	C	-0.338354	-0.574178	-0.394343
C58	C	0.161646	-0.074178	0.105657
C59	C	-0.520834	-1.109433	-0.403004
C60	C	-0.020834	-0.609433	0.096996
C61	C	-0.598900	-1.105743	-0.406735
C62	C	-0.098900	-0.605743	0.093265
C63	C	-0.635569	-1.154236	-0.358336
C64	C	-0.135569	-0.654236	0.141664
C65	C	-0.708920	-1.150771	-0.361850
C66	C	-0.208920	-0.650771	0.138150
C67	C	-0.745601	-1.098807	-0.413758
C68	C	-0.245601	-0.598807	0.086242
C69	C	-0.708927	-1.050311	-0.462162
C70	C	-0.208927	-0.550311	0.037838
C71	C	-0.635577	-1.053781	-0.458652
C72	C	-0.135577	-0.553781	0.041348
C73	C	-0.967071	-1.085820	-0.426868
C74	C	-0.467071	-0.585820	0.073132
C75	C	-1.040426	-1.082352	-0.430372
C76	C	-0.540426	-0.582352	0.069628
C77	C	-1.040414	-1.182813	-0.330061
C78	C	-0.540414	-0.682813	0.169939
C79	C	-0.967063	-1.186275	-0.326552
C80	C	-0.467063	-0.686275	0.173448
C81	C	-0.930395	-1.137782	-0.374959
C82	C	-0.430395	-0.637782	0.125041
C83	C	-0.820578	-1.095261	-0.417348
C84	C	-0.320578	-0.595261	0.082652
C85	C	-0.855419	-1.141332	-0.371372
C86	C	-0.355419	-0.641332	0.128628
C87	C	-0.155161	-1.127075	-0.385670
C88	C	0.344839	-0.627075	0.114330
C89	C	-0.077095	-1.130845	-0.381973
C90	C	0.422905	-0.630845	0.118027
C91	C	-0.338302	-1.118276	-0.599088
C92	C	0.161698	-0.618276	-0.099088
C93	C	-0.338280	-1.118297	-0.686336
C94	C	0.161720	-0.618297	-0.186336
C95	C	-0.338366	-0.322969	-0.394367
C96	C	0.161634	0.177031	0.105633
C97	C	-0.338360	-0.410219	-0.394354
C98	C	0.161640	0.089781	0.105646
C99	C	-0.293359	-1.170674	-0.725208
C100	C	0.206641	-0.670674	-0.225208
C101	C	-0.293336	-1.170685	-0.807187
C102	C	0.206664	-0.670685	-0.307187
C103	C	-0.338237	-1.118321	-0.850294
C104	C	0.161763	-0.618321	-0.350294
C105	C	-0.383160	-1.065938	-0.811417
C106	C	0.116840	-0.565938	-0.311417
C107	C	-0.383179	-1.065924	-0.729439
C108	C	0.116821	-0.565924	-0.229439
C109	C	-0.383118	-1.065972	-0.982285
C110	C	0.116882	-0.565972	-0.482285
C111	C	-0.383099	-1.065986	-1.064269
C112	C	0.116901	-0.565986	-0.564269
C113	C	-0.293274	-1.170732	-1.060033
C114	C	0.206726	-0.670732	-0.560033
C115	C	-0.293293	-1.170719	-0.978055
C116	C	0.206707	-0.670719	-0.478055
C117	C	-0.338217	-1.118336	-0.939184
C118	C	0.161783	-0.618336	-0.439184
C119	C	-0.338354	-1.118224	-0.190398
C120	C	0.161646	-0.618224	0.309602
C121	C	-0.338179	-1.118364	-0.103140
C122	C	0.161821	-0.618364	0.396860
H123	H	-0.419959	-0.413947	-0.489158
H124	H	0.080041	0.086053	0.010842
H125	H	-0.738773	-1.190259	-0.322438
H126	H	-0.238773	-0.690259	0.177562
H127	H	-0.605722	-1.014294	-0.498064
H128	H	-0.105722	-0.514294	0.001936
H129	H	-0.256756	-0.421722	-0.299563
H130	H	0.243244	0.078278	0.200437
O131	O	-0.431568	-1.009468	-0.940361
O132	O	0.068432	-0.509468	-0.440361
H133	H	-0.467311	-1.042865	-0.904705
H134	H	0.032689	-0.542865	-0.404705
H135	H	-0.419661	-1.023346	-1.099364
H136	H	0.080339	-0.523346	-0.599364
O137	O	-0.431619	-1.009422	-0.687507
O138	O	0.068381	-0.509422	-0.187507
H139	H	-0.462840	-0.973013	-0.731252
H140	H	0.037160	-0.473013	-0.231252
H141	H	-0.256758	-1.213338	-0.838832
H142	H	0.243242	-0.713338	-0.338832
H143	H	-0.256735	-1.213362	-0.942960
H144	H	0.243265	-0.713362	-0.442960
O145	O	-0.927536	-1.033493	-0.479059
O146	O	-0.427536	-0.533493	0.020941
H147	H	-0.941572	-1.046238	-0.541354
H148	H	-0.441572	-0.546238	-0.041354
H149	H	-0.419717	-1.023300	-0.846521
H150	H	0.080283	-0.523300	-0.346521
H151	H	-0.937198	-1.228588	-0.284284
H152	H	-0.437198	-0.728588	0.215716
O153	O	-0.431826	-0.825799	-0.502934
O154	O	0.068174	-0.325799	-0.002934
H155	H	-0.463094	-0.782031	-0.539277
H156	H	0.036906	-0.282031	-0.039277
H157	H	-0.256750	-0.674568	-0.299544
H158	H	0.243250	-0.174568	0.200456
H159	H	-1.070277	-1.222294	-0.290652
H160	H	-0.570277	-0.722294	0.209348
O161	O	-0.748484	-0.994253	-0.518142
O162	O	-0.248484	-0.494253	-0.018142
H163	H	-0.805650	-0.999977	-0.512443
H164	H	-0.305650	-0.499977	-0.012443
O165	O	-0.244875	-0.581859	-0.285727
O166	O	0.255125	-0.081859	0.214273
H167	H	-0.213610	-0.541073	-0.249387
H168	H	0.286390	-0.041073	0.250613
O169	O	-0.244864	-0.834703	-0.285706
O170	O	0.255136	-0.334703	0.214294
H171	H	-0.189757	-0.821623	-0.296648
H172	H	0.310243	-0.321623	0.203352
O173	O	-0.431964	-0.655470	-0.502869
O174	O	0.068036	-0.155470	-0.002869
H175	H	-0.420093	-0.671794	-0.563963
H176	H	0.079907	-0.171794	-0.063963
O177	O	-0.431835	-0.572951	-0.502957
O178	O	0.068165	-0.072951	-0.002957
H179	H	-0.486945	-0.554557	-0.492018
H180	H	0.013055	-0.054557	0.007982
O181	O	-0.596007	-1.210287	-0.302353
O182	O	-0.096007	-0.710287	0.197647
H183	H	-0.633831	-1.243431	-0.269296
H184	H	-0.133831	-0.743431	0.230704
H185	H	-1.070289	-1.040046	-0.472656
H186	H	-0.570289	-0.540046	0.027344
O187	O	-0.815857	-1.197388	-0.315398
O188	O	-0.315857	-0.697388	0.184602
H189	H	-0.782487	-1.163858	-0.273831
H190	H	-0.282487	-0.663858	0.226169
H191	H	-0.850451	-1.052951	-0.459611
H192	H	-0.350451	-0.552951	0.040389
H193	H	-0.256797	-1.213317	-0.690116
H194	H	0.243203	-0.713317	-0.190116
H195	H	-0.256694	-1.213383	-1.091686
H196	H	0.243306	-0.713383	-0.591686
