data_functionalizedCrystal
_audit_creation_method	'MofGen! by Chris Wilmer'
_symmetry_space_group_name_H-M	'P1'
_symmetry_Int_Tables_number	1
_symmetry_cell_setting	triclinic
loop_
_symmetry_equiv_pos_as_xyz
  x,y,z
_cell_length_a	12.970454
_cell_length_b	14.560438
_cell_length_c	14.560438
_cell_angle_alpha	60.000905
_cell_angle_beta	89.999937
_cell_angle_gamma	59.999012
loop_
_atom_site_label
_atom_site_type_symbol
_atom_site_fract_x
_atom_site_fract_y
_atom_site_fract_z
Zr1	Zr	0.993220	1.005272	-0.120521
O2	O	0.828592	1.196876	-0.267164
O3	O	1.043687	0.813670	-0.075569
O4	O	1.043682	1.005274	-0.267170
O5	O	0.828601	1.005270	0.075578
O6	O	1.213349	1.005274	-0.267173
O7	O	0.828597	1.005272	-0.075563
O8	O	1.213358	0.662529	0.075566
O9	O	0.828592	1.348014	-0.267161
O10	O	1.191832	0.892478	-0.056397
O11	O	1.065214	0.892476	0.056399
O12	O	1.065208	1.118065	-0.169186
O13	O	0.938591	1.118064	-0.056389
Zr14	Zr	1.263827	1.005267	0.120528
Zr15	Zr	1.263820	1.005271	-0.120525
Zr16	Zr	0.993227	1.005268	0.120531
Zr17	Zr	0.993220	1.246320	-0.120516
Zr18	Zr	1.263826	0.764219	0.120523
O19	O	1.213360	1.196868	0.075576
O20	O	1.213350	1.196874	-0.267169
O21	O	0.828601	1.196870	0.075581
O22	O	1.428455	0.813663	0.267170
O23	O	1.428445	0.813669	-0.075575
O24	O	1.043697	0.813665	0.267176
O25	O	1.428446	1.005269	-0.075571
O26	O	1.213365	1.005265	0.267177
O27	O	1.043697	1.005265	0.267179
O28	O	1.428450	1.005267	0.075570
O29	O	1.043683	1.348013	-0.267164
O30	O	1.213364	0.662526	0.267170
O31	O	1.428455	0.662525	0.267167
O32	O	1.428449	0.662528	0.075563
O33	O	0.828597	1.348011	-0.075556
O34	O	1.043688	1.348010	-0.075559
O35	O	1.191838	0.892474	0.169192
O36	O	1.318456	0.892475	0.056396
O37	O	1.191832	1.118063	-0.056393
O38	O	1.065215	1.118061	0.056404
C39	C	1.128523	0.703756	-0.000002
C40	C	1.128522	0.601425	-0.000004
C41	C	1.194613	0.553349	-0.058883
C42	C	1.194618	0.457190	-0.058872
C43	C	1.062432	0.457194	0.058897
C44	C	1.062435	0.553345	0.058892
C45	C	0.790044	1.005271	0.000008
C46	C	0.675167	1.005272	0.000010
C47	C	1.467003	1.005268	-0.000001
C48	C	1.581879	1.005267	-0.000003
C49	C	1.128515	1.005275	-0.301516
C50	C	1.128512	1.005276	-0.403849
C51	C	1.128524	1.306783	0.000009
C52	C	1.128524	1.409114	0.000011
C53	C	1.062417	1.123029	-0.510800
C54	C	1.062432	1.123022	-0.606949
C55	C	1.194638	0.887501	-0.489182
C56	C	1.194630	0.887509	-0.393036
C57	C	1.128532	1.005264	0.301523
C58	C	1.128535	1.005263	0.403856
C59	C	1.467002	0.703754	-0.000007
C60	C	1.581879	0.601422	-0.000010
C61	C	1.128531	0.703751	0.301517
C62	C	1.128534	0.601418	0.403848
C63	C	1.467011	0.703749	0.301513
C64	C	1.581890	0.601416	0.403842
C65	C	0.790036	1.306790	-0.301506
C66	C	0.675157	1.409123	-0.403835
C67	C	0.790045	1.306785	0.000014
C68	C	0.675168	1.409116	0.000017
C69	C	1.128515	1.306788	-0.301510
C70	C	1.128513	1.409121	-0.403841
C71	C	1.635829	0.470089	0.083256
C72	C	1.743757	0.373924	0.083256
C73	C	1.797737	0.409096	-0.000006
C74	C	1.743777	0.540442	-0.083280
C75	C	1.635846	0.636604	-0.083284
C76	C	1.635847	0.470083	0.451895
C77	C	1.743801	0.373915	0.548033
C78	C	1.797790	0.409083	0.596122
C79	C	1.743828	0.540428	0.548061
C80	C	1.635881	0.636593	0.451919
C81	C	0.621209	1.540456	-0.451897
C82	C	0.513279	1.636623	-0.548056
C83	C	0.459294	1.601456	-0.596149
C84	C	0.513252	1.470110	-0.548083
C85	C	0.621185	1.373945	-0.451929
C86	C	0.621222	1.373904	0.083294
C87	C	0.513294	1.470043	0.083320
C88	C	0.459309	1.601392	0.000064
C89	C	0.513265	1.636603	-0.083217
C90	C	0.621196	1.540466	-0.083238
C91	C	1.194631	0.553338	0.510800
C92	C	1.194619	0.457195	0.606947
C93	C	1.062412	0.457215	0.489176
C94	C	1.062417	0.553363	0.393032
H95	H	1.248437	0.418048	-0.106815
H96	H	1.008584	0.418075	0.480384
Br97	Br	0.694462	1.195653	0.196297
H98	H	1.248467	0.791619	-0.480392
Br99	Br	0.972695	0.618631	0.247870
Br100	Br	1.562593	0.422321	0.196266
H101	H	1.591903	0.441425	0.412753
H102	H	0.469376	1.441347	0.151138
H103	H	0.665096	1.267009	-0.412800
H104	H	1.787677	0.266983	0.151071
H105	H	1.008612	1.218908	-0.694030
Br106	Br	1.562634	0.814843	-0.196306
H107	H	1.787744	0.569062	-0.151070
H108	H	0.469295	1.743560	-0.151001
H109	H	1.248458	0.791615	-0.305945
H110	H	1.248462	0.592466	0.519614
H111	H	1.787717	0.266975	0.587156
H112	H	0.371424	1.679660	0.000093
H113	H	0.665108	1.569155	-0.151057
H114	H	1.885686	0.330766	0.674407
Br115	Br	0.439966	1.422404	-0.613361
Br116	Br	0.972748	0.618583	0.138818
H117	H	0.665146	1.569115	-0.412749
H118	H	1.885619	0.330781	0.000008
H119	H	1.248428	0.592492	-0.106838
H120	H	1.008580	1.218922	-0.519611
Br121	Br	0.972757	0.391927	0.138834
H122	H	1.787803	0.569044	0.587229
Br123	Br	0.440071	1.814865	-0.613266
Br124	Br	1.284317	0.391955	0.752097
H125	H	1.591954	0.743529	0.412806
H126	H	0.371408	1.679772	-0.674443
