data_functionalizedCrystal
_audit_creation_method	'MofGen! by Chris Wilmer'
_symmetry_space_group_name_H-M	'P1'
_symmetry_Int_Tables_number	1
_symmetry_cell_setting	triclinic
loop_
_symmetry_equiv_pos_as_xyz
  x,y,z
_cell_length_a	18.215407
_cell_length_b	17.077402
_cell_length_c	17.077396
_cell_angle_alpha	90.029784
_cell_angle_beta	89.982278
_cell_angle_gamma	89.982604
loop_
_atom_site_label
_atom_site_type_symbol
_atom_site_fract_x
_atom_site_fract_y
_atom_site_fract_z
Zn1	Zn	1.125081	0.312623	-0.443798
Zn2	Zn	1.124994	0.443898	-0.312529
Zn3	Zn	1.002014	0.312638	-0.312550
Zn4	Zn	1.001984	0.443838	-0.443757
O5	O	1.063519	0.378249	-0.378159
O6	O	1.228054	0.330056	-0.426394
O7	O	1.108657	0.426517	-0.202685
O8	O	1.018388	0.202789	-0.329987
O9	O	1.227990	0.426503	-0.329951
O10	O	1.108805	0.202778	-0.426414
O11	O	1.018304	0.330081	-0.202701
O12	O	0.899026	0.330023	-0.329947
O13	O	1.018337	0.426401	-0.553609
O14	O	0.899004	0.426415	-0.426344
O15	O	1.108776	0.329998	-0.553640
O16	O	1.108628	0.553737	-0.329911
O17	O	1.018253	0.553693	-0.426323
C18	C	0.872312	0.378215	-0.378143
C19	C	0.790513	0.378219	-0.378155
C20	C	0.525484	0.328126	-0.428456
C21	C	0.602342	0.328113	-0.428454
C22	C	0.602295	0.428398	-0.327878
C23	C	0.525438	0.428414	-0.327885
C24	C	0.487034	0.378274	-0.378173
C25	C	0.640750	0.378245	-0.378164
C26	C	0.724084	0.378231	-0.378161
C27	C	0.403695	0.378288	-0.378177
C28	C	1.063448	0.582197	-0.378127
C29	C	1.063484	0.669447	-0.378140
C30	C	1.063563	0.378191	-0.582903
C31	C	1.063582	0.378167	-0.670153
C32	C	1.255471	0.378284	-0.378175
C33	C	1.337270	0.378299	-0.378181
C34	C	1.063610	0.173505	-0.378207
C35	C	1.063649	0.086255	-0.378228
C36	C	1.110591	0.710434	-0.327992
C37	C	1.110627	0.792414	-0.328012
C38	C	1.063552	0.833406	-0.378177
C39	C	1.016444	0.792414	-0.428330
C40	C	1.016412	0.710435	-0.428314
C41	C	1.016512	0.963284	-0.428360
C42	C	1.016543	1.045268	-0.428376
C43	C	1.110727	1.045263	-0.328059
C44	C	1.110695	0.963284	-0.328042
C45	C	1.063585	0.922297	-0.378195
C46	C	1.110675	0.327965	-0.711160
C47	C	1.110684	0.327939	-0.793141
C48	C	1.063603	0.378119	-0.834112
C49	C	1.016504	0.428323	-0.793099
C50	C	1.016492	0.428344	-0.711120
C51	C	1.016534	0.428275	-0.963970
C52	C	1.016547	0.428255	-1.045954
C53	C	1.110726	0.327870	-1.045990
C54	C	1.110714	0.327892	-0.964011
C55	C	1.063616	0.378097	-0.923004
C56	C	1.063517	0.378250	-0.174211
C57	C	1.063640	0.378054	-0.086962
H58	H	0.633645	0.287279	-0.469401
O59	O	0.483962	0.482499	-0.273640
H60	H	0.498715	0.544121	-0.286988
O61	O	0.965669	0.836631	-0.482432
H62	H	0.978254	0.820854	-0.544051
O63	O	0.965722	0.482445	-0.837289
H64	H	0.907968	0.468966	-0.821552
H65	H	0.978054	0.677064	-0.469150
O66	O	1.161456	0.273843	-0.666970
H67	H	1.194199	0.238925	-0.709261
H68	H	0.494218	0.287298	-0.469404
H69	H	0.633572	0.469219	-0.286934
O70	O	1.161368	0.666221	-0.273889
H71	H	1.194135	0.708499	-0.239028
H72	H	1.149034	0.287062	-0.826525
O73	O	1.161496	0.273776	-0.919815
H74	H	1.194244	0.238857	-0.962100
O75	O	1.161520	0.273711	-1.090212
H76	H	1.153613	0.282116	-1.154100
H77	H	1.148985	0.825782	-0.287176
H78	H	1.149023	0.929909	-0.287190
O79	O	1.161547	1.089463	-0.273970
H80	H	1.153671	1.153355	-0.282416
H81	H	0.978208	0.469114	-1.079311
O82	O	0.965732	0.482418	-0.919735
H83	H	0.932999	0.517312	-0.961997
O84	O	0.965702	0.919072	-0.482453
H85	H	0.928272	0.881773	-0.447272
H86	H	0.978224	1.078642	-0.469239
O87	O	0.965690	0.482479	-0.666885
H88	H	0.932953	0.517369	-0.709146
