data_functionalizedCrystal
_audit_creation_method	'MofGen! by Chris Wilmer'
_symmetry_space_group_name_H-M	'P1'
_symmetry_Int_Tables_number	1
_symmetry_cell_setting	triclinic
loop_
_symmetry_equiv_pos_as_xyz
  x,y,z
_cell_length_a	27.440280
_cell_length_b	14.395555
_cell_length_c	14.395555
_cell_angle_alpha	59.996935
_cell_angle_beta	90.005936
_cell_angle_gamma	60.006694
loop_
_atom_site_label
_atom_site_type_symbol
_atom_site_fract_x
_atom_site_fract_y
_atom_site_fract_z
Zr1	Zr	-0.063930	1.016778	0.894856
O2	O	-0.141745	1.210571	0.746513
O3	O	-0.040075	0.822978	0.940339
O4	O	-0.141739	1.016759	0.940325
O5	O	0.040112	1.016808	0.746528
O6	O	-0.141735	1.016752	1.093199
O7	O	-0.040081	1.016790	0.746526
O8	O	0.040124	0.670113	1.093223
O9	O	-0.141746	1.363447	0.746504
O10	O	-0.029899	0.902688	1.073816
O11	O	0.029946	0.902707	0.959729
O12	O	-0.089751	1.130859	0.959713
O13	O	-0.029906	1.130878	0.845626
Zr14	Zr	0.063976	1.016796	1.138676
Zr15	Zr	-0.063923	1.016767	1.138673
Zr16	Zr	0.063969	1.016807	0.894859
Zr17	Zr	-0.063932	1.260597	0.894842
Zr18	Zr	0.063977	0.772977	1.138690
O19	O	0.040121	1.210596	1.093193
O20	O	-0.141736	1.210556	1.093188
O21	O	0.040111	1.210612	0.746518
O22	O	0.141791	0.823003	1.287019
O23	O	-0.040065	0.822962	1.287014
O24	O	0.141781	0.823019	0.940344
O25	O	-0.040066	1.016766	1.287004
O26	O	0.141784	1.016815	1.093207
O27	O	0.141780	1.016822	0.940333
O28	O	0.040127	1.016784	1.287006
O29	O	-0.141741	1.363438	0.940306
O30	O	0.141786	0.670136	1.093226
O31	O	0.141792	0.670127	1.287028
O32	O	0.040129	0.670105	1.287025
O33	O	-0.040083	1.363470	0.746507
O34	O	-0.040078	1.363461	0.940309
O35	O	0.089796	0.902715	1.073819
O36	O	0.029952	0.902697	1.187905
O37	O	-0.029900	1.130867	1.073803
O38	O	0.029944	1.130886	0.959716
C39	C	0.000024	0.711807	1.016783
C40	C	0.000025	0.608299	1.016789
C41	C	-0.032610	0.547711	1.078983
C42	C	0.023663	0.409612	1.124067
C43	C	-0.056242	0.561963	0.971712
C44	C	0.056332	0.471501	1.061935
C45	C	-0.023614	0.623925	0.909520
C46	C	0.032693	0.485836	0.954577
C47	C	-0.159960	1.016751	1.016762
C48	C	-0.214256	1.016739	1.016760
C49	C	-0.582232	1.135912	0.957216
C50	C	-0.633255	1.135919	0.957219
O51	O	-0.686213	1.237211	0.906600
N52	N	-0.627530	1.016817	1.016777
C53	C	-0.570778	0.897701	1.076345
O54	O	-0.570594	0.796397	1.127005
C55	C	-0.519757	0.897695	1.076348
C56	C	-0.525487	1.016804	1.016777
C57	C	-0.587959	1.255011	0.897650
C58	C	-0.536940	1.255003	0.897645
C59	C	-0.480195	1.135896	0.957206
C60	C	-0.474468	1.016797	1.016772
C61	C	-0.463007	0.778580	1.135922
C62	C	-0.411985	0.778584	1.135920
C63	C	-0.417715	0.897694	1.076349
C64	C	-0.366703	0.897682	1.076328
N65	N	-0.372428	1.016783	1.016770
C66	C	-0.429174	1.135890	0.957209
C67	C	-0.677928	0.897722	1.076337
C68	C	-0.728948	0.897727	1.076328
C69	C	-0.791421	1.135945	0.957203
C70	C	-0.740400	1.135939	0.957206
C71	C	-0.683653	1.016824	1.016779
C72	C	-0.322028	1.135865	0.957203
C73	C	-0.271002	1.135847	0.957199
C74	C	-0.208534	0.897629	1.076329
C75	C	-0.259555	0.897647	1.076327
C76	C	-0.316304	1.016775	1.016762
O77	O	-0.313726	0.796441	1.126925
O78	O	-0.429347	1.237177	0.906570
C79	C	0.160005	1.016823	1.016770
C80	C	0.214302	1.016835	1.016772
C81	C	0.000014	1.016801	0.711789
C82	C	0.000011	1.016806	0.608282
C83	C	0.000021	1.321768	1.016749
C84	C	0.000021	1.425275	1.016743
C85	C	-0.032617	1.141214	0.485480
C86	C	-0.056263	1.079013	0.454647
C87	C	0.023653	1.079002	0.454692
C88	C	-0.023667	0.954604	0.578813
C89	C	0.056280	0.954610	0.578854
C90	C	0.032648	0.892318	0.548095
C91	C	0.000031	1.016773	1.321743
C92	C	0.000034	1.016769	1.425250
C93	C	0.000033	0.711793	1.321760
C94	C	0.000036	0.608281	1.425273
C95	C	0.160007	0.711842	1.016787
C96	C	0.214304	0.608347	1.016795
C97	C	0.160015	0.711829	1.321765
C98	C	0.214315	0.608328	1.425278
C99	C	-0.159970	1.321746	0.711767
C100	C	-0.214270	1.425246	0.608254
C101	C	0.000013	1.321781	0.711772
C102	C	0.000009	1.425294	0.608259
C103	C	-0.159961	1.321732	1.016745
C104	C	-0.214258	1.425227	1.016737
C105	C	0.271049	0.559749	1.076352
C106	C	0.322072	0.462517	1.076354
C107	C	0.316348	0.413879	1.016806
C108	C	0.259597	0.462487	0.957241
C109	C	0.208576	0.559723	0.957233
C110	C	0.208577	0.559714	1.533452
C111	C	0.259593	0.462478	1.630723
C112	C	0.316346	0.413852	1.619819
C113	C	0.322083	0.462476	1.511634
C114	C	0.271068	0.559717	1.414365
C115	C	-0.208532	1.473872	0.500080
C116	C	-0.259547	1.571138	0.402809
C117	C	-0.316301	1.619769	0.413713
C118	C	-0.322038	1.571139	0.521898
C119	C	-0.271023	1.473882	0.619167
C120	C	-0.208515	1.473835	1.076298
C121	C	-0.259528	1.571067	1.076313
C122	C	-0.316284	1.619696	1.016761
C123	C	-0.322026	1.571080	0.957199
C124	C	-0.271013	1.473843	0.957191
C125	C	0.032654	0.547724	1.548072
C126	C	0.056290	0.409614	1.578941
C127	C	-0.023627	0.562007	1.578836
C128	C	0.023705	0.471471	1.454778
C129	C	-0.056242	0.623938	1.454677
C130	C	-0.032621	0.485837	1.485473
H131	H	0.060328	0.458818	0.901974
Br132	Br	-0.385531	1.751764	0.281692
Br133	Br	0.056961	1.166689	0.365505
H134	H	0.275721	0.599339	1.124844
Br135	Br	-0.278818	1.407898	0.876340
Br136	Br	0.399084	0.396569	1.157199
H137	H	0.357898	0.334703	1.016822
Br138	Br	0.399111	0.396470	1.496855
H139	H	0.275749	0.599286	1.326289
Br140	Br	0.057114	0.409104	1.365891
Br141	Br	0.251839	0.396464	0.876431
Br142	Br	-0.056962	0.776686	0.758380
H143	H	0.162373	0.599279	0.908738
Br144	Br	0.385576	0.281881	1.751840
H145	H	-0.060252	1.246413	0.460029
Br146	Br	-0.057085	0.867051	0.667727
Br147	Br	0.078605	0.716886	0.590750
Br148	Br	-0.131515	1.407890	0.485250
H149	H	-0.368243	1.610689	0.908713
H150	H	-0.103825	0.599153	0.933608
H151	H	0.060294	0.574801	1.573512
Br152	Br	0.131561	0.625692	1.548282
H153	H	-0.060160	0.574783	1.131661
H154	H	0.254911	0.422898	1.718803
Br155	Br	0.135578	0.256883	1.668182
Br156	Br	-0.251781	0.735998	1.157160
Br157	Br	-0.278783	1.297506	0.876334
Br158	Br	-0.600915	0.736050	1.157179
Br159	Br	0.135560	0.867059	0.668062
H160	H	-0.357817	1.698873	1.016776
H161	H	-0.254842	1.610640	1.124814
Br162	Br	-0.078626	0.440800	1.442716
H163	H	-0.254864	1.610716	0.314730
H164	H	-0.368252	1.610748	0.530763
H165	H	-0.275702	1.434291	0.707244
Br166	Br	-0.131497	1.407859	1.157128
H167	H	-0.103803	0.715595	1.401134
H168	H	0.043658	0.317982	1.214764
Br169	Br	0.135678	0.409187	1.125619
H170	H	-0.368230	1.232871	0.908700
Br171	Br	-0.664967	1.416679	0.816807
Br172	Br	-0.544726	1.416660	0.816770
Br173	Br	-0.868443	1.297593	0.876374
Br174	Br	-0.748182	1.297593	0.876360
Br175	Br	-0.721164	0.736072	1.157155
Br176	Br	-0.056944	0.624040	1.667980
H177	H	-0.458330	0.681588	1.184433
H178	H	-0.365780	0.681584	1.184434
Br179	Br	-0.131514	0.735991	1.157153
Br180	Br	-0.135558	1.166632	0.365439
