data_functionalizedCrystal
_audit_creation_method	'MofGen! by Chris Wilmer'
_symmetry_space_group_name_H-M	'P1'
_symmetry_Int_Tables_number	1
_symmetry_cell_setting	triclinic
loop_
_symmetry_equiv_pos_as_xyz
  x,y,z
_cell_length_a	6.817900
_cell_length_b	17.982959
_cell_length_c	14.125465
_cell_angle_alpha	96.113992
_cell_angle_beta	100.398878
_cell_angle_gamma	102.451857
loop_
_atom_site_label
_atom_site_type_symbol
_atom_site_fract_x
_atom_site_fract_y
_atom_site_fract_z
V1	V	-3.986205	-0.104757	-0.300376
O2	O	-3.979787	0.005707	-0.294244
O3	O	-3.932905	-0.208364	-0.298719
O4	O	-3.922440	-0.102850	-0.431198
O5	O	-3.990324	-0.100536	-0.160848
V6	V	-4.472458	-0.091579	-0.283639
O7	O	-4.241473	-0.133664	-0.337090
O8	O	-4.667387	-0.062672	-0.246925
O9	O	-4.302552	0.012027	-0.285295
O10	O	-4.596273	-0.202044	-0.289770
O11	O	-4.585736	-0.095800	-0.423167
O12	O	-4.313017	-0.093486	-0.152816
C13	C	-3.777211	-0.233630	-0.294083
C14	C	-3.814816	-0.318328	-0.293600
C15	C	-4.013835	-0.361989	-0.298187
C16	C	-4.049159	-0.441572	-0.297740
C17	C	-3.885460	-0.477491	-0.292698
C18	C	-3.686426	-0.433824	-0.288113
C19	C	-3.651106	-0.354244	-0.288568
C20	C	-3.828861	-0.754764	-0.286281
C21	C	-3.864196	-0.834350	-0.285824
C22	C	-4.226914	-0.842092	-0.295452
C23	C	-4.191595	-0.762511	-0.295907
C24	C	-3.992567	-0.718852	-0.291328
C25	C	-3.954267	-0.632560	-0.291815
C26	C	-3.923755	-0.563781	-0.292204
C27	C	-3.763861	-0.099036	-0.463073
C28	C	-3.792977	-0.098163	-0.570023
C29	C	-3.846346	-0.096561	-0.765840
C30	C	-4.031686	-0.099774	-0.818174
C31	C	-4.061383	-0.098883	-0.927133
C32	C	-3.816641	-0.097452	-0.656871
C33	C	-4.121588	0.037289	-0.289929
C34	C	-4.063220	0.121986	-0.290418
C35	C	-4.134938	-0.097303	-0.120937
C36	C	-4.085061	-0.098172	-0.013985
H37	H	-3.730883	-0.863594	-0.281724
N38	N	-4.202750	-0.104062	-0.771716
N39	N	-4.178010	-0.104790	-0.681986
H40	H	-4.298816	-0.107820	-0.649171
H41	H	-3.709985	-0.093141	-0.802865
H42	H	-3.666804	-0.719225	-0.282546
N43	N	-4.181084	-0.325316	-0.303348
N44	N	-4.329130	-0.345068	-0.374689
H45	H	-4.447261	-0.319172	-0.378338
N46	N	-4.252459	-0.486169	-0.302437
N47	N	-4.392627	-0.488136	-0.373873
H48	H	-4.536217	-0.519632	-0.377191
N49	N	-4.358845	-0.725839	-0.301071
N50	N	-4.506887	-0.745593	-0.372414
H51	H	-4.625019	-0.719697	-0.376067
N52	N	-4.430211	-0.886701	-0.300130
N53	N	-4.461734	-0.957754	-0.299724
H54	H	-4.605307	-0.989259	-0.303024
N55	N	-3.519234	-0.470526	-0.282976
N56	N	-3.550790	-0.541580	-0.282570
H57	H	-3.432708	-0.567500	-0.278940
N58	N	-3.447795	-0.309650	-0.283864
N59	N	-3.307639	-0.307680	-0.212421
H60	H	-3.164045	-0.276187	-0.209100
