data_functionalizedCrystal
_audit_creation_method	'MofGen! by Chris Wilmer'
_symmetry_space_group_name_H-M	'P1'
_symmetry_Int_Tables_number	1
_symmetry_cell_setting	triclinic
loop_
_symmetry_equiv_pos_as_xyz
  x,y,z
_cell_length_a	31.640172
_cell_length_b	19.377369
_cell_length_c	19.377574
_cell_angle_alpha	82.425876
_cell_angle_beta	104.485386
_cell_angle_gamma	48.630955
loop_
_atom_site_label
_atom_site_type_symbol
_atom_site_fract_x
_atom_site_fract_y
_atom_site_fract_z
Zr1	Zr	0.330426	0.779807	0.049307
O2	O	0.233598	0.928463	-0.037264
O3	O	0.368359	0.631162	0.056961
O4	O	0.333673	0.779808	-0.064506
O5	O	0.286261	0.779814	0.201500
O6	O	0.403229	0.779796	-0.064513
O7	O	0.268284	0.779818	0.084203
O8	O	0.465276	0.513896	0.152769
O9	O	0.224214	1.045714	-0.015782
O10	O	0.426479	0.692289	0.083036
O11	O	0.387985	0.692295	0.170578
O12	O	0.347147	0.867306	0.027567
O13	O	0.308654	0.867312	0.115110
Zr14	Zr	0.470031	0.779782	0.236371
Zr15	Zr	0.441361	0.779788	0.049296
Zr16	Zr	0.359097	0.779801	0.236382
Zr17	Zr	0.315460	0.966808	0.083568
Zr18	Zr	0.484998	0.592781	0.202110
O19	O	0.432099	0.928427	0.228717
O20	O	0.391333	0.928436	-0.037280
O21	O	0.274364	0.928454	0.228733
O22	O	0.566859	0.631126	0.322942
O23	O	0.526093	0.631135	0.056945
O24	O	0.409125	0.631153	0.322958
O25	O	0.514197	0.779775	0.084178
O26	O	0.466785	0.779782	0.350184
O27	O	0.397228	0.779794	0.350191
O28	O	0.532174	0.779771	0.201475
O29	O	0.312392	1.045698	-0.015791
O30	O	0.488065	0.513891	0.301469
O31	O	0.576244	0.513876	0.301460
O32	O	0.553454	0.513881	0.152760
O33	O	0.247003	1.045709	0.132918
O34	O	0.335182	1.045693	0.132909
O35	O	0.453310	0.692283	0.258111
O36	O	0.491804	0.692277	0.170568
O37	O	0.412472	0.867294	0.115099
O38	O	0.373979	0.867300	0.202642
C39	C	0.418950	0.545885	0.099983
C40	C	0.425303	0.466499	0.085438
C41	C	0.345992	0.205113	0.266332
C42	C	0.352043	0.130426	0.252727
C43	C	0.392227	0.130429	0.161339
C44	C	0.386183	0.205114	0.174939
C45	C	0.363064	0.242451	0.227435
C46	C	0.403255	0.242452	0.136043
C47	C	0.397207	0.317134	0.149639
C48	C	0.374088	0.354478	0.202131
C49	C	0.357017	0.317133	0.241032
C50	C	0.426369	0.205119	0.083542
C51	C	0.443441	0.242457	0.044646
C52	C	0.437398	0.317135	0.058246
C53	C	0.414279	0.354479	0.110738
C54	C	0.454469	0.354480	0.019346
C55	C	0.448422	0.429162	0.032942
C56	C	0.408231	0.429161	0.124334
C57	C	0.261467	0.779819	0.142853
C58	C	0.214372	0.779827	0.142857
C59	C	-0.087535	0.779779	0.078217
C60	C	-0.264521	0.779766	0.078209
O61	O	-0.295810	0.779723	0.023265
N62	N	-0.276749	0.779766	0.142828
C63	C	-0.244723	0.779762	0.207456
O64	O	-0.259180	0.779752	0.262422
C65	C	-0.067734	0.779768	0.207467
C66	C	-0.055514	0.779778	0.142840
C67	C	-0.075313	0.779788	0.013596
C68	C	-0.031072	0.779797	0.013597
C69	C	0.000948	0.779796	0.078220
C70	C	-0.011273	0.779787	0.142841
C71	C	-0.035706	0.779757	0.272097
C72	C	0.008544	0.779756	0.272094
C73	C	0.020764	0.779766	0.207467
C74	C	0.064989	0.779795	0.207464
N75	N	0.077217	0.779795	0.142845
C76	C	0.045196	0.779796	0.078222
C77	C	-0.337646	0.779761	0.207446
C78	C	-0.381894	0.779762	0.207443
C79	C	-0.401688	0.779764	0.078195
C80	C	-0.357443	0.779770	0.078197
C81	C	-0.325419	0.779762	0.142826
C82	C	0.138107	0.779815	0.078229
C83	C	0.182352	0.779827	0.078235
C84	C	0.202144	0.779820	0.207484
C85	C	0.157901	0.779813	0.207477
C86	C	0.125885	0.779806	0.142845
O87	O	0.096306	0.779826	0.262383
O88	O	0.059672	0.779784	0.023272
C89	C	-0.131776	0.779770	0.078216
C90	C	-0.143997	0.779761	0.142838
C91	C	-0.111977	0.779760	0.207460
C92	C	-0.188245	0.779761	0.142835
C93	C	-0.220266	0.779762	0.078212
C94	C	-0.208038	0.779762	0.013593
C95	C	-0.163797	0.779771	0.013594
C96	C	-0.124205	0.779760	0.272079
C97	C	-0.168447	0.779753	0.272073
C98	C	-0.200468	0.779753	0.207450
C99	C	0.538991	0.779771	0.142825
C100	C	0.586086	0.779762	0.142820
C101	C	0.364366	0.779802	-0.091164
C102	C	0.352194	0.779805	-0.170582
C103	C	0.381508	1.013704	0.185695
C104	C	0.375154	1.093090	0.200239
C105	C	0.503746	0.779774	-0.431819
C106	C	0.492295	0.779778	-0.506445
C107	C	0.415662	0.779791	-0.506419
C108	C	0.427104	0.779792	-0.431793
C109	C	0.471148	0.779782	-0.394498
C110	C	0.394505	0.779801	-0.394472
C111	C	0.405949	0.779796	-0.319851
C112	C	0.449992	0.779783	-0.282550
C113	C	0.482591	0.779778	-0.319877
C114	C	0.350465	0.779803	-0.431766
C115	C	0.317866	0.779812	-0.394445
C116	C	0.329307	0.779814	-0.319825
C117	C	0.373349	0.779801	-0.282524
C118	C	0.296707	0.779820	-0.282498
C119	C	0.308151	0.779815	-0.207877
C120	C	0.384793	0.779797	-0.207903
C121	C	0.436092	0.779787	0.376842
C122	C	0.448263	0.779784	0.456260
C123	C	0.557712	0.545861	0.099969
C124	C	0.611160	0.466467	0.085420
C125	C	0.454813	0.545878	0.333986
C126	C	0.473338	0.466488	0.398860
C127	C	0.593575	0.545854	0.333972
C128	C	0.659195	0.466456	0.398841
C129	C	0.206883	1.013736	-0.048294
C130	C	0.141263	1.093133	-0.113163
C131	C	0.242746	1.013728	0.185708
C132	C	0.189297	1.093123	0.200258
C133	C	0.345645	1.013712	-0.048308
C134	C	0.327120	1.093101	-0.113182
C135	C	0.602160	0.429188	0.032888
C136	C	0.652372	0.354599	0.019202
C137	C	0.711586	0.317284	0.058052
C138	C	0.720585	0.354570	0.110586
C139	C	0.670372	0.429163	0.124268
C140	C	0.516138	0.429200	0.475024
C141	C	0.533542	0.354616	0.535988
C142	C	0.508150	0.317316	0.520786
C143	C	0.465345	0.354612	0.444615
C144	C	0.447937	0.429200	0.383653
C145	C	0.710108	0.429167	0.383608
C146	C	0.771767	0.354575	0.444554
C147	C	0.782512	0.317268	0.520731
C148	C	0.731592	0.354565	0.535964
C149	C	0.669934	0.429161	0.475020
C150	C	0.090349	1.130431	-0.097928
C151	C	0.028688	1.205046	-0.158870
C152	C	0.017943	1.242357	-0.235047
C153	C	0.068863	1.205056	-0.250281
C154	C	0.130522	1.130447	-0.189339
C155	C	0.198296	1.130409	0.252783
C156	C	0.148078	1.205019	0.266453
C157	C	0.088864	1.242336	0.227600
C158	C	0.079866	1.205047	0.175069
C159	C	0.130082	1.130444	0.161396
C160	C	0.352524	1.130377	-0.097956
C161	C	0.335129	1.204962	-0.158906
C162	C	0.292327	1.242274	-0.235081
C163	C	0.266924	1.204991	-0.250306
C164	C	0.284322	1.130402	-0.189358
H165	H	0.338192	0.347534	0.283780
H166	H	0.740351	0.324179	0.597996
C167	C	0.102157	1.089406	-0.014137
C168	C	0.046142	1.130456	0.002607
C169	C	0.057943	1.089441	0.086398
C170	C	0.125760	1.007377	0.153445
C171	C	0.181780	0.966322	0.136703
C172	C	0.169978	1.007336	0.052912
H173	H	-0.004065	1.191209	-0.047027
H174	H	0.016473	1.119833	0.098791
H175	H	0.134497	0.977015	0.215472
H176	H	0.231986	0.905568	0.186337
H177	H	0.211448	0.976944	0.040519
C178	C	0.263427	1.089373	0.295525
C179	C	0.318672	1.007311	0.280499
C180	C	0.383801	0.966284	0.323242
C181	C	0.393685	1.007319	0.381011
C182	C	0.338438	1.089385	0.396040
C183	C	0.273310	1.130412	0.353297
H184	H	0.311357	0.976930	0.237732
H185	H	0.424698	0.905533	0.312116
H186	H	0.441897	0.976949	0.412652
H187	H	0.345753	1.119766	0.438807
H188	H	0.232412	1.191163	0.364423
H189	H	0.553947	0.459569	0.001240
H190	H	0.462261	0.212051	0.001901
C191	C	0.273189	1.324329	-0.302119
C192	C	0.301133	1.365331	-0.285361
C193	C	0.281996	1.447389	-0.352394
C194	C	0.234913	1.488444	-0.436187
C195	C	0.206966	1.447442	-0.452949
C196	C	0.226104	1.365385	-0.385916
H197	H	0.335989	1.334940	-0.223329
H198	H	0.302684	1.477741	-0.339985
H199	H	0.220746	1.549188	-0.485809
H200	H	0.172111	1.477834	-0.514981
H201	H	0.205415	1.335032	-0.398325
H202	H	0.122747	1.100087	0.118628
C203	C	-0.049885	1.324422	-0.302081
C204	C	-0.105882	1.365391	-0.285323
C205	C	-0.173711	1.447452	-0.352354
C206	C	-0.185542	1.488544	-0.436142
C207	C	-0.129543	1.447574	-0.452903
C208	C	-0.061715	1.365513	-0.385873
H209	H	-0.097125	1.334972	-0.223295
H210	H	-0.215165	1.477780	-0.339945
H211	H	-0.235753	1.549290	-0.485761
H212	H	-0.138300	1.477993	-0.514931
H213	H	-0.020261	1.335185	-0.398281
C214	C	0.014730	1.246094	0.132345
C215	C	-0.043536	1.358921	0.078903
C216	C	-0.108672	1.399964	0.036187
C217	C	-0.115543	1.328180	0.046913
C218	C	-0.057276	1.215347	0.100358
C219	C	0.007860	1.174304	0.143074
H220	H	-0.038451	1.412065	0.070961
H221	H	-0.151805	1.483490	-0.003376
H222	H	-0.163761	1.358563	0.015292
H223	H	-0.062361	1.162203	0.108300
H224	H	0.050993	1.090777	0.182637
H225	H	0.459311	0.779775	-0.221787
H226	H	0.701371	0.459531	0.321584
C227	C	0.363073	1.245971	-0.142147
C228	C	0.319060	1.358790	-0.160207
C229	C	0.347003	1.399798	-0.143445
C230	C	0.418960	1.327985	-0.108624
C231	C	0.462977	1.215159	-0.090562
C232	C	0.435034	1.174152	-0.107323
H233	H	0.265789	1.411956	-0.185986
H234	H	0.314418	1.483320	-0.156816
H235	H	0.439645	1.358341	-0.096216
H236	H	0.516248	1.161993	-0.064783
H237	H	0.467619	1.090630	-0.093952
H238	H	0.413089	0.459550	0.321637
C239	C	0.642466	0.313586	-0.038579
C240	C	0.593054	0.385394	-0.124674
C241	C	0.583146	0.344383	-0.182453
C242	C	0.622650	0.231564	-0.154136
C243	C	0.672065	0.159749	-0.068037
C244	C	0.681973	0.200761	-0.010258
H245	H	0.563807	0.468915	-0.145639
H246	H	0.546565	0.397545	-0.246189
H247	H	0.615315	0.201205	-0.196908
H248	H	0.701312	0.076228	-0.047072
H249	H	0.718554	0.147598	0.053478
H250	H	-0.101381	0.779785	-0.039028
H251	H	-0.012765	1.235404	-0.146452
H252	H	0.536819	0.459561	0.487417
H253	H	0.155417	1.235367	0.309230
C254	C	0.367436	0.436628	0.217090
C255	C	0.302202	0.539170	0.199405
C256	C	0.295550	0.621319	0.214365
C257	C	0.354132	0.600927	0.247009
C258	C	0.419371	0.498382	0.264695
C259	C	0.426023	0.416232	0.249736
H260	H	0.258831	0.554269	0.175239
H261	H	0.247255	0.697230	0.201272
H262	H	0.349208	0.661739	0.258082
H263	H	0.462741	0.483282	0.288862
H264	H	0.474318	0.340321	0.262829
C265	C	0.766819	0.235223	0.043003
C266	C	0.756913	0.194217	-0.014778
C267	C	0.812144	0.112153	-0.029828
C268	C	0.877282	0.071095	0.012904
C269	C	0.887191	0.112100	0.070689
C270	C	0.831960	0.194164	0.085738
H271	H	0.708692	0.224611	-0.046414
H272	H	0.804809	0.081799	-0.072604
H273	H	0.918167	0.010346	0.001763
H274	H	0.935412	0.081706	0.102325
H275	H	0.839295	0.224519	0.128515
H276	H	-0.427768	0.779766	0.025576
H277	H	0.444674	0.324231	0.432248
H278	H	0.327167	0.235514	0.309080
H279	H	0.387375	1.100009	-0.035935
C280	C	0.219838	1.246050	-0.334101
C281	C	0.239922	1.235805	-0.399850
C282	C	0.192832	1.276872	-0.483645
C283	C	0.125658	1.328185	-0.501692
C284	C	0.105570	1.338433	-0.435942
C285	C	0.152660	1.297365	-0.352146
H286	H	0.289651	1.197818	-0.386492
H287	H	0.207703	1.269286	-0.532318
H288	H	0.090799	1.358586	-0.563723
H289	H	0.055841	1.376420	-0.449299
H290	H	0.137790	1.304951	-0.303473
C291	C	0.827772	0.313554	0.427785
C292	C	0.815948	0.354584	0.343987
C293	C	0.871950	0.313566	0.327217
C294	C	0.939776	0.231518	0.394244
C295	C	0.951602	0.190484	0.478047
C296	C	0.895600	0.231502	0.494818
H297	H	0.765737	0.415324	0.294365
H298	H	0.863195	0.343942	0.265180
H299	H	0.981232	0.201154	0.381829
H300	H	1.001814	0.129744	0.527670
H301	H	0.904356	0.201126	0.556855
H302	H	0.832721	0.256528	0.570349
C303	C	0.785726	0.313504	0.153325
C304	C	0.815276	0.323736	0.106209
C305	C	0.880420	0.282660	0.148952
C306	C	0.916015	0.231351	0.238812
C307	C	0.886465	0.221116	0.285934
C308	C	0.821321	0.262193	0.243190
H309	H	0.788926	0.361721	0.039684
H310	H	0.902294	0.290236	0.114070
H311	H	0.964238	0.200943	0.270454
H312	H	0.912814	0.183132	0.352458
H313	H	0.799446	0.254616	0.278073
C314	C	0.256366	1.089414	-0.206112
C315	C	0.209282	1.130471	-0.289903
C316	C	0.181322	1.089488	-0.306664
C317	C	0.200448	1.007448	-0.239633
C318	C	0.247534	0.966386	-0.155836
C319	C	0.275494	1.007370	-0.139076
H320	H	0.195122	1.191206	-0.339528
H321	H	0.146465	1.119884	-0.368696
H322	H	0.179751	0.977110	-0.252041
H323	H	0.261694	0.905651	-0.106212
H324	H	0.310351	0.976973	-0.077043
H325	H	0.338137	0.100031	0.284403
H326	H	0.341152	0.779802	-0.492526
H327	H	0.060106	1.235444	-0.312311
C328	C	0.467195	0.470246	-0.009848
C329	C	0.492621	0.429182	-0.067594
C330	C	0.511388	0.470275	-0.110391
C331	C	0.504728	0.552432	-0.095443
C332	C	0.479300	0.593501	-0.037695
C333	C	0.460533	0.552408	0.005103
H334	H	0.497553	0.368361	-0.078662
H335	H	0.530211	0.439873	-0.153141
H336	H	0.518620	0.582851	-0.127124
H337	H	0.474369	0.654322	-0.026627
H338	H	0.441710	0.582810	0.047852
H339	H	0.522329	0.256582	0.570433
C340	C	0.195795	0.779834	0.007143
C341	C	0.220989	0.692813	-0.018593
C342	C	0.234432	0.692817	-0.089682
C343	C	0.222680	0.779844	-0.135034
C344	C	0.197485	0.866872	-0.109298
C345	C	0.184042	0.866867	-0.038210
H346	H	0.229689	0.628385	0.014980
H347	H	0.253083	0.628393	-0.108732
H348	H	0.232631	0.779847	-0.187658
H349	H	0.188785	0.931300	-0.142871
H350	H	0.165391	0.931292	-0.019159
C351	C	-0.017626	0.779793	-0.057488
C352	C	0.007552	0.692778	-0.083228
C353	C	0.020998	0.692769	-0.154315
C354	C	0.009265	0.779775	-0.199663
C355	C	-0.015914	0.866797	-0.173924
C356	C	-0.029360	0.866806	-0.102837
H357	H	0.016239	0.628365	-0.049658
H358	H	0.039637	0.628350	-0.173368
H359	H	0.019218	0.779768	-0.252285
H360	H	-0.024600	0.931210	-0.207493
H361	H	-0.047999	0.931225	-0.083783
H362	H	0.389406	0.459562	0.167083
C363	C	-0.343999	0.779772	0.007110
C364	C	-0.318807	0.692748	-0.018623
C365	C	-0.305365	0.692748	-0.089712
C366	C	-0.317116	0.779771	-0.135070
C367	C	-0.342310	0.866802	-0.109338
C368	C	-0.355751	0.866802	-0.038249
H369	H	-0.310107	0.628323	0.014954
H370	H	-0.286715	0.628321	-0.108760
H371	H	-0.307165	0.779770	-0.187695
H372	H	-0.351009	0.931227	-0.142915
H373	H	-0.374401	0.931229	-0.019201
H374	H	0.628482	0.459512	0.487434
C375	C	-0.395338	0.779762	0.278529
C376	C	-0.341633	0.692729	0.359423
C377	C	-0.355072	0.692722	0.430514
C378	C	-0.422217	0.779749	0.420712
C379	C	-0.475927	0.866789	0.339815
C380	C	-0.462488	0.866795	0.268724
H381	H	-0.291924	0.628300	0.366682
H382	H	-0.315312	0.628289	0.490400
H383	H	-0.432166	0.779744	0.473338
H384	H	-0.525636	0.931217	0.332556
H385	H	-0.502248	0.931229	0.208838
H386	H	0.431287	0.144313	0.072470
C387	C	-0.049137	0.779736	0.343190
C388	C	0.004575	0.692694	0.424078
C389	C	-0.008854	0.692669	0.495177
C390	C	-0.075995	0.779687	0.485388
C391	C	-0.129712	0.866736	0.404497
C392	C	-0.116283	0.866760	0.333398
H393	H	0.054281	0.628272	0.431327
H394	H	0.030912	0.628229	0.555058
H395	H	-0.085936	0.779669	0.538020
H396	H	-0.179418	0.931157	0.397248
H397	H	-0.156049	0.931200	0.273517
H398	H	0.228220	0.779824	0.260097
H399	H	0.473286	0.324078	-0.023403
C400	C	0.144455	0.779810	0.278564
C401	C	0.198164	0.692780	0.359458
C402	C	0.184727	0.692766	0.430551
C403	C	0.117581	0.779782	0.420750
C404	C	0.063867	0.866818	0.339853
C405	C	0.077304	0.866832	0.268760
H406	H	0.247873	0.628359	0.366716
H407	H	0.224490	0.628335	0.490436
H408	H	0.107634	0.779771	0.473377
H409	H	0.014158	0.931239	0.332595
H410	H	0.037542	0.931263	0.208875
H411	H	0.411048	0.100024	0.118594
C412	C	0.033632	1.324394	0.242652
C413	C	0.043539	1.365395	0.300437
C414	C	-0.011690	1.447449	0.315495
C415	C	-0.076826	1.488502	0.272768
C416	C	-0.086736	1.447501	0.214979
C417	C	-0.031507	1.365447	0.199921
H418	H	0.091759	1.335005	0.332069
H419	H	-0.004353	1.477800	0.358274
H420	H	-0.117710	1.549243	0.283914
H421	H	-0.134956	1.477891	0.183347
H422	H	-0.038844	1.335096	0.157142
H423	H	0.112044	0.779808	0.025601
H424	H	-0.311574	0.779755	0.260077
H425	H	0.282007	0.779816	-0.424818
H426	H	0.171976	1.100080	-0.201754
C427	C	0.433239	0.779793	-0.166876
C428	C	0.502728	0.692764	-0.149566
C429	C	0.551171	0.692759	-0.108539
C430	C	0.530127	0.779784	-0.084823
C431	C	0.460635	0.866819	-0.102132
C432	C	0.412191	0.866823	-0.143159
H433	H	0.518309	0.628338	-0.167123
H434	H	0.602614	0.628330	-0.095726
H435	H	0.565988	0.779780	-0.054452
H436	H	0.445053	0.931245	-0.084575
H437	H	0.360749	0.931253	-0.155972
C438	C	-0.150354	0.779773	-0.057495
C439	C	-0.083211	0.692738	-0.047693
C440	C	-0.069772	0.692738	-0.118784
C441	C	-0.123475	0.779774	-0.199678
C442	C	-0.190623	0.866816	-0.209483
C443	C	-0.204062	0.866816	-0.138391
H444	H	-0.043453	0.628303	0.012192
H445	H	-0.020064	0.628303	-0.111525
H446	H	-0.113527	0.779774	-0.252304
H447	H	-0.230381	0.931251	-0.269368
H448	H	-0.253770	0.931251	-0.145650
C449	C	-0.181886	0.779741	0.343168
C450	C	-0.128175	0.692703	0.424058
C451	C	-0.141607	0.692680	0.495154
C452	C	-0.208751	0.779696	0.485360
C453	C	-0.262466	0.866740	0.404467
C454	C	-0.249034	0.866763	0.333371
H455	H	-0.078467	0.628283	0.431311
H456	H	-0.101843	0.628243	0.555037
H457	H	-0.218694	0.779679	0.537990
H458	H	-0.312174	0.931160	0.397214
H459	H	-0.288798	0.931200	0.273489
H460	H	-0.234119	0.779768	-0.039027
C461	C	0.552192	0.779770	-0.390791
C462	C	0.621681	0.692741	-0.373482
C463	C	0.670124	0.692737	-0.332455
C464	C	0.649080	0.779761	-0.308738
C465	C	0.579588	0.866796	-0.326048
C466	C	0.531144	0.866801	-0.367074
H467	H	0.637262	0.628315	-0.391039
H468	H	0.721567	0.628307	-0.319642
H469	H	0.684941	0.779757	-0.278368
H470	H	0.564006	0.931222	-0.308491
H471	H	0.479702	0.931230	-0.379888
C472	C	0.580632	0.313595	0.619770
C473	C	0.608569	0.354616	0.636482
C474	C	0.655658	0.313597	0.720261
C475	C	0.674810	0.231557	0.787328
C476	C	0.646873	0.190531	0.770618
C477	C	0.599784	0.231550	0.686839
H478	H	0.594391	0.415351	0.586834
H479	H	0.676338	0.343967	0.732631
H480	H	0.709668	0.201192	0.849346
H481	H	0.661051	0.129797	0.820267
H482	H	0.579104	0.201180	0.674469
H483	H	-0.098135	0.779758	0.324703
H484	H	0.034619	0.779745	0.324725
H485	H	0.518846	0.779770	-0.536827
H486	H	0.518451	0.779780	-0.289513
H487	H	0.379803	0.779796	-0.536792
H488	H	0.260851	0.779818	-0.312870
H489	H	0.677709	0.459505	0.167047
H490	H	0.281606	0.779820	-0.177490
