data_functionalizedCrystal
_audit_creation_method	'MofGen! by Chris Wilmer'
_symmetry_space_group_name_H-M	'P1'
_symmetry_Int_Tables_number	1
_symmetry_cell_setting	triclinic
loop_
_symmetry_equiv_pos_as_xyz
  x,y,z
_cell_length_a	12.759401
_cell_length_b	16.959454
_cell_length_c	12.759393
_cell_angle_alpha	89.969286
_cell_angle_beta	89.981504
_cell_angle_gamma	90.020236
loop_
_atom_site_label
_atom_site_type_symbol
_atom_site_fract_x
_atom_site_fract_y
_atom_site_fract_z
Zn1	Zn	1.606216	-0.314632	-0.593988
Zn2	Zn	1.606094	-0.446833	-0.418310
Zn3	Zn	1.430518	-0.314673	-0.418327
Zn4	Zn	1.430490	-0.446772	-0.593952
O5	O	1.518330	-0.380727	-0.506144
O6	O	1.753221	-0.332177	-0.570692
O7	O	1.582764	-0.429345	-0.271291
O8	O	1.453888	-0.204057	-0.441651
O9	O	1.753131	-0.429304	-0.441622
O10	O	1.582972	-0.204026	-0.570708
O11	O	1.453769	-0.332247	-0.271304
O12	O	1.283493	-0.332188	-0.441616
O13	O	1.453840	-0.429201	-0.740978
O14	O	1.283473	-0.429241	-0.570647
O15	O	1.582945	-0.332118	-0.741004
O16	O	1.582737	-0.557436	-0.441588
O17	O	1.453722	-0.557391	-0.570631
C18	C	1.245362	-0.380713	-0.506130
C19	C	1.128586	-0.380726	-0.506149
C20	C	1.073740	-0.431342	-0.573224
C21	C	0.964016	-0.431352	-0.573235
C22	C	0.963992	-0.330127	-0.439087
C23	C	1.073714	-0.330114	-0.439082
C24	C	1.073753	-0.489786	-0.650670
C25	C	0.964029	-0.489796	-0.650681
C26	C	1.518242	-0.586094	-0.506126
C27	C	1.518300	-0.673950	-0.506154
C28	C	1.451249	-1.045433	-0.573330
C29	C	1.585703	-1.045419	-0.439066
C30	C	1.585666	-0.962873	-0.439056
C31	C	1.518419	-0.921603	-0.506183
C32	C	1.451208	-0.962879	-0.573320
C33	C	1.652869	-0.921591	-0.371913
C34	C	1.652834	-0.839040	-0.371900
C35	C	1.585591	-0.797769	-0.439033
C36	C	1.518378	-0.839050	-0.506173
C37	C	1.451130	-0.797780	-0.573300
C38	C	1.383922	-0.839059	-0.640447
C39	C	1.383965	-0.921607	-0.640453
C40	C	1.585548	-0.715220	-0.439027
C41	C	1.451089	-0.715226	-0.573291
C42	C	1.792363	-0.380743	-0.506159
C43	C	1.909140	-0.380749	-0.506165
C44	C	1.518403	-0.380648	-0.780178
C45	C	1.518435	-0.380614	-0.896954
C46	C	1.518447	-0.174559	-0.506185
C47	C	1.518496	-0.086703	-0.506203
C48	C	1.585669	-0.330058	-0.951832
C49	C	1.585694	-0.330029	-1.061556
C50	C	1.451247	-0.431119	-1.061516
C51	C	1.451218	-0.431143	-0.951793
C52	C	1.663294	-0.271696	-0.951856
C53	C	1.663319	-0.271668	-1.061580
C54	C	1.518317	-0.380750	-0.233177
C55	C	1.518489	-0.380561	-0.116401
H56	H	0.919303	-0.288920	-0.384485
C57	C	1.725865	-0.794124	-0.299179
C58	C	1.793132	-0.746657	-0.358723
C59	C	1.860416	-0.705260	-0.291771
H60	H	1.766021	-0.830435	-0.259177
H61	H	1.685716	-0.761917	-0.253381
H62	H	1.833278	-0.778862	-0.404502
H63	H	1.753006	-0.710332	-0.398722
H64	H	1.820266	-0.673052	-0.245973
H65	H	1.900564	-0.741576	-0.251772
H66	H	1.906058	-0.673044	-0.332160
C67	C	1.311088	-0.794203	-0.713456
C68	C	1.370524	-0.746757	-0.780845
C69	C	1.303470	-0.705428	-0.848122
H70	H	1.265297	-0.761982	-0.673340
H71	H	1.271085	-0.830578	-0.753512
H72	H	1.410510	-0.710386	-0.740793
H73	H	1.416312	-0.778958	-0.820985
H74	H	1.263466	-0.741804	-0.888178
H75	H	1.257682	-0.673212	-0.807997
H76	H	1.343787	-0.673237	-0.893860
C77	C	1.658624	-1.090366	-0.366255
C78	C	1.644270	-1.171494	-0.380628
C79	C	1.711420	-1.212927	-0.313562
H80	H	1.643307	-1.076955	-0.295622
H81	H	1.729239	-1.076859	-0.381660
H82	H	1.573671	-1.184996	-0.365216
H83	H	1.659595	-1.184929	-0.451247
H84	H	1.782035	-1.199419	-0.328966
H85	H	1.696097	-1.199509	-0.242933
H86	H	1.701696	-1.267976	-0.323311
C87	C	1.658330	-0.670360	-0.366003
C88	C	1.598849	-0.623046	-0.298596
C89	C	1.665863	-0.581717	-0.231300
H90	H	1.704093	-0.638050	-0.406104
H91	H	1.698364	-0.706735	-0.325959
H92	H	1.558832	-0.586674	-0.338635
H93	H	1.553088	-0.655336	-0.258472
H94	H	1.705897	-0.618092	-0.191257
H95	H	1.711623	-0.549412	-0.271410
H96	H	1.625514	-0.549615	-0.185551
C97	C	1.378378	-0.486073	-0.892083
C98	C	1.437800	-0.536750	-0.829055
C99	C	1.370729	-0.587356	-0.774027
H100	H	1.338331	-0.516235	-0.940344
H101	H	1.332626	-0.455860	-0.849229
H102	H	1.483533	-0.566960	-0.871905
H103	H	1.477844	-0.506610	-0.780774
H104	H	1.324978	-0.557143	-0.731174
H105	H	1.330686	-0.617512	-0.822296
H106	H	1.411037	-0.621741	-0.731249
H107	H	1.107760	-0.547906	-0.621387
C108	C	0.918891	-0.460674	-0.753911
C109	C	1.000832	-0.441364	-0.822286
C110	C	0.959290	-0.414540	-0.917389
H111	H	0.877013	-0.415304	-0.741676
H112	H	0.877015	-0.500956	-0.784288
H113	H	1.042691	-0.401084	-0.791914
H114	H	1.042717	-0.486721	-0.834551
H115	H	0.917414	-0.454823	-0.947766
H116	H	0.917412	-0.369172	-0.905143
H117	H	1.014880	-0.401441	-0.963796
C118	C	1.311032	-0.966568	-0.713225
C119	C	1.325439	-1.047693	-0.698839
C120	C	1.258260	-1.089138	-0.765844
H121	H	1.326291	-0.953099	-0.783874
H122	H	1.240422	-0.953128	-0.697772
H123	H	1.396033	-1.061127	-0.714300
H124	H	1.310173	-1.061185	-0.628205
H125	H	1.187650	-1.075698	-0.750391
H126	H	1.273524	-1.075662	-0.836488
H127	H	1.268019	-1.144185	-0.756085
H128	H	0.934226	-0.550999	-0.628750
C129	C	1.378394	-0.485953	-1.121247
C130	C	1.392824	-0.475125	-1.229084
C131	C	1.325740	-0.525634	-1.284138
H132	H	1.307762	-0.474436	-1.103390
H133	H	1.393746	-0.539084	-1.103311
H134	H	1.377465	-0.422007	-1.247013
H135	H	1.463442	-0.486648	-1.246972
H136	H	1.341093	-0.578765	-1.266202
H137	H	1.255113	-0.514113	-1.266272
H138	H	1.335529	-0.518300	-1.357310
C139	C	1.634200	-0.190037	-0.912373
C140	C	1.616434	-0.140061	-0.997915
C141	C	1.589616	-0.064837	-0.961584
H142	H	1.689835	-0.169607	-0.871046
H143	H	1.572406	-0.193339	-0.871039
H144	H	1.678220	-0.136756	-1.039232
H145	H	1.560794	-0.160466	-1.039251
H146	H	1.527822	-0.068139	-0.920250
H147	H	1.645255	-0.044415	-0.920257
H148	H	1.577549	-0.030921	-1.019618
H149	H	1.396533	-1.079046	-0.628001
C150	C	1.766323	-0.300819	-0.906316
C151	C	1.810917	-0.241385	-0.844612
C152	C	1.905819	-0.268190	-0.802631
H153	H	1.812944	-0.313992	-0.961653
H154	H	1.753822	-0.346143	-0.864337
H155	H	1.823423	-0.196075	-0.886589
H156	H	1.764326	-0.228205	-0.789259
H157	H	1.893318	-0.313514	-0.760652
H158	H	1.952431	-0.281363	-0.857975
H159	H	1.936083	-0.227871	-0.760753
H160	H	1.103564	-0.473461	-0.732076
C161	C	1.725995	-0.966340	-0.299092
C162	C	1.829951	-0.946227	-0.321979
C163	C	1.897324	-0.987449	-0.254906
H164	H	1.716488	-1.021418	-0.308687
H165	H	1.710695	-0.952854	-0.228467
H166	H	1.845245	-0.959719	-0.392588
H167	H	1.839491	-0.891156	-0.312378
H168	H	1.882025	-0.973963	-0.184280
H169	H	1.887808	-1.042525	-0.264506
H170	H	1.967865	-0.973803	-0.270419
C171	C	1.771769	-0.293693	-1.101246
C172	C	1.798233	-0.368911	-1.064548
C173	C	1.898117	-0.389230	-1.101082
H174	H	1.821533	-0.256441	-1.076471
H175	H	1.771803	-0.293718	-1.175705
H176	H	1.798207	-0.368881	-0.990104
H177	H	1.748496	-0.406180	-1.089320
H178	H	1.898151	-0.389255	-1.175541
H179	H	1.947872	-0.351973	-1.076304
H180	H	1.916082	-0.440270	-1.076196
H181	H	1.118365	-0.288892	-0.384470
H182	H	1.396332	-0.681629	-0.627958
H183	H	1.634212	-0.213504	-1.095627
