data_functionalizedCrystal
_audit_creation_method	'MofGen! by Chris Wilmer'
_symmetry_space_group_name_H-M	'P1'
_symmetry_Int_Tables_number	1
_symmetry_cell_setting	triclinic
loop_
_symmetry_equiv_pos_as_xyz
  x,y,z
_cell_length_a	13.897449
_cell_length_b	12.759400
_cell_length_c	12.759393
_cell_angle_alpha	90.031564
_cell_angle_beta	89.979470
_cell_angle_gamma	89.984036
loop_
_atom_site_label
_atom_site_type_symbol
_atom_site_fract_x
_atom_site_fract_y
_atom_site_fract_z
Zn1	Zn	1.474721	0.418168	-0.594038
Zn2	Zn	1.474624	0.593887	-0.418359
Zn3	Zn	1.313411	0.418227	-0.418372
Zn4	Zn	1.313400	0.593810	-0.593994
O5	O	1.394039	0.506023	-0.506191
O6	O	1.609690	0.441486	-0.570747
O7	O	1.453202	0.570642	-0.271339
O8	O	1.334854	0.271198	-0.441698
O9	O	1.609618	0.570586	-0.441676
O10	O	1.453368	0.271155	-0.570760
O11	O	1.334760	0.441585	-0.271349
O12	O	1.178428	0.441510	-0.441655
O13	O	1.334836	0.570454	-0.741021
O14	O	1.178420	0.570510	-0.570684
O15	O	1.453358	0.441411	-0.741054
O16	O	1.453192	0.740898	-0.441633
O17	O	1.334742	0.740841	-0.570671
C18	C	1.393982	0.778991	-0.506169
C19	C	1.394045	0.895767	-0.506194
C20	C	1.143425	0.506009	-0.506167
C21	C	1.036211	0.506028	-0.506181
C22	C	1.394106	0.505917	-0.780224
C23	C	1.394135	0.505872	-0.897001
C24	C	0.839915	0.506032	-0.506209
C25	C	0.949148	0.506027	-0.506191
C26	C	1.645632	0.506038	-0.506215
C27	C	1.752846	0.506044	-0.506226
C28	C	1.394123	0.231990	-0.506236
C29	C	1.394158	0.115213	-0.506255
C30	C	1.455791	0.950624	-0.439078
C31	C	1.455850	1.060348	-0.439111
C32	C	1.332410	1.060349	-0.573378
C33	C	1.332356	0.950627	-0.573350
C34	C	1.517480	0.895764	-0.371922
C35	C	1.579230	0.950621	-0.304800
C36	C	1.579289	1.060345	-0.304833
C37	C	1.517598	1.115212	-0.371987
C38	C	1.455858	0.438673	-0.951882
C39	C	1.455881	0.438635	-1.061606
C40	C	1.332456	0.573004	-1.061559
C41	C	1.332429	0.573036	-0.951836
C42	C	1.517564	0.371509	-0.897046
C43	C	1.579293	0.304305	-0.951927
C44	C	1.579316	0.304267	-1.061651
C45	C	1.517610	0.371433	-1.116494
C46	C	1.394027	0.506053	-0.233223
C47	C	1.394185	0.505802	-0.116447
H48	H	1.517436	0.806422	-0.371886
H49	H	1.517555	0.371534	-0.807703
H50	H	1.629462	0.905943	-0.250131
H51	H	1.629575	1.105007	-0.250186
H52	H	1.517659	1.204557	-0.372017
H53	H	1.282184	1.105030	-0.628051
H54	H	1.517623	0.371384	-1.205839
O55	O	1.265853	0.645509	-0.892633
H56	H	1.282374	0.727965	-0.913659
H57	H	1.282078	0.905962	-0.628003
O58	O	1.645848	0.231871	-0.892779
H59	H	1.602687	0.178436	-0.842785
O60	O	1.645889	0.231789	-1.120850
H61	H	1.688795	0.185100	-1.064282
O62	O	1.265907	0.645448	-1.120703
H63	H	1.276301	0.634141	-1.206220
