data_functionalizedCrystal
_audit_creation_method	'MofGen! by Chris Wilmer'
_symmetry_space_group_name_H-M	'P1'
_symmetry_Int_Tables_number	1
_symmetry_cell_setting	triclinic
loop_
_symmetry_equiv_pos_as_xyz
  x,y,z
_cell_length_a	13.635800
_cell_length_b	17.110477
_cell_length_c	12.908943
_cell_angle_alpha	83.554992
_cell_angle_beta	100.860631
_cell_angle_gamma	80.939702
loop_
_atom_site_label
_atom_site_type_symbol
_atom_site_fract_x
_atom_site_fract_y
_atom_site_fract_z
V1	V	1.987193	-0.108495	0.328547
O2	O	1.992782	0.006230	0.322433
O3	O	1.952230	-0.216105	0.326166
O4	O	1.956544	-0.106380	0.471899
O5	O	1.988438	-0.104255	0.175690
V6	V	2.231237	-0.094826	0.310281
O7	O	2.112815	-0.138481	0.368616
O8	O	2.330714	-0.064840	0.270211
O9	O	2.154596	0.012785	0.312662
O10	O	2.284347	-0.209551	0.316395
O11	O	2.288690	-0.099066	0.463138
O12	O	2.150283	-0.096940	0.166928
V13	V	2.487193	-0.108495	0.328547
O14	O	2.492782	0.006230	0.322433
O15	O	2.452230	-0.216105	0.326166
O16	O	2.456544	-0.106380	0.471899
O17	O	2.488438	-0.104255	0.175690
V18	V	2.731237	-0.094826	0.310281
O19	O	2.612815	-0.138481	0.368616
O20	O	2.830714	-0.064840	0.270211
O21	O	2.654596	0.012785	0.312662
O22	O	2.784347	-0.209551	0.316395
O23	O	2.788690	-0.099066	0.463138
O24	O	2.650283	-0.096940	0.166928
C25	C	1.872321	-0.242352	0.320948
C26	C	1.884336	-0.330322	0.319956
C27	C	1.980386	-0.375665	0.324744
C28	C	1.991669	-0.458323	0.323818
C29	C	1.906901	-0.495635	0.318098
C30	C	1.810844	-0.450286	0.313313
C31	C	1.799562	-0.367631	0.314246
C32	C	1.936442	-0.745000	0.315024
C33	C	1.947731	-0.827661	0.314088
C34	C	2.128556	-0.835692	0.324595
C35	C	2.117265	-0.753034	0.325522
C36	C	2.021210	-0.707693	0.320743
C37	C	1.918432	-0.580124	0.317148
C38	C	2.009681	-0.623207	0.321700
C39	C	1.877823	-0.102386	0.506844
C40	C	1.893335	-0.101369	0.624035
C41	C	2.066176	0.039027	0.317877
C42	C	2.043780	0.126997	0.318875
C43	C	2.060674	-0.100937	0.131978
C44	C	2.034782	-0.101950	0.014787
C45	C	2.372321	-0.242352	0.320948
C46	C	2.384336	-0.330322	0.319956
C47	C	2.377823	-0.102386	0.506844
C48	C	2.393335	-0.101369	0.624035
C49	C	2.103323	-0.107311	0.854974
C50	C	2.117903	-0.106355	0.965085
C51	C	1.937074	-0.098498	0.954369
C52	C	1.922494	-0.099453	0.844258
C53	C	2.005623	-0.103861	0.794565
C54	C	1.991044	-0.104822	0.684453
C55	C	1.810215	-0.096958	0.673737
C56	C	1.824794	-0.096003	0.783848
C57	C	2.566176	0.039027	0.317877
C58	C	2.543780	0.126997	0.318875
C59	C	2.560674	-0.100937	0.131978
C60	C	2.534782	-0.101950	0.014787
C61	C	2.480395	-0.375653	0.324753
C62	C	2.491700	-0.458312	0.323837
C63	C	2.406944	-0.495639	0.318118
C64	C	2.310877	-0.450302	0.313324
C65	C	2.299574	-0.367645	0.314247
C66	C	2.603323	-0.107311	0.854974
C67	C	2.617903	-0.106355	0.965085
C68	C	2.437074	-0.098498	0.954369
C69	C	2.422494	-0.099453	0.844258
C70	C	2.505623	-0.103861	0.794565
C71	C	2.491044	-0.104822	0.684453
C72	C	2.310215	-0.096958	0.673737
C73	C	2.324794	-0.096003	0.783848
C74	C	2.620215	0.172327	0.314082
C75	C	2.599181	0.254985	0.315003
C76	C	2.501714	0.292312	0.320725
C77	C	2.425274	0.246976	0.325515
C78	C	2.446306	0.164320	0.324587
H79	H	2.049414	-0.345291	0.329392
H80	H	1.849415	-0.610512	0.312487
H81	H	2.069882	-0.495238	0.327718
H82	H	1.878700	-0.858040	0.309455
H83	H	2.484602	0.359617	0.321479
H84	H	2.369398	-0.094904	0.994847
H85	H	2.186296	-0.722661	0.330187
H86	H	2.416161	-0.562944	0.317367
H87	H	2.206761	-0.872617	0.328486
H88	H	1.858229	-0.708092	0.311127
H89	H	1.741826	-0.480673	0.308662
H90	H	2.345916	0.277380	0.330173
H91	H	1.721350	-0.330714	0.310352
H92	H	2.384062	0.127416	0.328500
H93	H	2.078699	-0.592824	0.326363
H94	H	2.058733	-0.108414	0.643995
H95	H	2.171012	-0.110908	0.814515
H96	H	2.197458	-0.109165	1.014267
H97	H	1.869398	-0.094904	0.994847
H98	H	1.757116	-0.092412	0.824323
H99	H	1.730659	-0.094152	0.624541
H100	H	2.549418	-0.345272	0.329403
H101	H	2.671012	-0.110908	0.814515
H102	H	2.569929	-0.495214	0.327738
H103	H	2.257116	-0.092412	0.824323
H104	H	2.221350	-0.330742	0.310336
H105	H	2.241873	-0.480706	0.308667
H106	H	2.697458	-0.109165	1.014267
H107	H	2.558733	-0.108414	0.643995
H108	H	2.230659	-0.094152	0.624541
H109	H	2.699583	0.141947	0.309424
H110	H	2.661435	0.291887	0.311103
