data_functionalizedCrystal
_audit_creation_method	'MofGen! by Chris Wilmer'
_symmetry_space_group_name_H-M	'P1'
_symmetry_Int_Tables_number	1
_symmetry_cell_setting	triclinic
loop_
_symmetry_equiv_pos_as_xyz
  x,y,z
_cell_length_a	21.395362
_cell_length_b	12.594516
_cell_length_c	21.395355
_cell_angle_alpha	90.011407
_cell_angle_beta	90.043940
_cell_angle_gamma	90.031933
loop_
_atom_site_label
_atom_site_type_symbol
_atom_site_fract_x
_atom_site_fract_y
_atom_site_fract_z
Zn1	Zn	0.957923	-0.423414	0.354617
Zn2	Zn	1.457923	0.076586	0.854617
Zn3	Zn	0.957853	-0.601379	0.249852
Zn4	Zn	1.457853	-0.101379	0.749852
Zn5	Zn	0.853138	-0.423464	0.249818
Zn6	Zn	1.353138	0.076536	0.749818
Zn7	Zn	0.853134	-0.601400	0.354557
Zn8	Zn	1.353134	-0.101400	0.854557
O9	O	0.905512	-0.512414	0.302211
O10	O	1.405512	-0.012414	0.802211
O11	O	1.045592	-0.446992	0.340759
O12	O	1.545592	0.053008	0.840759
O13	O	0.943934	-0.577789	0.162170
O14	O	1.443934	-0.077789	0.662170
O15	O	0.867069	-0.274511	0.263730
O16	O	1.367069	0.225489	0.763730
O17	O	1.045540	-0.577741	0.263789
O18	O	1.545540	-0.077741	0.763789
O19	O	0.944055	-0.274475	0.340725
O20	O	1.444055	0.225525	0.840725
O21	O	0.867001	-0.447076	0.162144
O22	O	1.367001	0.052924	0.662144
O23	O	0.765460	-0.447097	0.263672
O24	O	1.265460	0.052903	0.763672
O25	O	0.867063	-0.577779	0.442243
O26	O	1.367063	-0.077779	0.942243
O27	O	0.765457	-0.577827	0.340624
O28	O	1.265457	-0.077827	0.840624
O29	O	0.944051	-0.447013	0.442287
O30	O	1.444051	0.052987	0.942287
O31	O	0.943930	-0.750327	0.263731
O32	O	1.443930	-0.250327	0.763731
O33	O	0.866994	-0.750343	0.340657
O34	O	1.366994	-0.250343	0.840657
C35	C	0.742724	-0.512471	0.302138
C36	C	1.242724	-0.012471	0.802138
C37	C	0.673083	-0.512520	0.302122
C38	C	1.173083	-0.012520	0.802122
C39	C	0.640385	-0.580681	0.342130
C40	C	1.140385	-0.080681	0.842130
C41	C	0.574949	-0.580655	0.342158
C42	C	1.074949	-0.080655	0.842158
C43	C	0.542215	-0.512479	0.302167
C44	C	1.042215	-0.012479	0.802167
C45	C	0.574921	-0.444305	0.262155
C46	C	1.074921	0.055695	0.762155
C47	C	0.640355	-0.444326	0.262133
C48	C	1.140355	0.055674	0.762133
C49	C	0.438489	-0.503905	0.245761
C50	C	0.938489	-0.003905	0.745761
C51	C	0.373056	-0.503892	0.245782
C52	C	0.873056	-0.003892	0.745782
C53	C	0.340394	-0.512410	0.302236
C54	C	0.840394	-0.012410	0.802236
C55	C	0.373173	-0.520963	0.358670
C56	C	0.873173	-0.020963	0.858670
C57	C	0.438608	-0.520984	0.358648
C58	C	0.938608	-0.020984	0.858648
C59	C	0.471262	-0.512449	0.302187
C60	C	0.971262	-0.012449	0.802187
C61	C	0.236743	-0.580546	0.342278
C62	C	0.736743	-0.080546	0.842278
C63	C	0.171307	-0.580513	0.342307
C64	C	0.671307	-0.080513	0.842307
C65	C	0.171280	-0.444168	0.262298
C66	C	0.671280	0.055832	0.762298
C67	C	0.236715	-0.444196	0.262275
C68	C	0.736715	0.055804	0.762275
C69	C	0.269443	-0.512391	0.302264
C70	C	0.769443	-0.012391	0.802264
C71	C	0.905471	-0.788955	0.302205
C72	C	1.405471	-0.288955	0.802205
C73	C	0.905511	-0.907261	0.302223
C74	C	1.405511	-0.407261	0.802223
C75	C	0.863661	-0.976561	0.344034
C76	C	1.363661	-0.476561	0.844034
C77	C	0.848392	-1.047409	0.286856
C78	C	1.348392	-0.547409	0.786856
C79	C	0.920837	-1.047212	0.359410
C80	C	1.420837	-0.547212	0.859410
C81	C	0.890211	-0.976550	0.245015
C82	C	1.390211	-0.476550	0.745015
C83	C	0.962683	-0.976347	0.317608
C84	C	1.462683	-0.476347	0.817608
C85	C	0.947436	-1.047163	0.260391
C86	C	1.447436	-0.547163	0.760391
C87	C	1.068935	-0.512359	0.302284
C88	C	1.568935	-0.012359	0.802284
C89	C	1.138577	-0.512335	0.302315
C90	C	1.638577	-0.012335	0.802315
C91	C	0.905564	-0.512393	0.465634
C92	C	1.405564	-0.012393	0.965634
C93	C	0.905586	-0.512384	0.535275
C94	C	1.405586	-0.012384	1.035275
C95	C	0.905570	-0.234793	0.302231
C96	C	1.405570	0.265207	0.802231
C97	C	0.905595	-0.116488	0.302239
C98	C	1.405595	0.383512	0.802239
C99	C	0.905496	-0.512359	0.139423
C100	C	1.405496	-0.012359	0.639423
C101	C	0.905596	-0.512068	0.069782
C102	C	1.405596	-0.012068	0.569782
C103	C	0.945672	-0.444291	0.568012
C104	C	1.445672	0.055709	1.068012
C105	C	0.945671	-0.444245	0.633448
C106	C	1.445671	0.055755	1.133448
C107	C	0.905591	-0.512311	0.666144
C108	C	1.405591	-0.012311	1.166144
C109	C	0.865497	-0.580408	0.633399
C110	C	1.365497	-0.080408	1.133399
C111	C	0.865495	-0.580445	0.567965
C112	C	1.365495	-0.080445	1.067965
C113	C	0.900630	-0.608151	0.769815
C114	C	1.400630	-0.108151	1.269815
C115	C	0.900636	-0.608116	0.835248
C116	C	1.400636	-0.108116	1.335248
C117	C	0.905595	-0.512199	0.867965
C118	C	1.405595	-0.012199	1.367965
C119	C	0.910560	-0.416312	0.835241
C120	C	1.410560	0.083688	1.335241
C121	C	0.910557	-0.416349	0.769806
C122	C	1.410557	0.083651	1.269806
C123	C	0.905589	-0.512279	0.737096
C124	C	1.405589	-0.012279	1.237096
C125	C	0.945682	-0.444051	0.971654
C126	C	1.445682	0.055949	1.471654
C127	C	0.945677	-0.444003	1.037091
C128	C	1.445677	0.055997	1.537091
C129	C	0.865506	-0.580176	1.037041
C130	C	1.365506	-0.080176	1.537041
C131	C	0.865508	-0.580214	0.971605
C132	C	1.365508	-0.080214	1.471605
C133	C	0.905599	-0.512153	0.938916
C134	C	1.405599	-0.012153	1.438916
H135	H	0.263392	-0.636069	0.374843
H136	H	0.763392	-0.136069	0.874843
C137	C	0.554887	-0.632772	0.448207
C138	C	1.054887	-0.132772	0.948207
C139	C	0.538995	-0.655579	0.386139
C140	C	1.038995	-0.155579	0.886139
H141	H	0.532693	-0.679030	0.475358
H142	H	1.032693	-0.179030	0.975358
H143	H	0.544206	-0.561285	0.457446
H144	H	1.044206	-0.061285	0.957446
H145	H	0.598542	-0.642553	0.453912
H146	H	1.098542	-0.142553	0.953912
H147	H	0.495341	-0.645790	0.380432
H148	H	0.995341	-0.145790	0.880432
H149	H	0.549672	-0.727083	0.376897
H150	H	1.049672	-0.227083	0.876897
C151	C	1.068038	-1.019764	0.346622
C152	C	1.568038	-0.519764	0.846622
C153	C	1.027884	-0.934174	0.335194
C154	C	1.527884	-0.434174	0.835194
H155	H	1.108289	-0.993724	0.357488
H156	H	1.608289	-0.493724	0.857488
H157	H	1.071063	-1.062337	0.310102
H158	H	1.571063	-0.562337	0.810102
H159	H	1.051997	-1.061267	0.380035
H160	H	1.551997	-0.561267	0.880035
H161	H	1.043923	-0.892675	0.301778
H162	H	1.543923	-0.392675	0.801778
H163	H	1.024861	-0.891583	0.371718
H164	H	1.524861	-0.391583	0.871718
C165	C	0.379513	-0.486993	0.134197
C166	C	0.879513	0.013007	0.634197
C167	C	0.337028	-0.494487	0.183751
C168	C	0.837028	0.005513	0.683751
H169	H	0.357270	-0.481179	0.095902
H170	H	0.857270	0.018821	0.595902
H171	H	0.405005	-0.548691	0.133310
H172	H	0.905005	-0.048691	0.633310
H173	H	0.405068	-0.426012	0.139767
H174	H	0.905068	0.073988	0.639767
H175	H	0.311476	-0.555472	0.178184
H176	H	0.811476	-0.055472	0.678184
H177	H	0.311525	-0.432782	0.184637
H178	H	0.811525	0.067218	0.684637
C179	C	0.786268	-0.714810	0.978130
C180	C	1.286268	-0.214810	1.478130
C181	C	0.821449	-0.655073	0.935617
C182	C	1.321449	-0.155073	1.435617
H183	H	0.759068	-0.761027	0.955911
H184	H	1.259068	-0.261027	1.455911
H185	H	0.762314	-0.668429	1.003630
H186	H	1.262314	-0.168429	1.503630
H187	H	0.813565	-0.755499	1.003676
H188	H	1.313565	-0.255499	1.503676
H189	H	0.794151	-0.614377	0.910074
H190	H	1.294151	-0.114377	1.410074
H191	H	0.845404	-0.701459	0.910106
H192	H	1.345404	-0.201459	1.410106
H193	H	0.978313	-0.388790	0.660108
H194	H	1.478313	0.111210	1.160108
C195	C	0.831231	-0.971913	0.451412
C196	C	1.331231	-0.471913	0.951412
C197	C	0.815803	-0.934702	0.391697
C198	C	1.315803	-0.434702	0.891697
H199	H	0.801682	-0.946075	0.480833
H200	H	1.301682	-0.446075	0.980833
H201	H	0.871795	-0.947571	0.462431
H202	H	1.371795	-0.447571	0.962431
H203	H	0.830668	-1.047333	0.451470
H204	H	1.330668	-0.547333	0.951470
H205	H	0.816370	-0.859282	0.391637
H206	H	1.316370	-0.359282	0.891637
H207	H	0.775228	-0.959039	0.380675
H208	H	1.275228	-0.459039	0.880675
H209	H	0.896598	-0.686193	0.861887
H210	H	1.396598	-0.186193	1.361887
C211	C	0.071015	-0.641013	0.377871
C212	C	0.571015	-0.141013	0.877871
C213	C	0.135361	-0.655437	0.386290
C214	C	0.635361	-0.155437	0.886290
H215	H	0.048825	-0.687265	0.405028
H216	H	0.548825	-0.187265	0.905028
H217	H	0.060239	-0.656478	0.335767
H218	H	0.560239	-0.156478	0.835767
H219	H	0.060343	-0.569515	0.387119
H220	H	0.560343	-0.069515	0.887119
H221	H	0.146035	-0.726934	0.377037
H222	H	0.646035	-0.226934	0.877037
H223	H	0.146142	-0.639980	0.428404
H224	H	0.646142	-0.139980	0.928404
C225	C	0.511968	-0.584459	0.175504
C226	C	1.011968	-0.084459	0.675504
C227	C	0.474392	-0.494545	0.183704
C228	C	0.974392	0.005455	0.683704
H229	H	0.534136	-0.578675	0.137197
H230	H	1.034136	-0.078675	0.637197
H231	H	0.486412	-0.646133	0.174636
H232	H	0.986412	-0.146133	0.674636
H233	H	0.540847	-0.589537	0.209116
H234	H	1.040847	-0.089537	0.709116
H235	H	0.445510	-0.489471	0.150094
H236	H	0.945510	0.010529	0.650094
H237	H	0.499950	-0.432854	0.184566
H238	H	0.999950	0.067146	0.684566
H239	H	0.978319	-0.388548	1.063744
H240	H	1.478319	0.111452	1.563744
C241	C	0.829924	-0.640603	1.137321
C242	C	1.329924	-0.140603	1.637321
C243	C	0.821455	-0.655008	1.072973
C244	C	1.321455	-0.155008	1.572973
H245	H	0.802731	-0.686810	1.159504
H246	H	1.302731	-0.186810	1.659504
H247	H	0.820762	-0.569098	1.148031
H248	H	1.320762	-0.069098	1.648031
H249	H	0.872023	-0.656151	1.148067
H250	H	1.372023	-0.156151	1.648067
H251	H	0.779358	-0.639453	1.062225
H252	H	1.279358	-0.139453	1.562225
H253	H	0.830614	-0.726530	1.062258
H254	H	1.330614	-0.226530	1.562258
C255	C	0.890726	-0.797730	0.776394
C256	C	1.390726	-0.297730	1.276394
C257	C	0.895107	-0.713583	0.733856
C258	C	1.395107	-0.213583	1.233856
H259	H	0.887299	-0.862812	0.754194
H260	H	1.387299	-0.362812	1.254194
H261	H	0.854850	-0.788297	0.801914
H262	H	1.354850	-0.288297	1.301914
H263	H	0.927066	-0.799156	0.801917
H264	H	1.427066	-0.299156	1.301917
H265	H	0.858765	-0.712152	0.708336
H266	H	1.358765	-0.212152	1.208336
H267	H	0.930987	-0.723018	0.708325
H268	H	1.430987	-0.223018	1.208325
C269	C	0.834939	-0.760643	0.653530
C270	C	1.334939	-0.260643	1.153530
C271	C	0.821440	-0.655232	0.669333
C272	C	1.321440	-0.155232	1.169333
H273	H	0.807735	-0.806833	0.675712
H274	H	1.307735	-0.306833	1.175712
H275	H	0.877029	-0.776194	0.664288
H276	H	1.377029	-0.276194	1.164288
H277	H	0.829199	-0.770393	0.609873
H278	H	1.329199	-0.270393	1.109873
H279	H	0.827185	-0.645480	0.712990
H280	H	1.327185	-0.145480	1.212990
H281	H	0.779341	-0.639676	0.658580
H282	H	1.279341	-0.139676	1.158580
H283	H	0.877226	-0.945639	0.196646
H284	H	1.377226	-0.445639	0.696646
H285	H	0.832849	-0.635892	0.541311
H286	H	1.332849	-0.135892	1.041311
H287	H	0.978323	-0.388625	0.945037
H288	H	1.478323	0.111375	1.445037
H289	H	0.465294	-0.527945	0.404598
H290	H	0.965294	-0.027945	0.904598
H291	H	0.346582	-0.527898	0.404640
H292	H	0.846582	-0.027898	0.904640
H293	H	0.982863	-1.077968	0.224999
H294	H	1.482863	-0.577968	0.724999
C295	C	0.714050	-0.595702	0.426374
C296	C	1.214050	-0.095702	0.926374
C297	C	0.676358	-0.655627	0.386094
C298	C	1.176358	-0.155627	0.886094
H299	H	0.736261	-0.641970	0.453514
H300	H	1.236261	-0.141970	0.953514
H301	H	0.688567	-0.549388	0.450390
H302	H	1.188567	-0.049388	0.950390
H303	H	0.742891	-0.555119	0.402536
H304	H	1.242891	-0.055119	0.902536
H305	H	0.647514	-0.696204	0.409933
H306	H	1.147514	-0.196204	0.909933
H307	H	0.701843	-0.701959	0.362076
H308	H	1.201843	-0.201959	0.862076
C309	C	0.920356	-0.226751	0.776364
C310	C	1.420356	0.273249	1.276364
C311	C	0.916005	-0.310956	0.733836
C312	C	1.416005	0.189044	1.233836
H313	H	0.923713	-0.161686	0.754156
H314	H	1.423713	0.338314	1.254156
H315	H	0.956263	-0.236073	0.801909
H316	H	1.456263	0.263927	1.301909
H317	H	0.884037	-0.225379	0.801862
H318	H	1.384037	0.274621	1.301862
H319	H	0.952326	-0.312333	0.708340
H320	H	1.452326	0.187667	1.208340
H321	H	0.880095	-0.301631	0.708280
H322	H	1.380095	0.198369	1.208280
C323	C	1.024916	-0.309686	0.574640
C324	C	1.524916	0.190314	1.074640
C325	C	0.989733	-0.369467	0.532081
C326	C	1.489733	0.130533	1.032081
H327	H	1.052113	-0.263488	0.552455
H328	H	1.552113	0.236512	1.052455
H329	H	1.048873	-0.356040	0.600179
H330	H	1.548873	0.143960	1.100179
H331	H	0.997620	-0.268973	0.600142
H332	H	1.497620	0.231027	1.100142
H333	H	1.017029	-0.410187	0.506582
H334	H	1.517029	0.089813	1.006582
H335	H	0.965774	-0.323108	0.506532
H336	H	1.465774	0.176892	1.006532
C337	C	0.070965	-0.383648	0.226777
C338	C	0.570965	0.116352	0.726777
C339	C	0.135305	-0.369259	0.218318
C340	C	0.635305	0.130741	0.718318
H341	H	0.048755	-0.337412	0.199617
H342	H	0.548755	0.162588	0.699617
H343	H	0.060290	-0.368138	0.268882
H344	H	0.560290	0.131862	0.768882
H345	H	0.060216	-0.455150	0.217558
H346	H	0.560216	0.044850	0.717558
H347	H	0.146055	-0.297759	0.227542
H348	H	0.646055	0.202241	0.727542
H349	H	0.145985	-0.384761	0.176203
H350	H	0.645985	0.115239	0.676203
H351	H	0.800081	-1.078645	0.273857
H352	H	1.300081	-0.578645	0.773857
H353	H	0.263338	-0.388697	0.229692
H354	H	0.763338	0.111303	0.729692
H355	H	0.933766	-1.078251	0.407766
H356	H	1.433766	-0.578251	0.907766
C357	C	0.863059	-0.297090	0.908759
C358	C	1.363059	0.202910	1.408759
C359	C	0.915998	-0.310860	0.871188
C360	C	1.415998	0.189140	1.371188
H361	H	0.866414	-0.231985	0.930947
H362	H	1.366414	0.268015	1.430947
H363	H	0.860113	-0.354173	0.937614
H364	H	1.360113	0.145827	1.437614
H365	H	0.826749	-0.295756	0.883192
H366	H	1.326749	0.204244	1.383192
H367	H	0.952308	-0.312202	0.896755
H368	H	1.452308	0.187798	1.396755
H369	H	0.918950	-0.253762	0.842329
H370	H	1.418950	0.246238	1.342329
C371	C	0.554689	-0.392187	0.156116
C372	C	1.054689	0.107813	0.656116
C373	C	0.538945	-0.369365	0.218192
C374	C	1.038945	0.130635	0.718192
H375	H	0.532482	-0.345912	0.128977
H376	H	1.032482	0.154088	0.628977
H377	H	0.543921	-0.463665	0.146884
H378	H	1.043921	0.036335	0.646884
H379	H	0.598341	-0.382442	0.150388
H380	H	1.098341	0.117558	0.650388
H381	H	0.495294	-0.379117	0.223921
H382	H	0.995294	0.120883	0.723921
H383	H	0.549709	-0.297869	0.227428
H384	H	1.049709	0.202131	0.727428
H385	H	0.666978	-0.388818	0.229553
H386	H	1.166978	0.111182	0.729553
