data_functionalizedCrystal
_audit_creation_method	'MofGen! by Chris Wilmer'
_symmetry_space_group_name_H-M	'P1'
_symmetry_Int_Tables_number	1
_symmetry_cell_setting	triclinic
loop_
_symmetry_equiv_pos_as_xyz
  x,y,z
_cell_length_a	14.908520
_cell_length_b	14.908792
_cell_length_c	14.908308
_cell_angle_alpha	90.212689
_cell_angle_beta	96.360765
_cell_angle_gamma	83.210459
loop_
_atom_site_label
_atom_site_type_symbol
_atom_site_fract_x
_atom_site_fract_y
_atom_site_fract_z
Zn1	Zn	-0.317697	-1.325973	-0.605069
Zn2	Zn	0.182303	-0.825973	-0.105069
Zn3	Zn	-0.460348	-1.325871	-0.462434
Zn4	Zn	0.039652	-0.825871	0.037566
Zn5	Zn	-0.316708	-1.184347	-0.445983
Zn6	Zn	0.183292	-0.684347	0.054017
Zn7	Zn	-0.477732	-1.165838	-0.604992
Zn8	Zn	0.022268	-0.665838	-0.104992
O9	O	-0.393121	-1.250507	-0.529619
O10	O	0.106879	-0.750507	-0.029619
O11	O	-0.329758	-1.452205	-0.593065
O12	O	0.170242	-0.952205	-0.093065
O13	O	-0.433605	-1.314800	-0.334012
O14	O	0.066395	-0.814800	0.165988
O15	O	-0.189751	-1.210923	-0.460233
O16	O	0.310249	-0.710923	0.039767
O17	O	-0.434563	-1.452129	-0.488271
O18	O	0.065437	-0.952129	0.011729
O19	O	-0.190477	-1.314975	-0.577113
O20	O	0.309523	-0.814975	-0.077113
O21	O	-0.328073	-1.210823	-0.321926
O22	O	0.171927	-0.710823	0.178074
O23	O	-0.344930	-1.055647	-0.460159
O24	O	0.155070	-0.555647	0.039841
O25	O	-0.464192	-1.179378	-0.731242
O26	O	0.035808	-0.679378	-0.231242
O27	O	-0.463233	-1.042049	-0.576983
O28	O	0.036767	-0.542049	-0.076983
O29	O	-0.346615	-1.297028	-0.731298
O30	O	0.153385	-0.797028	-0.231298
O31	O	-0.589742	-1.296853	-0.488197
O32	O	-0.089742	-0.796853	0.011803
O33	O	-0.602514	-1.179278	-0.592934
O34	O	-0.102514	-0.679278	-0.092934
C35	C	-0.405861	-1.016114	-0.516778
C36	C	0.094139	-0.516114	-0.016778
C37	C	-0.411335	-0.915836	-0.511307
C38	C	0.088665	-0.415836	-0.011307
C39	C	-0.473514	-0.774474	-0.448941
C40	C	0.026486	-0.274474	0.051059
C41	C	-0.468374	-0.868693	-0.454082
C42	C	0.031626	-0.368693	0.045918
C43	C	-0.359429	-0.868754	-0.563394
C44	C	0.140571	-0.368754	-0.063394
C45	C	-0.364568	-0.774535	-0.558254
C46	C	0.135432	-0.274535	-0.058254
C47	C	-0.421614	-0.727398	-0.501026
C48	C	0.078386	-0.227398	-0.001026
C49	C	-0.426757	-0.633176	-0.495892
C50	C	0.073243	-0.133176	0.004108
C51	C	-0.317807	-0.633240	-0.605198
C52	C	0.182193	-0.133240	-0.105198
C53	C	-0.312668	-0.727459	-0.610339
C54	C	0.187332	-0.227459	-0.110339
C55	C	-0.629081	-1.236070	-0.542364
C56	C	-0.129081	-0.736070	-0.042364
C57	C	-0.730023	-1.229974	-0.547850
C58	C	-0.230023	-0.729974	-0.047850
C59	C	-0.906342	-1.341063	-0.449197
C60	C	-0.406342	-0.841063	0.050803
C61	C	-1.001185	-1.335338	-0.454349
C62	C	-0.501185	-0.835338	0.045651
C63	C	-1.014555	-1.212806	-0.563312
C64	C	-0.514555	-0.712806	-0.063312
C65	C	-0.919711	-1.218530	-0.558159
C66	C	-0.419711	-0.718530	-0.058159
C67	C	-0.865608	-1.282660	-0.501099
C68	C	-0.365608	-0.782660	-0.001099
C69	C	-0.770763	-1.288379	-0.495942
C70	C	-0.270763	-0.788379	0.004058
C71	C	-0.784134	-1.165851	-0.604909
C72	C	-0.284134	-0.665851	-0.104909
C73	C	-0.878978	-1.160127	-0.610061
C74	C	-0.378978	-0.660127	-0.110061
C75	C	-0.156240	-1.265025	-0.516847
C76	C	0.343760	-0.765025	-0.016847
C77	C	-0.055295	-1.271211	-0.511404
C78	C	0.444705	-0.771211	-0.011404
C79	C	-0.407452	-1.236150	-0.764918
C80	C	0.092548	-0.736150	-0.264918
C81	C	-0.413560	-1.230031	-0.865188
C82	C	0.086440	-0.730031	-0.365188
C83	C	-0.380324	-0.485817	-0.542505
C84	C	0.119676	0.014183	-0.042505
C85	C	-0.374851	-0.586094	-0.547978
C86	C	0.125149	-0.086094	-0.047978
C87	C	-0.302582	-1.341042	-1.053665
C88	C	0.197418	-0.841042	-0.553665
C89	C	-0.308317	-1.335296	-1.147878
C90	C	0.191683	-0.835296	-0.647878
C91	C	-0.430760	-1.212790	-1.147827
C92	C	0.069240	-0.712790	-0.647827
C93	C	-0.425025	-1.218536	-1.053614
C94	C	0.074975	-0.718536	-0.553614
C95	C	-0.360935	-1.282665	-1.006537
C96	C	0.139065	-0.782665	-0.506537
C97	C	-0.355205	-1.288414	-0.912323
C98	C	0.144795	-0.788414	-0.412323
C99	C	-0.477642	-1.165905	-0.912273
C100	C	0.022358	-0.665905	-0.412273
C101	C	-0.483377	-1.160159	-1.006486
C102	C	0.016623	-0.660159	-0.506486
C103	C	-0.378777	-1.264865	-0.295236
C104	C	0.121223	-0.764865	0.204764
C105	C	-0.372404	-1.271174	-0.194962
C106	C	0.127596	-0.771174	0.305038
H107	H	-0.510636	-0.907019	-0.411668
H108	H	-0.010636	-0.407019	0.088332
Cl109	Cl	-0.563942	-1.079544	-1.065678
Cl110	Cl	-0.063942	-0.579544	-0.565678
Cl111	Cl	-0.545244	-0.715210	-0.377019
Cl112	Cl	-0.045244	-0.215210	0.122981
Cl113	Cl	-0.274637	-1.369034	-0.853141
Cl114	Cl	0.225363	-0.869034	-0.353141
Cl115	Cl	-1.052391	-1.408765	-0.389100
Cl116	Cl	-0.552391	-0.908765	0.110900
Cl117	Cl	-0.702748	-1.368995	-0.424207
Cl118	Cl	-0.202748	-0.868995	0.075793
H119	H	-1.058622	-1.160600	-0.609774
H120	H	-0.558622	-0.660600	-0.109774
Cl121	Cl	-0.287718	-0.928028	-0.635327
Cl122	Cl	0.212282	-0.428028	-0.135327
H123	H	-0.862290	-1.393274	-0.402729
H124	H	-0.362290	-0.893274	0.097271
H125	H	-0.923041	-1.107917	-0.656521
H126	H	-0.423041	-0.607917	-0.156521
H127	H	-0.473209	-0.594798	-0.449297
H128	H	0.026791	-0.094798	0.050703
H129	H	-0.750958	-1.118293	-0.647168
H130	H	-0.250958	-0.618293	-0.147168
Cl131	Cl	-0.240959	-0.786725	-0.682278
Cl132	Cl	0.259041	-0.286725	-0.182278
Cl133	Cl	-0.252560	-0.574053	-0.670683
Cl134	Cl	0.247440	-0.074053	-0.170683
H135	H	-0.250401	-1.393262	-1.015334
H136	H	0.249599	-0.893262	-0.515334
H137	H	-0.260798	-1.382831	-1.186246
H138	H	0.239202	-0.882831	-0.686246
H139	H	-0.482938	-1.160580	-1.186174
H140	H	0.017062	-0.660580	-0.686174
Cl141	Cl	-0.551014	-1.092521	-0.853022
Cl142	Cl	-0.051014	-0.592521	-0.353022
