data_functionalizedCrystal
_audit_creation_method	'MofGen! by Chris Wilmer'
_symmetry_space_group_name_H-M	'P1'
_symmetry_Int_Tables_number	1
_symmetry_cell_setting	triclinic
loop_
_symmetry_equiv_pos_as_xyz
  x,y,z
_cell_length_a	18.101395
_cell_length_b	18.215407
_cell_length_c	18.215399
_cell_angle_alpha	90.016860
_cell_angle_beta	89.973573
_cell_angle_gamma	89.972763
loop_
_atom_site_label
_atom_site_type_symbol
_atom_site_fract_x
_atom_site_fract_y
_atom_site_fract_z
Zn1	Zn	-0.294914	-1.125040	-0.416065
Zn2	Zn	-0.418760	-1.124935	-0.293002
Zn3	Zn	-0.294929	-1.001973	-0.293019
Zn4	Zn	-0.418709	-1.001925	-0.416034
O5	O	-0.356828	-1.063468	-0.354530
O6	O	-0.311357	-1.228010	-0.399747
O7	O	-0.402361	-1.108600	-0.190020
O8	O	-0.191294	-1.018362	-0.309362
O9	O	-0.402346	-1.227933	-0.309333
O10	O	-0.191283	-1.108779	-0.399763
O11	O	-0.311382	-1.018260	-0.190032
O12	O	-0.311333	-0.898982	-0.309331
O13	O	-0.402260	-1.018281	-0.519022
O14	O	-0.402275	-0.898947	-0.399709
O15	O	-0.311308	-1.108733	-0.519045
O16	O	-0.522386	-1.108554	-0.309302
O17	O	-0.522349	-1.018179	-0.399693
C18	C	-0.549239	-1.063370	-0.354508
C19	C	-0.631553	-1.063395	-0.354524
C20	C	-0.356801	-0.872262	-0.354519
C21	C	-0.356807	-0.790463	-0.354531
C22	C	-0.356777	-1.063513	-0.546483
C23	C	-0.356755	-1.063532	-0.628282
C24	C	-0.930643	-1.063557	-0.354563
C25	C	-0.899326	-1.006827	-0.411576
C26	C	-0.813708	-1.006557	-0.411397
C27	C	-0.782261	-1.063476	-0.354544
C28	C	-0.813410	-1.042478	-0.276984
C29	C	-0.899055	-1.042113	-0.277326
C30	C	-0.898993	-1.141408	-0.374428
C31	C	-0.813342	-1.140950	-0.376129
C32	C	-0.698402	-1.063432	-0.354529
C33	C	-1.014503	-1.063599	-0.354574
C34	C	-0.163666	-1.063587	-0.354568
C35	C	-0.081352	-1.063638	-0.354584
C36	C	-0.404246	-0.525407	-0.401526
C37	C	-0.404242	-0.602265	-0.401522
C38	C	-0.309403	-0.602271	-0.307548
C39	C	-0.309412	-0.525414	-0.307548
C40	C	-0.356832	-0.486984	-0.354541
C41	C	-0.356819	-0.640700	-0.354537
C42	C	-0.356814	-0.724033	-0.354533
C43	C	-0.356839	-0.403645	-0.354545
C44	C	-0.356850	-0.255421	-0.354542
C45	C	-0.356844	-0.337220	-0.354547
C46	C	-0.309352	-1.110648	-0.816489
C47	C	-0.309330	-1.110656	-0.893348
C48	C	-0.404044	-1.016469	-0.893313
C49	C	-0.404061	-1.016457	-0.816455
C50	C	-0.356716	-1.063550	-0.778045
C51	C	-0.356677	-1.063571	-0.931762
C52	C	-0.356654	-1.063580	-1.015095
C53	C	-0.356738	-1.063541	-0.694706
C54	C	-0.356825	-1.063466	-0.163324
C55	C	-0.356638	-1.063589	-0.081525
H56	H	-0.919875	-1.019834	-0.469272
H57	H	-0.270794	-0.633570	-0.269289
O58	O	-0.263280	-0.488199	-0.261882
C59	C	-0.169245	-0.496308	-0.168640
C60	C	-0.221431	-0.538546	-0.220330
H61	H	-0.135407	-0.536996	-0.135021
H62	H	-0.130519	-0.460368	-0.202457
H63	H	-0.203217	-0.460283	-0.130136
H64	H	-0.187518	-0.574611	-0.258845
H65	H	-0.260159	-0.574439	-0.186468
O66	O	-0.450206	-0.488040	-0.447246
C67	C	-0.460303	-0.401258	-0.546560
C68	C	-0.408167	-0.443541	-0.494840
H69	H	-0.426337	-0.365259	-0.585041
H70	H	-0.494180	-0.441891	-0.580194
H71	H	-0.499002	-0.365283	-0.512691
H72	H	-0.369424	-0.479517	-0.528652
H73	H	-0.374343	-0.402869	-0.461203
H74	H	-0.792021	-0.986172	-0.259855
H75	H	-0.442630	-0.978100	-0.785153
H76	H	-0.792981	-1.156785	-0.433209
H77	H	-0.442852	-0.633546	-0.439781
H78	H	-0.919245	-1.183674	-0.332904
H79	H	-0.792645	-1.019695	-0.468908
O80	O	-0.263289	-1.156411	-0.779291
C81	C	-0.169371	-1.249859	-0.787442
C82	C	-0.221491	-1.198059	-0.829657
H83	H	-0.135575	-1.283556	-0.828145
H84	H	-0.130603	-1.216123	-0.751484
H85	H	-0.203393	-1.288285	-0.751437
H86	H	-0.187528	-1.159622	-0.865702
H87	H	-0.260260	-1.231840	-0.865569
H88	H	-0.920908	-0.949472	-0.398583
O89	O	-0.263240	-1.156301	-0.930723
C90	C	-0.163256	-1.166272	-1.017544
C91	C	-0.215401	-1.114495	-0.975252
H92	H	-0.124575	-1.132494	-1.053568
H93	H	-0.129369	-1.199911	-0.976918
H94	H	-0.197263	-1.204754	-1.053496
H95	H	-0.181451	-1.075969	-0.939300
H96	H	-0.249291	-1.080909	-1.015919
H97	H	-0.442592	-0.978129	-0.924595
H98	H	-0.793281	-0.948852	-0.398239
H99	H	-0.919774	-1.081640	-0.233399
O100	O	-0.923093	-0.974270	-0.257240
C101	C	-1.028092	-0.896097	-0.234598
C102	C	-1.000976	-0.972968	-0.257335
H103	H	-1.091063	-0.895014	-0.234682
H104	H	-1.006968	-0.882711	-0.177184
H105	H	-1.006311	-0.853635	-0.275149
H106	H	-1.022746	-1.015479	-0.216834
H107	H	-1.022092	-0.986291	-0.314765
O108	O	-0.789248	-1.090293	-0.224930
C109	C	-0.822876	-1.179062	-0.132742
C110	C	-0.850332	-1.124936	-0.191671
H111	H	-0.872248	-1.207074	-0.105825
H112	H	-0.785957	-1.222239	-0.159386
H113	H	-0.790090	-1.147900	-0.089350
H114	H	-0.883149	-1.156036	-0.235081
H115	H	-0.887212	-1.081760	-0.164975
O116	O	-0.924570	-1.164289	-0.440785
C117	C	-0.893617	-1.201763	-0.563899
C118	C	-0.864550	-1.175883	-0.488779
H119	H	-0.845107	-1.211130	-0.602727
H120	H	-0.925553	-1.255221	-0.556793
H121	H	-0.931724	-1.158041	-0.587804
H122	H	-0.826414	-1.219553	-0.464832
H123	H	-0.832656	-1.122407	-0.495931
O124	O	-0.787851	-1.194140	-0.330286
C125	C	-0.788201	-1.322801	-0.299563
C126	C	-0.817106	-1.262643	-0.351554
H127	H	-0.811854	-1.378197	-0.316730
H128	H	-0.725321	-1.324873	-0.302482
H129	H	-0.806070	-1.309855	-0.240949
H130	H	-0.799291	-1.275546	-0.410191
H131	H	-0.879983	-1.260585	-0.348572
