data_functionalizedCrystal
_audit_creation_method	'MofGen! by Chris Wilmer'
_symmetry_space_group_name_H-M	'P1'
_symmetry_Int_Tables_number	1
_symmetry_cell_setting	triclinic
loop_
_symmetry_equiv_pos_as_xyz
  x,y,z
_cell_length_a	27.435584
_cell_length_b	27.434948
_cell_length_c	27.431174
_cell_angle_alpha	60.005483
_cell_angle_beta	60.011353
_cell_angle_gamma	59.993028
loop_
_atom_site_label
_atom_site_type_symbol
_atom_site_fract_x
_atom_site_fract_y
_atom_site_fract_z
O1	O	0.067437	-0.712144	0.595551
O2	O	0.025356	-0.554453	0.479848
O3	O	0.125206	-0.654236	0.479781
O4	O	-0.032412	-0.612361	0.595618
O5	O	0.158328	-0.621117	0.512835
O6	O	0.058479	-0.521333	0.512902
O7	O	0.100560	-0.679025	0.628605
Zn8	Zn	0.084778	-0.594921	0.576001
Zn9	Zn	0.041138	-0.638557	0.532452
O10	O	0.000710	-0.579241	0.628672
N11	N	0.114563	-0.565144	0.605726
N12	N	0.011358	-0.668338	0.502727
C13	C	0.156385	-0.523520	0.904506
C14	C	0.413419	-0.523497	0.647322
C15	C	0.156253	-0.523488	0.647384
C16	C	0.156238	-0.266354	0.647407
C17	C	0.197637	-0.390463	0.688753
C18	C	0.197646	-0.482126	0.688741
C19	C	0.220575	-0.459215	0.711654
C20	C	0.320555	-0.441991	0.659023
C21	C	0.383051	-0.462825	0.638179
C22	C	0.383069	-0.563942	0.676737
C23	C	0.320575	-0.543107	0.697583
C24	C	0.212704	-0.359206	0.627313
C25	C	0.191849	-0.296705	0.606496
C26	C	0.140866	-0.296722	0.708562
C27	C	0.161721	-0.359223	0.729379
C28	C	0.136200	-0.467030	0.703858
C29	C	0.115361	-0.487857	0.683021
C30	C	0.217408	-0.538877	0.631968
C31	C	0.238249	-0.518050	0.652796
C32	C	0.136259	-0.467047	0.811668
C33	C	0.115461	-0.487892	0.874167
C34	C	0.217537	-0.538923	0.874131
C35	C	0.238333	-0.518080	0.811631
C36	C	0.197693	-0.482140	0.780401
C37	C	0.289320	-0.482131	0.688723
C38	C	0.132699	-0.546027	0.973247
C39	C	0.482158	-0.545613	0.624075
C40	C	0.132521	-0.546006	0.624886
C41	C	0.132917	-0.197607	0.625310
C42	C	-0.098217	-0.686189	0.484419
C43	C	-0.006438	-0.686322	0.392891
C44	C	-0.006621	-0.777944	0.484592
C45	C	-0.006606	-0.686315	0.484649
C46	C	-0.029470	-0.709193	0.461638
N47	N	0.538410	-0.565162	0.605628
O48	O	0.742647	-0.575135	0.458625
O49	O	0.742821	-0.691181	0.616169
O50	O	0.742757	-0.690917	0.516248
O51	O	0.742711	-0.575399	0.558546
O52	O	0.643472	-0.657878	0.549405
O53	O	0.643536	-0.658142	0.649326
O54	O	0.643362	-0.542096	0.491782
Zn55	Zn	0.627685	-0.594873	0.575818
Zn56	Zn	0.758498	-0.638404	0.532133
O57	O	0.643426	-0.542360	0.591702
N58	N	0.847774	-0.668115	0.502317
N59	N	0.114542	-0.141354	0.605766
O60	O	-0.032397	0.062987	0.595660
O61	O	0.125155	0.062987	0.479633
O62	O	0.025219	0.062974	0.479910
O63	O	0.067539	0.063001	0.595383
O64	O	0.058343	-0.036320	0.513009
O65	O	0.158279	-0.036306	0.512732
O66	O	0.000728	-0.036306	0.628759
Zn67	Zn	0.084763	-0.052071	0.576000
Zn68	Zn	0.041120	0.078752	0.532392
O69	O	0.100664	-0.036292	0.628482
N70	N	0.011333	0.168036	0.502628
N71	N	0.114782	-0.565197	1.029501
O72	O	0.104681	-0.712124	1.233827
O73	O	-0.011334	-0.554523	1.233839
O74	O	-0.011066	-0.654443	1.233797
O75	O	0.104414	-0.612204	1.233869
O76	O	0.022028	-0.621336	1.134509
O77	O	0.021760	-0.521417	1.134551
O78	O	0.137775	-0.679018	1.134539
Zn79	Zn	0.085022	-0.594961	1.118780
Zn80	Zn	0.041420	-0.638580	1.249597
O81	O	0.137508	-0.579098	1.134580
N82	N	0.011658	-0.668350	1.338876
C83	C	0.037974	-0.518023	0.480435
C84	C	0.161625	-0.641592	0.480351
C85	C	0.087941	-0.715455	0.628017
C86	C	-0.035710	-0.591885	0.628101
C87	C	0.693199	-0.690642	0.652596
C88	C	0.693122	-0.690315	0.528855
C89	C	0.692981	-0.542634	0.455356
C90	C	0.693062	-0.542961	0.579095
C91	C	0.161524	0.013463	0.480164
C92	C	0.037807	0.013324	0.480547
C93	C	-0.035683	0.013341	0.628188
C94	C	0.088076	0.013357	0.627845
C95	C	-0.010764	-0.518114	1.184196
C96	C	-0.010426	-0.641846	1.184125
C97	C	0.137205	-0.715426	1.184182
C98	C	0.136875	-0.591687	1.184231
H99	H	0.065433	-0.475593	0.899616
H100	H	-0.046689	-0.650868	1.184063
H101	H	-0.080982	-0.582959	0.664476
O102	O	0.180735	-0.769381	1.184153
C103	C	0.232108	-0.769386	1.184193
H104	H	0.231400	-0.721499	1.165411
H105	H	0.232806	-0.790730	1.231833
C106	C	0.289112	-0.864065	1.168324
C107	C	0.288244	-0.805249	1.145251
H108	H	0.323739	-0.886188	1.144305
H109	H	0.254500	-0.864063	1.168299
H110	H	0.289690	-0.881843	1.208023
H111	H	0.287657	-0.787469	1.105555
H112	H	0.322857	-0.805248	1.145268
H113	H	0.692924	-0.506199	0.410112
O114	O	0.215634	-0.652140	0.436931
C115	C	0.242114	-0.611159	0.420874
H116	H	0.205940	-0.569849	0.432894
H117	H	0.274664	-0.632787	0.445972
C118	C	0.320365	-0.643714	0.338433
C119	C	0.275934	-0.592975	0.353191
H120	H	0.341229	-0.632499	0.296684
H121	H	0.302526	-0.671326	0.349251
H122	H	0.347483	-0.661733	0.359352
H123	H	0.248813	-0.574962	0.332278
H124	H	0.293769	-0.565360	0.342367
H125	H	-0.047187	-0.472851	1.184199
O126	O	0.180102	-0.580804	1.184221
C127	C	0.158354	-0.522122	1.184249
H128	H	0.120031	-0.493866	1.165446
H129	H	0.141704	-0.523001	1.231888
C130	C	0.255925	-0.529703	1.168423
C131	C	0.208859	-0.494999	1.145324
H132	H	0.287079	-0.512973	1.144414
H133	H	0.270577	-0.569240	1.168407
H134	H	0.242042	-0.530434	1.208122
H135	H	0.222740	-0.494275	1.105629
H136	H	0.194211	-0.455461	1.145333
H137	H	0.097136	0.013366	0.664120
H138	H	-0.080930	0.013340	0.664614
O139	O	0.247562	-0.389461	0.587771
C140	C	0.256393	-0.348468	0.529077
H141	H	0.218707	-0.303918	0.529204
H142	H	0.300911	-0.341818	0.511157
C143	C	0.303098	-0.427570	0.488843
C144	C	0.256808	-0.372854	0.488998
H145	H	0.303357	-0.442613	0.464119
H146	H	0.297151	-0.455188	0.528386
H147	H	0.340192	-0.422021	0.473910
H148	H	0.219716	-0.378405	0.503937
H149	H	0.262750	-0.345237	0.449456
H150	H	0.028745	0.013321	0.444270
O151	O	0.027193	-0.464011	0.437063
C152	C	-0.021150	-0.453347	0.423327
H153	H	-0.025898	-0.497690	0.436496
H154	H	-0.063946	-0.424593	0.449015
C155	C	-0.003900	-0.366177	0.339660
C156	C	-0.009729	-0.420640	0.355829
H157	H	0.003143	-0.345999	0.298025
H158	H	0.028668	-0.373359	0.348915
H159	H	-0.039565	-0.342222	0.361071
H160	H	0.025938	-0.444596	0.334424
H161	H	-0.042291	-0.413461	0.346569
O162	O	0.693034	-0.733557	0.518068
C163	C	0.641599	-0.713009	0.504030
H164	H	0.605649	-0.675952	0.523319
H165	H	0.653182	-0.694988	0.453475
C166	C	0.662485	-0.810479	0.507241
C167	C	0.618328	-0.764968	0.530937
H168	H	0.648131	-0.842529	0.523835
H169	H	0.697139	-0.824322	0.516696
H170	H	0.672133	-0.795454	0.465113
H171	H	0.608686	-0.779991	0.573063
H172	H	0.583672	-0.751128	0.521489
O173	O	0.693153	-0.499684	0.589826
C174	C	0.744531	-0.483578	0.548873
H175	H	0.780481	-0.521812	0.531349
H176	H	0.732855	-0.442001	0.510027
C177	C	0.723712	-0.423540	0.601809
C178	C	0.767868	-0.470502	0.580290
H179	H	0.738106	-0.415471	0.621186
H180	H	0.689096	-0.434389	0.629398
H181	H	0.713986	-0.388898	0.569433
H182	H	0.777588	-0.505145	0.612666
H183	H	0.802486	-0.459658	0.552706
O184	O	0.096697	-0.432163	0.781424
C185	C	0.038012	-0.423296	0.822423
H186	H	0.038149	-0.460980	0.866967
H187	H	0.020108	-0.378775	0.829077
C188	C	-0.002258	-0.376561	0.743336
C189	C	-0.002090	-0.422849	0.798044
H190	H	-0.026996	-0.376283	0.728298
H191	H	0.037279	-0.382533	0.715714
H192	H	-0.017177	-0.339465	0.748889
H193	H	0.012836	-0.459944	0.792489
H194	H	-0.041625	-0.416883	0.825665
O195	O	0.098747	-0.769536	0.671297
C196	C	0.157422	-0.806567	0.649650
H197	H	0.173175	-0.790301	0.598798
H198	H	0.188305	-0.804926	0.664762
C199	C	0.139167	-0.891187	0.736738
C200	C	0.158514	-0.871211	0.674282
H201	H	0.139843	-0.931062	0.751934
H202	H	0.099638	-0.866238	0.751323
H203	H	0.164906	-0.889814	0.749323
H204	H	0.132772	-0.872577	0.661698
H205	H	0.198040	-0.896161	0.659695
H206	H	0.288361	-0.530376	0.786177
O207	O	0.257097	-0.573840	0.904371
C208	C	0.315779	-0.582672	0.863369
H209	H	0.315643	-0.575686	0.818824
H210	H	0.333675	-0.549402	0.856719
C211	C	0.356060	-0.655280	0.942449
C212	C	0.355893	-0.646704	0.887739
H213	H	0.380805	-0.694777	0.957481
H214	H	0.316525	-0.649328	0.970073
H215	H	0.370972	-0.627551	0.936899
H216	H	0.340974	-0.674428	0.893290
H217	H	0.395427	-0.652662	0.860116
O218	O	0.055688	-0.473303	0.697725
C219	C	0.040609	-0.525820	0.729190
H220	H	0.081800	-0.565086	0.717899
H221	H	0.023476	-0.534612	0.779212
C222	C	-0.058953	-0.470043	0.725107
C223	C	-0.008362	-0.518269	0.711236
H224	H	-0.089163	-0.465385	0.714034
H225	H	-0.048795	-0.434661	0.703910
H226	H	-0.073223	-0.477375	0.766792
H227	H	0.005911	-0.510933	0.669550
H228	H	-0.018519	-0.553651	0.732425
H229	H	0.103135	-0.437780	0.733124
H230	H	0.250475	-0.568133	0.602707
O231	O	0.693152	-0.734093	0.706597
C232	C	0.641766	-0.750165	0.733029
H233	H	0.605790	-0.711831	0.713309
H234	H	0.653413	-0.791612	0.723884
C235	C	0.662688	-0.810595	0.825114
C236	C	0.618499	-0.763511	0.800897
H237	H	0.648336	-0.818831	0.866978
H238	H	0.697309	-0.799769	0.807306
H239	H	0.672389	-0.845129	0.817487
H240	H	0.608803	-0.728977	0.808517
H241	H	0.583876	-0.774331	0.818707
H242	H	0.295144	-0.575796	0.721768
O243	O	0.297957	-0.532772	0.638066
C244	C	0.329328	-0.568924	0.601851
H245	H	0.299535	-0.591663	0.609841
H246	H	0.342753	-0.540071	0.552902
C247	C	0.422300	-0.588744	0.607808
C248	C	0.385710	-0.616676	0.617625
H249	H	0.457080	-0.618198	0.617536
H250	H	0.401165	-0.564386	0.632205
H251	H	0.433481	-0.564701	0.567017
H252	H	0.374524	-0.640712	0.658417
H253	H	0.406844	-0.641039	0.593236
O254	O	0.413528	-0.623152	0.685267
C255	C	0.475386	-0.632935	0.660513
H256	H	0.483903	-0.589924	0.624690
H257	H	0.493140	-0.647340	0.697089
C258	C	0.497005	-0.735093	0.676455
C259	C	0.507466	-0.682266	0.632453
H260	H	0.516795	-0.765524	0.659149
H261	H	0.455330	-0.728503	0.693134
H262	H	0.511801	-0.747088	0.706932
H263	H	0.492664	-0.670268	0.601981
H264	H	0.549140	-0.688855	0.615768
O265	O	0.215444	0.013713	0.436671
C266	C	0.260668	-0.037602	0.456843
H267	H	0.244407	-0.054937	0.507728
H268	H	0.271980	-0.073556	0.439754
C269	C	0.336725	-0.000381	0.370725
C270	C	0.316755	-0.021669	0.433224
H271	H	0.371323	0.009446	0.356154
H272	H	0.306257	0.034190	0.357134
H273	H	0.346147	-0.030346	0.356493
H274	H	0.307326	0.008299	0.447455
H275	H	0.347222	-0.056235	0.446817
O276	O	0.413365	-0.423795	0.609236
C277	C	0.398055	-0.381359	0.557725
H278	H	0.380866	-0.400616	0.543366
H279	H	0.361777	-0.339228	0.567949
C280	C	0.474666	-0.342251	0.524676
C281	C	0.453559	-0.365905	0.507038
H282	H	0.508903	-0.332716	0.493411
H283	H	0.484980	-0.370840	0.559382
H284	H	0.444429	-0.307145	0.533197
H285	H	0.483793	-0.401014	0.498525
H286	H	0.443252	-0.337322	0.472330
O287	O	0.206380	-0.266311	0.546816
C288	C	0.153852	-0.230145	0.531733
H289	H	0.116322	-0.248986	0.566971
H290	H	0.140693	-0.182780	0.529667
C291	C	0.211041	-0.206028	0.427164
C292	C	0.164948	-0.229172	0.470442
H293	H	0.217885	-0.205426	0.389357
H294	H	0.246430	-0.230392	0.437326
H295	H	0.200069	-0.166560	0.425451
H296	H	0.175923	-0.268642	0.472161
H297	H	0.129560	-0.204815	0.460279
H298	H	0.111630	-0.271286	0.741644
O299	O	0.147157	-0.389564	0.789070
C300	C	0.168528	-0.374287	0.815027
H301	H	0.207059	-0.357099	0.779440
H302	H	0.131035	-0.338015	0.834767
C303	C	0.143147	-0.450926	0.908495
C304	C	0.190475	-0.429819	0.864787
H305	H	0.156682	-0.485179	0.939191
H306	H	0.128747	-0.461217	0.891008
H307	H	0.111907	-0.420694	0.924938
H308	H	0.221711	-0.460048	0.848339
H309	H	0.204881	-0.419535	0.882272
H310	H	0.295112	-0.392340	0.651807
