data_functionalizedCrystal
_audit_creation_method	'MofGen! by Chris Wilmer'
_symmetry_space_group_name_H-M	'P1'
_symmetry_Int_Tables_number	1
_symmetry_cell_setting	triclinic
loop_
_symmetry_equiv_pos_as_xyz
  x,y,z
_cell_length_a	6.817900
_cell_length_b	10.773890
_cell_length_c	10.773894
_cell_angle_alpha	96.485539
_cell_angle_beta	96.645922
_cell_angle_gamma	96.645716
loop_
_atom_site_label
_atom_site_type_symbol
_atom_site_fract_x
_atom_site_fract_y
_atom_site_fract_z
V1	V	-3.915798	-0.168034	-0.386966
O2	O	-3.940463	0.012792	-0.381691
O3	O	-3.834375	-0.337720	-0.382308
O4	O	-3.834377	-0.163379	-0.556653
O5	O	-3.940461	-0.162756	-0.206139
V6	V	-4.407984	-0.146649	-0.365582
O7	O	-4.158054	-0.214942	-0.433873
O8	O	-4.615925	-0.099741	-0.318674
O9	O	-4.266200	0.023037	-0.370240
O10	O	-4.500717	-0.327476	-0.370857
O11	O	-4.500718	-0.151928	-0.546408
O12	O	-4.266199	-0.151304	-0.195895
C13	C	-3.672411	-0.379151	-0.375684
C14	C	-3.686905	-0.517858	-0.373007
C15	C	-3.672413	-0.156760	-0.598077
C16	C	-3.686907	-0.154077	-0.736783
C17	C	-3.864075	-0.585666	-0.377659
C18	C	-3.879059	-0.729028	-0.374892
C19	C	-3.864077	-0.158727	-0.804591
C20	C	-3.879061	-0.155954	-0.947951
C21	C	-4.091506	0.064461	-0.376860
C22	C	-4.056249	0.203167	-0.379545
C23	C	-4.091506	-0.157928	-0.154464
C24	C	-4.056251	-0.160604	-0.015757
H25	H	-4.004664	-0.537585	-0.383698
O26	O	-3.519295	-0.146711	-0.794249
C27	C	-3.312983	-0.028299	-0.918559
C28	C	-3.502893	-0.036501	-0.853566
H29	H	-3.299638	0.060812	-0.966510
H30	H	-3.321333	-0.114309	-0.991997
H31	H	-3.177295	-0.025293	-0.845196
H32	H	-3.638678	-0.039469	-0.926837
H33	H	-3.494368	0.049506	-0.780104
O34	O	-3.711343	-0.786396	-0.367473
C35	C	-3.505161	-0.910844	-0.249148
C36	C	-3.695125	-0.845907	-0.257380
H37	H	-3.492010	-0.958997	-0.160159
H38	H	-3.369352	-0.837536	-0.245989
H39	H	-3.513562	-0.984153	-0.335267
H40	H	-3.686919	-0.772605	-0.171284
H41	H	-3.830856	-0.919289	-0.260600
H42	H	-3.738459	-0.149911	-0.996027
H43	H	-4.196852	-0.748759	-0.385582
H44	H	-4.196855	-0.166643	-0.967683
O45	O	-3.519202	-0.575232	-0.365588
C46	C	-3.313020	-0.699680	-0.247263
C47	C	-3.502985	-0.634742	-0.255496
H48	H	-3.299869	-0.747833	-0.158274
H49	H	-3.177211	-0.626371	-0.244105
H50	H	-3.321422	-0.772989	-0.333382
H51	H	-3.494778	-0.561441	-0.169399
H52	H	-3.638715	-0.708125	-0.258716
O53	O	-4.031778	-0.166146	-0.747215
C54	C	-4.237957	-0.284472	-0.622767
C55	C	-4.047996	-0.276241	-0.687708
H56	H	-4.251108	-0.373463	-0.574617
H57	H	-4.373768	-0.287628	-0.696074
H58	H	-4.229550	-0.198356	-0.549456
H59	H	-4.056207	-0.362336	-0.761012
H60	H	-3.912263	-0.273024	-0.614328
