data_functionalizedCrystal
_audit_creation_method	'MofGen! by Chris Wilmer'
_symmetry_space_group_name_H-M	'P1'
_symmetry_Int_Tables_number	1
_symmetry_cell_setting	triclinic
loop_
_symmetry_equiv_pos_as_xyz
  x,y,z
_cell_length_a	11.792241
_cell_length_b	10.489741
_cell_length_c	10.268362
_cell_angle_alpha	89.995004
_cell_angle_beta	89.999626
_cell_angle_gamma	84.366295
loop_
_atom_site_label
_atom_site_type_symbol
_atom_site_fract_x
_atom_site_fract_y
_atom_site_fract_z
O1	O	1.507380	0.174833	-0.108173
O2	O	1.840714	0.508166	0.225160
O3	O	2.174047	0.841499	0.558494
O4	O	1.177088	0.192851	-0.108203
O5	O	1.510421	0.526184	0.225130
O6	O	1.843755	0.859518	0.558463
O7	O	1.349750	-0.001782	-0.108180
O8	O	1.683083	0.331552	0.225154
O9	O	2.016417	0.664885	0.558487
O10	O	1.334719	0.369465	-0.108197
O11	O	1.668052	0.702799	0.225137
O12	O	2.001385	1.036132	0.558470
O13	O	1.349735	-0.001790	0.108421
O14	O	1.683068	0.331544	0.441754
O15	O	2.016401	0.664877	0.775088
O16	O	1.177073	0.192843	0.108397
O17	O	1.510406	0.526176	0.441731
O18	O	1.843739	0.859509	0.775064
O19	O	1.507365	0.174825	0.108428
O20	O	1.840699	0.508158	0.441761
O21	O	2.174032	0.841491	0.775094
Cu22	Cu	1.342218	0.183833	0.128190
Cu23	Cu	1.675551	0.517166	0.461523
Cu24	Cu	2.008884	0.850500	0.794857
Cu25	Cu	1.342236	0.183843	-0.127965
Cu26	Cu	1.675569	0.517176	0.205368
Cu27	Cu	2.008902	0.850509	0.538701
O28	O	1.334703	0.369457	0.108404
O29	O	1.668037	0.702790	0.441737
O30	O	2.001370	1.036124	0.775071
C31	C	1.134786	0.191715	0.000093
C32	C	1.468120	0.525048	0.333427
C33	C	1.801453	0.858382	0.666760
C34	C	1.008764	0.188327	0.000082
C35	C	1.342097	0.521661	0.333415
C36	C	1.675430	0.854994	0.666749
C37	C	0.778035	0.182098	0.000120
C38	C	1.111368	0.515431	0.333453
C39	C	1.444701	0.848765	0.666786
C40	C	0.906429	0.185559	0.000099
C41	C	1.239762	0.518893	0.333432
C42	C	1.573096	0.852226	0.666766
C43	C	1.348607	-0.049314	0.000120
C44	C	1.681940	0.284020	0.333453
C45	C	2.015274	0.617353	0.666786
C46	C	1.345210	-0.190931	0.000117
C47	C	1.678544	0.142402	0.333450
C48	C	2.011877	0.475735	0.666784
C49	C	1.235351	-0.258697	0.000098
C50	C	1.568684	0.074636	0.333431
C51	C	1.902017	0.407969	0.666764
C52	C	1.287240	-0.351001	0.106898
C53	C	1.620573	-0.017667	0.440231
C54	C	1.953907	0.315666	0.773564
C55	C	1.287281	-0.350967	-0.106654
C56	C	1.620614	-0.017634	0.226680
C57	C	1.953948	0.315699	0.560013
C58	C	1.397145	-0.281370	0.107005
C59	C	1.730478	0.051964	0.440339
C60	C	2.063812	0.385297	0.773672
C61	C	1.397171	-0.281327	-0.106642
C62	C	1.730504	0.052007	0.226692
C63	C	2.063837	0.385340	0.560025
C64	C	1.449140	-0.373603	0.000184
C65	C	1.782473	-0.040269	0.333518
C66	C	2.115806	0.293064	0.666851
C67	C	1.549667	0.175960	0.000128
C68	C	1.883000	0.509294	0.333462
C69	C	2.216334	0.842627	0.666795
C70	C	1.675690	0.179348	0.000131
C71	C	2.009023	0.512681	0.333465
C72	C	2.342356	0.846015	0.666798
C73	C	1.335846	0.416989	0.000102
C74	C	1.669180	0.750322	0.333435
C75	C	2.002513	1.083656	0.666768
C76	C	1.339243	0.558607	0.000096
C77	C	1.672576	0.891940	0.333429
C78	C	2.005909	1.225274	0.666763
N79	N	1.342213	0.183825	0.308356
N80	N	1.675547	0.517159	0.641689
N81	N	2.008880	0.850492	0.975022
N82	N	1.342249	0.183840	-0.308131
N83	N	1.675582	0.517173	0.025202
N84	N	2.008916	0.850507	0.358535
C85	C	1.342230	0.183840	0.574026
C86	C	1.675563	0.517173	0.907360
C87	C	2.008897	0.850507	1.240693
C88	C	1.342217	0.183836	0.426188
C89	C	1.675550	0.517169	0.759522
C90	C	2.008884	0.850502	1.092855
H91	H	1.145025	-0.208738	0.000197
H92	H	1.478358	0.124595	0.333530
H93	H	1.811692	0.457928	0.666864
F94	F	1.457846	-0.241287	0.225154
F95	F	1.791179	0.092046	0.558487
F96	F	2.124513	0.425380	0.891821
H97	H	1.240749	-0.381857	0.197181
H98	H	1.574083	-0.048524	0.530514
H99	H	1.907416	0.284810	0.863848
H100	H	1.539547	-0.423335	0.000252
H101	H	1.872880	-0.090002	0.333585
H102	H	2.206214	0.243332	0.666919
F103	F	1.457887	-0.240949	-0.224655
F104	F	1.791220	0.092385	0.108678
F105	F	2.124554	0.425718	0.442011
F106	F	1.226506	-0.391256	-0.224665
F107	F	1.559840	-0.057922	0.108669
F108	F	1.893173	0.275411	0.442002
