data_functionalizedCrystal
_audit_creation_method	'MofGen! by Chris Wilmer'
_symmetry_space_group_name_H-M	'P1'
_symmetry_Int_Tables_number	1
_symmetry_cell_setting	triclinic
loop_
_symmetry_equiv_pos_as_xyz
  x,y,z
_cell_length_a	14.908993
_cell_length_b	16.120444
_cell_length_c	14.908294
_cell_angle_alpha	95.986824
_cell_angle_beta	96.371074
_cell_angle_gamma	96.051849
loop_
_atom_site_label
_atom_site_type_symbol
_atom_site_fract_x
_atom_site_fract_y
_atom_site_fract_z
Zn1	Zn	1.337642	-0.284423	-0.448593
Zn2	Zn	1.338595	-0.416138	-0.304903
Zn3	Zn	1.195014	-0.284463	-0.305974
Zn4	Zn	1.177566	-0.433266	-0.465930
O5	O	1.262204	-0.354572	-0.381350
O6	O	1.464850	-0.294711	-0.421829
O7	O	1.327250	-0.391519	-0.177968
O8	O	1.220836	-0.167060	-0.318085
O9	O	1.465550	-0.391481	-0.316260
O10	O	1.325624	-0.167031	-0.422867
O11	O	1.221761	-0.294778	-0.178754
O12	O	1.065618	-0.311386	-0.334896
O13	O	1.191099	-0.420673	-0.590708
O14	O	1.052799	-0.420711	-0.452415
O15	O	1.308706	-0.311319	-0.577970
O16	O	1.310332	-0.535807	-0.333071
O17	O	1.192024	-0.548391	-0.451377
C18	C	1.026257	-0.367912	-0.395654
C19	C	0.925316	-0.373641	-0.401796
C20	C	1.249412	-0.572539	-0.394007
C21	C	1.244020	-0.665783	-0.399447
C22	C	0.748931	-0.270413	-0.291117
C23	C	0.654088	-0.275792	-0.296885
C24	C	0.640784	-0.389782	-0.419094
C25	C	0.735627	-0.384403	-0.413326
C26	C	0.789698	-0.324715	-0.349337
C27	C	0.884543	-0.319332	-0.343574
C28	C	0.871237	-0.433326	-0.465778
C29	C	0.776394	-0.438705	-0.471546
C30	C	1.290383	-0.871790	-0.353311
C31	C	1.234193	-0.836494	-0.409388
C32	C	1.239662	-0.741501	-0.403855
C33	C	1.284915	-0.966791	-0.358843
C34	C	1.499072	-0.341181	-0.366991
C35	C	1.600011	-0.335474	-0.360872
C36	C	1.247850	-0.367902	-0.618210
C37	C	1.241733	-0.373582	-0.719146
C38	C	1.275070	-0.135754	-0.368662
C39	C	1.280553	-0.042507	-0.363255
C40	C	1.171883	-0.438513	-0.868042
C41	C	1.177628	-0.433182	-0.773205
C42	C	1.300095	-0.319308	-0.759931
C43	C	1.294350	-0.324639	-0.854768
C44	C	1.230243	-0.384244	-0.908821
C45	C	1.224502	-0.389579	-1.003660
C46	C	1.346965	-0.275701	-0.990385
C47	C	1.352710	-0.270370	-0.895547
C48	C	1.276558	-0.341231	-0.145405
C49	C	1.282865	-0.335304	-0.044445
H50	H	0.928566	-0.270727	-0.291475
Br51	Br	1.147163	-0.905033	-0.496332
H52	H	1.342593	-0.830670	-0.301149
Br53	Br	0.822317	-0.189402	-0.204287
Br54	Br	1.137504	-0.470473	-1.077017
Br55	Br	0.598764	-0.202097	-0.217865
Br56	Br	1.084893	-0.519411	-0.941403
Br57	Br	1.098418	-0.506831	-0.717864
H58	H	1.394487	-0.231513	-1.023596
H59	H	1.404902	-0.221840	-0.851525
H60	H	0.596744	-0.438384	-0.471183
H61	H	1.352284	-0.270776	-0.715905
H62	H	0.732357	-0.487303	-0.523642
H63	H	0.904439	-0.477539	-0.513189
