data_functionalizedCrystal
_audit_creation_method	'MofGen! by Chris Wilmer'
_symmetry_space_group_name_H-M	'P1'
_symmetry_Int_Tables_number	1
_symmetry_cell_setting	triclinic
loop_
_symmetry_equiv_pos_as_xyz
  x,y,z
_cell_length_a	12.827893
_cell_length_b	12.827892
_cell_length_c	12.827879
_cell_angle_alpha	89.937559
_cell_angle_beta	89.958596
_cell_angle_gamma	90.015363
loop_
_atom_site_label
_atom_site_type_symbol
_atom_site_fract_x
_atom_site_fract_y
_atom_site_fract_z
Zn1	Zn	1.597900	-0.415648	-0.590843
Zn2	Zn	1.597726	-0.590525	-0.416102
Zn3	Zn	1.423073	-0.415798	-0.416117
Zn4	Zn	1.423127	-0.590348	-0.590803
O5	O	1.510456	-0.503080	-0.503466
O6	O	1.744113	-0.438857	-0.567674
O7	O	1.574463	-0.567484	-0.269868
O8	O	1.446315	-0.269542	-0.439317
O9	O	1.743985	-0.567338	-0.439292
O10	O	1.574759	-0.269432	-0.567688
O11	O	1.446146	-0.439113	-0.269878
O12	O	1.276844	-0.438941	-0.439279
O13	O	1.446406	-0.567037	-0.737045
O14	O	1.276883	-0.567182	-0.567620
O15	O	1.574811	-0.438686	-0.737074
O16	O	1.574514	-0.736737	-0.439254
O17	O	1.446237	-0.736608	-0.567606
C18	C	1.238946	-0.503060	-0.503447
C19	C	1.122793	-0.503076	-0.503464
C20	C	0.951027	-0.439631	-0.567106
C21	C	1.071078	-0.439612	-0.567090
C22	C	1.510391	-0.774590	-0.503447
C23	C	1.510459	-0.890743	-0.503473
C24	C	1.573989	-0.942390	-0.567052
C25	C	1.574060	-1.062440	-0.567081
C26	C	1.783026	-0.503101	-0.503486
C27	C	1.899180	-0.503110	-0.503494
C28	C	1.510634	-0.502825	-0.776037
C29	C	1.510709	-0.502716	-0.892190
C30	C	1.510550	-0.230510	-0.503508
C31	C	1.510591	-0.114357	-0.503526
C32	C	1.510340	-0.503258	-0.231956
C33	C	1.510467	-0.503073	-0.115803
C34	C	1.573722	-0.438834	0.055739
C35	C	1.573593	-0.439025	-0.064311
H36	H	1.115665	-0.385261	-0.621545
F37	F	0.892884	-0.368619	-0.638314
H38	H	1.627762	-0.383998	0.100035
H39	H	0.943668	-0.557448	-0.449028
F40	F	1.064525	-0.574111	-0.432270
F41	F	1.440062	-0.574385	0.049917
H42	H	1.628323	-0.897732	-0.621468
H43	H	1.628454	-1.106856	-0.621510
H44	H	1.627544	-0.384337	-0.109090
F45	F	1.439498	-1.056313	-0.432369
H46	H	1.456116	-0.935403	-0.449068
F47	F	1.439953	-0.574569	-0.057285
