data_functionalizedCrystal
_audit_creation_method	'MofGen! by Chris Wilmer'
_symmetry_space_group_name_H-M	'P1'
_symmetry_Int_Tables_number	1
_symmetry_cell_setting	triclinic
loop_
_symmetry_equiv_pos_as_xyz
  x,y,z
_cell_length_a	16.120484
_cell_length_b	12.759395
_cell_length_c	12.759387
_cell_angle_alpha	89.982262
_cell_angle_beta	92.862335
_cell_angle_gamma	92.925231
loop_
_atom_site_label
_atom_site_type_symbol
_atom_site_fract_x
_atom_site_fract_y
_atom_site_fract_z
Zn1	Zn	-0.331855	1.584967	-0.615139
Zn2	Zn	0.168145	2.084967	-0.115139
Zn3	Zn	-0.471294	1.575920	-0.448352
Zn4	Zn	0.028706	2.075920	0.051648
Zn5	Zn	-0.331900	1.409268	-0.439482
Zn6	Zn	0.168100	1.909268	0.060518
Zn7	Zn	-0.471228	1.400319	-0.623990
Zn8	Zn	0.028772	1.900319	-0.123990
O9	O	-0.401569	1.492618	-0.531740
O10	O	0.098431	1.992618	-0.031740
O11	O	-0.350362	1.730788	-0.593022
O12	O	0.149638	2.230788	-0.093022
O13	O	-0.452850	1.553772	-0.300157
O14	O	0.047150	2.053772	0.199843
O15	O	-0.215229	1.440106	-0.455366
O16	O	0.284771	1.940106	0.044634
O17	O	-0.452807	1.724141	-0.470484
O18	O	0.047193	2.224141	0.029516
O19	O	-0.215196	1.569192	-0.584421
O20	O	0.284804	2.069192	-0.084421
O21	O	-0.350437	1.431333	-0.293640
O22	O	0.149563	1.931333	0.206360
O23	O	-0.350373	1.261060	-0.463949
O24	O	0.149627	1.761060	0.036051
O25	O	-0.452694	1.424854	-0.769834
O26	O	0.047306	1.924854	-0.269834
O27	O	-0.452737	1.254485	-0.599506
O28	O	0.047263	1.754485	-0.099506
O29	O	-0.350297	1.560514	-0.763331
O30	O	0.149703	2.060514	-0.263331
O31	O	-0.587951	1.545095	-0.479067
O32	O	-0.087951	2.045095	0.020933
O33	O	-0.587902	1.416081	-0.608107
O34	O	-0.087902	1.916081	-0.108107
C35	C	-0.401553	1.219652	-0.531726
C36	C	0.098447	1.719652	-0.031726
C37	C	-0.401566	1.102874	-0.531747
C38	C	0.098434	1.602874	-0.031747
C39	C	-0.295062	1.109766	-0.659573
C40	C	0.204938	1.609766	-0.159573
C41	C	-0.241820	1.058350	-0.723496
C42	C	0.258180	1.558350	-0.223496
C43	C	-0.241835	0.948627	-0.723510
C44	C	0.258165	1.448627	-0.223510
C45	C	-0.295096	0.890318	-0.659592
C46	C	0.204904	1.390318	-0.159592
C47	C	-0.348337	0.941734	-0.595670
C48	C	0.151663	1.441734	-0.095670
C49	C	-0.348319	1.051459	-0.595665
C50	C	0.151681	1.551459	-0.095665
C51	C	-0.454836	0.934843	-0.467839
C52	C	0.045164	1.434843	0.032161
C53	C	-0.454826	1.044565	-0.467829
C54	C	0.045174	1.544565	0.032171
C55	C	-0.508096	0.876533	-0.403921
C56	C	-0.008096	1.376533	0.096079
C57	C	-0.561343	0.927949	-0.340003
C58	C	-0.061343	1.427949	0.159997
C59	C	-0.561327	1.037678	-0.339992
C60	C	-0.061327	1.537678	0.160008
C61	C	-0.508068	1.095981	-0.403907
C62	C	-0.008068	1.595981	0.096093
C63	C	-0.618176	1.478664	-0.545533
C64	C	-0.118176	1.978664	-0.045533
C65	C	-0.710842	1.472790	-0.551468
C66	C	-0.210842	1.972790	-0.051468
C67	C	-0.880502	1.462072	-0.562327
C68	C	-0.380502	1.962072	-0.062327
C69	C	-0.921796	1.523353	-0.501171
C70	C	-0.421796	2.023353	-0.001171
C71	C	-1.016201	1.517390	-0.507213
C72	C	-0.516201	2.017390	-0.007213
C73	C	-0.786089	1.468034	-0.556287
C74	C	-0.286089	1.968034	-0.056287
C75	C	-0.184117	1.506656	-0.517917
C76	C	0.315883	2.006656	-0.017917
C77	C	-0.091451	1.512638	-0.512026
C78	C	0.408549	2.012638	-0.012026
C79	C	-0.401483	1.492695	-0.805768
C80	C	0.098517	1.992695	-0.305768
C81	C	-0.401447	1.492728	-0.922543
C82	C	0.098553	1.992728	-0.422543
C83	C	-0.401587	1.766651	-0.531755
C84	C	0.098413	2.266651	-0.031755
C85	C	-0.401594	1.883427	-0.531761
C86	C	0.098406	2.383427	-0.031761
C87	C	-0.294797	1.365242	-0.915775
C88	C	0.205203	1.865242	-0.415775
C89	C	-0.241456	1.301519	-0.967251
C90	C	0.258544	1.801519	-0.467251
C91	C	-0.241426	1.301552	-1.076971
C92	C	0.258574	1.801552	-0.576971
C93	C	-0.294744	1.365313	-1.135218
C94	C	0.205256	1.865313	-0.635218
C95	C	-0.348086	1.429036	-1.083742
C96	C	0.151914	1.929036	-0.583742
C97	C	-0.348108	1.428998	-0.974019
C98	C	0.151892	1.928998	-0.474019
C99	C	-0.454738	1.556515	-1.090510
C100	C	0.045262	2.056515	-0.590510
C101	C	-0.454765	1.556489	-0.980790
C102	C	0.045235	2.056489	-0.480790
C103	C	-0.508057	1.620276	-1.148756
C104	C	-0.008057	2.120276	-0.648756
C105	C	-0.561395	1.684006	-1.097280
C106	C	-0.061395	2.184006	-0.597280
C107	C	-0.561423	1.683970	-0.987553
C108	C	-0.061423	2.183970	-0.487553
C109	C	-0.508107	1.620211	-0.929314
C110	C	-0.008107	2.120211	-0.429314
C111	C	-0.401595	1.492606	-0.258774
C112	C	0.098405	1.992606	0.241226
C113	C	-0.401397	1.492792	-0.141986
C114	C	0.098603	1.992792	0.358014
H115	H	-0.295041	1.199108	-0.659563
H116	H	0.204959	1.699108	-0.159563
Cl117	Cl	-0.508112	0.738596	-0.403934
Cl118	Cl	-0.008112	1.238596	0.096066
Cl119	Cl	-0.508046	1.233919	-0.403903
Cl120	Cl	-0.008046	1.733919	0.096097
H121	H	-0.295096	0.800977	-0.659600
H122	H	0.204904	1.300977	-0.159600
H123	H	-0.294810	1.365217	-0.826435
H124	H	0.205190	1.865217	-0.326435
H125	H	-0.604700	0.880465	-0.287962
H126	H	-0.104700	1.380465	0.212038
Cl127	Cl	-0.866916	1.611265	-0.413324
Cl128	Cl	-0.366916	2.111265	0.086676
Cl129	Cl	-0.174897	0.883987	-0.803863
Cl130	Cl	0.325103	1.383987	-0.303863
Cl131	Cl	-0.628261	1.102306	-0.259623
Cl132	Cl	-0.128261	1.602306	0.240377
H133	H	-0.916048	1.405133	-0.619217
H134	H	-0.416048	1.905133	-0.119217
H135	H	-0.198047	1.249604	-0.919815
H136	H	0.301953	1.749604	-0.419815
Cl137	Cl	-0.174364	1.221449	-1.141687
Cl138	Cl	0.325636	1.721449	-0.641687
Cl139	Cl	-0.294719	1.365333	-1.273153
Cl140	Cl	0.205281	1.865333	-0.773153
H141	H	-0.508033	1.620293	-1.238096
H142	H	-0.008033	2.120293	-0.738096
H143	H	-0.604806	1.735910	-1.144713
H144	H	-0.104806	2.235910	-0.644713
H145	H	-0.604857	1.735865	-0.945648
H146	H	-0.104857	2.235865	-0.445648
H147	H	-0.198455	1.105837	-0.775534
H148	H	0.301545	1.605837	-0.275534
Cl149	Cl	-0.508133	1.620166	-0.791378
Cl150	Cl	-0.008133	2.120166	-0.291378
