data_functionalizedCrystal
_audit_creation_method	'MofGen! by Chris Wilmer'
_symmetry_space_group_name_H-M	'P1'
_symmetry_Int_Tables_number	1
_symmetry_cell_setting	triclinic
loop_
_symmetry_equiv_pos_as_xyz
  x,y,z
_cell_length_a	8.497365
_cell_length_b	11.169416
_cell_length_c	11.169417
_cell_angle_alpha	89.988781
_cell_angle_beta	90.031044
_cell_angle_gamma	89.951898
loop_
_atom_site_label
_atom_site_type_symbol
_atom_site_fract_x
_atom_site_fract_y
_atom_site_fract_z
Zn1	Zn	-0.891931	-0.477478	-1.835095
Zn2	Zn	-0.558597	-0.144144	-1.501762
Zn3	Zn	-0.225264	0.189189	-1.168429
Zn4	Zn	-0.628148	-0.678279	-1.834945
Zn5	Zn	-0.294815	-0.344945	-1.501612
Zn6	Zn	0.038518	-0.011612	-1.168279
Zn7	Zn	-0.628164	-0.477611	-1.634342
Zn8	Zn	-0.294831	-0.144278	-1.301008
Zn9	Zn	0.038502	0.189055	-0.967675
Zn10	Zn	-0.891887	-0.678121	-1.634389
Zn11	Zn	-0.558554	-0.344787	-1.301055
Zn12	Zn	-0.225220	-0.011454	-0.967722
O13	O	-0.760033	-0.577872	-1.734693
O14	O	-0.426699	-0.244539	-1.401359
O15	O	-0.093366	0.088795	-1.068026
O16	O	-0.856951	-0.504125	-2.003025
O17	O	-0.523617	-0.170791	-1.669692
O18	O	-0.190284	0.162542	-1.336358
O19	O	-0.407388	-0.651782	-1.808252
O20	O	-0.074054	-0.318448	-1.474919
O21	O	0.259279	0.014885	-1.141586
O22	O	-0.663179	-0.309644	-1.661015
O23	O	-0.329845	0.023689	-1.327682
O24	O	0.003488	0.357023	-0.994349
O25	O	-0.663151	-0.651652	-2.002915
O26	O	-0.329818	-0.318319	-1.669582
O27	O	0.003516	0.015014	-1.336248
O28	O	-0.856966	-0.309546	-1.808508
O29	O	-0.523633	0.023788	-1.475175
O30	O	-0.190300	0.357121	-1.141841
O31	O	-0.407400	-0.504352	-1.660870
O32	O	-0.074066	-0.171019	-1.327537
O33	O	0.259267	0.162314	-0.994203
O34	O	-0.663136	-0.504199	-1.466398
O35	O	-0.329803	-0.170866	-1.133065
O36	O	0.003530	0.162468	-0.799732
O37	O	-1.112656	-0.651383	-1.661095
O38	O	-0.779322	-0.318050	-1.327762
O39	O	-0.445989	0.015284	-0.994428
O40	O	-0.856892	-0.651512	-1.466433
O41	O	-0.523559	-0.318179	-1.133099
O42	O	-0.190226	0.015154	-0.799766
O43	O	-1.112687	-0.503971	-1.808553
O44	O	-0.779354	-0.170638	-1.475220
O45	O	-0.446021	0.162695	-1.141887
O46	O	-0.663109	-0.846207	-1.808298
O47	O	-0.329775	-0.512874	-1.474965
O48	O	0.003558	-0.179541	-1.141631
O49	O	-0.856877	-0.846091	-1.660950
O50	O	-0.523543	-0.512758	-1.327616
O51	O	-0.190210	-0.179425	-0.994283
C52	C	-0.760021	-0.889697	-1.734645
C53	C	-0.426687	-0.556363	-1.401312
C54	C	-0.093354	-0.223030	-1.067978
C55	C	-0.760068	-1.023097	-1.734735
C56	C	-0.426735	-0.689763	-1.401401
C57	C	-0.093402	-0.356430	-1.068068
C58	C	-0.760012	-0.577854	-1.422868
C59	C	-0.426679	-0.244521	-1.089535
C60	C	-0.093346	0.088813	-0.756201
C61	C	-0.760041	-0.577875	-1.289468
C62	C	-0.426708	-0.244542	-0.956135
C63	C	-0.093374	0.088792	-0.622801
C64	C	-0.350152	-0.578003	-1.734606
C65	C	-0.016819	-0.244670	-1.401273
C66	C	0.316514	0.088664	-1.067939
C67	C	-0.171509	-0.577757	-1.734777
C68	C	0.161824	-0.244423	-1.401444
C69	C	0.495158	0.088910	-1.068110
C70	C	-0.760054	-0.577891	-2.047735
C71	C	-0.426721	-0.244558	-1.714402
C72	C	-0.093387	0.088775	-1.381068
C73	C	-0.760063	-0.577899	-2.181135
C74	C	-0.426730	-0.244566	-1.847802
C75	C	-0.093396	0.088767	-1.514468
C76	C	-0.760079	-0.264830	-1.734773
C77	C	-0.426746	0.068504	-1.401440
C78	C	-0.093413	0.401837	-1.068107
C79	C	-0.760099	-0.131430	-1.734807
C80	C	-0.426766	0.201904	-1.401474
C81	C	-0.093432	0.535237	-1.068141
