data_functionalizedCrystal
_audit_creation_method	'MofGen! by Chris Wilmer'
_symmetry_space_group_name_H-M	'P1'
_symmetry_Int_Tables_number	1
_symmetry_cell_setting	triclinic
loop_
_symmetry_equiv_pos_as_xyz
  x,y,z
_cell_length_a	9.065218
_cell_length_b	14.971482
_cell_length_c	14.048226
_cell_angle_alpha	90.005902
_cell_angle_beta	90.013832
_cell_angle_gamma	84.314280
loop_
_atom_site_label
_atom_site_type_symbol
_atom_site_fract_x
_atom_site_fract_y
_atom_site_fract_z
O1	O	-0.192235	-1.188382	-0.079164
O2	O	0.307765	-0.688382	0.420836
O3	O	-0.215264	-0.928153	-0.079171
O4	O	0.284736	-0.428153	0.420829
O5	O	0.011002	-1.063646	-0.079143
O6	O	0.511002	-0.563646	0.420857
O7	O	-0.418501	-1.052889	-0.079192
O8	O	0.081499	-0.552889	0.420808
O9	O	0.011015	-1.063630	0.079178
O10	O	0.511015	-0.563630	0.579178
O11	O	-0.215251	-0.928136	0.079150
O12	O	0.284749	-0.428136	0.579150
O13	O	-0.192222	-1.188365	0.079157
O14	O	0.307778	-0.688365	0.579157
Zn15	Zn	-0.203734	-1.058248	0.104291
Zn16	Zn	0.296266	-0.558248	0.604291
Zn17	Zn	-0.203752	-1.058270	-0.104305
Zn18	Zn	0.296248	-0.558270	0.395695
O19	O	-0.418488	-1.052872	0.079129
O20	O	0.081512	-0.552872	0.579129
C21	C	0.065974	-1.062604	0.000022
C22	C	0.565974	-0.562604	0.500022
C23	C	0.229754	-1.059513	0.000034
C24	C	0.729754	-0.559513	0.500034
C25	C	-0.214229	-0.894812	-0.000011
C26	C	0.285771	-0.394812	0.499989
C27	C	-0.211145	-0.795492	-0.000012
C28	C	0.288855	-0.295492	0.499988
C29	C	-0.193257	-1.221706	-0.000005
C30	C	0.306743	-0.721706	0.499995
C31	C	-0.196341	-1.321026	-0.000010
C32	C	0.303659	-0.821026	0.499990
C33	C	0.526540	-1.053914	-0.000012
C34	C	1.026540	-0.553914	0.499988
C35	C	0.362760	-1.057005	0.000048
C36	C	0.862760	-0.557005	0.500048
N37	N	-0.203721	-1.058240	0.246651
N38	N	0.296279	-0.558240	0.746651
C39	C	-0.209686	-0.748827	0.086290
C40	C	0.290314	-0.248827	0.586290
C41	C	-0.206765	-0.655507	0.086291
C42	C	0.293235	-0.155507	0.586291
C43	C	-0.205314	-0.608852	-0.000010
C44	C	0.294686	-0.108852	0.499990
C45	C	-0.206770	-0.655524	-0.086319
C46	C	0.293230	-0.155524	0.413681
C47	C	-0.209680	-0.748843	-0.086320
C48	C	0.290320	-0.248843	0.413680
C49	C	-0.200708	-0.461017	-0.086312
C50	C	0.299292	0.038983	0.413688
C51	C	-0.197800	-0.367691	-0.086312
C52	C	0.302200	0.132309	0.413688
C53	C	-0.197793	-0.367681	0.086299
C54	C	0.302207	0.132319	0.586299
C55	C	-0.200703	-0.461000	0.086298
C56	C	0.299297	0.039000	0.586298
C57	C	-0.202161	-0.507665	-0.000011
C58	C	0.297839	-0.007665	0.499989
N59	N	-0.203753	-1.058285	-0.246665
N60	N	0.296247	-0.558285	0.253335
C61	C	-0.103572	-1.118256	0.296482
C62	C	0.396428	-0.618256	0.796482
C63	C	-0.103571	-1.118262	0.396139
C64	C	0.396429	-0.618262	0.896139
C65	C	-0.203728	-1.058255	0.445965
C66	C	0.296272	-0.558255	0.945965
C67	C	-0.303882	-0.998233	0.396127
C68	C	0.196118	-0.498233	0.896127
C69	C	-0.303874	-0.998223	0.296472
C70	C	0.196126	-0.498223	0.796472
C71	C	-0.303893	-0.998259	0.603842
C72	C	0.196107	-0.498259	1.103842
C73	C	-0.303902	-0.998270	0.703504
C74	C	0.196098	-0.498270	1.203504
C75	C	-0.103589	-1.118297	0.703509
C76	C	0.396411	-0.618297	1.203509
C77	C	-0.103582	-1.118287	0.603853
C78	C	0.396418	-0.618287	1.103853
C79	C	-0.203738	-1.058266	0.554023
C80	C	0.296262	-0.558266	1.054023
H81	H	-0.205552	-0.617519	0.156567
H82	H	0.294448	-0.117519	0.656567
N83	N	0.004468	-1.182961	0.242734
N84	N	0.504468	-0.682961	0.742734
H85	H	-0.052001	-1.223016	0.201362
H86	H	0.447999	-0.723016	0.701362
H87	H	0.067902	-1.220920	0.289479
H88	H	0.567902	-0.720920	0.789479
N89	N	0.004442	-1.183004	0.550107
N90	N	0.504442	-0.683004	1.050107
H91	H	-0.052046	-1.223054	0.508740
H92	H	0.447954	-0.723054	1.008740
H93	H	0.067868	-1.220967	0.596852
H94	H	0.567868	-0.720967	1.096852
H95	H	-0.205578	-0.617531	-0.156588
H96	H	0.294422	-0.117531	0.343412
N97	N	-0.211264	-0.799181	-0.179400
N98	N	0.288736	-0.299181	0.320600
H99	H	-0.121084	-0.844412	-0.183234
H100	H	0.378916	-0.344412	0.316766
H101	H	-0.209961	-0.755409	-0.234020
H102	H	0.290039	-0.255409	0.265980
H103	H	-0.022021	-1.167130	0.436711
H104	H	0.477979	-0.667130	0.936711
N105	N	-0.411920	-0.933557	0.757260
N106	N	0.088080	-0.433557	1.257260
H107	H	-0.516660	-0.944696	0.739896
H108	H	-0.016660	-0.444696	1.239896
H109	H	-0.394628	-0.869962	0.739928
H110	H	0.105372	-0.369962	1.239928
N111	N	0.004420	-1.183053	0.757242
N112	N	0.504420	-0.683053	1.257242
H113	H	0.109169	-1.171928	0.739920
H114	H	0.609169	-0.671928	1.239920
H115	H	-0.012917	-1.246629	0.739843
H116	H	0.487083	-0.746629	1.239843
N117	N	-0.411884	-0.933488	0.242721
N118	N	0.088116	-0.433488	0.742721
H119	H	-0.475336	-0.895475	0.289405
H120	H	0.024664	-0.395475	0.789405
H121	H	-0.477199	-0.968248	0.201349
H122	H	0.022801	-0.468248	0.701349
H123	H	-0.210879	-0.786806	0.156567
H124	H	0.289121	-0.286806	0.656567
H125	H	-0.201893	-0.498983	0.156573
H126	H	0.298107	0.001017	0.656573
N127	N	-0.196226	-0.317351	0.179389
N128	N	0.303774	0.182649	0.679389
H129	H	-0.196239	-0.251018	0.166297
H130	H	0.303761	0.248982	0.666297
H131	H	-0.104296	-0.339302	0.216511
H132	H	0.395704	0.160698	0.716511
N133	N	-0.411909	-0.933519	0.550093
N134	N	0.088091	-0.433519	1.050093
H135	H	-0.475364	-0.895508	0.596777
H136	H	0.024636	-0.395508	1.096777
H137	H	-0.477221	-0.968285	0.508724
H138	H	0.022779	-0.468285	1.008724
H139	H	-0.196620	-0.329707	-0.156587
H140	H	0.303380	0.170293	0.343413
H141	H	-0.201895	-0.499008	-0.156595
H142	H	0.298105	0.000992	0.343405
N143	N	-0.411907	-0.933516	0.449872
N144	N	0.088093	-0.433516	0.949872
H145	H	-0.516643	-0.944659	0.432504
H146	H	-0.016643	-0.444659	0.932504
H147	H	-0.394614	-0.869923	0.432530
H148	H	0.105386	-0.369923	0.932530
