data_functionalizedCrystal
_audit_creation_method	'MofGen! by Chris Wilmer'
_symmetry_space_group_name_H-M	'P1'
_symmetry_Int_Tables_number	1
_symmetry_cell_setting	triclinic
loop_
_symmetry_equiv_pos_as_xyz
  x,y,z
_cell_length_a	6.817900
_cell_length_b	12.200863
_cell_length_c	9.514088
_cell_angle_alpha	89.402400
_cell_angle_beta	118.843545
_cell_angle_gamma	107.143441
loop_
_atom_site_label
_atom_site_type_symbol
_atom_site_fract_x
_atom_site_fract_y
_atom_site_fract_z
V1	V	-4.236300	-0.160747	-0.500908
V2	V	-3.902966	0.172587	-0.167575
V3	V	-3.569633	0.505920	0.165758
O4	O	-4.200703	0.005632	-0.491205
O5	O	-3.867369	0.338965	-0.157872
O6	O	-3.534036	0.672299	0.175462
O7	O	-4.204774	-0.316721	-0.497644
O8	O	-3.871441	0.016612	-0.164311
O9	O	-3.538107	0.349946	0.169023
O10	O	-4.270895	-0.159192	-0.719298
O11	O	-3.937562	0.174141	-0.385965
O12	O	-3.604229	0.507474	-0.052631
O13	O	-4.134123	-0.152987	-0.268017
O14	O	-3.800790	0.180346	0.065317
O15	O	-3.467457	0.513679	0.398650
V16	V	-4.706987	-0.140737	-0.473033
V17	V	-4.373653	0.192596	-0.139700
V18	V	-4.040320	0.525929	0.193634
O19	O	-4.525715	-0.204639	-0.562055
O20	O	-4.192381	0.128695	-0.228722
O21	O	-3.859048	0.462028	0.104611
O22	O	-4.867769	-0.096845	-0.411886
O23	O	-4.534435	0.236488	-0.078553
O24	O	-4.201102	0.569821	0.254780
O25	O	-4.515306	0.015237	-0.476297
O26	O	-4.181972	0.348570	-0.142964
O27	O	-3.848639	0.681904	0.190369
O28	O	-4.859981	-0.307116	-0.482736
O29	O	-4.526647	0.026217	-0.149403
O30	O	-4.193314	0.359551	0.183930
O31	O	-4.926560	-0.148497	-0.705925
O32	O	-4.593226	0.184837	-0.372591
O33	O	-4.259893	0.518170	-0.039258
O34	O	-4.449184	-0.142292	-0.254643
O35	O	-4.115851	0.191041	0.078690
O36	O	-3.782518	0.524375	0.412023
C37	C	-4.051195	-0.354716	-0.489784
C38	C	-3.717861	-0.021382	-0.156450
C39	C	-3.384528	0.311951	0.176883
C40	C	-4.107259	-0.482233	-0.488570
C41	C	-3.773925	-0.148899	-0.155237
C42	C	-3.440592	0.184434	0.178096
C43	C	-4.135537	-0.153771	-0.772523
C44	C	-3.802204	0.179563	-0.439190
C45	C	-3.468870	0.512896	-0.105857
C46	C	-4.245218	-0.153532	-0.951059
C47	C	-3.911885	0.179802	-0.617726
C48	C	-3.578551	0.513135	-0.284393
C49	C	-4.209872	-0.715701	-0.486362
C50	C	-3.876539	-0.382367	-0.153029
C51	C	-3.543205	-0.049034	0.180305
C52	C	-4.152762	-0.585782	-0.487591
C53	C	-3.819429	-0.252449	-0.154258
C54	C	-3.486096	0.080884	0.179076
C55	C	-4.332226	0.053225	-0.484153
C56	C	-3.998893	0.386559	-0.150820
C57	C	-3.665560	0.719892	0.182513
C58	C	-4.255404	0.180741	-0.485377
C59	C	-3.922071	0.514075	-0.152044
C60	C	-3.588738	0.847408	0.181290
C61	C	-4.247882	-0.147717	-0.201410
C62	C	-3.914549	0.185616	0.131924
C63	C	-3.581215	0.518949	0.465257
C64	C	-4.117438	-0.147950	-0.022872
C65	C	-3.784105	0.185383	0.310461
C66	C	-3.450772	0.518716	0.643794
H67	H	-4.438541	-0.158130	-1.026171
H68	H	-4.105208	0.175203	-0.692838
H69	H	-3.771874	0.508537	-0.359505
H70	H	-3.924138	-0.143365	-0.947772
H71	H	-3.590804	0.189968	-0.614438
H72	H	-3.257471	0.523301	-0.281105
