data_functionalizedCrystal
_audit_creation_method	'MofGen! by Chris Wilmer'
_symmetry_space_group_name_H-M	'P1'
_symmetry_Int_Tables_number	1
_symmetry_cell_setting	triclinic
loop_
_symmetry_equiv_pos_as_xyz
  x,y,z
_cell_length_a	18.215399
_cell_length_b	12.759401
_cell_length_c	12.759399
_cell_angle_alpha	90.016641
_cell_angle_beta	90.024962
_cell_angle_gamma	90.017882
loop_
_atom_site_label
_atom_site_type_symbol
_atom_site_fract_x
_atom_site_fract_y
_atom_site_fract_z
Zn1	Zn	-0.416093	-1.606232	0.418234
Zn2	Zn	-0.082760	-1.272898	0.751568
Zn3	Zn	0.250574	-0.939565	1.084901
Zn4	Zn	-0.293033	-1.606131	0.593932
Zn5	Zn	0.040300	-1.272797	0.927265
Zn6	Zn	0.373634	-0.939464	1.260598
Zn7	Zn	-0.293044	-1.430540	0.418272
Zn8	Zn	0.040289	-1.097206	0.751605
Zn9	Zn	0.373622	-0.763873	1.084939
Zn10	Zn	-0.416062	-1.430521	0.593877
Zn11	Zn	-0.082729	-1.097188	0.927210
Zn12	Zn	0.250605	-0.763854	1.260543
O13	O	-0.354558	-1.518356	0.506079
O14	O	-0.021225	-1.185022	0.839412
O15	O	0.312109	-0.851689	1.172745
O16	O	-0.399777	-1.753239	0.441548
O17	O	-0.066443	-1.419906	0.774882
O18	O	0.266890	-1.086573	1.108215
O19	O	-0.190050	-1.582804	0.570669
O20	O	0.143283	-1.249471	0.904002
O21	O	0.476616	-0.916137	1.237336
O22	O	-0.309385	-1.453896	0.271246
O23	O	0.023949	-1.120562	0.604579
O24	O	0.357282	-0.787229	0.937913
O25	O	-0.309365	-1.753165	0.570632
O26	O	0.023968	-1.419832	0.903966
O27	O	0.357301	-1.086499	1.237299
O28	O	-0.399788	-1.582976	0.271218
O29	O	-0.066455	-1.249642	0.604552
O30	O	0.266879	-0.916309	0.937885
O31	O	-0.190059	-1.453798	0.441613
O32	O	0.143275	-1.120465	0.774946
O33	O	0.476608	-0.787131	1.108279
O34	O	-0.309355	-1.283516	0.441559
O35	O	0.023978	-0.950183	0.774892
O36	O	0.357312	-0.616850	1.108226
O37	O	-0.519050	-1.453864	0.570538
O38	O	-0.185717	-1.120530	0.903872
O39	O	0.147616	-0.787197	1.237205
O40	O	-0.399735	-1.283502	0.570575
O41	O	-0.066402	-0.950169	0.903908
O42	O	0.266931	-0.616836	1.237242
O43	O	-0.519073	-1.582958	0.441495
O44	O	-0.185740	-1.249624	0.774828
O45	O	0.147594	-0.916291	1.108161
O46	O	-0.309335	-1.582786	0.740945
O47	O	0.023998	-1.249452	1.074279
O48	O	0.357331	-0.916119	1.407612
O49	O	-0.399724	-1.453766	0.740905
O50	O	-0.066391	-1.120433	1.074238
O51	O	0.266942	-0.787099	1.407572
C52	C	-0.354543	-1.245388	0.506066
C53	C	-0.021210	-0.912055	0.839399
C54	C	0.312123	-0.578722	1.172732
C55	C	-0.354555	-1.128612	0.506086
C56	C	-0.021221	-0.795278	0.839419
C57	C	0.312112	-0.461945	1.172752
C58	C	-0.354541	-1.518291	0.779046
C59	C	-0.021208	-1.184958	1.112379
C60	C	0.312125	-0.851625	1.445713
C61	C	-0.354559	-1.518360	0.895823
C62	C	-0.021225	-1.185027	1.229156
C63	C	0.312108	-0.851693	1.562489
C64	C	-0.546511	-1.518420	0.506006
C65	C	-0.213178	-1.185086	0.839340
C66	C	0.120156	-0.851753	1.172673
C67	C	-0.628310	-1.518447	0.505975
C68	C	-0.294977	-1.185114	0.839309
C69	C	0.038357	-0.851780	1.172642
C70	C	-0.816517	-1.585690	0.438720
C71	C	-0.483184	-1.252357	0.772053
C72	C	-0.149850	-0.919024	1.105386
C73	C	-0.893376	-1.585703	0.438689
C74	C	-0.560042	-1.252370	0.772022
C75	C	-0.226709	-0.919036	1.105356
C76	C	-0.893341	-1.451278	0.573069
C77	C	-0.560008	-1.117945	0.906402
C78	C	-0.226674	-0.784611	1.239735
C79	C	-0.816484	-1.451261	0.573093
C80	C	-0.483150	-1.117928	0.906427
C81	C	-0.149817	-0.784594	1.239760
C82	C	-0.778074	-1.518473	0.505920
C83	C	-0.444740	-1.185140	0.839254
C84	C	-0.111407	-0.851806	1.172587
C85	C	-0.931790	-1.518503	0.505865
C86	C	-0.598456	-1.185169	0.839198
C87	C	-0.265123	-0.851836	1.172532
C88	C	-1.015123	-1.518516	0.505832
C89	C	-0.681790	-1.185182	0.839166
C90	C	-0.348457	-0.851849	1.172499
C91	C	-0.694735	-1.518459	0.505951
C92	C	-0.361401	-1.185126	0.839285
C93	C	-0.028068	-0.851792	1.172618
C94	C	-0.163352	-1.518352	0.506075
C95	C	0.169981	-1.185019	0.839408
C96	C	0.503315	-0.851686	1.172742
C97	C	-0.081553	-1.518529	0.505810
C98	C	0.251780	-1.185195	0.839143
C99	C	0.585113	-0.851862	1.172477
C100	C	-0.354573	-1.792389	0.506092
C101	C	-0.021240	-1.459056	0.839426
C102	C	0.312093	-1.125722	1.172759
C103	C	-0.354580	-1.909166	0.506098
C104	C	-0.021246	-1.575832	0.839431
C105	C	0.312087	-1.242499	1.172765
C106	C	-0.401542	-1.073770	0.573366
C107	C	-0.068208	-0.740437	0.906700
C108	C	0.265125	-0.407104	1.240033
C109	C	-0.401556	-0.964046	0.573370
C110	C	-0.068223	-0.630713	0.906704
C111	C	0.265110	-0.297379	1.240037
C112	C	-0.307590	-0.964015	0.438810
C113	C	0.025743	-0.630682	0.772143
C114	C	0.359076	-0.297348	1.105477
C115	C	-0.307580	-1.073737	0.438801
C116	C	0.025753	-0.740404	0.772135
C117	C	0.359087	-0.407070	1.105468
C118	C	-0.354591	-1.518449	0.232045
C119	C	-0.021258	-1.185116	0.565379
C120	C	0.312076	-0.851782	0.898712
C121	C	-0.354605	-1.518489	0.115269
C122	C	-0.021272	-1.185155	0.448602
C123	C	0.312062	-0.851822	0.781935
C124	C	-0.307547	-1.585617	0.950671
C125	C	0.025787	-1.252284	1.284004
C126	C	0.359120	-0.918951	1.617337
C127	C	-0.307571	-1.585685	1.060395
C128	C	0.025762	-1.252351	1.393728
C129	C	0.359095	-0.919018	1.727061
C130	C	-0.401622	-1.451229	1.060413
C131	C	-0.068289	-1.117895	1.393746
C132	C	0.265044	-0.784562	1.727080
C133	C	-0.401601	-1.451167	0.950691
C134	C	-0.068267	-1.117834	1.284024
C135	C	0.265066	-0.784501	1.617357
H136	H	-0.924673	-1.640436	0.383966
H137	H	-0.591340	-1.307103	0.717299
H138	H	-0.258006	-0.973770	1.050632
C139	C	-0.453315	-1.377179	0.890354
C140	C	-0.119982	-1.043846	1.223687
C141	C	0.213351	-0.710512	1.557020
H142	H	-0.481328	-1.337160	0.938744
H143	H	-0.147994	-1.003827	1.272077
H144	H	0.185339	-0.670493	1.605411
H145	H	-0.485395	-1.417320	0.847484
H146	H	-0.152062	-1.083987	1.180817
H147	H	0.181271	-0.750654	1.514150
H148	H	-0.425122	-1.331398	0.847620
H149	H	-0.091788	-0.998065	1.180953
H150	H	0.241545	-0.664732	1.514286
C151	C	-0.255915	-0.903650	0.364815
C152	C	0.077419	-0.570316	0.698149
C153	C	0.410752	-0.236983	1.031482
H154	H	-0.262644	-0.830448	0.374464
H155	H	0.070690	-0.497115	0.707797
H156	H	0.404023	-0.163781	1.041130
H157	H	-0.266765	-0.921649	0.294242
H158	H	0.066568	-0.588316	0.627575
H159	H	0.399901	-0.254983	0.960908
H160	H	-0.206446	-0.921601	0.380109
H161	H	0.126887	-0.588267	0.713442
H162	H	0.460220	-0.254934	1.046776
H163	H	-0.269318	-1.118390	0.384007
H164	H	0.064016	-0.785057	0.717340
H165	H	0.397349	-0.451724	1.050673
H166	H	-0.439921	-1.396521	1.105100
H167	H	-0.106588	-1.063188	1.438433
H168	H	0.226746	-0.729854	1.771767
H169	H	-0.439819	-0.919399	0.628156
H170	H	-0.106486	-0.586066	0.961489
H171	H	0.226848	-0.252732	1.294822
H172	H	-0.785246	-1.640416	0.384020
H173	H	-0.451913	-1.307083	0.717353
H174	H	-0.118579	-0.973749	1.050687
H175	H	-0.924624	-1.396559	0.627761
H176	H	-0.591290	-1.063225	0.961094
H177	H	-0.257957	-0.729892	1.294427
H178	H	-0.269243	-1.640331	0.906000
H179	H	0.064090	-1.306998	1.239333
H180	H	0.397423	-0.973665	1.572666
H181	H	-0.439793	-1.118446	0.628151
H182	H	-0.106460	-0.785113	0.961484
H183	H	0.226873	-0.451779	1.294818
H184	H	-0.785182	-1.396517	0.627815
H185	H	-0.451849	-1.063184	0.961149
H186	H	-0.118515	-0.729850	1.294482
H187	H	-0.269291	-1.640454	1.105047
H188	H	0.064043	-1.307120	1.438381
H189	H	0.397376	-0.973787	1.771714
