data_functionalizedCrystal
_audit_creation_method	'MofGen! by Chris Wilmer'
_symmetry_space_group_name_H-M	'P1'
_symmetry_Int_Tables_number	1
_symmetry_cell_setting	triclinic
loop_
_symmetry_equiv_pos_as_xyz
  x,y,z
_cell_length_a	11.792241
_cell_length_b	17.699083
_cell_length_c	16.776229
_cell_angle_alpha	89.999799
_cell_angle_beta	90.002923
_cell_angle_gamma	96.261785
loop_
_atom_site_label
_atom_site_type_symbol
_atom_site_fract_x
_atom_site_fract_y
_atom_site_fract_z
O1	O	-1.505669	0.103738	-0.066199
O2	O	-1.005669	0.603738	0.433801
O3	O	-1.175200	0.114429	-0.066216
O4	O	-0.675200	0.614429	0.433784
O5	O	-1.349771	-0.001056	-0.066215
O6	O	-0.849771	0.498944	0.433785
O7	O	-1.331098	0.219223	-0.066200
O8	O	-0.831098	0.719223	0.433800
O9	O	-1.349748	-0.001063	0.066362
O10	O	-0.849748	0.498937	0.566362
O11	O	-1.175177	0.114422	0.066361
O12	O	-0.675177	0.614422	0.566361
O13	O	-1.505646	0.103731	0.066378
O14	O	-1.005646	0.603731	0.566378
Zn15	Zn	-1.340408	0.109075	0.087419
Zn16	Zn	-0.840408	0.609075	0.587419
Zn17	Zn	-1.340438	0.109085	-0.087257
Zn18	Zn	-0.840438	0.609085	0.412743
O19	O	-1.331075	0.219216	0.066377
O20	O	-0.831075	0.719216	0.566377
C21	C	-1.132906	0.113754	0.000070
C22	C	-0.632906	0.613754	0.500070
C23	C	-1.006916	0.111744	0.000063
C24	C	-0.506916	0.611744	0.500063
C25	C	-1.547941	0.104406	0.000090
C26	C	-1.047941	0.604406	0.500090
C27	C	-1.673930	0.106416	0.000092
C28	C	-1.173930	0.606416	0.500092
C29	C	-1.331756	0.247420	0.000090
C30	C	-0.831756	0.747420	0.500090
C31	C	-1.333763	0.331449	0.000096
C32	C	-0.833763	0.831449	0.500096
C33	C	-0.776248	0.108048	0.000085
C34	C	-0.276248	0.608048	0.500085
C35	C	-0.904609	0.110101	0.000073
C36	C	-0.404609	0.610101	0.500073
C37	C	-1.349091	-0.029260	0.000070
C38	C	-0.849091	0.470740	0.500070
C39	C	-1.347083	-0.113289	0.000059
C40	C	-0.847083	0.386711	0.500059
N41	N	-1.340396	0.109068	0.206630
N42	N	-0.840396	0.609068	0.706630
C43	C	-1.231293	0.379523	0.000091
C44	C	-0.731293	0.879523	0.500091
C45	C	-1.233186	0.458477	0.000082
C46	C	-0.733186	0.958477	0.500082
C47	C	-1.337550	0.489354	0.000084
C48	C	-0.837550	0.989354	0.500084
C49	C	-1.440027	0.441273	0.000086
C50	C	-0.940027	0.941273	0.500086
C51	C	-1.438133	0.362321	0.000090
C52	C	-0.938133	0.862321	0.500090
C53	C	-1.447668	0.759677	0.000071
C54	C	-0.947668	1.259677	0.500071
C55	C	-1.449554	0.838635	0.000070
C56	C	-0.949554	1.338635	0.500070
C57	C	-1.242721	0.855832	0.000063
C58	C	-0.742721	1.355832	0.500063
C59	C	-1.240827	0.776881	0.000066
C60	C	-0.740827	1.276881	0.500066
C61	C	-1.343304	0.728807	0.000065
C62	C	-0.843304	1.228807	0.500065
C63	C	-1.341250	0.643196	0.000074
C64	C	-0.841250	1.143196	0.500074
C65	C	-1.339605	0.574962	0.000081
C66	C	-0.839605	1.074962	0.500081
N67	N	-1.340460	0.109086	-0.206468
N68	N	-0.840460	0.609086	0.293532
C69	C	-1.417719	0.057953	0.248348
C70	C	-0.917719	0.557953	0.748348
C71	C	-1.417725	0.057952	0.331800
C72	C	-0.917725	0.557952	0.831800
C73	C	-1.340413	0.109071	0.373533
C74	C	-0.840413	0.609071	0.873533
C75	C	-1.263081	0.160189	0.331809
C76	C	-0.763081	0.660189	0.831809
C77	C	-1.263070	0.160185	0.248359
C78	C	-0.763070	0.660185	0.748359
C79	C	-1.263122	0.160204	0.668357
C80	C	-0.763122	0.660204	1.168357
C81	C	-1.263141	0.160205	0.751813
C82	C	-0.763141	0.660205	1.251813
C83	C	-1.417777	0.057971	0.751798
C84	C	-0.917777	0.557971	1.251798
C85	C	-1.417766	0.057967	0.668347
C86	C	-0.917766	0.557967	1.168347
C87	C	-1.340431	0.109082	0.626631
C88	C	-0.840431	0.609082	1.126631
C89	C	-1.340424	0.109081	0.536142
C90	C	-0.840424	0.609081	1.036142
C91	C	-1.340425	0.109076	0.464020
C92	C	-0.840425	0.609076	0.964020
H93	H	-1.146309	0.354390	0.000099
H94	H	-0.646309	0.854390	0.500099
H95	H	-1.200104	0.201808	0.214393
H96	H	-0.700104	0.701808	0.714393
H97	H	-1.200155	0.201825	0.634398
H98	H	-0.700155	0.701825	1.134398
F99	F	-1.560638	0.871494	0.000070
F100	F	-1.060638	1.371494	0.500070
H101	H	-1.149745	0.497617	0.000075
H102	H	-0.649745	0.997617	0.500075
H103	H	-1.480687	0.016329	0.365766
H104	H	-0.980687	0.516329	0.865766
H105	H	-1.531111	0.720544	0.000075
H106	H	-1.031111	1.220544	0.500075
F107	F	-1.180849	0.214615	0.796227
F108	F	-0.680849	0.714615	1.296227
H109	H	-1.525002	0.466419	0.000089
H110	H	-1.025002	0.966419	0.500089
H111	H	-1.155844	0.751745	0.000069
H112	H	-0.655844	1.251745	0.500069
H113	H	-1.200126	0.201809	0.365793
H114	H	-0.700126	0.701809	0.865793
F115	F	-1.133655	0.907003	0.000060
F116	F	-0.633655	1.407003	0.500060
F117	F	-1.547196	0.311156	0.000092
F118	F	-1.047196	0.811156	0.500092
F119	F	-1.500013	0.003547	0.203940
F120	F	-1.000013	0.503547	0.703940
H121	H	-1.480725	0.016344	0.634371
H122	H	-0.980725	0.516344	1.134371
F123	F	-1.500082	0.003566	0.796201
F124	F	-1.000082	0.503566	1.296201
