data_functionalizedCrystal
_audit_creation_method	'MofGen! by Chris Wilmer'
_symmetry_space_group_name_H-M	'P1'
_symmetry_Int_Tables_number	1
_symmetry_cell_setting	triclinic
loop_
_symmetry_equiv_pos_as_xyz
  x,y,z
_cell_length_a	17.640112
_cell_length_b	17.640280
_cell_length_c	17.640618
_cell_angle_alpha	65.681691
_cell_angle_beta	92.134647
_cell_angle_gamma	92.184069
loop_
_atom_site_label
_atom_site_type_symbol
_atom_site_fract_x
_atom_site_fract_y
_atom_site_fract_z
Zn1	Zn	1.251373	-0.023070	-0.189703
Zn2	Zn	1.251300	-0.188752	-0.024070
Zn3	Zn	1.106803	-0.075309	-0.076161
Zn4	Zn	1.148413	-0.178178	-0.179121
O5	O	1.189472	-0.116327	-0.117264
O6	O	1.354926	-0.027611	-0.150359
O7	O	1.214687	-0.199991	0.081427
O8	O	1.108597	0.044010	-0.117451
O9	O	1.354872	-0.149336	-0.028669
O10	O	1.214813	0.082390	-0.200870
O11	O	1.108526	-0.116645	0.043156
O12	O	1.008760	-0.106392	-0.107191
O13	O	1.179515	-0.131315	-0.292932
O14	O	1.039331	-0.181970	-0.182836
O15	O	1.255160	-0.017358	-0.300706
O16	O	1.255035	-0.299739	-0.018409
O17	O	1.179444	-0.291970	-0.132325
C18	C	0.997193	-0.148703	-0.149518
C19	C	0.914941	-0.162568	-0.163331
C20	C	0.564744	-0.010979	-0.012337
C21	C	0.487460	-0.024021	-0.025324
C22	C	0.519342	-0.102903	-0.103882
C23	C	0.596630	-0.089864	-0.090906
C24	C	0.619324	-0.043902	-0.045132
C25	C	0.651211	-0.122787	-0.123701
C26	C	0.728492	-0.109752	-0.110721
C27	C	0.751193	-0.063795	-0.064947
C28	C	0.696606	-0.030867	-0.032153
C29	C	0.628515	-0.168753	-0.169469
C30	C	0.683096	-0.201676	-0.202264
C31	C	0.760379	-0.188637	-0.189290
C32	C	0.783079	-0.142679	-0.143516
C33	C	0.814966	-0.221564	-0.222084
C34	C	0.892247	-0.208530	-0.209105
C35	C	0.860361	-0.129645	-0.130536
C36	C	1.221770	-0.324988	-0.068580
C37	C	1.235658	-0.414237	-0.047769
C38	C	1.084309	-0.687782	-0.275607
C39	C	1.097357	-0.771650	-0.256026
C40	C	1.176145	-0.779640	-0.137499
C41	C	1.163106	-0.695770	-0.157073
C42	C	1.117187	-0.649848	-0.226127
C43	C	1.195984	-0.657835	-0.107593
C44	C	1.182943	-0.573973	-0.127163
C45	C	1.137024	-0.528046	-0.196213
C46	C	1.104146	-0.565986	-0.245697
C47	C	1.241899	-0.703760	-0.038536
C48	C	1.274777	-0.665826	0.010944
C49	C	1.261740	-0.581961	-0.008629
C50	C	1.215821	-0.536033	-0.077679
C51	C	1.294619	-0.544021	0.040855
C52	C	1.281578	-0.460159	0.021285
C53	C	1.202780	-0.452172	-0.097249
C54	C	1.382502	-0.083826	-0.084884
C55	C	1.464760	-0.069976	-0.071085
C56	C	1.221987	-0.067330	-0.326780
C57	C	1.235844	-0.046450	-0.416063
C58	C	1.157071	0.093156	-0.166151
C59	C	1.143264	0.182426	-0.186984
C60	C	1.294753	0.042305	-0.545953
C61	C	1.281729	0.022679	-0.462057
C62	C	1.202961	-0.095978	-0.453955
C63	C	1.215976	-0.076358	-0.537853
C64	C	1.261873	-0.007216	-0.583845
C65	C	1.183096	-0.125880	-0.575746
C66	C	1.196113	-0.106265	-0.659635
C67	C	1.242010	-0.037128	-0.705632
C68	C	1.274890	0.012399	-0.667735
C69	C	1.137203	-0.195025	-0.529751
C70	C	1.104323	-0.244547	-0.567643
C71	C	1.117335	-0.224929	-0.651536
C72	C	1.163232	-0.155791	-0.697533
C73	C	1.084455	-0.274455	-0.689433
C74	C	1.097472	-0.254840	-0.773323
C75	C	1.176249	-0.136176	-0.781422
C76	C	1.157117	-0.165069	0.091431
C77	C	1.143369	-0.185698	0.180685
H78	H	0.814121	-0.053185	-0.054378
H79	H	1.332117	0.098616	-0.583406
H80	H	1.126610	-0.210997	-0.461441
H81	H	0.878839	-0.092204	-0.093277
H82	H	0.443020	0.002799	0.001378
H83	H	1.312162	-0.703228	0.067170
H84	H	1.070698	-0.295166	-0.804175
H85	H	1.047092	-0.330755	-0.651972
Br86	Br	1.042037	-0.338380	-0.505219
Br87	Br	0.727412	0.031520	0.029960
H88	H	0.565586	-0.179364	-0.180035
Br89	Br	1.326362	0.089891	-0.410631
Br90	Br	1.052718	-0.823136	-0.323174
Br91	Br	1.238498	-0.042307	-0.843863
H92	H	1.312254	0.068709	-0.705188
H93	H	1.165594	-0.152275	-0.416497
H94	H	0.583222	0.026463	0.024922
Br95	Br	0.652289	-0.264066	-0.264368
Br96	Br	1.022000	-0.625447	-0.369333
H97	H	0.500853	-0.140328	-0.141149
Br98	Br	0.784156	-0.283961	-0.284180
H99	H	0.936689	-0.235338	-0.235811
Br100	Br	1.326186	-0.408675	0.088445
Br101	Br	1.140472	-0.389837	-0.190975
H102	H	1.252609	-0.021160	-0.773939
H103	H	1.066760	-0.528591	-0.301933
Br104	Br	1.238462	-0.841970	-0.043786
H105	H	1.126401	-0.459763	-0.212140
Br106	Br	1.356927	-0.606356	0.134574
H107	H	1.252517	-0.772045	-0.022606
