data_functionalizedCrystal
_audit_creation_method	'MofGen! by Chris Wilmer'
_symmetry_space_group_name_H-M	'P1'
_symmetry_Int_Tables_number	1
_symmetry_cell_setting	triclinic
loop_
_symmetry_equiv_pos_as_xyz
  x,y,z
_cell_length_a	13.897449
_cell_length_b	17.077404
_cell_length_c	17.077396
_cell_angle_alpha	90.019501
_cell_angle_beta	89.980317
_cell_angle_gamma	89.995339
loop_
_atom_site_label
_atom_site_type_symbol
_atom_site_fract_x
_atom_site_fract_y
_atom_site_fract_z
Zn1	Zn	0.384009	1.200155	0.443891
Zn2	Zn	0.884009	1.700155	0.943891
Zn3	Zn	0.545322	1.200105	0.312645
Zn4	Zn	1.045322	1.700105	0.812645
Zn5	Zn	0.384043	1.068887	0.312639
Zn6	Zn	0.884043	1.568887	0.812639
Zn7	Zn	0.545264	1.068897	0.443868
Zn8	Zn	1.045264	1.568897	0.943868
O9	O	0.464659	1.134511	0.378261
O10	O	0.964659	1.634511	0.878261
O11	O	0.405417	1.309995	0.426493
O12	O	0.905417	1.809995	0.926493
O13	O	0.523966	1.182673	0.202797
O14	O	1.023966	1.682673	0.702797
O15	O	0.249057	1.086317	0.330056
O16	O	0.749057	1.586317	0.830056
O17	O	0.523933	1.309958	0.330067
O18	O	1.023933	1.809958	0.830067
O19	O	0.249032	1.182759	0.426487
O20	O	0.749032	1.682759	0.926487
O21	O	0.405475	1.086268	0.202793
O22	O	0.905475	1.586268	0.702793
O23	O	0.405419	0.959042	0.330035
O24	O	0.905419	1.459042	0.830035
O25	O	0.523835	1.086334	0.553718
O26	O	1.023835	1.586334	1.053718
O27	O	0.523868	0.959049	0.426449
O28	O	1.023868	1.459049	0.926449
O29	O	0.405362	1.182769	0.553735
O30	O	0.905362	1.682769	1.053735
O31	O	0.680296	1.182683	0.330045
O32	O	1.180296	1.682683	0.830045
O33	O	0.680254	1.086285	0.426455
O34	O	1.180254	1.586285	0.926455
C35	C	0.464642	0.930563	0.378239
C36	C	0.964642	1.430563	0.878239
C37	C	0.464658	0.843313	0.378248
C38	C	0.964658	1.343313	0.878248
C39	C	0.213067	1.134543	0.378273
C40	C	0.713067	1.634543	0.878273
C41	C	0.105853	1.134556	0.378279
C42	C	0.605853	1.634556	0.878279
C43	C	0.526427	0.802348	0.428371
C44	C	1.026427	1.302348	0.928371
C45	C	0.526429	0.720367	0.428383
C46	C	1.026429	1.220367	0.928383
C47	C	0.464666	0.679354	0.378269
C48	C	0.964666	1.179354	0.878269
C49	C	0.402890	0.720325	0.328144
C50	C	0.902890	1.220325	0.828144
C51	C	0.402884	0.802304	0.328136
C52	C	0.902884	1.302304	0.828136
C53	C	0.402909	0.549455	0.328163
C54	C	0.902909	1.049455	0.828163
C55	C	0.402916	0.467471	0.328170
C56	C	0.902916	0.967471	0.828170
C57	C	0.526454	0.467518	0.428410
C58	C	1.026454	0.967518	0.928410
C59	C	0.526448	0.549497	0.428402
C60	C	1.026448	1.049497	0.928402
C61	C	0.464673	0.590463	0.378276
C62	C	0.964673	1.090463	0.878276
C63	C	0.018783	1.134565	0.378286
C64	C	0.518783	1.634565	0.878286
C65	C	-0.090450	1.134569	0.378292
C66	C	0.409550	1.634569	0.878292
C67	C	0.715274	1.134501	0.378265
C68	C	1.215274	1.634501	0.878265
C69	C	0.822488	1.134568	0.378294
C70	C	1.322488	1.634568	0.878294
C71	C	0.464588	1.134559	0.583005
C72	C	0.964588	1.634559	1.083005
C73	C	0.464558	1.134579	0.670255
C74	C	0.964558	1.634579	1.170255
C75	C	0.464678	1.339255	0.378283
C76	C	0.964678	1.839255	0.878283
C77	C	0.464685	1.426505	0.378292
C78	C	0.964685	1.926505	0.878292
C79	C	0.464661	1.134509	0.174313
C80	C	0.964661	1.634509	0.674313
C81	C	0.464419	1.134641	0.087063
C82	C	0.964419	1.634641	0.587063
C83	C	0.402864	1.184794	0.711255
C84	C	0.902864	1.684794	1.211255
C85	C	0.402832	1.184804	0.793235
C86	C	0.902832	1.684804	1.293235
C87	C	0.464499	1.134601	0.834214
C88	C	0.964499	1.634601	1.334214
C89	C	0.526197	1.084380	0.793209
C90	C	1.026197	1.584380	1.293209
C91	C	0.526223	1.084367	0.711230
C92	C	1.026223	1.584367	1.211230
C93	C	0.526139	1.084412	0.964079
C94	C	1.026139	1.584412	1.464079
C95	C	0.526114	1.084425	1.046064
C96	C	1.026114	1.584425	1.546064
C97	C	0.402747	1.184848	1.046084
C98	C	0.902747	1.684848	1.546084
C99	C	0.402774	1.184835	0.964105
C100	C	0.902774	1.684835	1.464105
C101	C	0.464472	1.134615	0.923105
C102	C	0.964472	1.634615	1.423105
H103	H	0.576729	0.687017	0.469197
H104	H	1.076729	1.187017	0.969197
H105	H	0.576365	1.043505	0.930699
H106	H	1.076365	1.543505	1.430699
H107	H	0.576451	1.043469	0.677849
H108	H	1.076451	1.543469	1.177849
H109	H	0.352612	0.434080	0.287372
H110	H	0.852612	0.934080	0.787372
O111	O	0.336199	1.239013	1.090305
O112	O	0.836199	1.739013	1.590305
H113	H	0.293333	1.273927	1.048037
H114	H	0.793333	1.773927	1.548037
O115	O	0.593058	0.593738	0.482455
O116	O	1.093058	1.093738	0.982455
H117	H	0.636008	0.551481	0.517318
H118	H	1.136008	1.051481	1.017318
O119	O	0.336289	0.593639	0.274091
O120	O	0.836289	1.093639	0.774091
H121	H	0.260604	0.577909	0.287643
H122	H	0.760604	1.077909	0.787643
O123	O	0.592703	1.030227	0.837407
O124	O	1.092703	1.530227	1.337407
H125	H	0.668415	1.043669	0.821667
H126	H	1.168415	1.543669	1.321667
O127	O	0.593039	0.846583	0.482426
O128	O	1.093039	1.346583	0.982426
H129	H	0.635983	0.804321	0.517287
H130	H	1.135983	1.304321	1.017287
H131	H	0.576751	0.434160	0.469227
H132	H	1.076751	0.934160	0.969227
H133	H	0.352597	0.686926	0.287344
H134	H	0.852597	1.186926	0.787344
H135	H	0.352650	1.225677	0.677896
H136	H	0.852650	1.725677	1.177896
H137	H	0.352580	0.835658	0.287326
H138	H	0.852580	1.335658	0.787326
O139	O	0.336296	1.238969	0.837460
O140	O	0.836296	1.738969	1.337460
H141	H	0.293430	1.273883	0.795192
H142	H	0.793430	1.773883	1.295192
H143	H	0.352564	1.225719	0.930743
H144	H	0.852564	1.725719	1.430743
H145	H	0.576327	1.043544	1.079426
H146	H	1.076327	1.543544	1.579426
