data_functionalizedCrystal
_audit_creation_method	'MofGen! by Chris Wilmer'
_symmetry_space_group_name_H-M	'P1'
_symmetry_Int_Tables_number	1
_symmetry_cell_setting	triclinic
loop_
_symmetry_equiv_pos_as_xyz
  x,y,z
_cell_length_a	10.654550
_cell_length_b	10.723023
_cell_length_c	9.730223
_cell_angle_alpha	89.996605
_cell_angle_beta	89.999957
_cell_angle_gamma	84.476239
loop_
_atom_site_label
_atom_site_type_symbol
_atom_site_fract_x
_atom_site_fract_y
_atom_site_fract_z
O1	O	1.667812	0.175275	-0.114184
O2	O	1.302331	0.191974	-0.114209
O3	O	1.493503	0.002049	-0.114190
O4	O	1.476641	0.365199	-0.114203
O5	O	1.493490	0.002044	0.114390
O6	O	1.302319	0.191969	0.114371
O7	O	1.667800	0.175270	0.114396
Zn8	Zn	1.485057	0.183618	0.150675
Zn9	Zn	1.485074	0.183625	-0.150488
O10	O	1.476628	0.365194	0.114377
C11	C	1.255527	0.190745	0.000078
C12	C	1.116084	0.187077	0.000068
C13	C	1.036582	0.298901	0.000068
C14	C	0.905561	0.295447	0.000092
C15	C	0.933559	0.068334	0.000111
C16	C	1.064577	0.071789	0.000096
C17	C	1.492269	-0.044453	0.000098
C18	C	1.488599	-0.183008	0.000093
C19	C	1.486969	-0.244771	-0.118320
C20	C	1.483175	-0.387975	-0.118327
C21	C	1.714604	0.176498	0.000106
C22	C	1.854046	0.180167	0.000107
C23	C	1.477861	0.411696	0.000086
C24	C	1.481532	0.550251	0.000081
N25	N	1.485055	0.183613	0.356212
N26	N	1.485085	0.183621	-0.356025
C27	C	1.569735	0.099550	0.428146
C28	C	1.569748	0.099550	0.572029
C29	C	1.400397	0.267687	0.572031
C30	C	1.400379	0.267680	0.428151
H31	H	0.840835	0.386506	0.000095
O32	O	1.483392	-0.379405	0.134378
H33	H	1.568186	-0.414704	0.194159
H34	H	1.331457	0.336135	0.630618
H35	H	1.481779	-0.441091	-0.219705
H36	H	1.487178	-0.236147	0.101466
H37	H	1.638700	0.031098	0.630594
O38	O	1.150337	-0.048830	0.000109
H39	H	1.210703	-0.052688	-0.093052
O40	O	1.309046	0.358355	0.350548
H41	H	1.250182	0.416828	0.424741
H42	H	1.638682	0.031096	0.369577
O43	O	0.878006	-0.056009	0.000138
H44	H	0.818985	-0.063026	-0.093027
H45	H	1.488376	-0.191631	-0.219692
H46	H	1.078514	0.392775	0.000056
