data_functionalizedCrystal
_audit_creation_method	'MofGen! by Chris Wilmer'
_symmetry_space_group_name_H-M	'P1'
_symmetry_Int_Tables_number	1
_symmetry_cell_setting	triclinic
loop_
_symmetry_equiv_pos_as_xyz
  x,y,z
_cell_length_a	14.421503
_cell_length_b	15.944551
_cell_length_c	15.944551
_cell_angle_alpha	96.501262
_cell_angle_beta	89.996660
_cell_angle_gamma	89.996859
loop_
_atom_site_label
_atom_site_type_symbol
_atom_site_fract_x
_atom_site_fract_y
_atom_site_fract_z
O1	O	0.077017	-1.114529	0.108320
O2	O	0.410350	-0.781196	0.441654
O3	O	0.743684	-0.447863	0.774987
O4	O	0.077040	-0.869980	0.121677
O5	O	0.410374	-0.536646	0.455010
O6	O	0.743707	-0.203313	0.788343
O7	O	0.077020	-0.998933	-0.007276
O8	O	0.410353	-0.665599	0.326057
O9	O	0.743686	-0.332266	0.659390
O10	O	0.077038	-0.985576	0.237273
O11	O	0.410371	-0.652243	0.570607
O12	O	0.743704	-0.318910	0.903940
O13	O	-0.077204	-0.998911	-0.007257
O14	O	0.256130	-0.665578	0.326076
O15	O	0.589463	-0.332245	0.659410
O16	O	-0.077183	-0.869958	0.121696
O17	O	0.256150	-0.536625	0.455029
O18	O	0.589484	-0.203292	0.788363
O19	O	-0.077206	-1.114508	0.108340
O20	O	0.256127	-0.781175	0.441673
O21	O	0.589460	-0.447841	0.775006
Cu22	Cu	-0.091277	-0.992231	0.115020
Cu23	Cu	0.242057	-0.658898	0.448353
Cu24	Cu	0.575390	-0.325564	0.781686
Cu25	Cu	0.091110	-0.992256	0.114997
Cu26	Cu	0.424444	-0.658923	0.448330
Cu27	Cu	0.757777	-0.325590	0.781663
O28	O	-0.077186	-0.985555	0.237293
O29	O	0.256148	-0.652222	0.570626
O30	O	0.589481	-0.318888	0.903959
C31	C	-0.000069	-0.838675	0.121132
C32	C	0.333265	-0.505342	0.454465
C33	C	0.666598	-0.172008	0.787798
C34	C	-0.000060	-0.745429	0.119470
C35	C	0.333273	-0.412096	0.452803
C36	C	0.666607	-0.078762	0.786136
N37	N	-0.219558	-0.992219	0.115035
N38	N	0.113775	-0.658886	0.448368
N39	N	0.447109	-0.325553	0.781702
C40	C	-0.000092	-0.998367	-0.038561
C41	C	0.333241	-0.665034	0.294773
C42	C	0.666574	-0.331701	0.628106
C43	C	-0.000093	-0.996705	-0.131807
C44	C	0.333241	-0.663372	0.201527
C45	C	0.666574	-0.330038	0.534860
C46	C	-0.469202	-0.932581	0.174636
C47	C	-0.135869	-0.599248	0.507969
C48	C	0.197465	-0.265914	0.841303
C49	C	-0.531011	-1.008481	0.190943
C50	C	-0.197677	-0.675148	0.524277
C51	C	0.135656	-0.341814	0.857610
C52	C	-0.408719	-0.992240	0.115015
C53	C	-0.075386	-0.658907	0.448348
C54	C	0.257947	-0.325573	0.781682
C55	C	-0.531005	-0.916359	0.098727
C56	C	-0.197671	-0.583026	0.432061
C57	C	0.135662	-0.249693	0.765394
C58	C	-0.591441	-0.992253	0.114997
C59	C	-0.258107	-0.658920	0.448331
C60	C	0.075226	-0.325586	0.781664
C61	C	-0.469167	-1.068178	0.131360
C62	C	-0.135834	-0.734845	0.464693
C63	C	0.197500	-0.401512	0.798027
C64	C	-0.469156	-0.976007	0.039111
C65	C	-0.135822	-0.642673	0.372444
C66	C	0.197511	-0.309340	0.705778
C67	C	-0.530936	-1.051961	0.055386
C68	C	-0.197603	-0.718628	0.388719
C69	C	0.135730	-0.385295	0.722053
C70	C	-0.303458	-0.992231	0.115027
C71	C	0.029875	-0.658898	0.448360
C72	C	0.363208	-0.325565	0.781694
C73	C	-0.696700	-0.992270	0.114985
C74	C	-0.363366	-0.658937	0.448318
C75	C	-0.030033	-0.325604	0.781651
N76	N	0.219392	-0.992275	0.114975
N77	N	0.552725	-0.658941	0.448308
N78	N	0.886058	-0.325608	0.781641
C79	C	-0.000096	-1.145813	0.108885
C80	C	0.333238	-0.812479	0.442218
C81	C	0.666571	-0.479146	0.775551
C82	C	-0.000098	-1.239059	0.110547
C83	C	0.333235	-0.905725	0.443880
C84	C	0.666569	-0.572392	0.777214
C85	C	-0.000084	-0.530572	0.035565
C86	C	0.333249	-0.197239	0.368898
C87	C	0.666583	0.136094	0.702232
C88	C	0.075959	-0.469563	0.074518
C89	C	0.409292	-0.136229	0.407851
C90	C	0.742626	0.197104	0.741185
C91	C	-0.000071	-0.574703	0.116462
C92	C	0.333262	-0.241370	0.449796
C93	C	0.666596	0.091964	0.783129
C94	C	-0.076093	-0.469564	0.074556
C95	C	0.257240	-0.136230	0.407889
C96	C	0.590574	0.197103	0.741223
C97	C	-0.000086	-0.409790	0.113551
C98	C	0.333247	-0.076457	0.446885
C99	C	0.666581	0.256876	0.780218
C100	C	0.076035	-0.514922	0.155437
C101	C	0.409368	-0.181588	0.488771
C102	C	0.742702	0.151745	0.822104
C103	C	-0.076086	-0.514929	0.155464
C104	C	0.257248	-0.181596	0.488797
C105	C	0.590581	0.151737	0.822131
C106	C	-0.000024	-0.453937	0.194476
C107	C	0.333309	-0.120604	0.527809
C108	C	0.666643	0.212729	0.861143
C109	C	-0.000062	-0.669705	0.118137
C110	C	0.333272	-0.336372	0.451470
C111	C	0.666605	-0.003039	0.784803
C112	C	-0.000089	-0.314789	0.111883
C113	C	0.333245	0.018544	0.445217
C114	C	0.666578	0.351877	0.778550
C115	C	-0.000072	-0.912801	-0.346663
C116	C	0.333262	-0.579467	-0.013330
C117	C	0.666595	-0.246134	0.320003
C118	C	-0.076117	-0.951753	-0.407671
C119	C	0.257216	-0.618419	-0.074338
C120	C	0.590550	-0.285086	0.258996
C121	C	-0.000085	-0.993698	-0.302533
C122	C	0.333248	-0.660365	0.030801
C123	C	0.666582	-0.327031	0.364134
C124	C	0.075935	-0.951793	-0.407674
C125	C	0.409269	-0.618459	-0.074340
C126	C	0.742602	-0.285126	0.258993
C127	C	-0.000074	-0.990787	-0.467445
C128	C	0.333259	-0.657454	-0.134112
C129	C	0.666593	-0.324120	0.199221
C130	C	-0.076193	-1.032672	-0.362312
C131	C	0.257140	-0.699339	-0.028979
C132	C	0.590474	-0.366005	0.304355
C133	C	0.075927	-1.032701	-0.362308
C134	C	0.409261	-0.699367	-0.028975
C135	C	0.742594	-0.366034	0.304359
C136	C	-0.000136	-1.071711	-0.423298
C137	C	0.333197	-0.738378	-0.089965
C138	C	0.666530	-0.405045	0.243368
C139	C	-0.000092	-0.995372	-0.207530
C140	C	0.333241	-0.662039	0.125803
C141	C	0.666574	-0.328706	0.459136
C142	C	-0.000073	-0.989119	-0.562446
C143	C	0.333260	-0.655785	-0.229113
C144	C	0.666593	-0.322452	0.104220
C145	C	-0.000072	-0.986120	0.268577
C146	C	0.333261	-0.652787	0.601910
C147	C	0.666595	-0.319453	0.935244
C148	C	-0.000066	-0.987782	0.361823
C149	C	0.333268	-0.654449	0.695156
C150	C	0.666601	-0.321116	1.028490
H151	H	-0.442096	-0.882181	0.225096
H152	H	-0.108763	-0.548848	0.558429
H153	H	0.224571	-0.215514	0.891763
H154	H	0.140243	-0.449461	0.040294
H155	H	0.473577	-0.116128	0.373627
H156	H	0.806910	0.217205	0.706961
H157	H	0.140394	-0.534918	0.189620
H158	H	0.473727	-0.201585	0.522953
H159	H	0.807060	0.131748	0.856287
Br160	Br	0.183078	-1.089699	-0.328767
Br161	Br	0.516411	-0.756366	0.004566
Br162	Br	0.849744	-0.423032	0.337900
H163	H	-0.557872	-1.102474	0.004956
H164	H	-0.224539	-0.769140	0.338289
H165	H	0.108794	-0.435807	0.671623
Br166	Br	0.000049	-0.398667	0.306490
Br167	Br	0.333383	-0.065333	0.639824
Br168	Br	0.666716	0.268000	0.973157
H169	H	-0.140554	-1.066850	-0.342314
H170	H	0.192779	-0.733517	-0.008980
H171	H	0.526113	-0.400184	0.324353
H172	H	0.140230	-0.917575	-0.427758
H173	H	0.473563	-0.584242	-0.094425
H174	H	0.806897	-0.250908	0.238908
H175	H	-0.140379	-0.449469	0.040333
H176	H	0.192954	-0.116135	0.373666
H177	H	0.526287	0.217198	0.707000
Br178	Br	-0.576294	-1.031390	0.297917
Br179	Br	-0.242961	-0.698057	0.631250
Br180	Br	0.090372	-0.364723	0.964583
Br181	Br	-0.576283	-0.809397	0.075777
Br182	Br	-0.242950	-0.476064	0.409111
Br183	Br	0.090383	-0.142731	0.742444
Br184	Br	-0.183236	-0.548471	0.212462
Br185	Br	0.150097	-0.215138	0.545795
Br186	Br	0.483431	0.118196	0.879129
Br187	Br	-0.423832	-0.953064	-0.067833
Br188	Br	-0.090499	-0.619730	0.265501
Br189	Br	0.242834	-0.286397	0.598834
H190	H	-0.442119	-1.132368	0.145205
H191	H	-0.108785	-0.799035	0.478539
H192	H	0.224548	-0.465702	0.811872
H193	H	0.000005	-0.563905	-0.031573
H194	H	0.333338	-0.230572	0.301760
H195	H	0.666672	0.102762	0.635094
H196	H	-0.000141	-0.845652	-0.313356
H197	H	0.333192	-0.512319	0.019978
H198	H	0.666525	-0.178986	0.353311
Br199	Br	-0.000212	-1.183726	-0.478568
Br200	Br	0.333121	-0.850393	-0.145235
Br201	Br	0.666455	-0.517060	0.188099
Br202	Br	-0.183263	-0.894713	-0.441172
Br203	Br	0.150070	-0.561379	-0.107839
Br204	Br	0.483403	-0.228046	0.225494
