data_functionalizedCrystal
_audit_creation_method	'MofGen! by Chris Wilmer'
_symmetry_space_group_name_H-M	'P1'
_symmetry_Int_Tables_number	1
_symmetry_cell_setting	triclinic
loop_
_symmetry_equiv_pos_as_xyz
  x,y,z
_cell_length_a	19.851628
_cell_length_b	16.704486
_cell_length_c	16.704493
_cell_angle_alpha	60.347015
_cell_angle_beta	94.163433
_cell_angle_gamma	57.661741
loop_
_atom_site_label
_atom_site_type_symbol
_atom_site_fract_x
_atom_site_fract_y
_atom_site_fract_z
Zr1	Zr	0.580366	0.947639	-0.174363
O2	O	0.453150	1.128220	-0.315665
O3	O	0.627571	0.767047	-0.121929
O4	O	0.605507	0.947645	-0.302529
O5	O	0.483283	0.947622	-0.002976
O6	O	0.716354	0.947661	-0.302537
O7	O	0.475214	0.947623	-0.135066
O8	O	0.755823	0.624605	0.020522
O9	O	0.443815	1.270678	-0.326036
O10	O	0.720513	0.841344	-0.110588
O11	O	0.643811	0.841331	-0.012005
O12	O	0.617834	1.053961	-0.224638
O13	O	0.541132	1.053948	-0.126054
Zr14	Zr	0.770025	0.947665	0.036291
Zr15	Zr	0.757155	0.947666	-0.174376
Zr16	Zr	0.593236	0.947638	0.036305
Zr17	Zr	0.565478	1.174843	-0.190903
Zr18	Zr	0.784913	0.720461	0.052831
O19	O	0.722820	1.128257	-0.016143
O20	O	0.704520	1.128258	-0.315684
O21	O	0.471449	1.128219	-0.016123
O22	O	0.897241	0.767083	0.177593
O23	O	0.878942	0.767085	-0.121949
O24	O	0.645871	0.767046	0.177613
O25	O	0.867108	0.947682	-0.135096
O26	O	0.744884	0.947659	0.164457
O27	O	0.634037	0.947642	0.164465
O28	O	0.875177	0.947681	-0.003006
O29	O	0.584338	1.270699	-0.326047
O30	O	0.766053	0.624604	0.187975
O31	O	0.906576	0.624626	0.187964
O32	O	0.896346	0.624626	0.020511
O33	O	0.454045	1.270677	-0.158583
O34	O	0.594568	1.270699	-0.158594
O35	O	0.732558	0.841343	0.086566
O36	O	0.809259	0.841356	-0.012018
O37	O	0.706580	1.053973	-0.126067
O38	O	0.629878	1.053960	-0.027484
C39	C	0.693819	0.663454	-0.048347
C40	C	0.700139	0.567000	-0.041325
C41	C	0.570696	0.542718	-0.185118
C42	C	0.576631	0.452096	-0.178527
C43	C	0.717945	0.295133	-0.021555
C44	C	0.712011	0.385755	-0.028146
C45	C	0.638383	0.509548	-0.109930
C46	C	0.632446	0.600171	-0.116517
C47	C	0.773763	0.443207	0.040450
C48	C	0.779697	0.352585	0.047042
C49	C	0.454060	0.947619	-0.069019
C50	C	0.379009	0.947607	-0.069013
C51	C	0.253625	0.831706	-0.006843
C52	C	0.184760	0.889655	0.027899
C53	C	0.241574	0.947639	-0.069028
C54	C	0.176708	0.889683	-0.103735
C55	C	0.108823	0.947661	-0.069041
C56	C	0.173700	1.005588	-0.034233
C57	C	0.165657	1.005599	-0.165917
C58	C	0.096772	1.063632	-0.131205
C59	C	0.318051	0.947623	-0.069018
C60	C	0.032344	0.947686	-0.069050
C61	C	0.896331	0.947685	-0.069053
C62	C	0.971382	0.947697	-0.069059
C63	C	0.659097	0.947653	-0.332549
C64	C	0.653634	0.947654	-0.421983
C65	C	0.656573	1.231849	-0.089725
C66	C	0.650252	1.328303	-0.096747
C67	C	0.765526	0.947650	-0.590037
C68	C	0.760395	0.947651	-0.674068
C69	C	0.638248	0.947646	-0.674072
C70	C	0.643378	0.947645	-0.590041
C71	C	0.707018	0.947650	-0.548028
C72	C	0.712144	0.947658	-0.464000
C73	C	0.590001	0.947644	-0.464001
C74	C	0.584870	0.947645	-0.548032
C75	C	0.691294	0.947651	0.194477
C76	C	0.696758	0.947650	0.283911
C77	C	0.914954	0.663488	-0.048364
C78	C	0.996326	0.567045	-0.041348
C79	C	0.709917	0.663453	0.215166
C80	C	0.721701	0.566999	0.311621
C81	C	0.931052	0.663486	0.215149
C82	C	1.017888	0.567043	0.311598
C83	C	0.419339	1.231817	-0.353221
C84	C	0.332503	1.328260	-0.449670
C85	C	0.435437	1.231816	-0.089708
C86	C	0.354065	1.328259	-0.096724
C87	C	0.640474	1.231851	-0.353238
C88	C	0.628690	1.328305	-0.449693
C89	C	0.988214	0.521748	-0.089515
C90	C	1.064662	0.431143	-0.082944
C91	C	1.149223	0.385829	-0.028198
C92	C	1.157333	0.431135	0.019969
C93	C	1.080884	0.521745	0.013391
C94	C	0.773560	0.521709	0.408379
C95	C	0.784629	0.431092	0.499017
C96	C	0.743843	0.385761	0.492894
C97	C	0.691978	0.431060	0.396125
C98	C	0.680904	0.521681	0.305490
C99	C	1.098712	0.521759	0.305433
C100	C	1.180308	0.431153	0.396048
C101	C	1.181079	0.385827	0.492829
C102	C	1.100247	0.431120	0.498992
C103	C	1.018652	0.521730	0.408377
C104	C	0.251679	1.373555	-0.443505
C105	C	0.170080	1.464190	-0.534123
C106	C	0.169309	1.509521	-0.630904
C107	C	0.250142	1.464222	-0.637067
C108	C	0.331738	1.373596	-0.546451
C109	C	0.362176	1.373565	-0.048566
C110	C	0.285725	1.464196	-0.055163
C111	C	0.201164	1.509512	-0.109911
C112	C	0.193054	1.464202	-0.158075
C113	C	0.269504	1.373579	-0.151484
C114	C	0.669488	1.373608	-0.443537
C115	C	0.658433	1.464225	-0.534158
C116	C	0.606575	1.509544	-0.630935
C117	C	0.565776	1.464233	-0.637089
C118	C	0.576837	1.373611	-0.546468
H119	H	0.839645	0.251784	0.113625
H120	H	0.173108	1.054550	-0.004790
H121	H	0.543609	1.336735	-0.551495
H122	H	0.431024	1.336675	-0.003978
H123	H	1.087503	0.558614	0.052621
H124	H	0.124194	1.501113	-0.202650
H125	H	0.320662	0.733680	0.045802
H126	H	0.586439	0.947630	-0.708284
H127	H	0.597575	1.583335	-0.704716
H128	H	0.763960	0.947666	-0.429795
H129	H	0.572488	0.700966	-0.183101
H130	H	0.777897	0.194331	0.045020
H131	H	0.177249	0.840663	-0.133084
H132	H	0.102862	1.583314	-0.704682
H133	H	0.262888	1.336694	-0.190697
H134	H	0.029826	1.161739	-0.183792
H135	H	0.510734	0.643514	-0.251695
H136	H	0.711715	1.336723	-0.364745
H137	H	0.808039	0.947649	-0.708268
H138	H	0.521514	0.479115	-0.239754
H139	H	0.292345	1.501072	-0.015937
H140	H	0.542357	0.947649	-0.429790
H141	H	0.828875	0.416202	0.101678
H142	H	1.247526	0.312046	0.566606
H143	H	0.806775	0.558608	0.413384
H144	H	1.058042	0.394266	-0.122168
H145	H	0.192086	0.840657	0.109831
H146	H	0.158366	1.054555	-0.247829
H147	H	0.691657	1.501108	-0.529128
H148	H	0.249503	1.501143	-0.715877
H149	H	0.523552	1.501145	-0.715897
H150	H	0.817338	0.947666	-0.555835
H151	H	0.104272	1.501056	-0.529085
H152	H	1.246118	0.394285	0.391012
H153	H	0.533058	0.947637	-0.582247
H154	H	0.919366	0.558642	-0.134107
H155	H	1.211465	0.312048	-0.022849
H156	H	0.826865	0.394221	0.577801
H157	H	1.098101	0.558651	0.226638
H158	H	1.226192	0.394228	0.064542
H159	H	0.752867	0.311972	0.566703
H160	H	0.397546	1.336717	-0.551482
H161	H	0.658773	0.394137	0.391156
H162	H	1.100888	0.394202	0.577803
H163	H	0.952846	0.558589	0.413412
H164	H	0.638679	0.558544	0.226709
H165	H	0.252290	1.336652	-0.364709
H166	H	0.138920	1.583303	-0.115270
