data_functionalizedCrystal
_audit_creation_method	'MofGen! by Chris Wilmer'
_symmetry_space_group_name_H-M	'P1'
_symmetry_Int_Tables_number	1
_symmetry_cell_setting	triclinic
loop_
_symmetry_equiv_pos_as_xyz
  x,y,z
_cell_length_a	21.295417
_cell_length_b	19.805407
_cell_length_c	19.805399
_cell_angle_alpha	89.991396
_cell_angle_beta	89.969157
_cell_angle_gamma	90.035893
loop_
_atom_site_label
_atom_site_type_symbol
_atom_site_fract_x
_atom_site_fract_y
_atom_site_fract_z
Zn1	Zn	-0.250533	1.034716	-0.382506
Zn2	Zn	-0.355802	1.034623	-0.269312
Zn3	Zn	-0.250561	0.921531	-0.269352
Zn4	Zn	-0.355779	0.921486	-0.382480
O5	O	-0.303169	0.978089	-0.325913
O6	O	-0.264496	1.129421	-0.367485
O7	O	-0.341863	1.019601	-0.174600
O8	O	-0.162468	0.936603	-0.284391
O9	O	-0.341836	1.129352	-0.284321
O10	O	-0.162448	1.019760	-0.367524
O11	O	-0.264542	0.936513	-0.174630
O12	O	-0.264520	0.826809	-0.284365
O13	O	-0.341796	0.936527	-0.477200
O14	O	-0.341823	0.826776	-0.367480
O15	O	-0.264473	1.019717	-0.477219
O16	O	-0.443888	1.019558	-0.284295
O17	O	-0.443871	0.936437	-0.367440
C18	C	-0.466720	0.978001	-0.325875
C19	C	-0.536688	0.978025	-0.325882
C20	C	-0.303172	0.802233	-0.325924
C21	C	-0.303189	0.727001	-0.325945
C22	C	-0.303129	0.978127	-0.502455
C23	C	-0.303112	0.978143	-0.577687
C24	C	-0.569543	1.021344	-0.282633
C25	C	-0.635286	1.021376	-0.282648
C26	C	-0.668171	0.978076	-0.325905
C27	C	-0.635308	0.934753	-0.369162
C28	C	-0.569567	0.934728	-0.369151
N29	N	-0.771442	0.918865	-0.331069
N30	N	-0.833893	0.918892	-0.331076
C31	C	-0.866246	0.978152	-0.325944
N32	N	-0.833787	1.037386	-0.320791
N33	N	-0.771330	1.037358	-0.320780
C34	C	-0.739456	0.978099	-0.325923
C35	C	-0.970386	1.021509	-0.282709
C36	C	-1.036130	1.021542	-0.282729
C37	C	-1.036151	0.934914	-0.369240
C38	C	-0.970408	0.934887	-0.369223
C39	C	-0.937530	0.978184	-0.325954
C40	C	-0.138978	0.978197	-0.325965
C41	C	-0.069010	0.978243	-0.325987
C42	C	-0.303166	1.154632	-0.325901
C43	C	-0.303165	1.229864	-0.325896
C44	C	-0.262922	1.691692	-0.369242
C45	C	-0.262915	1.621003	-0.369233
C46	C	-0.303180	1.585626	-0.325931
C47	C	-0.343449	1.620940	-0.282629
C48	C	-0.343451	1.691627	-0.282635
C49	C	-0.343440	1.335867	-0.282604
C50	C	-0.343435	1.265175	-0.282603
C51	C	-0.262904	1.265243	-0.369201
C52	C	-0.262906	1.335930	-0.369207
C53	C	-0.303172	1.371238	-0.325904
C54	C	-0.303177	1.447887	-0.325913
C55	C	-0.303179	1.508979	-0.325924
C56	C	-0.262848	1.021461	-0.613043
C57	C	-0.262830	1.021468	-0.683731
C58	C	-0.303079	0.978160	-0.719063
C59	C	-0.343345	0.934838	-0.683703
C60	C	-0.343360	0.934828	-0.613016
C61	C	-0.343287	0.934876	-0.968776
C62	C	-0.343270	0.934891	-1.039468
C63	C	-0.262756	1.021516	-1.039492
C64	C	-0.262771	1.021506	-0.968805
C65	C	-0.303034	0.978182	-0.933451
C66	C	-0.303053	0.978174	-0.856802
C67	C	-0.303064	0.978171	-0.795710
C68	C	-0.303163	0.978090	-0.150057
C69	C	-0.303002	0.978205	-0.074825
H70	H	-0.662041	1.056654	-0.247430
H71	H	-0.376230	1.592130	-0.247369
O72	O	-0.382629	1.725825	-0.240558
C73	C	-0.462484	1.718302	-0.154634
C74	C	-0.418159	1.679491	-0.202266
H75	H	-0.491211	1.680858	-0.123652
H76	H	-0.495435	1.751356	-0.185669
H77	H	-0.433582	1.751432	-0.119284
H78	H	-0.447010	1.646323	-0.237626
H79	H	-0.385206	1.646479	-0.171189
H80	H	-0.230074	1.056730	-0.584281
O81	O	-0.382531	0.892801	-0.717948
C82	C	-0.489607	0.859906	-0.739571
C83	C	-0.445297	0.907542	-0.700736
H84	H	-0.540363	0.871816	-0.725680
H85	H	-0.478608	0.805322	-0.725665
H86	H	-0.482649	0.867344	-0.796163
H87	H	-0.452230	0.900164	-0.644135
H88	H	-0.456307	0.962108	-0.714698
H89	H	-0.230044	1.056743	-0.712514
O90	O	-1.068185	0.892876	-0.411199
C91	C	-1.169472	0.854559	-0.449595
C92	C	-1.133269	0.902187	-0.402026
H93	H	-1.222099	0.862081	-0.442205
H94	H	-1.156654	0.799967	-0.437668
H95	H	-1.156459	0.866403	-0.504170
H96	H	-1.146263	0.890404	-0.347435
H97	H	-1.146090	0.956765	-0.414011
O98	O	-0.223550	1.063565	-1.073761
C99	C	-0.116465	1.096471	-1.095448
C100	C	-0.160792	1.048820	-1.056587
H101	H	-0.065715	1.084558	-1.081588
H102	H	-0.127473	1.151050	-1.081533
H103	H	-0.123396	1.089052	-1.152036
H104	H	-0.153886	1.056180	-0.999991
H105	H	-0.149774	0.994259	-1.070558
H106	H	-0.943656	0.899609	-0.404438
O107	O	-0.537718	0.892676	-0.411256
C108	C	-0.517522	0.859772	-0.526362
C109	C	-0.553643	0.907428	-0.478756
H110	H	-0.530374	0.871692	-0.580946
H111	H	-0.530520	0.805196	-0.514496
H112	H	-0.464890	0.867179	-0.518886
H113	H	-0.606283	0.900082	-0.486206
H114	H	-0.540593	0.961987	-0.490634
H115	H	-0.230135	1.720491	-0.404505
H116	H	-0.943615	1.056767	-0.247479
O117	O	-1.067949	1.063746	-0.240750
C118	C	-1.087914	1.178936	-0.208038
C119	C	-1.051847	1.131198	-0.255610
H120	H	-1.074919	1.233481	-0.220044
H121	H	-1.075013	1.167138	-0.153440
H122	H	-1.140554	1.171524	-0.215442
H123	H	-0.999198	1.138583	-0.248265
H124	H	-1.064800	1.143007	-0.310190
O125	O	-0.223780	1.586808	-0.411355
C126	C	-0.143875	1.594336	-0.497225
C127	C	-0.188178	1.633144	-0.449567
H128	H	-0.115070	1.631781	-0.528122
H129	H	-0.172736	1.561239	-0.532649
H130	H	-0.110990	1.561248	-0.466147
H131	H	-0.221072	1.666269	-0.480591
H132	H	-0.159278	1.666198	-0.414142
O133	O	-0.223633	1.063476	-0.934415
C134	C	-0.138620	1.072601	-0.854682
C135	C	-0.182923	1.025000	-0.893570
H136	H	-0.105687	1.041512	-0.821661
H137	H	-0.167480	1.107965	-0.821527
H138	H	-0.109867	1.103571	-0.892113
H139	H	-0.211686	0.993986	-0.856187
H140	H	-0.154027	0.989681	-0.926735
O141	O	-0.223733	1.370190	-0.411292
C142	C	-0.143876	1.362796	-0.497214
C143	C	-0.188199	1.323913	-0.449578
H144	H	-0.115145	1.325398	-0.528190
H145	H	-0.110928	1.395892	-0.466182
H146	H	-0.172779	1.395891	-0.532569
H147	H	-0.159347	1.290782	-0.414212
H148	H	-0.221149	1.290860	-0.480651
H149	H	-0.230115	1.236486	-0.404459
O150	O	-0.667319	0.892785	-0.411215
C151	C	-0.741465	0.883657	-0.502629
C152	C	-0.705264	0.931260	-0.455032
H153	H	-0.772142	0.914745	-0.538077
H154	H	-0.772337	0.848305	-0.471570
H155	H	-0.706675	0.852674	-0.533509
H156	H	-0.740008	0.962287	-0.424142
H157	H	-0.674382	0.966567	-0.486130
H158	H	-0.376047	0.899621	-1.068234
O159	O	-0.382568	1.230912	-0.240469
C160	C	-0.462469	1.238300	-0.154594
C161	C	-0.418175	1.277186	-0.202259
H162	H	-0.491278	1.275696	-0.123699
H163	H	-0.433601	1.205241	-0.119170
H164	H	-0.495351	1.205168	-0.185667
H165	H	-0.385285	1.310355	-0.171241
H166	H	-0.447082	1.310203	-0.237686
O167	O	-0.537580	1.063310	-0.240535
C168	C	-0.463382	1.072448	-0.149170
C169	C	-0.499553	1.024844	-0.196792
H170	H	-0.432619	1.041368	-0.113801
H171	H	-0.498136	1.103403	-0.118213
H172	H	-0.432581	1.107826	-0.180279
H173	H	-0.530356	0.989426	-0.165735
H174	H	-0.464766	0.993936	-0.227751
O175	O	-0.382590	1.370231	-0.240640
C176	C	-0.467617	1.449936	-0.231512
C177	C	-0.423305	1.411071	-0.279114
H178	H	-0.500555	1.482953	-0.262600
H179	H	-0.438765	1.483093	-0.196138
H180	H	-0.496365	1.412490	-0.200554
H181	H	-0.394547	1.448468	-0.310117
H182	H	-0.452193	1.377903	-0.314444
O183	O	-0.382448	0.892762	-0.934544
C184	C	-0.462258	0.806786	-0.941987
C185	C	-0.417954	0.854466	-0.980842
H186	H	-0.490967	0.775801	-0.979402
H187	H	-0.495228	0.837784	-0.908890
H188	H	-0.433341	0.771441	-0.908895
H189	H	-0.446821	0.889820	-1.013971
H190	H	-0.384983	0.823426	-1.013896
O191	O	-0.382387	0.892679	-0.578643
C192	C	-0.390883	0.801301	-0.498807
C193	C	-0.346613	0.848986	-0.537700
H194	H	-0.361978	0.765973	-0.465685
H195	H	-0.419637	0.770304	-0.536175
H196	H	-0.423819	0.832363	-0.465733
H197	H	-0.313639	0.817976	-0.570775
H198	H	-0.317903	0.879986	-0.500296
