data_functionalizedCrystal
_audit_creation_method	'MofGen! by Chris Wilmer'
_symmetry_space_group_name_H-M	'P1'
_symmetry_Int_Tables_number	1
_symmetry_cell_setting	triclinic
loop_
_symmetry_equiv_pos_as_xyz
  x,y,z
_cell_length_a	10.654550
_cell_length_b	15.944551
_cell_length_c	9.130313
_cell_angle_alpha	89.997799
_cell_angle_beta	89.996220
_cell_angle_gamma	83.991820
loop_
_atom_site_label
_atom_site_type_symbol
_atom_site_fract_x
_atom_site_fract_y
_atom_site_fract_z
O1	O	1.666308	0.117973	-0.121923
O2	O	2.166308	0.617973	0.378077
O3	O	1.300684	0.129213	-0.121900
O4	O	1.800684	0.629213	0.378100
O5	O	1.493480	0.001376	-0.121899
O6	O	1.993480	0.501376	0.378101
O7	O	1.473511	0.245810	-0.121924
O8	O	1.973511	0.745810	0.378076
O9	O	1.493478	0.001379	0.121700
O10	O	1.993478	0.501379	0.621700
O11	O	1.300681	0.129216	0.121699
O12	O	1.800681	0.629216	0.621699
O13	O	1.666305	0.117976	0.121676
O14	O	2.166305	0.617976	0.621676
Cu15	Cu	1.483493	0.123596	0.143930
Cu16	Cu	1.983493	0.623596	0.643930
Cu17	Cu	1.483496	0.123592	-0.144154
Cu18	Cu	1.983496	0.623592	0.355846
O19	O	1.473509	0.245813	0.121675
O20	O	1.973509	0.745813	0.621675
C21	C	1.253895	0.128389	-0.000098
C22	C	1.753895	0.628389	0.499902
C23	C	1.114484	0.125920	-0.000088
C24	C	1.614484	0.625920	0.499912
C25	C	1.034024	0.201188	-0.000117
C26	C	1.534024	0.701188	0.499883
C27	C	0.903034	0.198863	-0.000142
C28	C	1.403034	0.698863	0.499858
C29	C	0.932975	0.045995	-0.000116
C30	C	1.432975	0.545995	0.499884
C31	C	1.063963	0.048321	-0.000080
C32	C	1.563963	0.548321	0.499920
C33	C	1.016737	0.289446	-0.000139
C34	C	1.516737	0.789446	0.499861
C35	C	0.885746	0.287121	-0.000164
C36	C	1.385746	0.787121	0.499836
C37	C	1.492650	-0.029921	-0.000099
C38	C	1.992650	0.470079	0.499901
C39	C	1.490165	-0.123182	-0.000098
C40	C	1.990165	0.376818	0.499902
C41	C	1.364720	-0.338765	-0.000111
C42	C	1.864720	0.161235	0.499889
C43	C	1.422971	-0.399443	0.119995
C44	C	1.922971	0.100557	0.619995
C45	C	1.485668	-0.293934	-0.000109
C46	C	1.985668	0.206066	0.499891
C47	C	1.423002	-0.399430	-0.120175
C48	C	1.923002	0.100570	0.379825
C49	C	1.481317	-0.458872	-0.000126
C50	C	1.981317	0.041128	0.499874
C51	C	1.543953	-0.353384	0.120095
C52	C	2.043953	0.146616	0.620095
C53	C	1.543967	-0.353364	-0.120182
C54	C	2.043967	0.146636	0.379818
C55	C	1.602306	-0.414024	-0.000048
C56	C	2.102306	0.085976	0.499952
C57	C	1.488172	-0.198917	-0.000098
C58	C	1.988172	0.301083	0.499902
C59	C	1.478822	-0.553887	-0.000127
C60	C	1.978822	-0.053887	0.499873
C61	C	1.713094	0.118800	-0.000130
C62	C	2.213094	0.618800	0.499870
C63	C	1.852505	0.121269	-0.000149
C64	C	2.352505	0.621269	0.499851
C65	C	1.474339	0.277110	-0.000128
C66	C	1.974339	0.777110	0.499872
C67	C	1.476824	0.370371	-0.000139
C68	C	1.976824	0.870371	0.499861
N69	N	1.483500	0.123599	0.346552
N70	N	1.983500	0.623599	0.846552
N71	N	1.483499	0.123583	-0.346777
N72	N	1.983499	0.623583	0.153223
C73	C	1.568892	0.067012	0.423205
C74	C	2.068892	0.567012	0.923205
C75	C	1.568889	0.067002	0.576542
C76	C	2.068889	0.567002	1.076542
C77	C	1.398098	0.180173	0.576560
C78	C	1.898098	0.680173	1.076560
C79	C	1.398096	0.180178	0.423226
C80	C	1.898096	0.680178	0.923226
C81	C	1.667501	0.001676	0.423195
C82	C	2.167501	0.501676	0.923195
C83	C	1.667498	0.001666	0.576532
C84	C	2.167498	0.501666	1.076532
H85	H	1.045620	0.323965	0.101809
H86	H	1.545620	0.823965	0.601809
H87	H	1.637774	-0.059344	0.624087
H88	H	2.137774	0.440656	1.124087
H89	H	1.328553	0.226248	0.360817
H90	H	1.828553	0.726248	0.860817
F91	F	0.879195	-0.036588	-0.000105
F92	F	1.379195	0.463412	0.499895
F93	F	0.830632	0.330582	-0.133426
F94	F	1.330632	0.830582	0.366574
F95	F	1.307208	0.240385	0.658173
F96	F	1.807208	0.740385	1.158173
F97	F	1.793401	0.020470	0.630925
F98	F	2.293401	0.520470	1.130925
F99	F	1.233500	-0.295989	0.000047
F100	F	1.733500	0.204011	0.500047
F101	F	1.356108	-0.426112	0.252724
F102	F	1.856108	0.073888	0.752724
H103	H	1.646893	-0.062886	0.381583
H104	H	2.146893	0.437114	0.881583
F105	F	1.610765	-0.326870	0.252959
F106	F	2.110765	0.173130	0.752959
H107	H	0.839729	0.313795	0.105001
H108	H	1.339729	0.813795	0.605001
F109	F	1.733640	-0.456607	0.000028
F110	F	2.233640	0.043393	0.500028
F111	F	1.356110	-0.426079	-0.252884
F112	F	1.856110	0.073921	0.247116
H113	H	1.595080	-0.332939	-0.221733
H114	H	2.095080	0.167061	0.278267
F115	F	1.786331	0.028424	0.361015
F116	F	2.286331	0.528424	0.861015
H117	H	1.129470	-0.012970	-0.000035
H118	H	1.629470	0.487030	0.499965
H119	H	1.052030	0.317547	-0.105314
H120	H	1.552030	0.817547	0.394686
