data_functionalizedCrystal
_audit_creation_method	'MofGen! by Chris Wilmer'
_symmetry_space_group_name_H-M	'P1'
_symmetry_Int_Tables_number	1
_symmetry_cell_setting	triclinic
loop_
_symmetry_equiv_pos_as_xyz
  x,y,z
_cell_length_a	14.044220
_cell_length_b	27.732048
_cell_length_c	13.101039
_cell_angle_alpha	93.329410
_cell_angle_beta	86.340132
_cell_angle_gamma	87.915767
loop_
_atom_site_label
_atom_site_type_symbol
_atom_site_fract_x
_atom_site_fract_y
_atom_site_fract_z
O1	O	1.261246	0.114020	-0.085126
O2	O	0.985339	0.109817	-0.085151
O3	O	1.131860	0.041925	-0.085119
O4	O	1.114725	0.181913	-0.085159
O5	O	1.121348	0.046805	0.085309
O6	O	0.974827	0.114697	0.085276
O7	O	1.250733	0.118900	0.085301
Zn8	Zn	1.111111	0.117574	0.112348
Zn9	Zn	1.124962	0.111144	-0.112198
O10	O	1.104212	0.186793	0.085268
C11	C	0.944796	0.110418	0.000059
C12	C	0.839651	0.104930	0.000051
C13	C	0.647135	0.094899	0.000074
C14	C	0.588932	0.133816	0.000067
C15	C	0.481810	0.128235	0.000080
C16	C	0.754268	0.100480	0.000061
C17	C	1.126244	0.026341	0.000098
C18	C	1.125160	-0.027364	0.000106
C19	C	1.204929	-0.362438	0.000061
C20	C	1.200910	-0.564286	0.000046
O21	O	1.273853	-0.592120	0.000008
N22	N	1.114029	-0.587487	0.000039
C23	C	1.028146	-0.560223	0.000029
O24	O	0.954156	-0.584589	0.000012
C25	C	1.032166	-0.358376	0.000037
C26	C	1.119052	-0.335177	0.000054
C27	C	1.291808	-0.339239	0.000077
C28	C	1.292812	-0.288779	0.000086
C29	C	1.206935	-0.261519	0.000079
C30	C	1.120056	-0.284718	0.000063
C31	C	0.946285	-0.331113	0.000019
C32	C	0.947297	-0.280648	0.000018
C33	C	1.034184	-0.257449	0.000036
C34	C	1.035183	-0.206998	0.000066
N35	N	1.122064	-0.183797	0.000072
C36	C	1.207941	-0.211057	0.000079
C37	C	1.026042	-0.666196	0.000027
C38	C	1.025036	-0.716658	0.000027
C39	C	1.197801	-0.720717	0.000043
C40	C	1.198805	-0.670255	0.000050
C41	C	1.112923	-0.642995	0.000034
C42	C	1.210041	-0.105089	0.000100
C43	C	1.211037	-0.054625	0.000113
C44	C	1.038273	-0.050570	0.000093
C45	C	1.037276	-0.101030	0.000085
C46	C	1.123168	-0.128288	0.000085
O47	O	0.962280	-0.179134	0.000092
O48	O	1.281921	-0.186683	0.000073
C49	C	1.203925	-0.412897	0.000052
C50	C	1.117046	-0.436096	0.000035
C51	C	1.031169	-0.408835	0.000029
C52	C	1.116040	-0.486557	0.000035
C53	C	1.201917	-0.513818	0.000042
C54	C	1.288798	-0.490617	0.000049
C55	C	1.289802	-0.440157	0.000059
C56	C	0.944288	-0.432037	0.000022
C57	C	0.943292	-0.482496	0.000013
C58	C	1.029168	-0.509756	0.000020
C59	C	1.291277	0.118300	0.000088
C60	C	1.396422	0.123787	0.000090
C61	C	1.109828	0.202376	0.000050
C62	C	1.110913	0.256082	0.000034
N63	N	1.101664	0.121962	0.265594
N64	N	1.134415	0.106752	-0.265444
C65	C	1.088813	0.127936	0.474634
C66	C	1.147264	0.100779	0.525523
C67	C	1.140113	0.104104	0.641839
C68	C	1.095962	0.124612	0.358306
H69	H	1.281793	-0.035739	0.000130
C70	C	1.220904	0.066313	0.467138
C71	C	1.174340	0.032877	0.405679
C72	C	1.242095	0.001079	0.351923
H73	H	1.256560	0.049668	0.514350
H74	H	1.262790	0.084070	0.425132
H75	H	1.132470	0.015122	0.447680
H76	H	1.138689	0.049508	0.358448
H77	H	1.283981	0.018836	0.309917
H78	H	1.277747	-0.015563	0.399142
H79	H	1.210512	-0.021608	0.310210
H80	H	0.616514	0.057393	0.000090
C81	C	1.303392	-0.134592	0.000157
C82	C	1.379681	-0.103466	0.000201
C83	C	1.465688	-0.130626	0.000275
H84	H	1.310403	-0.156063	-0.059260
H85	H	1.302979	-0.152655	0.059612
H86	H	1.380096	-0.085411	-0.059247
H87	H	1.372702	-0.081995	0.059614
H88	H	1.465274	-0.148689	0.059729
H89	H	1.472689	-0.152096	-0.059143
H90	H	1.517459	-0.109511	0.000314
H91	H	1.363564	-0.269896	0.000096
H92	H	1.269556	-0.651370	0.000063
C93	C	0.629945	0.183788	-0.000037
C94	C	0.729586	0.179461	-0.000085
C95	C	0.767406	0.225483	-0.000209
H96	H	0.605359	0.202594	0.059364
H97	H	0.612606	0.199133	-0.059507
H98	H	0.746917	0.164124	0.059379
H99	H	0.754198	0.160664	-0.059482
H100	H	0.750066	0.240827	-0.059679
H101	H	0.742813	0.244285	0.059193
H102	H	0.835016	0.222553	-0.000251
C103	C	1.385153	-0.368744	0.000142
C104	C	1.461440	-0.337616	0.000182
C105	C	1.547447	-0.364774	0.000264
H106	H	1.392167	-0.390218	-0.059270
H107	H	1.384739	-0.386803	0.059601
H108	H	1.461855	-0.319565	-0.059271
H109	H	1.454457	-0.316142	0.059590
H110	H	1.547033	-0.382833	0.059723
H111	H	1.554452	-0.386247	-0.059149
H112	H	1.599217	-0.343658	0.000301
H113	H	0.956102	-0.644006	0.000015
C114	C	1.291025	-0.750350	-0.000172
C115	C	1.300893	-0.781933	-0.087871
C116	C	1.386761	-0.809236	-0.088120
H117	H	1.290660	-0.768468	0.059187
H118	H	1.342950	-0.729327	-0.000228
H119	H	1.248982	-0.802953	-0.087805
H120	H	1.301276	-0.763828	-0.147244
H121	H	1.438685	-0.788212	-0.088176
H122	H	1.386388	-0.827350	-0.028757
H123	H	1.393472	-0.830664	-0.147626
C124	C	0.930795	-0.741929	0.000069
C125	C	0.948280	-0.791957	0.000095
C126	C	0.861485	-0.815250	0.000140
H127	H	0.899065	-0.734576	-0.059351
H128	H	0.891790	-0.731153	0.059520
H129	H	0.987269	-0.802730	-0.059350
H130	H	0.979995	-0.799324	0.059511
H131	H	0.822480	-0.804473	0.059591
H132	H	0.829762	-0.807893	-0.059282
H133	H	0.873336	-0.849195	0.000167
C134	C	1.015031	0.162256	0.533198
C135	C	1.022547	0.158784	0.638595
C136	C	0.954607	0.190399	0.692589
H137	H	0.952864	0.153867	0.515811
H138	H	1.026026	0.194451	0.515728
H139	H	1.011544	0.126597	0.656058
H140	H	1.084698	0.167178	0.656012
H141	H	0.965603	0.222593	0.675118
H142	H	0.892446	0.182006	0.675193
H143	H	0.959704	0.188050	0.764106
H144	H	0.875533	-0.349993	-0.000001
H145	H	0.877360	-0.258456	0.000004
C146	C	0.942849	-0.126132	0.000016
C147	C	0.867860	-0.091455	-0.000011
C148	C	0.780861	-0.114558	-0.000102
H149	H	0.935059	-0.144040	0.059421
H150	H	0.942487	-0.147414	-0.059450
H151	H	0.868220	-0.070182	0.059449
H152	H	0.875618	-0.073546	-0.059412
H153	H	0.780499	-0.135840	-0.059568
H154	H	0.773081	-0.132466	0.059305
H155	H	0.729971	-0.091035	-0.000130
H156	H	0.968354	-0.028365	0.000091
C157	C	1.381939	-0.520306	0.000001
C158	C	1.362452	-0.569463	-0.000036
C159	C	1.448225	-0.596830	-0.000102
H160	H	1.414008	-0.511239	0.059419
H161	H	1.421269	-0.514598	-0.059453
H162	H	1.323137	-0.575168	0.059411
H163	H	1.330396	-0.578544	-0.059450
H164	H	1.487555	-0.591122	-0.059556
H165	H	1.480287	-0.587759	0.059317
H166	H	1.435015	-0.630186	-0.000137
H167	H	1.360554	-0.421273	0.000072
H168	H	0.872532	-0.501380	0.000008
C169	C	0.850939	-0.402527	0.000074
C170	C	0.774645	-0.433651	0.000093
C171	C	0.688631	-0.406486	0.000162
H172	H	0.851257	-0.384446	-0.059336
H173	H	0.844020	-0.381072	0.059536
H174	H	0.781563	-0.455098	-0.059363
H175	H	0.774296	-0.451733	0.059498
H176	H	0.681711	-0.385031	0.059624
H177	H	0.688958	-0.388406	-0.059249
H178	H	0.636855	-0.427599	0.000184
