data_functionalizedCrystal
_audit_creation_method	'MofGen! by Chris Wilmer'
_symmetry_space_group_name_H-M	'P1'
_symmetry_Int_Tables_number	1
_symmetry_cell_setting	triclinic
loop_
_symmetry_equiv_pos_as_xyz
  x,y,z
_cell_length_a	15.944551
_cell_length_b	18.266242
_cell_length_c	15.944551
_cell_angle_alpha	90.007297
_cell_angle_beta	83.498738
_cell_angle_gamma	90.004545
loop_
_atom_site_label
_atom_site_type_symbol
_atom_site_fract_x
_atom_site_fract_y
_atom_site_fract_z
O1	O	1.114530	0.060806	0.108333
O2	O	1.614530	0.560806	0.608333
O3	O	0.869980	0.060825	0.121690
O4	O	1.369980	0.560825	0.621690
O5	O	0.998933	0.060808	-0.007263
O6	O	1.498933	0.560808	0.492737
O7	O	0.985577	0.060822	0.237286
O8	O	1.485577	0.560822	0.737286
O9	O	0.998911	-0.060954	-0.007270
O10	O	1.498911	0.439046	0.492730
O11	O	0.869958	-0.060937	0.121683
O12	O	1.369958	0.439063	0.621683
O13	O	1.114508	-0.060956	0.108327
O14	O	1.614508	0.439044	0.608327
Zn15	Zn	0.992229	-0.080279	0.115004
Zn16	Zn	1.492229	0.419721	0.615004
Zn17	Zn	0.992258	0.080148	0.115013
Zn18	Zn	1.492258	0.580148	0.615013
O19	O	0.985555	-0.060940	0.237280
O20	O	1.485555	0.439060	0.737280
C21	C	0.838675	-0.000054	0.121132
C22	C	1.338675	0.499946	0.621132
C23	C	0.745429	-0.000047	0.119470
C24	C	1.245429	0.499953	0.619470
N25	N	0.992216	-0.189766	0.114997
N26	N	1.492216	0.310234	0.614997
C27	C	0.530572	-0.000066	0.035565
C28	C	1.030572	0.499934	0.535565
C29	C	0.469563	0.059971	0.074531
C30	C	0.969563	0.559971	0.574531
C31	C	0.574703	-0.000056	0.116462
C32	C	1.074703	0.499944	0.616462
C33	C	0.469564	-0.060077	0.074543
C34	C	0.969564	0.439923	0.574543
C35	C	0.409790	-0.000068	0.113551
C36	C	0.909790	0.499932	0.613551
C37	C	0.514922	0.060031	0.155450
C38	C	1.014922	0.560031	0.655450
C39	C	0.514929	-0.060071	0.155451
C40	C	1.014929	0.439929	0.655451
C41	C	0.453937	-0.000019	0.194476
C42	C	0.953937	0.499981	0.694476
C43	C	0.669705	-0.000049	0.118137
C44	C	1.169705	0.499951	0.618137
C45	C	0.314789	-0.000070	0.111883
C46	C	0.814789	0.499930	0.611883
C47	C	1.049335	-0.228082	0.057925
C48	C	1.549335	0.271918	0.557925
C49	C	1.049340	-0.304727	0.057921
C50	C	1.549340	0.195273	0.557921
C51	C	0.992235	-0.343053	0.115004
C52	C	1.492235	0.156947	0.615004
C53	C	0.935105	-0.304727	0.172081
C54	C	1.435105	0.195273	0.672081
C55	C	0.935095	-0.228084	0.172077
C56	C	1.435095	0.271916	0.672077
N57	N	0.981547	-0.463380	0.189328
N58	N	1.481547	0.036620	0.689328
N59	N	0.981561	-0.536188	0.189328
N60	N	1.481561	-0.036188	0.689328
C61	C	0.992258	-0.573975	0.115016
C62	C	1.492258	-0.073975	0.615016
N63	N	1.002957	-0.536203	0.040701
N64	N	1.502957	-0.036203	0.540701
N65	N	1.002947	-0.463389	0.040702
N66	N	1.502947	0.036611	0.540702
C67	C	0.992238	-0.426160	0.115014
C68	C	1.492238	0.073840	0.615014
C69	C	1.049386	-0.695398	0.057935
C70	C	1.549386	-0.195398	0.557935
C71	C	1.049386	-0.772045	0.057930
C72	C	1.549386	-0.272045	0.557930
C73	C	0.935154	-0.772044	0.172097
C74	C	1.435154	-0.272044	0.672097
C75	C	0.935151	-0.695399	0.172094
C76	C	1.435151	-0.195399	0.672094
C77	C	0.992271	-0.657081	0.115014
C78	C	1.492271	-0.157081	0.615014
C79	C	1.145813	-0.000075	0.108885
C80	C	1.645813	0.499925	0.608885
C81	C	1.239059	-0.000078	0.110547
C82	C	1.739059	0.499922	0.610547
C83	C	0.998367	-0.000073	-0.038561
C84	C	1.498367	0.499927	0.461439
C85	C	0.996705	-0.000073	-0.131807
C86	C	1.496705	0.499927	0.368193
N87	N	0.992278	0.189635	0.115012
N88	N	1.492278	0.689635	0.615012
C89	C	0.912801	-0.000057	-0.346663
C90	C	1.412801	0.499943	0.153337
C91	C	0.951752	-0.060096	-0.407684
C92	C	1.451752	0.439904	0.092316
C93	C	0.993698	-0.000067	-0.302533
C94	C	1.493698	0.499933	0.197467
C95	C	0.951793	0.059952	-0.407661
C96	C	1.451793	0.559952	0.092339
C97	C	0.990787	-0.000058	-0.467445
C98	C	1.490787	0.499942	0.032555
C99	C	1.032672	-0.060156	-0.362325
C100	C	1.532672	0.439844	0.137675
C101	C	1.032701	0.059946	-0.362295
C102	C	1.532701	0.559946	0.137705
C103	C	1.071711	-0.000108	-0.423298
C104	C	1.571711	0.499892	0.076702
C105	C	0.995372	-0.000073	-0.207530
C106	C	1.495372	0.499927	0.292470
C107	C	0.989119	-0.000058	-0.562446
C108	C	1.489119	0.499942	-0.062446
C109	C	0.986120	-0.000057	0.268577
C110	C	1.486120	0.499943	0.768577
C111	C	0.987782	-0.000052	0.361823
C112	C	1.487782	0.499948	0.861823
H113	H	0.563905	0.000004	-0.031573
H114	H	1.063905	0.500004	0.468427
C115	C	0.835976	-0.107317	-0.475315
C116	C	1.335976	0.392683	0.024685
C117	C	0.905553	-0.128609	-0.434842
C118	C	1.405553	0.371391	0.065158
H119	H	0.807455	-0.149613	-0.492082
H120	H	1.307455	0.350387	0.007918
H121	H	0.798556	-0.079056	-0.437638
H122	H	1.298556	0.420944	0.062362
H123	H	0.854734	-0.078852	-0.523683
H124	H	1.354734	0.421148	-0.023683
H125	H	0.886795	-0.157070	-0.386471
H126	H	1.386795	0.342930	0.113529
H127	H	0.942979	-0.156882	-0.472521
H128	H	1.442979	0.343118	0.027479
C129	C	0.809362	0.062781	-0.251686
C130	C	1.309362	0.562781	0.248314
C131	C	0.822154	-0.000122	-0.301698
C132	C	1.322154	0.499878	0.198302
H133	H	0.753400	0.062740	-0.223932
H134	H	1.253400	0.562740	0.276068
H135	H	0.848336	0.063240	-0.210834
H136	H	1.348336	0.563240	0.289166
H137	H	0.817661	0.105024	-0.286378
H138	H	1.317661	0.605024	0.213622
H139	H	0.813861	-0.042365	-0.267005
H140	H	1.313861	0.457635	0.232995
H141	H	0.783168	-0.000588	-0.342555
H142	H	1.283168	0.499412	0.157445
C143	C	0.481483	0.128371	-0.054852
C144	C	0.981483	0.628371	0.445148
C145	C	0.442417	0.128484	0.028347
C146	C	0.942417	0.628484	0.528347
H147	H	0.464721	0.170664	-0.083367
H148	H	0.964721	0.670664	0.416633
H149	H	0.541021	0.128643	-0.054576
H150	H	1.041021	0.628643	0.445424
H151	H	0.465189	0.085734	-0.083040
H152	H	0.965189	0.585734	0.416960
H153	H	0.458716	0.171119	0.056537
H154	H	0.958716	0.671119	0.556537
H155	H	0.382866	0.128218	0.028076
H156	H	0.882866	0.628218	0.528076
H157	H	0.888581	-0.196886	0.218553
H158	H	1.388581	0.303114	0.718553
H159	H	0.917575	0.110714	-0.427735
H160	H	1.417575	0.610714	0.072265
H161	H	1.095844	-0.196886	0.011445
H162	H	1.595844	0.303114	0.511445
H163	H	0.534919	0.110843	0.189643
H164	H	1.034919	0.610843	0.689643
H165	H	0.420779	0.000019	0.261683
H166	H	0.920779	0.500019	0.761683
H167	H	1.066850	-0.110970	-0.342337
H168	H	1.566850	0.389030	0.157663
H169	H	1.095855	-0.335930	0.011444
H170	H	1.595855	0.164070	0.511444
H171	H	0.888642	-0.664200	0.218572
H172	H	1.388642	-0.164200	0.718572
H173	H	0.535051	-0.110827	0.189636
H174	H	1.035051	0.389173	0.689636
C175	C	0.481513	-0.128476	-0.054859
C176	C	0.981513	0.371524	0.445141
C177	C	0.442435	-0.128597	0.028335
C178	C	0.942435	0.371403	0.528335
H179	H	0.464770	-0.170777	-0.083387
H180	H	0.964770	0.329223	0.416613
H181	H	0.465217	-0.085850	-0.083037
H182	H	0.965217	0.414150	0.416963
H183	H	0.541057	-0.128731	-0.054573
H184	H	1.041057	0.371269	0.445427
H185	H	0.382891	-0.128337	0.028049
H186	H	0.882891	0.371663	0.528049
H187	H	0.458726	-0.171234	0.056520
H188	H	0.958726	0.328766	0.556520
H189	H	1.138919	-0.000147	-0.456457
H190	H	1.638919	0.499853	0.043543
C191	C	0.884409	-0.422217	0.222785
C192	C	1.384409	0.077783	0.722785
C193	C	0.872335	-0.346852	0.234830
C194	C	1.372335	0.153148	0.734830
H195	H	0.845657	-0.448221	0.261528
H196	H	1.345657	0.051779	0.761528
H197	H	0.875287	-0.434786	0.166727
H198	H	1.375287	0.065214	0.666727
H199	H	0.940469	-0.434757	0.231947
H200	H	1.440469	0.065243	0.731947
H201	H	0.816276	-0.334311	0.225662
H202	H	1.316276	0.165689	0.725662
H203	H	0.881450	-0.334279	0.290902
H204	H	1.381450	0.165721	0.790902
C205	C	1.162292	-0.703095	-0.054920
C206	C	1.662292	-0.203095	0.445080
C207	C	1.112162	-0.653273	-0.004815
C208	C	1.612162	-0.153273	0.495185
H209	H	1.201042	-0.677088	-0.093662
H210	H	1.701042	-0.177088	0.406338
H211	H	1.192508	-0.732978	-0.019938
H212	H	1.692508	-0.232978	0.480062
H213	H	1.127321	-0.732999	-0.085153
H214	H	1.627321	-0.232999	0.414847
H215	H	1.147132	-0.623373	0.025423
H216	H	1.647132	-0.123373	0.525423
H217	H	1.081943	-0.623377	-0.039801
H218	H	1.581943	-0.123377	0.460199
H219	H	1.095896	-0.803242	0.011450
H220	H	1.595896	-0.303242	0.511450
H221	H	0.888654	-0.803248	0.218571
H222	H	1.388654	-0.303248	0.718571
C223	C	1.036389	0.191275	-0.357723
C224	C	1.536389	0.691275	0.142277
C225	C	1.078863	0.128462	-0.335104
C226	C	1.578863	0.628462	0.164896
H227	H	1.064881	0.233577	-0.340929
H228	H	1.564881	0.733577	0.159071
H229	H	1.035228	0.192011	-0.417145
H230	H	1.535228	0.692011	0.082855
H231	H	0.980255	0.190840	-0.330422
H232	H	1.480255	0.690840	0.169578
H233	H	1.134995	0.128894	-0.362410
H234	H	1.634995	0.628894	0.137590
H235	H	1.080034	0.127726	-0.275672
H236	H	1.580034	0.627726	0.224328
