data_functionalizedCrystal
_audit_creation_method	'MofGen! by Chris Wilmer'
_symmetry_space_group_name_H-M	'P1'
_symmetry_Int_Tables_number	1
_symmetry_cell_setting	triclinic
loop_
_symmetry_equiv_pos_as_xyz
  x,y,z
_cell_length_a	23.532407
_cell_length_b	23.532407
_cell_length_c	22.610064
_cell_angle_alpha	90.000603
_cell_angle_beta	89.997161
_cell_angle_gamma	97.151322
loop_
_atom_site_label
_atom_site_type_symbol
_atom_site_fract_x
_atom_site_fract_y
_atom_site_fract_z
O1	O	0.755263	-0.069127	-0.049117
O2	O	0.589400	-0.079130	-0.049135
O3	O	0.677333	0.008803	-0.049114
O4	O	0.667330	-0.157060	-0.049137
O5	O	0.677318	0.008790	0.049255
O6	O	0.589385	-0.079143	0.049234
O7	O	0.755248	-0.069140	0.049252
Zn8	Zn	0.672314	-0.074144	0.064862
Zn9	Zn	0.672334	-0.074127	-0.064744
O10	O	0.667315	-0.157073	0.049232
C11	C	0.568176	-0.078882	0.000048
C12	C	0.504959	-0.078116	0.000041
C13	C	0.105856	-0.125350	0.000061
C14	C	0.046456	-0.124638	0.000065
O15	O	0.009711	-0.168424	0.000081
N16	N	0.023830	-0.072362	0.000071
C17	C	0.060607	-0.020794	0.000080
O18	O	0.035908	0.023737	0.000086
C19	C	0.120006	-0.021506	0.000080
C20	C	0.142629	-0.073785	0.000068
C21	C	0.128479	-0.177625	0.000050
C22	C	0.187876	-0.178336	0.000045
C23	C	0.224649	-0.126772	0.000052
C24	C	0.202025	-0.074497	0.000063
C25	C	0.156783	0.030062	0.000093
C26	C	0.216185	0.029345	0.000094
C27	C	0.238808	-0.022934	0.000082
C28	C	0.298194	-0.023643	0.000065
N29	N	0.320820	-0.075920	0.000059
C30	C	0.284048	-0.127484	0.000052
C31	C	-0.064135	-0.019302	0.000080
C32	C	-0.123533	-0.018589	0.000075
C33	C	-0.137680	-0.122434	0.000061
C34	C	-0.078281	-0.123146	0.000062
C35	C	-0.041509	-0.071578	0.000074
C36	C	0.408784	-0.128974	0.000042
C37	C	0.468186	-0.129680	0.000034
C38	C	0.482329	-0.025836	0.000051
C39	C	0.422932	-0.025129	0.000055
C40	C	0.386160	-0.076702	0.000052
O41	O	0.334974	0.020119	0.000052
O42	O	0.308755	-0.172007	0.000054
C43	C	0.677071	0.030013	0.000072
C44	C	0.676305	0.093230	0.000076
C45	C	0.776472	-0.069388	0.000069
C46	C	0.839689	-0.070154	0.000071
C47	C	0.667577	-0.178283	0.000045
C48	C	0.668343	-0.241500	0.000036
N49	N	0.672304	-0.074155	0.153314
C50	C	0.723539	0.492333	0.000049
C51	C	0.722827	0.551733	0.000044
O52	O	0.766613	0.588478	0.000027
N53	N	0.670551	0.574359	0.000039
C54	C	0.618983	0.537582	0.000032
O55	O	0.574452	0.562281	0.000027
C56	C	0.619695	0.478182	0.000033
C57	C	0.671974	0.455560	0.000044
C58	C	0.775814	0.469710	0.000060
C59	C	0.776525	0.410313	0.000065
C60	C	0.724961	0.373540	0.000060
C61	C	0.672685	0.396164	0.000050
C62	C	0.568127	0.441406	0.000022
C63	C	0.568844	0.382004	0.000021
C64	C	0.621123	0.359381	0.000033
C65	C	0.621832	0.299995	0.000050
N66	N	0.674109	0.277368	0.000056
C67	C	0.725673	0.314141	0.000061
C68	C	0.617491	0.662324	0.000031
C69	C	0.616778	0.721722	0.000034
C70	C	0.720623	0.735869	0.000045
C71	C	0.721335	0.676470	0.000046
C72	C	0.669767	0.639698	0.000036
C73	C	0.727163	0.189405	0.000073
C74	C	0.727869	0.130003	0.000081
C75	C	0.624025	0.115860	0.000067
C76	C	0.623318	0.175257	0.000062
C77	C	0.674891	0.212029	0.000063
O78	O	0.578070	0.263215	0.000065
O79	O	0.770196	0.289433	0.000058
N80	N	0.672349	-0.074111	-0.153196
C81	C	0.711273	-0.035196	0.561965
C82	C	0.711276	-0.035192	0.623884
O83	O	0.744384	-0.002076	0.655911
N84	N	0.672334	-0.074115	0.654851
C85	C	0.633383	-0.113041	0.623895
O86	O	0.600259	-0.146147	0.655920
C87	C	0.633377	-0.113042	0.561976
C88	C	0.672326	-0.074120	0.531013
C89	C	0.750218	0.003724	0.531001
C90	C	0.750215	0.003719	0.469085
C91	C	0.711268	-0.035206	0.438133
C92	C	0.672323	-0.074125	0.469097
C93	C	0.594424	-0.151965	0.531021
C94	C	0.594422	-0.151962	0.469098
C95	C	0.633370	-0.113040	0.438134
C96	C	0.633374	-0.113054	0.376229
N97	N	0.672316	-0.074131	0.345262
C98	C	0.711263	-0.035207	0.376214
C99	C	0.633396	-0.113035	0.753928
C100	C	0.633403	-0.113037	0.815846
C101	C	0.711296	-0.035187	0.815831
C102	C	0.711291	-0.035188	0.753913
C103	C	0.672338	-0.074112	0.722962
C104	C	0.711255	-0.035220	0.246187
C105	C	0.711251	-0.035230	0.184266
C106	C	0.633357	-0.113078	0.184286
C107	C	0.633363	-0.113071	0.246202
C108	C	0.672314	-0.074137	0.277151
O109	O	0.600281	-0.146152	0.344163
O110	O	0.744376	-0.002101	0.344182
H111	H	-0.034198	0.022693	0.000084
H112	H	0.770443	0.111587	0.000092
H113	H	0.582043	0.085909	0.000065
H114	H	0.601653	-0.144770	0.271413
C115	C	0.792304	0.046086	0.435366
C116	C	0.783906	0.037829	0.374513
C117	C	0.822598	0.076921	0.343438
H118	H	0.786194	0.084016	0.445547
H119	H	0.830362	0.040268	0.445379
H120	H	0.745858	0.043652	0.364505
H121	H	0.790021	-0.000093	0.364315
H122	H	0.860655	0.071103	0.353450
H123	H	0.816485	0.114848	0.353623
H124	H	0.816909	0.071321	0.302146
H125	H	0.743005	-0.003494	0.728706
H126	H	0.098544	-0.219617	0.000046
H127	H	0.601694	-0.144737	0.841052
H128	H	0.819097	0.391900	0.000072
C129	C	-0.177584	-0.178439	-0.000062
C130	C	-0.167418	-0.209928	-0.050682
C131	C	-0.204173	-0.261515	-0.050821
H132	H	-0.170793	-0.199961	0.034198
H133	H	-0.216208	-0.170548	-0.000091
H134	H	-0.128804	-0.217820	-0.050648
H135	H	-0.174213	-0.188423	-0.084951
H136	H	-0.242796	-0.253624	-0.050849
H137	H	-0.197378	-0.283032	-0.016558
H138	H	-0.197284	-0.282885	-0.085168
C139	C	-0.053692	-0.179891	-0.000070
C140	C	-0.020012	-0.183336	-0.050687
C141	C	0.002638	-0.235606	-0.050832
H142	H	-0.030779	-0.182393	0.034193
H143	H	-0.084089	-0.210512	-0.000109
H144	H	0.010381	-0.152724	-0.050643
H145	H	-0.042912	-0.180844	-0.084958
H146	H	-0.027760	-0.266227	-0.050870
H147	H	0.025548	-0.238104	-0.016567
H148	H	0.025488	-0.237953	-0.085177
H149	H	0.601648	-0.144772	0.159075
H150	H	0.817806	0.499645	0.000061
H151	H	0.781933	0.035423	0.556197
C152	C	0.212321	-0.235157	0.000070
C153	C	0.167395	-0.280156	0.000083
C154	C	0.189887	-0.332510	0.000117
H155	H	0.235192	-0.237678	-0.034223
H156	H	0.235179	-0.237629	0.034388
H157	H	0.144547	-0.277685	-0.034231
H158	H	0.144520	-0.277654	0.034374
H159	H	0.212744	-0.334982	0.034435
H160	H	0.212757	-0.335025	-0.034177
H161	H	0.159408	-0.363048	0.000132
C162	C	0.492636	-0.186503	0.000053
C163	C	0.447714	-0.231506	0.000066
C164	C	0.470213	-0.283857	0.000093
H165	H	0.515504	-0.189018	-0.034243
H166	H	0.515497	-0.188975	0.034369
H167	H	0.424863	-0.229035	-0.034246
H168	H	0.424842	-0.229010	0.034360
H169	H	0.493073	-0.286329	0.034408
H170	H	0.493081	-0.286366	-0.034204
H171	H	0.439737	-0.314398	0.000107
H172	H	0.575496	0.632386	0.000028
C173	C	0.753488	0.007144	0.849475
C174	C	0.723347	0.041861	0.885012
C175	C	0.762192	0.080865	0.916007
H176	H	0.777093	-0.013154	0.873677
H177	H	0.776675	0.030360	0.822187
H178	H	0.700170	0.018647	0.912296
H179	H	0.699744	0.062172	0.860824
H180	H	0.785379	0.104081	0.888720
H181	H	0.785796	0.060562	0.940206
H182	H	0.741747	0.104428	0.940119
H183	H	0.378851	-0.170970	0.000041
H184	H	-0.141947	0.023982	0.000076
C185	C	0.511306	0.465846	-0.000024
C186	C	0.466308	0.420918	-0.000048
C187	C	0.413953	0.443409	-0.000099
H188	H	0.508773	0.488716	0.034267
H189	H	0.508844	0.488704	-0.034344
H190	H	0.468769	0.398070	0.034269
H191	H	0.468822	0.398045	-0.034337
H192	H	0.411491	0.466267	-0.034419
H193	H	0.411427	0.466278	0.034193
H194	H	0.383416	0.412929	-0.000121
H195	H	0.404512	0.017441	0.000056
H196	H	0.512280	0.016146	0.000054
C197	C	0.591082	-0.155369	0.720434
C198	C	0.556994	-0.189463	0.760812
C199	C	0.518013	-0.228471	0.729983
H200	H	0.567432	-0.135075	0.696280
H201	H	0.611416	-0.179007	0.696291
H202	H	0.536661	-0.165828	0.784945
H203	H	0.580628	-0.209770	0.784968
H204	H	0.538347	-0.252109	0.705840
H205	H	0.494368	-0.208172	0.705829
H206	H	0.494884	-0.251612	0.757374
H207	H	0.526850	0.352066	0.000013
H208	H	0.562709	-0.183658	0.556223
C209	C	0.566499	0.199712	0.000021
C210	C	0.521495	0.154791	0.000005
C211	C	0.469145	0.177292	-0.000049
H212	H	0.563972	0.222587	0.034309
H213	H	0.564041	0.222566	-0.034302
H214	H	0.523952	0.131947	0.034324
H215	H	0.524003	0.131912	-0.034281
H216	H	0.466686	0.200146	-0.034372
H217	H	0.466624	0.200167	0.034240
H218	H	0.438603	0.146817	-0.000066
H219	H	0.762610	0.765821	0.000047
C220	C	0.132343	0.086883	0.000143
C221	C	0.177271	0.131881	0.000170
C222	C	0.154780	0.184236	0.000226
H223	H	0.109475	0.089417	-0.034148
H224	H	0.109483	0.089344	0.034464
H225	H	0.200121	0.129421	-0.034147
H226	H	0.200142	0.129366	0.034458
H227	H	0.131921	0.186697	0.034547
H228	H	0.131912	0.186763	-0.034065
H229	H	0.185260	0.214773	0.000250
H230	H	0.246123	0.071339	0.000104
H231	H	0.769159	0.219337	0.000071
C232	C	0.753564	0.007096	0.150756
C233	C	0.787660	0.041195	0.191121
C234	C	0.826638	0.080196	0.160276
H235	H	0.777209	-0.013205	0.126599
H236	H	0.733228	0.030731	0.126615
H237	H	0.807995	0.017563	0.215252
H238	H	0.764031	0.061507	0.215279
H239	H	0.806301	0.103831	0.136134
H240	H	0.850278	0.059891	0.136119
H241	H	0.849773	0.103340	0.187658
C242	C	0.552105	-0.194290	0.435602
C243	C	0.518010	-0.228381	0.475977
C244	C	0.479029	-0.267386	0.445143
H245	H	0.528459	-0.173992	0.411446
H246	H	0.572438	-0.217930	0.411460
H247	H	0.497678	-0.204745	0.500108
H248	H	0.541640	-0.248692	0.500134
H249	H	0.499362	-0.291025	0.421002
H250	H	0.455387	-0.247083	0.420988
H251	H	0.455895	-0.290525	0.472533
H252	H	0.574207	0.740136	0.000035
H253	H	0.763906	0.658056	0.000054
H254	H	0.742973	-0.003516	0.271379
