data_functionalizedCrystal
_audit_creation_method	'MofGen! by Chris Wilmer'
_symmetry_space_group_name_H-M	'P1'
_symmetry_Int_Tables_number	1
_symmetry_cell_setting	triclinic
loop_
_symmetry_equiv_pos_as_xyz
  x,y,z
_cell_length_a	16.625546
_cell_length_b	18.215407
_cell_length_c	18.215399
_cell_angle_alpha	89.980167
_cell_angle_beta	89.970824
_cell_angle_gamma	90.022916
loop_
_atom_site_label
_atom_site_type_symbol
_atom_site_fract_x
_atom_site_fract_y
_atom_site_fract_z
Zn1	Zn	-0.321000	1.125084	-0.416110
Zn2	Zn	-0.455841	1.124998	-0.293041
Zn3	Zn	-0.321027	1.002017	-0.293057
Zn4	Zn	-0.455796	1.001988	-0.416066
O5	O	-0.388416	1.063522	-0.354568
O6	O	-0.338895	1.228057	-0.399796
O7	O	-0.437987	1.108660	-0.190059
O8	O	-0.208191	1.018390	-0.309405
O9	O	-0.437961	1.227994	-0.309378
O10	O	-0.208171	1.108807	-0.399812
O11	O	-0.338940	1.018307	-0.190070
O12	O	-0.338896	0.899029	-0.309363
O13	O	-0.437885	1.018341	-0.519056
O14	O	-0.437910	0.899008	-0.399737
O15	O	-0.338851	1.108779	-0.519088
O16	O	-0.568667	1.108632	-0.309335
O17	O	-0.568634	1.018257	-0.399721
C18	C	-0.388402	0.872315	-0.354547
C19	C	-0.388415	0.790517	-0.354556
C20	C	-0.440053	0.602331	-0.401554
C21	C	-0.440056	0.525472	-0.401563
C22	C	-0.336793	0.525465	-0.307598
C23	C	-0.336787	0.602322	-0.307593
C24	C	-0.388422	0.640753	-0.354570
C25	C	-0.388430	0.487037	-0.354584
C26	C	-0.388433	0.403703	-0.354594
C27	C	-0.388418	0.724092	-0.354562
C28	C	-0.597907	1.063452	-0.354537
C29	C	-0.687528	1.063490	-0.354549
C30	C	-1.015703	1.063618	-0.354625
C31	C	-0.924395	1.063580	-0.354606
C32	C	-0.851618	1.063553	-0.354587
C33	C	-0.760304	1.063516	-0.354568
C34	C	-0.178107	1.063612	-0.354615
C35	C	-0.088486	1.063650	-0.354635
C36	C	-0.388360	1.063567	-0.546521
C37	C	-0.388336	1.063586	-0.628320
C38	C	-0.388430	1.255475	-0.354590
C39	C	-0.388436	1.337274	-0.354599
C40	C	-0.336721	1.110694	-0.816532
C41	C	-0.336698	1.110703	-0.893391
C42	C	-0.439827	1.016530	-0.893346
C43	C	-0.439846	1.016518	-0.816489
C44	C	-0.388294	1.063604	-0.778084
C45	C	-0.388252	1.063625	-0.931800
C46	C	-0.388227	1.063634	-1.015134
C47	C	-0.388318	1.063594	-0.694745
C48	C	-0.388413	1.063519	-0.163362
C49	C	-0.388209	1.063643	-0.081563
H50	H	-0.294737	0.633606	-0.269333
H51	H	-0.481842	0.978166	-0.785183
C52	C	-0.280831	1.161777	-0.774702
C53	C	-0.291897	1.151703	-0.699163
C54	C	-0.240428	1.198753	-0.660609
H55	H	-0.226621	1.151072	-0.787223
H56	H	-0.292633	1.211239	-0.787261
H57	H	-0.280090	1.102253	-0.686609
H58	H	-0.346096	1.162414	-0.686620
H59	H	-0.252229	1.248215	-0.673168
H60	H	-0.186221	1.188044	-0.673136
H61	H	-0.247934	1.191929	-0.609352
H62	H	-0.294701	1.149047	-0.924692
H63	H	-0.294755	0.494165	-0.269350
H64	H	-0.482096	0.633619	-0.439808
C65	C	-0.496204	0.483889	-0.452601
C66	C	-0.541432	0.533999	-0.493725
C67	C	-0.593173	0.495720	-0.540745
H68	H	-0.465497	0.453929	-0.484786
H69	H	-0.531341	0.453899	-0.424411
H70	H	-0.506299	0.563976	-0.521913
H71	H	-0.572155	0.563961	-0.461560
H72	H	-0.628310	0.465730	-0.512555
H73	H	-0.562460	0.465761	-0.572924
H74	H	-0.623872	0.529714	-0.568648
C75	C	-0.495769	0.965494	-0.935177
C76	C	-0.484731	0.975596	-1.010716
C77	C	-0.536261	0.928602	-1.049272
H78	H	-0.484021	0.916020	-0.922665
H79	H	-0.549965	0.976248	-0.922611
H80	H	-0.430548	0.964837	-1.023277
H81	H	-0.496485	1.025061	-1.023250
H82	H	-0.590457	0.939357	-1.036705
H83	H	-0.524509	0.879131	-1.036753
H84	H	-0.528784	0.935455	-1.100528
