data_functionalizedCrystal
_audit_creation_method	'MofGen! by Chris Wilmer'
_symmetry_space_group_name_H-M	'P1'
_symmetry_Int_Tables_number	1
_symmetry_cell_setting	triclinic
loop_
_symmetry_equiv_pos_as_xyz
  x,y,z
_cell_length_a	21.295419
_cell_length_b	25.639240
_cell_length_c	25.639234
_cell_angle_alpha	90.032088
_cell_angle_beta	90.020581
_cell_angle_gamma	90.047559
loop_
_atom_site_label
_atom_site_type_symbol
_atom_site_fract_x
_atom_site_fract_y
_atom_site_fract_z
Zn1	Zn	0.962321	-0.207976	0.295594
Zn2	Zn	0.962227	-0.295404	0.208147
Zn3	Zn	0.857052	-0.208007	0.208171
Zn4	Zn	0.857010	-0.295405	0.295551
O5	O	0.909652	-0.251698	0.251866
O6	O	1.050398	-0.219560	0.284002
O7	O	0.948253	-0.283824	0.134985
O8	O	0.871073	-0.134838	0.219796
O9	O	1.050329	-0.283794	0.219755
O10	O	0.948414	-0.134815	0.284025
O11	O	0.870981	-0.219614	0.135003
O12	O	0.768957	-0.219614	0.219754
O13	O	0.871001	-0.283795	0.368722
O14	O	0.768926	-0.283825	0.283952
O15	O	0.948373	-0.219561	0.368753
O16	O	0.948212	-0.368570	0.219713
O17	O	0.870910	-0.368570	0.283928
C18	C	0.746101	-0.251723	0.251851
C19	C	0.676132	-0.251747	0.251857
C20	C	0.643324	-0.218355	0.285362
C21	C	0.577582	-0.218341	0.285364
C22	C	0.544650	-0.251728	0.251867
C23	C	0.577466	-0.285122	0.218355
C24	C	0.643207	-0.285131	0.218351
N25	N	0.441373	-0.297474	0.247777
N26	N	0.378921	-0.297464	0.247784
C27	C	0.346575	-0.251701	0.251878
N28	N	0.379040	-0.205948	0.255975
N29	N	0.441497	-0.205958	0.255970
C30	C	0.473365	-0.251721	0.251868
C31	C	0.242482	-0.218291	0.285387
C32	C	0.176738	-0.218276	0.285386
C33	C	0.176623	-0.285062	0.218380
C34	C	0.242366	-0.285072	0.218378
C35	C	0.275291	-0.251687	0.251885
C36	C	0.909563	-0.387541	0.251825
C37	C	0.909583	-0.445655	0.251825
C38	C	0.949944	-0.805967	0.285370
C39	C	0.949962	-0.860572	0.285381
O40	O	0.984173	-0.888766	0.313860
N41	N	0.909740	-0.887937	0.251916
C42	C	0.869491	-0.860696	0.218443
O43	O	0.835280	-0.888986	0.189980
C44	C	0.869470	-0.806092	0.218435
C45	C	0.909700	-0.778730	0.251898
C46	C	0.990170	-0.778605	0.318831
C47	C	0.990152	-0.724004	0.318819
C48	C	0.949908	-0.696766	0.285347
C49	C	0.909682	-0.724129	0.251887
C50	C	0.829219	-0.778852	0.184965
C51	C	0.829201	-0.724245	0.184960
C52	C	0.869430	-0.696882	0.218423
C53	C	0.869420	-0.642291	0.218403
N54	N	0.909643	-0.614925	0.251868
C55	C	0.949887	-0.642163	0.285340
C56	C	0.869538	-0.975366	0.218462
C57	C	0.869562	-1.029968	0.218467
C58	C	0.950033	-1.029841	0.285405
C59	C	0.950011	-0.975238	0.285398
C60	C	0.909761	-0.948001	0.251926
C61	C	0.949846	-0.527498	0.285313
C62	C	0.949827	-0.472893	0.285297
C63	C	0.869354	-0.473025	0.218360
C64	C	0.869376	-0.527626	0.218374
C65	C	0.909624	-0.554861	0.251855
O66	O	0.835225	-0.614062	0.189940
O67	O	0.984086	-0.613866	0.313803
C68	C	1.073842	-0.251673	0.251881
C69	C	1.143811	-0.251663	0.251887
C70	C	0.909693	-0.251674	0.388239
C71	C	0.909711	-0.251664	0.446353
C72	C	0.909759	-0.115325	0.251918
C73	C	0.909804	-0.057211	0.251941
C74	C	0.909648	-0.251684	0.116023
C75	C	0.909752	-0.251547	0.057910
C76	C	0.869493	-0.218168	0.806731
C77	C	0.869496	-0.218158	0.861335
O78	O	0.835270	-0.189736	0.889584
N79	N	0.909732	-0.251582	0.888636
C80	C	0.949961	-0.285022	0.861329
O81	O	0.984184	-0.313451	0.889564
C82	C	0.949954	-0.285033	0.806726
C83	C	0.909721	-0.251603	0.779428
C84	C	0.829262	-0.184741	0.779433
C85	C	0.829260	-0.184750	0.724833
C86	C	0.869488	-0.218185	0.697530
C87	C	0.909719	-0.251612	0.724827
C88	C	0.990181	-0.318475	0.779420
C89	C	0.990170	-0.318484	0.724813
C90	C	0.949936	-0.285054	0.697515
C91	C	0.949944	-0.285057	0.642924
N92	N	0.909709	-0.251633	0.615623
C93	C	0.869481	-0.218197	0.642926
C94	C	0.949972	-0.284995	0.976000
C95	C	0.949983	-0.284981	1.030602
C96	C	0.869517	-0.218118	1.030604
C97	C	0.869510	-0.218130	0.976001
C98	C	0.909737	-0.251571	0.948699
C99	C	0.869479	-0.218218	0.528261
C100	C	0.869482	-0.218228	0.473656
C101	C	0.949946	-0.285093	0.473658
C102	C	0.949946	-0.285081	0.528259
C103	C	0.909707	-0.251642	0.555559
O104	O	0.984151	-0.313466	0.614640
O105	O	0.835258	-0.189778	0.614685
H106	H	0.269291	-0.191104	0.312667
H107	H	1.022941	-0.800776	0.346091
H108	H	0.150027	-0.191082	0.312669
O109	O	0.993403	-0.945725	0.321487
H110	H	1.021389	-0.973845	0.344761
O111	O	0.993345	-0.321132	0.557705
H112	H	0.965149	-0.347732	0.582564
H113	H	0.669919	-0.312323	0.191066
H114	H	0.982589	-0.450616	0.312546
H115	H	0.550864	-0.191147	0.312647
O116	O	0.277754	-0.321090	0.182241
H117	H	0.307691	-0.347725	0.205586
H118	H	1.022942	-0.345698	0.801636
H119	H	0.982752	-0.312197	1.052823
O120	O	0.141115	-0.321074	0.182248
H121	H	0.089888	-0.315460	0.187882
O122	O	0.826090	-0.182166	0.444214
H123	H	0.776677	-0.191139	0.454674
O124	O	0.541952	-0.321133	0.182225
H125	H	0.490726	-0.315521	0.187860
O126	O	0.993377	-0.321054	0.946553
H127	H	1.021359	-0.344286	0.974714
O128	O	1.033552	-0.694494	0.354904
H129	H	1.061536	-0.722615	0.378177
H130	H	0.836623	-0.549905	0.191122
O131	O	0.785824	-0.808352	0.148872
H132	H	0.792593	-0.850900	0.154492
O133	O	0.825952	-0.443638	0.182260
H134	H	0.797983	-0.471836	0.158988
H135	H	0.982616	-0.549666	0.312579
O136	O	0.993434	-1.059223	0.321516
H137	H	0.986680	-1.101788	0.315902
H138	H	0.836761	-0.190893	1.052844
O139	O	0.785787	-0.694868	0.148857
H140	H	0.813970	-0.669982	0.122274
O141	O	0.826176	-1.059480	0.182372
H142	H	0.798188	-1.031360	0.159099
O143	O	0.785862	-0.148691	0.695399
H144	H	0.753812	-0.172096	0.670503
H145	H	0.836763	-0.953193	0.191201
O146	O	0.826087	-0.182148	0.557703
H147	H	0.798120	-0.158905	0.529541
H148	H	0.796501	-0.157513	0.801657
O149	O	1.033565	-0.354548	0.695364
H150	H	1.061545	-0.377785	0.723523
H151	H	0.836749	-0.190908	0.953779
O152	O	0.993335	-0.321155	0.444206
H153	H	0.965132	-0.347764	0.419316
O154	O	0.678838	-0.182340	0.321490
H155	H	0.644975	-0.159113	0.344784
