data_functionalizedCrystal
_audit_creation_method	'MofGen! by Chris Wilmer'
_symmetry_space_group_name_H-M	'P1'
_symmetry_Int_Tables_number	1
_symmetry_cell_setting	triclinic
loop_
_symmetry_equiv_pos_as_xyz
  x,y,z
_cell_length_a	18.101398
_cell_length_b	18.101397
_cell_length_c	16.120297
_cell_angle_alpha	87.128245
_cell_angle_beta	87.112267
_cell_angle_gamma	90.015323
loop_
_atom_site_label
_atom_site_type_symbol
_atom_site_fract_x
_atom_site_fract_y
_atom_site_fract_z
Zn1	Zn	1.110963	-0.316158	0.471180
Zn2	Zn	1.117161	-0.433722	0.331766
Zn3	Zn	0.993398	-0.309891	0.331805
Zn4	Zn	0.987098	-0.439951	0.471156
O5	O	1.052155	-0.374930	0.401477
O6	O	1.215418	-0.331768	0.452680
O7	O	1.105973	-0.412065	0.215108
O8	O	1.009035	-0.207090	0.350319
O9	O	1.219972	-0.418142	0.350254
O10	O	1.095410	-0.211695	0.452717
O11	O	1.015045	-0.321087	0.215136
O12	O	0.888929	-0.327128	0.350296
O13	O	0.998299	-0.428759	0.587822
O14	O	0.884301	-0.422683	0.452676
O15	O	1.089302	-0.337809	0.587840
O16	O	1.099865	-0.538180	0.350231
O17	O	1.004309	-0.542756	0.452639
C18	C	1.052095	-0.567339	0.401446
C19	C	1.052136	-0.649654	0.401461
C20	C	0.859744	-0.374902	0.401488
C21	C	0.777429	-0.374908	0.401513
C22	C	1.052180	-0.800364	0.401490
C23	C	1.112355	-0.828810	0.337119
C24	C	1.112223	-0.914418	0.336883
C25	C	1.052224	-0.948748	0.401517
C26	C	0.975186	-0.916660	0.377883
C27	C	0.975513	-0.830993	0.377400
C28	C	1.068362	-0.835833	0.489662
C29	C	1.070130	-0.921463	0.489208
C30	C	1.052244	-1.032608	0.401535
C31	C	1.052154	-0.716504	0.401470
C32	C	0.478339	-0.374950	0.401478
C33	C	0.506791	-0.435333	0.465575
C34	C	0.592398	-0.435165	0.465839
C35	C	0.626721	-0.374930	0.401495
C36	C	0.594570	-0.298010	0.425505
C37	C	0.508904	-0.298376	0.425961
C38	C	0.513865	-0.390793	0.313217
C39	C	0.599494	-0.392526	0.313689
C40	C	0.710580	-0.374914	0.401504
C41	C	0.394480	-0.374961	0.401472
C42	C	1.245317	-0.374960	0.401465
C43	C	1.327631	-0.374972	0.401461
C44	C	1.042406	-0.384678	0.618927
C45	C	1.038252	-0.388832	0.711591
C46	C	1.052234	-0.181771	0.401525
C47	C	1.052268	-0.099457	0.401546
C48	C	1.061908	-0.365167	0.184872
C49	C	1.066206	-0.360804	0.092208
C50	C	1.030640	-0.396400	0.881250
C51	C	1.073816	-0.353239	0.922555
C52	C	1.069580	-0.357450	1.016959
C53	C	1.034874	-0.392190	0.786837
H54	H	1.169466	-0.936056	0.351644
C55	C	0.478001	-0.279600	0.513123
H56	H	0.425478	-0.279655	0.514168
H57	H	0.494330	-0.315488	0.553118
H58	H	0.495125	-0.232065	0.525850
H59	H	1.113959	-0.313125	0.887018
C60	C	1.189923	-0.801808	0.356810
H61	H	1.186308	-0.772941	0.404462
H62	H	1.220877	-0.843234	0.367389
H63	H	1.210435	-0.772572	0.310728
H64	H	0.990499	-0.436510	0.916785
C65	C	0.473787	-0.421798	0.553411
H66	H	0.442745	-0.379507	0.551191
H67	H	0.445616	-0.463742	0.573797
H68	H	0.512643	-0.413780	0.589433
C69	C	1.098489	-0.795853	0.249362
H70	H	1.056184	-0.764836	0.251781
H71	H	1.140357	-0.767665	0.228772
H72	H	1.090355	-0.834731	0.213396
H73	H	1.101823	-0.932014	0.271559
C74	C	0.616123	-0.421432	0.554179
H75	H	0.668584	-0.421291	0.554645
H76	H	0.597641	-0.374993	0.570623
H77	H	0.596788	-0.459553	0.591772
C78	C	0.956406	-0.800152	0.290340
H79	H	0.948521	-0.839992	0.255599
H80	H	0.912789	-0.771139	0.294683
H81	H	0.996132	-0.770306	0.267019
C82	C	0.913162	-0.805709	0.437999
H83	H	0.887739	-0.847791	0.462798
H84	H	0.933754	-0.778407	0.480081
H85	H	0.879514	-0.775342	0.408495
H86	H	0.620625	-0.449108	0.295581
H87	H	0.929314	-0.939060	0.423335
C88	C	0.621695	-0.512390	0.445520
H89	H	0.581264	-0.544149	0.437034
H90	H	0.653152	-0.508564	0.396511
H91	H	0.648732	-0.532108	0.490497
H92	H	0.960721	-0.935291	0.314153
H93	H	1.123360	-0.815154	0.511206
C94	C	0.479858	-0.512824	0.445485
H95	H	0.451014	-0.509049	0.397831
H96	H	0.521312	-0.543711	0.434764
H97	H	0.450611	-0.533516	0.491466
H98	H	0.623152	-0.351422	0.263367
H99	H	0.616962	-0.251973	0.380276
C100	C	1.146536	-0.950226	0.513469
H101	H	1.167457	-0.978716	0.470326
H102	H	1.178117	-0.909583	0.521622
H103	H	1.141122	-0.980230	0.563474
H104	H	1.029211	-0.945122	0.539727
H105	H	1.024490	-0.817718	0.537621
C106	C	0.483610	-0.235820	0.365659
H107	H	0.525686	-0.210293	0.340996
H108	H	0.456340	-0.256257	0.323453
H109	H	0.453208	-0.202306	0.395338
H110	H	0.613157	-0.283771	0.489326
H111	H	0.493245	-0.445716	0.291398
C112	C	0.489377	-0.331327	0.248694
H113	H	0.457659	-0.297006	0.275368
H114	H	0.531656	-0.306112	0.224095
H115	H	0.463686	-0.354179	0.206821
