data_functionalizedCrystal
_audit_creation_method	'MofGen! by Chris Wilmer'
_symmetry_space_group_name_H-M	'P1'
_symmetry_Int_Tables_number	1
_symmetry_cell_setting	triclinic
loop_
_symmetry_equiv_pos_as_xyz
  x,y,z
_cell_length_a	8.497374
_cell_length_b	18.215407
_cell_length_c	18.215399
_cell_angle_alpha	89.980167
_cell_angle_beta	89.988708
_cell_angle_gamma	90.001541
loop_
_atom_site_label
_atom_site_type_symbol
_atom_site_fract_x
_atom_site_fract_y
_atom_site_fract_z
Zn1	Zn	0.628053	-1.125194	0.416201
Zn2	Zn	0.891875	-1.125153	0.293171
Zn3	Zn	0.628105	-1.002126	0.293148
Zn4	Zn	0.891787	-1.002143	0.416195
O5	O	0.759955	-1.063654	0.354679
O6	O	0.663065	-1.228173	0.399892
O7	O	0.856944	-1.108809	0.190183
O8	O	0.407336	-1.018461	0.309465
O9	O	0.856894	-1.228143	0.309502
O10	O	0.407298	-1.108878	0.399871
O11	O	0.663153	-1.018422	0.190167
O12	O	0.663068	-0.899144	0.309459
O13	O	0.856744	-1.018490	0.519181
O14	O	0.856794	-0.899157	0.399861
O15	O	0.662980	-1.108895	0.519185
O16	O	1.112626	-1.108826	0.309497
O17	O	1.112561	-1.018451	0.399883
C18	C	0.759928	-0.872448	0.354658
C19	C	0.759955	-0.790649	0.354666
C20	C	0.759846	-1.063699	0.546632
C21	C	0.759800	-1.063718	0.628431
C22	C	0.759983	-1.255607	0.354701
C23	C	0.759995	-1.337406	0.354710
C24	C	1.169835	-1.063645	0.354690
C25	C	1.348479	-1.063664	0.354677
C26	C	0.759950	-1.063652	0.163473
C27	C	0.759552	-1.063775	0.081674
C28	C	0.860986	-0.602481	0.401680
C29	C	0.860991	-0.525622	0.401689
C30	C	0.658952	-0.525579	0.307694
C31	C	0.658941	-0.602437	0.307689
C32	C	0.759967	-0.640885	0.354681
C33	C	0.759983	-0.487169	0.354695
C34	C	0.759988	-0.403836	0.354705
C35	C	0.759960	-0.724224	0.354673
C36	C	0.658813	-1.110809	0.816628
C37	C	0.658767	-1.110817	0.893487
C38	C	0.860543	-1.016679	0.893471
C39	C	0.860580	-1.016667	0.816614
C40	C	0.759717	-1.063736	0.778194
C41	C	0.759634	-1.063757	0.931911
C42	C	0.759585	-1.063766	1.015244
C43	C	0.759764	-1.063726	0.694855
H44	H	0.943250	-0.494356	0.439961
H45	H	0.942748	-0.978330	0.785320
H46	H	0.576597	-1.149147	0.924776
H47	H	0.943244	-0.633783	0.439945
O48	O	0.958473	-0.971032	0.930908
C49	C	0.936781	-0.981123	1.006986
H50	H	0.885114	-1.037921	1.017493
H51	H	1.054935	-0.976132	1.036196
H52	H	0.852756	-0.937477	1.028788
O53	O	0.560603	-0.488264	0.262123
C54	C	0.403413	-0.507062	0.278299
H55	H	0.395601	-0.528211	0.337096
H56	H	0.325463	-0.456515	0.272012
H57	H	0.362067	-0.551660	0.238870
O58	O	0.560639	-0.639781	0.262136
C59	C	0.458881	-0.684267	0.304102
H60	H	0.449293	-0.661126	0.362071
H61	H	0.337403	-0.685129	0.277567
H62	H	0.507661	-0.742516	0.306604
H63	H	0.576679	-1.149133	0.785349
