data_functionalizedCrystal
_audit_creation_method	'MofGen! by Chris Wilmer'
_symmetry_space_group_name_H-M	'P1'
_symmetry_Int_Tables_number	1
_symmetry_cell_setting	triclinic
loop_
_symmetry_equiv_pos_as_xyz
  x,y,z
_cell_length_a	16.974829
_cell_length_b	16.992695
_cell_length_c	16.053802
_cell_angle_alpha	92.747646
_cell_angle_beta	96.228883
_cell_angle_gamma	92.973864
loop_
_atom_site_label
_atom_site_type_symbol
_atom_site_fract_x
_atom_site_fract_y
_atom_site_fract_z
O1	O	-1.061819	0.093240	-0.141161
O2	O	-0.728486	0.426574	0.192172
O3	O	-0.395153	0.759907	0.525506
O4	O	-0.831717	0.106702	-0.125614
O5	O	-0.498384	0.440035	0.207719
O6	O	-0.165050	0.773369	0.541053
O7	O	-0.945846	-0.014168	-0.133332
O8	O	-0.612513	0.319165	0.200001
O9	O	-0.279179	0.652499	0.533334
O10	O	-0.947690	0.214110	-0.133442
O11	O	-0.614357	0.547444	0.199891
O12	O	-0.281024	0.880777	0.533224
O13	O	-0.939562	-0.007542	0.005951
O14	O	-0.606229	0.325791	0.339285
O15	O	-0.272896	0.659125	0.672618
O16	O	-0.825433	0.113328	0.013670
O17	O	-0.492100	0.446661	0.347003
O18	O	-0.158767	0.779994	0.680336
O19	O	-1.055536	0.099866	-0.001877
O20	O	-0.722202	0.433199	0.331456
O21	O	-0.388869	0.766533	0.664790
Zn22	Zn	-0.939487	0.107649	0.028011
Zn23	Zn	-0.606153	0.440982	0.361344
Zn24	Zn	-0.272820	0.774316	0.694677
Zn25	Zn	-0.947766	0.098919	-0.155502
Zn26	Zn	-0.614433	0.432253	0.177832
Zn27	Zn	-0.281099	0.765586	0.511165
O28	O	-0.941407	0.220736	0.005841
O29	O	-0.608073	0.554069	0.339175
O30	O	-0.274740	0.887403	0.672508
C31	C	-0.798996	0.109625	-0.053974
C32	C	-0.465663	0.442958	0.279359
C33	C	-0.132329	0.776292	0.612693
C34	C	-0.710859	0.108454	-0.048020
C35	C	-0.377526	0.441787	0.285314
C36	C	-0.044193	0.775121	0.618647
C37	C	-0.940331	-0.040058	-0.063534
C38	C	-0.606998	0.293276	0.269799
C39	C	-0.273664	0.626609	0.603133
C40	C	-0.933250	-0.127072	-0.063066
C41	C	-0.599917	0.206261	0.270267
C42	C	-0.266584	0.539595	0.603600
C43	C	-1.088257	0.096943	-0.073519
C44	C	-0.754923	0.430276	0.259814
C45	C	-0.421590	0.763610	0.593148
C46	C	-1.176394	0.098114	-0.079479
C47	C	-0.843060	0.431447	0.253854
C48	C	-0.509727	0.764780	0.587188
C49	C	-0.214374	0.102276	-0.006353
C50	C	0.118960	0.435609	0.326980
C51	C	0.452293	0.768942	0.660314
C52	C	-0.297187	0.103376	-0.011949
C53	C	0.036146	0.436709	0.321384
C54	C	0.369479	0.770043	0.654717
C55	C	-0.342020	0.100308	-0.090672
C56	C	-0.008687	0.433642	0.242661
C57	C	0.324647	0.766975	0.575994
C58	C	-0.304034	0.096148	-0.163804
C59	C	0.029299	0.429482	0.169529
C60	C	0.362632	0.762815	0.502863
C61	C	-0.221222	0.095054	-0.158207
C62	C	0.112112	0.428387	0.175127
C63	C	0.445445	0.761721	0.508460
C64	C	-0.590061	0.103199	-0.115554
C65	C	-0.256728	0.436533	0.217780
C66	C	0.076606	0.769866	0.551113
C67	C	-0.672879	0.104292	-0.121146
C68	C	-0.339546	0.437625	0.212188
C69	C	-0.006213	0.770959	0.545521
C70	C	-0.666027	0.111521	0.030710
C71	C	-0.332693	0.444854	0.364043
C72	C	0.000640	0.778188	0.697377
C73	C	-0.583213	0.110421	0.036300
C74	C	-0.249879	0.443755	0.369633
C75	C	0.083454	0.777088	0.702967
C76	C	-0.545234	0.106266	-0.036831
C77	C	-0.211901	0.439599	0.296502
C78	C	0.121433	0.772932	0.629835
N79	N	-0.426669	0.101430	-0.096395
N80	N	-0.093336	0.434764	0.236939
N81	N	0.239997	0.768097	0.570272
N82	N	-0.460586	0.105149	-0.031108
N83	N	-0.127253	0.438483	0.302225
N84	N	0.206081	0.771816	0.635558
N85	N	-0.933842	0.113606	0.153253
N86	N	-0.600509	0.446939	0.486586
N87	N	-0.267176	0.780273	0.819919
C88	C	-0.946922	0.246626	-0.063959
C89	C	-0.613588	0.579959	0.269374
C90	C	-0.280255	0.913292	0.602708
C91	C	-0.954003	0.333640	-0.064432
C92	C	-0.620669	0.666973	0.268901
C93	C	-0.287336	1.000307	0.602235
C94	C	-0.885679	0.384172	-0.059816
C95	C	-0.552346	0.717505	0.273517
C96	C	-0.219012	1.050838	0.606850
C97	C	-0.892338	0.465929	-0.060277
C98	C	-0.559004	0.799263	0.273057
C99	C	-0.225671	1.132596	0.606390
C100	C	-0.967320	0.497154	-0.065347
C101	C	-0.633987	0.830487	0.267987
C102	C	-0.300654	1.163821	0.601320
C103	C	-1.035649	0.446616	-0.069966
C104	C	-0.702316	0.779949	0.263368
C105	C	-0.368982	1.113282	0.596701
C106	C	-1.028990	0.364859	-0.069511
C107	C	-0.695657	0.698193	0.263822
C108	C	-0.362323	1.031526	0.597155
C109	C	-0.994920	0.740633	-0.067231
C110	C	-0.661587	1.073966	0.266103
C111	C	-0.328253	1.407300	0.599436
C112	C	-1.001574	0.822396	-0.067682
C113	C	-0.668241	1.155729	0.265651
C114	C	-0.334907	1.489063	0.598984
C115	C	-0.858262	0.841704	-0.057995
C116	C	-0.524929	1.175038	0.275339
C117	C	-0.191595	1.508371	0.608672
C118	C	-0.851609	0.759946	-0.057536
C119	C	-0.518276	1.093279	0.275798
C120	C	-0.184942	1.426612	0.609131
C121	C	-0.919938	0.709414	-0.062159
C122	C	-0.586605	1.042748	0.271174
C123	C	-0.253271	1.376081	0.604508
N124	N	-0.974128	0.580723	-0.065815
N125	N	-0.640795	0.914057	0.267518
N126	N	-0.307462	1.247390	0.600852
N127	N	-0.913130	0.625846	-0.061697
N128	N	-0.579796	0.959179	0.271637
N129	N	-0.246463	1.292513	0.604970
N130	N	-0.953416	0.092956	-0.280744
N131	N	-0.620083	0.426289	0.052589
N132	N	-0.286750	0.759622	0.385922
C133	C	-0.982425	0.062194	0.193661
C134	C	-0.649091	0.395527	0.526994
C135	C	-0.315758	0.728861	0.860328
C136	C	-0.978484	0.066369	0.281334
C137	C	-0.645151	0.399702	0.614668
C138	C	-0.311817	0.733035	0.948001
C139	C	-0.925965	0.121960	0.328597
C140	C	-0.592631	0.455293	0.661931
C141	C	-0.259298	0.788626	0.995264
C142	C	-0.877377	0.173374	0.288183
C143	C	-0.544044	0.506707	0.621517
C144	C	-0.210711	0.840041	0.954850
C145	C	-0.881314	0.169195	0.200512
C146	C	-0.547981	0.502529	0.533845
C147	C	-0.214648	0.835862	0.867179
C148	C	-0.908766	0.140191	0.591170
C149	C	-0.575432	0.473525	0.924504
C150	C	-0.242099	0.806858	1.257837
C151	C	-0.904834	0.144368	0.678847
C152	C	-0.571501	0.477701	1.012181
C153	C	-0.238167	0.811035	1.345514
C154	C	-1.005940	0.037361	0.671993
C155	C	-0.672607	0.370694	1.005326
C156	C	-0.339274	0.704028	1.338659
C157	C	-1.009876	0.033190	0.584320
C158	C	-0.676543	0.366523	0.917653
C159	C	-0.343209	0.699857	1.250986
C160	C	-0.961286	0.084602	0.543913
C161	C	-0.627952	0.417935	0.877247
C162	C	-0.294619	0.751268	1.210580
N163	N	-0.921937	0.126230	0.418214
N164	N	-0.588604	0.459563	0.751547
N165	N	-0.255271	0.792896	1.084880
N166	N	-0.965309	0.080327	0.454299
N167	N	-0.631976	0.413661	0.787632
N168	N	-0.298643	0.746994	1.120966
H169	H	-0.328107	0.106763	0.047598
H170	H	0.005227	0.440097	0.380931
H171	H	0.338560	0.773430	0.714264
H172	H	-0.836701	0.507070	-0.056520
H173	H	-0.503368	0.840403	0.276813
H174	H	-0.170035	1.173736	0.610146
N175	N	-0.804800	0.350505	-0.054348
N176	N	-0.471467	0.683838	0.278985
N177	N	-0.138134	1.017172	0.612319
H178	H	-0.801171	0.314553	-0.105575
H179	H	-0.467837	0.647886	0.227758
H180	H	-0.134504	0.981219	0.561091
H181	H	-0.796559	0.319519	-0.002279
H182	H	-0.463226	0.652852	0.331054
H183	H	-0.129893	0.986185	0.664387
N184	N	-0.549108	0.098705	-0.194430
N185	N	-0.215775	0.432039	0.138904
N186	N	0.117558	0.765372	0.472237
H187	H	-0.518247	0.049501	-0.195715
H188	H	-0.184914	0.382834	0.137618
H189	H	0.148419	0.716167	0.470951
H190	H	-0.511598	0.146715	-0.195225
H191	H	-0.178264	0.480049	0.138108
H192	H	0.155069	0.813382	0.471442
H193	H	-1.045499	-0.004497	0.704900
H194	H	-0.712166	0.328836	1.038233
H195	H	-0.378833	0.662170	1.371566
N196	N	-0.848182	0.204321	0.729835
N197	N	-0.514849	0.537655	1.063168
N198	N	-0.181516	0.870988	1.396502
H199	H	-0.879056	0.240651	0.764001
H200	H	-0.545722	0.573985	1.097334
H201	H	-0.212389	0.907318	1.430668
H202	H	-0.818005	0.236203	0.690888
H203	H	-0.484672	0.569537	1.024221
H204	H	-0.151339	0.902870	1.357555
H205	H	-0.802633	0.882855	-0.054232
H206	H	-0.469299	1.216188	0.279102
H207	H	-0.135966	1.549522	0.612435
H208	H	-0.696958	0.114906	0.090249
H209	H	-0.363624	0.448239	0.423583
H210	H	-0.030291	0.781573	0.756916
N211	N	-1.116524	0.480290	-0.075425
N212	N	-0.783190	0.813624	0.257909
N213	N	-0.449857	1.146957	0.591242
H214	H	-1.124815	0.511325	-0.127457
H215	H	-0.791481	0.844659	0.205877
H216	H	-0.458148	1.177992	0.539210
H217	H	-1.120091	0.516200	-0.024153
H218	H	-0.786757	0.849533	0.309180
H219	H	-0.453424	1.182867	0.642514
H220	H	-1.084627	0.323716	-0.073273
H221	H	-0.751293	0.657049	0.260060
H222	H	-0.417960	0.990383	0.593393
H223	H	-1.062637	0.847815	-0.071811
H224	H	-0.729303	1.181149	0.261523
H225	H	-0.395970	1.514482	0.594856
H226	H	-0.546716	0.112902	0.100405
H227	H	-0.213383	0.446236	0.433738
H228	H	0.119950	0.779569	0.767071
H229	H	-0.340544	0.093656	-0.227902
H230	H	-0.007210	0.426989	0.105431
H231	H	0.326123	0.760322	0.438765
N232	N	-1.039076	0.002239	0.142687
N233	N	-0.705742	0.335572	0.476020
N234	N	-0.372409	0.668906	0.809354
H235	H	-1.069253	-0.029697	0.181593
H236	H	-0.735919	0.303636	0.514926
H237	H	-0.402586	0.636969	0.848260
H238	H	-1.008154	-0.034038	0.108520
H239	H	-0.674821	0.299295	0.441853
H240	H	-0.341487	0.632628	0.775186
H241	H	-1.018043	0.024504	0.314234
H242	H	-0.684709	0.357838	0.647568
H243	H	-0.351376	0.691171	0.980901
H244	H	-0.709380	0.101800	-0.185255
H245	H	-0.376047	0.435134	0.148079
H246	H	-0.042714	0.768467	0.481412
N247	N	-0.166023	0.105577	0.078558
N248	N	0.167310	0.438911	0.411891
N249	N	0.500643	0.772244	0.745224
H250	H	-0.202690	0.107836	0.124027
H251	H	0.130643	0.441169	0.457360
H252	H	0.463976	0.774502	0.790694
H253	H	-0.128550	0.154161	0.084642
H254	H	0.204784	0.487494	0.417975
H255	H	0.538117	0.820827	0.751309
N256	N	-0.180253	0.090568	-0.237077
N257	N	0.153080	0.423902	0.096256
N258	N	0.486414	0.757235	0.429589
H259	H	-0.221219	0.088790	-0.287798
H260	H	0.112114	0.422123	0.045535
H261	H	0.445448	0.755456	0.378868
H262	H	-0.149387	0.041366	-0.238290
H263	H	0.183946	0.374700	0.095043
H264	H	0.517279	0.708033	0.428376
N265	N	-0.770740	0.726258	-0.052075
N266	N	-0.437407	1.059592	0.281258
N267	N	-0.104074	1.392925	0.614591
H268	H	-0.762461	0.695230	-0.000038
H269	H	-0.429127	1.028563	0.333295
H270	H	-0.095794	1.361896	0.666629
H271	H	-0.728510	0.770712	-0.049257
H272	H	-0.395177	1.104045	0.284077
H273	H	-0.061843	1.437378	0.617410
H274	H	-1.050558	0.699500	-0.070990
H275	H	-0.717225	1.032833	0.262343
H276	H	-0.383892	1.366167	0.595677
N277	N	-0.856356	0.195636	0.547595
N278	N	-0.523022	0.528969	0.880929
N279	N	-0.189689	0.862303	1.214262
H280	H	-0.822490	0.231486	0.590842
H281	H	-0.489157	0.564819	0.924175
H282	H	-0.155823	0.898152	1.257509
H283	H	-0.890537	0.228448	0.509006
H284	H	-0.557204	0.561781	0.842340
H285	H	-0.223871	0.895115	1.175673
H286	H	-0.841752	0.211060	0.167613
H287	H	-0.508419	0.544393	0.500946
H288	H	-0.175086	0.877726	0.834279
H289	H	-1.052641	-0.012077	0.545839
H290	H	-0.719308	0.321257	0.879173
H291	H	-0.385975	0.654590	1.212506
H292	H	-0.834611	0.218635	0.326670
H293	H	-0.501277	0.551968	0.660004
H294	H	-0.167944	0.885302	0.993337
