data_functionalizedCrystal
_audit_creation_method	'MofGen! by Chris Wilmer'
_symmetry_space_group_name_H-M	'P1'
_symmetry_Int_Tables_number	1
_symmetry_cell_setting	triclinic
loop_
_symmetry_equiv_pos_as_xyz
  x,y,z
_cell_length_a	14.971486
_cell_length_b	7.540329
_cell_length_c	14.971486
_cell_angle_alpha	89.996199
_cell_angle_beta	96.385871
_cell_angle_gamma	89.998003
loop_
_atom_site_label
_atom_site_type_symbol
_atom_site_fract_x
_atom_site_fract_y
_atom_site_fract_z
O1	O	1.186943	0.147279	-0.116561
O2	O	0.926543	0.147328	-0.130520
O3	O	1.063722	0.147290	0.006659
O4	O	1.049763	0.147317	-0.253741
O5	O	1.063714	-0.147675	0.006661
O6	O	0.926535	-0.147637	-0.130519
O7	O	1.186935	-0.147686	-0.116560
Cu8	Cu	1.056734	-0.174594	-0.123539
Cu9	Cu	1.056744	0.174236	-0.123541
O10	O	1.049755	-0.147648	-0.253739
C11	C	0.893214	-0.000149	-0.129895
C12	C	0.793917	-0.000131	-0.128024
C13	C	0.736692	-0.000124	-0.208614
C14	C	0.643392	-0.000151	-0.206850
C15	C	0.607320	-0.000171	-0.124497
C16	C	0.664552	-0.000183	-0.043902
C17	C	0.757850	-0.000169	-0.045666
C18	C	0.470090	-0.000207	-0.040231
C19	C	0.376786	-0.000218	-0.038466
C20	C	0.355632	-0.000190	-0.201415
C21	C	0.448930	-0.000176	-0.203179
C22	C	0.506156	-0.000184	-0.122584
N23	N	1.056734	-0.419943	-0.123537
C24	C	1.220263	-0.000205	-0.117185
C25	C	1.319561	-0.000212	-0.119056
C26	C	1.063094	-0.000192	0.039985
C27	C	1.061223	-0.000190	0.139282
N28	N	1.056751	0.419585	-0.123536
C29	C	1.050384	-0.000162	-0.287065
C30	C	1.052254	-0.000152	-0.386362
C31	C	1.141812	-0.000207	0.196507
C32	C	1.140049	-0.000188	0.289807
C33	C	1.057696	-0.000167	0.325879
C34	C	0.977101	-0.000145	0.268646
C35	C	0.978865	-0.000151	0.175349
C36	C	0.973430	-0.000138	0.463109
C37	C	0.971665	-0.000136	0.556413
C38	C	1.134614	-0.000176	0.577567
C39	C	1.136378	-0.000181	0.484269
C40	C	1.055782	-0.000163	0.427043
H41	H	0.516682	-0.000217	0.025399
O42	O	1.230638	-0.000234	0.157604
H43	H	1.235337	0.119979	0.115592
H44	H	1.200238	-0.000185	0.624165
O45	O	0.819576	-0.000189	0.041256
H46	H	0.862592	0.120026	0.044351
H47	H	0.907800	-0.000118	0.416517
O48	O	1.226969	-0.000203	0.351532
H49	H	1.230051	-0.120413	0.394558
H50	H	1.203437	-0.000212	0.454903
H51	H	0.635175	-0.000224	0.023152
H52	H	0.910047	-0.000116	0.298024
H53	H	0.904606	-0.000147	0.585780
H54	H	0.913240	-0.000137	0.128756
H55	H	0.596802	-0.000144	-0.272474
O56	O	0.775597	-0.000120	-0.297438
H57	H	0.720127	-0.000144	-0.353180
H58	H	0.478296	-0.000143	-0.270239
H59	H	0.347419	-0.000237	0.028593
O60	O	0.293917	-0.000201	-0.288348
H61	H	0.222981	-0.000240	-0.273290
