data_functionalizedCrystal
_audit_creation_method	'MofGen! by Chris Wilmer'
_symmetry_space_group_name_H-M	'P1'
_symmetry_Int_Tables_number	1
_symmetry_cell_setting	triclinic
loop_
_symmetry_equiv_pos_as_xyz
  x,y,z
_cell_length_a	11.792241
_cell_length_b	8.965430
_cell_length_c	11.792241
_cell_angle_alpha	89.999725
_cell_angle_beta	95.806584
_cell_angle_gamma	90.001014
loop_
_atom_site_label
_atom_site_type_symbol
_atom_site_fract_x
_atom_site_fract_y
_atom_site_fract_z
O1	O	-1.506909	0.123873	0.155559
O2	O	-1.173575	0.457206	0.488893
O3	O	-0.840242	0.790539	0.822226
O4	O	-1.176567	0.123912	0.171592
O5	O	-0.843234	0.457246	0.504926
O6	O	-0.509901	0.790579	0.838259
O7	O	-1.349754	0.123881	-0.001595
O8	O	-1.016421	0.457215	0.331739
O9	O	-0.683088	0.790548	0.665072
O10	O	-1.333722	0.123904	0.328746
O11	O	-1.000388	0.457237	0.662080
O12	O	-0.667055	0.790571	0.995413
O13	O	-1.349740	-0.124198	-0.001583
O14	O	-1.016406	0.209136	0.331750
O15	O	-0.683073	0.542469	0.665083
O16	O	-1.176553	-0.124166	0.171604
O17	O	-0.843219	0.209167	0.504937
O18	O	-0.509886	0.542500	0.838270
O19	O	-1.506894	-0.124206	0.155571
O20	O	-1.173561	0.209127	0.488904
O21	O	-0.840227	0.542461	0.822238
Cu22	Cu	-1.341722	-0.146838	0.163588
Cu23	Cu	-1.008389	0.186496	0.496922
Cu24	Cu	-0.675055	0.519829	0.830255
Cu25	Cu	-1.341739	0.146544	0.163575
Cu26	Cu	-1.008406	0.479878	0.496908
Cu27	Cu	-0.675073	0.813211	0.830241
O28	O	-1.333707	-0.124175	0.328758
O29	O	-1.000374	0.209159	0.662091
O30	O	-0.667040	0.542492	0.995424
C31	C	-1.134269	-0.000122	0.170591
C32	C	-0.800936	0.333211	0.503924
C33	C	-0.467603	0.666545	0.837258
C34	C	-1.008255	-0.000107	0.167576
C35	C	-0.674922	0.333226	0.500910
C36	C	-0.341589	0.666560	0.834243
C37	C	-0.777543	-0.000147	0.162034
C38	C	-0.444210	0.333186	0.495367
C39	C	-0.110877	0.666520	0.828700
C40	C	-0.905928	-0.000125	0.165113
C41	C	-0.572595	0.333208	0.498447
C42	C	-0.239262	0.666542	0.831780
N43	N	-1.341718	-0.353187	0.163597
N44	N	-1.008385	-0.019854	0.496931
N45	N	-0.675051	0.313480	0.830264
C46	C	-1.261600	-0.450478	0.243664
C47	C	-0.928267	-0.117145	0.576997
C48	C	-0.594933	0.216188	0.910331
C49	C	-1.364301	-0.549903	0.266319
C50	C	-1.030968	-0.216570	0.599652
C51	C	-0.697634	0.116764	0.932986
C52	C	-1.239061	-0.549890	0.140952
C53	C	-0.905727	-0.216557	0.474285
C54	C	-0.572394	0.116777	0.807618
C55	C	-1.444471	-0.450422	0.186304
C56	C	-1.111138	-0.117089	0.519637
C57	C	-0.777804	0.216244	0.852971
C58	C	-1.319163	-0.450401	0.060892
C59	C	-0.985829	-0.117067	0.394225
C60	C	-0.652496	0.216266	0.727558
C61	C	-1.421938	-0.549780	0.083504
C62	C	-1.088604	-0.216447	0.416837
C63	C	-0.755271	0.116886	0.750170
C64	C	-0.549192	-0.000165	0.156572
C65	C	-0.215859	0.333169	0.489906
C66	C	0.117475	0.666502	0.823239
C67	C	-0.675206	-0.000159	0.159587
C68	C	-0.341873	0.333175	0.492920
C69	C	-0.008539	0.666508	0.826253
C70	C	-1.348740	-0.000158	-0.043880
C71	C	-1.015407	0.333176	0.289453
C72	C	-0.682073	0.666509	0.622787
C73	C	-1.345726	-0.000156	-0.169894
C74	C	-1.012392	0.333178	0.163440
C75	C	-0.679059	0.666511	0.496773
N76	N	-1.341752	0.352893	0.163557
N77	N	-1.008419	0.686227	0.496890
N78	N	-0.675085	1.019560	0.830224
C79	C	-1.340183	-0.000130	-0.400606
C80	C	-1.006849	0.333203	-0.067272
C81	C	-0.673516	0.666536	0.266061
C82	C	-1.343262	-0.000144	-0.272221
C83	C	-1.009929	0.333189	0.061113
C84	C	-0.676596	0.666523	0.394446
C85	C	-1.334721	-0.000133	0.371043
C86	C	-1.001388	0.333201	0.704376
C87	C	-0.668055	0.666534	1.037710
C88	C	-1.337736	-0.000125	0.497057
C89	C	-1.004402	0.333209	0.830390
C90	C	-0.671069	0.666542	1.163723
H91	H	-1.193909	-0.406877	0.311436
H92	H	-0.860576	-0.073544	0.644769
H93	H	-0.527243	0.259789	0.978103
F94	F	-1.125569	-0.607002	0.115937
F95	F	-0.792236	-0.273669	0.449270
F96	F	-0.458902	0.059664	0.782604
H97	H	-1.383402	-0.593608	0.353157
H98	H	-1.050069	-0.260275	0.686491
H99	H	-0.716735	0.073059	1.019824
F100	F	-1.294156	-0.393226	-0.052577
F101	F	-0.960822	-0.059892	0.280756
F102	F	-0.627489	0.273441	0.614089
H103	H	-1.531321	-0.406914	0.205544
H104	H	-1.197987	-0.073581	0.538877
H105	H	-0.864654	0.259753	0.872211
H106	H	-1.489780	-0.593108	0.015773
H107	H	-1.156446	-0.259775	0.349106
H108	H	-0.823113	0.073559	0.682440
