data_functionalizedCrystal
_audit_creation_method	'MofGen! by Chris Wilmer'
_symmetry_space_group_name_H-M	'P1'
_symmetry_Int_Tables_number	1
_symmetry_cell_setting	triclinic
loop_
_symmetry_equiv_pos_as_xyz
  x,y,z
_cell_length_a	14.908558
_cell_length_b	14.909042
_cell_length_c	13.032268
_cell_angle_alpha	85.718922
_cell_angle_beta	85.702218
_cell_angle_gamma	83.235125
loop_
_atom_site_label
_atom_site_type_symbol
_atom_site_fract_x
_atom_site_fract_y
_atom_site_fract_z
Zn1	Zn	1.337640	-0.507291	0.646223
Zn2	Zn	1.837640	-0.007291	1.146223
Zn3	Zn	1.365131	-0.639833	0.464468
Zn4	Zn	1.865131	-0.139833	0.964468
Zn5	Zn	1.205117	-0.479748	0.464497
Zn6	Zn	1.705117	0.020252	0.964497
Zn7	Zn	1.196932	-0.647908	0.627395
Zn8	Zn	1.696932	-0.147908	1.127395
O9	O	1.276205	-0.568695	0.550646
O10	O	1.776205	-0.068695	1.050646
O11	O	1.467139	-0.533020	0.629981
O12	O	1.967139	-0.033020	1.129981
O13	O	1.358835	-0.603690	0.320233
O14	O	1.858835	-0.103690	0.820233
O15	O	1.214617	-0.357557	0.496495
O16	O	1.714617	0.142443	0.996495
O17	O	1.487337	-0.630398	0.496446
O18	O	1.987337	-0.130398	0.996446
O19	O	1.311980	-0.377793	0.630008
O20	O	1.811980	0.122207	1.130008
O21	O	1.241274	-0.486077	0.320254
O22	O	1.741274	0.013923	0.820254
O23	O	1.078178	-0.493908	0.478238
O24	O	1.578178	0.006092	0.978238
O25	O	1.200666	-0.644162	0.774132
O26	O	1.700666	-0.144162	1.274132
O27	O	1.072165	-0.617454	0.597919
O28	O	1.572165	-0.117454	1.097919
O29	O	1.304044	-0.540851	0.787965
O30	O	1.804044	-0.040851	1.287965
O31	O	1.350898	-0.766748	0.478189
O32	O	1.850898	-0.266748	0.978189
O33	O	1.227323	-0.772682	0.597891
O34	O	1.727323	-0.272682	1.097891
C35	C	1.042539	-0.553569	0.536039
C36	C	1.542539	-0.053569	1.036039
C37	C	0.942575	-0.547122	0.529813
C38	C	1.442575	-0.047122	1.029813
C39	C	1.291228	-0.802349	0.536018
C40	C	1.791228	-0.302349	1.036018
C41	C	1.297734	-0.902316	0.529800
C42	C	1.797734	-0.402316	1.029800
C43	C	0.804768	-0.473639	0.458841
C44	C	1.304768	0.026361	0.958841
C45	C	0.898693	-0.479692	0.464686
C46	C	1.398693	0.020308	0.964686
C47	C	0.892524	-0.608504	0.589101
C48	C	1.392524	-0.108504	1.089101
C49	C	0.798598	-0.602452	0.583256
C50	C	1.298598	-0.102452	1.083256
C51	C	0.754724	-0.535018	0.518122
C52	C	1.254724	-0.035018	1.018122
C53	C	0.660797	-0.528970	0.512271
C54	C	1.160797	-0.028970	1.012271
C55	C	0.654629	-0.657778	0.636691
C56	C	1.154629	-0.157778	1.136691
C57	C	0.748554	-0.663830	0.642537
C58	C	1.248554	-0.163830	1.142537
C59	C	1.181181	-1.096388	0.642640
C60	C	1.681181	-0.596388	1.142640
C61	C	1.187291	-1.190316	0.636801
C62	C	1.687291	-0.690316	1.136801
C63	C	1.316058	-1.184101	0.512278
C64	C	1.816058	-0.684101	1.012278
C65	C	1.309948	-1.090173	0.518117
C66	C	1.809948	-0.590173	1.018117
C67	C	1.242508	-1.046320	0.583301
C68	C	1.742508	-0.546320	1.083301
C69	C	1.236404	-0.952391	0.589145
C70	C	1.736404	-0.452391	1.089145
C71	C	1.365166	-0.946177	0.464617
C72	C	1.865166	-0.446177	0.964617
C73	C	1.371275	-1.040105	0.458778
C74	C	1.871275	-0.540105	0.958778
C75	C	1.510783	-0.583881	0.565310
C76	C	2.010783	-0.083881	1.065310
C77	C	1.610746	-0.590352	0.571559
C78	C	2.110746	-0.090352	1.071559
C79	C	1.248375	-0.596480	0.819493
C80	C	1.748375	-0.096480	1.319493
C81	C	1.236516	-0.608320	0.934060
C82	C	1.736516	-0.108320	1.434060
C83	C	1.261145	-0.334133	0.565355
C84	C	1.761145	0.165867	1.065355
C85	C	1.254727	-0.234176	0.571623
C86	C	1.754727	0.265824	1.071623
C87	C	1.303973	-0.540957	0.282852
C88	C	1.803973	-0.040957	0.782852
C89	C	1.315990	-0.528875	0.168312
C90	C	1.815990	-0.028875	0.668312
C91	C	1.282378	-0.562482	0.991982
C92	C	1.782378	-0.062482	1.491982
C93	C	1.270122	-0.574719	1.110393
C94	C	1.770122	-0.074719	1.610393
H95	H	0.625076	-0.474062	0.459237
H96	H	1.125076	0.025938	0.959237
H97	H	1.137354	-1.231079	0.685123
H98	H	1.637354	-0.731079	1.185123
H99	H	1.370956	-1.219821	0.459198
H100	H	1.870956	-0.719821	0.959198
Cl101	Cl	0.803720	-0.748605	0.724407
Cl102	Cl	1.303720	-0.248605	1.224407
H103	H	1.330712	-0.514177	0.953908
H104	H	1.830712	-0.014177	1.453908
Cl105	Cl	0.947698	-0.693282	0.670960
Cl106	Cl	1.447698	-0.193282	1.170960
Cl107	Cl	1.195481	-0.649294	1.169162
Cl108	Cl	1.695481	-0.149294	1.669162
H109	H	0.613873	-0.707758	0.684962
H110	H	1.113873	-0.207758	1.184962
H111	H	1.188173	-0.656615	0.972134
H112	H	1.688173	-0.156615	1.472134
Cl113	Cl	0.961603	-0.402524	0.390160
Cl114	Cl	1.461603	0.097476	0.890160
Cl115	Cl	1.456054	-1.095243	0.376840
Cl116	Cl	1.956054	-0.595243	0.876840
H117	H	0.769045	-0.418733	0.405804
H118	H	1.269045	0.081267	0.905804
Cl119	Cl	1.151625	-0.897263	0.671092
Cl120	Cl	1.651625	-0.397263	1.171092
Cl121	Cl	1.096411	-1.041257	0.724594
Cl122	Cl	1.596411	-0.541257	1.224594
Cl123	Cl	1.442272	-0.883229	0.390021
Cl124	Cl	1.942272	-0.383229	0.890021
H125	H	1.364326	-0.480564	1.130244
H126	H	1.864326	0.019436	1.630244
