data_functionalizedCrystal
_audit_creation_method	'MofGen! by Chris Wilmer'
_symmetry_space_group_name_H-M	'P1'
_symmetry_Int_Tables_number	1
_symmetry_cell_setting	triclinic
loop_
_symmetry_equiv_pos_as_xyz
  x,y,z
_cell_length_a	15.944493
_cell_length_b	15.944564
_cell_length_c	14.421503
_cell_angle_alpha	89.996887
_cell_angle_beta	89.992936
_cell_angle_gamma	96.510511
loop_
_atom_site_label
_atom_site_type_symbol
_atom_site_fract_x
_atom_site_fract_y
_atom_site_fract_z
O1	O	1.114565	-0.108088	-0.077102
O2	O	0.870009	-0.121495	-0.077107
O3	O	0.998959	0.007484	-0.077095
O4	O	0.985614	-0.237067	-0.077113
O5	O	0.998938	0.007465	0.077128
O6	O	0.869987	-0.121514	0.077117
O7	O	1.114543	-0.108107	0.077122
Cu8	Cu	0.992263	-0.114812	0.091201
Cu9	Cu	0.992289	-0.114790	-0.091186
O10	O	0.985593	-0.237086	0.077110
C11	C	0.838703	-0.120957	0.000004
C12	C	0.745455	-0.119314	0.000003
C13	C	0.509698	-0.195234	-0.000003
C14	C	0.459127	-0.154302	0.076044
C15	C	0.574733	-0.116270	0.000005
C16	C	0.459153	-0.154265	-0.076008
C17	C	0.409824	-0.113335	0.000003
C18	C	0.525391	-0.075360	0.076115
C19	C	0.525420	-0.075334	-0.076006
C20	C	0.474882	-0.034345	0.000060
C21	C	0.669733	-0.117962	0.000007
C22	C	0.314827	-0.111636	0.000008
C23	C	0.998393	0.038768	0.000017
C24	C	0.996726	0.132013	0.000018
C25	C	0.912810	0.346851	0.000004
C26	C	0.951760	0.407867	0.076047
C27	C	0.993711	0.302738	0.000011
C28	C	0.951800	0.407869	-0.076005
C29	C	0.990793	0.467649	0.000001
C30	C	1.032683	0.362525	0.076117
C31	C	1.032712	0.362521	-0.076004
C32	C	1.071721	0.423519	0.000057
C33	C	0.995390	0.207736	0.000018
C34	C	0.989120	0.562649	0.000001
C35	C	1.145849	-0.108645	0.000008
C36	C	1.239097	-0.110288	0.000004
N37	N	0.992252	-0.114828	0.219482
C38	C	0.986148	0.731628	-0.000003
C39	C	0.987780	0.638379	-0.000006
N40	N	0.992307	-0.114768	-0.219467
C41	C	0.932614	-0.174441	0.469131
C42	C	1.008517	-0.190732	0.530933
C43	C	0.992272	-0.114808	0.408644
C44	C	0.916389	-0.098536	0.530935
C45	C	0.992285	-0.114790	0.591365
C46	C	1.068213	-0.131137	0.469086
C47	C	0.976035	-0.038908	0.469082
C48	C	1.051993	-0.055167	0.530856
C49	C	0.992264	-0.114820	0.303383
C50	C	0.992302	-0.114777	0.696624
H51	H	0.430183	-0.187658	0.140330
H52	H	0.917533	0.427960	0.140333
N53	N	0.957805	0.046081	0.433065
H54	H	0.900435	0.058314	0.455523
H55	H	0.958534	0.045548	0.363041
H56	H	0.852210	-0.084781	0.558105
H57	H	1.066864	0.342534	0.140475
N58	N	0.563552	-0.031226	0.161365
H59	H	0.626718	-0.032648	0.160855
H60	H	0.538765	-0.060845	0.218681
N61	N	1.160742	0.467464	0.000106
H62	H	1.191173	0.450991	0.057567
H63	H	1.159067	0.530593	-0.000474
N64	N	0.823869	0.302705	0.000094
H65	H	0.792990	0.319886	-0.056748
H66	H	0.793480	0.319086	0.057626
H67	H	0.459413	0.033726	0.000109
N68	N	0.563775	-0.031177	-0.161159
H69	H	0.539559	-0.061062	-0.218572
H70	H	0.626992	-0.032156	-0.160126
H71	H	0.430225	-0.187621	-0.140291
H72	H	1.102504	-0.004726	0.557789
H73	H	0.882215	-0.224911	0.442028
N74	N	1.153248	-0.149454	0.433262
H75	H	1.152711	-0.149372	0.363230
H76	H	1.165606	-0.206572	0.456375
N77	N	0.906473	0.434487	-0.161156
H78	H	0.846456	0.406309	-0.161085
H79	H	0.936494	0.417188	-0.218543
N80	N	0.530401	-0.285330	0.000073
H81	H	0.506151	-0.315067	0.057566
H82	H	0.593691	-0.285760	-0.000555
N83	N	1.078018	0.335875	-0.161158
H84	H	1.047412	0.352178	-0.218570
H85	H	1.079276	0.272695	-0.160114
H86	H	1.022263	-0.254912	0.558101
