data_functionalizedCrystal
_audit_creation_method	'MofGen! by Chris Wilmer'
_symmetry_space_group_name_H-M	'P1'
_symmetry_Int_Tables_number	1
_symmetry_cell_setting	triclinic
loop_
_symmetry_equiv_pos_as_xyz
  x,y,z
_cell_length_a	19.077105
_cell_length_b	12.645330
_cell_length_c	19.077314
_cell_angle_alpha	87.679807
_cell_angle_beta	89.892247
_cell_angle_gamma	87.714233
loop_
_atom_site_label
_atom_site_type_symbol
_atom_site_fract_x
_atom_site_fract_y
_atom_site_fract_z
Zn1	Zn	1.058315	-0.459569	-0.440449
Zn2	Zn	1.558315	0.040431	0.059551
Zn3	Zn	1.062966	-0.644236	-0.322950
Zn4	Zn	1.562966	-0.144236	0.177050
Zn5	Zn	0.945530	-0.460154	-0.318240
Zn6	Zn	1.445530	0.039846	0.181760
Zn7	Zn	0.940789	-0.629955	-0.435703
Zn8	Zn	1.440789	-0.129955	0.064297
O9	O	1.001900	-0.548479	-0.379335
O10	O	1.501900	-0.048479	0.120665
O11	O	1.157264	-0.489798	-0.428819
O12	O	1.657264	0.010202	0.071181
O13	O	1.051319	-0.626039	-0.223992
O14	O	1.551319	-0.126039	0.276008
O15	O	0.960529	-0.311731	-0.334466
O16	O	1.460529	0.188269	0.165534
O17	O	1.160682	-0.625472	-0.342493
O18	O	1.660682	-0.125472	0.157507
O19	O	1.043391	-0.311301	-0.424253
O20	O	1.543391	0.188699	0.075747
O21	O	0.965039	-0.490795	-0.220532
O22	O	1.465039	0.009205	0.279468
O23	O	0.846569	-0.476946	-0.329865
O24	O	1.346569	0.023054	0.170135
O25	O	0.952449	-0.601131	-0.534665
O26	O	1.452449	-0.101131	-0.034665
O27	O	0.843086	-0.601698	-0.416165
O28	O	1.343086	-0.101698	0.083835
O29	O	1.038794	-0.475949	-0.538152
O30	O	1.538794	0.024051	-0.038152
O31	O	1.046722	-0.790688	-0.337892
O32	O	1.546722	-0.290688	0.162108
O33	O	0.956959	-0.780195	-0.420731
O34	O	1.456959	-0.280195	0.079269
C35	C	0.819331	-0.537837	-0.371989
C36	C	1.319331	-0.037837	0.128011
C37	C	0.741226	-0.533309	-0.368863
C38	C	1.241226	-0.033309	0.131137
C39	C	0.702741	-0.596239	-0.412256
C40	C	1.202741	-0.096239	0.087744
C41	C	0.629353	-0.591971	-0.409322
C42	C	1.129353	-0.091971	0.090678
C43	C	0.594453	-0.524776	-0.362991
C44	C	1.094453	-0.024776	0.137009
C45	C	0.632944	-0.461838	-0.319597
C46	C	1.132944	0.038162	0.180403
C47	C	0.706330	-0.466102	-0.322535
C48	C	1.206330	0.033898	0.177465
C49	C	0.375163	-0.505042	-0.349398
C50	C	0.875163	-0.005042	0.150602
C51	C	0.301772	-0.500785	-0.346461
C52	C	0.801772	-0.000785	0.153539
C53	C	0.298186	-0.630916	-0.436187
C54	C	0.798186	-0.130916	0.063813
C55	C	0.371574	-0.635179	-0.439118
C56	C	0.871574	-0.135179	0.060882
C57	C	0.410059	-0.572237	-0.395726
C58	C	0.910059	-0.072237	0.104274
N59	N	0.519439	-0.520413	-0.359990
N60	N	1.019439	-0.020413	0.140010
N61	N	0.485071	-0.576595	-0.398732
N62	N	0.985071	-0.076595	0.101268
C63	C	1.001849	-0.823906	-0.379324
C64	C	1.501849	-0.323906	0.120676
C65	C	1.001891	-0.941737	-0.379345
C66	C	1.501891	-0.441737	0.120655
C67	C	0.945638	-1.102747	-0.431635
C68	C	1.445638	-0.602747	0.068365
C69	C	0.945369	-0.980182	-0.431449
C70	C	1.445369	-0.480182	0.068551
C71	C	0.984824	-0.989819	-0.304486
C72	C	1.484824	-0.489819	0.195514
C73	C	0.984480	-1.112377	-0.304803
C74	C	1.484480	-0.612377	0.195197
C75	C	1.075566	-1.111964	-0.401325
C76	C	1.575566	-0.611964	0.098675
C77	C	1.075044	-0.989229	-0.402926
C78	C	1.575044	-0.489229	0.097074
C79	C	1.185182	-0.559163	-0.386711
C80	C	1.685182	-0.059163	0.113289
C81	C	1.263286	-0.563716	-0.389854
C82	C	1.763286	-0.063716	0.110146
C83	C	0.994574	-0.536882	-0.562618
C84	C	1.494574	-0.036882	-0.062618
C85	C	0.991452	-0.531940	-0.640722
C86	C	1.491452	-0.031940	-0.140722
C87	C	1.001970	-0.271976	-0.379364
C88	C	1.501970	0.228024	0.120636
C89	C	1.001999	-0.154147	-0.379376
C90	C	1.501999	0.345853	0.120624
C91	C	1.034903	-0.600029	-0.679220
C92	C	1.534903	-0.100029	-0.179220
C93	C	1.031969	-0.595372	-0.752607
C94	C	1.531969	-0.095372	-0.252607
C95	C	0.985581	-0.522631	-0.787495
C96	C	1.485581	-0.022631	-0.287495
C97	C	0.942128	-0.454535	-0.748992
C98	C	1.442128	0.045465	-0.248992
C99	C	0.945065	-0.459187	-0.675606
C100	C	1.445065	0.040813	-0.175606
C101	C	0.971981	-0.501163	-1.006781
C102	C	1.471981	-0.001163	-0.506781
C103	C	0.969046	-0.496518	-1.080172
C104	C	1.469046	0.003482	-0.580172
C105	C	1.058888	-0.637355	-1.083782
C106	C	1.558888	-0.137355	-0.583782
C107	C	1.061819	-0.642005	-1.010394
C108	C	1.561819	-0.142005	-0.510394
C109	C	1.018369	-0.573905	-0.971898
C110	C	1.518369	-0.073905	-0.471898
N111	N	0.982579	-0.517872	-0.862508
N112	N	1.482579	-0.017872	-0.362508
N113	N	1.021374	-0.578659	-0.896886
N114	N	1.521374	-0.078659	-0.396886
C115	C	1.009238	-0.559956	-0.196768
C116	C	1.509238	-0.059956	0.303232
C117	C	1.012497	-0.564607	-0.118669
C118	C	1.512497	-0.064607	0.381331
H119	H	0.399985	-0.689899	-0.476843
H120	H	0.899985	-0.189899	0.023157
H121	H	1.117520	-1.145792	-0.363299
H122	H	1.617520	-0.645792	0.136701
Cl123	Cl	0.249802	-0.710040	-0.490732
Cl124	Cl	0.749802	-0.210040	0.009268
Cl125	Cl	1.100502	-1.156074	-0.484415
Cl126	Cl	1.600502	-0.656074	0.015585
H127	H	0.931272	-0.437276	-1.108575
H128	H	1.431272	0.062724	-0.608575
H129	H	1.094265	-0.692796	-1.115133
H130	H	1.594265	-0.192796	-0.615133
Cl131	Cl	1.093219	-0.691485	-0.635368
Cl132	Cl	1.593219	-0.191485	-0.135368
H133	H	0.936598	-0.445715	-0.975446
H134	H	1.436598	0.054285	-0.475446
H135	H	0.604522	-0.407122	-0.281877
H136	H	1.104522	0.092878	0.218123
H137	H	1.067352	-0.650818	-0.783949
H138	H	1.567352	-0.150818	-0.283949
Cl139	Cl	0.883813	-0.363084	-0.792852
Cl140	Cl	1.383813	0.136916	-0.292852
H141	H	0.909685	-0.403739	-0.644263
H142	H	1.409685	0.096261	-0.144263
Cl143	Cl	0.746608	-0.680723	-0.470499
Cl144	Cl	1.246608	-0.180723	0.029501
H145	H	1.087969	-0.957533	-0.458033
H146	H	1.587969	-0.457533	0.041967
Cl147	Cl	0.580974	-0.671088	-0.463875
Cl148	Cl	1.080974	-0.171088	0.036125
H149	H	0.931713	-0.957107	-0.285970
H150	H	1.431713	-0.457107	0.214030
H151	H	0.273358	-0.446054	-0.308738
H152	H	0.773358	0.053946	0.191262
H153	H	1.099582	-0.701254	-0.981993
H154	H	1.599582	-0.201254	-0.481993
H155	H	1.119009	-0.963361	-0.367872
H156	H	1.619009	-0.463361	0.132128
H157	H	0.891377	-1.131241	-0.417033
H158	H	1.391377	-0.631241	0.082967
Cl159	Cl	0.861071	-0.931307	-0.408637
Cl160	Cl	1.361071	-0.431307	0.091363
H161	H	0.737664	-0.414851	-0.287204
H162	H	1.237664	0.085149	0.212796
Cl163	Cl	0.423534	-0.425911	-0.294850
Cl164	Cl	0.923534	0.074089	0.205150
Cl165	Cl	0.961397	-1.143931	-0.517464
Cl166	Cl	1.461397	-0.643931	-0.017464
Cl167	Cl	0.961318	-0.929421	-0.517005
Cl168	Cl	1.461318	-0.429421	-0.017005
H169	H	1.024705	-0.965501	-0.264353
H170	H	1.524705	-0.465501	0.235647
H171	H	1.023912	-1.146866	-0.264377
H172	H	1.523912	-0.646866	0.235623
Cl173	Cl	0.901589	-1.153357	-0.276631
Cl174	Cl	1.401589	-0.653357	0.223369
