data_functionalizedCrystal
_audit_creation_method	'MofGen! by Chris Wilmer'
_symmetry_space_group_name_H-M	'P1'
_symmetry_Int_Tables_number	1
_symmetry_cell_setting	triclinic
loop_
_symmetry_equiv_pos_as_xyz
  x,y,z
_cell_length_a	10.540510
_cell_length_b	11.792241
_cell_length_c	10.868271
_cell_angle_alpha	89.994719
_cell_angle_beta	89.995447
_cell_angle_gamma	84.353363
loop_
_atom_site_label
_atom_site_type_symbol
_atom_site_fract_x
_atom_site_fract_y
_atom_site_fract_z
O1	O	1.685388	0.159796	-0.102331
O2	O	1.315921	0.174902	-0.102331
O3	O	1.509621	0.002201	-0.102322
O4	O	1.491689	0.332497	-0.102340
O5	O	1.509605	0.002194	0.102322
O6	O	1.315905	0.174895	0.102313
O7	O	1.685372	0.159789	0.102314
Zn8	Zn	1.500636	0.167341	0.134805
Zn9	Zn	1.500657	0.167350	-0.134823
O10	O	1.491673	0.332490	0.102305
C11	C	1.508486	-0.040096	-0.000000
C12	C	1.505115	-0.166119	-0.000002
C13	C	1.268613	0.173773	-0.000009
C14	C	1.127674	0.170405	-0.000009
C15	C	1.498916	-0.396846	-0.000022
C16	C	1.502360	-0.268453	-0.000011
C17	C	0.909828	0.290380	-0.000486
C18	C	1.056412	0.293972	-0.000017
C19	C	1.083111	0.107146	0.116853
C20	C	0.936359	0.104429	0.116944
C21	C	0.936580	0.101863	-0.115775
C22	C	1.082902	0.107725	-0.117313
C23	C	1.732680	0.160918	-0.000011
C24	C	1.873619	0.164286	-0.000019
C25	C	1.492807	0.374787	-0.000020
C26	C	1.496179	0.500809	-0.000026
N27	N	1.500631	0.167334	0.318820
N28	N	1.500673	0.167348	-0.318837
C29	C	1.500651	0.167347	0.569826
C30	C	1.500636	0.167343	0.430148
H31	H	0.867725	0.338523	-0.084295
O32	O	0.857711	0.347297	0.099027
C33	C	0.788588	0.273673	0.169044
H34	H	0.826053	0.181501	0.149166
H35	H	0.800500	0.292251	0.271104
H36	H	0.683319	0.287733	0.143481
O37	O	1.090067	0.353187	0.100225
C38	C	1.052219	0.299071	0.207986
H39	H	1.042197	0.205553	0.187560
H40	H	1.127077	0.305456	0.282711
H41	H	0.956780	0.342445	0.240827
O42	O	0.888365	0.155893	0.221270
C43	C	0.941766	0.097115	0.324858
H44	H	1.036430	0.048149	0.298201
H45	H	0.958440	0.160785	0.400672
H46	H	0.873614	0.034885	0.359468
H47	H	0.913665	0.012008	0.122257
O48	O	0.910459	-0.008798	-0.116942
C49	C	0.843208	-0.030322	-0.225243
H50	H	0.863335	0.034601	-0.298656
H51	H	0.875284	-0.119838	-0.259816
H52	H	0.736626	-0.023135	-0.204833
H53	H	1.132264	0.017511	-0.124365
H54	H	0.893912	0.140834	-0.204351
H55	H	1.130797	0.016178	0.121205
O56	O	1.091153	0.353200	-0.099854
C57	C	1.030540	0.465169	-0.095383
H58	H	1.003535	0.487989	0.003767
H59	H	1.098201	0.527077	-0.131688
H60	H	0.940873	0.470985	-0.154613
O61	O	1.119902	0.159388	0.220641
C62	C	1.200453	0.081621	0.290673
H63	H	1.245750	0.011326	0.228112
H64	H	1.278410	0.128106	0.335295
H65	H	1.142338	0.042549	0.365241
H66	H	1.111377	0.153751	-0.203767
