data_functionalizedCrystal
_audit_creation_method	'MofGen! by Chris Wilmer'
_symmetry_space_group_name_H-M	'P1'
_symmetry_Int_Tables_number	1
_symmetry_cell_setting	triclinic
loop_
_symmetry_equiv_pos_as_xyz
  x,y,z
_cell_length_a	15.944551
_cell_length_b	16.109301
_cell_length_c	14.586319
_cell_angle_alpha	89.998582
_cell_angle_beta	89.994700
_cell_angle_gamma	83.480109
loop_
_atom_site_label
_atom_site_type_symbol
_atom_site_fract_x
_atom_site_fract_y
_atom_site_fract_z
O1	O	-0.107967	-1.103166	0.076184
O2	O	0.225366	-0.769833	0.409518
O3	O	0.558700	-0.436500	0.742851
O4	O	-0.121403	-0.861109	0.076199
O5	O	0.211930	-0.527776	0.409532
O6	O	0.545264	-0.194442	0.742866
O7	O	0.007592	-0.988748	0.076183
O8	O	0.340925	-0.655414	0.409516
O9	O	0.674259	-0.322081	0.742850
O10	O	-0.236962	-0.975528	0.076200
O11	O	0.096371	-0.642194	0.409534
O12	O	0.429705	-0.308861	0.742867
O13	O	0.007595	-0.988737	-0.076298
O14	O	0.340928	-0.655404	0.257036
O15	O	0.674262	-0.322071	0.590369
O16	O	-0.121400	-0.861099	-0.076282
O17	O	0.211933	-0.527765	0.257052
O18	O	0.545267	-0.194432	0.590385
O19	O	-0.107964	-1.103156	-0.076296
O20	O	0.225370	-0.769823	0.257037
O21	O	0.558703	-0.436490	0.590370
Cu22	Cu	-0.114682	-0.982126	-0.090212
Cu23	Cu	0.218652	-0.648793	0.243122
Cu24	Cu	0.551985	-0.315460	0.576455
Cu25	Cu	-0.114685	-0.982139	0.090114
Cu26	Cu	0.218648	-0.648805	0.423448
Cu27	Cu	0.551981	-0.315472	0.756781
O28	O	-0.236959	-0.975517	-0.076280
O29	O	0.096374	-0.642184	0.257053
O30	O	0.429708	-0.308851	0.590386
C31	C	-0.120857	-0.830129	-0.000039
C32	C	0.212476	-0.496795	0.333294
C33	C	0.545809	-0.163462	0.666627
C34	C	-0.119226	-0.737833	-0.000034
C35	C	0.214108	-0.404499	0.333299
C36	C	0.547441	-0.071166	0.666633
C37	C	0.038887	-0.988194	-0.000057
C38	C	0.372221	-0.654860	0.333276
C39	C	0.705554	-0.321527	0.666609
C40	C	0.132133	-0.986548	-0.000058
C41	C	0.465466	-0.653215	0.333275
C42	C	0.798799	-0.319882	0.666609
C43	C	-0.268254	-0.976071	-0.000038
C44	C	0.065079	-0.642738	0.333295
C45	C	0.398412	-0.309405	0.666629
C46	C	-0.361500	-0.977717	-0.000031
C47	C	-0.028166	-0.644383	0.333302
C48	C	0.305167	-0.311050	0.666635
C49	C	0.346962	-0.903499	-0.000040
C50	C	0.680295	-0.570166	0.333293
C51	C	1.013629	-0.236832	0.666627
C52	C	0.407994	-0.942059	-0.075225
C53	C	0.741327	-0.608726	0.258109
C54	C	1.074660	-0.275393	0.591442
C55	C	0.302858	-0.983572	-0.000051
C56	C	0.636191	-0.650238	0.333283
C57	C	0.969524	-0.316905	0.666616
C58	C	0.407974	-0.942088	0.075109
C59	C	0.741307	-0.608755	0.408443
C60	C	1.074641	-0.275422	0.741776
C61	C	0.467769	-0.980691	-0.000040
C62	C	0.801103	-0.647357	0.333294
C63	C	1.134436	-0.314024	0.666627
C64	C	0.362661	-1.022154	-0.075297
C65	C	0.695994	-0.688821	0.258036
C66	C	1.029328	-0.355487	0.591369
C67	C	0.362635	-1.022172	0.075104
C68	C	0.695968	-0.688839	0.408438
C69	C	1.029302	-0.355505	0.741771
C70	C	0.423649	-1.060790	-0.000099
C71	C	0.756982	-0.727457	0.333235
C72	C	1.090316	-0.394124	0.666568
C73	C	0.207856	-0.985229	-0.000058
C74	C	0.541189	-0.651896	0.333276
C75	C	0.874523	-0.318563	0.666609
C76	C	0.562770	-0.979039	-0.000039
C77	C	0.896103	-0.645706	0.333294
C78	C	1.229437	-0.312373	0.666628
C79	C	-0.108510	-1.134136	-0.000056
C80	C	0.224824	-0.800803	0.333277
C81	C	0.558157	-0.467470	0.666611
C82	C	-0.110141	-1.226432	-0.000055
C83	C	0.223192	-0.893099	0.333278
C84	C	0.556525	-0.559766	0.666611
N85	N	-0.114679	-0.982124	-0.217044
N86	N	0.218655	-0.648791	0.116290
N87	N	0.551988	-0.315457	0.449623
C88	C	-0.191975	-0.515584	-0.000040
C89	C	0.141359	-0.182251	0.333294
C90	C	0.474692	0.151083	0.666627
C91	C	-0.190435	-0.428863	-0.000046
C92	C	0.142898	-0.095530	0.333288
C93	C	0.476232	0.237804	0.666621
C94	C	-0.037387	-0.448688	-0.000053
C95	C	0.295947	-0.115355	0.333281
C96	C	0.629280	0.217979	0.666614
C97	C	-0.038927	-0.535407	-0.000053
C98	C	0.294406	-0.202074	0.333280
C99	C	0.627740	0.131260	0.666614
C100	C	-0.116224	-0.568853	-0.000042
C101	C	0.217110	-0.235519	0.333291
C102	C	0.550443	0.097814	0.666625
C103	C	-0.113143	-0.395412	-0.000047
C104	C	0.220190	-0.062079	0.333286
C105	C	0.553523	0.271254	0.666619
C106	C	-0.111473	-0.301386	-0.000054
C107	C	0.221860	0.031947	0.333279
C108	C	0.555193	0.365281	0.666613
C109	C	-0.117894	-0.662885	-0.000037
C110	C	0.215439	-0.329552	0.333296
C111	C	0.548773	0.003782	0.666630
C112	C	-0.057578	-1.038665	-0.548044
C113	C	0.275755	-0.705331	-0.214711
C114	C	0.609088	-0.371998	0.118622
C115	C	-0.057579	-1.038662	-0.452063
C116	C	0.275755	-0.705329	-0.118730
C117	C	0.609088	-0.371996	0.214603
C118	C	-0.171788	-0.925604	-0.452060
C119	C	0.161545	-0.592271	-0.118726
C120	C	0.494879	-0.258938	0.214607
C121	C	-0.171791	-0.925611	-0.548039
C122	C	0.161542	-0.592278	-0.214706
C123	C	0.494876	-0.258944	0.118628
C124	C	-0.114681	-0.982140	-0.596029
C125	C	0.218652	-0.648807	-0.262696
C126	C	0.551985	-0.315473	0.070638
C127	C	-0.114679	-0.982131	-0.404068
C128	C	0.218654	-0.648798	-0.070735
C129	C	0.551988	-0.315465	0.262598
C130	C	-0.114680	-0.982129	-0.300001
C131	C	0.218654	-0.648796	0.033332
C132	C	0.551987	-0.315462	0.366666
C133	C	-0.114681	-0.982144	-0.700103
C134	C	0.218652	-0.648811	-0.366769
C135	C	0.551985	-0.315477	-0.033436
N136	N	-0.114682	-0.982148	0.216946
N137	N	0.218652	-0.648814	0.550280
N138	N	0.551985	-0.315481	0.883613
H139	H	0.313632	-0.837035	-0.000111
H140	H	0.646966	-0.503702	0.333222
H141	H	0.980299	-0.170368	0.666556
Cl142	Cl	0.439025	-0.889766	-0.173355
Cl143	Cl	0.772359	-0.556433	0.159979
Cl144	Cl	1.105692	-0.223100	0.493312
Cl145	Cl	0.056311	-0.602379	-0.000064
Cl146	Cl	0.389644	-0.269045	0.333270
Cl147	Cl	0.722977	0.064288	0.666603
Cl148	Cl	0.331822	-1.074395	-0.173541
Cl149	Cl	0.665156	-0.741062	0.159792
Cl150	Cl	0.998489	-0.407728	0.493126
H151	H	0.456830	-1.127313	-0.000145
H152	H	0.790163	-0.793979	0.333188
H153	H	1.123496	-0.460646	0.666522
H154	H	-0.252119	-0.385495	-0.000045
H155	H	0.081214	-0.052161	0.333288
H156	H	0.414548	0.281172	0.666621
H157	H	-0.218284	-0.879579	-0.412977
H158	H	0.115049	-0.546245	-0.079643
H159	H	0.448382	-0.212912	0.253690
H160	H	0.342515	-1.056015	0.138666
H161	H	0.675848	-0.722681	0.472000
H162	H	1.009181	-0.389348	0.805333
H163	H	0.428038	-0.908215	0.138677
H164	H	0.761372	-0.574881	0.472010
H165	H	1.094705	-0.241548	0.805343
Cl166	Cl	0.014209	-1.109726	-0.391742
Cl167	Cl	0.347543	-0.776393	-0.058409
Cl168	Cl	0.680876	-0.443060	0.274924
Cl169	Cl	-0.289147	-0.557627	-0.000031
Cl170	Cl	0.044186	-0.224294	0.333302
Cl171	Cl	0.377520	0.109040	0.666635
H172	H	-0.011077	-1.084695	-0.587116
H173	H	0.322256	-0.751362	-0.253782
H174	H	0.655589	-0.418028	0.079551
Cl175	Cl	-0.243587	-0.854550	-0.608369
Cl176	Cl	0.089746	-0.521217	-0.275035
Cl177	Cl	0.423079	-0.187884	0.058298
H178	H	0.025546	-0.421446	-0.000067
H179	H	0.358879	-0.088112	0.333266
H180	H	0.692212	0.245221	0.666600
