data_functionalizedCrystal
_audit_creation_method	'MofGen! by Chris Wilmer'
_symmetry_space_group_name_H-M	'P1'
_symmetry_Int_Tables_number	1
_symmetry_cell_setting	triclinic
loop_
_symmetry_equiv_pos_as_xyz
  x,y,z
_cell_length_a	12.594517
_cell_length_b	12.594516
_cell_length_c	18.101389
_cell_angle_alpha	90.013388
_cell_angle_beta	90.020202
_cell_angle_gamma	90.017605
loop_
_atom_site_label
_atom_site_type_symbol
_atom_site_fract_x
_atom_site_fract_y
_atom_site_fract_z
Zn1	Zn	1.627230	-0.423870	0.418783
Zn2	Zn	1.627121	-0.601838	0.294953
Zn3	Zn	1.449240	-0.423872	0.294953
Zn4	Zn	1.449210	-0.601805	0.418750
O5	O	1.538200	-0.512846	0.356860
O6	O	1.776161	-0.447491	0.402370
O7	O	1.603491	-0.578244	0.191320
O8	O	1.472910	-0.274926	0.311394
O9	O	1.776081	-0.578243	0.311392
O10	O	1.603678	-0.274924	0.402371
O11	O	1.472803	-0.447494	0.191320
O12	O	1.300290	-0.447462	0.311362
O13	O	1.472857	-0.578187	0.522387
O14	O	1.300268	-0.578189	0.402314
O15	O	1.603648	-0.447459	0.522412
O16	O	1.603462	-0.750779	0.311360
O17	O	1.472751	-0.750755	0.402314
C18	C	1.261659	-0.512823	0.356835
C19	C	1.143354	-0.512839	0.356842
C20	C	1.538120	-0.789387	0.356850
C21	C	1.538183	-0.907692	0.356870
C22	C	1.003318	-0.441658	0.307486
C23	C	1.074175	-0.415748	0.375063
C24	C	1.074069	-0.538701	0.289272
C25	C	1.003424	-0.486920	0.424509
C26	C	1.003313	-0.609918	0.338672
C27	C	1.074137	-0.584045	0.406296
C28	C	1.467148	-1.047735	0.406315
C29	C	1.564182	-0.976831	0.424485
C30	C	1.441159	-0.977025	0.338732
C31	C	1.635442	-1.047574	0.375103
C32	C	1.512354	-1.047774	0.289319
C33	C	1.609455	-0.976902	0.307464
C34	C	1.815821	-0.512870	0.356885
C35	C	1.934126	-0.512880	0.356896
C36	C	1.538262	-0.512819	0.550022
C37	C	1.538288	-0.512808	0.632336
C38	C	1.538309	-0.235225	0.356886
C39	C	1.538356	-0.116920	0.356897
C40	C	1.538200	-0.512796	0.164449
C41	C	1.538380	-0.512508	0.082135
C42	C	1.538350	-0.512608	0.931427
C43	C	1.455776	-0.594597	0.900086
C44	C	1.456000	-0.594978	0.814468
C45	C	1.538318	-0.512707	0.783044
C46	C	1.650467	-0.543155	0.814146
C47	C	1.650007	-0.543693	0.899791
C48	C	1.509750	-0.399989	0.899846
C49	C	1.507255	-0.400640	0.814195
C50	C	1.538307	-0.512761	0.699185
C51	C	1.538368	-0.512557	1.015286
H52	H	1.105282	-0.333664	0.390468
O53	O	0.966440	-0.460875	0.492723
C54	C	0.904125	-0.544889	0.520473
H55	H	0.873147	-0.594843	0.472561
H56	H	0.834263	-0.511144	0.552891
H57	H	0.954571	-0.596615	0.558406
H58	H	1.490400	-1.078958	0.232197
O59	O	1.356236	-0.572290	0.924675
C60	C	1.316785	-0.659549	0.965006
H61	H	1.360248	-0.734767	0.947349
H62	H	1.228222	-0.668991	0.953739
H63	H	1.329980	-0.645449	1.026543
H64	H	1.407077	-1.078832	0.448148
O65	O	1.343220	-0.940104	0.320272
C66	C	1.315348	-0.977829	0.249532
H67	H	1.390416	-0.998731	0.217513
H68	H	1.269571	-0.913671	0.218576
H69	H	1.263521	-1.051589	0.255305
O70	O	1.590165	-0.939697	0.492693
C71	C	1.514998	-0.975802	0.544645
H72	H	1.437539	-0.995773	0.515145
H73	H	1.499984	-0.911020	0.587376
H74	H	1.546689	-1.049805	0.573425
H75	H	1.717592	-1.078437	0.390522
H76	H	1.372838	-0.575924	0.793439
O77	O	1.725826	-0.475570	0.924658
C78	C	1.726159	-0.475431	1.002548
H79	H	1.645484	-0.502981	1.023704
H80	H	1.742757	-0.391662	1.023454
H81	H	1.790504	-0.531534	1.023471
H82	H	1.713643	-0.485314	0.793794
O83	O	1.681429	-0.940073	0.257678
C84	C	1.783637	-0.976235	0.277080
H85	H	1.785623	-0.995958	0.338526
H86	H	1.844441	-0.911584	0.264683
H87	H	1.803496	-1.050400	0.243720
H88	H	1.675128	-0.624606	0.792708
H89	H	1.474473	-0.677565	0.921616
O90	O	1.478464	-0.694625	0.790127
C91	C	1.400762	-0.765856	0.816356
H92	H	1.361587	-0.731358	0.867798
H93	H	1.439742	-0.844894	0.830695
H94	H	1.338126	-0.778918	0.771785
O95	O	1.679072	-0.641908	0.923549
C96	C	1.781716	-0.665679	0.897258
H97	H	1.799113	-0.615778	0.846138
H98	H	1.786384	-0.753511	0.882375
H99	H	1.842650	-0.646974	0.941998
O100	O	1.413849	-0.367066	0.925645
C101	C	1.371128	-0.445355	0.972710
H102	H	1.407884	-0.525658	0.958938
H103	H	1.281450	-0.449578	0.964653
H104	H	1.389503	-0.424138	1.032595
O105	O	0.966276	-0.707893	0.320370
C106	C	1.003909	-0.783076	0.371789
H107	H	1.079017	-0.751559	0.399291
H108	H	1.022552	-0.860659	0.342052
H109	H	0.940592	-0.797806	0.415600
O110	O	1.408808	-0.373377	0.789847
C111	C	1.368124	-0.455267	0.744875
H112	H	1.436575	-0.504151	0.721644
H113	H	1.320739	-0.419209	0.697441
H114	H	1.314162	-0.508657	0.779173
O115	O	1.573893	-0.324028	0.788642
C116	C	1.650391	-0.370291	0.741782
H117	H	1.658739	-0.458223	0.755523
H118	H	1.730047	-0.328967	0.750111
H119	H	1.624248	-0.361093	0.681822
O120	O	1.581409	-0.327112	0.924151
C121	C	1.579542	-0.323544	1.001992
H122	H	1.499741	-0.354144	1.022722
H123	H	1.591398	-0.238176	1.021260
H124	H	1.645974	-0.375423	1.024937
O125	O	1.110965	-0.564661	0.221018
C126	C	1.074901	-0.489364	0.169138
H127	H	1.000400	-0.448880	0.191147
H128	H	1.055763	-0.530985	0.114806
H129	H	1.139375	-0.427343	0.159507
H130	H	1.105034	-0.644258	0.448106
O131	O	0.966263	-0.369632	0.257811
C132	C	1.002395	-0.267411	0.277269
H133	H	1.022315	-0.265527	0.338694
H134	H	0.937649	-0.206679	0.265006
H135	H	1.076434	-0.247368	0.243843
