data_functionalizedCrystal
_audit_creation_method	'MofGen! by Chris Wilmer'
_symmetry_space_group_name_H-M	'P1'
_symmetry_Int_Tables_number	1
_symmetry_cell_setting	triclinic
loop_
_symmetry_equiv_pos_as_xyz
  x,y,z
_cell_length_a	10.654550
_cell_length_b	16.109301
_cell_length_c	14.586319
_cell_angle_alpha	89.999213
_cell_angle_beta	89.999536
_cell_angle_gamma	96.026795
loop_
_atom_site_label
_atom_site_type_symbol
_atom_site_fract_x
_atom_site_fract_y
_atom_site_fract_z
O1	O	-0.161419	1.104091	-0.076174
O2	O	0.338581	1.604091	0.423826
O3	O	-0.181507	0.862148	-0.076187
O4	O	0.318493	1.362148	0.423813
O5	O	0.011352	0.988682	-0.076184
O6	O	0.511352	1.488682	0.423816
O7	O	-0.354278	0.977557	-0.076177
O8	O	0.145722	1.477557	0.423823
O9	O	0.011354	0.988673	0.076297
O10	O	0.511354	1.488673	0.576297
O11	O	-0.181504	0.862139	0.076294
O12	O	0.318496	1.362139	0.576294
O13	O	-0.161416	1.104082	0.076307
O14	O	0.338584	1.604082	0.576307
Cu15	Cu	-0.171460	0.983110	0.090223
Cu16	Cu	0.328540	1.483110	0.590223
Cu17	Cu	-0.171463	0.983120	-0.090103
Cu18	Cu	0.328537	1.483120	0.409897
O19	O	-0.354275	0.977548	0.076304
O20	O	0.145725	1.477548	0.576304
C21	C	-0.180692	0.831164	0.000051
C22	C	0.319308	1.331164	0.500051
C23	C	-0.178253	0.738854	0.000046
C24	C	0.321747	1.238854	0.500046
C25	C	-0.287019	0.517228	0.000059
C26	C	0.212981	1.017228	0.500059
C27	C	-0.284717	0.430494	0.000064
C28	C	0.215283	0.930494	0.500064
C29	C	-0.055896	0.449008	0.000056
C30	C	0.444104	0.949008	0.500056
C31	C	-0.058199	0.535741	0.000057
C32	C	0.441801	1.035741	0.500057
C33	C	-0.173764	0.569848	0.000053
C34	C	0.326236	1.069848	0.500053
C35	C	-0.169159	0.396382	0.000059
C36	C	0.330841	0.896382	0.500059
C37	C	-0.166662	0.302341	0.000065
C38	C	0.333338	0.802341	0.500065
C39	C	-0.176262	0.663895	0.000049
C40	C	0.323738	1.163895	0.500049
C41	C	-0.401063	0.978369	0.000064
C42	C	0.098937	1.478369	0.500064
C43	C	-0.540473	0.980813	0.000067
C44	C	-0.040473	1.480813	0.500067
C45	C	-0.620970	0.906312	0.000061
C46	C	-0.120970	1.406312	0.500061
C47	C	-0.751959	0.908613	0.000046
C48	C	-0.251959	1.408613	0.500046
C49	C	-0.721943	1.059924	0.000048
C50	C	-0.221943	1.559924	0.500048
C51	C	-0.590956	1.057621	0.000056
C52	C	-0.090956	1.557621	0.500056
C53	C	-0.948994	0.820872	-0.053389
C54	C	-0.448994	1.320872	0.446611
C55	C	-1.029495	0.746367	-0.053380
C56	C	-0.529495	1.246367	0.446620
C57	C	-1.000240	0.678822	0.000053
C58	C	-0.500240	1.178822	0.500053
C59	C	-0.890486	0.685780	0.053498
C60	C	-0.390486	1.185780	0.553498
C61	C	-0.809991	0.760287	0.053497
C62	C	-0.309991	1.260287	0.553497
C63	C	-0.839245	0.827828	0.000043
C64	C	-0.339245	1.327828	0.500043
C65	C	-0.393920	1.145357	0.053500
C66	C	0.106080	1.645357	0.553500
C67	C	-0.313423	1.219865	0.053505
C68	C	0.186577	1.719865	0.553505
C69	C	-0.342674	1.287416	0.000078
C70	C	0.157326	1.787416	0.500078
C71	C	-0.452430	1.280466	-0.053354
C72	C	0.047570	1.780466	0.446646
C73	C	-0.532928	1.205959	-0.053359
C74	C	-0.032928	1.705959	0.446641
C75	C	-0.503668	1.138407	0.000066
C76	C	-0.003668	1.638407	0.500066
C77	C	0.058140	0.987861	0.000054
C78	C	0.558140	1.487861	0.500054
C79	C	0.197550	0.985417	0.000045
C80	C	0.697550	1.485417	0.500045
C81	C	-0.162231	1.135066	0.000067
C82	C	0.337769	1.635066	0.500067
C83	C	-0.164671	1.227376	0.000066
C84	C	0.335329	1.727376	0.500066
N85	N	-0.171457	0.983108	0.217055
N86	N	0.328543	1.483108	0.717055
N87	N	-0.171457	0.983128	-0.216935
N88	N	0.328543	1.483128	0.283065
C89	C	-0.086088	1.039156	0.452063
C90	C	0.413912	1.539156	0.952063
C91	C	-0.086084	1.039159	0.548044
C92	C	0.413916	1.539159	1.048044
C93	C	-0.256830	0.927074	0.548051
C94	C	0.243170	1.427074	1.048051
C95	C	-0.256826	0.927068	0.452071
C96	C	0.243174	1.427068	0.952071
C97	C	-0.171456	0.983114	0.404080
C98	C	0.328544	1.483114	0.904080
C99	C	-0.171457	0.983122	0.596040
C100	C	0.328543	1.483122	1.096040
C101	C	-0.171455	0.983124	0.700108
C102	C	0.328545	1.483124	1.200108
C103	C	-0.171457	0.983111	0.300006
C104	C	0.328543	1.483111	0.800006
H105	H	0.034032	0.578586	0.000055
H106	H	0.534032	1.078586	0.500055
Cl107	Cl	-0.427100	0.364347	0.000072
Cl108	Cl	0.072900	0.864347	0.500072
H109	H	0.038193	0.421227	0.000065
H110	H	0.538193	0.921227	0.500065
Cl111	Cl	-0.557510	0.809753	0.000070
Cl112	Cl	-0.057510	1.309753	0.500070
H113	H	-0.381119	0.544996	0.000063
H114	H	0.118881	1.044996	0.500063
H115	H	-0.720631	0.765951	0.097010
H116	H	-0.220631	1.265951	0.597010
H117	H	-0.866685	0.630780	0.097015
H118	H	-0.366685	1.130780	0.597015
H119	H	-1.065795	0.618159	0.000060
H120	H	-0.565795	1.118159	0.500060
H121	H	-0.224050	1.225518	0.097013
H122	H	0.275950	1.725518	0.597013
H123	H	-0.277125	1.348085	0.000094
H124	H	0.222875	1.848085	0.500094
Cl125	Cl	-0.489217	1.365392	-0.120515
Cl126	Cl	0.010783	1.865392	0.379485
Cl127	Cl	-1.167465	0.737620	-0.120569
Cl128	Cl	-0.667465	1.237620	0.379431
H129	H	-0.972803	0.875858	-0.096926
H130	H	-0.472803	1.375858	0.403074
Cl131	Cl	-0.364152	0.856622	0.608387
Cl132	Cl	0.135848	1.356622	1.108387
H133	H	-0.016568	1.084792	0.587109
H134	H	0.483432	1.584792	1.087109
H135	H	-0.763063	1.122458	0.000049
H136	H	-0.263063	1.622458	0.500049
Cl137	Cl	-0.670911	1.197223	-0.120531
Cl138	Cl	-0.170911	1.697223	0.379469
H139	H	-0.370090	1.090353	0.097005
H140	H	0.129910	1.590353	0.597005
Cl141	Cl	0.021239	1.109611	0.391735
Cl142	Cl	0.521239	1.609611	0.891735
H143	H	-0.326344	0.881428	0.413001
H144	H	0.173656	1.381428	0.913001
