data_functionalizedCrystal
_audit_creation_method	'MofGen! by Chris Wilmer'
_symmetry_space_group_name_H-M	'P1'
_symmetry_Int_Tables_number	1
_symmetry_cell_setting	triclinic
loop_
_symmetry_equiv_pos_as_xyz
  x,y,z
_cell_length_a	27.732048
_cell_length_b	27.732048
_cell_length_c	22.610064
_cell_angle_alpha	89.999096
_cell_angle_beta	89.997337
_cell_angle_gamma	82.642655
loop_
_atom_site_label
_atom_site_type_symbol
_atom_site_fract_x
_atom_site_fract_y
_atom_site_fract_z
O1	O	0.640931	0.057510	-0.049115
O2	O	1.140931	0.557510	0.450885
O3	O	0.500137	0.066256	-0.049133
O4	O	1.000137	0.566256	0.450867
O5	O	0.574907	-0.008514	-0.049112
O6	O	1.074907	0.491486	0.450888
O7	O	0.566161	0.132280	-0.049136
O8	O	1.066161	0.632280	0.450864
O9	O	0.574893	-0.008503	0.049257
O10	O	1.074893	0.491497	0.549257
O11	O	0.500124	0.066267	0.049236
O12	O	1.000124	0.566267	0.549236
O13	O	0.640917	0.057521	0.049255
O14	O	1.140917	0.557521	0.549255
Zn15	Zn	0.570518	0.061896	0.064863
Zn16	Zn	1.070518	0.561896	0.564863
Zn17	Zn	0.570536	0.061881	-0.064742
Zn18	Zn	1.070536	0.561881	0.435258
O19	O	0.566148	0.132291	0.049233
O20	O	1.066148	0.632291	0.549233
C21	C	0.482124	0.066078	0.000049
C22	C	0.982124	0.566078	0.500049
C23	C	0.428469	0.065525	0.000042
C24	C	0.928469	0.565525	0.500042
C25	C	0.089654	0.106229	0.000061
C26	C	0.589654	0.606229	0.500061
C27	C	-0.112006	0.104178	0.000067
C28	C	0.387994	0.604178	0.500067
O29	O	-0.143262	0.141398	0.000086
O30	O	0.356738	0.641398	0.500086
N31	N	-0.131130	0.059843	0.000073
N32	N	0.368870	0.559843	0.500073
C33	C	-0.099835	0.016017	0.000082
C34	C	0.400165	0.516017	0.500082
O35	O	-0.120728	-0.021740	0.000094
O36	O	0.379272	0.478260	0.500094
C37	C	0.101824	0.018068	0.000081
C38	C	0.601824	0.518068	0.500081
C39	C	0.120944	0.062407	0.000068
C40	C	0.620944	0.562407	0.500068
C41	C	0.108775	0.150563	0.000049
C42	C	0.608775	0.650563	0.500049
C43	C	0.159187	0.151076	0.000045
C44	C	0.659187	0.651076	0.500045
C45	C	0.190477	0.107253	0.000052
C46	C	0.690477	0.607253	0.500052
C47	C	0.171356	0.062919	0.000063
C48	C	0.671356	0.562919	0.500063
C49	C	0.133117	-0.025757	0.000094
C50	C	0.633117	0.474243	0.500094
C51	C	0.183535	-0.025240	0.000095
C52	C	0.683535	0.474760	0.500095
C53	C	0.202655	0.019098	0.000082
C54	C	0.702655	0.519098	0.500082
C55	C	0.253059	0.019609	0.000066
C56	C	0.753059	0.519609	0.500066
N57	N	0.272183	0.063944	0.000060
N58	N	0.772183	0.563944	0.500060
C59	C	0.240892	0.107766	0.000052
C60	C	0.740892	0.607766	0.500052
C61	C	-0.205709	0.014943	0.000081
C62	C	0.294291	0.514943	0.500081
C63	C	-0.256124	0.014430	0.000081
C64	C	0.243876	0.514430	0.500081
C65	C	-0.268291	0.102591	0.000067
C66	C	0.231709	0.602591	0.500067
C67	C	-0.217876	0.103104	0.000063
C68	C	0.282124	0.603104	0.500063
C69	C	-0.186585	0.059278	0.000075
C70	C	0.313415	0.559278	0.500075
C71	C	0.346761	0.108839	0.000042
C72	C	0.846761	0.608839	0.500042
C73	C	0.397178	0.109347	0.000035
C74	C	0.897178	0.609347	0.500035
C75	C	0.409341	0.021186	0.000052
C76	C	0.909341	0.521186	0.500052
C77	C	0.358929	0.020678	0.000056
C78	C	0.858929	0.520678	0.500056
C79	C	0.327639	0.064508	0.000053
C80	C	0.827639	0.564508	0.500053
O81	O	0.284343	-0.017592	0.000053
O82	O	0.784343	0.482408	0.500053
O83	O	0.261794	0.145518	0.000054
O84	O	0.761794	0.645518	0.500054
C85	C	0.039242	0.105716	0.000066
C86	C	0.539242	0.605716	0.500066
C87	C	0.020120	0.061382	0.000077
C88	C	0.520120	0.561382	0.500077
C89	C	0.051411	0.017560	0.000084
C90	C	0.551411	0.517560	0.500084
C91	C	-0.030294	0.060869	0.000077
C92	C	0.469706	0.560869	0.500077
C93	C	-0.061585	0.104691	0.000070
C94	C	0.438415	0.604691	0.500070
C95	C	-0.042461	0.149026	0.000063
C96	C	0.457539	0.649026	0.500063
C97	C	0.007951	0.149539	0.000059
C98	C	0.507951	0.649539	0.500059
C99	C	0.032287	-0.026775	0.000091
C100	C	0.532287	0.473225	0.500091
C101	C	-0.018125	-0.027284	0.000095
C102	C	0.481875	0.472716	0.500095
C103	C	-0.049416	0.016538	0.000088
C104	C	0.450584	0.516538	0.500088
C105	C	0.574716	-0.026515	0.000074
C106	C	1.074716	0.473485	0.500074
C107	C	0.574164	-0.080170	0.000079
C108	C	1.074164	0.419830	0.500079
C109	C	0.614867	-0.418985	0.000054
C110	C	1.114867	0.081015	0.500054
C111	C	0.612816	-0.620645	0.000045
C112	C	1.112816	-0.120645	0.500045
O113	O	0.650037	-0.651900	0.000024
O114	O	1.150037	-0.151900	0.500024
N115	N	0.568481	-0.639768	0.000040
N116	N	1.068481	-0.139768	0.500040
C117	C	0.524656	-0.608474	0.000033
C118	C	1.024656	-0.108474	0.500033
O119	O	0.486899	-0.629367	0.000022
O120	O	0.986899	-0.129367	0.500022
C121	C	0.526707	-0.406815	0.000037
C122	C	1.026707	0.093185	0.500037
C123	C	0.571045	-0.387694	0.000049
C124	C	1.071045	0.112306	0.500049
C125	C	0.659202	-0.399864	0.000065
C126	C	1.159202	0.100136	0.500065
C127	C	0.659714	-0.349452	0.000070
C128	C	1.159714	0.150548	0.500070
C129	C	0.615892	-0.318161	0.000065
C130	C	1.115892	0.181839	0.500065
C131	C	0.571557	-0.337282	0.000054
C132	C	1.071557	0.162718	0.500054
C133	C	0.482882	-0.375521	0.000026
C134	C	0.982882	0.124479	0.500026
C135	C	0.483399	-0.325104	0.000025
C136	C	0.983399	0.174896	0.500025
C137	C	0.527737	-0.305983	0.000037
C138	C	1.027737	0.194017	0.500037
C139	C	0.528247	-0.255580	0.000054
C140	C	1.028247	0.244420	0.500054
N141	N	0.572583	-0.236456	0.000059
N142	N	1.072583	0.263544	0.500059
C143	C	0.616405	-0.267747	0.000065
C144	C	1.116405	0.232253	0.500065
C145	C	0.523582	-0.714348	0.000032
C146	C	1.023582	-0.214348	0.500032
C147	C	0.523069	-0.764762	0.000032
C148	C	1.023069	-0.264762	0.500032
C149	C	0.611230	-0.776930	0.000043
C150	C	1.111230	-0.276930	0.500043
C151	C	0.611742	-0.726514	0.000047
C152	C	1.111742	-0.226514	0.500047
C153	C	0.567917	-0.695224	0.000037
C154	C	1.067917	-0.195224	0.500037
C155	C	0.617477	-0.161878	0.000076
C156	C	1.117477	0.338122	0.500076
C157	C	0.617986	-0.111461	0.000084
C158	C	1.117986	0.388539	0.500084
C159	C	0.529825	-0.099298	0.000070
C160	C	1.029825	0.400702	0.500070
C161	C	0.529316	-0.149710	0.000065
C162	C	1.029316	0.350290	0.500065
C163	C	0.573147	-0.180999	0.000066
C164	C	1.073147	0.319001	0.500066
O165	O	0.491047	-0.224296	0.000068
O166	O	0.991047	0.275704	0.500068
O167	O	0.654156	-0.246844	0.000062
O168	O	1.154156	0.253156	0.500062
C169	C	0.614355	-0.469397	0.000049
C170	C	1.114355	0.030603	0.500049
C171	C	0.570021	-0.488518	0.000038
C172	C	1.070021	0.011482	0.500038
C173	C	0.526198	-0.457228	0.000032
C174	C	1.026198	0.042772	0.500032
C175	C	0.569508	-0.538933	0.000038
C176	C	1.069508	-0.038933	0.500038
C177	C	0.613330	-0.570223	0.000043
C178	C	1.113330	-0.070223	0.500043
C179	C	0.657665	-0.551100	0.000048
C180	C	1.157665	-0.051100	0.500048
C181	C	0.658177	-0.500688	0.000054
C182	C	1.158177	-0.000688	0.500054
C183	C	0.481863	-0.476351	0.000027
C184	C	0.981863	0.023649	0.500027
C185	C	0.481355	-0.526764	0.000022
C186	C	0.981355	-0.026764	0.500022
C187	C	0.525177	-0.558054	0.000028
C188	C	1.025177	-0.058054	0.500028
C189	C	0.658931	0.057699	0.000071
C190	C	1.158931	0.557699	0.500071
C191	C	0.712586	0.058252	0.000074
C192	C	1.212586	0.558252	0.500074
C193	C	0.566338	0.150292	0.000046
C194	C	1.066338	0.650292	0.500046
C195	C	0.566891	0.203947	0.000037
C196	C	1.066891	0.703947	0.500037
N197	N	0.570510	0.061905	0.153316
N198	N	1.070510	0.561905	0.653316
N199	N	0.570548	0.061868	-0.153195
N200	N	1.070548	0.561868	0.346805
C201	C	0.603645	0.028779	0.561967
C202	C	1.103645	0.528779	1.061967
C203	C	0.603648	0.028775	0.623887
C204	C	1.103648	0.528775	1.123887
O205	O	0.631800	0.000617	0.655913
O206	O	1.131800	0.500617	1.155913
N207	N	0.570536	0.061871	0.654853
N208	N	1.070536	0.561871	1.154853
C209	C	0.537415	0.094970	0.623896
C210	C	1.037415	0.594970	1.123896
O211	O	0.509251	0.123121	0.655921
O212	O	1.009251	0.623121	1.155921
C213	C	0.537411	0.094971	0.561978
C214	C	1.037411	0.594971	1.061978
C215	C	0.570529	0.061876	0.531014
C216	C	1.070529	0.561876	1.031014
C217	C	0.636760	-0.004314	0.531003
C218	C	1.136760	0.495686	1.031003
C219	C	0.636758	-0.004310	0.469088
C220	C	1.136758	0.495690	0.969088
C221	C	0.603641	0.028787	0.438135
C222	C	1.103641	0.528787	0.938135
C223	C	0.570527	0.061880	0.469099
C224	C	1.070527	0.561880	0.969099
C225	C	0.504289	0.128067	0.531022
C226	C	1.004289	0.628067	1.031022
C227	C	0.504287	0.128065	0.469099
C228	C	1.004287	0.628065	0.969099
C229	C	0.537405	0.094970	0.438136
C230	C	1.037405	0.594970	0.938136
C231	C	0.537408	0.094981	0.376231
C232	C	1.037408	0.594981	0.876231
N233	N	0.570520	0.061885	0.345264
N234	N	1.070520	0.561885	0.845264
C235	C	0.603637	0.028788	0.376217
C236	C	1.103637	0.528788	0.876217
C237	C	0.537427	0.094965	0.753930
C238	C	1.037427	0.594965	1.253930
C239	C	0.537433	0.094967	0.815848
C240	C	1.037433	0.594967	1.315848
C241	C	0.603665	0.028771	0.815834
C242	C	1.103665	0.528771	1.315834
C243	C	0.603660	0.028772	0.753915
C244	C	1.103660	0.528772	1.253915
C245	C	0.570539	0.061869	0.722963
C246	C	1.070539	0.561869	1.222963
C247	C	0.603630	0.028800	0.246189
C248	C	1.103630	0.528800	0.746189
C249	C	0.603627	0.028808	0.184268
C250	C	1.103627	0.528808	0.684268
C251	C	0.537393	0.095002	0.184288
C252	C	1.037393	0.595002	0.684288
C253	C	0.537399	0.094995	0.246203
C254	C	1.037399	0.594995	0.746203
C255	C	0.570519	0.061890	0.277153
C256	C	1.070519	0.561890	0.777153
O257	O	0.509269	0.123124	0.344165
O258	O	1.009269	0.623124	0.844165
O259	O	0.631792	0.000638	0.344184
O260	O	1.131792	0.500638	0.844184
H261	H	-0.180236	-0.020747	0.000091
H262	H	0.319764	0.479253	0.500091
H263	H	0.434827	-0.014492	0.000056
H264	H	0.934827	0.485508	0.500056
O265	O	-0.199245	0.146142	0.000132
O266	O	0.300755	0.646142	0.500132
C267	C	-0.170462	0.149093	0.051086
C268	C	0.329538	0.649093	0.551086
H269	H	-0.157624	0.110901	0.068081
H270	H	0.342376	0.610901	0.568081
H271	H	-0.137587	0.168110	0.039624
H272	H	0.362413	0.668110	0.539624
H273	H	-0.192899	0.170651	0.086755
H274	H	0.307101	0.670651	0.586755
O275	O	0.114492	-0.068796	0.000187
O276	O	0.614492	0.431204	0.500187
C277	C	0.085705	-0.071730	0.051143
C278	C	0.585705	0.428270	0.551143
H279	H	0.072862	-0.033534	0.068117
H280	H	0.572862	0.466466	0.568117
H281	H	0.052833	-0.090755	0.039693
H282	H	0.552833	0.409245	0.539693
H283	H	0.108139	-0.093275	0.086823
H284	H	0.608139	0.406725	0.586823
O285	O	0.177819	0.194113	0.000108
O286	O	0.677819	0.694113	0.500108
C287	C	0.206608	0.197065	0.051056
C288	C	0.706608	0.697065	0.551056
H289	H	0.219445	0.158875	0.068054
H290	H	0.719445	0.658875	0.568054
H291	H	0.239484	0.216079	0.039586
H292	H	0.739484	0.716079	0.539586
H293	H	0.184176	0.218628	0.086726
H294	H	0.684176	0.718628	0.586726
H295	H	0.630629	0.001821	0.841046
H296	H	1.130629	0.501821	1.341046
O297	O	0.472070	0.160234	0.560998
O298	O	0.972070	0.660234	1.060998
C299	C	0.442851	0.189448	0.520389
C300	C	0.942851	0.689448	1.020389
H301	H	0.442460	0.169629	0.476254
H302	H	0.942460	0.669629	0.976254
H303	H	0.404192	0.197086	0.538276
H304	H	0.904192	0.697086	1.038276
H305	H	0.458272	0.225251	0.513800
H306	H	0.958272	0.725251	1.013800
O307	O	0.316322	0.151383	-0.000044
O308	O	0.816322	0.651383	0.499956
C309	C	0.286807	0.153725	-0.050997
C310	C	0.786807	0.653725	0.449003
H311	H	0.284531	0.115375	-0.067971
H312	H	0.784531	0.615375	0.432029
H313	H	0.248782	0.172029	-0.039544
H314	H	0.748782	0.672029	0.460456
H315	H	0.303239	0.175665	-0.086679
H316	H	0.803239	0.675665	0.413321
O317	O	0.505243	0.127103	0.154123
O318	O	1.005243	0.627103	0.654123
C319	C	0.512352	0.120011	0.092833
C320	C	1.012352	0.620011	0.592833
H321	H	0.530713	0.081456	0.084380
H322	H	1.030713	0.581456	0.584380
H323	H	0.475707	0.125634	0.069302
H324	H	0.975707	0.625634	0.569302
H325	H	0.536385	0.147209	0.075257
H326	H	1.036385	0.647209	0.575257
O327	O	0.438293	-0.545358	0.000115
O328	O	0.938293	-0.045358	0.500115
C329	C	0.435348	-0.574170	0.051047
C330	C	0.935348	-0.074170	0.551047
H331	H	0.460509	-0.562438	0.086667
H332	H	0.960509	-0.062438	0.586667
H333	H	0.396352	-0.569358	0.068135
H334	H	0.896352	-0.069358	0.568135
H335	H	0.446801	-0.614013	0.039525
H336	H	0.946801	-0.114013	0.539525
O337	O	0.635847	-0.003425	0.723931
O338	O	1.135847	0.496575	1.223931
C339	C	0.665084	-0.032626	0.764536
C340	C	1.165084	0.467374	1.264536
H341	H	0.645272	-0.033032	0.808676
H342	H	1.145272	0.466968	1.308676
H343	H	0.672748	-0.071283	0.746651
H344	H	1.172748	0.428717	1.246651
H345	H	0.700873	-0.017176	0.771115
H346	H	1.200873	0.482824	1.271115
H347	H	0.023514	0.185643	0.000049
H348	H	0.523514	0.685643	0.500049
O349	O	-0.072911	0.191564	-0.000022
O350	O	0.427089	0.691564	0.499978
C351	C	-0.102428	0.193903	-0.050974
C352	C	0.397572	0.693903	0.449026
H353	H	-0.104691	0.155552	-0.067954
H354	H	0.395309	0.655552	0.432046
H355	H	-0.140457	0.212193	-0.039515
H356	H	0.359543	0.712193	0.460485
H357	H	-0.086006	0.215854	-0.086652
H358	H	0.413994	0.715854	0.413348
H359	H	0.663727	-0.031268	0.556199
H360	H	1.163727	0.468732	1.056199
O361	O	0.668943	-0.036510	0.439106
O362	O	1.168943	0.463490	0.939106
C363	C	0.698176	-0.065712	0.479714
C364	C	1.198176	0.434288	0.979714
H365	H	0.678361	-0.066115	0.523852
H366	H	1.178361	0.433885	1.023852
H367	H	0.705838	-0.104369	0.461829
H368	H	1.205838	0.395631	0.961829
H369	H	0.733967	-0.050266	0.486295
H370	H	1.233967	0.449734	0.986295
O371	O	0.415670	0.152462	0.000051
O372	O	0.915670	0.652462	0.500051
C373	C	0.377238	0.191029	0.000033
C374	C	0.877238	0.691029	0.500033
H375	H	0.343086	0.177741	0.018662
H376	H	0.843086	0.677741	0.518662
H377	H	0.387546	0.222010	0.028586
H378	H	0.887546	0.722010	0.528586
H379	H	0.370004	0.204523	-0.047162
H380	H	0.870004	0.704523	0.452838
O381	O	-0.036638	-0.070388	0.000027
O382	O	0.463362	0.429612	0.500027
C383	C	-0.020625	-0.097083	-0.050920
C384	C	0.479375	0.402917	0.449080
H385	H	0.014246	-0.084175	-0.067915
H386	H	0.514246	0.415825	0.432085
H387	H	-0.013327	-0.137387	-0.039450
H388	H	0.486673	0.362613	0.460550
H389	H	-0.049844	-0.091272	-0.086592
H390	H	0.450156	0.408728	0.413408
H391	H	-0.271687	-0.021674	0.000082
H392	H	0.228313	0.478326	0.500082
O393	O	0.635725	-0.003351	0.154100
O394	O	1.135725	0.496649	0.654100
C395	C	0.628588	0.003709	0.092810
C396	C	1.128588	0.503709	0.592810
H397	H	0.610311	0.042291	0.084330
H398	H	1.110311	0.542291	0.584330
H399	H	0.665215	-0.002020	0.069239
H400	H	1.165215	0.497980	0.569239
H401	H	0.604469	-0.023434	0.075301
H402	H	1.104469	0.476566	0.575301
H403	H	0.510436	0.121949	0.271414
H404	H	1.010436	0.621949	0.771414
O405	O	0.078452	0.193180	0.000014
O406	O	0.578452	0.693180	0.500014
C407	C	0.106150	0.232414	0.000020
C408	C	0.606150	0.732414	0.500020
H409	H	0.143872	0.219846	-0.018597
H410	H	0.643872	0.719846	0.481403
H411	H	0.087338	0.263093	-0.028550
H412	H	0.587338	0.763093	0.471450
H413	H	0.109639	0.246030	0.047209
H414	H	0.609639	0.746030	0.547209
H415	H	0.510471	0.121921	0.841054
H416	H	1.010471	0.621921	1.341054
O417	O	-0.298760	0.145116	0.000087
O418	O	0.201240	0.645116	0.500087
C419	C	-0.347355	0.135150	0.000073
C420	C	0.152645	0.635150	0.500073
H421	H	-0.349006	0.097197	0.018698
H422	H	0.150994	0.597197	0.518698
H423	H	-0.370407	0.163104	0.028631
H424	H	0.129593	0.663104	0.528631
H425	H	-0.361949	0.137091	-0.047119
H426	H	0.138051	0.637091	0.452881
O427	O	0.505237	0.127170	0.723958
O428	O	1.005237	0.627170	1.223958
C429	C	0.476008	0.156370	0.764573
C430	C	0.976008	0.656370	1.264573
H431	H	0.495828	0.156773	0.808706
H432	H	0.995828	0.656773	1.308706
H433	H	0.468343	0.195028	0.746690
H434	H	0.968343	0.695028	1.246690
H435	H	0.440218	0.140923	0.771165
H436	H	0.940218	0.640923	1.271165
O437	O	0.340296	-0.022361	0.000143
O438	O	0.840296	0.477639	0.500143
C439	C	0.311512	-0.025297	0.051103
C440	C	0.811512	0.474703	0.551103
H441	H	0.298675	0.012900	0.068082
H442	H	0.798675	0.512900	0.568082
H443	H	0.278637	-0.044317	0.039656
H444	H	0.778637	0.455683	0.539656
H445	H	0.333949	-0.046845	0.086778
H446	H	0.833949	0.453155	0.586778
H447	H	0.694282	-0.485125	0.000063
H448	H	1.194282	0.014875	0.500063
O449	O	0.213861	-0.067857	0.000077
O450	O	0.713861	0.432143	0.500077
C451	C	0.186168	-0.107096	0.000103
C452	C	0.686168	0.392904	0.500103
H453	H	0.148448	-0.094539	-0.018519
H454	H	0.648448	0.405461	0.481481
H455	H	0.204988	-0.137782	-0.028452
H456	H	0.704988	0.362218	0.471548
H457	H	0.182677	-0.120698	0.047298
H458	H	0.682677	0.379302	0.547298
H459	H	0.446777	-0.391080	0.000013
H460	H	0.946777	0.108920	0.500013
O461	O	0.487302	-0.068828	0.000037
O462	O	0.987302	0.431172	0.500037
C463	C	0.497268	-0.020233	0.000056
C464	C	0.997268	0.479767	0.500056
H465	H	0.535226	-0.018582	-0.018557
H466	H	1.035226	0.481418	0.481443
H467	H	0.469320	0.002817	-0.028510
H468	H	0.969320	0.502817	0.471490
H469	H	0.495315	-0.005638	0.047249
H470	H	0.995315	0.494362	0.547249
H471	H	0.447710	-0.299629	0.000016
H472	H	0.947710	0.200371	0.500016
H473	H	0.057760	-0.062462	0.000098
H474	H	0.557760	0.437538	0.500098
H475	H	0.477314	0.155016	0.443901
H476	H	0.977314	0.655016	0.943901
H477	H	0.653168	-0.187348	0.000075
H478	H	1.153168	0.312652	0.500075
O479	O	0.661101	-0.092968	0.000067
O480	O	1.161101	0.407032	0.500067
C481	C	0.699668	-0.131401	0.000083
C482	C	1.199668	0.368599	0.500083
H483	H	0.686379	-0.165552	-0.018546
H484	H	1.186379	0.334448	0.481454
H485	H	0.730649	-0.121091	-0.028472
H486	H	1.230649	0.378909	0.471528
H487	H	0.713161	-0.138637	0.047276
H488	H	1.213161	0.361363	0.547276
O489	O	0.702827	-0.330962	0.000050
O490	O	1.202827	0.169038	0.500050
C491	C	0.741390	-0.369399	0.000067
C492	C	1.241390	0.130601	0.500067
H493	H	0.728098	-0.403549	-0.018558
H494	H	1.228098	0.096451	0.481442
H495	H	0.772373	-0.359094	-0.028489
H496	H	1.272373	0.140906	0.471511
H497	H	0.754884	-0.376634	0.047261
H498	H	1.254884	0.123366	0.547261
O499	O	0.653831	-0.807281	-0.000034
O500	O	1.153831	-0.307281	0.499966
C501	C	0.680769	-0.798673	-0.050989
C502	C	1.180769	-0.298673	0.449011
H503	H	0.668612	-0.760336	-0.067971
H504	H	1.168612	-0.260336	0.432029
H505	H	0.721111	-0.802521	-0.039533
H506	H	1.221111	-0.302521	0.460467
H507	H	0.674366	-0.826200	-0.086665
H508	H	1.174366	-0.326200	0.413335
O509	O	0.701743	-0.430305	0.000149
O510	O	1.201743	0.069695	0.500149
C511	C	0.704086	-0.459821	0.051105
C512	C	1.204086	0.040179	0.551105
H513	H	0.665736	-0.462097	0.068081
H514	H	1.165736	0.037903	0.568081
H515	H	0.722390	-0.497845	0.039652
H516	H	1.222390	0.002155	0.539652
H517	H	0.726025	-0.443388	0.086783
H518	H	1.226025	0.056612	0.586783
O519	O	0.635824	-0.003292	0.276311
O520	O	1.135824	0.496708	0.776311
C521	C	0.665462	0.022387	0.312114
C522	C	1.165462	0.522387	0.812114
H523	H	0.645926	0.060343	0.321404
H524	H	1.145926	0.560343	0.821404
H525	H	0.673270	0.002149	0.355648
H526	H	1.173270	0.502149	0.855648
H527	H	0.701157	0.025431	0.288241
H528	H	1.201157	0.525431	0.788241
H529	H	0.647846	-0.710950	0.000056
H530	H	1.147846	-0.210950	0.500056
H531	H	0.486964	-0.780325	0.000033
H532	H	0.986964	-0.280325	0.500033
H533	H	0.487892	-0.688875	0.000024
H534	H	0.987892	-0.188875	0.500024
H535	H	0.493213	-0.165279	0.000072
H536	H	0.993213	0.334721	0.500072
H537	H	0.446177	-0.450879	0.000021
H538	H	0.946177	0.049121	0.500021
O539	O	0.700222	-0.581520	-0.000053
O540	O	1.200222	-0.081520	0.499947
C541	C	0.702557	-0.611050	-0.050995
C542	C	1.202557	-0.111050	0.449005
H543	H	0.677702	-0.592398	-0.086603
H544	H	1.177702	-0.092398	0.413397
H545	H	0.741538	-0.617009	-0.068093
H546	H	1.241538	-0.117009	0.431907
H547	H	0.690318	-0.647622	-0.039481
H548	H	1.190318	-0.147622	0.460519
