data_functionalizedCrystal
_audit_creation_method	'MofGen! by Chris Wilmer'
_symmetry_space_group_name_H-M	'P1'
_symmetry_Int_Tables_number	1
_symmetry_cell_setting	triclinic
loop_
_symmetry_equiv_pos_as_xyz
  x,y,z
_cell_length_a	12.594517
_cell_length_b	12.594516
_cell_length_c	12.759393
_cell_angle_alpha	89.970525
_cell_angle_beta	89.977763
_cell_angle_gamma	90.011616
loop_
_atom_site_label
_atom_site_type_symbol
_atom_site_fract_x
_atom_site_fract_y
_atom_site_fract_z
Zn1	Zn	1.627308	-0.423699	-0.594085
Zn2	Zn	1.627209	-0.601714	-0.418408
Zn3	Zn	1.449309	-0.423749	-0.418414
Zn4	Zn	1.449307	-0.601635	-0.594038
O5	O	1.538283	-0.512699	-0.506236
O6	O	1.776241	-0.447325	-0.570798
O7	O	1.603570	-0.578161	-0.271387
O8	O	1.472963	-0.274797	-0.441739
O9	O	1.776168	-0.578112	-0.441729
O10	O	1.603738	-0.274760	-0.570804
O11	O	1.472867	-0.447411	-0.271392
O12	O	1.300363	-0.447334	-0.441694
O13	O	1.472960	-0.577977	-0.741066
O14	O	1.300362	-0.578026	-0.570724
O15	O	1.603736	-0.447248	-0.741100
O16	O	1.603568	-0.750649	-0.441683
O17	O	1.472864	-0.750591	-0.570718
C18	C	1.261742	-0.512678	-0.506205
C19	C	1.143437	-0.512695	-0.506217
C20	C	1.074154	-0.441514	-0.436171
C21	C	1.003349	-0.538604	-0.410330
C22	C	1.003442	-0.415653	-0.532076
C23	C	1.074191	-0.609835	-0.480326
C24	C	1.074290	-0.486819	-0.602116
C25	C	1.003518	-0.583975	-0.576312
C26	C	1.538234	-0.789240	-0.506218
C27	C	1.538310	-0.907546	-0.506245
C28	C	1.609483	-0.976792	-0.436138
C29	C	1.635495	-1.047486	-0.532032
C30	C	1.512431	-1.047651	-0.410412
C31	C	1.564372	-0.976681	-0.602190
C32	C	1.441263	-0.976840	-0.480505
C33	C	1.467239	-1.047502	-0.576465
C34	C	1.815904	-0.512722	-0.506268
C35	C	1.934209	-0.512731	-0.506281
C36	C	1.538359	-0.512598	-0.780270
C37	C	1.538391	-0.512555	-0.897046
C38	C	1.538362	-0.235079	-0.506278
C39	C	1.538395	-0.116773	-0.506295
C40	C	1.606515	-0.444424	-1.061653
C41	C	1.606492	-0.444470	-0.951929
C42	C	1.470316	-0.580606	-0.951894
C43	C	1.470345	-0.580563	-1.061616
C44	C	1.674613	-0.376326	-1.116530
C45	C	1.742690	-0.308277	-1.061690
C46	C	1.742667	-0.308324	-0.951966
C47	C	1.674568	-0.376420	-0.897081
C48	C	1.538269	-0.512723	-0.233269
C49	C	1.538443	-0.512466	-0.116493
H50	H	0.972309	-0.333581	-0.553884
Cl51	Cl	1.702418	-0.928850	-0.344684
H52	H	0.972191	-0.560513	-0.329257
H53	H	1.105474	-0.464880	-0.683165
H54	H	1.717602	-1.078520	-0.553831
Cl55	Cl	1.374369	-1.095143	-0.668135
Cl56	Cl	1.314528	-0.928894	-0.446809
Cl57	Cl	1.478581	-1.095780	-0.285256
Cl58	Cl	1.121964	-0.736601	-0.446453
Cl59	Cl	1.598385	-0.928764	-0.727382
H60	H	1.674637	-0.376278	-1.205873
Cl61	Cl	0.955928	-0.677038	-0.667810
Cl62	Cl	1.828306	-0.222686	-1.130685
Cl63	Cl	1.828256	-0.222787	-0.883027
H64	H	1.674563	-0.376461	-0.807737
Cl65	Cl	1.384706	-0.666200	-0.882895
Cl66	Cl	1.384766	-0.666104	-1.130563
H67	H	1.105169	-0.381378	-0.376863
