data_functionalizedCrystal
_audit_creation_method	'MofGen! by Chris Wilmer'
_symmetry_space_group_name_H-M	'P1'
_symmetry_Int_Tables_number	1
_symmetry_cell_setting	triclinic
loop_
_symmetry_equiv_pos_as_xyz
  x,y,z
_cell_length_a	19.288864
_cell_length_b	18.366186
_cell_length_c	19.288857
_cell_angle_alpha	89.991598
_cell_angle_beta	96.865323
_cell_angle_gamma	90.022894
loop_
_atom_site_label
_atom_site_type_symbol
_atom_site_fract_x
_atom_site_fract_y
_atom_site_fract_z
O1	O	-0.921350	-0.060787	0.086649
O2	O	-0.719089	-0.060737	0.098338
O3	O	-0.826067	-0.060755	-0.008637
O4	O	-0.814373	-0.060769	0.193624
O5	O	-0.826049	0.060345	-0.008643
O6	O	-0.719071	0.060362	0.098333
O7	O	-0.921332	0.060313	0.086644
Zn8	Zn	-0.820199	0.079565	0.092487
Zn9	Zn	-0.820223	-0.079989	0.092494
O10	O	-0.814355	0.060330	0.193619
C11	C	-0.693204	-0.000181	0.097959
C12	C	-0.616100	-0.000162	0.096830
C13	C	-0.825683	-0.000204	-0.034516
C14	C	-0.824556	-0.000202	-0.111620
C15	C	-0.947218	-0.000245	0.087022
C16	C	-1.024321	-0.000269	0.088151
N17	N	-0.820188	0.188456	0.092482
C18	C	-0.571402	-0.000178	0.159598
C19	C	-0.498955	-0.000186	0.158537
C20	C	-0.471210	-0.000193	0.094705
C21	C	-0.515917	-0.000172	0.031929
C22	C	-0.588363	-0.000157	0.032991
C23	C	-0.362955	-0.042640	0.044528
C24	C	-0.290511	-0.042660	0.043468
C25	C	-0.247764	-0.000236	0.091425
C26	C	-0.277469	0.042197	0.140455
C27	C	-0.349914	0.042213	0.141517
C28	C	-0.392656	-0.000209	0.093546
C29	C	-0.124510	-0.000260	0.153048
C30	C	-0.052062	-0.000263	0.151984
C31	C	-0.069026	-0.000257	0.025374
C32	C	-0.141472	-0.000246	0.026439
C33	C	-0.169210	-0.000251	0.090278
N34	N	-0.820240	-0.188880	0.092494
C35	C	-0.867573	0.226548	0.045137
C36	C	-0.867577	0.302776	0.045134
C37	C	-0.820203	0.340909	0.092488
C38	C	-0.772809	0.302807	0.139837
C39	C	-0.772801	0.226580	0.139834
C40	C	-0.810903	0.461666	0.155776
C41	C	-0.810916	0.537891	0.155780
C42	C	-0.820223	0.576016	0.092497
C43	C	-0.829532	0.537907	0.029207
C44	C	-0.829524	0.461681	0.029204
C45	C	-0.820206	0.423563	0.092496
C46	C	-0.867615	0.696764	0.045144
C47	C	-0.867615	0.772993	0.045140
C48	C	-0.772850	0.773022	0.139849
C49	C	-0.772847	0.696794	0.139847
C50	C	-0.820233	0.658670	0.092495
C51	C	-0.824040	-0.066213	-0.147828
C52	C	-0.822971	-0.066218	-0.220274
C53	C	-0.822432	-0.000208	-0.256511
C54	C	-0.822945	0.065812	-0.220294
C55	C	-0.824006	0.065815	-0.147849
C56	C	-0.861426	0.050350	-0.376745
C57	C	-0.860369	0.050344	-0.449190
C58	C	-0.819155	-0.000216	-0.479957
C59	C	-0.779007	-0.050781	-0.438272
C60	C	-0.780068	-0.050778	-0.365827
C61	C	-0.821281	-0.000205	-0.335066
C62	C	-0.817479	-0.066237	-0.594719
C63	C	-0.816406	-0.066240	-0.667166
C64	C	-0.816386	0.065792	-0.667186
C65	C	-0.817452	0.065793	-0.594740
C66	C	-0.818002	-0.000224	-0.558511
C67	C	-0.814739	-0.000222	0.219498
C68	C	-0.815866	-0.000229	0.296602
H69	H	-0.593981	-0.000183	0.211581
O70	O	-0.839566	0.579014	-0.039057
H71	H	-0.837997	0.638421	-0.028426
H72	H	-0.906165	0.333797	0.006578
H73	H	-0.242666	0.076743	0.179506
H74	H	-0.803340	0.568913	0.207314
O75	O	-0.822363	0.137007	-0.259378
H76	H	-0.822894	0.182912	-0.222025
H77	H	-0.824424	0.119571	-0.118369
O78	O	-0.721744	0.655698	0.190916
H79	H	-0.730425	0.670305	0.245043
H80	H	-0.815982	-0.119996	-0.696645
H81	H	-0.824485	-0.119969	-0.118335
H82	H	-0.837103	0.430656	-0.022329
H83	H	-0.734275	0.804068	0.178403
H84	H	-0.906198	0.665721	0.006585
H85	H	-0.374097	0.076766	0.181437
O86	O	-0.450731	-0.000211	0.226239
H87	H	-0.482190	-0.000217	0.270808
O88	O	-0.918733	0.814085	-0.005920
H89	H	-0.951686	0.774765	-0.038838
H90	H	-0.803312	0.430630	0.207312
O91	O	-0.154436	-0.000250	0.221897
H92	H	-0.111180	-0.000249	0.265368
H93	H	-0.734235	0.333858	0.178392
O94	O	-0.003846	-0.000274	0.219688
H95	H	-0.013704	-0.049637	0.250244
O96	O	-0.039112	-0.000265	-0.043477
H97	H	0.018773	-0.000281	-0.033672
H98	H	-0.493322	-0.000188	-0.020044
H99	H	-0.177867	-0.000237	-0.024674
H100	H	-0.397755	-0.077190	0.005473
O101	O	-0.736765	-0.105307	-0.320864
H102	H	-0.699047	-0.075982	-0.282743
O103	O	-0.721697	0.185487	0.190906
H104	H	-0.688756	0.224806	0.223838
H105	H	-0.822546	-0.119974	-0.249760
H106	H	-0.266331	-0.077215	0.003548
O107	O	-0.636580	-0.000143	-0.034711
H108	H	-0.605119	-0.000151	-0.079278
O109	O	-0.818026	0.136991	-0.555682
H110	H	-0.817481	0.182892	-0.593049
O111	O	-0.734544	-0.105316	-0.471442
H112	H	-0.740541	-0.096819	-0.528820
O113	O	-0.818058	-0.137435	-0.555634
H114	H	-0.817506	-0.183340	-0.592984
H115	H	-0.815942	0.119539	-0.696689
O116	O	-0.903667	0.104880	-0.494149
H117	H	-0.932492	0.140048	-0.460584
H118	H	-0.894987	0.091527	-0.351701
H119	H	-0.906156	0.195510	0.006579
