data_functionalizedCrystal
_audit_creation_method	'MofGen! by Chris Wilmer'
_symmetry_space_group_name_H-M	'P1'
_symmetry_Int_Tables_number	1
_symmetry_cell_setting	triclinic
loop_
_symmetry_equiv_pos_as_xyz
  x,y,z
_cell_length_a	18.215407
_cell_length_b	10.685194
_cell_length_c	18.215399
_cell_angle_alpha	94.396576
_cell_angle_beta	90.019833
_cell_angle_gamma	94.377432
loop_
_atom_site_label
_atom_site_type_symbol
_atom_site_fract_x
_atom_site_fract_y
_atom_site_fract_z
Zn1	Zn	1.102699	-0.502407	0.393658
Zn2	Zn	1.093210	-0.713450	0.261159
Zn3	Zn	0.979630	-0.502448	0.270604
Zn4	Zn	0.970203	-0.713379	0.384187
O5	O	1.036436	-0.607921	0.327402
O6	O	1.204424	-0.530414	0.376093
O7	O	1.078117	-0.685507	0.159425
O8	O	1.003872	-0.325846	0.294844
O9	O	1.197452	-0.685467	0.278746
O10	O	1.094291	-0.325815	0.385252
O11	O	0.994671	-0.530485	0.166365
O12	O	0.875396	-0.530417	0.285660
O13	O	0.987805	-0.685347	0.488430
O14	O	0.868470	-0.685387	0.369109
O15	O	1.085150	-0.530346	0.495388
O16	O	1.068976	-0.890038	0.269562
O17	O	0.978604	-0.889986	0.359950
C18	C	0.845230	-0.607900	0.327382
C19	C	0.763430	-0.607921	0.327389
C20	C	0.571644	-0.688740	0.370776
C21	C	0.494785	-0.688744	0.370785
C22	C	0.501978	-0.527125	0.284043
C23	C	0.578836	-0.527115	0.284038
C24	C	0.613667	-0.607930	0.327404
C25	C	0.459950	-0.607944	0.327417
C26	C	0.376616	-0.607947	0.327427
C27	C	0.697006	-0.607925	0.327395
C28	C	1.021757	-0.935802	0.312719
C29	C	1.015545	-1.076070	0.306462
C30	C	1.228387	-0.607944	0.327423
C31	C	1.310186	-0.607953	0.327431
C32	C	1.036484	-0.607834	0.519359
C33	C	1.036505	-0.607797	0.601159
C34	C	1.051191	-0.278760	0.342158
C35	C	1.057480	-0.138492	0.348447
C36	C	1.036433	-0.607917	0.136196
C37	C	1.036571	-0.607598	0.054412
C38	C	1.087213	-0.527013	0.792982
C39	C	1.087223	-0.526976	0.869842
C40	C	0.985858	-0.688386	0.862584
C41	C	0.985845	-0.688416	0.785725
C42	C	1.036526	-0.607731	0.750926
C43	C	1.036550	-0.607665	0.904645
C44	C	1.036561	-0.607625	0.987981
C45	C	1.036515	-0.607768	0.667585
H46	H	0.473610	-0.461330	0.248735
H47	H	0.600000	-0.754542	0.406089
H48	H	0.613053	-0.461302	0.248719
C49	C	1.142955	-0.438252	0.754701
C50	C	1.143374	-0.294785	0.771702
C51	C	1.199116	-0.206019	0.733424
C52	C	1.254438	-0.260720	0.678146
C53	C	1.254021	-0.404194	0.661142
C54	C	1.198279	-0.492961	0.699420
H55	H	1.102419	-0.254286	0.812625
H56	H	1.199425	-0.099810	0.746012
H57	H	1.295702	-0.195010	0.649810
H58	H	1.294975	-0.444694	0.620220
H59	H	1.197970	-0.599170	0.686833
C60	C	0.448560	-0.777640	0.418495
C61	C	0.486875	-0.866527	0.466194
C62	C	0.440650	-0.955425	0.513906
C63	C	0.356109	-0.955436	0.513920
C64	C	0.317789	-0.866545	0.466219
C65	C	0.364014	-0.777647	0.418506
H66	H	0.549461	-0.866522	0.466185
H67	H	0.469017	-1.021228	0.549218
H68	H	0.321891	-1.021243	0.549239
H69	H	0.255203	-0.866550	0.466227
H70	H	0.335647	-0.711845	0.383195
H71	H	0.944597	-0.754079	0.890927
H72	H	1.098135	-1.084625	0.389181
H73	H	0.974880	-1.129945	0.265732
C74	C	1.142980	-0.438186	0.916103
C75	C	1.198723	-0.349438	0.877822
C76	C	1.254482	-0.260642	0.924083
C77	C	1.254497	-0.260594	1.008625
C78	C	1.198751	-0.349346	1.046911
C79	C	1.142993	-0.438142	1.000650
H80	H	1.198714	-0.349471	0.815235
H81	H	1.295748	-0.194942	0.895741
H82	H	1.295772	-0.194862	1.042871
H83	H	1.198761	-0.349313	1.109498
H84	H	1.101727	-0.503842	1.028992
H85	H	0.944565	-0.754145	0.751483
