data_functionalizedCrystal
_audit_creation_method	'MofGen! by Chris Wilmer'
_symmetry_space_group_name_H-M	'P1'
_symmetry_Int_Tables_number	1
_symmetry_cell_setting	triclinic
loop_
_symmetry_equiv_pos_as_xyz
  x,y,z
_cell_length_a	19.188930
_cell_length_b	19.188940
_cell_length_c	11.295483
_cell_angle_alpha	94.080861
_cell_angle_beta	85.894762
_cell_angle_gamma	83.146747
loop_
_atom_site_label
_atom_site_type_symbol
_atom_site_fract_x
_atom_site_fract_y
_atom_site_fract_z
O1	O	0.930883	0.082432	-0.099411
O2	O	1.264217	0.415766	0.233923
O3	O	1.597550	0.749099	0.567256
O4	O	0.727569	0.094171	-0.099329
O5	O	1.060902	0.427504	0.234004
O6	O	1.394235	0.760837	0.567337
O7	O	0.835089	-0.013353	-0.099363
O8	O	1.168423	0.319980	0.233970
O9	O	1.501756	0.653313	0.567303
O10	O	0.823363	0.189956	-0.099377
O11	O	1.156696	0.523290	0.233957
O12	O	1.490029	0.856623	0.567290
O13	O	0.825646	-0.003924	0.098691
O14	O	1.158979	0.329410	0.432024
O15	O	1.492312	0.662743	0.765357
O16	O	0.718125	0.103600	0.098725
O17	O	1.051458	0.436933	0.432058
O18	O	1.384792	0.770267	0.765391
O19	O	0.921440	0.091862	0.098643
O20	O	1.254773	0.425195	0.431976
O21	O	1.588106	0.758529	0.765310
Cu22	Cu	0.818920	0.098592	0.116768
Cu23	Cu	1.152253	0.431925	0.450101
Cu24	Cu	1.485587	0.765259	0.783434
Cu25	Cu	0.830088	0.087441	-0.117454
Cu26	Cu	1.163422	0.420774	0.215879
Cu27	Cu	1.496755	0.754107	0.549213
O28	O	0.813919	0.199386	0.098677
O29	O	1.147252	0.532719	0.432010
O30	O	1.480586	0.866053	0.765344
C31	C	0.696835	0.098506	-0.000292
C32	C	1.030169	0.431839	0.333041
C33	C	1.363502	0.765173	0.666375
C34	C	0.619329	0.097367	-0.000261
C35	C	0.952662	0.430700	0.333073
C36	C	1.285996	0.764033	0.666406
C37	C	0.829987	-0.034649	-0.000336
C38	C	1.163320	0.298684	0.332997
C39	C	1.496653	0.632017	0.666330
C40	C	0.828843	-0.112154	-0.000336
C41	C	1.162176	0.221180	0.332997
C42	C	1.495510	0.554513	0.666330
C43	C	0.815562	-0.660274	0.107598
C44	C	1.148895	-0.326941	0.440931
C45	C	1.482229	0.006393	0.774264
C46	C	0.816628	-0.587449	0.107604
C47	C	1.149962	-0.254116	0.440937
C48	C	1.483295	0.079217	0.774271
C49	C	0.822313	-0.556170	-0.000354
C50	C	1.155646	-0.222836	0.332979
C51	C	1.488979	0.110497	0.666313
C52	C	0.826913	-0.597719	-0.108326
C53	C	1.160246	-0.264386	0.225007
C54	C	1.493580	0.068948	0.558340
C55	C	0.825839	-0.670541	-0.108329
C56	C	1.159173	-0.337208	0.225004
C57	C	1.492506	-0.003874	0.558337
N58	N	0.867561	-0.450972	-0.080726
N59	N	1.200895	-0.117639	0.252607
N60	N	1.534228	0.215694	0.585941
N61	N	0.868582	-0.381794	-0.080716
N62	N	1.201916	-0.048461	0.252618
N63	N	1.535249	0.284873	0.585951
C64	C	0.825546	-0.336760	-0.000351
C65	C	1.158880	-0.003427	0.332982
C66	C	1.492213	0.329906	0.666315
N67	N	0.781459	-0.363519	0.080021
N68	N	1.114792	-0.030185	0.413354
N69	N	1.448125	0.303148	0.746687
N70	N	0.780440	-0.432704	0.080014
N71	N	1.113774	-0.099370	0.413347
N72	N	1.447107	0.233963	0.746680
C73	C	0.823477	-0.477207	-0.000363
C74	C	1.156810	-0.143873	0.332971
C75	C	1.490144	0.189460	0.666304
C76	C	0.822098	-0.216255	0.107621
C77	C	1.155431	0.117079	0.440954
C78	C	1.488764	0.450412	0.774287
C79	C	0.823160	-0.143428	0.107623
C80	C	1.156493	0.189905	0.440956
C81	C	1.489827	0.523238	0.774289
C82	C	0.833452	-0.153700	-0.108311
C83	C	1.166785	0.179633	0.225023
C84	C	1.500118	0.512966	0.558356
C85	C	0.832382	-0.226524	-0.108309
C86	C	1.165716	0.106809	0.225024
C87	C	1.499049	0.440142	0.558357
C88	C	0.826708	-0.257797	-0.000340
C89	C	1.160042	0.075536	0.332993
C90	C	1.493375	0.408869	0.666326
C91	C	0.574409	0.160456	-0.000283
C92	C	0.907742	0.493789	0.333050
C93	C	1.241075	0.827123	0.666383
C94	C	0.501585	0.159384	-0.000296
C95	C	0.834919	0.492717	0.333037
C96	C	1.168252	0.826051	0.666370
C97	C	0.473687	0.095217	-0.000310
C98	C	0.807020	0.428551	0.333023
C99	C	1.140354	0.761884	0.666356
C100	C	0.518617	0.032120	-0.000281
C101	C	0.851951	0.365453	0.333052
C102	C	1.185284	0.698787	0.666386
C103	C	0.591438	0.033195	-0.000256
C104	C	0.924772	0.366528	0.333077
C105	C	1.258105	0.699861	0.666411
N106	N	0.368922	0.042959	-0.067761
N107	N	0.702255	0.376293	0.265572
N108	N	1.035588	0.709626	0.598905
N109	N	0.299744	0.041943	-0.067788
N110	N	0.633077	0.375276	0.265546
N111	N	0.966411	0.708609	0.598879
C112	C	0.254282	0.091976	-0.000383
C113	C	0.587615	0.425309	0.332950
C114	C	0.920949	0.758642	0.666284
N115	N	0.280610	0.143074	0.067034
N116	N	0.613943	0.476407	0.400367
N117	N	0.947276	0.809741	0.733701
N118	N	0.349793	0.144093	0.067055
N119	N	0.683127	0.477426	0.400388
N120	N	1.016460	0.810759	0.733721
C121	C	0.394726	0.094045	-0.000337
C122	C	0.728059	0.427378	0.332997
C123	C	1.061393	0.760712	0.666330
C124	C	0.130397	0.153907	-0.000418
C125	C	0.463731	0.487240	0.332915
C126	C	0.797064	0.820574	0.666248
C127	C	0.057573	0.152832	-0.000424
C128	C	0.390906	0.486166	0.332909
C129	C	0.724239	0.819499	0.666243
C130	C	0.074607	0.025566	-0.000420
C131	C	0.407940	0.358899	0.332913
C132	C	0.741274	0.692233	0.666246
C133	C	0.147429	0.026643	-0.000403
C134	C	0.480763	0.359976	0.332930
C135	C	0.814096	0.693310	0.666264
C136	C	0.175320	0.090815	-0.000407
C137	C	0.508653	0.424149	0.332926
C138	C	0.841987	0.757482	0.666259
C139	C	0.952173	0.087527	-0.000397
C140	C	1.285506	0.420860	0.332936
C141	C	1.618840	0.754193	0.666270
C142	C	1.029680	0.088665	-0.000436
C143	C	1.363013	0.421999	0.332897
C144	C	1.696346	0.755332	0.666231
C145	C	0.819022	0.220682	-0.000352
C146	C	1.152355	0.554015	0.332981
C147	C	1.485689	0.887349	0.666314
C148	C	0.820166	0.298186	-0.000360
C149	C	1.153499	0.631519	0.332973
C150	C	1.486832	0.964852	0.666307
N151	N	0.811070	0.106435	0.281506
N152	N	1.144403	0.439768	0.614840
N153	N	1.477737	0.773102	0.948173
N154	N	0.837944	0.079592	-0.282193
N155	N	1.171277	0.412925	0.051141
N156	N	1.504611	0.746259	0.384474
C157	C	0.894453	0.023095	0.530770
C158	C	1.227787	0.356428	0.864103
C159	C	1.561120	0.689762	1.197436
C160	C	0.888526	0.029027	0.655435
C161	C	1.221859	0.362360	0.988768
C162	C	1.555193	0.695694	1.322102
C163	C	0.793285	0.124227	0.655505
C164	C	1.126618	0.457560	0.988839
C165	C	1.459951	0.790894	1.322172
C166	C	0.799212	0.118295	0.530840
C167	C	1.132545	0.451628	0.864173
C168	C	1.465879	0.784962	1.197506
C169	C	0.849799	0.067728	0.468476
C170	C	1.183132	0.401062	0.801810
C171	C	1.516465	0.734395	1.135143
C172	C	0.855729	0.061800	0.343808
C173	C	1.189062	0.395133	0.677142
C174	C	1.522396	0.728467	1.010475
C175	C	0.760485	0.156996	0.343881
C176	C	1.093818	0.490330	0.677214
C177	C	1.427152	0.823663	1.010548
C178	C	0.754558	0.162928	0.468546
C179	C	1.087891	0.496262	0.801880
C180	C	1.421224	0.829595	1.135213
H181	H	0.810941	-0.685732	0.195515
H182	H	1.144274	-0.352398	0.528848
H183	H	1.477608	-0.019065	0.862181
H184	H	0.836136	-0.260348	-0.196220
H185	H	1.169469	0.072985	0.137113
H186	H	1.502803	0.406319	0.470446
H187	H	0.838072	-0.128232	-0.196212
H188	H	1.171405	0.205101	0.137121
H189	H	1.504738	0.538434	0.470454
F190	F	0.936052	-0.018479	0.721728
F191	F	1.269385	0.314854	1.055062
F192	F	1.602719	0.648188	1.388395
H193	H	0.752094	0.165393	0.706298
H194	H	1.085427	0.498726	1.039631
H195	H	1.418760	0.832059	1.372965
H196	H	0.829587	-0.704363	-0.196244
H197	H	1.162921	-0.371030	0.137089
H198	H	1.496254	-0.037697	0.470422
F199	F	0.044920	-0.042725	-0.000424
F200	F	0.378253	0.290609	0.332910
F201	F	0.711587	0.623942	0.666243
F202	F	0.832965	-0.564428	-0.223223
F203	F	1.166299	-0.231095	0.110111
F204	F	1.499632	0.102238	0.443444
H205	H	0.597112	0.212710	-0.000289
H206	H	0.930445	0.546043	0.333044
H207	H	1.263779	0.879377	0.666377
F208	F	0.818249	-0.099216	0.222533
F209	F	1.151582	0.234117	0.555866
F210	F	1.484915	0.567451	0.889199
F211	F	0.453768	0.226535	-0.000318
F212	F	0.787102	0.559868	0.333016
F213	F	1.120435	0.893202	0.666349
F214	F	0.488925	-0.036170	-0.000290
F215	F	0.822258	0.297163	0.333043
F216	F	1.155592	0.630496	0.666376
H217	H	0.184005	-0.024732	-0.000391
H218	H	0.517339	0.308602	0.332943
H219	H	0.850672	0.641935	0.666276
H220	H	0.628014	-0.018182	-0.000238
H221	H	0.961347	0.315151	0.333095
H222	H	1.294680	0.648484	0.666429
F223	F	0.160083	0.222204	-0.000414
F224	F	0.493416	0.555537	0.332919
F225	F	0.826749	0.888871	0.666252
F226	F	0.700720	0.216741	0.534929
F227	F	1.034053	0.550074	0.868262
F228	F	1.367387	0.883407	1.201595
H229	H	0.724126	0.193341	0.293148
H230	H	1.057460	0.526675	0.626481
H231	H	1.390793	0.860008	0.959814
H232	H	0.812866	-0.553619	0.195519
H233	H	1.146200	-0.220286	0.528852
H234	H	1.479533	0.113048	0.862186
F235	F	0.816056	-0.249540	0.222529
F236	F	1.149389	0.083793	0.555862
F237	F	1.482723	0.417127	0.889196
H238	H	0.020998	0.204210	-0.000436
H239	H	0.354331	0.537543	0.332897
H240	H	0.687665	0.870877	0.666231
F241	F	0.909569	0.007985	0.277439
F242	F	1.242902	0.341318	0.610772
F243	F	1.576236	0.674651	0.944106
F244	F	0.948297	-0.030715	0.464397
F245	F	1.281630	0.302618	0.797730
F246	F	1.614964	0.635952	1.131064
