data_functionalizedCrystal
_audit_creation_method	'MofGen! by Chris Wilmer'
_symmetry_space_group_name_H-M	'P1'
_symmetry_Int_Tables_number	1
_symmetry_cell_setting	triclinic
loop_
_symmetry_equiv_pos_as_xyz
  x,y,z
_cell_length_a	21.395362
_cell_length_b	19.121063
_cell_length_c	21.395356
_cell_angle_alpha	92.411537
_cell_angle_beta	89.957023
_cell_angle_gamma	92.485681
loop_
_atom_site_label
_atom_site_type_symbol
_atom_site_fract_x
_atom_site_fract_y
_atom_site_fract_z
Zn1	Zn	0.947237	-0.279338	-0.365202
Zn2	Zn	1.197237	-0.029338	-0.115202
Zn3	Zn	1.447237	0.220662	0.134798
Zn4	Zn	1.697237	0.470662	0.384798
Zn5	Zn	0.942677	-0.396791	-0.264889
Zn6	Zn	1.192677	-0.146791	-0.014889
Zn7	Zn	1.442677	0.103209	0.235111
Zn8	Zn	1.692677	0.353209	0.485111
Zn9	Zn	0.842452	-0.279389	-0.260406
Zn10	Zn	1.092452	-0.029389	-0.010406
Zn11	Zn	1.342452	0.220611	0.239594
Zn12	Zn	1.592452	0.470611	0.489594
Zn13	Zn	0.837958	-0.396787	-0.369593
Zn14	Zn	1.087958	-0.146787	-0.119593
Zn15	Zn	1.337958	0.103213	0.130407
Zn16	Zn	1.587958	0.353213	0.380407
O17	O	0.892581	-0.338076	-0.315023
O18	O	1.142581	-0.088076	-0.065023
O19	O	1.392581	0.161924	0.184977
O20	O	1.642581	0.411924	0.434977
O21	O	1.034311	-0.294898	-0.351934
O22	O	1.284311	-0.044898	-0.101934
O23	O	1.534311	0.205102	0.148066
O24	O	1.784311	0.455102	0.398066
O25	O	0.929355	-0.381241	-0.176617
O26	O	1.179355	-0.131241	0.073383
O27	O	1.429355	0.118759	0.323383
O28	O	1.679355	0.368759	0.573383
O29	O	0.860141	-0.181097	-0.270593
O30	O	1.110141	0.068903	-0.020593
O31	O	1.360141	0.318903	0.229407
O32	O	1.610141	0.568903	0.479407
O33	O	1.030961	-0.381191	-0.278234
O34	O	1.280961	-0.131191	-0.028234
O35	O	1.530961	0.118809	0.221766
O36	O	1.780961	0.368809	0.471766
O37	O	0.937126	-0.181059	-0.347587
O38	O	1.187126	0.068941	-0.097587
O39	O	1.437126	0.318941	0.152413
O40	O	1.687126	0.568941	0.402413
O41	O	0.855720	-0.294986	-0.173323
O42	O	1.105720	-0.044986	0.076677
O43	O	1.355720	0.205014	0.326677
O44	O	1.605720	0.455014	0.576677
O45	O	0.754177	-0.294982	-0.274851
O46	O	1.004177	-0.044982	-0.024851
O47	O	1.254177	0.205018	0.225149
O48	O	1.504177	0.455018	0.475149
O49	O	0.852481	-0.381184	-0.456688
O50	O	1.102481	-0.131184	-0.206688
O51	O	1.352481	0.118816	0.043312
O52	O	1.602481	0.368816	0.293312
O53	O	0.750875	-0.381234	-0.355071
O54	O	1.000875	-0.131234	-0.105071
O55	O	1.250875	0.118766	0.144929
O56	O	1.500875	0.368766	0.394929
O57	O	0.932768	-0.294894	-0.453462
O58	O	1.182768	-0.044894	-0.203462
O59	O	1.432768	0.205106	0.046538
O60	O	1.682768	0.455106	0.296538
O61	O	0.924997	-0.495077	-0.282492
O62	O	1.174997	-0.245077	-0.032492
O63	O	1.424997	0.004923	0.217508
O64	O	1.674997	0.254923	0.467508
O65	O	0.848060	-0.495073	-0.359418
O66	O	1.098060	-0.245073	-0.109418
O67	O	1.348060	0.004927	0.140582
O68	O	1.598060	0.254927	0.390582
C69	C	0.729792	-0.338113	-0.314951
C70	C	0.979792	-0.088113	-0.064951
C71	C	1.229792	0.161887	0.185049
C72	C	1.479792	0.411887	0.435049
C73	C	0.660149	-0.338146	-0.314936
C74	C	0.910149	-0.088146	-0.064936
C75	C	1.160149	0.161854	0.185064
C76	C	1.410149	0.411854	0.435064
C77	C	0.625731	-0.383117	-0.356649
C78	C	0.875731	-0.133117	-0.106649
C79	C	1.125731	0.116883	0.143351
C80	C	1.375731	0.366883	0.393351
C81	C	0.560296	-0.383100	-0.356676
C82	C	0.810296	-0.133100	-0.106676
C83	C	1.060296	0.116900	0.143324
C84	C	1.310296	0.366900	0.393324
C85	C	0.529282	-0.338119	-0.314980
C86	C	0.779282	-0.088119	-0.064980
C87	C	1.029282	0.161881	0.185020
C88	C	1.279282	0.411881	0.435020
C89	C	0.563709	-0.293140	-0.273264
C90	C	0.813709	-0.043140	-0.023264
C91	C	1.063709	0.206860	0.226736
C92	C	1.313709	0.456860	0.476736
C93	C	0.629142	-0.293153	-0.273242
C94	C	0.879142	-0.043153	-0.023242
C95	C	1.129142	0.206847	0.226758
C96	C	1.379142	0.456847	0.476758
C97	C	0.425773	-0.332471	-0.258360
C98	C	0.675773	-0.082471	-0.008360
C99	C	0.925773	0.167529	0.241640
C100	C	1.175773	0.417529	0.491640
C101	C	0.360340	-0.332463	-0.258381
C102	C	0.610340	-0.082463	-0.008381
C103	C	0.860340	0.167537	0.241619
C104	C	1.110340	0.417537	0.491619
C105	C	0.327463	-0.338073	-0.315047
C106	C	0.577463	-0.088073	-0.065047
C107	C	0.827463	0.161927	0.184953
C108	C	1.077463	0.411927	0.434953
C109	C	0.360026	-0.343708	-0.371695
C110	C	0.610026	-0.093708	-0.121695
C111	C	0.860026	0.156292	0.128305
C112	C	1.110026	0.406292	0.378305
C113	C	0.425460	-0.343721	-0.371673
C114	C	0.675460	-0.093721	-0.121673
C115	C	0.925460	0.156279	0.128327
C116	C	1.175460	0.406279	0.378327
C117	C	0.458331	-0.338099	-0.314999
C118	C	0.708331	-0.088099	-0.064999
C119	C	0.958331	0.161901	0.185001
C120	C	1.208331	0.411901	0.435001
C121	C	0.222093	-0.383028	-0.356793
C122	C	0.472093	-0.133028	-0.106793
C123	C	0.722093	0.116972	0.143207
C124	C	0.972093	0.366972	0.393207
C125	C	0.156657	-0.383006	-0.356821
C126	C	0.406657	-0.133006	-0.106821
C127	C	0.656657	0.116994	0.143179
C128	C	0.906657	0.366994	0.393179
C129	C	0.160071	-0.293049	-0.273403
C130	C	0.410071	-0.043049	-0.023403
C131	C	0.660071	0.206951	0.226597
C132	C	0.910071	0.456951	0.476597
C133	C	0.225505	-0.293068	-0.273381
C134	C	0.475505	-0.043068	-0.023381
C135	C	0.725505	0.206932	0.226619
C136	C	0.975505	0.456932	0.476619
C137	C	0.256512	-0.338061	-0.315075
C138	C	0.506512	-0.088061	-0.065075
C139	C	0.756512	0.161939	0.184925
C140	C	1.006512	0.411939	0.434925
C141	C	0.885563	-0.520559	-0.321932
C142	C	1.135563	-0.270559	-0.071932
C143	C	1.385563	-0.020559	0.178068
C144	C	1.635563	0.229441	0.428068
C145	C	0.882618	-0.598626	-0.324908
C146	C	1.132618	-0.348626	-0.074908
C147	C	1.382618	-0.098626	0.175092
C148	C	1.632618	0.151374	0.425092
C149	C	0.921323	-0.635281	-0.286289
C150	C	1.171323	-0.385281	-0.036289
C151	C	1.421323	-0.135281	0.213711
C152	C	1.671323	0.114719	0.463711
C153	C	0.918556	-0.708633	-0.289092
C154	C	1.168556	-0.458633	-0.039092
C155	C	1.418556	-0.208633	0.210908
C156	C	1.668556	0.041367	0.460908
C157	C	0.877082	-0.745330	-0.330512
C158	C	1.127082	-0.495330	-0.080512
C159	C	1.377082	-0.245330	0.169488
C160	C	1.627082	0.004670	0.419488
C161	C	0.838376	-0.708670	-0.369136
C162	C	1.088376	-0.458670	-0.119136
C163	C	1.338376	-0.208670	0.130864
C164	C	1.588376	0.041330	0.380864
C165	C	0.841145	-0.635319	-0.366336
C166	C	1.091145	-0.385319	-0.116336
C167	C	1.341145	-0.135319	0.133664
C168	C	1.591145	0.114681	0.383664
C169	C	0.866717	-0.966803	-0.340973
C170	C	1.116717	-0.716803	-0.090973
C171	C	1.366717	-0.466803	0.159027
C172	C	1.616717	-0.216803	0.409027
C173	C	0.863949	-1.040159	-0.343770
C174	C	1.113949	-0.790159	-0.093770
C175	C	1.363949	-0.540159	0.156230
C176	C	1.613949	-0.290159	0.406230
C177	C	0.944130	-1.040117	-0.263726
C178	C	1.194130	-0.790117	-0.013726
C179	C	1.444130	-0.540117	0.236274
C180	C	1.694130	-0.290117	0.486274
C181	C	0.946894	-0.966765	-0.260927
C182	C	1.196894	-0.716765	-0.010927
C183	C	1.446894	-0.466765	0.239073
C184	C	1.696894	-0.216765	0.489073
C185	C	0.908190	-0.930112	-0.299553
C186	C	1.158190	-0.680112	-0.049553
C187	C	1.408190	-0.430112	0.200447
C188	C	1.658190	-0.180112	0.450447
C189	C	0.874252	-0.820307	-0.333377
C190	C	1.124252	-0.570307	-0.083377
C191	C	1.374252	-0.320307	0.166623
C192	C	1.624252	-0.070307	0.416623
C193	C	0.911023	-0.855135	-0.296690
C194	C	1.161023	-0.605135	-0.046690
C195	C	1.411023	-0.355135	0.203310
C196	C	1.661023	-0.105135	0.453310
C197	C	1.056006	-0.338039	-0.315094
C198	C	1.306006	-0.088039	-0.065094
C199	C	1.556006	0.161961	0.184906
C200	C	1.806006	0.411961	0.434906
C201	C	1.125648	-0.338024	-0.315125
C202	C	1.375648	-0.088024	-0.065125
C203	C	1.625648	0.161976	0.184875
C204	C	1.875648	0.411976	0.434875
C205	C	0.892632	-0.338033	-0.478444
C206	C	1.142632	-0.088033	-0.228444
C207	C	1.392632	0.161967	0.021556
C208	C	1.642632	0.411967	0.271556
C209	C	0.892654	-0.338014	-0.548085
C210	C	1.142654	-0.088014	-0.298085
C211	C	1.392654	0.161986	-0.048085
C212	C	1.642654	0.411986	0.201915
C213	C	0.899644	-0.154881	-0.308100
C214	C	1.149644	0.095119	-0.058100
C215	C	1.399644	0.345119	0.191900
C216	C	1.649644	0.595119	0.441900
C217	C	0.902653	-0.076814	-0.305150
C218	C	1.152653	0.173186	-0.055150
C219	C	1.402653	0.423186	0.194850
C220	C	1.652653	0.673186	0.444850
C221	C	0.854323	-0.293096	-0.579073
C222	C	1.104323	-0.043096	-0.329073
C223	C	1.354323	0.206904	-0.079073
C224	C	1.604323	0.456904	0.170927
C225	C	0.854321	-0.293083	-0.644508
C226	C	1.104321	-0.043083	-0.394508
C227	C	1.354321	0.206917	-0.144508
C228	C	1.604321	0.456917	0.105492
C229	C	0.892662	-0.337981	-0.678952
C230	C	1.142662	-0.087981	-0.428952
C231	C	1.392662	0.162019	-0.178952
C232	C	1.642662	0.412019	0.071048
C233	C	0.930995	-0.382907	-0.647956
C234	C	1.180995	-0.132907	-0.397956
C235	C	1.430995	0.117093	-0.147956
C236	C	1.680995	0.367093	0.102044
C237	C	0.930991	-0.382924	-0.582523
C238	C	1.180991	-0.132924	-0.332523
C239	C	1.430991	0.117076	-0.082523
C240	C	1.680991	0.367076	0.167477
C241	C	0.948905	-0.343485	-0.782867
C242	C	1.198905	-0.093485	-0.532867
C243	C	1.448905	0.156515	-0.282867
C244	C	1.698905	0.406515	-0.032867
C245	C	0.948910	-0.343463	-0.848299
C246	C	1.198910	-0.093463	-0.598299
C247	C	1.448910	0.156537	-0.348299
C248	C	1.698910	0.406537	-0.098299
C249	C	0.892674	-0.337933	-0.880771
C250	C	1.142674	-0.087933	-0.630771
C251	C	1.392674	0.162067	-0.380771
C252	C	1.642674	0.412067	-0.130771
C253	C	0.836431	-0.332410	-0.847802
C254	C	1.086431	-0.082410	-0.597802
C255	C	1.336431	0.167590	-0.347802
C256	C	1.586431	0.417590	-0.097802
C257	C	0.836427	-0.332427	-0.782369
C258	C	1.086427	-0.082427	-0.532369
C259	C	1.336427	0.167573	-0.282369
C260	C	1.586427	0.417573	-0.032369
C261	C	0.892670	-0.337968	-0.749904
C262	C	1.142670	-0.087968	-0.499904
C263	C	1.392670	0.162032	-0.249904
C264	C	1.642670	0.412032	0.000096
C265	C	0.854338	-0.292999	-0.982711
C266	C	1.104338	-0.042999	-0.732711
C267	C	1.354338	0.207001	-0.482711
C268	C	1.604338	0.457001	-0.232711
C269	C	0.854335	-0.292991	-1.048147
C270	C	1.104335	-0.042991	-0.798147
C271	C	1.354335	0.207009	-0.548147
C272	C	1.604335	0.457009	-0.298147
C273	C	0.931015	-0.382811	-1.051595
C274	C	1.181015	-0.132811	-0.801595
C275	C	1.431015	0.117189	-0.551595
C276	C	1.681015	0.367189	-0.301595
C277	C	0.931012	-0.382823	-0.986160
C278	C	1.181012	-0.132823	-0.736160
C279	C	1.431012	0.117177	-0.486160
C280	C	1.681012	0.367177	-0.236160
C281	C	0.892675	-0.337913	-0.951722
C282	C	1.142675	-0.087913	-0.701722
C283	C	1.392675	0.162087	-0.451722
C284	C	1.642675	0.412087	-0.201722
C285	C	0.892568	-0.338069	-0.152235
C286	C	1.142568	-0.088069	0.097765
C287	C	1.392568	0.161931	0.347765
C288	C	1.642568	0.411931	0.597765
C289	C	0.892675	-0.337890	-0.082587
C290	C	1.142675	-0.087890	0.167413
C291	C	1.392675	0.162110	0.417413
C292	C	1.642675	0.412110	0.667413
H293	H	0.657166	-0.256531	-0.239274
H294	H	0.907166	-0.006531	0.010726
H295	H	1.157166	0.243469	0.260726
H296	H	1.407166	0.493469	0.510726
H297	H	0.452536	-0.327899	-0.212212
H298	H	0.702536	-0.077899	0.037788
H299	H	0.952536	0.172101	0.287788
H300	H	1.202536	0.422101	0.537788
Br301	Br	0.760106	-0.324897	-0.891863
Br302	Br	1.010106	-0.074897	-0.641863
Br303	Br	1.260106	0.175103	-0.391863
Br304	Br	1.510106	0.425103	-0.141863
H305	H	0.955093	-0.605407	-0.252558
H306	H	1.205093	-0.355407	-0.002558
H307	H	1.455093	-0.105407	0.247442
H308	H	1.705093	0.144593	0.497442
H309	H	0.823121	-0.256431	-0.954670
H310	H	1.073121	-0.006431	-0.704670
H311	H	1.323121	0.243569	-0.454670
H312	H	1.573121	0.493569	-0.204670
H313	H	0.830183	-1.070035	-0.377510
H314	H	1.080183	-0.820035	-0.127510
H315	H	1.330183	-0.570035	0.122490
H316	H	1.580183	-0.320035	0.372490
H317	H	0.950073	-0.738474	-0.257644
H318	H	1.200073	-0.488474	-0.007644
H319	H	1.450073	-0.238474	0.242356
H320	H	1.700073	0.011526	0.492356
Br321	Br	0.760102	-0.324934	-0.737628
Br322	Br	1.010102	-0.074934	-0.487628
Br323	Br	1.260102	0.175066	-0.237628
Br324	Br	1.510102	0.425066	0.012372
Br325	Br	0.782094	-0.758472	-0.425355
Br326	Br	1.032094	-0.508472	-0.175355
Br327	Br	1.282094	-0.258472	0.074645
Br328	Br	1.532094	-0.008472	0.324645
H329	H	0.333259	-0.348275	-0.417838
H330	H	0.583259	-0.098275	-0.167838
H331	H	0.833259	0.151725	0.082162
H332	H	1.083259	0.401725	0.332162
Br333	Br	1.003191	-0.916967	-0.204720
Br334	Br	1.253191	-0.666967	0.045280
Br335	Br	1.503191	-0.416967	0.295280
Br336	Br	1.753191	-0.166967	0.545280
H337	H	0.975642	-1.069968	-0.232280
H338	H	1.225642	-0.819968	0.017720
H339	H	1.475642	-0.569968	0.267720
H340	H	1.725642	-0.319968	0.517720
Br341	Br	0.814190	-0.917069	-0.393395
Br342	Br	1.064190	-0.667069	-0.143395
Br343	Br	1.314190	-0.417069	0.106605
Br344	Br	1.564190	-0.167069	0.356605
H345	H	0.823117	-0.256415	-1.073376
H346	H	1.073117	-0.006415	-0.823376
H347	H	1.323117	0.243585	-0.573376
H348	H	1.573117	0.493585	-0.323376
Br349	Br	0.788620	-0.585573	-0.418754
Br350	Br	1.038620	-0.335573	-0.168754
Br351	Br	1.288620	-0.085573	0.081246
Br352	Br	1.538620	0.164427	0.331246
Br353	Br	0.983044	-0.443752	-1.098333
Br354	Br	1.233044	-0.193752	-0.848333
Br355	Br	1.483044	0.056248	-0.598333
Br356	Br	1.733044	0.306248	-0.348333
H357	H	0.944794	-0.825255	-0.262968
H358	H	1.194794	-0.575255	-0.012968
H359	H	1.444794	-0.325255	0.237032
H360	H	1.694794	-0.075255	0.487032
H361	H	0.840482	-0.850194	-0.367101
H362	H	1.090482	-0.600194	-0.117101
H363	H	1.340482	-0.350194	0.132899
H364	H	1.590482	-0.100194	0.382899
Br365	Br	1.025231	-0.350999	-0.738804
Br366	Br	1.275231	-0.100999	-0.488804
Br367	Br	1.525231	0.149001	-0.238804
Br368	Br	1.775231	0.399001	0.011196
Br369	Br	0.802291	-0.232150	-0.532338
Br370	Br	1.052291	0.017850	-0.282338
Br371	Br	1.302291	0.267850	-0.032338
Br372	Br	1.552291	0.517850	0.217662
Br373	Br	0.513576	-0.444134	-0.413292
Br374	Br	0.763576	-0.194134	-0.163292
Br375	Br	1.013576	0.055866	0.086708
Br376	Br	1.263576	0.305866	0.336708
H377	H	0.823109	-0.256502	-0.669743
H378	H	1.073109	-0.006502	-0.419743
H379	H	1.323109	0.243498	-0.169743
H380	H	1.573109	0.493498	0.080257
H381	H	0.962227	-0.419398	-0.960929
H382	H	1.212227	-0.169398	-0.710929
H383	H	1.462227	0.080602	-0.460929
H384	H	1.712227	0.330602	-0.210929
H385	H	0.994706	-0.347958	-0.875137
H386	H	1.244706	-0.097958	-0.625137
H387	H	1.494706	0.152042	-0.375137
H388	H	1.744706	0.402042	-0.125137
H389	H	0.962213	-0.419463	-0.676005
H390	H	1.212213	-0.169463	-0.426005
H391	H	1.462213	0.080537	-0.176005
H392	H	1.712213	0.330537	0.073995
H393	H	0.128635	-0.419625	-0.390793
H394	H	0.378635	-0.169625	-0.140793
H395	H	0.628635	0.080375	0.109207
H396	H	0.878635	0.330375	0.359207
H397	H	0.650973	-0.419753	-0.390600
H398	H	0.900973	-0.169753	-0.140600
H399	H	1.150973	0.080247	0.109400
H400	H	1.400973	0.330247	0.359400
Br401	Br	0.264178	-0.444085	-0.413379
Br402	Br	0.514178	-0.194085	-0.163379
Br403	Br	0.764178	0.055915	0.086621
Br404	Br	1.014178	0.305915	0.336621
Br405	Br	0.469651	-0.351364	-0.448548
Br406	Br	0.719651	-0.101364	-0.198548
Br407	Br	0.969651	0.148636	0.051452
Br408	Br	1.219651	0.398636	0.301452
Br409	Br	0.117988	-0.231996	-0.216820
Br410	Br	0.367988	0.018004	0.033180
Br411	Br	0.617988	0.268004	0.283180
Br412	Br	0.867988	0.518004	0.533180
H413	H	0.962208	-0.419501	-0.557293
H414	H	1.212208	-0.169501	-0.307293
H415	H	1.462208	0.080499	-0.057293
H416	H	1.712208	0.330499	0.192707
Br417	Br	0.316154	-0.324818	-0.181503
Br418	Br	0.566154	-0.074818	0.068497
Br419	Br	0.816154	0.175182	0.318497
Br420	Br	1.066154	0.425182	0.568497
H421	H	0.538453	-0.256515	-0.239316
H422	H	0.788453	-0.006515	0.010684
H423	H	1.038453	0.243485	0.260684
H424	H	1.288453	0.493485	0.510684
Br425	Br	0.272219	-0.232033	-0.216767
Br426	Br	0.522219	0.017967	0.033233
Br427	Br	0.772219	0.267967	0.283233
Br428	Br	1.022219	0.517967	0.533233
