data_functionalizedCrystal
_audit_creation_method	'MofGen! by Chris Wilmer'
_symmetry_space_group_name_H-M	'P1'
_symmetry_Int_Tables_number	1
_symmetry_cell_setting	triclinic
loop_
_symmetry_equiv_pos_as_xyz
  x,y,z
_cell_length_a	19.188930
_cell_length_b	14.971486
_cell_length_c	18.266242
_cell_angle_alpha	90.004638
_cell_angle_beta	90.019668
_cell_angle_gamma	83.379454
loop_
_atom_site_label
_atom_site_type_symbol
_atom_site_fract_x
_atom_site_fract_y
_atom_site_fract_z
O1	O	-0.926506	-0.111668	-0.061117
O2	O	-0.426506	0.388332	0.438883
O3	O	-0.723243	-0.126700	-0.061067
O4	O	-0.223243	0.373300	0.438933
O5	O	-0.830322	0.011045	-0.061088
O6	O	-0.330322	0.511045	0.438912
O7	O	-0.819426	-0.249413	-0.061096
O8	O	-0.319426	0.250587	0.438904
O9	O	-0.830310	0.011048	0.060674
O10	O	-0.330310	0.511048	0.560674
O11	O	-0.723231	-0.126697	0.060695
O12	O	-0.223231	0.373303	0.560695
O13	O	-0.926494	-0.111665	0.060645
O14	O	-0.426494	0.388335	0.560645
Zn15	Zn	-0.824860	-0.119181	0.080003
Zn16	Zn	-0.324860	0.380819	0.580003
Zn17	Zn	-0.824876	-0.119185	-0.080424
Zn18	Zn	-0.324876	0.380815	0.419576
O19	O	-0.819414	-0.249410	0.060666
O20	O	-0.319414	0.250590	0.560666
C21	C	-0.829829	0.044368	-0.000207
C22	C	-0.329829	0.544368	0.499793
C23	C	-0.828369	0.143658	-0.000207
C24	C	-0.328369	0.643658	0.499793
C25	C	-0.697224	-0.126212	-0.000179
C26	C	-0.197224	0.373788	0.499821
C27	C	-0.619715	-0.124751	-0.000160
C28	C	-0.119715	0.375249	0.499840
C29	C	-0.952512	-0.112153	-0.000244
C30	C	-0.452512	0.387847	0.499756
C31	C	-1.030021	-0.113615	-0.000268
C32	C	-0.530021	0.386385	0.499732
C33	C	-0.575051	-0.205575	-0.000174
C34	C	-0.075051	0.294425	0.499826
C35	C	-0.502223	-0.204202	-0.000182
C36	C	-0.002223	0.295798	0.499818
C37	C	-0.474062	-0.122000	-0.000191
C38	C	0.025938	0.378000	0.499809
C39	C	-0.518735	-0.041165	-0.000173
C40	C	-0.018735	0.458835	0.499827
C41	C	-0.591562	-0.042541	-0.000157
C42	C	-0.091562	0.457459	0.499843
N43	N	-0.365883	-0.059168	-0.041659
N44	N	0.134117	0.440832	0.458341
N45	N	-0.296701	-0.057868	-0.041675
N46	N	0.203299	0.442132	0.458325
C47	C	-0.254640	-0.117852	-0.000235
C48	C	0.245360	0.382148	0.499765
N49	N	-0.284374	-0.179200	0.041212
N50	N	0.215626	0.320800	0.541212
N51	N	-0.353563	-0.180504	0.041225
N52	N	0.146437	0.319496	0.541225
C53	C	-0.395094	-0.120500	-0.000207
C54	C	0.104906	0.379500	0.499793
C55	C	-0.131007	-0.197193	-0.000257
C56	C	0.368993	0.302807	0.499743
C57	C	-0.058178	-0.195817	-0.000260
C58	C	0.441822	0.304183	0.499740
C59	C	-0.074692	-0.032778	-0.000258
C60	C	0.425308	0.467222	0.499742
C61	C	-0.147519	-0.034157	-0.000248
C62	C	0.352481	0.465843	0.499752
C63	C	-0.175672	-0.116367	-0.000250
C64	C	0.324328	0.383633	0.499750
C65	C	-0.819907	-0.282734	-0.000216
C66	C	-0.319907	0.217266	0.499784
C67	C	-0.821368	-0.382023	-0.000221
C68	C	-0.321368	0.117977	0.499779
N69	N	-0.824855	-0.119177	0.189490
N70	N	-0.324855	0.380823	0.689490
C71	C	-0.891275	0.201215	-0.000222
C72	C	-0.391275	0.701215	0.499778
C73	C	-0.889899	0.294507	-0.000229
C74	C	-0.389899	0.794507	0.499771
C75	C	-0.825615	0.330240	-0.000216
C76	C	-0.325615	0.830240	0.499784
C77	C	-0.762704	0.272675	-0.000203
C78	C	-0.262704	0.772675	0.499797
C79	C	-0.764081	0.179385	-0.000201
C80	C	-0.264081	0.679385	0.499799
C81	C	-0.759839	0.467123	-0.000205
C82	C	-0.259839	0.967123	0.499795
C83	C	-0.758461	0.560419	-0.000206
C84	C	-0.258461	1.060419	0.499794
C85	C	-0.885656	0.582245	-0.000233
C86	C	-0.385656	1.082245	0.499767
C87	C	-0.887033	0.488955	-0.000231
C88	C	-0.387033	0.988955	0.499769
C89	C	-0.824122	0.431396	-0.000217
C90	C	-0.324122	0.931396	0.499783
C91	C	-0.872300	-0.058206	0.771757
C92	C	-0.372300	0.441794	1.271757
C93	C	-0.872302	-0.058208	0.695113
C94	C	-0.372302	0.441792	1.195113
C95	C	-0.824875	-0.119178	0.656802
C96	C	-0.324875	0.380822	1.156802
C97	C	-0.777455	-0.180166	0.695143
C98	C	-0.277455	0.319834	1.195143
C99	C	-0.777460	-0.180169	0.771786
C100	C	-0.277460	0.319831	1.271786
N101	N	-0.763100	-0.130769	0.536491
N102	N	-0.263100	0.369231	1.036491
N103	N	-0.763098	-0.130761	0.463683
N104	N	-0.263098	0.369239	0.963683
C105	C	-0.824858	-0.119176	0.425880
C106	C	-0.324858	0.380824	0.925880
N107	N	-0.886623	-0.107580	0.463636
N108	N	-0.386623	0.392420	0.963636
N109	N	-0.886625	-0.107583	0.536450
N110	N	-0.386625	0.392417	1.036450
C111	C	-0.824864	-0.119182	0.573695
C112	C	-0.324864	0.380818	1.073695
C113	C	-0.872279	-0.058197	0.304441
C114	C	-0.372279	0.441803	0.804441
C115	C	-0.872281	-0.058205	0.227795
C116	C	-0.372281	0.441795	0.727795
C117	C	-0.777429	-0.180160	0.227827
C118	C	-0.277429	0.319840	0.727827
C119	C	-0.777433	-0.180156	0.304471
C120	C	-0.277433	0.319844	0.804471
C121	C	-0.824857	-0.119170	0.342774
C122	C	-0.324857	0.380830	0.842774
N123	N	-0.824884	-0.119183	0.810089
N124	N	-0.324884	0.380817	1.310089
H125	H	-0.597968	-0.272517	-0.000177
H126	H	-0.097968	0.227483	0.499823
N127	N	-0.044331	0.055886	-0.000269
N128	N	0.455669	0.555886	0.499731
H129	H	-0.060593	0.091284	0.044872
H130	H	0.439407	0.591284	0.544872
H131	H	0.008577	0.044422	-0.000307
H132	H	0.508577	0.544422	0.499693
H133	H	-0.708609	0.420260	-0.000196
H134	H	-0.208609	0.920260	0.499804
H135	H	-0.939378	0.459865	-0.000237
H136	H	-0.439378	0.959865	0.499763
H137	H	-0.943622	0.172130	-0.000228
H138	H	-0.443622	0.672130	0.499772
H139	H	-0.183886	0.031659	-0.000240
H140	H	0.316114	0.531659	0.499760
N141	N	-0.693370	0.311214	-0.000182
N142	N	-0.193370	0.811214	0.499818
H143	H	-0.653728	0.260592	-0.000173
H144	H	-0.153728	0.760592	0.499827
H145	H	-0.690031	0.349443	-0.045319
H146	H	-0.190031	0.849443	0.454681
N147	N	-0.161381	-0.285856	-0.000247
N148	N	0.338619	0.214144	0.499753
H149	H	-0.191248	-0.290063	-0.045380
H150	H	0.308752	0.209937	0.454620
H151	H	-0.121995	-0.336800	-0.000222
H152	H	0.378005	0.163200	0.499778
N153	N	-0.957747	0.356589	-0.000241
N154	N	-0.457747	0.856589	0.499759
H155	H	-0.998679	0.319796	-0.000243
H156	H	-0.498679	0.819796	0.499757
H157	H	-0.959935	0.395775	0.044897
H158	H	-0.459935	0.895775	0.544897
N159	N	-0.726278	-0.245911	0.345819
N160	N	-0.226278	0.254089	0.845819
H161	H	-0.752987	-0.285434	0.377605
H162	H	-0.252987	0.214566	0.877605
H163	H	-0.696245	-0.284472	0.309874
H164	H	-0.196245	0.215528	0.809874
H165	H	-0.910915	-0.008551	0.663897
H166	H	-0.410915	0.491449	1.163897
N167	N	-0.696237	0.117292	-0.000170
N168	N	-0.196237	0.617292	0.499830
H169	H	-0.693976	0.078091	-0.045304
H170	H	-0.193976	0.578091	0.454696
H171	H	-0.655339	0.154138	-0.000129
H172	H	-0.155339	0.654138	0.499871
N173	N	-0.953512	0.644320	-0.000247
N174	N	-0.453512	1.144320	0.499753
H175	H	-0.942888	0.708841	-0.000249
H176	H	-0.442888	1.208841	0.499751
H177	H	-0.981532	0.632772	-0.045389
H178	H	-0.481532	1.132772	0.454611
N179	N	-0.639735	0.044642	-0.000141
N180	N	-0.139735	0.544642	0.499859
H181	H	-0.630693	0.080520	-0.045279
H182	H	-0.130693	0.580520	0.454721
H183	H	-0.690124	0.031226	-0.000104
H184	H	-0.190124	0.531226	0.499896
N185	N	-0.923472	0.007540	0.813069
N186	N	-0.423472	0.507540	1.313069
H187	H	-0.953518	0.046159	0.777151
H188	H	-0.453518	0.546159	1.277151
H189	H	-0.954359	-0.026635	0.844838
H190	H	-0.454359	0.473365	1.344838
N191	N	-0.010000	-0.282996	-0.000217
N192	N	0.490000	0.217004	0.499783
H193	H	-0.038889	-0.335280	-0.000200
H194	H	0.461111	0.164720	0.499800
H195	H	0.020580	-0.286018	-0.045343
H196	H	0.520580	0.213982	0.454657
H197	H	-0.738840	-0.229811	0.663947
H198	H	-0.238840	0.270189	1.163947
N199	N	-0.726308	-0.245929	0.813135
N200	N	-0.226308	0.254071	1.313135
H201	H	-0.753018	-0.285448	0.844923
H202	H	-0.253018	0.214552	1.344923
H203	H	-0.696275	-0.284494	0.777192
H204	H	-0.196275	0.215506	1.277192
N205	N	-0.454037	-0.291380	-0.000198
N206	N	0.045963	0.208620	0.499802
H207	H	-0.482923	-0.343667	-0.000197
H208	H	0.017077	0.156333	0.499803
H209	H	-0.423488	-0.294350	-0.045346
H210	H	0.076512	0.205650	0.454654
N211	N	-0.923427	0.007575	0.345760
N212	N	-0.423427	0.507575	0.845760
H213	H	-0.953469	0.046201	0.309844
H214	H	-0.453469	0.546201	0.809844
H215	H	-0.954320	-0.026567	0.377548
H216	H	-0.454320	0.473433	0.877548
H217	H	-0.706116	0.589510	-0.000183
H218	H	-0.206116	1.089510	0.499817
H219	H	-0.495802	0.025764	-0.000190
H220	H	0.004198	0.525764	0.499810
N221	N	-0.923430	0.007560	0.186447
N222	N	-0.423430	0.507560	0.686447
H223	H	-0.953470	0.046192	0.222345
H224	H	-0.453470	0.546192	0.722345
H225	H	-0.896665	0.047013	0.154659
H226	H	-0.396665	0.547013	0.654659
H227	H	-0.738815	-0.229807	0.196635
H228	H	-0.238815	0.270193	0.696635
