data_functionalizedCrystal
_audit_creation_method	'MofGen! by Chris Wilmer'
_symmetry_space_group_name_H-M	'P1'
_symmetry_Int_Tables_number	1
_symmetry_cell_setting	triclinic
loop_
_symmetry_equiv_pos_as_xyz
  x,y,z
_cell_length_a	11.792254
_cell_length_b	9.065218
_cell_length_c	8.140239
_cell_angle_alpha	90.001686
_cell_angle_beta	89.997542
_cell_angle_gamma	95.392759
loop_
_atom_site_label
_atom_site_type_symbol
_atom_site_fract_x
_atom_site_fract_y
_atom_site_fract_z
O1	O	1.508019	-0.202311	-0.136597
O2	O	1.841353	0.131023	0.196736
O3	O	2.174686	0.464356	0.530070
O4	O	1.177796	-0.223132	-0.136602
O5	O	1.511129	0.110201	0.196732
O6	O	1.844462	0.443534	0.530065
O7	O	1.349733	0.001984	-0.136596
O8	O	1.683067	0.335318	0.196738
O9	O	2.016400	0.668651	0.530071
O10	O	1.336082	-0.427427	-0.136603
O11	O	1.669415	-0.094094	0.196731
O12	O	2.002749	0.239239	0.530064
O13	O	1.349724	0.001987	0.136631
O14	O	1.683057	0.335320	0.469965
O15	O	2.016390	0.668654	0.803298
O16	O	1.177786	-0.223130	0.136626
O17	O	1.511119	0.110204	0.469959
O18	O	1.844453	0.443537	0.803292
O19	O	1.508010	-0.202308	0.136630
O20	O	1.841343	0.131025	0.469964
O21	O	2.174677	0.464359	0.803297
Zn22	Zn	1.342896	-0.212718	0.180009
Zn23	Zn	1.676230	0.120615	0.513342
Zn24	Zn	2.009563	0.453948	0.846675
Zn25	Zn	1.342909	-0.212722	-0.179980
Zn26	Zn	1.676242	0.120611	0.153353
Zn27	Zn	2.009576	0.453945	0.486687
O28	O	1.336072	-0.427425	0.136624
O29	O	1.669406	-0.094092	0.469958
O30	O	2.002739	0.239242	0.803291
C31	C	1.135493	-0.221819	0.000011
C32	C	1.468826	0.111514	0.333345
C33	C	1.802160	0.444847	0.666678
C34	C	1.009458	-0.217894	0.000009
C35	C	1.342792	0.115440	0.333343
C36	C	1.676125	0.448773	0.666676
C37	C	1.550313	-0.203621	0.000014
C38	C	1.883646	0.129712	0.333347
C39	C	2.216979	0.463046	0.666680
C40	C	1.676347	-0.207547	0.000005
C41	C	2.009681	0.125786	0.333338
C42	C	2.343014	0.459120	0.666672
C43	C	1.348416	0.056960	0.000015
C44	C	1.681750	0.390294	0.333348
C45	C	2.015083	0.723627	0.666682
C46	C	1.344494	0.220767	0.000007
C47	C	1.677827	0.554100	0.333341
C48	C	2.011160	0.887433	0.666674
C49	C	1.778702	-0.210737	0.000002
C50	C	2.112035	0.122597	0.333335
C51	C	2.445368	0.455930	0.666668
C52	C	1.907110	-0.214725	0.000006
C53	C	2.240444	0.118608	0.333339
C54	C	2.573777	0.451941	0.666672
C55	C	1.337389	-0.482401	0.000010
C56	C	1.670722	-0.149067	0.333343
C57	C	2.004056	0.184266	0.666677
C58	C	1.341312	-0.646207	0.000007
C59	C	1.674645	-0.312874	0.333340
C60	C	2.007979	0.020460	0.666674
N61	N	1.342896	-0.212715	0.425691
N62	N	1.676229	0.120618	0.759024
N63	N	2.009563	0.453951	1.092358
N64	N	1.342918	-0.212713	-0.425662
N65	N	1.676252	0.120620	-0.092329
N66	N	2.009585	0.453953	0.241004
