data_functionalizedCrystal
_audit_creation_method	'MofGen! by Chris Wilmer'
_symmetry_space_group_name_H-M	'P1'
_symmetry_Int_Tables_number	1
_symmetry_cell_setting	triclinic
loop_
_symmetry_equiv_pos_as_xyz
  x,y,z
_cell_length_a	20.453700
_cell_length_b	27.923496
_cell_length_c	11.102315
_cell_angle_alpha	84.491829
_cell_angle_beta	108.606275
_cell_angle_gamma	81.036054
loop_
_atom_site_label
_atom_site_type_symbol
_atom_site_fract_x
_atom_site_fract_y
_atom_site_fract_z
V1	V	1.354478	-0.067128	0.397061
O2	O	1.357627	0.003223	0.388676
O3	O	1.330978	-0.133101	0.395141
O4	O	1.346986	-0.066097	0.569871
O5	O	1.341508	-0.064245	0.212737
V6	V	1.515522	-0.058713	0.374918
O7	O	1.441850	-0.085587	0.445634
O8	O	1.578216	-0.040254	0.326345
O9	O	1.464620	0.007260	0.376839
O10	O	1.551505	-0.129064	0.383303
O11	O	1.567624	-0.061596	0.559243
O12	O	1.448612	-0.059744	0.202109
V13	V	1.687811	-0.067128	0.397061
O14	O	1.690961	0.003223	0.388676
O15	O	1.664311	-0.133101	0.395141
O16	O	1.680319	-0.066097	0.569871
O17	O	1.674842	-0.064245	0.212737
V18	V	1.848856	-0.058713	0.374918
O19	O	1.775183	-0.085587	0.445634
O20	O	1.911550	-0.040254	0.326345
O21	O	1.797954	0.007260	0.376839
O22	O	1.884839	-0.129064	0.383303
O23	O	1.900958	-0.061596	0.559243
O24	O	1.781945	-0.059744	0.202109
V25	V	2.021145	-0.067128	0.397061
O26	O	2.024294	0.003223	0.388676
O27	O	1.997645	-0.133101	0.395141
O28	O	2.013653	-0.066097	0.569871
O29	O	2.008175	-0.064245	0.212737
V30	V	2.182189	-0.058713	0.374918
O31	O	2.108516	-0.085587	0.445634
O32	O	2.244883	-0.040254	0.326345
O33	O	2.131287	0.007260	0.376839
O34	O	2.218172	-0.129064	0.383303
O35	O	2.234291	-0.061596	0.559243
O36	O	2.115279	-0.059744	0.202109
C37	C	1.277240	-0.149184	0.389082
C38	C	1.285179	-0.203117	0.388664
C39	C	1.395251	-0.540045	0.392579
C40	C	1.425135	-0.742754	0.391067
O41	O	1.480670	-0.771070	0.396345
N42	N	1.368122	-0.765629	0.384501
C43	C	1.303635	-0.737824	0.378321
O44	O	1.255830	-0.761932	0.372715
C45	C	1.273754	-0.535116	0.379843
C46	C	1.330769	-0.512244	0.386396
C47	C	1.452261	-0.517172	0.399133
C48	C	1.444789	-0.466498	0.399504
C49	C	1.380307	-0.438696	0.393321
C50	C	1.323297	-0.461569	0.386767
C51	C	1.209269	-0.507313	0.373673
C52	C	1.201804	-0.456633	0.374057
C53	C	1.258819	-0.433760	0.380610
C54	C	1.251342	-0.383093	0.380955
N55	N	1.308355	-0.360218	0.387521
C56	C	1.372837	-0.388020	0.393704
C57	C	1.319327	-0.844248	0.377520
C58	C	1.326797	-0.894925	0.377137
C59	C	1.448297	-0.899852	0.389885
C60	C	1.440825	-0.849174	0.390259
C61	C	1.376340	-0.821374	0.384086
C62	C	1.357140	-0.281599	0.394482
C63	C	1.349661	-0.230919	0.394847
C64	C	1.228164	-0.225997	0.382106
C65	C	1.235641	-0.276672	0.381734
C66	C	1.300135	-0.304472	0.387927
O67	O	1.195832	-0.354747	0.375694
O68	O	1.420637	-0.363904	0.399338
C69	C	1.402723	-0.590720	0.392208
C70	C	1.345713	-0.613593	0.385654
C71	C	1.281231	-0.585791	0.379471
C72	C	1.353183	-0.664269	0.385271
C73	C	1.417665	-0.692071	0.391454
C74	C	1.474678	-0.669196	0.398020
C75	C	1.467206	-0.618522	0.398391
C76	C	1.224218	-0.608666	0.372905
C77	C	1.231695	-0.659341	0.372533
C78	C	1.296178	-0.687143	0.378716
C79	C	1.297660	-0.063712	0.611966
C80	C	1.318580	-0.063306	0.753244
C81	C	1.406139	0.023340	0.382894
C82	C	1.391279	0.077273	0.383320
C83	C	1.385719	-0.062130	0.160007
C84	C	1.357878	-0.062535	0.018728
C85	C	1.610573	-0.149184	0.389082
C86	C	1.618512	-0.203117	0.388664
C87	C	1.440106	-0.068154	0.766271
C88	C	1.510695	-0.070389	0.839157
C89	C	1.530348	-0.070006	0.971899
C90	C	1.479404	-0.067387	1.031757
C91	C	1.408815	-0.065152	0.958871
C92	C	1.389170	-0.065537	0.826128
C93	C	1.287289	-0.060300	0.945842
C94	C	1.267636	-0.060686	0.813102
C95	C	1.236346	-0.057681	1.005700
C96	C	1.165756	-0.055450	0.932816
C97	C	1.146106	-0.055833	0.800067
C98	C	1.197047	-0.058452	0.740216
C99	C	1.630993	-0.063712	0.611966
C100	C	1.651913	-0.063306	0.753244
C101	C	1.739472	0.023340	0.382894
C102	C	1.724613	0.077273	0.383320
C103	C	1.719052	-0.062130	0.160007
C104	C	1.691212	-0.062535	0.018728
C105	C	1.943906	-0.149184	0.389082
C106	C	1.951846	-0.203117	0.388664
C107	C	1.964326	-0.063712	0.611966
C108	C	1.985246	-0.063306	0.753244
C109	C	2.072805	0.023340	0.382894
C110	C	2.057946	0.077273	0.383320
C111	C	2.052386	-0.062130	0.160007
C112	C	2.024545	-0.062535	0.018728
C113	C	1.682995	-0.230919	0.394847
C114	C	1.690467	-0.281597	0.394473
C115	C	1.633454	-0.304472	0.387908
C116	C	1.568967	-0.276667	0.381728
C117	C	1.561497	-0.225990	0.382111
C118	C	1.775126	0.105075	0.377141
C119	C	1.761169	0.155753	0.377520
C120	C	1.696700	0.178627	0.384089
C121	C	1.646182	0.150822	0.390265
C122	C	1.660137	0.100146	0.389876
C123	C	2.016328	-0.230919	0.394847
C124	C	2.023800	-0.281597	0.394473
C125	C	1.966787	-0.304472	0.387908
C126	C	1.902300	-0.276667	0.381728
C127	C	1.894831	-0.225990	0.382111
C128	C	2.108460	0.105075	0.377141
C129	C	2.094502	0.155753	0.377520
C130	C	2.030033	0.178627	0.384089
C131	C	1.979515	0.150822	0.390265
C132	C	1.993471	0.100146	0.389876
C133	C	1.670797	-0.152167	0.790634
C134	C	1.690065	-0.196405	0.875700
C135	C	1.709721	-0.196020	1.008441
C136	C	1.710112	-0.151392	1.056118
C137	C	1.690844	-0.107155	0.971053
C138	C	1.671186	-0.107544	0.838310
C139	C	1.671965	-0.018294	0.933663
C140	C	1.652304	-0.018678	0.800921
C141	C	1.672356	0.026333	0.981340
C142	C	1.653083	0.070572	0.896274
C143	C	1.633425	0.070185	0.763525
C144	C	1.633036	0.025559	0.715855
C145	C	2.004130	-0.152167	0.790634
C146	C	2.023398	-0.196405	0.875700
C147	C	2.043055	-0.196020	1.008441
C148	C	2.043445	-0.151392	1.056118
C149	C	2.024177	-0.107155	0.971053
C150	C	2.004519	-0.107544	0.838310
C151	C	2.005299	-0.018294	0.933663
C152	C	1.985637	-0.018678	0.800921
C153	C	2.005689	0.026333	0.981340
C154	C	1.986416	0.070572	0.896274
C155	C	1.966758	0.070185	0.763525
C156	C	1.966369	0.025559	0.715855
H157	H	1.396092	-0.212299	0.400179
F158	F	1.612927	0.117269	0.673001
H159	H	1.827625	0.086457	0.371793
H160	H	2.076312	-0.304229	0.399502
H161	H	1.508987	-0.203357	0.377069
F162	F	2.148277	0.185336	0.370949
F163	F	2.015190	0.232562	0.384501
H164	H	1.742979	-0.304229	0.399502
F165	F	1.693281	0.026741	1.122617
F166	F	1.606369	0.070563	0.396458
F167	F	2.063566	-0.243102	1.098977
H168	H	2.062757	-0.212301	0.400186
F169	F	2.177079	0.080739	0.370150
F170	F	1.910903	0.175175	0.397249
H171	H	1.593690	0.169455	0.395612
H172	H	1.491219	-0.447880	0.404849
H173	H	1.088623	-0.054002	0.740726
H174	H	1.500800	-0.922496	0.394906
F175	F	1.974748	-0.358407	0.387500
H176	H	1.855884	-0.295299	0.376382
H177	H	1.162838	-0.525926	0.368326
F178	F	1.520897	-0.546754	0.405716
H179	H	1.189216	-0.295296	0.376406
H180	H	1.986741	0.106903	0.935105
H181	H	1.424112	-0.068472	0.658189
H182	H	1.181054	-0.058767	0.632133
F183	F	1.641414	-0.358407	0.387500
H184	H	2.023080	-0.232739	0.836866
F185	F	1.826195	-0.196406	0.375520
F186	F	1.266109	-0.919260	0.370135
H187	H	1.685345	0.219891	0.384404
F188	F	1.939702	0.070563	0.396458
F189	F	1.500322	-0.066974	1.173031
H190	H	1.654782	-0.152484	0.682550
H191	H	1.802312	0.178384	0.372493
H192	H	2.059460	-0.151083	1.164206
H193	H	1.409657	-0.304228	0.399526
F194	F	1.501508	-0.824836	0.397238
F195	F	1.508295	-0.301019	0.374736
F196	F	1.111547	-0.052660	0.996528
F197	F	1.689652	-0.243898	0.824950
F198	F	1.730233	-0.243102	1.098977
F199	F	1.731043	-0.150985	1.197396
F200	F	1.946261	0.117269	0.673001
F201	F	1.743683	-0.206584	0.401843
F202	F	1.945445	0.025144	0.574582
F203	F	1.257263	-0.057273	1.146976
F204	F	1.653505	0.118062	0.947024
F205	F	1.564909	-0.073179	0.775444
H206	H	1.617026	0.025240	0.607772
F207	F	2.026614	0.026741	1.122617
F208	F	1.250690	-0.814667	0.370945
F209	F	1.133170	-0.427049	0.367491
H210	H	1.175661	-0.203351	0.377065
F211	F	1.983199	-0.152580	0.649359
H212	H	1.513634	-0.599903	0.403727
H213	H	1.527181	-0.691841	0.403043
H214	H	1.185261	-0.677959	0.367188
H215	H	1.587826	-0.071825	1.031242
F216	F	1.155585	-0.579084	0.366323
