data_functionalizedCrystal
_audit_creation_method	'MofGen! by Chris Wilmer'
_symmetry_space_group_name_H-M	'P1'
_symmetry_Int_Tables_number	1
_symmetry_cell_setting	triclinic
loop_
_symmetry_equiv_pos_as_xyz
  x,y,z
_cell_length_a	19.077569
_cell_length_b	19.077241
_cell_length_c	16.120484
_cell_angle_alpha	84.670961
_cell_angle_beta	90.690422
_cell_angle_gamma	94.521759
loop_
_atom_site_label
_atom_site_type_symbol
_atom_site_fract_x
_atom_site_fract_y
_atom_site_fract_z
Zn1	Zn	-0.452650	-1.083087	-0.258976
Zn2	Zn	-0.340731	-1.072288	-0.404232
Zn3	Zn	-0.330508	-0.959984	-0.270654
Zn4	Zn	-0.453832	-0.959184	-0.404175
O5	O	-0.394430	-1.018636	-0.334509
O6	O	-0.441587	-1.180508	-0.273381
O7	O	-0.240925	-1.053207	-0.391424
O8	O	-0.341938	-0.981168	-0.152436
O9	O	-0.359360	-1.172574	-0.380100
O10	O	-0.431675	-1.071611	-0.143856
O11	O	-0.233414	-0.970698	-0.293285
O12	O	-0.343084	-0.861025	-0.293230
O13	O	-0.552125	-0.979804	-0.380003
O14	O	-0.433690	-0.860436	-0.391327
O15	O	-0.551257	-1.070835	-0.273326
O16	O	-0.360507	-1.052430	-0.520894
O17	O	-0.443602	-0.969333	-0.520852
C18	C	-0.387406	-0.835099	-0.343540
C19	C	-0.384419	-0.756581	-0.347423
C20	C	-0.403308	-1.009643	-0.551123
C21	C	-0.407132	-1.005861	-0.643786
C22	C	-0.577932	-1.026434	-0.325355
C23	C	-0.656129	-1.029758	-0.321454
C24	C	-0.693320	-0.983925	-0.375159
C25	C	-0.766795	-0.987054	-0.371493
C26	C	-0.803078	-1.036012	-0.314118
C27	C	-0.765882	-1.081849	-0.260411
C28	C	-0.692409	-1.078724	-0.264082
C29	C	-1.022771	-1.050445	-0.297189
C30	C	-1.096250	-1.053566	-0.293521
C31	C	-1.097157	-0.958771	-0.404604
C32	C	-1.023682	-0.955647	-0.408266
C33	C	-0.986493	-1.001487	-0.354562
N34	N	-0.878181	-1.039209	-0.310368
N35	N	-0.911392	-0.998292	-0.358317
C36	C	-0.211642	-1.010910	-0.343566
C37	C	-0.133440	-1.007734	-0.347225
C38	C	-0.425899	-0.723824	-0.293765
C39	C	-0.423086	-0.650048	-0.297409
C40	C	-0.378796	-0.609030	-0.354716
C41	C	-0.337311	-0.641792	-0.408376
C42	C	-0.340121	-0.715567	-0.404727
C43	C	-0.365790	-0.387944	-0.371575
C44	C	-0.362985	-0.314164	-0.375222
C45	C	-0.448758	-0.322425	-0.264253
C46	C	-0.451567	-0.396200	-0.260613
C47	C	-0.410080	-0.428956	-0.314270
N48	N	-0.375921	-0.533619	-0.358444
N49	N	-0.412952	-0.504366	-0.310537
C50	C	-0.401476	-0.202889	-0.325440
C51	C	-0.404464	-0.281407	-0.321564
C52	C	-0.414127	-0.998962	-0.813443
C53	C	-0.374750	-1.038437	-0.854729
C54	C	-0.378642	-1.034598	-0.949131
C55	C	-0.410236	-1.002800	-0.719032
C56	C	-0.385534	-1.027684	-0.117049
C57	C	-0.381744	-1.031539	-0.024380
H58	H	-0.663783	-0.944050	-0.421870
H59	H	-0.338114	-1.075115	-0.819176
Cl60	Cl	-0.287974	-0.756747	-0.472186
Cl61	Cl	-0.811496	-1.143401	-0.188287
H62	H	-0.994147	-0.915790	-0.454999
H63	H	-0.487635	-0.429592	-0.213950
Cl64	Cl	-0.813546	-0.929439	-0.439018
Cl65	Cl	-1.143913	-0.901151	-0.472116
Cl66	Cl	-0.470685	-0.942334	-0.868331
H67	H	-1.125789	-1.093432	-0.246792
Cl68	Cl	-0.500908	-0.281242	-0.196801
Cl69	Cl	-0.976029	-1.108070	-0.229671
Cl70	Cl	-0.307319	-0.262599	-0.447289
H71	H	-0.461966	-0.757215	-0.247101
Cl72	Cl	-0.645655	-1.136347	-0.196568
H73	H	-0.332009	-0.414604	-0.415267
H74	H	-0.456864	-0.623380	-0.253717
H75	H	-0.301246	-0.608390	-0.455033
