data_functionalizedCrystal
_audit_creation_method	'MofGen! by Chris Wilmer'
_symmetry_space_group_name_H-M	'P1'
_symmetry_Int_Tables_number	1
_symmetry_cell_setting	triclinic
loop_
_symmetry_equiv_pos_as_xyz
  x,y,z
_cell_length_a	14.044191
_cell_length_b	14.044220
_cell_length_c	9.130313
_cell_angle_alpha	90.000868
_cell_angle_beta	90.000955
_cell_angle_gamma	93.190327
loop_
_atom_site_label
_atom_site_type_symbol
_atom_site_fract_x
_atom_site_fract_y
_atom_site_fract_z
O1	O	1.277171	0.230193	0.121735
O2	O	1.777171	0.730193	0.621735
O3	O	1.000498	0.221880	0.121753
O4	O	1.500498	0.721880	0.621753
O5	O	1.134682	0.087701	0.121730
O6	O	1.634682	0.587701	0.621730
O7	O	1.142987	0.364373	0.121758
O8	O	1.642987	0.864373	0.621758
O9	O	1.134672	0.087709	-0.121869
O10	O	1.634672	0.587709	0.378131
O11	O	1.000489	0.221888	-0.121845
O12	O	1.500489	0.721888	0.378155
O13	O	1.277161	0.230201	-0.121864
O14	O	1.777161	0.730201	0.378136
Cu15	Cu	1.138824	0.226045	-0.144097
Cu16	Cu	1.638824	0.726045	0.355903
Cu17	Cu	1.138835	0.226036	0.143987
Cu18	Cu	1.638835	0.726036	0.643987
O19	O	1.142978	0.364381	-0.121840
O20	O	1.642978	0.864381	0.378160
C21	C	0.964872	0.218248	-0.000044
C22	C	1.464872	0.718248	0.499956
C23	C	0.858728	0.207401	-0.000037
C24	C	1.358728	0.707401	0.499963
C25	C	1.131041	0.052083	-0.000070
C26	C	1.631041	0.552083	0.499930
C27	C	1.120197	-0.054060	-0.000071
C28	C	1.620197	0.445940	0.499929
C29	C	0.613270	0.264501	-0.000046
C30	C	1.113270	0.764501	0.499954
C31	C	0.664395	0.187585	-0.000051
C32	C	1.164395	0.687585	0.499949
C33	C	0.772532	0.198613	-0.000044
C34	C	1.272532	0.698613	0.499956
C35	C	0.505123	0.253474	-0.000054
C36	C	1.005123	0.753474	0.499946
C37	C	1.100370	-0.248398	-0.000048
C38	C	1.600370	0.251602	0.499952
C39	C	1.177285	-0.299526	-0.000049
C40	C	1.677285	0.200474	0.499951
C41	C	1.166253	-0.407663	-0.000037
C42	C	1.666253	0.092337	0.499963
C43	C	1.111400	-0.140252	-0.000061
C44	C	1.611400	0.359748	0.499939
C45	C	1.312788	0.233834	-0.000063
C46	C	1.812788	0.733834	0.499937
C47	C	1.418931	0.244681	-0.000060
C48	C	1.918931	0.744681	0.499940
C49	C	1.146618	0.399998	-0.000037
C50	C	1.646618	0.899998	0.499963
C51	C	1.157463	0.506142	-0.000027
C52	C	1.657463	1.006142	0.499973
N53	N	1.138823	0.226052	-0.346720
N54	N	1.638823	0.726052	0.153280
C55	C	1.201620	0.288882	-0.423384
C56	C	1.701620	0.788882	0.076616
C57	C	1.201633	0.288866	-0.576720
C58	C	1.701633	0.788866	-0.076720
C59	C	1.076043	0.163185	-0.576716
C60	C	1.576043	0.663185	-0.076716
C61	C	1.076036	0.163198	-0.423382
C62	C	1.576036	0.663198	0.076618
C63	C	1.274126	0.361446	-0.423387
C64	C	1.774126	0.861446	0.076613
C65	C	1.274139	0.361429	-0.576724
C66	C	1.774139	0.861429	-0.076724
N67	N	1.138843	0.226023	0.346609
N68	N	1.638843	0.726023	0.846609
H69	H	0.626952	0.113452	0.000044
H70	H	1.126952	0.613452	0.500044
H71	H	0.650711	0.338628	-0.000034
H72	H	1.150711	0.838628	0.499966
O73	O	1.275488	-0.249943	-0.000082
O74	O	1.775488	0.250057	0.499918
H75	H	1.268858	-0.171558	-0.000106
H76	H	1.768858	0.328442	0.499894
O77	O	1.002174	-0.297981	-0.000065
O78	O	1.502174	0.202019	0.499935
H79	H	1.008811	-0.376365	-0.000077
H80	H	1.508811	0.123635	0.499923
H81	H	1.024910	0.112026	-0.360968
H82	H	1.524910	0.612026	0.139032
H83	H	1.024924	0.112012	-0.639153
H84	H	1.524924	0.612012	-0.139153
O85	O	1.371431	0.337952	-0.368227
O86	O	1.871431	0.837952	0.131773
H87	H	1.419074	0.326429	-0.462827
H88	H	1.919074	0.826429	0.037173
H89	H	1.249549	0.431006	-0.375844
H90	H	1.749549	0.931006	0.124156
H91	H	1.256350	0.434878	-0.618356
H92	H	1.756350	0.934878	-0.118356
H93	H	1.343720	0.336895	-0.624265
H94	H	1.843720	0.836895	-0.124265
