data_functionalizedCrystal
_audit_creation_method	'MofGen! by Chris Wilmer'
_symmetry_space_group_name_H-M	'P1'
_symmetry_Int_Tables_number	1
_symmetry_cell_setting	triclinic
loop_
_symmetry_equiv_pos_as_xyz
  x,y,z
_cell_length_a	18.101398
_cell_length_b	29.839125
_cell_length_c	18.101395
_cell_angle_alpha	89.986738
_cell_angle_beta	90.026371
_cell_angle_gamma	89.982423
loop_
_atom_site_label
_atom_site_type_symbol
_atom_site_fract_x
_atom_site_fract_y
_atom_site_fract_z
Zn1	Zn	1.132072	-0.254086	-0.295027
Zn2	Zn	1.632072	0.245914	0.204973
Zn3	Zn	1.131982	-0.178962	-0.418845
Zn4	Zn	1.631982	0.321038	0.081155
Zn5	Zn	1.008245	-0.178961	-0.295012
Zn6	Zn	1.508245	0.321039	0.204988
Zn7	Zn	1.008181	-0.254056	-0.418821
Zn8	Zn	1.508181	0.245944	0.081179
O9	O	1.070120	-0.216516	-0.356926
O10	O	1.570120	0.283484	0.143074
O11	O	1.235693	-0.244134	-0.311468
O12	O	1.735693	0.255866	0.188532
O13	O	1.115557	-0.116095	-0.402422
O14	O	1.615557	0.383905	0.097578
O15	O	1.024735	-0.188939	-0.191381
O16	O	1.524735	0.311061	0.308619
O17	O	1.235627	-0.188940	-0.402437
O18	O	1.735627	0.311060	0.097563
O19	O	1.115710	-0.244133	-0.191392
O20	O	1.615710	0.255867	0.308608
O21	O	1.024648	-0.116094	-0.311442
O22	O	1.524648	0.383906	0.188558
O23	O	0.904604	-0.188910	-0.311419
O24	O	1.404604	0.311090	0.188581
O25	O	1.024626	-0.316927	-0.402396
O26	O	1.524626	0.183073	0.097604
O27	O	0.904557	-0.244082	-0.402381
O28	O	1.404557	0.255918	0.097619
O29	O	1.115648	-0.316949	-0.311445
O30	O	1.615648	0.183051	0.188555
O31	O	1.115495	-0.188911	-0.522475
O32	O	1.615495	0.311089	-0.022475
O33	O	1.024540	-0.244082	-0.522457
O34	O	1.524540	0.255918	-0.022457
C35	C	0.877710	-0.216493	-0.356896
C36	C	1.377710	0.283507	0.143104
C37	C	0.795395	-0.216494	-0.356901
C38	C	1.295395	0.283506	0.143099
C39	C	1.070140	-0.333695	-0.356919
C40	C	1.570140	0.166305	0.143081
C41	C	1.070149	-0.383629	-0.356917
C42	C	1.570149	0.116371	0.143083
C43	C	0.496304	-0.216531	-0.356947
C44	C	0.996304	0.283469	0.143053
C45	C	0.527634	-0.181988	-0.299430
C46	C	1.027634	0.318012	0.200570
C47	C	0.613253	-0.181841	-0.299584
C48	C	1.113253	0.318159	0.200416
C49	C	0.644687	-0.216513	-0.356924
C50	C	1.144687	0.283487	0.143076
C51	C	0.613571	-0.203578	-0.434930
C52	C	1.113571	0.296422	0.065070
C53	C	0.527926	-0.203338	-0.434611
C54	C	1.027926	0.296662	0.065389
C55	C	0.527910	-0.264091	-0.337136
C56	C	1.027910	0.235909	0.162864
C57	C	0.613561	-0.263831	-0.335398
C58	C	1.113561	0.236169	0.164602
C59	C	0.728546	-0.216503	-0.356915
C60	C	1.228546	0.283497	0.143085
C61	C	0.412445	-0.216540	-0.356961
C62	C	0.912445	0.283460	0.143039
C63	C	1.117593	-0.693287	-0.309434
C64	C	1.617593	-0.193287	0.190566
C65	C	1.117630	-0.880960	-0.309371
C66	C	1.617630	-0.380960	0.190629
O67	O	1.157914	-0.905238	-0.269070
O68	O	1.657914	-0.405238	0.230930
N69	N	1.070247	-0.904415	-0.356718
N70	N	1.570247	-0.404415	0.143282
C71	C	1.022847	-0.880948	-0.404081
C72	C	1.522847	-0.380948	0.095919
O73	O	0.982540	-0.905203	-0.444346
O74	O	1.482540	-0.405203	0.055654
C75	C	1.022808	-0.693275	-0.404140
C76	C	1.522808	-0.193275	0.095860
C77	C	1.070199	-0.669824	-0.356795
C78	C	1.570199	-0.169824	0.143205
C79	C	1.164981	-0.669835	-0.262093
C80	C	1.664981	-0.169835	0.237907
C81	C	1.164974	-0.622920	-0.262112
C82	C	1.664974	-0.122920	0.237888
C83	C	1.117580	-0.599456	-0.309473
C84	C	1.617580	-0.099456	0.190527
C85	C	1.070193	-0.622908	-0.356814
C86	C	1.570193	-0.122908	0.143186
C87	C	0.975405	-0.669809	-0.451498
C88	C	1.475405	-0.169809	0.048502
C89	C	0.975398	-0.622888	-0.451507
C90	C	1.475398	-0.122888	0.048493
C91	C	1.022790	-0.599436	-0.404163
C92	C	1.522790	-0.099436	0.095837
C93	C	1.022792	-0.552529	-0.404194
C94	C	1.522792	-0.052529	0.095806
N95	N	1.070175	-0.529075	-0.356847
N96	N	1.570175	-0.029075	0.143153
C97	C	1.117569	-0.552538	-0.309486
C98	C	1.617569	-0.052538	0.190514
C99	C	1.022873	-0.979478	-0.404048
C100	C	1.522873	-0.479478	0.095952
C101	C	1.022884	-1.026396	-0.404034
C102	C	1.522884	-0.526396	0.095966
C103	C	1.117666	-1.026406	-0.309323
C104	C	1.617666	-0.526406	0.190677
C105	C	1.117658	-0.979487	-0.309341
C106	C	1.617658	-0.479487	0.190659
C107	C	1.070256	-0.956024	-0.356701
C108	C	1.570256	-0.456024	0.143299
C109	C	1.117552	-0.454013	-0.309530
C110	C	1.617552	0.045987	0.190470
C111	C	1.117543	-0.407093	-0.309556
C112	C	1.617543	0.092907	0.190444
C113	C	1.022758	-0.407087	-0.404264
C114	C	1.522758	0.092913	0.095736
C115	C	1.022770	-0.454003	-0.404241
C116	C	1.522770	0.045997	0.095759
C117	C	1.070169	-0.477464	-0.356869
C118	C	1.570169	0.022536	0.143131
O119	O	0.982523	-0.528223	-0.444468
O120	O	1.482523	-0.028223	0.055532
O121	O	1.157858	-0.528275	-0.269216
O122	O	1.657858	-0.028275	0.230784
C123	C	1.117600	-0.740203	-0.309415
C124	C	1.617600	-0.240203	0.190585
C125	C	1.070213	-0.763654	-0.356757
C126	C	1.570213	-0.263654	0.143243
C127	C	1.022819	-0.740191	-0.404117
C128	C	1.522819	-0.240191	0.095883
C129	C	1.070224	-0.810572	-0.356743
C130	C	1.570224	-0.310572	0.143257
C131	C	1.117618	-0.834036	-0.309383
C132	C	1.617618	-0.334036	0.190617
C133	C	1.165001	-0.810582	-0.262036
C134	C	1.665001	-0.310582	0.237964
C135	C	1.164994	-0.763666	-0.262055
C136	C	1.664994	-0.263666	0.237945
C137	C	0.975435	-0.763645	-0.451464
C138	C	1.475435	-0.263645	0.048536
C139	C	0.975447	-0.810560	-0.451442
C140	C	1.475447	-0.310560	0.048558
C141	C	1.022841	-0.834024	-0.404081
C142	C	1.522841	-0.334024	0.095919
C143	C	1.263282	-0.216540	-0.356957
C144	C	1.763282	0.283460	0.143043
C145	C	1.345596	-0.216550	-0.356970
C146	C	1.845596	0.283450	0.143030
C147	C	1.070021	-0.216503	-0.549337
C148	C	1.570021	0.283497	-0.049337
C149	C	1.070046	-0.216513	-0.631651
C150	C	1.570046	0.283487	-0.131651
C151	C	1.070143	-0.099794	-0.356879
C152	C	1.570143	0.400206	0.143121
C153	C	1.070278	-0.049860	-0.356674
C154	C	1.570278	0.450140	0.143326
C155	C	1.070209	-0.216537	-0.930742
C156	C	1.570209	0.283463	-0.430742
C157	C	1.013115	-0.251335	-0.899436
C158	C	1.513115	0.248665	-0.399436
C159	C	1.012843	-0.251226	-0.813818
C160	C	1.512843	0.248774	-0.313818
C161	C	1.070128	-0.216525	-0.782359
C162	C	1.570128	0.283475	-0.282359
C163	C	1.049008	-0.169177	-0.813490
C164	C	1.549008	0.330823	-0.313490
C165	C	1.048640	-0.169385	-0.899135
C166	C	1.548640	0.330615	-0.399135
C167	C	1.148548	-0.228670	-0.899097
C168	C	1.648548	0.271330	-0.399097
C169	C	1.148087	-0.229708	-0.813446
C170	C	1.648087	0.270292	-0.313446
C171	C	1.070084	-0.216516	-0.698500
C172	C	1.570084	0.283484	-0.198500
C173	C	1.070251	-0.216543	-1.014601
C174	C	1.570251	0.283457	-0.514601
C175	C	1.070240	-0.216540	-0.163764
C176	C	1.570240	0.283460	0.336236
C177	C	1.070291	-0.216549	-0.081450
C178	C	1.570291	0.283451	0.418550
H179	H	0.507063	-0.190007	-0.241408
H180	H	1.007063	0.309993	0.258592
H181	H	0.991375	-0.159107	-0.919169
H182	H	1.491375	0.340893	-0.419169
H183	H	0.936841	-0.744546	-0.490033
H184	H	1.436841	-0.244546	0.009967
H185	H	0.634292	-0.189948	-0.241739
H186	H	1.134292	0.310052	0.258261
C187	C	0.935144	-0.240614	-0.928582
C188	C	1.435144	0.259386	-0.428582
C189	C	0.872392	-0.229765	-0.874022
C190	C	1.372392	0.270235	-0.374022
C191	C	0.794424	-0.219041	-0.903169
C192	C	1.294424	0.280959	-0.403169
C193	C	0.779207	-0.219166	-0.986877
C194	C	1.279207	0.280834	-0.486877
C195	C	0.841961	-0.230016	-1.041442
C196	C	1.341961	0.269984	-0.541442
C197	C	0.919930	-0.240739	-1.012294
C198	C	1.419930	0.259261	-0.512294
H199	H	0.883655	-0.229672	-0.812052
H200	H	1.383655	0.270328	-0.312052
H201	H	0.747970	-0.211009	-0.862776
H202	H	1.247970	0.288991	-0.362776
H203	H	0.721491	-0.211228	-1.008453
H204	H	1.221491	0.288772	-0.508453
H205	H	0.830698	-0.230109	-1.103411
H206	H	1.330698	0.269891	-0.603411
H207	H	0.966384	-0.248771	-1.052687
H208	H	1.466384	0.251229	-0.552687
H209	H	1.167805	-0.262608	-0.920660
H210	H	1.667805	0.237392	-0.420660
H211	H	1.156247	-0.960396	-0.270788
H212	H	1.656247	-0.460396	0.229212
C213	C	0.498531	-0.134656	-0.316912
C214	C	0.998531	0.365344	0.183088
C215	C	0.446492	-0.127265	-0.383129
C216	C	0.946492	0.372735	0.116871
C217	C	0.417388	-0.079933	-0.400614
C218	C	0.917388	0.420067	0.099386
C219	C	0.440324	-0.039992	-0.351882
C220	C	0.940324	0.460008	0.148118
C221	C	0.492367	-0.047381	-0.285660
C222	C	0.992367	0.452619	0.214340
C223	C	0.521470	-0.094713	-0.268175
C224	C	1.021470	0.405287	0.231825
H225	H	0.429511	-0.156833	-0.419208
H226	H	0.929511	0.343167	0.080792
H227	H	0.378863	-0.074463	-0.449636
H228	H	0.878863	0.425537	0.050364
H229	H	0.418780	-0.004954	-0.364825
H230	H	0.918780	0.495046	0.135175
H231	H	0.509348	-0.017813	-0.249582
H232	H	1.009348	0.482187	0.250418
H233	H	0.559996	-0.100183	-0.219154
H234	H	1.059996	0.399817	0.280846
C235	C	0.499916	-0.235838	-0.494466
C236	C	0.999916	0.264162	0.005534
C237	C	0.451155	-0.218331	-0.557960
C238	C	0.951155	0.281669	-0.057960
C239	C	0.423147	-0.250829	-0.617817
C240	C	0.923147	0.249171	-0.117817
C241	C	0.443898	-0.300833	-0.614180
C242	C	0.943898	0.199167	-0.114180
C243	C	0.492661	-0.318343	-0.550684
C244	C	0.992661	0.181657	-0.050684
C245	C	0.520670	-0.285846	-0.490827
C246	C	1.020670	0.214154	0.009173
H247	H	0.435791	-0.181312	-0.560654
H248	H	0.935791	0.318688	-0.060654
H249	H	0.387049	-0.237866	-0.664821
H250	H	0.887049	0.262134	-0.164821
H251	H	0.423165	-0.324890	-0.658490
H252	H	0.923165	0.175110	-0.158490
H253	H	0.508026	-0.355362	-0.547990
H254	H	1.008026	0.144638	-0.047990
H255	H	0.556768	-0.298808	-0.443823
H256	H	1.056768	0.201192	0.056177
C257	C	0.640901	-0.134235	-0.317286
C258	C	1.140901	0.365765	0.182714
C259	C	0.585050	-0.096234	-0.331331
C260	C	1.085050	0.403766	0.168669
C261	C	0.612698	-0.048626	-0.349038
C262	C	1.112698	0.451374	0.150962
C263	C	0.696197	-0.039020	-0.352701
C264	C	1.196197	0.460980	0.147299
C265	C	0.752053	-0.077021	-0.338657
C266	C	1.252053	0.422979	0.161343
C267	C	0.724405	-0.124629	-0.320949
C268	C	1.224405	0.375371	0.179051
H269	H	0.523235	-0.103344	-0.328619
H270	H	1.023235	0.396656	0.171381
H271	H	0.571350	-0.020495	-0.359435
H272	H	1.071350	0.479505	0.140565
H273	H	0.716664	-0.003778	-0.365810
H274	H	1.216664	0.496222	0.134190
H275	H	0.813869	-0.069911	-0.341368
H276	H	1.313869	0.430089	0.158632
H277	H	0.765754	-0.152761	-0.310553
H278	H	1.265754	0.347239	0.189447
H279	H	0.507921	-0.168569	-0.451414
H280	H	1.007921	0.331431	0.048586
H281	H	0.954776	-0.243189	-0.793387
H282	H	1.454776	0.256811	-0.293387
H283	H	1.164014	-0.264554	-0.793098
H284	H	1.664014	0.235446	-0.293098
H285	H	0.984301	-1.045486	-0.442595
H286	H	1.484301	-0.545486	0.057405
C287	C	0.970637	-0.381267	-0.456363
C288	C	1.470637	0.118733	0.043637
C289	C	0.912520	-0.349000	-0.424274
C290	C	1.412520	0.151000	0.075726
C291	C	0.860400	-0.323176	-0.476373
C292	C	1.360400	0.176824	0.023627
C293	C	0.866398	-0.329620	-0.560561
C294	C	1.366398	0.170380	-0.060561
C295	C	0.924518	-0.361888	-0.592655
C296	C	1.424518	0.138112	-0.092655
C297	C	0.976638	-0.387712	-0.540556
C298	C	1.476638	0.112288	-0.040556
H299	H	0.908077	-0.344228	-0.361949
H300	H	1.408077	0.155772	0.138051
H301	H	0.817375	-0.299288	-0.452614
H302	H	1.317375	0.200712	0.047386
H303	H	0.827816	-0.310503	-0.599128
H304	H	1.327816	0.189497	-0.099128
H305	H	0.928961	-0.366660	-0.654980
H306	H	1.428961	0.133340	-0.154980
H307	H	1.019663	-0.411600	-0.564315
H308	H	1.519663	0.088400	-0.064315
H309	H	0.633931	-0.227950	-0.478932
H310	H	1.133931	0.272050	0.021068
C311	C	0.642501	-0.157114	-0.458027
C312	C	1.142501	0.342886	0.041973
C313	C	0.587753	-0.118744	-0.473605
C314	C	1.087753	0.381256	0.026395
C315	C	0.616680	-0.072279	-0.496697
C316	C	1.116680	0.427721	0.003303
C317	C	0.700355	-0.064184	-0.504212
C318	C	1.200355	0.435816	-0.004212
C319	C	0.755109	-0.102555	-0.488634
C320	C	1.255109	0.397445	0.011366
C321	C	0.726181	-0.149020	-0.465542
C322	C	1.226181	0.350980	0.034458
H323	H	0.525806	-0.124735	-0.468042
H324	H	1.025806	0.375265	0.031958
H325	H	0.576147	-0.043874	-0.508228
H326	H	1.076147	0.456126	-0.008228
H327	H	0.721769	-0.029788	-0.521306
H328	H	1.221769	0.470212	-0.021306
H329	H	0.817055	-0.096564	-0.494197
H330	H	1.317055	0.403436	0.005803
H331	H	0.766714	-0.177425	-0.454011
H332	H	1.266714	0.322575	0.045989
H333	H	0.506336	-0.275851	-0.281244
H334	H	1.006336	0.224149	0.218756
H335	H	1.088422	-0.142573	-0.919845
H336	H	1.588422	0.357427	-0.419845
C337	C	1.103414	-0.133191	-0.785962
C338	C	1.603414	0.366809	-0.285962
C339	C	1.167806	-0.146413	-0.734773
C340	C	1.667806	0.353587	-0.234773
C341	C	1.222213	-0.110428	-0.707244
C342	C	1.722213	0.389572	-0.207244
C343	C	1.212226	-0.061222	-0.730903
C344	C	1.712226	0.438778	-0.230903
C345	C	1.147831	-0.047998	-0.782095
C346	C	1.647831	0.452002	-0.282095
C347	C	1.093424	-0.083983	-0.809624
C348	C	1.593424	0.416017	-0.309624
H349	H	1.175201	-0.182840	-0.717256
H350	H	1.675201	0.317160	-0.217256
H351	H	1.269883	-0.120217	-0.669348
H352	H	1.769883	0.379783	-0.169348
H353	H	1.252501	-0.034584	-0.710525
H354	H	1.752501	0.465416	-0.210525
H355	H	1.140436	-0.011570	-0.799612
H356	H	1.640436	0.488430	-0.299612
H357	H	1.045755	-0.074193	-0.847520
H358	H	1.545755	0.425807	-0.347520
H359	H	1.156256	-1.045518	-0.270761
H360	H	1.656256	-0.545518	0.229239
C361	C	0.642479	-0.300464	-0.387867
C362	C	1.142479	0.199536	0.112133
C363	C	0.625928	-0.297680	-0.471196
C364	C	1.125928	0.202320	0.028804
C365	C	0.654853	-0.334310	-0.523670
C366	C	1.154853	0.165690	-0.023670
C367	C	0.700329	-0.373724	-0.492814
C368	C	1.200329	0.126276	0.007186
C369	C	0.716882	-0.376509	-0.409480
C370	C	1.216882	0.123491	0.090520
C371	C	0.687957	-0.339879	-0.357006
C372	C	1.187957	0.160121	0.142994
H373	H	0.592263	-0.268502	-0.494042
H374	H	1.092263	0.231498	0.005958
H375	H	0.642600	-0.332248	-0.585360
H376	H	1.142600	0.167752	-0.085360
H377	H	0.721741	-0.400839	-0.531659
H378	H	1.221741	0.099161	-0.031659
H379	H	0.750547	-0.405687	-0.386635
H380	H	1.250547	0.094313	0.113365
H381	H	0.700210	-0.341941	-0.295317
H382	H	1.200210	0.158059	0.204683
C383	C	0.923258	-0.695591	-0.503574
C384	C	1.423258	-0.195591	-0.003574
C385	C	0.955280	-0.727848	-0.561732
C386	C	1.455280	-0.227848	-0.061732
C387	C	0.903123	-0.753625	-0.613809
C388	C	1.403123	-0.253625	-0.113809
C389	C	0.818943	-0.747146	-0.607728
C390	C	1.318943	-0.247146	-0.107728
C391	C	0.786915	-0.714888	-0.549568
C392	C	1.286915	-0.214888	-0.049568
C393	C	0.839073	-0.689110	-0.497491
C394	C	1.339073	-0.189110	0.002509
H395	H	1.017600	-0.732645	-0.566235
H396	H	1.517600	-0.232645	-0.066235
H397	H	0.926832	-0.777505	-0.656863
H398	H	1.426832	-0.277505	-0.156863
H399	H	0.780333	-0.766228	-0.646279
H400	H	1.280333	-0.266228	-0.146279
H401	H	0.724596	-0.710090	-0.545065
H402	H	1.224596	-0.210090	-0.045065
H403	H	0.815364	-0.665231	-0.454437
H404	H	1.315364	-0.165231	0.045563
C405	C	1.030686	-0.298655	-0.785376
C406	C	1.530686	0.201345	-0.285376
C407	C	1.033927	-0.307847	-0.701721
C408	C	1.533927	0.192153	-0.201721
C409	C	1.051766	-0.355279	-0.673284
C410	C	1.551766	0.144721	-0.173284
C411	C	1.066362	-0.393519	-0.728501
C412	C	1.566362	0.106481	-0.228501
C413	C	1.063121	-0.384328	-0.812161
C414	C	1.563121	0.115672	-0.312161
C415	C	1.045283	-0.336896	-0.840598
C416	C	1.545283	0.163104	-0.340598
H417	H	1.023122	-0.279539	-0.660842
H418	H	1.523122	0.220461	-0.160842
H419	H	1.054165	-0.362082	-0.611353
H420	H	1.554165	0.137918	-0.111353
H421	H	1.079568	-0.428630	-0.707450
H422	H	1.579568	0.071370	-0.207450
H423	H	1.073927	-0.412636	-0.853040
H424	H	1.573927	0.087364	-0.353040
H425	H	1.042883	-0.330093	-0.902529
H426	H	1.542883	0.169907	-0.402529
C427	C	0.970726	-0.953677	-0.456153
C428	C	1.470726	-0.453677	0.043847
C429	C	0.886545	-0.960132	-0.450094
C430	C	1.386545	-0.460132	0.049906
C431	C	0.834397	-0.934336	-0.502202
C432	C	1.334397	-0.434336	-0.002202
C433	C	0.866431	-0.902085	-0.560369
C434	C	1.366431	-0.402085	-0.060369
C435	C	0.950616	-0.895628	-0.566431
C436	C	1.450616	-0.395628	-0.066431
C437	C	1.002763	-0.921425	-0.514322
C438	C	1.502763	-0.421425	-0.014322
H439	H	0.862828	-0.984008	-0.407033
H440	H	1.362828	-0.484008	0.092967
H441	H	0.772078	-0.939116	-0.497715
H442	H	1.272078	-0.439116	0.002285
H443	H	0.827828	-0.882989	-0.598943
H444	H	1.327828	-0.382989	-0.098943
H445	H	0.974333	-0.871753	-0.609491
H446	H	1.474333	-0.371753	-0.109491
H447	H	1.065083	-0.916645	-0.518810
H448	H	1.565083	-0.416645	-0.018810
H449	H	1.192875	-0.206211	-0.792028
H450	H	1.692875	0.293789	-0.292028
H451	H	1.203585	-0.744576	-0.223501
H452	H	1.703585	-0.244576	0.276499
H453	H	0.633903	-0.273584	-0.277994
H454	H	1.133903	0.226416	0.222006
C455	C	0.500543	-0.298863	-0.393730
C456	C	1.000543	0.201137	0.106270
C457	C	0.449773	-0.284204	-0.457606
C458	C	0.949773	0.215796	0.042394
C459	C	0.422405	-0.318971	-0.514204
C460	C	0.922405	0.181029	-0.014204
C461	C	0.445808	-0.368397	-0.506926
C462	C	0.945808	0.131603	-0.006926
C463	C	0.496581	-0.383058	-0.443046
C464	C	0.996581	0.116942	0.056954
C465	C	0.523949	-0.348291	-0.386448
C466	C	1.023949	0.151709	0.113552
H467	H	0.432447	-0.247614	-0.462997
H468	H	0.932447	0.252386	0.037003
H469	H	0.384820	-0.308117	-0.561492
H470	H	0.884820	0.191883	-0.061492
H471	H	0.425548	-0.394133	-0.548823
H472	H	0.925548	0.105867	-0.048823
H473	H	0.513907	-0.419648	-0.437655
H474	H	1.013907	0.080352	0.062345
H475	H	0.561534	-0.359144	-0.339160
H476	H	1.061534	0.140856	0.160840
C477	C	1.169675	-0.381297	-0.257471
C478	C	1.669675	0.118703	0.242529
C479	C	1.163681	-0.387749	-0.173280
C480	C	1.663681	0.112251	0.326720
C481	C	1.215810	-0.361955	-0.121196
C482	C	1.715810	0.138045	0.378804
C483	C	1.273933	-0.329709	-0.153303
C484	C	1.773933	0.170291	0.346697
C485	C	1.279928	-0.323256	-0.237499
C486	C	1.779928	0.176744	0.262501
C487	C	1.227799	-0.349050	-0.289583
C488	C	1.727799	0.150950	0.210417
H489	H	1.120654	-0.411620	-0.149508
H490	H	1.620654	0.088380	0.350492
H491	H	1.211372	-0.366732	-0.058868
H492	H	1.711372	0.133268	0.441132
H493	H	1.312521	-0.310615	-0.114747
H494	H	1.812521	0.189385	0.385253
H495	H	1.322956	-0.299385	-0.261271
H496	H	1.822956	0.200615	0.238729
H497	H	1.232238	-0.344273	-0.351911
H498	H	1.732238	0.155727	0.148089
H499	H	1.203564	-0.603830	-0.223558
H500	H	1.703564	-0.103830	0.276442
H501	H	1.156146	-0.473109	-0.270953
H502	H	1.656146	0.026891	0.229047
C503	C	0.923258	-0.597078	-0.503608
C504	C	1.423258	-0.097078	-0.003608
C505	C	0.839074	-0.603519	-0.497548
C506	C	1.339074	-0.103519	0.002452
C507	C	0.786938	-0.577709	-0.549649
C508	C	1.286938	-0.077709	-0.049649
C509	C	0.818986	-0.545458	-0.607810
C510	C	1.318986	-0.045458	-0.107810
C511	C	0.903174	-0.539016	-0.613872
C512	C	1.403174	-0.039016	-0.113872
C513	C	0.955310	-0.564826	-0.561771
C514	C	1.455310	-0.064826	-0.061771
H515	H	0.815347	-0.627394	-0.454492
H516	H	1.315347	-0.127394	0.045508
H517	H	0.724616	-0.582478	-0.545161
H518	H	1.224616	-0.082478	-0.045161
H519	H	0.780391	-0.526352	-0.646378
H520	H	1.280391	-0.026352	-0.146378
H521	H	0.926901	-0.515141	-0.656928
H522	H	1.426901	-0.015141	-0.156928
H523	H	1.017632	-0.560057	-0.566258
H524	H	1.517632	-0.060057	-0.066258
H525	H	1.203575	-0.688935	-0.223522
H526	H	1.703575	-0.188935	0.276478
H527	H	0.984186	-0.473098	-0.442800
H528	H	1.484186	0.026902	0.057200
H529	H	0.992349	-0.158715	-0.792096
H530	H	1.492349	0.341285	-0.292096
H531	H	1.191085	-0.203325	-0.919340
H532	H	1.691085	0.296675	-0.419340
H533	H	1.203594	-0.829694	-0.223475
H534	H	1.703594	-0.329694	0.276525
C535	C	1.030783	-0.298919	-0.927218
C536	C	1.530783	0.201081	-0.427218
C537	C	0.973341	-0.324879	-0.973115
C538	C	1.473341	0.175121	-0.473115
C539	C	0.991013	-0.372463	-1.000904
C540	C	1.491013	0.127537	-0.500904
C541	C	1.066127	-0.394087	-0.982797
C542	C	1.566127	0.105913	-0.482797
C543	C	1.123573	-0.368127	-0.936898
C544	C	1.623573	0.131873	-0.436898
C545	C	1.105901	-0.320543	-0.909109
C546	C	1.605901	0.179457	-0.409109
H547	H	0.917733	-0.308872	-0.986521
H548	H	1.417733	0.191128	-0.486521
H549	H	0.948487	-0.391681	-1.034881
H550	H	1.448487	0.108319	-0.534881
H551	H	1.079208	-0.429312	-1.003368
H552	H	1.579208	0.070688	-0.503368
H553	H	1.179181	-0.384134	-0.923492
H554	H	1.679181	0.115866	-0.423492
H555	H	1.148428	-0.301325	-0.875132
H556	H	1.648428	0.198675	-0.375132
H557	H	0.936856	-0.829651	-0.490003
H558	H	1.436856	-0.329651	0.009997
