data_functionalizedCrystal
_audit_creation_method	'MofGen! by Chris Wilmer'
_symmetry_space_group_name_H-M	'P1'
_symmetry_Int_Tables_number	1
_symmetry_cell_setting	triclinic
loop_
_symmetry_equiv_pos_as_xyz
  x,y,z
_cell_length_a	12.759394
_cell_length_b	21.395362
_cell_length_c	21.395356
_cell_angle_alpha	90.035878
_cell_angle_beta	89.975754
_cell_angle_gamma	89.969284
loop_
_atom_site_label
_atom_site_type_symbol
_atom_site_fract_x
_atom_site_fract_y
_atom_site_fract_z
Zn1	Zn	-0.417843	-0.957879	-0.354603
Zn2	Zn	-0.593537	-0.957825	-0.249832
Zn3	Zn	-0.417921	-0.853108	-0.249804
Zn4	Zn	-0.593529	-0.853092	-0.354537
O5	O	-0.505707	-0.905476	-0.302194
O6	O	-0.441119	-1.045549	-0.340744
O7	O	-0.570277	-0.943918	-0.162151
O8	O	-0.270890	-0.867036	-0.263721
O9	O	-0.570201	-1.045510	-0.263770
O10	O	-0.270832	-0.944010	-0.340717
O11	O	-0.441253	-0.866984	-0.162130
O12	O	-0.441245	-0.765428	-0.263658
O13	O	-0.570187	-0.867008	-0.442224
O14	O	-0.570264	-0.765416	-0.340605
O15	O	-0.441112	-0.943994	-0.442272
O16	O	-0.740557	-0.943902	-0.263706
O17	O	-0.740551	-0.866955	-0.340632
C18	C	-0.505763	-0.742688	-0.302121
C19	C	-0.505812	-0.673047	-0.302105
C20	C	-0.778675	-0.905438	-0.302179
C21	C	-0.895452	-0.905480	-0.302193
C22	C	-0.505640	-0.905505	-0.465617
C23	C	-0.505611	-0.905517	-0.535259
C24	C	-0.895404	-0.985665	-0.222150
C25	C	-0.950241	-1.025773	-0.182136
C26	C	-1.059963	-1.025810	-0.182153
C27	C	-1.114850	-0.985735	-0.222190
C28	C	-1.060013	-0.945626	-0.262204
C29	C	-0.950289	-0.945593	-0.262182
C30	C	-1.060060	-0.865445	-0.342250
C31	C	-0.950338	-0.865404	-0.342230
C32	C	-1.114947	-0.825370	-0.382286
C33	C	-1.060110	-0.785257	-0.422298
C34	C	-0.950382	-0.785222	-0.422279
C35	C	-0.895501	-0.825296	-0.382244
C36	C	-0.231674	-0.905531	-0.302223
C37	C	-0.114897	-0.905554	-0.302235
C38	C	-0.505652	-1.068899	-0.302267
C39	C	-0.505629	-1.138541	-0.302299
C40	C	-0.573081	-0.640344	-0.342112
C41	C	-0.573055	-0.574909	-0.342139
C42	C	-0.505772	-0.542179	-0.302150
C43	C	-0.438490	-0.574890	-0.262141
C44	C	-0.438510	-0.640324	-0.262118
C45	C	-0.497324	-0.438461	-0.245744
C46	C	-0.497311	-0.373028	-0.245766
C47	C	-0.505703	-0.340358	-0.302219
C48	C	-0.514130	-0.373129	-0.358653
C49	C	-0.514150	-0.438564	-0.358631
C50	C	-0.505742	-0.471226	-0.302170
C51	C	-0.572947	-0.236702	-0.342259
C52	C	-0.572914	-0.171266	-0.342288
C53	C	-0.438354	-0.171248	-0.262284
C54	C	-0.438382	-0.236684	-0.262260
C55	C	-0.505684	-0.269407	-0.302247
C56	C	-0.438234	-0.945663	-1.037081
C57	C	-0.438259	-0.945658	-0.971646
C58	C	-0.505471	-0.905571	-0.938897
C59	C	-0.572682	-0.865497	-0.971590
C60	C	-0.572662	-0.865508	-1.037024
C61	C	-0.513818	-0.849103	-0.835203
C62	C	-0.513830	-0.849092	-0.769770
C63	C	-0.505538	-0.905539	-0.737076
C64	C	-0.497212	-0.961999	-0.769824
C65	C	-0.497192	-0.962010	-0.835259
C66	C	-0.505501	-0.905555	-0.867945
C67	C	-0.438364	-0.945608	-0.633439
C68	C	-0.438397	-0.945604	-0.568003
C69	C	-0.572814	-0.865438	-0.567948
C70	C	-0.572787	-0.865447	-0.633383
C71	C	-0.505557	-0.905531	-0.666125
C72	C	-0.505699	-0.905483	-0.139407
C73	C	-0.505432	-0.905592	-0.069766
H74	H	-0.806063	-0.985631	-0.222124
H75	H	-0.627691	-0.144640	-0.374870
H76	H	-0.905543	-1.058404	-0.149540
H77	H	-0.627882	-0.666983	-0.374673
H78	H	-0.905739	-0.752563	-0.454866
H79	H	-0.806160	-0.825267	-0.382221
H80	H	-0.627833	-0.548277	-0.374720
H81	H	-0.383610	-0.263311	-0.229680
H82	H	-0.383535	-0.978289	-0.945029
Br83	Br	-0.485877	-0.328559	-0.169178
Br84	Br	-0.485935	-0.482791	-0.169122
Br85	Br	-0.347029	-0.126836	-0.208017
Br86	Br	-0.347201	-0.999997	-0.523644
Br87	Br	-0.347167	-0.530473	-0.207874
H88	H	-0.383728	-0.666950	-0.229540
H89	H	-0.383494	-0.978306	-1.063736
H90	H	-0.521009	-0.465243	-0.404581
H91	H	-0.627544	-0.832800	-0.541285
H92	H	-0.490415	-1.007982	-0.861919
Br93	Br	-0.663906	-0.811097	-0.927147
Br94	Br	-0.525517	-0.328801	-0.435275
H95	H	-0.490457	-1.007964	-0.743207
Br96	Br	-0.347103	-0.999993	-0.677879
H97	H	-0.627503	-0.832814	-0.659995
H98	H	-0.520609	-0.803119	-0.743111
H99	H	-1.104611	-1.058473	-0.149573
H100	H	-0.520571	-0.803134	-0.861816
Br101	Br	-0.664279	-0.281116	-0.396528
H102	H	-1.204288	-0.825406	-0.382300
Br103	Br	-1.263758	-0.985492	-0.221919
Br104	Br	-1.134603	-0.730882	-0.476634
Br105	Br	-0.663869	-0.811123	-1.081385
