data_functionalizedCrystal
_audit_creation_method	'MofGen! by Chris Wilmer'
_symmetry_space_group_name_H-M	'P1'
_symmetry_Int_Tables_number	1
_symmetry_cell_setting	triclinic
loop_
_symmetry_equiv_pos_as_xyz
  x,y,z
_cell_length_a	12.759401
_cell_length_b	12.827892
_cell_length_c	12.827885
_cell_angle_alpha	89.970024
_cell_angle_beta	89.981893
_cell_angle_gamma	90.015669
loop_
_atom_site_label
_atom_site_type_symbol
_atom_site_fract_x
_atom_site_fract_y
_atom_site_fract_z
Zn1	Zn	1.606246	-0.415975	-0.590815
Zn2	Zn	1.939579	-0.082641	-0.257481
Zn3	Zn	2.272913	0.250692	0.075852
Zn4	Zn	1.606139	-0.590752	-0.416075
Zn5	Zn	1.939473	-0.257419	-0.082741
Zn6	Zn	2.272806	0.075915	0.250592
Zn7	Zn	1.430549	-0.416027	-0.416092
Zn8	Zn	1.763882	-0.082693	-0.082759
Zn9	Zn	2.097216	0.250640	0.250575
Zn10	Zn	1.430534	-0.590675	-0.590778
Zn11	Zn	1.763868	-0.257342	-0.257445
Zn12	Zn	2.097201	0.075991	0.075889
O13	O	1.518367	-0.503357	-0.503440
O14	O	1.851701	-0.170024	-0.170107
O15	O	2.185034	0.163310	0.163227
O16	O	1.753253	-0.439170	-0.567643
O17	O	2.086586	-0.105836	-0.234310
O18	O	2.419919	0.227497	0.099023
O19	O	1.582809	-0.567628	-0.269841
O20	O	1.916142	-0.234295	0.063493
O21	O	2.249475	0.099038	0.396826
O22	O	1.453906	-0.269784	-0.439292
O23	O	1.787240	0.063550	-0.105959
O24	O	2.120573	0.396883	0.227375
O25	O	1.753175	-0.567578	-0.439262
O26	O	2.086508	-0.234245	-0.105929
O27	O	2.419841	0.099089	0.227404
O28	O	1.582990	-0.269746	-0.567660
O29	O	1.916323	0.063588	-0.234327
O30	O	2.249657	0.396921	0.099007
O31	O	1.453803	-0.439258	-0.269854
O32	O	1.787137	-0.105925	0.063480
O33	O	2.120470	0.227409	0.396813
O34	O	1.283526	-0.439184	-0.439256
O35	O	1.616860	-0.105850	-0.105923
O36	O	1.950193	0.227483	0.227410
O37	O	1.453881	-0.567447	-0.737019
O38	O	1.787215	-0.234114	-0.403686
O39	O	2.120548	0.099220	-0.070352
O40	O	1.283515	-0.567497	-0.567598
O41	O	1.616849	-0.234164	-0.234264
O42	O	1.950182	0.099169	0.099069
O43	O	1.582976	-0.439095	-0.737046
O44	O	1.916309	-0.105762	-0.403713
O45	O	2.249642	0.227571	-0.070379
O46	O	1.582794	-0.736978	-0.439227
O47	O	1.916128	-0.403645	-0.105893
O48	O	2.249461	-0.070311	0.227440
O49	O	1.453778	-0.736922	-0.567581
O50	O	1.787111	-0.403588	-0.234247
O51	O	2.120445	-0.070255	0.099086
C52	C	1.245400	-0.503338	-0.503425
C53	C	1.578733	-0.170005	-0.170092
C54	C	1.912066	0.163328	0.163241
C55	C	1.128623	-0.503356	-0.503444
C56	C	1.461957	-0.170022	-0.170111
C57	C	1.795290	0.163311	0.163223
C58	C	0.964052	-0.570286	-0.570173
C59	C	1.297385	-0.236953	-0.236840
C60	C	1.630719	0.096381	0.096493
C61	C	1.073776	-0.570274	-0.570162
C62	C	1.407109	-0.236941	-0.236829
C63	C	1.740443	0.096392	0.096504
C64	C	1.073741	-0.436452	-0.436725
C65	C	1.407074	-0.103118	-0.103391
C66	C	1.740407	0.230215	0.229942
C67	C	0.964019	-0.436469	-0.436731
C68	C	1.297352	-0.103136	-0.103398
C69	C	1.630685	0.230197	0.229936
C70	C	1.518301	-0.774867	-0.503421
C71	C	1.851635	-0.441534	-0.170087
C72	C	2.184968	-0.108200	0.163246
C73	C	1.518369	-0.891020	-0.503447
C74	C	1.851703	-0.557687	-0.170114
C75	C	2.185036	-0.224354	0.163219
C76	C	1.582216	-0.942703	-0.567025
C77	C	1.915549	-0.609369	-0.233692
C78	C	2.248882	-0.276036	0.099642
C79	C	1.582287	-1.062753	-0.567054
C80	C	1.915621	-0.729420	-0.233721
C81	C	2.248954	-0.396086	0.099613
C82	C	1.792400	-0.503377	-0.503455
C83	C	2.125734	-0.170043	-0.170122
C84	C	2.459067	0.163290	0.163212
C85	C	1.909177	-0.503385	-0.503461
C86	C	2.242510	-0.170052	-0.170128
C87	C	2.575844	0.163282	0.163205
C88	C	1.518439	-0.503257	-0.776010
C89	C	1.851772	-0.169923	-0.442677
C90	C	2.185105	0.163410	-0.109344
C91	C	1.518469	-0.503214	-0.892163
C92	C	1.851802	-0.169881	-0.558830
C93	C	2.185136	0.163453	-0.225497
C94	C	1.518462	-0.230787	-0.503482
C95	C	1.851795	0.102546	-0.170149
C96	C	2.185128	0.435880	0.163185
C97	C	1.518502	-0.114634	-0.503500
C98	C	1.851835	0.218699	-0.170167
C99	C	2.185169	0.552033	0.163166
C100	C	1.582356	-0.439689	-0.943961
C101	C	1.915689	-0.106356	-0.610628
C102	C	2.249023	0.226978	-0.277295
C103	C	1.582389	-0.439643	-1.064012
C104	C	1.915722	-0.106310	-0.730679
C105	C	2.249056	0.227023	-0.397345
C106	C	1.518356	-0.503382	-0.231930
C107	C	1.851690	-0.170048	0.101403
C108	C	2.185023	0.163285	0.434737
C109	C	1.518529	-0.503130	-0.115777
C110	C	1.851863	-0.169797	0.217556
C111	C	2.185196	0.163537	0.550889
H112	H	1.118406	-0.381970	-0.382397
H113	H	1.451739	-0.048636	-0.049064
H114	H	1.785073	0.284697	0.284270
H115	H	1.463842	-1.070195	-0.449062
H116	H	1.797175	-0.736862	-0.115728
H117	H	2.130508	-0.403529	0.217605
H118	H	1.463791	-0.557559	-0.936694
H119	H	1.797124	-0.224226	-0.603361
H120	H	2.130457	0.109107	-0.270027
H121	H	1.118450	-0.624753	-0.624485
H122	H	1.451784	-0.291420	-0.291152
H123	H	1.785117	0.041914	0.042182
H124	H	1.637024	-0.385333	-0.899431
H125	H	1.970357	-0.052000	-0.566098
H126	H	2.303691	0.281333	-0.232764
H127	H	1.637089	-0.385261	-1.108557
H128	H	1.970422	-0.051928	-0.775224
H129	H	2.303755	0.281406	-0.441890
H130	H	1.463834	-0.557523	-1.071239
H131	H	1.797168	-0.224189	-0.737906
H132	H	2.130501	0.109144	-0.404572
H133	H	0.919338	-0.381989	-0.382401
H134	H	1.252672	-0.048655	-0.049068
H135	H	1.586005	0.284678	0.284265
C136	C	1.655991	-0.882422	-0.640529
C137	C	1.989324	-0.549089	-0.307195
C138	C	2.322658	-0.215756	0.026138
H139	H	1.646270	-0.809643	-0.630861
H140	H	1.979603	-0.476309	-0.297528
H141	H	2.312937	-0.142976	0.035806
H142	H	1.640608	-0.900218	-0.710750
H143	H	1.973941	-0.566885	-0.377417
H144	H	2.307274	-0.233551	-0.044084
H145	H	1.726620	-0.900209	-0.625306
H146	H	2.059954	-0.566875	-0.291973
H147	H	2.393287	-0.233542	0.041360
H148	H	1.636952	-1.107199	-0.621481
H149	H	1.970286	-0.773866	-0.288148
H150	H	2.303619	-0.440532	0.045185
H151	H	0.919403	-0.624774	-0.624509
H152	H	1.252737	-0.291440	-0.291176
H153	H	1.586070	0.041893	0.042158
H154	H	1.463757	-0.935650	-0.449043
H155	H	1.797090	-0.602316	-0.115709
H156	H	2.130423	-0.268983	0.217624
