data_functionalizedCrystal
_audit_creation_method	'MofGen! by Chris Wilmer'
_symmetry_space_group_name_H-M	'P1'
_symmetry_Int_Tables_number	1
_symmetry_cell_setting	triclinic
loop_
_symmetry_equiv_pos_as_xyz
  x,y,z
_cell_length_a	10.489716
_cell_length_b	12.811457
_cell_length_c	11.892095
_cell_angle_alpha	91.498327
_cell_angle_beta	86.073346
_cell_angle_gamma	95.714544
loop_
_atom_site_label
_atom_site_type_symbol
_atom_site_fract_x
_atom_site_fract_y
_atom_site_fract_z
O1	O	-0.175986	1.390510	0.048541
O2	O	-0.191985	1.087269	0.017451
O3	O	0.001593	1.245802	0.033718
O4	O	-0.369564	1.231977	0.032274
O5	O	-0.014522	1.232584	0.220369
O6	O	-0.208100	1.074051	0.204102
O7	O	-0.192101	1.377292	0.235192
Zn8	Zn	-0.202659	1.223573	0.249282
Zn9	Zn	-0.181427	1.240988	0.003361
O10	O	-0.385679	1.218759	0.218925
C11	C	-0.198652	1.041830	0.106796
C12	C	-0.194494	0.926129	0.094934
C13	C	-0.204227	0.694303	0.276155
C14	C	-0.200320	0.585592	0.265015
C15	C	-0.182764	0.599993	0.061517
C16	C	-0.186671	0.708705	0.072656
C17	C	-0.197405	0.755856	0.179979
C18	C	-0.201321	0.864568	0.191117
C19	C	-0.183756	0.878969	-0.012380
C20	C	-0.179849	0.770257	-0.023520
C21	C	-0.425156	1.226407	0.125703
C22	C	-0.566796	1.229516	0.126011
C23	C	-0.664184	1.132297	0.116060
C24	C	-0.733766	1.190186	0.029307
C25	C	-0.749590	1.177176	0.213333
C26	C	-0.634505	1.287370	0.039179
C27	C	-0.650330	1.274339	0.223285
C28	C	-0.719861	1.332302	0.136518
C29	C	0.041070	1.238154	0.126938
C30	C	0.182710	1.235046	0.126622
C31	C	-0.185434	1.422731	0.145845
C32	C	-0.189591	1.538433	0.157700
N33	N	-0.217149	1.211694	0.417118
N34	N	-0.166927	1.252875	-0.164473
C35	C	-0.066028	1.335528	0.666472
C36	C	-0.076165	1.327233	0.783962
C37	C	-0.247555	1.186805	0.769591
C38	C	-0.237417	1.195100	0.652101
C39	C	-0.146652	1.269465	0.600545
C40	C	-0.136521	1.277765	0.483053
C41	C	-0.307904	1.137332	0.468684
C42	C	-0.318042	1.129037	0.586174
H43	H	-0.205883	0.535479	0.343332
H44	H	-0.062619	1.338319	0.441078
C45	C	0.118612	1.366226	0.536493
C46	C	0.033699	1.417286	0.609776
H47	H	0.180164	1.416708	0.501485
H48	H	0.161225	1.319305	0.577852
H49	H	0.072031	1.328052	0.480431
H50	H	0.080279	1.455454	0.665844
H51	H	-0.008917	1.464226	0.568416
H52	H	-0.321445	1.126251	0.811583
H53	H	-0.391938	1.068487	0.628164
C54	C	-0.630372	1.426339	0.345631
C55	C	-0.600781	1.322252	0.333989
H56	H	-0.599786	1.455907	0.413984
H57	H	-0.590620	1.465604	0.283859
H58	H	-0.720785	1.428094	0.346964
H59	H	-0.510366	1.320498	0.332647
H60	H	-0.640529	1.282977	0.395777
H61	H	-0.212984	0.732693	0.363540
H62	H	-0.210068	0.902956	0.278504
C63	C	-0.168964	0.439736	-0.045904
C64	C	-0.170958	0.548153	-0.056444
H65	H	-0.161682	0.407733	-0.118730
H66	H	-0.097707	0.426370	-0.005166
H67	H	-0.246165	0.411575	-0.006682
H68	H	-0.093753	0.576314	-0.095659
H69	H	-0.242222	0.561526	-0.097200
C70	C	-0.287393	0.998673	-0.119032
C71	C	-0.176257	0.946629	-0.118107
H72	H	-0.282762	1.040447	-0.184299
H73	H	-0.360444	0.948567	-0.119909
H74	H	-0.294330	1.042314	-0.053521
H75	H	-0.169325	0.902982	-0.183615
H76	H	-0.103186	0.996741	-0.117241
C77	C	-0.497749	1.283844	-0.130973
C78	C	-0.567165	1.350176	-0.060307
H79	H	-0.456183	1.322615	-0.192394
H80	H	-0.435284	1.255602	-0.089665
H81	H	-0.554713	1.228337	-0.158798
H82	H	-0.510199	1.405680	-0.032475
H83	H	-0.629637	1.378434	-0.101622
C84	C	-0.886486	1.448521	0.149309
C85	C	-0.753178	1.446547	0.148170
H86	H	-0.907050	1.519052	0.156503
H87	H	-0.916404	1.418350	0.080998
H88	H	-0.926409	1.409513	0.211212
H89	H	-0.713255	1.485550	0.086261
H90	H	-0.723247	1.476733	0.216488
H91	H	-0.010511	1.381027	0.837637
C92	C	-0.469789	1.125345	0.334379
C93	C	-0.396542	1.064712	0.396217
H94	H	-0.524507	1.080516	0.289639
H95	H	-0.520259	1.165818	0.384689
H96	H	-0.414272	1.170811	0.286857
H97	H	-0.452059	1.019251	0.443745
H98	H	-0.346068	1.024221	0.345901
H99	H	-0.799641	1.130607	0.286928
H100	H	-0.770433	1.154657	-0.052701
H101	H	-0.639252	1.047740	0.107294
C102	C	-0.273120	0.738160	-0.201510
C103	C	-0.168062	0.718422	-0.141484
H104	H	-0.265841	0.706164	-0.274340
H105	H	-0.350296	0.709989	-0.162282
H106	H	-0.274458	0.811717	-0.208633
H107	H	-0.166729	0.644865	-0.134354
H108	H	-0.090865	0.746588	-0.180722
