data_functionalizedCrystal
_audit_creation_method	'MofGen! by Chris Wilmer'
_symmetry_space_group_name_H-M	'P1'
_symmetry_Int_Tables_number	1
_symmetry_cell_setting	triclinic
loop_
_symmetry_equiv_pos_as_xyz
  x,y,z
_cell_length_a	9.130313
_cell_length_b	10.654550
_cell_length_c	10.654550
_cell_angle_alpha	84.484931
_cell_angle_beta	90.004369
_cell_angle_gamma	90.000276
loop_
_atom_site_label
_atom_site_type_symbol
_atom_site_fract_x
_atom_site_fract_y
_atom_site_fract_z
O1	O	-0.121690	-1.667839	-0.176399
O2	O	-0.121716	-1.302361	-0.193205
O3	O	-0.121693	-1.493503	-0.002063
O4	O	-0.121713	-1.476697	-0.367541
O5	O	0.121906	-1.493490	-0.002057
O6	O	0.121882	-1.302348	-0.193199
O7	O	0.121909	-1.667826	-0.176393
Cu8	Cu	0.144138	-1.485086	-0.184796
Cu9	Cu	-0.143946	-1.485101	-0.184802
O10	O	0.121886	-1.476684	-0.367535
C11	C	0.000080	-1.255556	-0.191968
C12	C	0.000070	-1.116113	-0.188276
N13	N	0.346761	-1.485084	-0.184790
N14	N	-0.346568	-1.485113	-0.184798
C15	C	0.423423	-1.569751	-0.100188
C16	C	0.576760	-1.569763	-0.100189
C17	C	0.576759	-1.400437	-0.269404
C18	C	0.423425	-1.400420	-0.269396
C19	C	0.000105	-1.492263	0.044738
C20	C	0.000103	-1.488571	0.184181
C21	C	0.000110	-1.714631	-0.177630
C22	C	0.000110	-1.854074	-0.181322
C23	C	0.000068	-1.036628	-0.300818
C24	C	0.000093	-0.905607	-0.297341
C25	C	0.000117	-0.933570	-0.068772
C26	C	0.000101	-1.064588	-0.072250
C27	C	0.000084	-1.477925	-0.414336
C28	C	0.000077	-1.481616	-0.553779
C29	C	0.000111	-1.601112	0.263667
C30	C	0.000092	-1.597636	0.394688
C31	C	0.000065	-1.369066	0.366725
C32	C	0.000073	-1.372544	0.235706
H33	H	0.639174	-1.638704	-0.031297
O34	O	0.000122	-1.719023	0.480418
H35	H	-0.099144	-1.774512	0.461956
H36	H	0.361002	-1.331468	-0.338290
O37	O	0.659444	-1.309138	-0.360670
H38	H	0.778947	-1.323383	-0.346475
H39	H	0.000062	-1.280893	0.170985
O40	O	0.000064	-1.092208	-0.425953
H41	H	0.000086	-1.014920	-0.503625
H42	H	0.000095	-0.840894	-0.388984
O43	O	0.000140	-0.877999	0.056369
H44	H	0.000137	-0.773539	0.039883
H45	H	0.000107	-1.129309	0.019401
H46	H	0.000132	-1.695588	0.221720
O47	O	0.000064	-1.243926	0.422296
H48	H	0.000081	-1.260412	0.526756
H49	H	0.361007	-1.638687	-0.031295
