data_functionalizedCrystal
_audit_creation_method	'MofGen! by Chris Wilmer'
_symmetry_space_group_name_H-M	'P1'
_symmetry_Int_Tables_number	1
_symmetry_cell_setting	triclinic
loop_
_symmetry_equiv_pos_as_xyz
  x,y,z
_cell_length_a	21.295420
_cell_length_b	21.295417
_cell_length_c	17.077396
_cell_angle_alpha	89.966808
_cell_angle_beta	89.980250
_cell_angle_gamma	90.028757
loop_
_atom_site_label
_atom_site_type_symbol
_atom_site_fract_x
_atom_site_fract_y
_atom_site_fract_z
Zn1	Zn	0.962325	-0.250639	-0.443822
Zn2	Zn	0.962236	-0.355912	-0.312545
Zn3	Zn	0.857057	-0.250657	-0.312570
Zn4	Zn	0.857017	-0.355871	-0.443768
O5	O	0.909659	-0.303269	-0.378176
O6	O	1.050402	-0.264613	-0.426420
O7	O	0.948263	-0.341974	-0.202702
O8	O	0.871075	-0.162565	-0.330013
O9	O	1.050337	-0.341956	-0.329972
O10	O	0.948414	-0.162552	-0.426444
O11	O	0.870989	-0.264644	-0.202719
O12	O	0.768962	-0.264604	-0.329961
O13	O	0.871007	-0.341887	-0.553623
O14	O	0.768933	-0.341904	-0.426352
O15	O	0.948376	-0.264573	-0.553662
O16	O	0.948225	-0.443996	-0.329920
O17	O	0.870921	-0.443965	-0.426329
C18	C	0.746107	-0.303252	-0.378154
C19	C	0.676139	-0.303260	-0.378163
C20	C	0.176682	-0.343594	-0.428319
C21	C	0.242425	-0.343594	-0.428310
C22	C	0.275300	-0.303284	-0.378201
C23	C	0.242426	-0.262982	-0.328082
C24	C	0.176685	-0.262987	-0.328086
N25	N	0.378541	-0.248167	-0.372300
N26	N	0.440992	-0.248164	-0.372300
C27	C	0.473374	-0.303266	-0.378184
N28	N	0.440946	-0.358373	-0.384083
N29	N	0.378489	-0.358375	-0.384087
C30	C	0.346585	-0.303274	-0.378191
C31	C	0.577525	-0.343569	-0.428287
C32	C	0.643269	-0.343570	-0.428274
C33	C	0.643269	-0.262952	-0.328049
C34	C	0.577527	-0.262957	-0.328059
C35	C	0.544659	-0.303264	-0.378182
C36	C	0.909576	-0.466821	-0.378133
C37	C	0.909599	-0.536789	-0.378141
C38	C	0.949886	-0.569651	-0.327992
C39	C	0.949916	-0.635393	-0.328010
C40	C	0.909646	-0.668272	-0.378168
C41	C	0.869356	-0.635402	-0.428326
C42	C	0.869332	-0.569661	-0.428313
N43	N	0.854579	-0.771536	-0.384144
N44	N	0.854603	-0.833987	-0.384153
C45	C	0.909717	-0.866346	-0.378213
N46	N	0.964806	-0.833895	-0.372249
N47	N	0.964781	-0.771438	-0.372236
C48	C	0.909668	-0.739557	-0.378188
C49	C	0.950040	-0.970493	-0.328080
C50	C	0.950071	-1.036237	-0.328104
C51	C	0.869505	-1.036245	-0.428416
C52	C	0.869480	-0.970503	-0.428397
C53	C	0.909747	-0.937631	-0.378225
C54	C	1.073849	-0.303287	-0.378199
C55	C	1.143817	-0.303295	-0.378209
C56	C	0.909697	-0.303223	-0.582921
C57	C	0.909713	-0.303203	-0.670171
C58	C	0.909759	-0.139079	-0.378237
C59	C	0.909801	-0.069111	-0.378263
C60	C	0.950001	-0.262943	-0.711183
C61	C	0.950008	-0.262922	-0.793163
C62	C	0.909731	-0.303165	-0.834130
C63	C	0.869439	-0.343427	-0.793112
C64	C	0.869429	-0.343445	-0.711133
C65	C	0.869464	-0.343390	-0.963983
C66	C	0.869475	-0.343373	-1.045967
C67	C	0.950044	-0.262867	-1.046012
C68	C	0.950033	-0.262884	-0.964033
C69	C	0.909742	-0.303147	-0.923021
C70	C	0.909657	-0.303270	-0.174229
C71	C	0.909763	-0.303113	-0.086979
H72	H	0.269189	-0.376410	-0.469118
C73	C	0.679420	-0.218613	-0.272920
C74	C	0.670414	-0.147058	-0.279478
C75	C	0.706567	-0.102721	-0.224342
C76	C	0.751727	-0.129939	-0.162647
C77	C	0.760735	-0.201498	-0.156087
C78	C	0.724582	-0.245835	-0.211223
H79	H	0.636982	-0.126907	-0.325150
H80	H	0.699898	-0.049749	-0.229198
H81	H	0.778490	-0.097118	-0.121832
H82	H	0.794167	-0.221650	-0.110415
H83	H	0.731251	-0.298808	-0.206367
H84	H	0.836677	-0.376141	-1.079320
C85	C	0.140526	-0.387937	-0.483443
C86	C	0.095359	-0.360728	-0.545134
C87	C	0.059200	-0.405073	-0.600255
C88	C	0.068208	-0.476627	-0.593684
C89	C	0.113378	-0.503840	-0.531990
C90	C	0.149537	-0.459495	-0.476869
H91	H	0.088689	-0.307756	-0.550001
H92	H	0.025763	-0.384928	-0.645925
H93	H	0.041441	-0.509454	-0.634488
H94	H	0.120048	-0.556812	-0.527123
H95	H	0.182974	-0.479640	-0.431199
H96	H	0.269197	-0.230162	-0.287282
C97	C	0.994394	-1.072386	-0.272938
C98	C	0.989290	-1.063408	-0.183693
C99	C	1.033615	-1.099557	-0.128528
C100	C	1.083044	-1.144683	-0.162607
C101	C	1.088150	-1.153662	-0.251857
C102	C	1.043825	-1.117513	-0.307022
H103	H	0.952699	-1.030002	-0.158462
H104	H	1.029836	-1.092910	-0.062459
H105	H	1.115856	-1.171442	-0.121770
H106	H	1.124741	-1.187069	-0.277088
H107	H	1.047604	-1.124161	-0.373091
H108	H	0.982676	-0.542888	-0.287141
C109	C	0.541365	-0.387912	-0.483411
C110	C	0.577520	-0.432251	-0.538523
C111	C	0.541362	-0.476595	-0.593646
C112	C	0.469049	-0.476600	-0.593657
C113	C	0.432890	-0.432260	-0.538543
C114	C	0.469048	-0.387915	-0.483420
H115	H	0.631054	-0.432249	-0.538516
H116	H	0.568129	-0.509419	-0.634445
H117	H	0.442283	-0.509426	-0.634462
H118	H	0.379356	-0.432262	-0.538550
H119	H	0.442281	-0.355092	-0.442622
C120	C	0.679422	-0.387903	-0.483398
C121	C	0.670346	-0.459459	-0.476844
C122	C	0.706499	-0.503792	-0.531970
C123	C	0.751729	-0.476570	-0.593651
C124	C	0.760808	-0.405010	-0.600208
C125	C	0.724654	-0.360677	-0.545082
H126	H	0.636862	-0.479614	-0.431182
H127	H	0.699779	-0.556766	-0.527116
H128	H	0.778492	-0.509388	-0.634459
H129	H	0.794292	-0.384855	-0.645870
H130	H	0.731375	-0.307704	-0.549936
C131	C	0.994337	-0.934327	-0.272903
C132	C	0.989251	-0.943425	-0.183662
C133	C	1.033548	-0.907260	-0.128485
C134	C	1.082932	-0.861997	-0.162550
C135	C	1.088020	-0.852897	-0.251796
C136	C	1.043723	-0.889062	-0.306972
H137	H	0.952692	-0.976933	-0.158441
H138	H	1.029781	-0.913997	-0.062420
H139	H	1.115723	-0.835225	-0.121705
H140	H	1.124579	-0.819388	-0.277017
H141	H	1.047490	-0.882325	-0.373038
H142	H	0.836569	-0.662176	-0.469167
C143	C	0.825150	-0.387681	-0.918861
C144	C	0.753591	-0.382543	-0.930108
C145	C	0.709283	-0.426835	-0.884983
C146	C	0.736533	-0.476265	-0.828611
C147	C	0.808095	-0.481405	-0.817362
C148	C	0.852404	-0.437113	-0.862486
H149	H	0.733416	-0.345950	-0.971841
H150	H	0.656308	-0.423030	-0.893311
H151	H	0.703733	-0.509053	-0.795207
H152	H	0.828271	-0.517998	-0.775629
H153	H	0.905379	-0.440918	-0.854158
C154	C	0.541370	-0.218625	-0.272938
C155	C	0.577527	-0.174288	-0.217813
C156	C	0.541371	-0.129958	-0.162684
C157	C	0.469058	-0.129966	-0.162682
C158	C	0.432897	-0.174305	-0.217809
C159	C	0.469053	-0.218635	-0.272938
H160	H	0.631061	-0.174280	-0.217813
H161	H	0.568140	-0.097135	-0.121875
H162	H	0.442293	-0.097150	-0.121872
H163	H	0.379363	-0.174313	-0.217809
H164	H	0.442285	-0.251458	-0.313747
C165	C	0.994229	-0.671551	-0.272835
C166	C	1.038517	-0.635394	-0.217646
C167	C	1.082827	-0.671550	-0.162469
C168	C	1.082849	-0.743862	-0.162481
C169	C	1.038558	-0.780024	-0.217672
C170	C	0.994248	-0.743868	-0.272849
H171	H	1.038503	-0.581860	-0.217636
H172	H	1.115614	-0.644780	-0.121613
H173	H	1.115650	-0.770627	-0.121635
H174	H	1.038573	-0.833557	-0.217682
H175	H	0.961462	-0.770637	-0.313705
H176	H	0.836524	-0.542905	-0.469151
H177	H	0.836719	-1.063014	-0.469259
H178	H	0.149927	-0.230169	-0.287281
H179	H	0.836671	-0.943745	-0.469230
H180	H	0.982801	-0.230174	-0.677833
H181	H	0.836616	-0.376223	-0.677742
H182	H	0.982816	-0.230139	-0.826551
H183	H	0.982834	-0.230118	-0.930680
H184	H	0.982849	-0.230082	-1.079408
H185	H	0.836642	-0.376192	-0.826474
