data_functionalizedCrystal
_audit_creation_method	'MofGen! by Chris Wilmer'
_symmetry_space_group_name_H-M	'P1'
_symmetry_Int_Tables_number	1
_symmetry_cell_setting	triclinic
loop_
_symmetry_equiv_pos_as_xyz
  x,y,z
_cell_length_a	18.215407
_cell_length_b	16.625545
_cell_length_c	18.215399
_cell_angle_alpha	89.972987
_cell_angle_beta	90.019833
_cell_angle_gamma	89.975515
loop_
_atom_site_label
_atom_site_type_symbol
_atom_site_fract_x
_atom_site_fract_y
_atom_site_fract_z
Zn1	Zn	1.125076	0.321000	0.416121
Zn2	Zn	1.375076	0.571000	0.666121
Zn3	Zn	1.625076	0.821000	0.916121
Zn4	Zn	1.875076	1.071000	1.166121
Zn5	Zn	1.124987	0.455841	0.293056
Zn6	Zn	1.374987	0.705841	0.543056
Zn7	Zn	1.624987	0.955841	0.793056
Zn8	Zn	1.874987	1.205841	1.043056
Zn9	Zn	1.002009	0.321027	0.293068
Zn10	Zn	1.252009	0.571027	0.543068
Zn11	Zn	1.502009	0.821027	0.793068
Zn12	Zn	1.752009	1.071027	1.043068
Zn13	Zn	1.001977	0.455796	0.416081
Zn14	Zn	1.251977	0.705796	0.666081
Zn15	Zn	1.501977	0.955796	0.916081
Zn16	Zn	1.751977	1.205796	1.166081
O17	O	1.063512	0.388416	0.354582
O18	O	1.313512	0.638416	0.604582
O19	O	1.563512	0.888416	0.854582
O20	O	1.813512	1.138416	1.104582
O21	O	1.228049	0.338895	0.399808
O22	O	1.478049	0.588895	0.649808
O23	O	1.728049	0.838895	0.899808
O24	O	1.978049	1.088895	1.149808
O25	O	1.108649	0.437987	0.190074
O26	O	1.358649	0.687987	0.440074
O27	O	1.608649	0.937987	0.690074
O28	O	1.858649	1.187987	0.940074
O29	O	1.018385	0.208191	0.309413
O30	O	1.268385	0.458191	0.559413
O31	O	1.518385	0.708191	0.809413
O32	O	1.768385	0.958191	1.059413
O33	O	1.227983	0.437961	0.309393
O34	O	1.477983	0.687961	0.559393
O35	O	1.727983	0.937961	0.809393
O36	O	1.977983	1.187961	1.059393
O37	O	1.108802	0.208171	0.399819
O38	O	1.358802	0.458171	0.649819
O39	O	1.608802	0.708171	0.899819
O40	O	1.858802	0.958171	1.149819
O41	O	1.018298	0.338940	0.190082
O42	O	1.268298	0.588940	0.440082
O43	O	1.518298	0.838940	0.690082
O44	O	1.768298	1.088940	0.940082
O45	O	0.899020	0.338896	0.309374
O46	O	1.149020	0.588896	0.559374
O47	O	1.399020	0.838896	0.809374
O48	O	1.649020	1.088896	1.059374
O49	O	1.018330	0.437885	0.519071
O50	O	1.268330	0.687885	0.769071
O51	O	1.518330	0.937885	1.019071
O52	O	1.768330	1.187885	1.269071
O53	O	0.898997	0.437910	0.399752
O54	O	1.148997	0.687910	0.649752
O55	O	1.398997	0.937910	0.899752
O56	O	1.648997	1.187910	1.149752
O57	O	1.108771	0.338851	0.519100
O58	O	1.358771	0.588851	0.769100
O59	O	1.608771	0.838851	1.019100
O60	O	1.858771	1.088851	1.269100
O61	O	1.108618	0.568667	0.309355
O62	O	1.358618	0.818667	0.559355
O63	O	1.608618	1.068667	0.809355
O64	O	1.858618	1.318667	1.059355
O65	O	1.018243	0.568634	0.399740
O66	O	1.268243	0.818634	0.649740
O67	O	1.518243	1.068634	0.899740
O68	O	1.768243	1.318634	1.149740
C69	C	0.872306	0.388402	0.354560
C70	C	1.122306	0.638402	0.604560
C71	C	1.372306	0.888402	0.854560
C72	C	1.622306	1.138402	1.104560
C73	C	0.790507	0.388415	0.354569
C74	C	1.040507	0.638415	0.604569
C75	C	1.290507	0.888415	0.854569
C76	C	1.540507	1.138415	1.104569
C77	C	1.063437	0.597907	0.354558
C78	C	1.313437	0.847907	0.604558
C79	C	1.563437	1.097907	0.854558
C80	C	1.813437	1.347907	1.104558
C81	C	1.063472	0.687528	0.354573
C82	C	1.313472	0.937528	0.604573
C83	C	1.563472	1.187528	0.854573
C84	C	1.813472	1.437528	1.104573
C85	C	0.602320	0.440053	0.401569
C86	C	0.852320	0.690053	0.651569
C87	C	1.102320	0.940053	0.901569
C88	C	1.352320	1.190053	1.151569
C89	C	0.525461	0.440056	0.401578
C90	C	0.775461	0.690056	0.651578
C91	C	1.025461	0.940056	0.901578
C92	C	1.275461	1.190056	1.151578
C93	C	0.525456	0.336793	0.307610
C94	C	0.775456	0.586793	0.557610
C95	C	1.025456	0.836793	0.807610
C96	C	1.275456	1.086793	1.057610
C97	C	0.602314	0.336787	0.307605
C98	C	0.852314	0.586787	0.557605
C99	C	1.102314	0.836787	0.807605
C100	C	1.352314	1.086787	1.057605
C101	C	0.640743	0.388422	0.354584
C102	C	0.890743	0.638422	0.604584
C103	C	1.140743	0.888422	0.854584
C104	C	1.390743	1.138422	1.104584
C105	C	0.487027	0.388430	0.354598
C106	C	0.737027	0.638430	0.604598
C107	C	0.987027	0.888430	0.854598
C108	C	1.237027	1.138430	1.104598
C109	C	0.403694	0.388433	0.354607
C110	C	0.653694	0.638433	0.604607
C111	C	0.903694	0.888433	0.854607
C112	C	1.153694	1.138433	1.104607
C113	C	0.724082	0.388418	0.354575
C114	C	0.974082	0.638418	0.604575
C115	C	1.224082	0.888418	0.854575
C116	C	1.474082	1.138418	1.104575
C117	C	1.063593	1.015703	0.354660
C118	C	1.313593	1.265703	0.604660
C119	C	1.563593	1.515703	0.854660
C120	C	1.813593	1.765703	1.104660
C121	C	1.063557	0.924395	0.354638
C122	C	1.313557	1.174395	0.604638
C123	C	1.563557	1.424395	0.854638
C124	C	1.813557	1.674395	1.104638
C125	C	1.063532	0.851618	0.354616
C126	C	1.313532	1.101618	0.604616
C127	C	1.563532	1.351618	0.854616
C128	C	1.813532	1.601618	1.104616
C129	C	1.063497	0.760304	0.354594
C130	C	1.313497	1.010304	0.604594
C131	C	1.563497	1.260304	0.854594
C132	C	1.813497	1.510304	1.104594
C133	C	1.255465	0.388430	0.354603
C134	C	1.505465	0.638430	0.604603
C135	C	1.755465	0.888430	0.854603
C136	C	2.005465	1.138430	1.104603
C137	C	1.337264	0.388436	0.354612
C138	C	1.587264	0.638436	0.604612
C139	C	1.837264	0.888436	0.854612
C140	C	2.087264	1.138436	1.104612
C141	C	1.063557	0.388360	0.546535
C142	C	1.313557	0.638360	0.796535
C143	C	1.563557	0.888360	1.046535
C144	C	1.813557	1.138360	1.296535
C145	C	1.063576	0.388336	0.628334
C146	C	1.313576	0.638336	0.878334
C147	C	1.563576	0.888336	1.128334
C148	C	1.813576	1.138336	1.378334
C149	C	1.063601	1.178107	0.354630
C150	C	1.313601	1.428107	0.604630
C151	C	1.563601	1.678107	0.854630
C152	C	1.813601	1.928107	1.104630
C153	C	1.063623	1.088486	0.354673
C154	C	1.313623	1.338486	0.604673
C155	C	1.563623	1.588486	0.854673
C156	C	1.813623	1.838486	1.104673
C157	C	1.063510	0.388413	0.163375
C158	C	1.313510	0.638413	0.413375
C159	C	1.563510	0.888413	0.663375
C160	C	1.813510	1.138413	0.913375
C161	C	1.063633	0.388209	0.081577
C162	C	1.313633	0.638209	0.331577
C163	C	1.563633	0.888209	0.581577
C164	C	1.813633	1.138209	0.831577
C165	C	1.110685	0.336721	0.816544
C166	C	1.360685	0.586721	1.066544
C167	C	1.610685	0.836721	1.316544
C168	C	1.860685	1.086721	1.566544
C169	C	1.110694	0.336698	0.893403
C170	C	1.360694	0.586698	1.143403
C171	C	1.610694	0.836698	1.393403
C172	C	1.860694	1.086698	1.643403
C173	C	1.016519	0.439827	0.893361
C174	C	1.266519	0.689827	1.143361
C175	C	1.516519	0.939827	1.393361
C176	C	1.766519	1.189827	1.643361
C177	C	1.016507	0.439846	0.816504
C178	C	1.266507	0.689846	1.066504
C179	C	1.516507	0.939846	1.316504
C180	C	1.766507	1.189846	1.566504
C181	C	1.063594	0.388294	0.778097
C182	C	1.313594	0.638294	1.028097
C183	C	1.563594	0.888294	1.278097
C184	C	1.813594	1.138294	1.528097
C185	C	1.063615	0.388252	0.931813
C186	C	1.313615	0.638252	1.181813
C187	C	1.563615	0.888252	1.431813
C188	C	1.813615	1.138252	1.681813
C189	C	1.063624	0.388227	1.015147
C190	C	1.313624	0.638227	1.265147
C191	C	1.563624	0.888227	1.515147
C192	C	1.813624	1.138227	1.765147
C193	C	1.063584	0.388318	0.694758
C194	C	1.313584	0.638318	0.944758
C195	C	1.563584	0.888318	1.194758
C196	C	1.813584	1.138318	1.444758
H197	H	0.633607	0.482096	0.439824
H198	H	0.883607	0.732096	0.689824
H199	H	1.133607	0.982096	0.939824
H200	H	1.383607	1.232096	1.189824
Cl201	Cl	0.957297	0.504681	0.768167
Cl202	Cl	1.207297	0.754681	1.018167
Cl203	Cl	1.457297	1.004681	1.268167
Cl204	Cl	1.707297	1.254681	1.518167
Cl205	Cl	0.477160	0.504966	0.460650
Cl206	Cl	0.727160	0.754966	0.710650
Cl207	Cl	0.977160	1.004966	0.960650
Cl208	Cl	1.227160	1.254966	1.210650
H209	H	1.149039	0.294701	0.924702
H210	H	1.399039	0.544701	1.174702
H211	H	1.649039	0.794701	1.424702
H212	H	1.899039	1.044701	1.674702
H213	H	1.149025	0.294743	0.785275
H214	H	1.399025	0.544743	1.035275
H215	H	1.649025	0.794743	1.285275
H216	H	1.899025	1.044743	1.535275
H217	H	0.978183	0.481800	0.924641
H218	H	1.228183	0.731800	1.174641
H219	H	1.478183	0.981800	1.424641
H220	H	1.728183	1.231800	1.674641
Cl221	Cl	0.650621	0.271868	0.248537
Cl222	Cl	0.900621	0.521868	0.498537
Cl223	Cl	1.150621	0.771868	0.748537
Cl224	Cl	1.400621	1.021868	0.998537
Cl225	Cl	0.477139	0.271886	0.248553
Cl226	Cl	0.727139	0.521886	0.498553
Cl227	Cl	0.977139	0.771886	0.748553
Cl228	Cl	1.227139	1.021886	0.998553
