data_functionalizedCrystal
_audit_creation_method	'MofGen! by Chris Wilmer'
_symmetry_space_group_name_H-M	'P1'
_symmetry_Int_Tables_number	1
_symmetry_cell_setting	triclinic
loop_
_symmetry_equiv_pos_as_xyz
  x,y,z
_cell_length_a	34.571875
_cell_length_b	34.571051
_cell_length_c	34.567439
_cell_angle_alpha	60.004367
_cell_angle_beta	60.008842
_cell_angle_gamma	59.994195
loop_
_atom_site_label
_atom_site_type_symbol
_atom_site_fract_x
_atom_site_fract_y
_atom_site_fract_z
O1	O	0.053721	-0.565181	0.472559
O2	O	0.553721	-0.065181	0.972559
O3	O	0.020283	-0.440038	0.380761
O4	O	0.520283	0.059962	0.880761
O5	O	0.099534	-0.519209	0.380676
O6	O	0.599534	-0.019209	0.880676
O7	O	-0.025530	-0.486010	0.472643
O8	O	0.474470	0.013990	0.972643
O9	O	0.125831	-0.492917	0.406885
O10	O	0.625831	0.007083	0.906885
O11	O	0.046580	-0.413746	0.406969
O12	O	0.546580	0.086254	0.906969
O13	O	0.080018	-0.538889	0.498767
O14	O	0.580018	-0.038889	0.998767
Zn15	Zn	0.067475	-0.472143	0.457030
Zn16	Zn	0.567475	0.027857	0.957030
Zn17	Zn	0.032827	-0.506784	0.422498
Zn18	Zn	0.532827	-0.006784	0.922498
O19	O	0.000767	-0.459718	0.498852
O20	O	0.500767	0.040282	0.998852
N21	N	0.091122	-0.448505	0.480598
N22	N	0.591122	0.051495	0.980598
N23	N	0.009184	-0.530426	0.398930
N24	N	0.509184	-0.030426	0.898930
C25	C	0.124402	-0.415465	0.717633
C26	C	0.624402	0.084535	1.217633
C27	C	0.328327	-0.415388	0.513477
C28	C	0.828327	0.084612	1.013477
C29	C	0.124221	-0.415437	0.513630
C30	C	0.624221	0.084563	1.013630
C31	C	0.124201	-0.211364	0.513624
C32	C	0.624201	0.288636	1.013624
C33	C	0.157075	-0.309853	0.546423
C34	C	0.657075	0.190147	1.046423
C35	C	0.157084	-0.382601	0.546423
C36	C	0.657084	0.117399	1.046423
C37	C	0.175289	-0.364414	0.564591
C38	C	0.675289	0.135586	1.064591
C39	C	0.254624	-0.350722	0.522790
C40	C	0.754624	0.149278	1.022790
C41	C	0.304220	-0.367243	0.506229
C42	C	0.804220	0.132757	1.006229
C43	C	0.304249	-0.447494	0.536832
C44	C	0.804249	0.052506	1.036832
C45	C	0.254655	-0.430972	0.553394
C46	C	0.754655	0.069028	1.053394
C47	C	0.169014	-0.285043	0.497667
C48	C	0.669014	0.214957	0.997667
C49	C	0.152454	-0.235444	0.481153
C50	C	0.652454	0.264556	0.981153
C51	C	0.112020	-0.235469	0.562154
C52	C	0.612020	0.264531	1.062154
C53	C	0.128580	-0.285068	0.578668
C54	C	0.628580	0.214932	1.078668
C55	C	0.108321	-0.370634	0.558439
C56	C	0.608321	0.129366	1.058439
C57	C	0.091776	-0.387168	0.541918
C58	C	0.591776	0.112832	1.041918
C59	C	0.172754	-0.427637	0.501375
C60	C	0.672754	0.072363	1.001375
C61	C	0.189301	-0.411103	0.517891
C62	C	0.689301	0.088897	1.017891
C63	C	0.108399	-0.370649	0.643978
C64	C	0.608399	0.129351	1.143978
C65	C	0.091911	-0.387197	0.693575
C66	C	0.591911	0.112803	1.193575
C67	C	0.172928	-0.427676	0.693511
C68	C	0.672928	0.072324	1.193511
C69	C	0.189415	-0.411128	0.643912
C70	C	0.689415	0.088872	1.143912
C71	C	0.157149	-0.382613	0.619147
C72	C	0.657149	0.117387	1.119147
C73	C	0.229844	-0.382585	0.546371
C74	C	0.729844	0.117415	1.046371
C75	C	0.105624	-0.433333	0.772186
C76	C	0.605624	0.066667	1.272186
C77	C	0.382878	-0.432925	0.495007
C78	C	0.882878	0.067075	0.995007
C79	C	0.105380	-0.433313	0.495792
C80	C	0.605380	0.066687	0.995792
C81	C	0.105683	-0.156808	0.496094
C82	C	0.605683	0.343192	0.996094
C83	C	-0.023527	-0.563458	0.161535
C84	C	0.476473	-0.063458	0.661535
C85	C	-0.023851	-0.767445	0.365663
C86	C	0.476149	-0.267445	0.865663
C87	C	-0.023821	-0.563448	0.365756
C88	C	0.476179	-0.063448	0.865756
C89	C	-0.227785	-0.563229	0.365355
C90	C	0.272215	-0.063229	0.865355
C91	C	-0.129302	-0.596153	0.332678
C92	C	0.370698	-0.096153	0.832678
C93	C	-0.056593	-0.596234	0.332823
C94	C	0.443407	-0.096234	0.832823
C95	C	-0.074746	-0.614396	0.314578
C96	C	0.425254	-0.114396	0.814578
C97	C	-0.088477	-0.693710	0.356299
C98	C	0.411523	-0.193710	0.856299
C99	C	-0.071982	-0.743310	0.372851
C100	C	0.428018	-0.243310	0.872851
C101	C	0.008266	-0.743392	0.342376
C102	C	0.508266	-0.243392	0.842376
C103	C	-0.008230	-0.693794	0.325823
C104	C	0.491770	-0.193794	0.825823
C105	C	-0.154162	-0.608103	0.381422
C106	C	0.345838	-0.108103	0.881422
C107	C	-0.203757	-0.591517	0.397874
C108	C	0.296243	-0.091517	0.897874
C109	C	-0.203630	-0.551037	0.316836
C110	C	0.296370	-0.051037	0.816836
C111	C	-0.154034	-0.567623	0.300384
C112	C	0.345966	-0.067623	0.800384
C113	C	-0.068543	-0.547475	0.320829
C114	C	0.431457	-0.047475	0.820829
C115	C	-0.052041	-0.530969	0.337421
C116	C	0.447959	-0.030969	0.837421
C117	C	-0.011639	-0.611977	0.377990
C118	C	0.488361	-0.111977	0.877990
C119	C	-0.028141	-0.628485	0.361404
C120	C	0.471859	-0.128485	0.861404
C121	C	-0.068417	-0.547482	0.235199
C122	C	0.431583	-0.047482	0.735199
C123	C	-0.051814	-0.530977	0.185602
C124	C	0.448186	-0.030977	0.685602
C125	C	-0.011349	-0.611990	0.185649
C126	C	0.488651	-0.111990	0.685649
C127	C	-0.027951	-0.628493	0.235248
C128	C	0.472049	-0.128493	0.735248
C129	C	-0.056486	-0.596238	0.260022
C130	C	0.443514	-0.096238	0.760022
C131	C	-0.056602	-0.668955	0.332787
C132	C	0.443398	-0.168955	0.832787
C133	C	-0.005599	-0.544662	0.106983
C134	C	0.494401	-0.044662	0.606983
C135	C	-0.006342	-0.821999	0.384121
C136	C	0.493658	-0.321999	0.884121
C137	C	-0.005979	-0.544649	0.383673
C138	C	0.494021	-0.044649	0.883673
C139	C	-0.282336	-0.544682	0.382817
C140	C	0.217664	-0.044682	0.882817
N141	N	0.427518	-0.448428	0.480350
N142	N	0.927518	0.051572	0.980350
O143	O	0.589573	-0.456297	0.363634
O144	O	1.089573	0.043703	0.863634
O145	O	0.589761	-0.548399	0.488643
O146	O	1.089761	-0.048399	0.988643
O147	O	0.589681	-0.548188	0.409364
O148	O	1.089681	-0.048188	0.909364
O149	O	0.589654	-0.456508	0.442913
O150	O	1.089654	0.043492	0.942913
O151	O	0.510890	-0.521988	0.435708
O152	O	1.010890	-0.021988	0.935708
O153	O	0.510970	-0.522199	0.514987
O154	O	1.010970	-0.022199	1.014987
O155	O	0.510782	-0.430098	0.389978
O156	O	1.010782	0.069902	0.889978
Zn157	Zn	0.498366	-0.471989	0.456665
Zn158	Zn	0.998366	0.028011	0.956665
Zn159	Zn	0.602177	-0.506508	0.421956
Zn160	Zn	1.102177	-0.006508	0.921956
O161	O	0.510862	-0.430308	0.469257
O162	O	1.010862	0.069692	0.969257
N163	N	0.673025	-0.530068	0.398267
N164	N	1.173025	-0.030068	0.898267
N165	N	0.091092	-0.112167	0.480590
N166	N	0.591092	0.387833	0.980590
O167	O	-0.025539	0.049976	0.472612
O168	O	0.474461	0.549976	0.972612
O169	O	0.099472	0.050011	0.380491
O170	O	0.599472	0.550011	0.880491
O171	O	0.020155	0.049979	0.380751
O172	O	0.520155	0.549979	0.880751
O173	O	0.053778	0.050009	0.472352
O174	O	0.553778	0.550009	0.972352
O175	O	0.046458	-0.028818	0.407008
O176	O	0.546458	0.471182	0.907008
O177	O	0.125775	-0.028785	0.406748
O178	O	0.625775	0.471215	0.906748
O179	O	0.000764	-0.028821	0.498869
O180	O	0.500764	0.471179	0.998869
Zn181	Zn	0.067445	-0.041314	0.456977
Zn182	Zn	0.567445	0.458686	0.956977
Zn183	Zn	0.032791	0.062504	0.422382
Zn184	Zn	0.532791	0.562504	0.922382
O185	O	0.080081	-0.028788	0.498609
O186	O	0.580081	0.471212	0.998609
N187	N	0.009138	0.133358	0.398771
N188	N	0.509138	0.633358	0.898771
N189	N	0.091421	-0.448552	0.816827
N190	N	0.591421	0.051448	1.316827
O191	O	0.083469	-0.565164	0.978960
O192	O	0.583469	-0.065164	1.478960
O193	O	-0.008614	-0.440110	0.979002
O194	O	0.491386	0.059890	1.479002
O195	O	-0.008399	-0.519410	0.978978
O196	O	0.491601	-0.019410	1.478978
O197	O	0.083253	-0.485863	0.978984
O198	O	0.583253	0.014137	1.478984
O199	O	0.017837	-0.493128	0.900185
O200	O	0.517837	0.006872	1.400185
O201	O	0.017621	-0.413827	0.900208
O202	O	0.517621	0.086173	1.400208
O203	O	0.109704	-0.538881	0.900167
O204	O	0.609704	-0.038881	1.400167
Zn205	Zn	0.067828	-0.472181	0.887677
Zn206	Zn	0.567828	0.027819	1.387677
Zn207	Zn	0.033262	-0.506810	0.991491
Zn208	Zn	0.533262	-0.006810	1.491491
O209	O	0.109489	-0.459581	0.900191
O210	O	0.609489	0.040419	1.400191
N211	N	0.009668	-0.530444	1.062341
N212	N	0.509668	-0.030444	1.562341
C213	C	0.030297	-0.411123	0.381218
C214	C	0.530297	0.088877	0.881218
C215	C	0.128439	-0.509167	0.381113
C216	C	0.628439	-0.009167	0.881113
C217	C	0.070004	-0.567805	0.498310
C218	C	0.570004	-0.067805	0.998310
C219	C	-0.028138	-0.469761	0.498415
C220	C	0.471862	0.030239	0.998415
C221	C	0.550388	-0.547982	0.517564
C222	C	1.050388	-0.047982	1.017564
C223	C	0.550290	-0.547721	0.419387
C224	C	1.050290	-0.047721	0.919387
C225	C	0.550153	-0.430514	0.361058
C226	C	1.050153	0.069486	0.861058
C227	C	0.550253	-0.430775	0.459234
C228	C	1.050253	0.069225	0.959234
C229	C	0.128339	0.010714	0.380902
C230	C	0.628339	0.510714	0.880902
C231	C	0.030148	0.010577	0.381256
C232	C	0.530148	0.510577	0.881256
C233	C	-0.028136	0.010574	0.498426
C234	C	0.471864	0.510574	0.998426
C235	C	0.070089	0.010613	0.498104
C236	C	0.570089	0.510613	0.998104
C237	C	-0.008178	-0.411214	0.939610
C238	C	0.491822	0.088786	1.439610
C239	C	-0.007906	-0.509413	0.939566
C240	C	0.492094	-0.009413	1.439566
C241	C	0.109268	-0.567777	0.939558
C242	C	0.609268	-0.067777	1.439558
C243	C	0.109002	-0.469572	0.939586
C244	C	0.609002	0.030428	1.439586
H245	H	0.082121	-0.347425	0.623816
H246	H	0.582121	0.152575	1.123816
O247	O	0.550180	-0.396356	0.467757
O248	O	1.050180	0.103644	0.967757
C249	C	0.509333	-0.356432	0.462551
C250	C	1.009333	0.143568	0.962551
H251	H	0.495699	-0.356814	0.438811
H252	H	0.995699	0.143186	0.938811
H253	H	0.518476	-0.322789	0.445832
H254	H	1.018476	0.177211	0.945832
H255	H	0.480794	-0.357408	0.498799
H256	H	0.980794	0.142592	0.998799
H257	H	0.137795	-0.462392	0.939581
H258	H	0.637795	0.037608	1.439581
H259	H	0.011532	-0.638242	0.401256
H260	H	0.511532	-0.138242	0.901256
O261	O	0.078518	-0.610726	0.532665
O262	O	0.578518	-0.110726	1.032665
C263	C	0.089655	-0.646407	0.516400
C264	C	0.589655	-0.146407	1.016400
H265	H	0.074380	-0.630245	0.486971
H266	H	0.574380	-0.130245	0.986971
H267	H	0.073816	-0.674767	0.546935
H268	H	0.573816	-0.174767	1.046935
H269	H	0.129773	-0.663061	0.502144
H270	H	0.629773	-0.163061	1.002144
O271	O	-0.070930	0.010482	0.532968
O272	O	0.429070	0.510482	1.032968
C273	C	-0.064657	-0.030318	0.572890
C274	C	0.435343	0.469682	1.072890
H275	H	-0.029966	-0.058838	0.561466
H276	H	0.470034	0.441162	1.061466
H277	H	-0.095384	-0.044026	0.589865
H278	H	0.404616	0.455974	1.089865
H279	H	-0.063550	-0.021083	0.599620
H280	H	0.436450	0.478917	1.099620
O281	O	0.550282	-0.582023	0.410755
O282	O	1.050282	-0.082023	0.910755
C283	C	0.550236	-0.564766	0.364194
C284	C	1.050236	-0.064766	0.864194
H285	H	0.535279	-0.524411	0.351748
H286	H	1.035279	-0.024411	0.851748
H287	H	0.527366	-0.579213	0.363532
H288	H	1.027366	-0.079213	0.863532
H289	H	0.588024	-0.576719	0.339653
H290	H	1.088024	-0.076719	0.839653
H291	H	-0.064060	-0.462687	0.527292
H292	H	0.435940	0.037313	1.027292
O293	O	0.078764	0.010592	0.532396
O294	O	0.578764	0.510592	1.032396
C295	C	0.125329	0.010617	0.515114
C296	C	0.625329	0.510617	1.015114
H297	H	0.147725	-0.004292	0.484696
H298	H	0.647725	0.495708	0.984696
H299	H	0.141297	-0.012262	0.544771
H300	H	0.641297	0.487738	1.044771
H301	H	0.124621	0.048422	0.501901
H302	H	0.624621	0.548422	1.001901
O303	O	0.204336	-0.455379	0.717491
O304	O	0.704336	0.044621	1.217491
C305	C	0.250899	-0.462375	0.684937
C306	C	0.750899	0.037625	1.184937
H307	H	0.250777	-0.456830	0.649593
H308	H	0.750777	0.043170	1.149593
H309	H	0.274473	-0.499988	0.699243
H310	H	0.774473	0.000012	1.199243
H311	H	0.265099	-0.435967	0.679650
H312	H	0.765099	0.064033	1.179650
O313	O	-0.016472	-0.675865	0.373077
O314	O	0.483528	-0.175865	0.873077
C315	C	0.012171	-0.700793	0.401869
C316	C	0.512171	-0.200793	0.901869
H317	H	0.030204	-0.677166	0.395586
H318	H	0.530204	-0.177166	0.895586
H319	H	0.040229	-0.733911	0.392605
H320	H	0.540229	-0.233911	0.892605
H321	H	-0.010759	-0.711459	0.440698
H322	H	0.489241	-0.211459	0.940698
H323	H	0.164358	-0.516243	0.352233
H324	H	0.664358	-0.016243	0.852233
H325	H	0.550093	-0.401597	0.325157
H326	H	1.050093	0.098403	0.825157
O327	O	-0.042624	-0.368349	0.939646
O328	O	0.457376	0.131651	1.439646
C329	C	-0.025567	-0.338861	0.939641
C330	C	0.474433	0.161139	1.439641
H331	H	0.004854	-0.361642	0.954551
H332	H	0.504854	0.138358	1.454551
H333	H	-0.055337	-0.316167	0.962526
H334	H	0.444663	0.183833	1.462526
H335	H	-0.012426	-0.314930	0.901842
H336	H	0.487574	0.185070	1.401842
O337	O	-0.063473	-0.483597	0.161568
O338	O	0.436527	0.016403	0.661568
C339	C	-0.092209	-0.458670	0.194072
C340	C	0.407791	0.041330	0.694072
H341	H	-0.110282	-0.482300	0.229409
H342	H	0.389718	0.017700	0.729409
H343	H	-0.120235	-0.425555	0.179691
H344	H	0.379765	0.074445	0.679691
H345	H	-0.069349	-0.447999	0.199400
H346	H	0.430651	0.052001	0.699400
O347	O	-0.042184	-0.518030	0.939502
O348	O	0.457816	-0.018030	1.439502
C349	C	-0.024925	-0.564601	0.939487
C350	C	0.475075	-0.064601	1.439487
H351	H	0.015429	-0.577074	0.924588
H352	H	0.515429	-0.077074	1.424588
H353	H	-0.039332	-0.565269	0.916581
H354	H	0.460668	-0.065269	1.416581
H355	H	-0.036914	-0.589119	0.977277
H356	H	0.463086	-0.089119	1.477277
O357	O	0.550470	-0.582433	0.560414
O358	O	1.050470	-0.082433	1.060414
C359	C	0.550474	-0.565369	0.589896
C360	C	1.050474	-0.065369	1.089896
H361	H	0.565352	-0.534935	0.567113
H362	H	1.065352	-0.034935	1.067113
H363	H	0.573391	-0.595133	0.612565
H364	H	1.073391	-0.095133	1.112565
H365	H	0.512684	-0.552242	0.613851
H366	H	1.012684	-0.052242	1.113851
O367	O	0.171121	0.010925	0.346372
O368	O	0.671121	0.510925	0.846372
C369	C	0.207021	-0.029792	0.362364
C370	C	0.707021	0.470208	0.862364
H371	H	0.194131	-0.043553	0.402745
H372	H	0.694131	0.456447	0.902745
H373	H	0.239968	-0.020421	0.348473
H374	H	0.739968	0.479579	0.848473
H375	H	0.215995	-0.058323	0.348804
H376	H	0.715995	0.441677	0.848804
O377	O	0.044536	-0.375505	0.717618
O378	O	0.544536	0.124495	1.217618
C379	C	0.019598	-0.346798	0.685121
C380	C	0.519598	0.153202	1.185121
H381	H	0.043228	-0.328760	0.649757
H382	H	0.543228	0.171240	1.149757
H383	H	-0.013496	-0.318741	0.699471
H384	H	0.486504	0.181259	1.199471
H385	H	0.008894	-0.369678	0.679857
H386	H	0.508894	0.130322	1.179857
O387	O	0.236762	-0.422670	0.619740
O388	O	0.736762	0.077330	1.119740
C389	C	0.248724	-0.380989	0.591058
C390	C	0.748724	0.119011	1.091058
H391	H	0.216023	-0.349829	0.583654
H392	H	0.716023	0.150171	1.083654
H393	H	0.277463	-0.385415	0.556168
H394	H	0.777463	0.114585	1.056168
H395	H	0.262357	-0.374021	0.610156
H396	H	0.762357	0.125979	1.110156
O397	O	0.076961	-0.342934	0.586131
O398	O	0.576961	0.157066	1.086131
C399	C	0.030374	-0.335925	0.593199
C400	C	0.530374	0.164075	1.093199
H401	H	0.030437	-0.341459	0.563303
H402	H	0.530437	0.158541	1.063303
H403	H	0.006818	-0.298312	0.593477
H404	H	0.506818	0.201688	1.093477
H405	H	0.016194	-0.362334	0.628531
H406	H	0.516194	0.137666	1.128531
H407	H	0.023152	-0.375173	0.352387
H408	H	0.523152	0.124827	0.852387
O409	O	0.143744	-0.610619	0.939479
O410	O	0.643744	-0.110619	1.439479
C411	C	0.154745	-0.619109	0.898657
C412	C	0.654745	-0.119109	1.398657
H413	H	0.123422	-0.597003	0.885060
H414	H	0.623422	-0.097003	1.385060
H415	H	0.162488	-0.658287	0.907822
H416	H	0.662488	-0.158287	1.407822
H417	H	0.187219	-0.608903	0.870082
H418	H	0.687219	-0.108903	1.370082
H419	H	0.198991	-0.450848	0.478149
H420	H	0.698991	0.049152	0.978149
O421	O	0.044418	-0.375630	0.553607
O422	O	0.544418	0.124370	1.053607
C423	C	0.032461	-0.417314	0.578583
C424	C	0.532461	0.082686	1.078583
H425	H	0.065152	-0.448468	0.569612
H426	H	0.565152	0.051532	1.069612
H427	H	0.003685	-0.412884	0.568052
H428	H	0.503685	0.087116	1.068052
H429	H	0.018878	-0.424295	0.618279
H430	H	0.518878	0.075705	1.118279
O431	O	0.021645	0.010502	0.346902
O432	O	0.521645	0.510502	0.846902
C433	C	0.054118	-0.030312	0.334162
C434	C	0.554118	0.469688	0.834162
H435	H	0.086963	-0.043903	0.343590
H436	H	0.586963	0.456097	0.843590
H437	H	0.064694	-0.021138	0.294422
H438	H	0.564694	0.478862	0.794422
H439	H	0.036958	-0.058898	0.354171
H440	H	0.536958	0.441102	0.854171
H441	H	0.234479	-0.456922	0.572596
H442	H	0.734479	0.043078	1.072596
O443	O	0.236685	-0.422774	0.506180
O444	O	0.736685	0.077226	1.006180
C445	C	0.261575	-0.451459	0.477438
C446	C	0.761575	0.048541	0.977438
H447	H	0.237932	-0.469512	0.483792
H448	H	0.737932	0.030488	0.983792
H449	H	0.294704	-0.479503	0.486689
H450	H	0.794704	0.020497	0.986689
H451	H	0.272214	-0.428557	0.438593
H452	H	0.772214	0.071443	0.938593
H453	H	0.324395	-0.341295	0.487026
H454	H	0.824395	0.158705	0.987026
O455	O	0.328377	-0.494482	0.543564
O456	O	0.828377	0.005518	1.043564
C457	C	0.357044	-0.501212	0.499286
C458	C	0.857044	-0.001212	0.999286
H459	H	0.342066	-0.469812	0.470704
H460	H	0.842066	0.030188	0.970704
H461	H	0.357614	-0.535136	0.500676
H462	H	0.857614	-0.035136	1.000676
H463	H	0.394633	-0.504131	0.490674
H464	H	0.894633	-0.004131	0.990674
O465	O	0.230598	-0.303707	0.515947
O466	O	0.730598	0.196293	1.015947
C467	C	0.263109	-0.279126	0.491570
C468	C	0.763109	0.220874	0.991570
H469	H	0.298478	-0.304577	0.497269
H470	H	0.798478	0.195423	0.997269
H471	H	0.248787	-0.249216	0.505615
H472	H	0.748787	0.250784	1.005615
H473	H	0.268351	-0.263708	0.452115
H474	H	0.768351	0.236292	0.952115
H475	H	0.192214	-0.305222	0.471410
H476	H	0.692214	0.194778	0.971410
H477	H	0.088825	-0.215289	0.588411
H478	H	0.588825	0.284711	1.088411
O479	O	0.164110	-0.211413	0.433773
O480	O	0.664110	0.288587	0.933773
C481	C	0.192801	-0.243925	0.408855
C482	C	0.692801	0.256075	0.908855
H483	H	0.210861	-0.279281	0.432490
H484	H	0.710861	0.220719	0.932490
H485	H	0.220837	-0.229579	0.375743
H486	H	0.720837	0.270421	0.875743
H487	H	0.169905	-0.249203	0.398181
H488	H	0.669905	0.250797	0.898181
H489	H	-0.091654	-0.521212	0.255368
H490	H	0.408346	-0.021212	0.755368
O491	O	0.116956	-0.309099	0.626048
O492	O	0.616956	0.190901	1.126048
C493	C	0.088243	-0.276588	0.650966
C494	C	0.588243	0.223412	1.150966
H495	H	0.094549	-0.241224	0.627314
H496	H	0.594549	0.258776	1.127314
H497	H	0.097569	-0.290923	0.684051
H498	H	0.597569	0.209077	1.184051
H499	H	0.049396	-0.271326	0.661684
H500	H	0.549396	0.228674	1.161684
H501	H	-0.127865	-0.673490	0.361973
H502	H	0.372135	-0.173490	0.861973
H503	H	-0.018232	-0.668197	0.255455
H504	H	0.481768	-0.168197	0.755455
O505	O	0.016307	-0.643370	0.161640
O506	O	0.516307	-0.143370	0.661640
C507	C	-0.008756	-0.671997	0.173702
C508	C	0.491244	-0.171997	0.673702
H509	H	-0.037666	-0.672445	0.209682
H510	H	0.462334	-0.172445	0.709682
H511	H	0.016669	-0.709627	0.175439
H512	H	0.516669	-0.209627	0.675439
H513	H	-0.025538	-0.657067	0.145738
H514	H	0.474462	-0.157067	0.645738
O515	O	-0.096195	-0.516082	0.293091
O516	O	0.403805	-0.016082	0.793091
C517	C	-0.103196	-0.469507	0.286058
C518	C	0.396804	0.030493	0.786058
H519	H	-0.097703	-0.469600	0.315996
H520	H	0.402297	0.030400	0.815996
H521	H	-0.140790	-0.445927	0.285734
H522	H	0.359210	0.054073	0.785734
H523	H	-0.076757	-0.455330	0.250758
H524	H	0.423243	0.044670	0.750758
O525	O	-0.063619	-0.483620	0.325834
O526	O	0.436381	0.016380	0.825834
C527	C	-0.042943	-0.475967	0.346596
C528	C	0.457057	0.024033	0.846596
H529	H	-0.035523	-0.508509	0.378462
H530	H	0.464477	-0.008509	0.878462
H531	H	-0.068268	-0.443803	0.358601
H532	H	0.431732	0.056197	0.858601
H533	H	-0.008319	-0.469401	0.319517
H534	H	0.491681	0.030599	0.819517
O535	O	0.022788	-0.669796	0.302935
O536	O	0.522788	-0.169796	0.802935
C537	C	0.056491	-0.681940	0.262065
C538	C	0.556491	-0.181940	0.762065
H539	H	0.058817	-0.717943	0.266534
H540	H	0.558817	-0.217943	0.766534
H541	H	0.092576	-0.683673	0.256708
H542	H	0.592576	-0.183673	0.756708
H543	H	0.045334	-0.654025	0.229904
H544	H	0.545334	-0.154025	0.729904
O545	O	0.055253	-0.767577	0.335589
O546	O	0.555253	-0.267577	0.835589
C547	C	0.072465	-0.796267	0.308603
C548	C	0.572465	-0.296267	0.808603
H549	H	0.041855	-0.803660	0.312429
H550	H	0.541855	-0.303660	0.812429
H551	H	0.099860	-0.831162	0.321811
H552	H	0.599860	-0.331162	0.821811
H553	H	0.089599	-0.777178	0.269748
H554	H	0.589599	-0.277178	0.769748
H555	H	-0.133793	-0.557888	0.260690
H556	H	0.366207	-0.057888	0.760690
O557	O	-0.103020	-0.767285	0.395756
O558	O	0.396980	-0.267285	0.895756
C559	C	-0.149255	-0.734726	0.398373
C560	C	0.350745	-0.234726	0.898373
H561	H	-0.151151	-0.699364	0.395069
H562	H	0.348849	-0.199364	0.895069
H563	H	-0.175481	-0.749002	0.433829
H564	H	0.324519	-0.249002	0.933829
H565	H	-0.158520	-0.729482	0.368337
H566	H	0.341480	-0.229482	0.868337
H567	H	-0.223999	-0.601245	0.437568
H568	H	0.276001	-0.101245	0.937568
O569	O	-0.130209	-0.635795	0.412855
O570	O	0.369791	-0.135795	0.912855
C571	C	-0.162788	-0.642790	0.459407
C572	C	0.337212	-0.142790	0.959407
H573	H	-0.198120	-0.612858	0.459262
H574	H	0.301880	-0.112858	0.959262
H575	H	-0.148498	-0.643064	0.482999
H576	H	0.351502	-0.143064	0.982999
H577	H	-0.168089	-0.678103	0.473603
H578	H	0.331911	-0.178103	0.973603
H579	H	-0.223768	-0.527810	0.290539
H580	H	0.276232	-0.027810	0.790539
