data_functionalizedCrystal
_audit_creation_method	'MofGen! by Chris Wilmer'
_symmetry_space_group_name_H-M	'P1'
_symmetry_Int_Tables_number	1
_symmetry_cell_setting	triclinic
loop_
_symmetry_equiv_pos_as_xyz
  x,y,z
_cell_length_a	10.654550
_cell_length_b	10.654550
_cell_length_c	9.730223
_cell_angle_alpha	89.999758
_cell_angle_beta	90.002824
_cell_angle_gamma	95.515069
loop_
_atom_site_label
_atom_site_type_symbol
_atom_site_fract_x
_atom_site_fract_y
_atom_site_fract_z
O1	O	0.176396	-1.667840	0.114187
O2	O	0.193202	-1.302361	0.114212
O3	O	0.002060	-1.493503	0.114190
O4	O	0.367538	-1.476697	0.114209
O5	O	0.002060	-1.493490	-0.114390
O6	O	0.193202	-1.302348	-0.114368
O7	O	0.176396	-1.667826	-0.114393
Zn8	Zn	0.184799	-1.485085	-0.150672
Zn9	Zn	0.184799	-1.485103	0.150492
O10	O	0.367538	-1.476684	-0.114371
C11	C	0.191968	-1.255556	-0.000075
C12	C	0.188276	-1.116113	-0.000065
C13	C	-0.044738	-1.492263	-0.000099
C14	C	-0.184181	-1.488571	-0.000096
N15	N	0.184798	-1.485082	-0.356209
C16	C	-0.263667	-1.601112	-0.000104
C17	C	-0.394688	-1.597636	-0.000087
C18	C	-0.366725	-1.369066	-0.000061
C19	C	-0.235706	-1.372544	-0.000068
C20	C	0.414336	-1.477925	-0.000079
C21	C	0.553779	-1.481616	-0.000072
C22	C	0.177630	-1.714631	-0.000103
C23	C	0.181322	-1.854074	-0.000104
C24	C	0.300818	-1.036628	-0.000064
C25	C	0.297341	-0.905607	-0.000088
C26	C	0.068772	-0.933570	-0.000109
C27	C	0.072250	-1.064588	-0.000095
C28	C	0.261680	-1.561913	-0.428131
C29	C	0.261673	-1.561934	-0.572014
C30	C	0.107899	-1.408281	-0.572040
C31	C	0.107900	-1.408268	-0.428159
N32	N	0.184790	-1.485116	0.356028
H33	H	-0.221720	-1.695588	-0.000124
H34	H	0.045293	-1.345740	-0.630639
H35	H	-0.459401	-1.689279	-0.000090
C36	C	0.426019	-0.742032	0.117415
C37	C	0.421050	-0.818234	-0.000077
H38	H	0.502392	-0.688088	0.117414
H39	H	0.422622	-0.793717	0.197117
H40	H	0.356420	-0.692596	0.117381
H41	H	0.490644	-0.867677	-0.000037
H42	H	0.424459	-0.766543	-0.079800
H43	H	-0.025693	-0.891602	-0.000142
C44	C	-0.221215	-1.146254	-0.000056
C45	C	-0.148325	-1.248828	-0.000065
H46	H	-0.167266	-1.069883	-0.000059
H47	H	-0.272889	-1.149654	0.079651
H48	H	-0.272907	-1.149651	-0.079771
H49	H	-0.096638	-1.245437	0.079655
H50	H	-0.096628	-1.245426	-0.079781
H51	H	-0.019401	-1.129309	-0.000100
C52	C	-0.555151	-1.262244	-0.000056
C53	C	-0.423366	-1.241534	-0.000050
H54	H	-0.590114	-1.183508	-0.000062
H55	H	-0.582356	-1.308625	0.079648
H56	H	-0.582358	-1.308630	-0.079775
H57	H	-0.396159	-1.195157	0.079674
H58	H	-0.396150	-1.195134	-0.079762
H59	H	0.395294	-1.078574	-0.000049
H60	H	0.045287	-1.345701	-0.369598
C61	C	0.413667	-1.713804	-0.442563
C62	C	0.346193	-1.646358	-0.349042
H63	H	0.465834	-1.765944	-0.393737
H64	H	0.464592	-1.656459	-0.498682
H65	H	0.356330	-1.764765	-0.498682
H66	H	0.403530	-1.595388	-0.292930
H67	H	0.295264	-1.703709	-0.292900
C68	C	0.271093	-1.730938	-0.733778
C69	C	0.346185	-1.646392	-0.651068
H70	H	0.323270	-1.783087	-0.782573
H71	H	0.225316	-1.685194	-0.797221
H72	H	0.213779	-1.781886	-0.677626
H73	H	0.403493	-1.595437	-0.707222
H74	H	0.391984	-1.692140	-0.587618
