data_functionalizedCrystal
_audit_creation_method	'MofGen! by Chris Wilmer'
_symmetry_space_group_name_H-M	'P1'
_symmetry_Int_Tables_number	1
_symmetry_cell_setting	triclinic
loop_
_symmetry_equiv_pos_as_xyz
  x,y,z
_cell_length_a	18.215405
_cell_length_b	18.215407
_cell_length_c	18.215399
_cell_angle_alpha	90.013852
_cell_angle_beta	89.967040
_cell_angle_gamma	89.978982
loop_
_atom_site_label
_atom_site_type_symbol
_atom_site_fract_x
_atom_site_fract_y
_atom_site_fract_z
Zn1	Zn	-0.293050	-1.125050	-0.416044
Zn2	Zn	0.206950	-0.625050	0.083956
Zn3	Zn	-0.416127	-1.124965	-0.292972
Zn4	Zn	0.083873	-0.624965	0.207028
Zn5	Zn	-0.293070	-1.001989	-0.292998
Zn6	Zn	0.206930	-0.501989	0.207002
Zn7	Zn	-0.416071	-1.001949	-0.416004
Zn8	Zn	0.083929	-0.501949	0.083996
O9	O	-0.354580	-1.063488	-0.354504
O10	O	0.145420	-0.563488	0.145496
O11	O	-0.309391	-1.228023	-0.399725
O12	O	0.190609	-0.728023	0.100275
O13	O	-0.399835	-1.108633	-0.189991
O14	O	0.100165	-0.608633	0.310009
O15	O	-0.190083	-1.018366	-0.309348
O16	O	0.309917	-0.518366	0.190652
O17	O	-0.399815	-1.227960	-0.309304
O18	O	0.100185	-0.727960	0.190696
O19	O	-0.190069	-1.108778	-0.399750
O20	O	0.309931	-0.608778	0.100250
O21	O	-0.309426	-1.018283	-0.190010
O22	O	0.190574	-0.518283	0.309990
O23	O	-0.309372	-0.898999	-0.309309
O24	O	0.190628	-0.398999	0.190691
O25	O	-0.399721	-1.018297	-0.518993
O26	O	0.100279	-0.518297	-0.018993
O27	O	-0.399740	-0.898970	-0.399680
O28	O	0.100260	-0.398970	0.100320
O29	O	-0.309338	-1.108739	-0.519023
O30	O	0.190662	-0.608739	-0.019023
O31	O	-0.519104	-1.108594	-0.309265
O32	O	-0.019104	-0.608594	0.190735
O33	O	-0.519063	-1.018214	-0.399656
O34	O	-0.019063	-0.518214	0.100344
C35	C	-0.354553	-0.872282	-0.354493
C36	C	0.145447	-0.372282	0.145507
C37	C	-0.354559	-0.790483	-0.354506
C38	C	0.145441	-0.290483	0.145494
C39	C	-0.401699	-0.525429	-0.401497
C40	C	0.098301	-0.025429	0.098503
C41	C	-0.401695	-0.602288	-0.401493
C42	C	0.098305	-0.102288	0.098507
C43	C	-0.307453	-0.602288	-0.307526
C44	C	0.192547	-0.102288	0.192474
C45	C	-0.307462	-0.525431	-0.307526
C46	C	0.192538	-0.025431	0.192474
C47	C	-0.354584	-0.487003	-0.354516
C48	C	0.145416	0.012997	0.145484
C49	C	-0.354571	-0.640720	-0.354512
C50	C	0.145429	-0.140720	0.145488
C51	C	-0.354566	-0.724053	-0.354508
C52	C	0.145434	-0.224053	0.145492
C53	C	-0.354590	-0.403664	-0.354519
C54	C	0.145410	0.096336	0.145481
C55	C	-0.545786	-1.063410	-0.354469
C56	C	-0.045786	-0.563410	0.145531
C57	C	-0.627585	-1.063445	-0.354479
C58	C	-0.127585	-0.563445	0.145521
C59	C	-0.815775	-1.110616	-0.307499
C60	C	-0.315775	-0.610616	0.192501
C61	C	-0.892634	-1.110649	-0.307517
C62	C	-0.392634	-0.610649	0.192483
C63	C	-0.892632	-1.016455	-0.401563
C64	C	-0.392632	-0.516455	0.098437
C65	C	-0.815774	-1.016426	-0.401548
C66	C	-0.315774	-0.516426	0.098452
C67	C	-0.777348	-1.063505	-0.354512
C68	C	-0.277348	-0.563505	0.145488
C69	C	-0.931064	-1.063567	-0.354545
C70	C	-0.431064	-0.563567	0.145455
C71	C	-1.014398	-1.063602	-0.354564
C72	C	-0.514398	-0.563602	0.145436
C73	C	-0.694009	-1.063471	-0.354493
C74	C	-0.194009	-0.563471	0.145507
C75	C	-0.162627	-1.063586	-0.354556
C76	C	0.337373	-0.563586	0.145444
C77	C	-0.080828	-1.063628	-0.354578
C78	C	0.419172	-0.563628	0.145422
C79	C	-0.354521	-1.063523	-0.546457
C80	C	0.145479	-0.563523	-0.046457
C81	C	-0.354496	-1.063538	-0.628256
C82	C	0.145504	-0.563538	-0.128256
C83	C	-0.354601	-0.255441	-0.354516
C84	C	0.145399	0.244559	0.145484
C85	C	-0.354596	-0.337240	-0.354522
C86	C	0.145404	0.162760	0.145478
C87	C	-0.307388	-1.016532	-0.816461
C88	C	0.192612	-0.516532	-0.316461
C89	C	-0.307373	-1.016545	-0.893320
C90	C	0.192627	-0.516545	-0.393320
C91	C	-0.401516	-1.110631	-0.893290
C92	C	0.098484	-0.610631	-0.393290
C93	C	-0.401534	-1.110614	-0.816432
C94	C	0.098466	-0.610614	-0.316432
C95	C	-0.354466	-1.063566	-0.778020
C96	C	0.145534	-0.563566	-0.278020
C97	C	-0.354433	-1.063596	-0.931736
C98	C	0.145567	-0.563596	-0.431736
C99	C	-0.354417	-1.063610	-1.015070
C100	C	0.145583	-0.563610	-0.515070
C101	C	-0.354482	-1.063550	-0.694681
C102	C	0.145518	-0.563550	-0.194681
C103	C	-0.354585	-1.063496	-0.163298
C104	C	0.145415	-0.563496	0.336702
C105	C	-0.354403	-1.063624	-0.081500
C106	C	0.145597	-0.563624	0.418500
H107	H	-0.440069	-0.494144	-0.439759
H108	H	0.059931	0.005856	0.060241
C109	C	-0.773502	-0.964614	-0.453284
C110	C	-0.273502	-0.464614	0.046716
N111	N	-0.741662	-0.925597	-0.492257
N112	N	-0.241662	-0.425597	0.007743
H113	H	-0.923928	-0.978123	-0.439857
H114	H	-0.423928	-0.478123	0.060143
C115	C	-0.773509	-1.162408	-0.255762
C116	C	-0.273509	-0.662408	0.244238
N117	N	-0.741677	-1.201422	-0.216793
N118	N	-0.241677	-0.701422	0.283207
H119	H	-0.269039	-0.978245	-0.924615
H120	H	0.230961	-0.478245	-0.424615
C121	C	-0.934901	-1.162471	-0.255795
C122	C	-0.434901	-0.662471	0.244205
N123	N	-0.966735	-1.201505	-0.216836
N124	N	-0.466735	-0.701505	0.283164
H125	H	-0.269062	-0.978222	-0.785188
H126	H	0.230938	-0.478222	-0.285188
H127	H	-0.440062	-0.633571	-0.439749
H128	H	0.059938	-0.133571	0.060251
H129	H	-0.269094	-0.494144	-0.269265
H130	H	0.230906	0.005856	0.230735
C131	C	-0.255611	-0.644566	-0.255851
C132	C	0.244389	-0.144566	0.244149
N133	N	-0.216558	-0.676409	-0.216933
N134	N	0.283442	-0.176409	0.283067
H135	H	-0.439836	-1.148937	-0.924574
H136	H	0.060164	-0.648937	-0.424574
C137	C	-0.453312	-1.162371	-0.774144
C138	C	0.046688	-0.662371	-0.274144
N139	N	-0.492306	-1.201356	-0.742293
N140	N	0.007694	-0.701356	-0.242293
