data_functionalizedCrystal
_audit_creation_method	'MofGen! by Chris Wilmer'
_symmetry_space_group_name_H-M	'P1'
_symmetry_Int_Tables_number	1
_symmetry_cell_setting	triclinic
loop_
_symmetry_equiv_pos_as_xyz
  x,y,z
_cell_length_a	19.288840
_cell_length_b	17.019294
_cell_length_c	18.366186
_cell_angle_alpha	86.114787
_cell_angle_beta	89.983729
_cell_angle_gamma	83.259949
loop_
_atom_site_label
_atom_site_type_symbol
_atom_site_fract_x
_atom_site_fract_y
_atom_site_fract_z
O1	O	0.921538	0.098312	-0.066834
O2	O	1.421538	0.598312	0.433166
O3	O	0.719298	0.111608	-0.067643
O4	O	1.219298	0.611608	0.432357
O5	O	0.826059	-0.009894	-0.060034
O6	O	1.326059	0.490106	0.439966
O7	O	0.814777	0.219813	-0.074442
O8	O	1.314777	0.719813	0.425558
O9	O	0.826041	-0.009900	0.061065
O10	O	1.326041	0.490100	0.561065
O11	O	0.719280	0.111602	0.053457
O12	O	1.219280	0.611602	0.553457
O13	O	0.921520	0.098306	0.054265
O14	O	1.421520	0.598306	0.554265
Zn15	Zn	0.820397	0.104953	0.073089
Zn16	Zn	1.320397	0.604953	0.573089
Zn17	Zn	0.820421	0.104961	-0.086466
Zn18	Zn	1.320421	0.604961	0.413534
O19	O	0.814759	0.219808	0.046657
O20	O	1.314759	0.719808	0.546657
C21	C	0.693412	0.111180	-0.007063
C22	C	1.193412	0.611180	0.492937
C23	C	0.616305	0.109906	-0.006973
C24	C	1.116305	0.609906	0.493027
C25	C	0.580110	0.109297	-0.072948
C26	C	1.080110	0.609297	0.427052
C27	C	0.507661	0.108091	-0.072881
C28	C	1.007661	0.608091	0.427119
C29	C	0.471411	0.107478	-0.006835
C30	C	0.971411	0.607478	0.493165
C31	C	0.507614	0.108091	0.059148
C32	C	1.007614	0.608091	0.559148
C33	C	0.580061	0.109305	0.059079
C34	C	1.080061	0.609305	0.559079
C35	C	0.361991	0.059347	0.046745
C36	C	0.861991	0.559347	0.546745
C37	C	0.289546	0.058128	0.046812
C38	C	0.789546	0.558128	0.546812
C39	C	0.247961	0.103737	-0.006619
C40	C	0.747961	0.603737	0.493381
C41	C	0.278831	0.150554	-0.060129
C42	C	0.778831	0.650554	0.439871
C43	C	0.351278	0.151768	-0.060198
C44	C	0.851278	0.651768	0.439802
C45	C	0.392855	0.106162	-0.006753
C46	C	0.892855	0.606162	0.493247
C47	C	0.133209	0.101821	-0.072526
C48	C	0.633209	0.601821	0.427474
C49	C	0.060758	0.100620	-0.072457
C50	C	0.560758	0.600620	0.427543
C51	C	0.060713	0.100612	0.059575
C52	C	0.560713	0.600612	0.559575
C53	C	0.133162	0.101821	0.059503
C54	C	0.633162	0.601821	0.559503
C55	C	0.169406	0.102422	-0.006549
C56	C	0.669406	0.602422	0.493451
C57	C	0.825622	-0.039284	0.002357
C58	C	1.325622	0.460716	0.502357
C59	C	0.824338	-0.126850	0.007846
C60	C	1.324338	0.373150	0.507846
C61	C	0.823746	-0.167981	-0.055586
C62	C	1.323746	0.332019	0.444414
C63	C	0.822536	-0.250258	-0.050427
C64	C	1.322536	0.249742	0.449573
C65	C	0.821921	-0.291403	0.018165
C66	C	1.321921	0.208597	0.518165
C67	C	0.822511	-0.250266	0.081603
C68	C	1.322511	0.249734	0.581603
C69	C	0.823717	-0.167990	0.076443
C70	C	1.323717	0.332010	0.576443
C71	C	0.818275	-0.539823	0.037048
C72	C	1.318275	-0.039823	0.537048
C73	C	0.817071	-0.622105	0.042203
C74	C	1.317071	-0.122105	0.542203
C75	C	0.817095	-0.622091	-0.089827
C76	C	1.317095	-0.122091	0.410173
C77	C	0.818305	-0.539814	-0.094981
C78	C	1.318305	-0.039814	0.405019
C79	C	0.818891	-0.498684	-0.031544
C80	C	1.318891	0.001316	0.468456
C81	C	0.820686	-0.375503	0.023441
C82	C	1.320686	0.124497	0.523441
C83	C	0.820121	-0.414584	-0.036820
C84	C	1.320121	0.085416	0.463180
C85	C	0.947406	0.098734	-0.006316
C86	C	1.447406	0.598734	0.493684
C87	C	1.024513	0.100008	-0.006410
C88	C	1.524513	0.600008	0.493590
C89	C	0.815196	0.249198	-0.015736
C90	C	1.315196	0.749198	0.484264
C91	C	0.816480	0.336764	-0.021229
C92	C	1.316480	0.836764	0.478771
N93	N	0.820386	0.104947	0.181980
N94	N	1.320386	0.604947	0.681980
N95	N	0.820438	0.104960	-0.195357
N96	N	1.320438	0.604960	0.304643
C97	C	0.867675	0.051173	0.223448
C98	C	1.367675	0.551173	0.723448
C99	C	0.867679	0.051169	0.299676
C100	C	1.367679	0.551169	0.799676
C101	C	0.820401	0.104954	0.334432
C102	C	1.320401	0.604954	0.834432
C103	C	0.773103	0.158732	0.292955
C104	C	1.273103	0.658732	0.792955
C105	C	0.773095	0.158729	0.216729
C106	C	1.273095	0.658729	0.716729
C107	C	0.811230	0.176830	0.450685
C108	C	1.311230	0.676830	0.950685
C109	C	0.811243	0.176834	0.526910
C110	C	1.311243	0.676834	1.026910
C111	C	0.820421	0.104964	0.569539
C112	C	1.320421	0.604964	1.069539
C113	C	0.829601	0.033085	0.535935
C114	C	1.329601	0.533085	1.035935
C115	C	0.829594	0.033082	0.459709
C116	C	1.329594	0.533082	0.959709
C117	C	0.820404	0.104963	0.417087
C118	C	1.320404	0.604963	0.917087
C119	C	0.867718	0.051181	0.693662
C120	C	1.367718	0.551181	1.193662
C121	C	0.867717	0.051176	0.769892
C122	C	1.367717	0.551176	1.269892
C123	C	0.773144	0.158746	0.763170
C124	C	1.273144	0.658746	1.263170
C125	C	0.773141	0.158744	0.686942
C126	C	1.273141	0.658744	1.186942
C127	C	0.820432	0.104962	0.652193
C128	C	1.320432	0.604962	1.152193
H129	H	0.264418	0.020003	0.090379
H130	H	0.764418	0.520003	0.590379
O131	O	0.722122	0.216755	0.330441
O132	O	1.222122	0.716755	0.830441
H133	H	0.689236	0.254150	0.288796
H134	H	1.189236	0.754150	0.788796
H135	H	0.478185	0.107596	-0.126608
H136	H	0.978185	0.607596	0.373392
H137	H	0.031199	0.100118	0.113351
H138	H	0.531199	0.600118	0.613351
H139	H	0.734647	0.202535	0.791468
H140	H	1.234647	0.702535	1.291468
O141	O	0.384576	0.202269	-0.117898
O142	O	0.884576	0.702269	0.382102
H143	H	0.343493	0.233788	-0.155040
H144	H	0.843493	0.733788	0.344960
O145	O	0.172200	0.102488	0.130666
O146	O	0.672200	0.602488	0.630666
H147	H	0.164543	0.048503	0.165713
H148	H	0.664543	0.548503	0.665713
O149	O	0.722094	0.216736	0.171995
O150	O	1.222094	0.716736	0.671995
H151	H	0.689220	0.254140	0.208966
H152	H	1.189220	0.754140	0.708966
O153	O	0.801321	0.254360	0.404720
O154	O	1.301321	0.754360	0.904720
H155	H	0.754045	0.256314	0.369898
H156	H	1.254045	0.756314	0.869898
H157	H	0.816616	-0.655588	-0.141474
H158	H	1.316616	-0.155588	0.358526
H159	H	0.162719	0.102318	-0.126311
H160	H	0.662719	0.602318	0.373689
H161	H	0.244973	0.187696	-0.103635
H162	H	0.744973	0.687696	0.396365
O163	O	0.021717	0.099935	-0.143617
O164	O	0.521717	0.599935	0.356383
H165	H	0.059096	0.100539	-0.189555
H166	H	0.559096	0.600539	0.310445
O167	O	0.406843	0.010147	0.104374
O168	O	0.906843	0.510147	0.604374
H169	H	0.373210	-0.022622	0.141584
H170	H	0.873210	0.477378	0.641584
H171	H	0.820616	-0.381080	-0.092668
H172	H	1.320616	0.118920	0.407332
H173	H	0.822057	-0.283743	-0.102081
H174	H	1.322057	0.216257	0.397919
O175	O	0.816415	-0.666475	0.116195
O176	O	1.316415	-0.166475	0.616195
H177	H	0.863193	-0.711151	0.122149
H178	H	1.363193	-0.211151	0.622149
O179	O	0.619100	0.109973	0.130243
O180	O	1.119100	0.609973	0.630243
H181	H	0.611442	0.055987	0.165289
H182	H	1.111442	0.555987	0.665289
H183	H	0.906189	0.007378	0.333445
H184	H	1.406189	0.507378	0.833445
H185	H	0.818766	-0.506347	0.088703
H186	H	1.318766	-0.006347	0.588703
H187	H	0.822007	-0.283772	0.137452
H188	H	1.322007	0.216228	0.637452
O189	O	0.619202	0.109955	-0.144187
O190	O	1.119202	0.609955	0.355813
H191	H	0.581856	0.109336	-0.190054
H192	H	1.081856	0.609336	0.309946
H193	H	0.478095	0.107594	0.112924
H194	H	0.978095	0.607594	0.612924
H195	H	0.906224	0.007382	0.803656
H196	H	1.406224	0.507382	1.303656
H197	H	0.818806	-0.506320	-0.150837
H198	H	1.318806	-0.006320	0.349163
H199	H	0.837067	-0.025444	0.432351
H200	H	1.337067	0.474556	0.932351
O201	O	0.824362	-0.123629	0.144862
O202	O	1.324362	0.376371	0.644862
H203	H	0.777589	-0.078946	0.145228
H204	H	1.277589	0.421054	0.645228
O205	O	0.824403	-0.123603	-0.129569
O206	O	1.324403	0.376397	0.370431
H207	H	0.823779	-0.166029	-0.172810
H208	H	1.323779	0.333971	0.327190
O209	O	0.820044	-0.419893	0.097419
O210	O	1.320044	0.080107	0.597419
H211	H	0.772181	-0.450186	0.102484
H212	H	1.272181	0.049814	0.602484
H213	H	0.906180	0.007379	0.195157
H214	H	1.406180	0.507379	0.695157
O215	O	0.839496	-0.044442	0.581900
O216	O	1.339496	0.455558	1.081900
H217	H	0.837949	-0.032369	0.640551
H218	H	1.337949	0.467631	1.140551
H219	H	0.906222	0.007386	0.665369
H220	H	1.406222	0.507386	1.165369
H221	H	0.734637	0.202535	0.653176
H222	H	1.234637	0.702535	1.153176
H223	H	0.803772	0.235362	0.554264
H224	H	1.303772	0.735362	1.054264
