data_functionalizedCrystal
_audit_creation_method	'MofGen! by Chris Wilmer'
_symmetry_space_group_name_H-M	'P1'
_symmetry_Int_Tables_number	1
_symmetry_cell_setting	triclinic
loop_
_symmetry_equiv_pos_as_xyz
  x,y,z
_cell_length_a	12.759401
_cell_length_b	21.395361
_cell_length_c	12.759393
_cell_angle_alpha	89.961845
_cell_angle_beta	89.979062
_cell_angle_gamma	90.032233
loop_
_atom_site_label
_atom_site_type_symbol
_atom_site_fract_x
_atom_site_fract_y
_atom_site_fract_z
Zn1	Zn	1.606150	-0.249383	-0.593964
Zn2	Zn	1.605992	-0.354173	-0.418261
Zn3	Zn	1.430448	-0.249416	-0.418299
Zn4	Zn	1.430391	-0.354129	-0.593898
O5	O	1.518245	-0.301775	-0.506106
O6	O	1.753150	-0.263288	-0.570668
O7	O	1.582663	-0.340309	-0.271245
O8	O	1.453845	-0.161734	-0.441645
O9	O	1.753033	-0.340277	-0.441580
O10	O	1.582932	-0.161709	-0.570706
O11	O	1.453692	-0.263345	-0.271273
O12	O	1.283420	-0.263302	-0.441581
O13	O	1.453748	-0.340202	-0.740928
O14	O	1.283378	-0.340234	-0.570593
O15	O	1.582877	-0.263245	-0.740977
O16	O	1.582608	-0.441845	-0.441516
O17	O	1.453595	-0.441813	-0.570556
C18	C	1.245278	-0.301768	-0.506085
C19	C	1.128501	-0.301779	-0.506101
C20	C	1.073645	-0.341899	-0.573171
C21	C	0.963921	-0.341901	-0.573192
C22	C	0.963919	-0.261663	-0.439063
C23	C	1.073641	-0.261658	-0.439048
C24	C	1.518106	-0.464563	-0.506047
C25	C	1.518143	-0.534204	-0.506057
C26	C	1.585380	-0.566913	-0.438935
C27	C	1.585429	-0.632349	-0.438958
C28	C	1.518222	-0.665072	-0.506093
C29	C	1.450981	-0.632355	-0.573229
C30	C	1.450941	-0.566921	-0.573211
C31	C	1.423624	-0.768788	-0.514329
C32	C	1.423662	-0.834221	-0.514340
C33	C	1.518345	-0.866893	-0.506155
C34	C	1.612993	-0.834125	-0.497937
C35	C	1.612953	-0.768691	-0.497919
C36	C	1.518258	-0.736025	-0.506121
C37	C	1.585640	-0.970555	-0.439054
C38	C	1.585690	-1.035991	-0.439085
C39	C	1.451233	-1.035997	-0.573350
C40	C	1.451192	-0.970562	-0.573325
C41	C	1.518394	-0.937844	-0.506171
C42	C	1.792278	-0.301783	-0.506127
C43	C	1.909055	-0.301787	-0.506136
C44	C	1.518324	-0.301715	-0.780139
C45	C	1.518357	-0.301689	-0.896916
C46	C	1.518413	-0.138352	-0.506187
C47	C	1.518484	-0.068711	-0.506222
C48	C	1.585600	-0.261612	-0.951805
C49	C	1.585617	-0.261585	-1.061529
C50	C	1.451147	-0.341719	-1.061465
C51	C	1.451125	-0.341742	-0.951743
C52	C	1.518227	-0.301790	-0.233138
C53	C	1.518397	-0.301639	-0.116362
H54	H	1.118309	-0.374567	-0.627773
O55	O	1.650617	-0.535204	-0.373567
C56	C	1.627704	-0.551245	-0.268837
H57	H	1.587339	-0.598776	-0.266637
H58	H	1.703556	-0.553470	-0.221798
H59	H	1.573693	-0.514462	-0.233390
O60	O	1.385691	-0.380588	-0.898371
C61	C	1.317879	-0.344925	-0.834892
H62	H	1.311447	-0.295572	-0.867986
H63	H	1.237000	-0.367583	-0.833618
H64	H	1.350350	-0.342784	-0.751743
O65	O	0.910471	-0.380816	-0.638308
C66	C	0.801863	-0.372230	-0.623932
H67	H	0.786899	-0.323852	-0.589681
H68	H	0.760202	-0.376540	-0.702622
H69	H	0.770664	-0.409353	-0.567870
O70	O	1.650888	-0.222566	-1.114729
C71	C	1.627974	-0.160125	-1.087957
H72	H	1.587570	-0.158845	-1.008286
H73	H	1.703828	-0.132036	-1.084224
H74	H	1.573995	-0.139002	-1.149710
O75	O	1.385918	-0.938854	-0.638664
C76	C	1.408847	-0.954766	-0.743404
H77	H	1.449264	-1.002251	-0.745633
H78	H	1.332997	-0.957024	-0.790443
H79	H	1.462817	-0.917890	-0.778830
H80	H	1.640363	-0.943915	-0.384377
H81	H	0.919239	-0.228998	-0.384469
O82	O	1.651196	-1.067670	-0.373934
C83	C	1.755859	-1.051580	-0.397042
H84	H	1.757914	-1.004057	-0.437448
H85	H	1.803027	-1.049315	-0.321275
H86	H	1.791271	-1.088356	-0.451087
O87	O	1.126773	-0.222664	-0.373791
C88	C	1.054827	-0.187245	-0.314624
H89	H	0.976589	-0.212908	-0.310911
H90	H	1.086498	-0.180500	-0.231865
H91	H	1.043216	-0.139688	-0.353249
O92	O	1.331740	-0.866079	-0.522141
C93	C	1.318273	-0.903993	-0.432715
H94	H	1.366497	-0.884280	-0.365183
H95	H	1.231918	-0.904798	-0.409794
H96	H	1.345513	-0.953560	-0.450856
H97	H	1.640184	-0.658986	-0.384300
O98	O	1.385986	-1.067874	-0.638471
C99	C	1.400460	-1.132643	-0.624119
H100	H	1.434913	-1.141603	-0.543071
H101	H	1.321778	-1.157553	-0.631189
H102	H	1.456393	-1.151146	-0.686490
O103	O	1.704969	-0.865879	-0.490184
C104	C	1.718465	-0.903681	-0.579643
H105	H	1.670190	-0.883953	-0.647145
H106	H	1.804814	-0.904356	-0.602592
H107	H	1.691306	-0.953299	-0.561533
O108	O	1.385946	-0.380607	-1.114889
C109	C	1.400365	-0.371983	-1.223504
H110	H	1.481470	-0.351464	-1.238514
H111	H	1.393196	-0.418905	-1.265178
H112	H	1.338090	-0.338607	-1.254649
H113	H	1.690018	-0.742012	-0.491231
O114	O	1.385672	-0.535213	-0.638558
C115	C	1.408607	-0.551122	-0.743298
H116	H	1.449024	-0.598608	-0.745529
H117	H	1.332761	-0.553378	-0.790342
H118	H	1.462581	-0.514246	-0.778717
H119	H	1.396263	-0.659003	-0.627892
O120	O	1.331546	-0.737150	-0.522255
C121	C	1.248022	-0.780101	-0.529534
H122	H	1.272936	-0.826747	-0.494255
H123	H	1.177412	-0.761253	-0.484856
H124	H	1.226177	-0.787034	-0.615374
H125	H	1.640342	-0.228997	-0.907167
