data_functionalizedCrystal
_audit_creation_method	'MofGen! by Chris Wilmer'
_symmetry_space_group_name_H-M	'P1'
_symmetry_Int_Tables_number	1
_symmetry_cell_setting	triclinic
loop_
_symmetry_equiv_pos_as_xyz
  x,y,z
_cell_length_a	9.065218
_cell_length_b	15.944551
_cell_length_c	7.540329
_cell_angle_alpha	89.995457
_cell_angle_beta	89.996962
_cell_angle_gamma	84.257312
loop_
_atom_site_label
_atom_site_type_symbol
_atom_site_fract_x
_atom_site_fract_y
_atom_site_fract_z
O1	O	1.957520	0.123161	-0.147492
O2	O	1.527999	0.133263	-0.147494
O3	O	1.754488	0.006026	-0.147477
O4	O	1.731030	0.250398	-0.147509
O5	O	1.754475	0.006024	0.147488
O6	O	1.527985	0.133261	0.147471
O7	O	1.957506	0.123159	0.147473
Cu8	Cu	1.742744	0.128210	0.174405
Cu9	Cu	1.742760	0.128212	-0.174426
O10	O	1.731016	0.250396	0.147456
C11	C	1.473028	0.132291	-0.000012
C12	C	1.309253	0.129388	-0.000013
C13	C	1.753508	-0.025276	0.000006
C14	C	1.750588	-0.118544	0.000007
C15	C	1.603221	-0.334518	-0.000019
C16	C	1.671647	-0.395017	0.145418
C17	C	1.745306	-0.289310	-0.000007
C18	C	1.671693	-0.394999	-0.145395
C19	C	1.740194	-0.454262	-0.000028
C20	C	1.813771	-0.348582	0.145549
C21	C	1.813798	-0.348557	-0.145394
C22	C	1.882327	-0.409038	0.000078
C23	C	1.748247	-0.194286	0.000007
C24	C	1.737264	-0.549285	-0.000029
C25	C	2.012477	0.124131	-0.000013
C26	C	2.176252	0.127034	-0.000024
C27	C	1.731997	0.281698	-0.000031
C28	C	1.734917	0.374966	-0.000043
N29	N	1.742744	0.128208	0.419753
N30	N	1.742773	0.128207	-0.419774
H31	H	1.485283	-0.302103	0.000126
H32	H	1.873812	-0.328137	0.268639
H33	H	2.000369	-0.441303	0.000161
H34	H	1.611544	-0.415582	0.268371
C35	C	1.893637	-0.320965	-0.309399
C36	C	1.797196	-0.264968	-0.408208
C37	C	1.870683	-0.239521	-0.559304
H38	H	1.924958	-0.368890	-0.379716
H39	H	1.977579	-0.293746	-0.274544
H40	H	1.713281	-0.292187	-0.443066
H41	H	1.765870	-0.217030	-0.337945
H42	H	1.954626	-0.212302	-0.524448
H43	H	1.902002	-0.287451	-0.629605
H44	H	1.805264	-0.201518	-0.626355
C45	C	1.591313	-0.422257	-0.309281
C46	C	1.445284	-0.384171	-0.308596
C47	C	1.371190	-0.409248	-0.459542
H48	H	1.590660	-0.481793	-0.308829
H49	H	1.640755	-0.405552	-0.412602
H50	H	1.395854	-0.400882	-0.205302
H51	H	1.445892	-0.324636	-0.309074
H52	H	1.420631	-0.392543	-0.562863
H53	H	1.370548	-0.468784	-0.459076
H54	H	1.272105	-0.383405	-0.459105
