data_functionalizedCrystal
_audit_creation_method	'MofGen! by Chris Wilmer'
_symmetry_space_group_name_H-M	'P1'
_symmetry_Int_Tables_number	1
_symmetry_cell_setting	triclinic
loop_
_symmetry_equiv_pos_as_xyz
  x,y,z
_cell_length_a	6.394989
_cell_length_b	17.699083
_cell_length_c	16.776229
_cell_angle_alpha	89.998886
_cell_angle_beta	90.003593
_cell_angle_gamma	95.109637
loop_
_atom_site_label
_atom_site_type_symbol
_atom_site_fract_x
_atom_site_fract_y
_atom_site_fract_z
O1	O	-0.264131	1.006774	-0.066171
O2	O	-0.298495	0.786746	-0.066197
O3	O	0.022767	0.899883	-0.066184
O4	O	-0.585393	0.893637	-0.066184
O5	O	0.022786	0.899868	0.066392
O6	O	-0.298476	0.786731	0.066380
O7	O	-0.264112	1.006758	0.066405
Zn8	Zn	-0.281290	0.896742	0.087442
Zn9	Zn	-0.281316	0.896763	-0.087233
O10	O	-0.585374	0.893621	0.066393
C11	C	-0.297254	0.758529	0.000088
C12	C	-0.293560	0.674473	0.000078
C13	C	-0.482134	0.627777	0.000079
C14	C	-0.478651	0.548798	0.000089
C15	C	-0.286591	0.516517	0.000093
C16	C	-0.098003	0.563220	0.000095
C17	C	-0.101488	0.642197	0.000091
C18	C	-0.083942	0.244713	0.000115
C19	C	-0.080470	0.165730	0.000117
C20	C	-0.461104	0.151314	0.000113
C21	C	-0.464590	0.230291	0.000109
C22	C	-0.276002	0.276987	0.000115
C23	C	-0.279782	0.362625	0.000105
C24	C	-0.282810	0.430881	0.000097
C25	C	0.100592	0.898640	0.000101
C26	C	0.336808	0.894866	0.000100
C27	C	-0.265353	1.034976	0.000119
C28	C	-0.269047	1.119031	0.000123
N29	N	-0.281271	0.896733	0.206653
N30	N	-0.281319	0.896777	-0.206444
C31	C	-0.139075	0.946847	0.248376
C32	C	-0.139073	0.946851	0.331828
C33	C	-0.281280	0.896745	0.373556
C34	C	-0.423483	0.846626	0.331828
C35	C	-0.423473	0.846619	0.248377
C36	C	-0.423524	0.846654	0.668375
C37	C	-0.423527	0.846667	0.751831
C38	C	-0.139124	0.946886	0.751826
C39	C	-0.139114	0.946879	0.668375
C40	C	-0.281309	0.896758	0.626654
C41	C	-0.281307	0.896753	0.536166
C42	C	-0.281294	0.896753	0.464043
H43	H	-0.620984	0.256569	0.000102
C44	C	0.015055	1.001421	0.797081
C45	C	-0.018598	1.076110	0.776787
C46	C	0.123368	1.126367	0.818464
H47	H	0.154514	0.991974	0.783439
H48	H	-0.005306	0.994302	0.852765
H49	H	0.001780	1.083225	0.721115
H50	H	-0.158029	1.085580	0.790431
H51	H	0.103007	1.119248	0.874149
H52	H	0.262818	1.116913	0.804820
H53	H	0.100541	1.177048	0.804707
H54	H	-0.614661	0.113284	0.000113
C55	C	0.120580	0.295532	0.000148
C56	C	0.076442	0.371608	0.000164
C57	C	0.264804	0.418448	0.000202
H58	H	0.199481	0.285644	-0.046073
H59	H	0.199382	0.285597	0.046397
H60	H	-0.002326	0.381540	-0.046080
H61	H	-0.002429	0.381520	0.046382
H62	H	0.343606	0.408512	0.046451
H63	H	0.343691	0.408553	-0.046021
H64	H	0.234882	0.470070	0.000220
H65	H	-0.539263	0.805825	0.365808
C66	C	0.015549	1.001143	0.377164
C67	C	0.143328	0.959625	0.425066
C68	C	0.285817	1.009616	0.466830
H69	H	-0.059236	1.033381	0.409777
H70	H	0.100347	1.030972	0.340381
H71	H	0.058541	0.929809	0.461844
H72	H	0.218160	0.927389	0.392473
H73	H	0.370615	1.039445	0.430047
H74	H	0.211014	1.041851	0.499438
H75	H	0.372544	0.981453	0.499331
C76	C	0.103316	0.692863	-0.000078
C77	C	0.218954	0.678015	-0.068295
C78	C	0.407622	0.724680	-0.068480
H79	H	0.182345	0.682926	0.046101
H80	H	0.073821	0.744532	-0.000123
H81	H	0.248455	0.626358	-0.068243
H82	H	0.139989	0.687956	-0.114485
H83	H	0.378126	0.776350	-0.068525
H84	H	0.486631	0.714740	-0.022298
H85	H	0.486096	0.714618	-0.114767
H86	H	-0.638531	0.654053	0.000075
C87	C	-0.578201	0.792302	0.203117
C88	C	-0.783413	0.806542	0.223388
C89	C	-0.926000	0.756523	0.181703
H90	H	-0.555975	0.741549	0.216767
H91	H	-0.557967	0.799477	0.147433
H92	H	-0.803638	0.799361	0.279059
H93	H	-0.805706	0.857286	0.209736
H94	H	-0.905766	0.763698	0.126019
H95	H	-0.903754	0.705773	0.195356
H96	H	-1.065251	0.766183	0.195445
C97	C	0.127852	0.130536	0.000087
C98	C	0.090529	0.051376	0.000065
C99	C	0.282371	0.018930	0.000025
H100	H	0.205640	0.146353	0.046309
H101	H	0.205506	0.146397	-0.046161
H102	H	0.012907	0.035521	0.046309
H103	H	0.012773	0.035538	-0.046154
H104	H	0.360025	0.034791	-0.046224
H105	H	0.360144	0.034753	0.046248
H106	H	0.257074	-0.034783	0.000002
H107	H	-0.023283	0.987652	0.214406
H108	H	0.058376	0.536930	0.000110
H109	H	-0.539333	0.805862	0.785805
C110	C	0.015800	1.001186	0.623191
C111	C	0.220886	0.986875	0.643579
C112	C	0.363737	1.036878	0.602000
H113	H	-0.006366	1.051942	0.636849
H114	H	-0.004229	0.994046	0.567493
H115	H	0.240907	0.994021	0.699266
H116	H	0.243119	0.936128	0.629920
H117	H	0.343707	1.029738	0.546302
H118	H	0.341551	1.087631	0.615661
H119	H	0.502903	1.027170	0.615822
H120	H	-0.539308	0.805845	0.634412
H121	H	-0.632207	0.510780	0.000089
