data_functionalizedCrystal
_audit_creation_method	'MofGen! by Chris Wilmer'
_symmetry_space_group_name_H-M	'P1'
_symmetry_Int_Tables_number	1
_symmetry_cell_setting	triclinic
loop_
_symmetry_equiv_pos_as_xyz
  x,y,z
_cell_length_a	14.971486
_cell_length_b	11.804365
_cell_length_c	14.971486
_cell_angle_alpha	78.155071
_cell_angle_beta	83.614129
_cell_angle_gamma	101.857772
loop_
_atom_site_label
_atom_site_type_symbol
_atom_site_fract_x
_atom_site_fract_y
_atom_site_fract_z
O1	O	1.204970	0.098888	0.098547
O2	O	0.944576	0.098921	0.112500
O3	O	1.081751	0.098895	-0.024675
O4	O	1.067796	0.098914	0.235722
O5	O	1.045638	-0.099154	0.011402
O6	O	0.908463	-0.099129	0.148577
O7	O	1.168857	-0.099161	0.134624
Cu8	Cu	1.035363	-0.117228	0.144894
Cu9	Cu	1.078071	0.116988	0.102230
O10	O	1.031683	-0.099135	0.271798
C11	C	0.893196	-0.000100	0.129913
C12	C	0.793901	-0.000088	0.128040
C13	C	0.736676	-0.000084	0.208629
C14	C	0.643374	-0.000101	0.206869
C15	C	0.607299	-0.000115	0.124518
C16	C	0.664530	-0.000123	0.043924
C17	C	0.757829	-0.000113	0.045686
C18	C	0.470065	-0.000139	0.040256
C19	C	0.376759	-0.000146	0.038493
C20	C	0.355609	-0.000127	0.201439
C21	C	0.448908	-0.000118	0.203201
C22	C	0.506133	-0.000124	0.122606
N23	N	1.005331	-0.281963	0.174902
C24	C	1.180227	-0.655945	0.000139
C25	C	1.202945	-0.531287	-0.022565
C26	C	1.153543	-0.468950	0.026799
C27	C	1.081420	-0.531283	0.098872
C28	C	1.058704	-0.655952	0.121584
C29	C	1.032021	-0.468958	0.148244
C30	C	0.959898	-0.531290	0.220317
C31	C	0.937185	-0.655948	0.243025
C32	C	0.986587	-0.718285	0.193660
C33	C	1.054736	-0.344288	0.125533
C34	C	0.933214	-0.344296	0.246978
C35	C	0.910496	-0.468953	0.269682
C36	C	1.220238	-0.000138	0.117210
C37	C	1.319535	-0.000142	0.119081
C38	C	1.063070	-0.000129	-0.039961
C39	C	1.061200	-0.000128	-0.139259
N40	N	1.108109	0.281723	0.072215
C41	C	1.141787	-0.000139	-0.196482
C42	C	1.140026	-0.000127	-0.289784
C43	C	1.057676	-0.000112	-0.325859
C44	C	0.977083	-0.000097	-0.268629
C45	C	0.978846	-0.000101	-0.175330
C46	C	0.973413	-0.000093	-0.463092
C47	C	0.971648	-0.000091	-0.556396
C48	C	1.134593	-0.000118	-0.577545
C49	C	1.136356	-0.000122	-0.484247
C50	C	1.055762	-0.000109	-0.427023
C51	C	1.050364	-0.000109	0.287085
C52	C	1.052236	-0.000102	0.386380
H53	H	0.516655	-0.000145	-0.025373
Cl54	Cl	0.846527	-0.734310	0.333640
Cl55	Cl	1.245317	-0.000169	-0.151138
H56	H	0.347390	-0.000159	-0.028564
Cl57	Cl	0.868120	-0.000074	-0.601746
H58	H	1.200216	-0.000124	-0.624143
H59	H	0.851772	-0.519720	0.328366
Cl60	Cl	0.871109	-0.265937	0.309043
H61	H	0.910033	-0.000078	-0.298009
Cl62	Cl	0.571439	-0.000089	0.308184
Cl63	Cl	0.872093	-0.000077	-0.391154
Cl64	Cl	1.241340	-0.000144	-0.361718
Cl65	Cl	0.877533	-0.000083	-0.103392
Cl66	Cl	1.239885	-0.000134	-0.438898
H67	H	0.766041	-0.000072	0.275688
Cl68	Cl	1.293608	-0.452929	-0.113166
H69	H	0.635148	-0.000151	-0.023124
Cl70	Cl	1.182101	-0.312236	-0.001747
Cl71	Cl	0.494260	-0.000088	0.306727
H72	H	0.804422	-0.000116	-0.019937
Cl73	Cl	0.283669	-0.000123	0.302758
Cl74	Cl	1.145401	-0.265943	0.034929
H75	H	0.968088	-0.819791	0.212143
Cl76	Cl	1.242332	-0.734312	-0.061905
