data_functionalizedCrystal
_audit_creation_method	'MofGen! by Chris Wilmer'
_symmetry_space_group_name_H-M	'P1'
_symmetry_Int_Tables_number	1
_symmetry_cell_setting	triclinic
loop_
_symmetry_equiv_pos_as_xyz
  x,y,z
_cell_length_a	27.732048
_cell_length_b	27.731996
_cell_length_c	26.210047
_cell_angle_alpha	89.998501
_cell_angle_beta	89.996535
_cell_angle_gamma	82.632022
loop_
_atom_site_label
_atom_site_type_symbol
_atom_site_fract_x
_atom_site_fract_y
_atom_site_fract_z
O1	O	0.640920	0.057512	-0.042370
O2	O	0.974254	0.390845	0.290964
O3	O	1.307587	0.724178	0.624297
O4	O	0.500125	0.066257	-0.042386
O5	O	0.833459	0.399591	0.290947
O6	O	1.166792	0.732924	0.624281
O7	O	0.574909	-0.008514	-0.042366
O8	O	0.908242	0.324819	0.290967
O9	O	1.241575	0.658152	0.624300
O10	O	0.566137	0.132283	-0.042389
O11	O	0.899470	0.465616	0.290944
O12	O	1.232804	0.798950	0.624277
O13	O	0.574894	-0.008503	0.042492
O14	O	0.908228	0.324831	0.375825
O15	O	1.241561	0.658164	0.709158
O16	O	0.500111	0.066269	0.042472
O17	O	0.833444	0.399602	0.375805
O18	O	1.166778	0.732936	0.709139
O19	O	0.640906	0.057523	0.042488
O20	O	0.974239	0.390857	0.375822
O21	O	1.307573	0.724190	0.709155
Cu22	Cu	0.570507	0.061897	0.050228
Cu23	Cu	0.903840	0.395230	0.383562
Cu24	Cu	1.237174	0.728564	0.716895
Cu25	Cu	0.570524	0.061883	-0.050126
Cu26	Cu	0.903857	0.395217	0.283207
Cu27	Cu	1.237191	0.728550	0.616540
O28	O	0.566122	0.132295	0.042469
O29	O	0.899456	0.465628	0.375802
O30	O	1.232789	0.798961	0.709135
C31	C	0.482111	0.066079	0.000041
C32	C	0.815445	0.399413	0.333374
C33	C	1.148778	0.732746	0.666708
C34	C	0.428456	0.065527	0.000035
C35	C	0.761790	0.398860	0.333369
C36	C	1.095123	0.732193	0.666702
C37	C	0.089634	0.106232	0.000051
C38	C	0.422967	0.439565	0.333384
C39	C	0.756300	0.772898	0.666717
C40	C	-0.112026	0.104180	0.000056
C41	C	0.221308	0.437514	0.333389
C42	C	0.554641	0.770847	0.666722
O43	O	-0.143288	0.141402	0.000072
O44	O	0.190045	0.474735	0.333405
O45	O	0.523379	0.808069	0.666738
N46	N	-0.131141	0.059844	0.000062
N47	N	0.202192	0.393177	0.333395
N48	N	0.535526	0.726511	0.666729
C49	C	-0.099838	0.016017	0.000070
C50	C	0.233495	0.349351	0.333404
C51	C	0.566829	0.682684	0.666737
O52	O	-0.120724	-0.021740	0.000081
O53	O	0.212609	0.311593	0.333414
O54	O	0.545943	0.644926	0.666748
C55	C	0.101820	0.018069	0.000069
C56	C	0.435153	0.351402	0.333402
C57	C	0.768487	0.684736	0.666736
C58	C	0.120933	0.062408	0.000058
C59	C	0.454266	0.395742	0.333391
C60	C	0.787599	0.729075	0.666724
C61	C	0.108747	0.150567	0.000040
C62	C	0.442080	0.483900	0.333373
C63	C	0.775413	0.817234	0.666706
C64	C	0.159159	0.151079	0.000036
C65	C	0.492492	0.484413	0.333369
C66	C	0.825825	0.817746	0.666702
C67	C	0.190457	0.107256	0.000043
C68	C	0.523791	0.440589	0.333376
C69	C	0.857124	0.773923	0.666709
C70	C	0.171344	0.062920	0.000054
C71	C	0.504678	0.396254	0.333387
C72	C	0.838011	0.729587	0.666720
C73	C	0.133122	-0.025757	0.000081
C74	C	0.466455	0.307576	0.333415
C75	C	0.799789	0.640909	0.666748
C76	C	0.183539	-0.025240	0.000082
C77	C	0.516873	0.308093	0.333416
C78	C	0.850206	0.641426	0.666749
C79	C	0.202652	0.019099	0.000071
C80	C	0.535985	0.352432	0.333404
C81	C	0.869318	0.685765	0.666737
C82	C	0.253055	0.019609	0.000057
C83	C	0.586388	0.352943	0.333390
C84	C	0.919722	0.686276	0.666723
N85	N	0.272171	0.063946	0.000050
N86	N	0.605504	0.397279	0.333384
N87	N	0.938837	0.730612	0.666717
C88	C	0.240872	0.107769	0.000043
C89	C	0.574205	0.441102	0.333377
C90	C	0.907538	0.774436	0.666710
C91	C	-0.205712	0.014943	0.000070
C92	C	0.127621	0.348277	0.333403
C93	C	0.460955	0.681610	0.666737
C94	C	-0.256126	0.014430	0.000069
C95	C	0.077207	0.347764	0.333403
C96	C	0.410540	0.681097	0.666736
C97	C	-0.268310	0.102594	0.000056
C98	C	0.065023	0.435927	0.333389
C99	C	0.398356	0.769260	0.666722
C100	C	-0.217895	0.103106	0.000052
C101	C	0.115438	0.436440	0.333386
C102	C	0.448772	0.769773	0.666719
C103	C	-0.186597	0.059280	0.000064
C104	C	0.146737	0.392613	0.333397
C105	C	0.480070	0.725946	0.666730
C106	C	0.346741	0.108842	0.000034
C107	C	0.680074	0.442175	0.333368
C108	C	1.013407	0.775508	0.666701
C109	C	0.397158	0.109350	0.000028
C110	C	0.730491	0.442683	0.333362
C111	C	1.063824	0.776017	0.666695
C112	C	0.409337	0.021187	0.000045
C113	C	0.742670	0.354520	0.333378
C114	C	1.076004	0.687854	0.666711
C115	C	0.358925	0.020678	0.000048
C116	C	0.692258	0.354012	0.333382
C117	C	1.025591	0.687345	0.666715
C118	C	0.327627	0.064510	0.000045
C119	C	0.660961	0.397843	0.333378
C120	C	0.994294	0.731176	0.666711
O121	O	0.284346	-0.017592	0.000046
O122	O	0.617679	0.315741	0.333380
O123	O	0.951013	0.649074	0.666713
O124	O	0.261767	0.145521	0.000044
O125	O	0.595101	0.478855	0.333377
O126	O	0.928434	0.812188	0.666710
C127	C	0.039222	0.105719	0.000055
C128	C	0.372555	0.439053	0.333388
C129	C	0.705889	0.772386	0.666721
C130	C	0.020109	0.061384	0.000066
C131	C	0.353442	0.394717	0.333399
C132	C	0.686776	0.728050	0.666732
C133	C	0.051408	0.017560	0.000073
C134	C	0.384741	0.350894	0.333406
C135	C	0.718074	0.684227	0.666739
C136	C	-0.030305	0.060871	0.000065
C137	C	0.303028	0.394204	0.333398
C138	C	0.636361	0.727537	0.666732
C139	C	-0.061604	0.104694	0.000058
C140	C	0.271729	0.438027	0.333391
C141	C	0.605062	0.771361	0.666725
C142	C	-0.042489	0.149030	0.000052
C143	C	0.290844	0.482364	0.333385
C144	C	0.624178	0.815697	0.666718
C145	C	0.007923	0.149543	0.000048
C146	C	0.341256	0.482876	0.333381
C147	C	0.674590	0.816209	0.666714
C148	C	0.032292	-0.026776	0.000079
C149	C	0.365626	0.306557	0.333412
C150	C	0.698959	0.639891	0.666746
C151	C	-0.018120	-0.027285	0.000082
C152	C	0.315213	0.306049	0.333416
C153	C	0.648547	0.639382	0.666749
C154	C	-0.049419	0.016539	0.000075
C155	C	0.283914	0.349872	0.333409
C156	C	0.617248	0.683205	0.666742
C157	C	0.574721	-0.026516	0.000064
C158	C	0.908055	0.306818	0.333398
C159	C	1.241388	0.640151	0.666731
C160	C	0.574179	-0.080172	0.000069
C161	C	0.907512	0.253161	0.333403
C162	C	1.240845	0.586495	0.666736
C163	C	0.570772	-0.412895	-0.046212
C164	C	0.904105	-0.079561	0.287121
C165	C	1.237438	0.253772	0.620455
C166	C	0.568711	-0.614553	-0.046221
C167	C	0.902044	-0.281220	0.287112
C168	C	1.235377	0.052114	0.620445
O169	O	0.568430	-0.640629	-0.085561
O170	O	0.901763	-0.307296	0.247773
O171	O	1.235097	0.026038	0.581106
N172	N	0.568447	-0.639764	0.000034
N173	N	0.901780	-0.306430	0.333368
N174	N	1.235114	0.026903	0.666701
C175	C	0.568695	-0.614556	0.046296
C176	C	0.902028	-0.281223	0.379629
C177	C	1.235362	0.052110	0.712962
O178	O	0.568418	-0.640626	0.085639
O179	O	0.901752	-0.307293	0.418972
O180	O	1.235085	0.026041	0.752305
C181	C	0.570753	-0.412899	0.046304
C182	C	0.904086	-0.079565	0.379638
C183	C	1.237419	0.253768	0.712971
C184	C	0.571021	-0.387691	0.000046
C185	C	0.904355	-0.054358	0.333379
C186	C	1.237688	0.278976	0.666712
C187	C	0.571040	-0.387687	-0.092467
C188	C	0.904373	-0.054354	0.240866
C189	C	1.237707	0.278980	0.574200
C190	C	0.571558	-0.337276	-0.092464
C191	C	0.904891	-0.003943	0.240869
C192	C	1.238224	0.329391	0.574203
C193	C	0.571807	-0.312072	-0.046206
C194	C	0.905141	0.021261	0.287127
C195	C	1.238474	0.354594	0.620460
C196	C	0.571539	-0.337280	0.000048
C197	C	0.904873	-0.003947	0.333382
C198	C	1.238206	0.329387	0.666715
C199	C	0.570997	-0.387692	0.092565
C200	C	0.904331	-0.054358	0.425898
C201	C	1.237664	0.278975	0.759232
C202	C	0.571511	-0.337274	0.092563
C203	C	0.904844	-0.003941	0.425897
C204	C	1.238177	0.329393	0.759230
C205	C	0.571779	-0.312066	0.046304
C206	C	0.905113	0.021267	0.379638
C207	C	1.238446	0.354600	0.712971
C208	C	0.572307	-0.261665	0.046309
C209	C	0.905640	0.071668	0.379642
C210	C	1.238973	0.405002	0.712976
N211	N	0.572571	-0.236454	0.000053
N212	N	0.905904	0.096879	0.333387
N213	N	1.239237	0.430212	0.666720
C214	C	0.572321	-0.261658	-0.046204
C215	C	0.905654	0.071675	0.287129
C216	C	1.238988	0.405009	0.620462
C217	C	0.567616	-0.720430	0.046288
C218	C	0.900949	-0.387096	0.379621
C219	C	1.234282	-0.053763	0.712955
C220	C	0.567102	-0.770844	0.046286
C221	C	0.900436	-0.437511	0.379619
C222	C	1.233769	-0.104177	0.712953
C223	C	0.567117	-0.770837	-0.046231
C224	C	0.900450	-0.437504	0.287102
C225	C	1.233784	-0.104170	0.620435
C226	C	0.567634	-0.720422	-0.046229
C227	C	0.900967	-0.387089	0.287105
C228	C	1.234301	-0.053756	0.620438
C229	C	0.567880	-0.695219	0.000032
C230	C	0.901213	-0.361886	0.333366
C231	C	1.234546	-0.028552	0.666699
C232	C	0.573409	-0.155791	-0.046195
C233	C	0.906742	0.177542	0.287138
C234	C	1.240076	0.510876	0.620472
C235	C	0.573929	-0.105376	-0.046188
C236	C	0.907262	0.227958	0.287145
C237	C	1.240596	0.561291	0.620478
C238	C	0.573912	-0.105387	0.046329
C239	C	0.907245	0.227947	0.379662
C240	C	1.240578	0.561280	0.712995
C241	C	0.573394	-0.155798	0.046322
C242	C	0.906728	0.177535	0.379655
C243	C	1.240061	0.510869	0.712989
C244	C	0.573141	-0.180999	0.000056
C245	C	0.906475	0.152335	0.333389
C246	C	1.239808	0.485668	0.666723
O247	O	0.572582	-0.235557	0.085628
O248	O	0.905916	0.097776	0.418961
O249	O	1.239249	0.431109	0.752294
O250	O	0.572587	-0.235578	-0.085542
O251	O	0.905920	0.097755	0.247792
O252	O	1.239254	0.431089	0.581125
C253	C	0.570254	-0.463306	-0.046215
C254	C	0.903587	-0.129972	0.287119
C255	C	1.236921	0.203361	0.620452
C256	C	0.569986	-0.488513	0.000040
C257	C	0.903319	-0.155180	0.333374
C258	C	1.236652	0.178153	0.666707
C259	C	0.570235	-0.463310	0.046298
C260	C	0.903569	-0.129976	0.379631
C261	C	1.236902	0.203357	0.712965
C262	C	0.569472	-0.538928	0.000038
C263	C	0.902805	-0.205594	0.333371
C264	C	1.236139	0.127739	0.666705
C265	C	0.569222	-0.564131	-0.046220
C266	C	0.902556	-0.230798	0.287114
C267	C	1.235889	0.102535	0.620447
C268	C	0.569486	-0.538921	-0.092475
C269	C	0.902820	-0.205587	0.240858
C270	C	1.236153	0.127746	0.574191
C271	C	0.570004	-0.488509	-0.092472
C272	C	0.903337	-0.155176	0.240861
C273	C	1.236671	0.178157	0.574194
C274	C	0.569971	-0.488521	0.092554
C275	C	0.903305	-0.155187	0.425887
C276	C	1.236638	0.178146	0.759220
C277	C	0.569454	-0.538932	0.092547
C278	C	0.902787	-0.205599	0.425880
C279	C	1.236121	0.127735	0.759214
C280	C	0.569204	-0.564135	0.046289
C281	C	0.902538	-0.230802	0.379623
C282	C	1.235871	0.102531	0.712956
C283	C	0.658920	0.057701	0.000060
C284	C	0.992253	0.391034	0.333393
C285	C	1.325587	0.724368	0.666727
C286	C	0.712575	0.058254	0.000062
C287	C	1.045908	0.391587	0.333396
C288	C	1.379241	0.724920	0.666729
C289	C	0.566310	0.150296	0.000037
C290	C	0.899643	0.483629	0.333370
C291	C	1.232977	0.816963	0.666703
C292	C	0.566853	0.203952	0.000028
C293	C	0.900186	0.537286	0.333362
C294	C	1.233519	0.870619	0.666695
N295	N	0.570499	0.061906	0.120812
N296	N	0.903832	0.395240	0.454146
N297	N	1.237165	0.728573	0.787479
N298	N	0.570536	0.061870	-0.120710
N299	N	0.903870	0.395203	0.212623
N300	N	1.237203	0.728537	0.545957
C301	C	0.603635	0.028782	0.473335
C302	C	0.936968	0.362115	0.806668
C303	C	1.270302	0.695449	1.140002
C304	C	0.603646	0.028775	0.686994
C305	C	0.936979	0.362109	1.020327
C306	C	1.270312	0.695442	1.353660
O307	O	0.631801	0.000614	0.714623
O308	O	0.965134	0.333947	1.047956
O309	O	1.298467	0.667280	1.381290
N310	N	0.570527	0.061873	0.713706
N311	N	0.903860	0.395206	1.047039
N312	N	1.237193	0.728539	1.380373
C313	C	0.537401	0.094972	0.687001
C314	C	0.870734	0.428305	1.020334
C315	C	1.204068	0.761639	1.353667
O316	O	0.509228	0.123120	0.714624
O317	O	0.842562	0.456453	1.047957
O318	O	1.175895	0.789787	1.381291
C319	C	0.537388	0.094976	0.473343
C320	C	0.870722	0.428310	0.806676
C321	C	1.204055	0.761643	1.140010
C322	C	0.570512	0.061880	0.446633
C323	C	0.903846	0.395213	0.779967
C324	C	1.237179	0.728546	1.113300
C325	C	0.636756	-0.004312	0.446625
C326	C	0.970089	0.329021	0.779959
C327	C	1.303423	0.662355	1.113292
C328	C	0.636755	-0.004308	0.393214
C329	C	0.970088	0.329025	0.726547
C330	C	1.303421	0.662358	1.059880
C331	C	0.603632	0.028790	0.366512
C332	C	0.936966	0.362123	0.699845
C333	C	1.270299	0.695456	1.033179
C334	C	0.570511	0.061884	0.393222
C335	C	0.903845	0.395217	0.726555
C336	C	1.237178	0.728550	1.059889
C337	C	0.504260	0.128073	0.446639
C338	C	0.837594	0.461406	0.779972
C339	C	1.170927	0.794740	1.113305
C340	C	0.504259	0.128070	0.393221
C341	C	0.837593	0.461404	0.726554
C342	C	1.170926	0.794737	1.059888
C343	C	0.537384	0.094974	0.366511
C344	C	0.870717	0.428307	0.699845
C345	C	1.204050	0.761640	1.033178
C346	C	0.537388	0.094985	0.313109
C347	C	0.870721	0.428319	0.646442
C348	C	1.204054	0.761652	0.979776
N349	N	0.570506	0.061888	0.286396
N350	N	0.903840	0.395221	0.619730
N351	N	1.237173	0.728554	0.953063
C352	C	0.603629	0.028790	0.313098
C353	C	0.936962	0.362123	0.646431
C354	C	1.270295	0.695457	0.979765
C355	C	0.537410	0.094968	0.799174
C356	C	0.870744	0.428302	1.132507
C357	C	1.204077	0.761635	1.465841
C358	C	0.537414	0.094968	0.852588
C359	C	0.870747	0.428301	1.185922
C360	C	1.204081	0.761635	1.519255
C361	C	0.603658	0.028770	0.852577
C362	C	0.936992	0.362104	1.185911
C363	C	1.270325	0.695437	1.519244
C364	C	0.603657	0.028773	0.799162
C365	C	0.936990	0.362107	1.132496
C366	C	1.270323	0.695440	1.465829
C367	C	0.570529	0.061871	0.772462
C368	C	0.903863	0.395204	1.105795
C369	C	1.237196	0.728537	1.439128
C370	C	0.603624	0.028801	0.200930
C371	C	0.936957	0.362134	0.534263
C372	C	1.270291	0.695467	0.867597
C373	C	0.603621	0.028809	0.147514
C374	C	0.936954	0.362142	0.480847
C375	C	1.270288	0.695475	0.814181
C376	C	0.537375	0.095004	0.147529
C377	C	0.870709	0.428338	0.480863
C378	C	1.204042	0.761671	0.814196
C379	C	0.537380	0.094998	0.200941
C380	C	0.870713	0.428332	0.534274
C381	C	1.204046	0.761665	0.867608
C382	C	0.570506	0.061892	0.227640
C383	C	0.903839	0.395226	0.560973
C384	C	1.237172	0.728559	0.894307
O385	O	0.509244	0.123128	0.285447
O386	O	0.842577	0.456462	0.618780
O387	O	1.175910	0.789795	0.952113
O388	O	0.631790	0.000639	0.285466
O389	O	0.965123	0.333972	0.618799
O390	O	1.298457	0.667306	0.952132
C391	C	0.603636	0.028778	0.526746
C392	C	0.936969	0.362112	0.860080
C393	C	1.270303	0.695445	1.193413
C394	C	0.570515	0.061872	0.553456
C395	C	0.903848	0.395206	0.886790
C396	C	1.237182	0.728539	1.220123
C397	C	0.537393	0.094970	0.526755
C398	C	0.870726	0.428303	0.860088
C399	C	1.204059	0.761637	1.193421
C400	C	0.570519	0.061872	0.606870
C401	C	0.903852	0.395205	0.940204
C402	C	1.237185	0.728539	1.273537
C403	C	0.603641	0.028774	0.633572
C404	C	0.936974	0.362107	0.966905
C405	C	1.270308	0.695441	1.300239
C406	C	0.636760	-0.004323	0.606860
C407	C	0.970093	0.329010	0.940193
C408	C	1.303426	0.662343	1.273526
C409	C	0.636758	-0.004320	0.553448
C410	C	0.970092	0.329014	0.886781
C411	C	1.303425	0.662347	1.220115
C412	C	0.504274	0.128068	0.553467
C413	C	0.837607	0.461401	0.886801
C414	C	1.170941	0.794734	1.220134
C415	C	0.504278	0.128061	0.606879
C416	C	0.837612	0.461395	0.940212
C417	C	1.170945	0.794728	1.273545
C418	C	0.537401	0.094964	0.633580
C419	C	0.870734	0.428297	0.966914
C420	C	1.204067	0.761630	1.300247
H421	H	-0.180232	-0.020747	0.000079
H422	H	0.153101	0.312586	0.333412
H423	H	0.486434	0.645919	0.666746
Br424	Br	0.304273	0.168327	0.000030
Br425	Br	0.637607	0.501661	0.333364
Br426	Br	0.970940	0.834994	0.666697
Br427	Br	0.681715	-0.049238	0.517207
Br428	Br	1.015048	0.284095	0.850540
Br429	Br	1.348382	0.617429	1.183873
H430	H	0.117570	-0.061863	0.000091
H431	H	0.450903	0.271470	0.333424
H432	H	0.784237	0.604804	0.666758
H433	H	0.567818	-0.699914	0.083961
H434	H	0.901152	-0.366581	0.417295
H435	H	1.234485	-0.033247	0.750628
H436	H	0.510412	0.121953	0.222688
H437	H	0.843745	0.455286	0.556022
H438	H	1.177078	0.788620	0.889355
Br439	Br	0.570631	-0.421889	0.155349
Br440	Br	0.903964	-0.088555	0.488682
Br441	Br	1.237298	0.244778	0.822016
H442	H	0.569239	-0.559452	0.130219
H443	H	0.902572	-0.226119	0.463553
H444	H	1.235906	0.107215	0.796886
Br445	Br	0.648612	-0.016145	0.762919
Br446	Br	0.981946	0.317189	1.096253
Br447	Br	1.315279	0.650522	1.429586
H448	H	0.566891	-0.791365	0.083954
H449	H	0.900224	-0.458031	0.417288
H450	H	1.233557	-0.124698	0.750621
Br451	Br	0.571843	-0.303072	0.155350
Br452	Br	0.905176	0.030261	0.488683
Br453	Br	1.238510	0.363594	0.822016
H454	H	0.570176	-0.468005	0.130223
H455	H	0.903509	-0.134672	0.463556
H456	H	1.236842	0.198662	0.796890
H457	H	0.510446	0.121923	0.874332
H458	H	0.843780	0.455256	1.207665
H459	H	1.177113	0.788590	1.540998
Br460	Br	0.573041	-0.190011	0.109102
Br461	Br	0.906374	0.143322	0.442435
Br462	Br	1.239707	0.476656	0.775769
Br463	Br	0.648610	-0.016148	0.888826
Br464	Br	0.981943	0.317186	1.222160
Br465	Br	1.315276	0.650519	1.555493
Br466	Br	0.226013	-0.084723	0.000100
Br467	Br	0.559347	0.248611	0.333433
Br468	Br	0.892680	0.581944	0.666767
Br469	Br	0.492426	0.139923	0.111283
Br470	Br	0.825760	0.473256	0.444616
Br471	Br	1.159093	0.806589	0.777950
Br472	Br	0.681714	-0.049239	0.643108
Br473	Br	1.015047	0.284094	0.976441
Br474	Br	1.348380	0.617427	1.309775
H475	H	0.477305	0.155017	0.628622
H476	H	0.810639	0.488350	0.961956
H477	H	1.143972	0.821683	1.295289
H478	H	0.477301	0.155019	0.531731
H479	H	0.810634	0.488353	0.865064
H480	H	1.143968	0.821686	1.198398
Br481	Br	0.185089	0.211257	0.000022
Br482	Br	0.518422	0.544591	0.333356
Br483	Br	0.851755	0.877924	0.666689
H484	H	0.412716	0.145458	0.000019
H485	H	0.746049	0.478791	0.333352
H486	H	1.079382	0.812125	0.666685
Br487	Br	0.570701	-0.421882	-0.155254
Br488	Br	0.904034	-0.088549	0.178079
Br489	Br	1.237367	0.244784	0.511413
H490	H	0.663728	-0.031267	0.468361
H491	H	0.997062	0.302067	0.801694
H492	H	1.330395	0.635400	1.135028
Br493	Br	0.648581	-0.016130	0.237156
Br494	Br	0.981914	0.317204	0.570489
Br495	Br	1.315248	0.650537	0.903822
Br496	Br	0.459304	0.172991	0.482877
Br497	Br	0.792637	0.506325	0.816210
Br498	Br	1.125971	0.839658	1.149543
H499	H	0.510433	0.121921	0.777438
H500	H	0.843767	0.455255	1.110771
H501	H	1.177100	0.788588	1.444105
H502	H	0.343363	-0.015426	0.000050
H503	H	0.676696	0.317907	0.333384
H504	H	1.010029	0.651240	0.666717
H505	H	0.574117	-0.084857	0.083990
H506	H	0.907450	0.248476	0.417324
H507	H	1.240784	0.581810	0.750657
H508	H	0.570223	-0.467990	-0.130141
H509	H	0.903556	-0.134657	0.203192
H510	H	1.236889	0.198677	0.536526
H511	H	0.569285	-0.559450	-0.130140
H512	H	0.902619	-0.226117	0.203193
H513	H	1.235952	0.107216	0.536527
Br514	Br	0.459296	0.172989	0.356988
Br515	Br	0.792629	0.506323	0.690321
Br516	Br	1.125963	0.839656	1.023655
Br517	Br	0.648580	-0.016109	0.111267
Br518	Br	0.981913	0.317225	0.444601
Br519	Br	1.315247	0.650558	0.777934
H520	H	0.083267	0.186255	0.000036
H521	H	0.416601	0.519589	0.333369
H522	H	0.749934	0.852922	0.666703
Br523	Br	0.451823	-0.038285	0.000055
Br524	Br	0.785157	0.295049	0.333389
Br525	Br	1.118490	0.628382	0.666722
H526	H	-0.202337	0.139211	0.000046
H527	H	0.130996	0.472544	0.333379
H528	H	0.464329	0.805878	0.666713
Br529	Br	0.574297	-0.071169	-0.108972
Br530	Br	0.907630	0.262165	0.224361
Br531	Br	1.240963	0.595498	0.557695
Br532	Br	0.681708	-0.049229	0.356971
Br533	Br	1.015041	0.284105	0.690304
Br534	Br	1.348375	0.617438	1.023637
Br535	Br	-0.282058	-0.045747	0.000070
Br536	Br	0.051275	0.287587	0.333403
Br537	Br	0.384609	0.620920	0.666736
Br538	Br	-0.310797	0.162068	0.000047
Br539	Br	0.022537	0.495401	0.333380
Br540	Br	0.355870	0.828735	0.666713
Br541	Br	0.033853	0.209720	0.000031
Br542	Br	0.367186	0.543054	0.333364
Br543	Br	0.700520	0.876387	0.666698
H544	H	-0.067981	0.184713	0.000044
H545	H	0.265352	0.518046	0.333377
H546	H	0.598685	0.851379	0.666711
H547	H	0.057772	-0.062463	0.000086
H548	H	0.391105	0.270870	0.333419
H549	H	0.724438	0.604203	0.666753
Br550	Br	-0.044051	-0.087465	0.000089
Br551	Br	0.289282	0.245868	0.333423
Br552	Br	0.622615	0.579201	0.666756
H553	H	0.573201	-0.176303	-0.083869
H554	H	0.906534	0.157030	0.249464
H555	H	1.239867	0.490364	0.582797
H556	H	0.571775	-0.316756	-0.130133
H557	H	0.905108	0.016577	0.203201
H558	H	1.238441	0.349911	0.536534
H559	H	0.567852	-0.699901	-0.083897
H560	H	0.901185	-0.366568	0.249437
H561	H	1.234519	-0.033235	0.582770
H562	H	0.566914	-0.791366	-0.083896
H563	H	0.900248	-0.458033	0.249437
H564	H	1.233581	-0.124700	0.582771
