data_functionalizedCrystal
_audit_creation_method	'MofGen! by Chris Wilmer'
_symmetry_space_group_name_H-M	'P1'
_symmetry_Int_Tables_number	1
_symmetry_cell_setting	triclinic
loop_
_symmetry_equiv_pos_as_xyz
  x,y,z
_cell_length_a	25.639239
_cell_length_b	19.805407
_cell_length_c	19.805399
_cell_angle_alpha	90.021064
_cell_angle_beta	89.971274
_cell_angle_gamma	89.962329
loop_
_atom_site_label
_atom_site_type_symbol
_atom_site_fract_x
_atom_site_fract_y
_atom_site_fract_z
Zn1	Zn	-0.208177	-1.034678	-0.382741
Zn2	Zn	0.125156	-0.701345	-0.049408
Zn3	Zn	0.458490	-0.368011	0.283926
Zn4	Zn	-0.295611	-1.034569	-0.269551
Zn5	Zn	0.037722	-0.701235	0.063783
Zn6	Zn	0.371056	-0.367902	0.397116
Zn7	Zn	-0.208190	-0.921493	-0.269563
Zn8	Zn	0.125143	-0.588159	0.063771
Zn9	Zn	0.458477	-0.254826	0.397104
Zn10	Zn	-0.295582	-0.921432	-0.382694
Zn11	Zn	0.037752	-0.588099	-0.049361
Zn12	Zn	0.371085	-0.254765	0.283972
O13	O	-0.251890	-0.978043	-0.326137
O14	O	0.081443	-0.644709	0.007196
O15	O	0.414777	-0.311376	0.340529
O16	O	-0.219782	-1.129380	-0.367741
O17	O	0.113551	-0.796047	-0.034407
O18	O	0.446884	-0.462713	0.298926
O19	O	-0.284032	-1.019548	-0.174836
O20	O	0.049301	-0.686215	0.158498
O21	O	0.382635	-0.352882	0.491831
O22	O	-0.135023	-0.936578	-0.284601
O23	O	0.198310	-0.603245	0.048733
O24	O	0.531644	-0.269911	0.382066
O25	O	-0.284020	-1.129300	-0.284580
O26	O	0.049314	-0.795966	0.048753
O27	O	0.382647	-0.462633	0.382087
O28	O	-0.135014	-1.019735	-0.367752
O29	O	0.198320	-0.686402	-0.034419
O30	O	0.531653	-0.353068	0.298914
O31	O	-0.219804	-0.936472	-0.174845
O32	O	0.113529	-0.603139	0.158489
O33	O	0.446862	-0.269805	0.491822
O34	O	-0.219776	-0.826768	-0.284555
O35	O	0.113558	-0.493435	0.048778
O36	O	0.446891	-0.160101	0.382111
O37	O	-0.283970	-0.936475	-0.477417
O38	O	0.049364	-0.603141	-0.144084
O39	O	0.382697	-0.269808	0.189249
O40	O	-0.283982	-0.826723	-0.367673
O41	O	0.049351	-0.493390	-0.034339
O42	O	0.382685	-0.160057	0.298994
O43	O	-0.219754	-1.019676	-0.477452
O44	O	0.113580	-0.686343	-0.144118
O45	O	0.446913	-0.353009	0.189215
O46	O	-0.368772	-1.019489	-0.284535
O47	O	-0.035439	-0.686156	0.048799
O48	O	0.297894	-0.352823	0.382132
O49	O	-0.368751	-0.936368	-0.367661
O50	O	-0.035418	-0.603035	-0.034328
O51	O	0.297916	-0.269702	0.299006
C52	C	-0.251878	-0.802187	-0.326111
C53	C	0.081456	-0.468853	0.007223
C54	C	0.414789	-0.135520	0.340556
C55	C	-0.251885	-0.726955	-0.326116
C56	C	0.081449	-0.393621	0.007218
C57	C	0.414782	-0.060288	0.340551
C58	C	-0.285367	-0.691605	-0.369324
C59	C	0.047966	-0.358272	-0.035990
C60	C	0.381300	-0.024938	0.297343
C61	C	-0.285367	-0.620917	-0.369331
C62	C	0.047966	-0.287583	-0.035998
C63	C	0.381300	0.045750	0.297335
C64	C	-0.251887	-0.585579	-0.326127
C65	C	0.081446	-0.252246	0.007206
C66	C	0.414780	0.081088	0.340540
C67	C	-0.218401	-0.620934	-0.282917
C68	C	0.114932	-0.287600	0.050416
C69	C	0.448265	0.045733	0.383750
C70	C	-0.218399	-0.691621	-0.282913
C71	C	0.114934	-0.358288	0.050420
C72	C	0.448268	-0.024954	0.383754
C73	C	-0.218409	-0.335860	-0.282932
C74	C	0.114925	-0.002527	0.050401
C75	C	0.448258	0.330806	0.383735
C76	C	-0.218415	-0.265168	-0.282938
C77	C	0.114919	0.068165	0.050396
C78	C	0.448252	0.401498	0.383729
C79	C	-0.285377	-0.265156	-0.369350
C80	C	0.047957	0.068177	-0.036017
C81	C	0.381290	0.401511	0.297316
C82	C	-0.285375	-0.335843	-0.369346
C83	C	0.047959	-0.002510	-0.036013
C84	C	0.381292	0.330823	0.297320
C85	C	-0.251887	-0.371192	-0.326139
C86	C	0.081446	-0.037858	0.007194
C87	C	0.414780	0.295475	0.340528
C88	C	-0.251887	-0.447840	-0.326132
C89	C	0.081447	-0.114507	0.007201
C90	C	0.414780	0.218826	0.340534
C91	C	-0.251889	-0.508932	-0.326130
C92	C	0.081444	-0.175599	0.007203
C93	C	0.414777	0.157735	0.340537
C94	C	-0.387733	-0.977929	-0.326106
C95	C	-0.054399	-0.644596	0.007227
C96	C	0.278934	-0.311262	0.340560
C97	C	-0.445847	-0.977942	-0.326116
C98	C	-0.112513	-0.644609	0.007218
C99	C	0.220820	-0.311275	0.340551
C100	C	-0.806208	-1.021437	-0.282927
C101	C	-0.472875	-0.688103	0.050406
C102	C	-0.139542	-0.354770	0.383739
C103	C	-0.860813	-1.021463	-0.282936
C104	C	-0.527479	-0.688130	0.050397
C105	C	-0.194146	-0.354796	0.383730
O106	O	-0.889048	-1.058326	-0.246182
O107	O	-0.555715	-0.724992	0.087151
O108	O	-0.222381	-0.391659	0.420485
N109	N	-0.888129	-0.978162	-0.326182
N110	N	-0.554796	-0.644828	0.007151
N111	N	-0.221462	-0.311495	0.340485
C112	C	-0.860838	-0.934836	-0.369427
C113	C	-0.527505	-0.601503	-0.036093
C114	C	-0.194172	-0.268169	0.297240
O115	O	-0.889087	-0.898008	-0.406212
O116	O	-0.555754	-0.564675	-0.072879
O117	O	-0.222420	-0.231341	0.260455
C118	C	-0.806235	-0.934814	-0.369420
C119	C	-0.472902	-0.601480	-0.036087
C120	C	-0.139568	-0.268147	0.297246
C121	C	-0.778921	-0.978113	-0.326167
C122	C	-0.445588	-0.644780	0.007166
C123	C	-0.112255	-0.311446	0.340500
C124	C	-0.778895	-1.064733	-0.239678
C125	C	-0.445561	-0.731400	0.093656
C126	C	-0.112228	-0.398066	0.426989
C127	C	-0.724294	-1.064706	-0.239668
C128	C	-0.390961	-0.731372	0.093665
C129	C	-0.057627	-0.398039	0.426999
C130	C	-0.697007	-1.021382	-0.282908
C131	C	-0.363674	-0.688049	0.050426
C132	C	-0.030341	-0.354716	0.383759
C133	C	-0.724321	-0.978086	-0.326157
C134	C	-0.390987	-0.644753	0.007176
C135	C	-0.057654	-0.311419	0.340510
C136	C	-0.778945	-0.891492	-0.412668
C137	C	-0.445612	-0.558159	-0.079335
C138	C	-0.112279	-0.224826	0.253999
C139	C	-0.724338	-0.891474	-0.412658
C140	C	-0.391005	-0.558141	-0.079325
C141	C	-0.057672	-0.224807	0.254008
C142	C	-0.697025	-0.934773	-0.369405
C143	C	-0.363691	-0.601440	-0.036071
C144	C	-0.030358	-0.268107	0.297262
C145	C	-0.642433	-0.934735	-0.369387
C146	C	-0.309100	-0.601402	-0.036054
C147	C	0.024233	-0.268068	0.297280
N148	N	-0.615117	-0.978036	-0.326141
N149	N	-0.281784	-0.644703	0.007192
N150	N	0.051550	-0.311370	0.340525
C151	C	-0.642404	-1.021360	-0.282901
C152	C	-0.309071	-0.688027	0.050432
C153	C	0.024263	-0.354693	0.383765
C154	C	-0.975509	-0.934887	-0.369437
C155	C	-0.642176	-0.601554	-0.036104
C156	C	-0.308842	-0.268220	0.297230
C157	C	-1.030111	-0.934906	-0.369440
C158	C	-0.696778	-0.601572	-0.036107
C159	C	-0.363445	-0.268239	0.297226
C160	C	-1.030082	-1.021533	-0.282951
C161	C	-0.696748	-0.688200	0.050383
C162	C	-0.363415	-0.354867	0.383716
C163	C	-0.975478	-1.021511	-0.282944
C164	C	-0.642145	-0.688178	0.050389
C165	C	-0.308812	-0.354844	0.383722
C166	C	-0.948192	-0.978188	-0.326191
C167	C	-0.614859	-0.644855	0.007142
C168	C	-0.281526	-0.311522	0.340475
C169	C	-0.527739	-1.021299	-0.282884
C170	C	-0.194405	-0.687966	0.050450
C171	C	0.138928	-0.354632	0.383783
C172	C	-0.473133	-1.021266	-0.282876
C173	C	-0.139800	-0.687932	0.050457
C174	C	0.193533	-0.354599	0.383791
C175	C	-0.473168	-0.934641	-0.369368
C176	C	-0.139834	-0.601307	-0.036034
C177	C	0.193499	-0.267974	0.297299
C178	C	-0.527768	-0.934671	-0.369373
C179	C	-0.194435	-0.601338	-0.036040
C180	C	0.138898	-0.268004	0.297293
C181	C	-0.555053	-0.978006	-0.326129
C182	C	-0.221719	-0.644672	0.007204
C183	C	0.111614	-0.311339	0.340537
O184	O	-0.614163	-0.897893	-0.406125
O185	O	-0.280830	-0.564560	-0.072791
O186	O	0.052503	-0.231226	0.260542
O187	O	-0.614148	-1.058188	-0.246129
O188	O	-0.280815	-0.724855	0.087205
O189	O	0.052518	-0.391522	0.420538
C190	C	-0.115517	-0.978175	-0.326183
C191	C	0.217816	-0.644842	0.007150
C192	C	0.551150	-0.311509	0.340483
C193	C	-0.057403	-0.978232	-0.326203
C194	C	0.275930	-0.644899	0.007131
C195	C	0.609264	-0.311565	0.340464
C196	C	-0.251857	-0.978081	-0.502680
C197	C	0.081476	-0.644747	-0.169347
C198	C	0.414810	-0.311414	0.163987
C199	C	-0.251843	-0.978097	-0.577912
C200	C	0.081490	-0.644764	-0.244579
C201	C	0.414824	-0.311430	0.088755
C202	C	-0.251899	-0.154585	-0.326158
C203	C	0.081434	0.178748	0.007176
C204	C	0.414767	0.512081	0.340509
C205	C	-0.251895	-0.229817	-0.326150
C206	C	0.081439	0.103516	0.007184
C207	C	0.414772	0.436849	0.340517
C208	C	-0.218404	-1.021421	-0.613275
C209	C	0.114929	-0.688087	-0.279942
C210	C	0.448263	-0.354754	0.053391
C211	C	-0.218389	-1.021428	-0.683964
C212	C	0.114944	-0.688094	-0.350630
C213	C	0.448278	-0.354761	-0.017297
C214	C	-0.251816	-0.978114	-0.719288
C215	C	0.081518	-0.644780	-0.385954
C216	C	0.414851	-0.311447	-0.052621
C217	C	-0.285256	-0.934785	-0.683920
C218	C	0.048077	-0.601452	-0.350586
C219	C	0.381411	-0.268118	-0.017253
C220	C	-0.285268	-0.934775	-0.613232
C221	C	0.048065	-0.601442	-0.279899
C222	C	0.381399	-0.268108	0.053434
C223	C	-0.285207	-0.934823	-0.968993
C224	C	0.048126	-0.601490	-0.635660
C225	C	0.381459	-0.268157	-0.302326
C226	C	-0.285194	-0.934838	-1.039685
C227	C	0.048140	-0.601504	-0.706352
C228	C	0.381473	-0.268171	-0.373019
C229	C	-0.218328	-1.021476	-1.039724
C230	C	0.115005	-0.688143	-0.706391
C231	C	0.448339	-0.354809	-0.373058
C232	C	-0.218340	-1.021466	-0.969037
C233	C	0.114993	-0.688133	-0.635704
C234	C	0.448326	-0.354799	-0.302370
C235	C	-0.251778	-0.978135	-0.933675
C236	C	0.081555	-0.644802	-0.600342
C237	C	0.414888	-0.311468	-0.267009
C238	C	-0.251794	-0.978127	-0.857027
C239	C	0.081540	-0.644794	-0.523693
C240	C	0.414873	-0.311460	-0.190360
C241	C	-0.251803	-0.978125	-0.795935
C242	C	0.081530	-0.644791	-0.462602
C243	C	0.414863	-0.311458	-0.129268
C244	C	-0.251885	-0.978044	-0.150281
C245	C	0.081448	-0.644711	0.183052
C246	C	0.414782	-0.311377	0.516385
C247	C	-0.251752	-0.978159	-0.075050
C248	C	0.081582	-0.644826	0.258284
C249	C	0.414915	-0.311492	0.591617
H250	H	-0.312642	-0.236367	-0.404534
H251	H	0.020691	0.096966	-0.071201
H252	H	0.354025	0.430300	0.262132
N253	N	-0.319403	-0.890537	-0.719993
N254	N	0.013930	-0.557204	-0.386660
N255	N	0.347264	-0.223870	-0.053326
N256	N	-0.367650	-0.894966	-0.712081
N257	N	-0.034317	-0.561632	-0.378747
N258	N	0.299016	-0.228299	-0.045414
H259	H	-0.391767	-0.863711	-0.737554
H260	H	-0.058434	-0.530378	-0.404221
H261	H	0.274900	-0.197045	-0.070887
H262	H	-0.550008	-0.899415	-0.404596
H263	H	-0.216675	-0.566082	-0.071263
H264	H	0.116658	-0.232749	0.262071
N265	N	-0.184188	-1.065709	-0.932967
N266	N	0.149146	-0.732376	-0.599634
N267	N	0.482479	-0.399043	-0.266300
N268	N	-0.135941	-1.061265	-0.940881
N269	N	0.197392	-0.727932	-0.607548
N270	N	0.530725	-0.394599	-0.274215
H271	H	-0.111818	-1.092512	-0.915408
H272	H	0.221515	-0.759179	-0.582075
H273	H	0.554849	-0.425845	-0.248742
N274	N	-0.555596	-1.065566	-0.238706
N275	N	-0.222262	-0.732233	0.094627
N276	N	0.111071	-0.398900	0.427960
N277	N	-0.531193	-1.104215	-0.200095
N278	N	-0.197860	-0.770882	0.133238
N279	N	0.135474	-0.437548	0.466572
H280	H	-0.550866	-1.135476	-0.168890
H281	H	-0.217533	-0.802143	0.164443
H282	H	0.115800	-0.468809	0.497776
H283	H	-0.312492	-0.899489	-0.584441
H284	H	0.020841	-0.566156	-0.251107
H285	H	0.354174	-0.232823	0.082226
N286	N	-0.184202	-0.229071	-0.238817
N287	N	0.149131	0.104262	0.094516
N288	N	0.482464	0.437595	0.427850
N289	N	-0.150914	-0.189664	-0.262721
N290	N	0.182419	0.143669	0.070612
N291	N	0.515752	0.477003	0.403946
H292	H	-0.126752	-0.164170	-0.231563
H293	H	0.206581	0.169163	0.101770
H294	H	0.539914	0.502497	0.435103
N295	N	-0.184251	-1.065656	-0.577196
N296	N	0.149083	-0.732322	-0.243863
N297	N	0.482416	-0.398989	0.089471
N298	N	-0.150938	-1.041865	-0.537761
N299	N	0.182395	-0.708532	-0.204428
N300	N	0.515729	-0.375198	0.128905
H301	H	-0.126814	-1.073105	-0.512281
H302	H	0.206519	-0.739771	-0.178948
H303	H	0.539853	-0.406438	0.154385
H304	H	-0.702058	-1.099966	-0.204449
H305	H	-0.368725	-0.766632	0.128884
H306	H	-0.035392	-0.433299	0.462217
N307	N	-0.184232	-1.065676	-0.720094
N308	N	0.149101	-0.732343	-0.386761
N309	N	0.482434	-0.399009	-0.053428
N310	N	-0.150904	-1.041902	-0.759542
N311	N	0.182430	-0.708569	-0.426209
N312	N	0.515763	-0.375235	-0.092876
H313	H	-0.126778	-1.073153	-0.785060
H314	H	0.206555	-0.739820	-0.451727
H315	H	0.539889	-0.406486	-0.118393
N316	N	-0.184174	-1.065734	-1.075857
N317	N	0.149160	-0.732401	-0.742524
N318	N	0.482493	-0.399068	-0.409190
N319	N	-0.184165	-1.065740	-1.138970
N320	N	0.149169	-0.732407	-0.805637
N321	N	0.482502	-0.399074	-0.472303
H322	H	-0.160045	-1.096999	-1.164489
H323	H	0.173288	-0.763665	-0.831155
H324	H	0.506621	-0.430332	-0.497822
H325	H	-0.312415	-0.899563	-1.068444
H326	H	0.020919	-0.566230	-0.735111
H327	H	0.354252	-0.232897	-0.401778
N328	N	-0.319574	-0.727688	-0.413455
N329	N	0.013759	-0.394354	-0.080122
N330	N	0.347092	-0.061021	0.253211
N331	N	-0.349467	-0.696113	-0.452031
N332	N	-0.016133	-0.362780	-0.118697
N333	N	0.317200	-0.029447	0.214636
H334	H	-0.373627	-0.721595	-0.483201
H335	H	-0.040293	-0.388261	-0.149868
H336	H	0.293040	-0.054928	0.183466
H337	H	-0.312639	-0.364612	-0.404526
H338	H	0.020694	-0.031278	-0.071192
H339	H	0.354028	0.302055	0.262141
H340	H	-0.191145	-0.364633	-0.247745
H341	H	0.142188	-0.031299	0.085589
H342	H	0.475521	0.302034	0.418922
H343	H	-0.702125	-0.856196	-0.447877
H344	H	-0.368791	-0.522863	-0.114544
H345	H	-0.035458	-0.189529	0.218789
N346	N	-0.445297	-0.890392	-0.413546
N347	N	-0.111964	-0.557059	-0.080213
N348	N	0.221370	-0.223726	0.253120
N349	N	-0.469686	-0.851738	-0.452167
N350	N	-0.136353	-0.518405	-0.118833
N351	N	0.196981	-0.185071	0.214500
H352	H	-0.450002	-0.820490	-0.483373
H353	H	-0.116668	-0.487157	-0.150039
H354	H	0.216665	-0.153824	0.183294
N355	N	-0.319568	-0.584819	-0.413476
N356	N	0.013765	-0.251485	-0.080143
N357	N	0.347098	0.081848	0.253191
N358	N	-0.349459	-0.616378	-0.452047
N359	N	-0.016126	-0.283044	-0.118714
N360	N	0.317207	0.050289	0.214620
H361	H	-0.373615	-0.590884	-0.483228
H362	H	-0.040282	-0.257551	-0.149894
H363	H	0.293052	0.075782	0.183439
N364	N	-0.184201	-0.584829	-0.238793
N365	N	0.149132	-0.251496	0.094540
N366	N	0.482466	0.081837	0.427873
N367	N	-0.184207	-0.521717	-0.238802
N368	N	0.149126	-0.188383	0.094532
N369	N	0.482459	0.144950	0.427865
H370	H	-0.160053	-0.496218	-0.207638
H371	H	0.173280	-0.162884	0.125696
H372	H	0.506613	0.170449	0.459029
N373	N	-0.184189	-0.727722	-0.238779
N374	N	0.149144	-0.394388	0.094554
N375	N	0.482477	-0.061055	0.427888
N376	N	-0.154296	-0.696164	-0.200209
N377	N	0.179037	-0.362831	0.133124
N378	N	0.512370	-0.029498	0.466457
H379	H	-0.130132	-0.721659	-0.169041
H380	H	0.203201	-0.388326	0.164292
H381	H	0.536535	-0.054993	0.497625
N382	N	-0.319366	-0.890560	-0.932888
N383	N	0.013968	-0.557226	-0.599555
N384	N	0.347301	-0.223893	-0.266222
N385	N	-0.349209	-0.851893	-0.964438
N386	N	-0.015875	-0.518559	-0.631105
N387	N	0.317458	-0.185226	-0.297772
H388	H	-0.373335	-0.820629	-0.938938
H389	H	-0.040002	-0.487296	-0.605604
H390	H	0.293331	-0.153963	-0.272271
N391	N	-0.445237	-1.065488	-0.238680
N392	N	-0.111903	-0.732155	0.094654
N393	N	0.221430	-0.398822	0.427987
N394	N	-0.451376	-1.061034	-0.176222
N395	N	-0.118042	-0.727701	0.157112
N396	N	0.215291	-0.394367	0.490445
H397	H	-0.431676	-1.092265	-0.145007
H398	H	-0.098343	-0.758932	0.188326
H399	H	0.234991	-0.425598	0.521659
N400	N	-0.806754	-1.108999	-0.195504
N401	N	-0.473420	-0.775665	0.137829
N402	N	-0.140087	-0.442332	0.471162
N403	N	-0.782350	-1.147651	-0.156898
N404	N	-0.449016	-0.814317	0.176435
N405	N	-0.115683	-0.480984	0.509769
H406	H	-0.802021	-1.178914	-0.125695
H407	H	-0.468688	-0.845581	0.207639
H408	H	-0.135355	-0.512247	0.540972
H409	H	-1.052309	-1.056812	-0.247745
H410	H	-0.718975	-0.723479	0.085589
H411	H	-0.385642	-0.390146	0.418922
H412	H	-0.953243	-1.056769	-0.247724
H413	H	-0.619909	-0.723436	0.085609
H414	H	-0.286576	-0.390103	0.418942
N415	N	-1.058000	-0.890661	-0.413616
N416	N	-0.724667	-0.557328	-0.080283
N417	N	-0.391333	-0.223994	0.253051
N418	N	-1.033623	-0.851982	-0.452215
N419	N	-0.700290	-0.518649	-0.118881
N420	N	-0.366957	-0.185315	0.214452
H421	H	-1.053318	-0.820734	-0.483418
H422	H	-0.719984	-0.487401	-0.150084
H423	H	-0.386651	-0.154067	0.183249
H424	H	-0.953295	-0.899603	-0.404652
H425	H	-0.619962	-0.566270	-0.071318
H426	H	-0.286629	-0.232936	0.262015
N427	N	-0.806838	-0.847275	-0.456863
N428	N	-0.473504	-0.513941	-0.123529
N429	N	-0.140171	-0.180608	0.209804
N430	N	-0.837263	-0.871079	-0.500025
N431	N	-0.503930	-0.537746	-0.166691
N432	N	-0.170597	-0.204413	0.166642
H433	H	-0.856963	-0.839850	-0.531241
H434	H	-0.523629	-0.506516	-0.197908
H435	H	-0.190296	-0.173183	0.135426
