data_functionalizedCrystal
_audit_creation_method	'MofGen! by Chris Wilmer'
_symmetry_space_group_name_H-M	'P1'
_symmetry_Int_Tables_number	1
_symmetry_cell_setting	triclinic
loop_
_symmetry_equiv_pos_as_xyz
  x,y,z
_cell_length_a	9.065215
_cell_length_b	14.853567
_cell_length_c	7.540329
_cell_angle_alpha	90.000203
_cell_angle_beta	89.997574
_cell_angle_gamma	84.324814
loop_
_atom_site_label
_atom_site_type_symbol
_atom_site_fract_x
_atom_site_fract_y
_atom_site_fract_z
O1	O	1.957781	0.132179	-0.147445
O2	O	1.528281	0.143024	-0.147451
O3	O	1.754503	0.006456	-0.147453
O4	O	1.731558	0.268746	-0.147443
O5	O	1.754490	0.006455	0.147512
O6	O	1.528267	0.143022	0.147514
O7	O	1.957768	0.132177	0.147520
Cu8	Cu	1.743016	0.137599	0.174450
Cu9	Cu	1.743032	0.137602	-0.174381
O10	O	1.731545	0.268745	0.147522
C11	C	1.473308	0.141982	0.000030
C12	C	1.309527	0.138867	0.000027
C13	C	1.753457	-0.027141	0.000024
C14	C	1.750342	-0.127248	0.000009
C15	C	1.602790	-0.540872	0.000040
C16	C	1.871548	-0.560166	0.000044
C17	C	1.874478	-0.466111	0.000034
C18	C	1.741561	-0.409432	0.000029
C19	C	1.605716	-0.446808	0.000035
C20	C	2.010321	-0.428727	0.000046
C21	C	2.013256	-0.334666	0.000037
C22	C	1.880338	-0.277986	0.000020
C23	C	1.744487	-0.315367	0.000024
C24	C	1.611571	-0.258688	0.000020
C25	C	1.475718	-0.296068	0.000011
C26	C	1.472798	-0.390127	0.000018
C27	C	1.883258	-0.183927	0.000013
C28	C	1.614496	-0.164624	0.000014
C29	C	2.012740	0.133219	0.000035
C30	C	2.176522	0.136334	0.000026
C31	C	1.732591	0.302342	0.000041
C32	C	1.735707	0.402449	0.000045
N33	N	1.743016	0.137598	0.419798
N34	N	1.743044	0.137596	-0.419729
H35	H	1.506258	-0.118481	0.000003
Cl36	Cl	2.184038	-0.287683	0.000019
Cl37	Cl	2.038633	-0.631420	0.000079
H38	H	1.993867	-0.153496	0.000032
H39	H	1.492182	-0.571311	0.000026
Cl40	Cl	1.302028	-0.437125	0.000002
Cl41	Cl	1.308631	-0.224804	0.000020
Cl42	Cl	2.177403	-0.499983	0.000090
