data_functionalizedCrystal
_audit_creation_method	'MofGen! by Chris Wilmer'
_symmetry_space_group_name_H-M	'P1'
_symmetry_Int_Tables_number	1
_symmetry_cell_setting	triclinic
loop_
_symmetry_equiv_pos_as_xyz
  x,y,z
_cell_length_a	6.394989
_cell_length_b	8.559649
_cell_length_c	7.088929
_cell_angle_alpha	84.674985
_cell_angle_beta	96.401883
_cell_angle_gamma	78.138188
loop_
_atom_site_label
_atom_site_type_symbol
_atom_site_fract_x
_atom_site_fract_y
_atom_site_fract_z
O1	O	0.046611	-2.102790	-0.158959
O2	O	-0.060915	-1.639750	-0.158964
O3	O	0.297966	-1.877842	-0.158963
O4	O	-0.312270	-1.864698	-0.158960
O5	O	0.346024	-1.909659	0.159013
O6	O	-0.012857	-1.671567	0.159011
O7	O	0.094668	-2.134606	0.159017
Cu8	Cu	0.045294	-1.905992	0.188048
Cu9	Cu	-0.011540	-1.868365	-0.187995
O10	O	-0.264213	-1.896514	0.159015
C11	C	-0.045035	-1.596293	0.000022
C12	C	-0.069290	-1.419401	0.000020
C13	C	0.078788	-2.178063	0.000026
C14	C	0.103041	-2.354954	0.000016
N15	N	0.085270	-1.932468	0.452536
C16	C	0.399399	-1.891151	0.000018
C17	C	0.634359	-1.883208	0.000016
N18	N	-0.051498	-1.841901	-0.452483
H19	H	-0.235400	-1.339239	0.000010
H20	H	-0.193231	-1.748038	0.465870
O21	O	0.254429	-2.044580	0.549640
C22	C	0.375159	-2.124464	0.418564
H23	H	0.268702	-2.113881	0.275825
H24	H	0.436163	-2.256759	0.476521
H25	H	0.518236	-2.067352	0.397353
O26	O	0.301058	-1.450803	0.000100
C27	C	0.282005	-1.612002	0.000052
H28	H	0.128533	-1.627534	0.060253
H29	H	0.427607	-1.694201	0.092367
H30	H	0.274471	-1.644623	-0.152497
