data_functionalizedCrystal
_audit_creation_method	'MofGen! by Chris Wilmer'
_symmetry_space_group_name_H-M	'P1'
_symmetry_Int_Tables_number	1
_symmetry_cell_setting	triclinic
loop_
_symmetry_equiv_pos_as_xyz
  x,y,z
_cell_length_a	6.817900
_cell_length_b	15.866870
_cell_length_c	16.305550
_cell_angle_alpha	112.498803
_cell_angle_beta	103.455250
_cell_angle_gamma	102.655915
loop_
_atom_site_label
_atom_site_type_symbol
_atom_site_fract_x
_atom_site_fract_y
_atom_site_fract_z
V1	V	-4.051892	-0.133572	-0.304568
O2	O	-4.012769	0.005585	-0.256287
O3	O	-4.028396	-0.264050	-0.343343
O4	O	-4.002974	-0.131883	-0.418760
O5	O	-4.038366	-0.127496	-0.180349
V6	V	-4.532361	-0.116884	-0.284747
O7	O	-4.319852	-0.170179	-0.348047
O8	O	-4.714598	-0.080277	-0.241268
O9	O	-4.332650	0.013593	-0.245972
O10	O	-4.688881	-0.256042	-0.333028
O11	O	-4.663283	-0.122960	-0.408966
O12	O	-4.358072	-0.118573	-0.170555
C13	C	-3.879472	-0.295846	-0.349082
C14	C	-3.941544	-0.402515	-0.381546
C15	C	-3.931812	-0.683673	-0.080408
C16	C	-3.990147	-0.783910	-0.110942
C17	C	-4.075699	-0.811764	-0.274110
C18	C	-4.017359	-0.711528	-0.243590
C19	C	-3.945421	-0.647489	-0.146738
C20	C	-4.030968	-0.675344	-0.309919
C21	C	-3.972644	-0.575116	-0.279401
C22	C	-3.900711	-0.511072	-0.182553
C23	C	-3.887097	-0.547262	-0.116220
C24	C	-4.102922	-0.739384	-0.406771
C25	C	-4.116531	-0.703201	-0.473100
C26	C	-4.058192	-0.602971	-0.442582
C27	C	-3.986259	-0.538927	-0.345735
C28	C	-4.071807	-0.566781	-0.508916
C29	C	-4.013483	-0.466554	-0.478398
C30	C	-3.927935	-0.438699	-0.315217
C31	C	-3.847043	-0.127253	-0.445281
C32	C	-3.888495	-0.126736	-0.538902
C33	C	-4.039197	-0.124730	-0.879024
C34	C	-3.802006	-0.118776	-0.836244
C35	C	-3.758992	-0.119712	-0.739040
C36	C	-3.964430	-0.125724	-0.710285
C37	C	-4.149659	-0.220491	-0.790381
C38	C	-4.191420	-0.219955	-0.887764
C39	C	-4.077045	-0.036675	-0.805798
C40	C	-4.028971	-0.035924	-0.707722
C41	C	-3.922189	-0.126290	-0.614923
C42	C	-4.081448	-0.124171	-0.974389
C43	C	-4.144918	0.045385	-0.240233
C44	C	-4.062084	0.152053	-0.207774
C45	C	-4.177347	-0.123206	-0.144030
C46	C	-4.115132	-0.123719	-0.050407
H47	H	-3.869323	-0.386554	-0.236349
H48	H	-4.107028	-0.287170	-0.794304
Cl49	Cl	-4.166143	-0.892278	-0.395863
H50	H	-3.971856	0.035130	-0.796837
H51	H	-4.024596	-0.437094	-0.532411
H52	H	-4.366852	-0.228267	-0.918340
H53	H	-3.619411	-0.051574	-0.682828
Cl54	Cl	-4.388450	-0.232580	-0.764946
H55	H	-3.894466	0.034171	-0.651547
H56	H	-3.853231	-0.429461	-0.157708
Cl57	Cl	-3.973025	-0.829393	-0.027544
H58	H	-4.150412	-0.820995	-0.431616
Cl59	Cl	-4.256016	-0.034095	-0.674189
H60	H	-4.249786	-0.040194	-0.833708
Cl61	Cl	-3.796623	-0.466748	0.005541
H62	H	-3.769062	-0.182040	-0.887429
Cl63	Cl	-4.206976	-0.783714	-0.594853
Cl64	Cl	-3.841338	-0.603159	0.041352
H65	H	-3.682722	-0.050317	-0.827319
Cl66	Cl	-4.162276	-0.647298	-0.630669
H67	H	-3.704853	-0.183706	-0.742647
H68	H	-4.168074	-0.286616	-0.938875
