data_functionalizedCrystal
_audit_creation_method	'MofGen! by Chris Wilmer'
_symmetry_space_group_name_H-M	'P1'
_symmetry_Int_Tables_number	1
_symmetry_cell_setting	triclinic
loop_
_symmetry_equiv_pos_as_xyz
  x,y,z
_cell_length_a	19.188930
_cell_length_b	19.188930
_cell_length_c	18.266242
_cell_angle_alpha	90.022918
_cell_angle_beta	89.988525
_cell_angle_gamma	96.855221
loop_
_atom_site_label
_atom_site_type_symbol
_atom_site_fract_x
_atom_site_fract_y
_atom_site_fract_z
O1	O	0.087169	-0.926149	-0.061124
O2	O	0.098903	-0.722838	-0.061075
O3	O	-0.008620	-0.830361	-0.061087
O4	O	0.194691	-0.818627	-0.061113
O5	O	-0.008625	-0.830343	0.060675
O6	O	0.098897	-0.722820	0.060687
O7	O	0.087163	-0.926131	0.060638
Zn8	Zn	0.093029	-0.824473	0.079994
Zn9	Zn	0.093037	-0.824497	-0.080432
O10	O	0.194686	-0.818608	0.060649
C11	C	-0.034634	-0.829972	-0.000204
C12	C	-0.112138	-0.828831	-0.000197
C13	C	0.098520	-0.696818	-0.000188
C14	C	0.097380	-0.619313	-0.000169
C15	C	0.087546	-0.952151	-0.000252
C16	C	0.088687	-1.029656	-0.000276
C17	C	-0.157062	-0.891922	-0.000209
C18	C	-0.229886	-0.890850	-0.000220
C19	C	-0.257782	-0.826684	-0.000206
C20	C	-0.212849	-0.763585	-0.000198
C21	C	-0.140026	-0.764658	-0.000194
N22	N	-0.365789	-0.777631	0.041244
N23	N	-0.434968	-0.776615	0.041242
C24	C	-0.477191	-0.823446	-0.000220
N25	N	-0.447624	-0.871341	-0.041669
N26	N	-0.378439	-0.872359	-0.041664
C27	C	-0.336745	-0.825513	-0.000210
C28	C	-0.601079	-0.885379	-0.000245
C29	C	-0.673904	-0.884305	-0.000261
C30	C	-0.656865	-0.757038	-0.000231
C31	C	-0.584042	-0.758114	-0.000222
C32	C	-0.556154	-0.822287	-0.000226
C33	C	0.220700	-0.818997	-0.000236
C34	C	0.298204	-0.820138	-0.000247
N35	N	0.093024	-0.824461	0.189481
C36	C	0.160470	-0.574389	-0.000188
C37	C	0.159399	-0.501566	-0.000196
C38	C	0.095233	-0.473669	-0.000199
C39	C	0.032133	-0.518603	-0.000175
C40	C	0.033207	-0.591425	-0.000160
N41	N	0.046188	-0.365695	-0.041663
N42	N	0.045172	-0.296516	-0.041679
C43	C	0.091994	-0.254260	-0.000243
N44	N	0.139881	-0.283795	0.041200
N45	N	0.140899	-0.352980	0.041213
C46	C	0.094062	-0.394707	-0.000215
C47	C	0.153928	-0.130372	-0.000270
C48	C	0.152853	-0.057547	-0.000274
C49	C	0.025586	-0.074586	-0.000261
C50	C	0.026662	-0.147409	-0.000250
C51	C	0.090835	-0.175298	-0.000258
N52	N	0.093037	-0.824513	-0.189919
C53	C	0.045436	-0.872088	0.227785
C54	C	0.045433	-0.872092	0.304430
C55	C	0.093030	-0.824477	0.342768
C56	C	0.140621	-0.776841	0.304455
C57	C	0.140618	-0.776834	0.227812
N58	N	0.154837	-0.815401	0.463094
N59	N	0.154838	-0.815413	0.535902
C60	C	0.093040	-0.824496	0.573691
N61	N	0.031239	-0.833582	0.535920
N62	N	0.031240	-0.833574	0.463106
C63	C	0.093038	-0.824480	0.425875
C64	C	0.045444	-0.872131	0.695101
C65	C	0.045440	-0.872130	0.771748
C66	C	0.140634	-0.776882	0.771772
C67	C	0.140632	-0.776879	0.695127
C68	C	0.093038	-0.824507	0.656796
H69	H	-0.134360	-0.944176	-0.000214
H70	H	0.006680	-0.910877	0.335623
N71	N	-0.041388	-0.195866	-0.000246
H72	H	-0.030971	-0.246231	-0.000237
H73	H	-0.069367	-0.186833	0.044892
H74	H	-0.266470	-0.942228	-0.000233
N75	N	-0.043624	-0.044511	-0.000266
H76	H	-0.071257	-0.060884	0.044878
H77	H	-0.034676	0.008434	-0.000304
H78	H	-0.020111	-0.495885	-0.000188
H79	H	-0.235567	-0.711340	-0.000187
H80	H	-0.103448	-0.713281	-0.000184
N81	N	-0.570993	-0.954589	-0.000252
H82	H	-0.610505	-0.994396	-0.000267
H83	H	-0.541136	-0.957813	-0.045387
H84	H	-0.710481	-0.935683	-0.000274
H85	H	0.204232	-0.020970	-0.000285
N86	N	-0.686943	-0.687828	-0.000223
H87	H	-0.739893	-0.696720	-0.000230
H88	H	-0.670506	-0.660220	0.044922
H89	H	0.206181	-0.153080	-0.000267
N90	N	-0.005885	-0.923511	0.813059
H91	H	-0.036744	-0.896942	0.844880
H92	H	-0.035979	-0.953665	0.777091
H93	H	0.179386	-0.738110	0.802986
H94	H	-0.547464	-0.706738	-0.000208
N95	N	-0.034844	-0.639884	-0.000136
H96	H	-0.075657	-0.611165	-0.000135
H97	H	-0.037170	-0.670495	-0.045268
H98	H	0.006681	-0.910868	0.196579
N99	N	0.191959	-0.725510	0.653808
H100	H	0.222111	-0.695345	0.689723
H101	H	0.222761	-0.752136	0.621984
N102	N	0.191955	-0.725480	0.345800
H103	H	0.184737	-0.732713	0.400167
H104	H	0.241467	-0.733387	0.332385
N105	N	0.191945	-0.725461	0.186493
H106	H	0.222096	-0.695293	0.222407
H107	H	0.222747	-0.752088	0.154672
H108	H	0.212725	-0.597091	-0.000196
H109	H	0.210776	-0.464982	-0.000210
H110	H	0.006688	-0.910910	0.663892
