data_functionalizedCrystal
_audit_creation_method	'MofGen! by Chris Wilmer'
_symmetry_space_group_name_H-M	'P1'
_symmetry_Int_Tables_number	1
_symmetry_cell_setting	triclinic
loop_
_symmetry_equiv_pos_as_xyz
  x,y,z
_cell_length_a	8.559649
_cell_length_b	17.699083
_cell_length_c	16.176319
_cell_angle_alpha	90.001389
_cell_angle_beta	89.994559
_cell_angle_gamma	103.469160
loop_
_atom_site_label
_atom_site_type_symbol
_atom_site_fract_x
_atom_site_fract_y
_atom_site_fract_z
O1	O	0.202110	-0.992507	-0.068628
O2	O	0.228405	-0.770623	-0.068655
O3	O	-0.017421	-0.901113	-0.068638
O4	O	0.447935	-0.862017	-0.068645
O5	O	-0.017436	-0.901098	0.068855
O6	O	0.228389	-0.770608	0.068838
O7	O	0.202094	-0.992492	0.068865
Cu8	Cu	0.215240	-0.881549	0.081406
Cu9	Cu	0.215259	-0.881566	-0.081196
O10	O	0.447920	-0.862002	0.068849
C11	C	0.227455	-0.742473	0.000088
C12	C	0.224628	-0.658616	0.000078
C13	C	-0.076970	-0.904069	0.000107
C14	C	-0.254384	-0.912888	0.000104
C15	C	0.203044	-1.020643	0.000120
C16	C	0.205871	-1.104499	0.000125
C17	C	0.507469	-0.859047	0.000101
C18	C	0.684883	-0.850227	0.000099
N19	N	0.215226	-0.881542	0.195771
C20	C	0.368922	-0.601734	0.000076
C21	C	0.366257	-0.522943	0.000087
C22	C	0.219296	-0.501037	0.000094
C23	C	0.074990	-0.557926	0.000098
C24	C	0.077657	-0.636715	0.000093
C25	C	0.064231	-0.240179	0.000118
C26	C	0.061575	-0.161383	0.000121
C27	C	0.352831	-0.126407	0.000112
C28	C	0.355498	-0.205196	0.000108
C29	C	0.211193	-0.262078	0.000116
C30	C	0.214085	-0.347512	0.000106
C31	C	0.216402	-0.415605	0.000098
N32	N	0.215260	-0.881580	-0.195561
C33	C	0.106419	-0.939336	0.239043
C34	C	0.106417	-0.939340	0.325590
C35	C	0.215232	-0.881552	0.368864
C36	C	0.324044	-0.823752	0.325586
C37	C	0.324037	-0.823746	0.239041
C38	C	0.324074	-0.823776	0.674614
C39	C	0.324076	-0.823789	0.761166
C40	C	0.106455	-0.939370	0.761164
C41	C	0.106447	-0.939364	0.674618
C42	C	0.215253	-0.881562	0.631348
C43	C	0.215252	-0.881558	0.537504
C44	C	0.215242	-0.881559	0.462706
H45	H	-0.231386	-0.789834	0.000095
H46	H	0.483756	-0.476631	0.000085
H47	H	0.475168	-0.223027	0.000099
H48	H	0.412670	-0.776714	0.639391
C49	C	-0.365839	-0.993471	-0.000013
C50	C	-0.337033	-1.033774	-0.070737
C51	C	-0.439659	-1.108011	-0.070867
H52	H	-0.474299	-0.989008	-0.000051
H53	H	-0.346509	-1.020960	0.047911
H54	H	-0.356376	-1.006292	-0.118648
H55	H	-0.228593	-1.038258	-0.070714
H56	H	-0.420329	-1.135500	-0.022943
H57	H	-0.548113	-1.103541	-0.070903
H58	H	-0.420118	-1.135369	-0.118848
H59	H	0.488595	-0.619562	0.000070
C60	C	-0.092321	-0.302009	-0.000013
C61	C	-0.099278	-0.348274	-0.070742
C62	C	-0.243468	-0.405248	-0.070888
H63	H	-0.180350	-0.277775	-0.000055
H64	H	-0.097367	-0.333520	0.047908
H65	H	-0.094246	-0.316767	-0.118650
H66	H	-0.011282	-0.372526	-0.070714
H67	H	-0.248515	-0.436760	-0.022967
H68	H	-0.331485	-0.381007	-0.070928
H69	H	-0.248201	-0.436650	-0.118872
C70	C	-0.011768	-1.002186	0.372421
C71	C	-0.107020	-1.052810	0.316000
C72	C	-0.215894	-1.110724	0.359110
H73	H	-0.078392	-0.978938	0.406197
H74	H	0.045625	-1.030392	0.406153
H75	H	-0.164409	-1.024608	0.282282
H76	H	-0.040441	-1.076077	0.282222
H77	H	-0.158501	-1.138930	0.392842
H78	H	-0.282506	-1.087469	0.392884
H79	H	-0.280526	-1.145083	0.320835
C80	C	-0.079056	-0.698443	-0.000080
C81	C	-0.167540	-0.689842	-0.070825
C82	C	-0.311906	-0.746699	-0.071015
H83	H	-0.139528	-0.692776	0.047812
H84	H	-0.056487	-0.748519	-0.000127
H85	H	-0.190114	-0.639779	-0.070771
H86	H	-0.107117	-0.695518	-0.118729
H87	H	-0.289336	-0.796775	-0.071062
H88	H	-0.372363	-0.741026	-0.023120
H89	H	-0.371953	-0.740875	-0.119018
H90	H	0.017817	-0.986396	0.203815
C91	C	-0.084621	-0.534191	0.000273
C92	C	-0.171825	-0.563893	0.071021
C93	C	-0.318860	-0.542039	0.071213
H94	H	-0.144206	-0.554282	-0.047617
H95	H	-0.065616	-0.479122	0.000317
H96	H	-0.190834	-0.618952	0.070970
H97	H	-0.112288	-0.543807	0.118923
H98	H	-0.299855	-0.486970	0.071257
H99	H	-0.378430	-0.562131	0.023319
H100	H	-0.378039	-0.562182	0.119218
C101	C	-0.011876	-1.002148	0.627785
C102	C	-0.107199	-1.052752	0.684206
C103	C	-0.216236	-1.110591	0.641095
H104	H	0.045341	-1.030395	0.594011
H105	H	-0.078423	-0.978807	0.594051
H106	H	-0.040660	-1.076092	0.717925
H107	H	-0.164451	-1.024528	0.717982
H108	H	-0.282783	-1.087250	0.607361
H109	H	-0.159006	-1.138832	0.607322
H110	H	-0.280935	-1.144928	0.679369
H111	H	0.017854	-0.986434	0.796403
C112	C	0.442117	-0.761099	0.372716
C113	C	0.418870	-0.773486	0.457771
C114	C	0.527630	-0.715792	0.501210
H115	H	0.424999	-0.711549	0.358642
H116	H	0.548794	-0.763121	0.358569
H117	H	0.312219	-0.771457	0.471912
H118	H	0.436002	-0.823025	0.471870
H119	H	0.634307	-0.717814	0.487063
H120	H	0.510502	-0.666246	0.487130
H121	H	0.511882	-0.724193	0.558925
C122	C	0.442284	-0.760950	0.808002
C123	C	0.537540	-0.710314	0.751585
C124	C	0.646428	-0.652416	0.794700
H125	H	0.508905	-0.784212	0.841758
H126	H	0.384902	-0.732750	0.841755
H127	H	0.594917	-0.738510	0.717847
H128	H	0.470964	-0.687033	0.717828
H129	H	0.589046	-0.624216	0.828453
H130	H	0.713037	-0.675685	0.828454
H131	H	0.711062	-0.618049	0.756428
H132	H	0.470330	-0.080083	0.000110
H133	H	0.412636	-0.776683	0.203810
H134	H	-0.058106	-0.143552	0.000127
