data_functionalizedCrystal
_audit_creation_method	'MofGen! by Chris Wilmer'
_symmetry_space_group_name_H-M	'P1'
_symmetry_Int_Tables_number	1
_symmetry_cell_setting	triclinic
loop_
_symmetry_equiv_pos_as_xyz
  x,y,z
_cell_length_a	16.974800
_cell_length_b	15.995350
_cell_length_c	15.455313
_cell_angle_alpha	92.667328
_cell_angle_beta	90.973911
_cell_angle_gamma	83.440933
loop_
_atom_site_label
_atom_site_type_symbol
_atom_site_fract_x
_atom_site_fract_y
_atom_site_fract_z
O1	O	1.049074	0.106736	0.001543
O2	O	0.819642	0.119523	-0.014570
O3	O	0.940630	-0.008743	-0.006072
O4	O	0.928086	0.235002	-0.006955
O5	O	0.933711	-0.001439	0.137704
O6	O	0.812723	0.126828	0.129206
O7	O	1.042156	0.114041	0.145319
Cu8	Cu	0.926808	0.121101	0.150391
Cu9	Cu	0.934990	0.112463	-0.019641
O10	O	0.921168	0.242307	0.136822
C11	C	0.786823	0.122555	0.055256
C12	C	0.699341	0.120697	0.049113
C13	C	0.936652	-0.036287	0.065778
C14	C	0.935097	-0.129241	0.065664
C15	C	0.654476	0.123804	0.124601
C16	C	0.572279	0.122045	0.118830
C17	C	0.534949	0.117185	0.037571
C18	C	0.579821	0.114076	-0.037923
C19	C	0.662017	0.115829	-0.032151
C20	C	0.289524	0.111510	0.011907
C21	C	0.207322	0.109759	0.006141
C22	C	0.199786	0.117727	0.162895
C23	C	0.281983	0.119485	0.168659
C24	C	0.326849	0.116371	0.093165
N25	N	0.450930	0.115390	0.031671
N26	N	0.410866	0.118160	0.099066
C27	C	0.929514	-0.467002	0.065275
C28	C	0.843364	-0.419787	0.058901
C29	C	0.844904	-0.323077	0.059334
C30	C	0.932284	-0.299435	0.065467
C31	C	0.970833	-0.336241	0.150554
C32	C	0.968665	-0.432878	0.150470
C33	C	0.978313	-0.441539	-0.012905
C34	C	0.978344	-0.344649	-0.013992
C35	C	0.933853	-0.204734	0.065579
C36	C	0.927947	-0.561703	0.065169
C37	C	1.074974	0.111008	0.075491
C38	C	1.162456	0.112866	0.081629
C39	C	0.925146	0.269851	0.064970
C40	C	0.926700	0.362805	0.065078
N41	N	0.921059	0.127176	0.269982
N42	N	0.940745	0.106381	-0.139233
C43	C	0.972476	0.072705	0.318988
C44	C	0.968136	0.077307	0.409491
C45	C	0.912381	0.136386	0.450987
C46	C	0.860957	0.190860	0.401975
C47	C	0.865295	0.186253	0.311473
C48	C	0.893659	0.156248	0.721254
C49	C	0.889327	0.160853	0.811762
C50	C	0.996505	0.047298	0.819272
C51	C	1.000841	0.042700	0.728768
C52	C	0.949415	0.097171	0.679764
N53	N	0.907944	0.141093	0.543496
N54	N	0.953848	0.092459	0.587257
H55	H	0.684863	0.127768	0.190771
C56	C	0.522929	0.125469	0.201867
H57	H	0.556933	0.128626	0.251088
H58	H	0.496720	0.076170	0.203304
H59	H	0.484695	0.173739	0.202446
C60	C	0.538762	0.108743	-0.127308
H61	H	0.577257	0.107140	-0.171439
H62	H	0.500845	0.156681	-0.133232
H63	H	0.512863	0.059109	-0.132403
C64	C	0.338867	0.108105	-0.071130
H65	H	0.393168	0.109840	-0.056061
H66	H	0.320926	0.154968	-0.104693
H67	H	0.332959	0.057397	-0.103862
C68	C	0.940379	-0.312036	-0.098990
H69	H	0.896642	-0.271032	-0.086116
H70	H	0.922574	-0.357619	-0.132587
H71	H	0.978499	-0.287315	-0.130698
C72	C	0.944300	-0.473639	-0.099644
H73	H	0.900014	-0.502873	-0.088987
H74	H	0.983863	-0.510653	-0.129034
H75	H	0.928017	-0.427185	-0.134415
C76	C	1.024703	0.017395	0.463394
H77	H	1.058538	-0.018440	0.425719
H78	H	0.994675	-0.015753	0.496722
H79	H	1.055811	0.049422	0.500987
H80	H	1.038373	0.002949	0.859179
H81	H	0.698545	0.113300	-0.093622
H82	H	0.938374	-0.304825	0.209580
C83	C	0.837099	0.216171	0.667361
H84	H	0.803281	0.252021	0.705039
H85	H	0.805987	0.184161	0.629764
H86	H	0.867141	0.249317	0.634036
C87	C	1.062167	-0.022292	0.683128
H88	H	1.092164	-0.054080	0.725277
H89	H	1.096659	0.006127	0.650113
H90	H	1.035506	-0.059030	0.645847
H91	H	0.815556	0.238960	0.435766
C92	C	0.803588	-0.288820	-0.023332
H93	H	0.785707	-0.334020	-0.057481
H94	H	0.839982	-0.262212	-0.055634
H95	H	0.759567	-0.249104	-0.007876
C96	C	0.827952	0.225797	0.857403
H97	H	0.797929	0.257561	0.815256
H98	H	0.854563	0.262553	0.894706
H99	H	0.793479	0.197323	0.890395
H100	H	0.823424	0.230609	0.271573
H101	H	0.934720	-0.448135	0.209669
C102	C	0.800657	-0.448979	-0.023895
H103	H	0.834979	-0.490227	-0.055317
H104	H	0.786436	-0.402158	-0.058819
H105	H	0.754210	-0.472583	-0.008624
H106	H	1.042304	-0.329389	-0.014476
H107	H	1.041869	-0.473178	-0.008998
H108	H	0.808434	-0.292296	0.115926
C109	C	0.323038	0.124851	0.258044
H110	H	0.284545	0.126450	0.302177
H111	H	0.348926	0.174488	0.263113
H112	H	0.360966	0.076920	0.263991
H113	H	0.163248	0.120261	0.224357
H114	H	0.806260	-0.436488	0.115042
C115	C	1.053877	-0.475989	0.161517
H116	H	1.089664	-0.434419	0.166043
H117	H	1.067131	-0.512997	0.112775
H118	H	1.057408	-0.507136	0.212569
H119	H	0.176930	0.105804	-0.060033
H120	H	1.034882	-0.321809	0.158113
C121	C	1.033806	0.007716	0.273350
H122	H	1.063801	-0.024071	0.315501
H123	H	1.068301	0.036133	0.240335
H124	H	1.007147	-0.029023	0.236069
