data_functionalizedCrystal
_audit_creation_method	'MofGen! by Chris Wilmer'
_symmetry_space_group_name_H-M	'P1'
_symmetry_Int_Tables_number	1
_symmetry_cell_setting	triclinic
loop_
_symmetry_equiv_pos_as_xyz
  x,y,z
_cell_length_a	14.519709
_cell_length_b	15.944493
_cell_length_c	12.996460
_cell_angle_alpha	89.999729
_cell_angle_beta	90.000034
_cell_angle_gamma	83.577594
loop_
_atom_site_label
_atom_site_type_symbol
_atom_site_fract_x
_atom_site_fract_y
_atom_site_fract_z
O1	O	1.223651	0.110112	-0.085419
O2	O	1.723651	0.610112	0.414581
O3	O	0.955148	0.123079	-0.085449
O4	O	1.455148	0.623079	0.414551
O5	O	1.096760	-0.005672	-0.085442
O6	O	1.596760	0.494328	0.414558
O7	O	1.082040	0.238863	-0.085426
O8	O	1.582040	0.738863	0.414574
O9	O	1.096745	-0.005679	0.085692
O10	O	1.596745	0.494321	0.585692
O11	O	0.955134	0.123072	0.085685
O12	O	1.455134	0.623072	0.585685
O13	O	1.223636	0.110105	0.085715
O14	O	1.723636	0.610105	0.585715
Cu15	Cu	1.089384	0.116588	0.101326
Cu16	Cu	1.589384	0.616588	0.601326
Cu17	Cu	1.089401	0.116596	-0.101060
Cu18	Cu	1.589401	0.616596	0.398940
O19	O	1.082025	0.238856	0.085708
O20	O	1.582025	0.738856	0.585708
C21	C	0.920783	0.122471	0.000114
C22	C	1.420783	0.622471	0.500114
C23	C	0.818405	0.120660	0.000102
C24	C	1.318405	0.620660	0.500102
C25	C	0.443522	0.113994	0.000148
C26	C	0.943522	0.613994	0.500148
C27	C	0.547826	0.115845	0.000135
C28	C	1.047826	0.615845	0.500135
C29	C	0.630960	0.117327	0.000124
C30	C	1.130960	0.617327	0.500124
C31	C	0.735271	0.119178	0.000113
C32	C	1.235271	0.619178	0.500113
C33	C	1.096151	-0.036971	0.000121
C34	C	1.596151	0.463029	0.500121
C35	C	1.094347	-0.130222	0.000107
C36	C	1.594347	0.369778	0.500107
C37	C	1.177703	-0.365861	0.000136
C38	C	1.677703	0.134139	0.500136
C39	C	1.132759	-0.416491	-0.084246
C40	C	1.632759	0.083509	0.415754
C41	C	1.091005	-0.300948	0.000120
C42	C	1.591005	0.199052	0.500120
C43	C	1.132725	-0.416474	0.084478
C44	C	1.632725	0.083526	0.584478
C45	C	1.087783	-0.465863	0.000136
C46	C	1.587783	0.034137	0.500136
C47	C	1.046085	-0.350350	-0.084332
C48	C	1.546085	0.149650	0.415668
C49	C	1.046063	-0.350330	0.084468
C50	C	1.546063	0.149670	0.584468
C51	C	1.001056	-0.400926	0.000065
C52	C	1.501056	0.099074	0.500065
C53	C	1.092863	-0.205946	0.000109
C54	C	1.592863	0.294054	0.500109
C55	C	1.085918	-0.560862	0.000139
C56	C	1.585918	-0.060862	0.500139
C57	C	1.258002	0.110713	0.000150
C58	C	1.758002	0.610713	0.500150
C59	C	1.360380	0.112524	0.000155
C60	C	1.860380	0.612524	0.500155
C61	C	1.082634	0.270155	0.000143
C62	C	1.582634	0.770155	0.500143
C63	C	1.084438	0.363406	0.000149
C64	C	1.584438	0.863406	0.500149
N65	N	1.089378	0.116581	0.243673
N66	N	1.589378	0.616581	0.743673
N67	N	1.089414	0.116596	-0.243407
N68	N	1.589414	0.616596	0.256593
C69	C	1.089400	0.116597	0.663487
C70	C	1.589400	0.616597	1.163487
C71	C	1.089391	0.116596	0.546682
C72	C	1.589391	0.616596	1.046682
C73	C	1.089389	0.116590	0.453584
C74	C	1.589389	0.616590	0.953584
C75	C	1.089380	0.116587	0.336771
C76	C	1.589380	0.616587	0.836771
H77	H	1.252382	-0.350125	0.000060
H78	H	1.752382	0.149875	0.500060
Cl79	Cl	1.189296	-0.461098	-0.194375
Cl80	Cl	1.689296	0.038902	0.305625
H81	H	1.009475	-0.321425	0.155802
H82	H	1.509475	0.178575	0.655802
Cl83	Cl	0.989602	-0.305938	-0.194596
Cl84	Cl	1.489602	0.194062	0.305404
H85	H	1.169350	-0.445355	0.155812
H86	H	1.669350	0.054645	0.655812
H87	H	0.926319	-0.416501	0.000011
H88	H	1.426319	0.083499	0.500011
