data_functionalizedCrystal
_audit_creation_method	'MofGen! by Chris Wilmer'
_symmetry_space_group_name_H-M	'P1'
_symmetry_Int_Tables_number	1
_symmetry_cell_setting	triclinic
loop_
_symmetry_equiv_pos_as_xyz
  x,y,z
_cell_length_a	16.974800
_cell_length_b	19.188930
_cell_length_c	15.455446
_cell_angle_alpha	87.330126
_cell_angle_beta	96.313128
_cell_angle_gamma	83.267966
loop_
_atom_site_label
_atom_site_type_symbol
_atom_site_fract_x
_atom_site_fract_y
_atom_site_fract_z
O1	O	1.048914	0.088874	0.001518
O2	O	1.548914	0.588874	0.501518
O3	O	0.817888	0.100907	-0.014709
O4	O	1.317888	0.600907	0.485291
O5	O	0.940068	-0.006774	-0.006110
O6	O	1.440068	0.493226	0.493890
O7	O	0.926733	0.196555	-0.007081
O8	O	1.426733	0.696555	0.492919
O9	O	0.947016	-0.012910	0.138638
O10	O	1.447016	0.487090	0.638638
O11	O	0.824835	0.094771	0.130039
O12	O	1.324835	0.594771	0.630039
O13	O	1.055862	0.082738	0.146266
O14	O	1.555862	0.582738	0.646266
Cu15	Cu	0.940983	0.088195	0.151369
Cu16	Cu	1.440983	0.588195	0.651369
Cu17	Cu	0.932766	0.095451	-0.019812
Cu18	Cu	1.432766	0.595451	0.480188
O19	O	0.933681	0.190420	0.137667
O20	O	1.433681	0.690420	0.637667
C21	C	0.791805	0.097497	0.055590
C22	C	1.291805	0.597497	0.555590
C23	C	0.703735	0.096471	0.049405
C24	C	1.203735	0.596471	0.549405
C25	C	0.666152	0.092642	0.125403
C26	C	1.166152	0.592642	0.625403
C27	C	0.583403	0.091666	0.119594
C28	C	1.083403	0.591666	0.619594
C29	C	0.538238	0.094523	0.037786
C30	C	1.038238	0.594523	0.537786
C31	C	0.575827	0.098350	-0.038218
C32	C	1.075827	0.598350	0.461782
C33	C	0.658575	0.099321	-0.032408
C34	C	1.158575	0.599321	0.467592
C35	C	0.290351	0.091973	0.011950
C36	C	0.790351	0.591973	0.511950
C37	C	0.207597	0.091004	0.006146
C38	C	0.707597	0.591004	0.506146
C39	C	0.215179	0.084318	0.163959
C40	C	0.715179	0.584318	0.663959
C41	C	0.297928	0.085294	0.169761
C42	C	0.797928	0.585294	0.669761
C43	C	0.335510	0.089117	0.093757
C44	C	0.835510	0.589117	0.593757
N45	N	0.453655	0.093528	0.031847
N46	N	0.953655	0.593528	0.531847
N47	N	0.420093	0.090107	0.099698
N48	N	0.920093	0.590107	0.599698
C49	C	0.943111	-0.035853	0.066236
C50	C	1.443111	0.464147	0.566236
C51	C	0.941815	-0.113356	0.066152
C52	C	1.441815	0.386644	0.566152
C53	C	1.013506	-0.158373	0.071192
C54	C	1.513506	0.341627	0.571192
C55	C	1.012288	-0.231194	0.071092
C56	C	1.512288	0.268806	0.571092
C57	C	0.939375	-0.258997	0.065971
C58	C	1.439375	0.241003	0.565971
C59	C	0.867674	-0.213970	0.060926
C60	C	1.367674	0.286030	0.560926
C61	C	0.868894	-0.141149	0.061016
C62	C	1.368894	0.358851	0.561016
N63	N	0.886006	-0.369018	0.111317
N64	N	1.386006	0.130982	0.611317
N65	N	0.884852	-0.438195	0.111232
N66	N	1.384852	0.061805	0.611232
C67	C	0.935694	-0.478400	0.065695
C68	C	1.435694	0.021600	0.565695
N69	N	0.987747	-0.446817	0.020256
N70	N	1.487747	0.053183	0.520256
N71	N	0.988904	-0.377634	0.020344
N72	N	1.488904	0.122366	0.520344
C73	C	0.938044	-0.337957	0.065871
C74	C	1.438044	0.162043	0.565871
C75	C	1.006070	-0.602379	0.070625
C76	C	1.506070	-0.102379	0.570625
C77	C	1.004848	-0.675201	0.070520
C78	C	1.504848	-0.175201	0.570520
C79	C	0.860232	-0.657975	0.060362
C80	C	1.360232	-0.157975	0.560362
C81	C	0.861455	-0.585154	0.060458
C82	C	1.361455	-0.085154	0.560458
C83	C	0.934377	-0.557361	0.065594
C84	C	1.434377	-0.057361	0.565594
C85	C	1.081944	0.086148	0.075965
C86	C	1.581944	0.586148	0.575965
C87	C	1.170014	0.087175	0.082145
C88	C	1.670014	0.587175	0.582145
C89	C	0.930639	0.219498	0.065319
C90	C	1.430639	0.719498	0.565319
C91	C	0.931934	0.297002	0.065397
C92	C	1.431934	0.797002	0.565397
N93	N	0.946768	0.083091	0.271769
N94	N	1.446768	0.583091	0.771769
N95	N	0.926988	0.100549	-0.140212
N96	N	1.426988	0.600549	0.359788
C97	C	0.978904	0.054820	0.818025
C98	C	1.478904	0.554820	1.318025
C99	C	0.974511	0.058689	0.726910
C100	C	1.474511	0.558689	1.226910
C101	C	0.918198	0.108283	0.677559
C102	C	1.418198	0.608283	1.177559
C103	C	0.866279	0.154017	0.719329
C104	C	1.366279	0.654017	1.219329
C105	C	0.870677	0.150152	0.810442
C106	C	1.370677	0.650152	1.310442
C107	C	0.899247	0.124959	0.404652
C108	C	1.399247	0.624959	0.904652
C109	C	0.894852	0.128820	0.313532
C110	C	1.394852	0.628820	0.813532
C111	C	1.003085	0.033491	0.321120
C112	C	1.503085	0.533491	0.821120
C113	C	1.007474	0.029627	0.412235
C114	C	1.507474	0.529627	0.912235
C115	C	0.955559	0.075364	0.453997
C116	C	1.455559	0.575364	0.953997
N117	N	0.913704	0.112237	0.584425
N118	N	1.413704	0.612237	1.084425
N119	N	0.960056	0.071412	0.547130
N120	N	1.460056	0.571412	1.047130
H121	H	0.334697	0.082963	0.236378
H122	H	0.834697	0.582963	0.736378
F123	F	0.843993	0.173633	0.449091
F124	F	1.343993	0.673633	0.949091
F125	F	0.792586	-0.093237	0.055652
F126	F	1.292586	0.406763	0.555652
F127	F	1.091115	-0.128796	0.076639
F128	F	1.591115	0.371204	0.576639
H129	H	1.045353	-0.003744	0.287109
H130	H	1.545353	0.496256	0.787109
F131	F	0.175175	0.080247	0.244842
F132	F	0.675175	0.580247	0.744842
H133	H	0.170825	0.093333	-0.060475
H134	H	0.670825	0.593333	0.439525
F135	F	0.330338	0.096043	-0.068941
F136	F	0.830338	0.596043	0.431059
H137	H	1.070669	-0.267854	0.075193
H138	H	1.570669	0.232146	0.575193
F139	F	0.527760	0.101370	-0.125285
F140	F	1.027760	0.601370	0.374715
F141	F	0.815422	0.198825	0.854889
F142	F	1.315422	0.698825	1.354889
H143	H	0.689174	0.102440	-0.094294
H144	H	1.189174	0.602440	0.405706
F145	F	0.790074	-0.243560	0.055469
F146	F	1.290074	0.256440	0.555469
F147	F	1.083678	-0.572797	0.076095
F148	F	1.583678	-0.072797	0.576095
H149	H	1.063230	-0.711854	0.074619
H150	H	1.563230	-0.211854	0.574619
H151	H	0.803077	-0.548500	0.056360
H152	H	1.303077	-0.048500	0.556360
F153	F	0.782632	-0.687559	0.054907
F154	F	1.282632	-0.187559	0.554907
H155	H	1.024757	0.014432	0.858200
H156	H	1.524757	0.514432	1.358200
F157	F	0.806349	0.206804	0.666806
F158	F	1.306349	0.706804	1.166806
F159	F	1.029766	0.010020	0.682462
F160	F	1.529766	0.510020	1.182462
H161	H	1.053329	-0.010757	0.452415
H162	H	1.553329	0.489243	0.952415
H163	H	0.702919	0.090320	0.192020
H164	H	1.202919	0.590320	0.692020
F165	F	0.543407	0.087600	0.200483
F166	F	1.043407	0.587600	0.700483
F167	F	0.834910	0.181608	0.261015
F168	F	1.334910	0.681608	0.761015
