data_functionalizedCrystal
_audit_creation_method	'MofGen! by Chris Wilmer'
_symmetry_space_group_name_H-M	'P1'
_symmetry_Int_Tables_number	1
_symmetry_cell_setting	triclinic
loop_
_symmetry_equiv_pos_as_xyz
  x,y,z
_cell_length_a	19.188933
_cell_length_b	22.610064
_cell_length_c	19.188930
_cell_angle_alpha	90.001060
_cell_angle_beta	83.145175
_cell_angle_gamma	90.006787
loop_
_atom_site_label
_atom_site_type_symbol
_atom_site_fract_x
_atom_site_fract_y
_atom_site_fract_z
O1	O	0.926149	0.049171	0.087165
O2	O	0.722838	0.049178	0.098897
O3	O	0.830360	0.049163	-0.008625
O4	O	0.818626	0.049186	0.194687
O5	O	0.830341	-0.049206	-0.008609
O6	O	0.722819	-0.049191	0.098913
O7	O	0.926130	-0.049198	0.087180
Zn8	Zn	0.824471	-0.064813	0.093049
Zn9	Zn	0.824496	0.064793	0.093028
O10	O	0.818607	-0.049183	0.194702
C11	C	0.696817	-0.000006	0.098525
C12	C	0.619313	-0.000004	0.097384
C13	C	0.066068	0.053610	0.089230
C14	C	0.138892	0.053612	0.090298
C15	C	0.175299	-0.000009	0.090844
C16	C	0.138877	-0.053636	0.090304
C17	C	0.066055	-0.053637	0.089229
N18	N	0.284311	-0.039916	0.132269
N19	N	0.353488	-0.039912	0.133292
C20	C	0.394707	-0.000009	0.094082
N21	N	0.364134	0.039898	0.053819
N22	N	0.294950	0.039895	0.052800
C23	C	0.254262	-0.000014	0.092009
C24	C	0.510085	0.053617	0.095775
C25	C	0.582911	0.053617	0.096839
C26	C	0.582894	-0.053632	0.096852
C27	C	0.510070	-0.053631	0.095781
C28	C	0.473669	-0.000005	0.095246
N29	N	0.824459	-0.153265	0.093063
C30	C	0.872109	-0.561913	0.045425
C31	C	0.872113	-0.623833	0.045420
O32	O	0.912597	-0.655858	0.004927
N33	N	0.824496	-0.654802	0.093014
C34	C	0.776867	-0.623848	0.140612
O35	O	0.736365	-0.655876	0.181093
C36	C	0.776861	-0.561930	0.140613
C37	C	0.824486	-0.530964	0.093020
C38	C	0.919730	-0.530947	-0.002164
C39	C	0.919727	-0.469031	-0.002158
C40	C	0.872104	-0.438082	0.045437
C41	C	0.824483	-0.469048	0.093026
C42	C	0.729229	-0.530977	0.188206
C43	C	0.729227	-0.469054	0.188203
C44	C	0.776852	-0.438088	0.140611
C45	C	0.776856	-0.376183	0.140628
N46	N	0.824474	-0.345214	0.093034
C47	C	0.872097	-0.376163	0.045438
C48	C	0.776883	-0.753882	0.140605
C49	C	0.776892	-0.815800	0.140607
C50	C	0.872138	-0.815780	0.045415
C51	C	0.872131	-0.753861	0.045416
C52	C	0.824500	-0.722913	0.093011
C53	C	0.872088	-0.246136	0.045455
C54	C	0.872083	-0.184215	0.045468
C55	C	0.776835	-0.184240	0.140657
C56	C	0.776843	-0.246155	0.140648
C57	C	0.824472	-0.277102	0.093041
O58	O	0.736391	-0.344119	0.181098
O59	O	0.912587	-0.344128	0.004958
C60	C	0.952150	-0.000012	0.087553
C61	C	1.029655	-0.000011	0.088694
C62	C	0.829971	-0.000023	-0.034628
C63	C	0.828830	-0.000028	-0.112132
N64	N	0.824514	0.153245	0.093009
C65	C	0.891921	-0.000033	-0.157056
C66	C	0.890849	-0.000024	-0.229880
C67	C	0.826683	-0.000021	-0.257777
C68	C	0.763584	-0.000013	-0.212843
C69	C	0.764658	-0.000017	-0.140021
N70	N	0.777629	-0.033497	-0.365777
N71	N	0.776614	-0.033494	-0.434955
C72	C	0.823445	-0.000009	-0.477185
N73	N	0.871341	0.033466	-0.447625
N74	N	0.872358	0.033462	-0.378440
C75	C	0.825512	-0.000017	-0.336739
C76	C	0.885378	-0.000003	-0.601073
C77	C	0.884304	0.000010	-0.673898
C78	C	0.757037	0.000015	-0.656860
C79	C	0.758113	0.000008	-0.584037
C80	C	0.822286	-0.000004	-0.556148
C81	C	0.818997	0.000005	0.220705
C82	C	0.820137	0.000014	0.298210
H83	H	0.480422	-0.097294	0.095347
Br84	Br	0.669953	0.000024	-0.694712
Br85	Br	0.979012	-0.000033	-0.119210
H86	H	0.935682	0.000010	-0.710475
H87	H	0.910914	-0.840990	0.006659
Br88	Br	0.188321	0.126387	0.091026
H89	H	0.690438	-0.443859	0.226960
Br90	Br	0.188285	-0.126408	0.091039
Br91	Br	0.632332	0.126394	0.097556
Br92	Br	0.672485	0.000014	-0.523065
H93	H	0.738098	-0.728687	0.179368
Br94	Br	0.016670	0.126388	0.088500
H95	H	0.910911	-0.728652	0.006662
Br96	Br	0.016634	-0.126413	0.088502
H97	H	0.480446	0.097283	0.095338
H98	H	0.910867	-0.159004	0.006712
H99	H	0.612536	-0.097291	0.097294
H100	H	0.910871	-0.271326	0.006689
Br101	Br	0.984360	-0.427013	-0.066753
Br102	Br	0.712216	-0.288179	0.205249
H103	H	0.738063	-0.159031	0.179411
H104	H	0.958511	-0.556141	-0.040925
Br105	Br	0.712267	-0.857818	0.205211
Br106	Br	0.976478	-0.000028	-0.290859
Br107	Br	0.664592	-0.572990	0.252799
Br108	Br	0.676501	-0.000002	-0.250701
H109	H	0.713280	-0.000013	-0.103444
Br110	Br	0.972467	-0.000025	-0.563220
