data_functionalizedCrystal
_audit_creation_method	'MofGen! by Chris Wilmer'
_symmetry_space_group_name_H-M	'P1'
_symmetry_Int_Tables_number	1
_symmetry_cell_setting	triclinic
loop_
_symmetry_equiv_pos_as_xyz
  x,y,z
_cell_length_a	10.723024
_cell_length_b	10.723024
_cell_length_c	15.186229
_cell_angle_alpha	89.996943
_cell_angle_beta	90.001675
_cell_angle_gamma	95.532131
loop_
_atom_site_label
_atom_site_type_symbol
_atom_site_fract_x
_atom_site_fract_y
_atom_site_fract_z
O1	O	-0.175026	1.657187	-0.073219
O2	O	0.324974	2.157187	0.426781
O3	O	-0.191779	1.294034	-0.073221
O4	O	0.308221	1.794034	0.426779
O5	O	-0.001826	1.483987	-0.073219
O6	O	0.498174	1.983987	0.426781
O7	O	-0.364978	1.467234	-0.073221
O8	O	0.135022	1.967234	0.426779
O9	O	-0.001823	1.483974	0.073239
O10	O	0.498177	1.983974	0.573239
O11	O	-0.191776	1.294021	0.073236
O12	O	0.308224	1.794021	0.573236
O13	O	-0.175023	1.657174	0.073239
O14	O	0.324977	2.157174	0.573239
Zn15	Zn	-0.183399	1.475596	0.096491
Zn16	Zn	0.316601	1.975596	0.596491
Zn17	Zn	-0.183403	1.475612	-0.096473
Zn18	Zn	0.316597	1.975612	0.403527
O19	O	-0.364976	1.467221	0.073236
O20	O	0.135024	1.967221	0.573236
C21	C	-0.190558	1.247528	0.000007
C22	C	0.309442	1.747528	0.500007
C23	C	-0.186911	1.108974	0.000006
C24	C	0.313089	1.608974	0.500006
C25	C	-0.293198	1.033991	0.000005
C26	C	0.206802	1.533991	0.500005
C27	C	-0.289431	0.890788	0.000004
C28	C	0.210569	1.390788	0.500004
C29	C	-0.411477	1.468447	0.000007
C30	C	0.088523	1.968447	0.500007
C31	C	-0.550031	1.472094	0.000006
C32	C	-0.050031	1.972094	0.500006
C33	C	-0.625014	1.365807	0.000005
C34	C	-0.125014	1.865807	0.500005
C35	C	-0.768217	1.369574	0.000004
C36	C	-0.268217	1.869574	0.500004
C37	C	0.044675	1.482762	0.000009
C38	C	0.544675	1.982762	0.500009
C39	C	0.183229	1.479114	0.000004
C40	C	0.683229	1.979114	0.500004
C41	C	-0.176243	1.703680	0.000009
C42	C	0.323757	2.203680	0.500009
C43	C	-0.179891	1.842234	0.000004
C44	C	0.320109	2.342234	0.500004
N45	N	-0.183396	1.475593	0.228183
N46	N	0.316604	1.975593	0.728183
N47	N	-0.183396	1.475625	-0.228166
N48	N	0.316604	1.975625	0.271834
C49	C	-0.099313	1.559733	0.453907
C50	C	0.400687	2.059733	0.953907
C51	C	-0.099311	1.559737	0.546097
C52	C	0.400689	2.059737	1.046097
C53	C	-0.267482	1.391475	0.546104
C54	C	0.232518	1.891475	1.046104
C55	C	-0.267478	1.391466	0.453916
C56	C	0.232522	1.891466	0.953916
C57	C	-0.183395	1.475602	0.407820
C58	C	0.316605	1.975602	0.907820
C59	C	-0.183397	1.475615	0.592198
C60	C	0.316603	1.975615	1.092198
C61	C	-0.183394	1.475619	0.692154
C62	C	0.316606	1.975619	1.192154
C63	C	-0.183396	1.475598	0.307858
C64	C	0.316604	1.975598	0.807858
H65	H	-0.386984	1.075814	0.000009
H66	H	0.113016	1.575814	0.500009
H67	H	-0.380421	0.826355	-0.000001
H68	H	0.119579	1.326355	0.499999
C69	C	-0.006829	1.652276	0.403201
C70	C	0.493171	2.152276	0.903201
H71	H	-0.018876	1.640234	0.341695
H72	H	0.481124	2.140234	0.841695
H73	H	0.076583	1.638022	0.418311
H74	H	0.576583	2.138022	0.918311
H75	H	-0.021157	1.735676	0.418305
H76	H	0.478843	2.235676	0.918305
H77	H	-0.088896	0.906659	-0.000001
H78	H	0.411104	1.406659	0.499999
C79	C	-0.006823	1.652279	0.596794
C80	C	0.493177	2.152279	1.096794
H81	H	-0.018854	1.640228	0.658300
H82	H	0.481146	2.140228	1.158300
H83	H	-0.021133	1.735676	0.581680
H84	H	0.478867	2.235676	1.081680
H85	H	0.076591	1.638005	0.581686
H86	H	0.576591	2.138005	1.081686
C87	C	-0.729750	1.602048	0.000006
C88	C	-0.229750	2.102048	0.500006
H89	H	-0.778790	1.671260	0.000013
H90	H	-0.278790	2.171260	0.500013
H91	H	-0.678386	1.605373	-0.051064
H92	H	-0.178386	2.105373	0.448936
H93	H	-0.678393	1.605361	0.051088
H94	H	-0.178393	2.105361	0.551088
H95	H	-0.583191	1.272021	-0.000000
H96	H	-0.083191	1.772021	0.500000
H97	H	-0.335948	1.322951	0.416389
H98	H	0.164052	1.822951	0.916389
C99	C	-0.359940	1.298903	0.596808
C100	C	0.140060	1.798903	1.096808
H101	H	-0.409997	1.248778	0.556154
H102	H	0.090003	1.748778	1.056154
H103	H	-0.412314	1.344202	0.632778
H104	H	0.087686	1.844202	1.132778
H105	H	-0.314533	1.246589	0.632762
H106	H	0.185467	1.746589	1.132762
C107	C	-0.060206	1.052495	0.000007
C108	C	0.439794	1.552495	0.500007
H109	H	0.005989	1.118108	0.000014
H110	H	0.505989	1.618108	0.500014
H111	H	-0.054214	1.002275	-0.051064
H112	H	0.445786	1.502275	0.448936
H113	H	-0.054215	1.002273	0.051088
H114	H	0.445785	1.502273	0.551088
H115	H	-0.832650	1.278584	0.000008
H116	H	-0.332650	1.778584	0.500008
H117	H	-0.591853	1.565880	-0.000025
H118	H	-0.091853	2.065880	0.499975
