data_functionalizedCrystal
_audit_creation_method	'MofGen! by Chris Wilmer'
_symmetry_space_group_name_H-M	'P1'
_symmetry_Int_Tables_number	1
_symmetry_cell_setting	triclinic
loop_
_symmetry_equiv_pos_as_xyz
  x,y,z
_cell_length_a	6.817900
_cell_length_b	12.840933
_cell_length_c	14.858565
_cell_angle_alpha	81.485406
_cell_angle_beta	104.523916
_cell_angle_gamma	88.345099
loop_
_atom_site_label
_atom_site_type_symbol
_atom_site_fract_x
_atom_site_fract_y
_atom_site_fract_z
V1	V	-3.903525	0.325510	-0.130863
O2	O	-3.888143	0.319014	0.004034
O3	O	-3.860926	0.323571	-0.257311
O4	O	-3.799077	0.467344	-0.129839
O5	O	-3.950420	0.174246	-0.124320
V6	V	-4.393664	0.307382	-0.114611
O7	O	-4.150271	0.365273	-0.166513
O8	O	-4.597115	0.267618	-0.078960
O9	O	-4.213057	0.309321	0.011837
O10	O	-4.526443	0.313878	-0.249507
O11	O	-4.464166	0.458646	-0.121153
O12	O	-4.274906	0.165548	-0.115634
C13	C	-3.709151	0.318510	-0.288105
C14	C	-3.755235	0.317871	-0.391484
C15	C	-3.630269	0.501906	-0.125498
C16	C	-3.626115	0.620037	-0.125496
C17	C	-4.107056	0.130980	-0.119974
C18	C	-4.090059	0.012848	-0.119973
C19	C	-3.923900	0.315544	-0.770039
C20	C	-3.876964	0.316191	-0.664714
C21	C	-3.839568	0.316706	-0.580765
C22	C	-3.792630	0.317355	-0.475433
V23	V	-3.886474	0.811674	-0.130869
O24	O	-3.922750	0.962865	-0.124325
O25	O	-3.792173	0.664488	-0.129846
O26	O	-3.842336	0.853364	-0.257315
O27	O	-3.872240	0.772682	0.004027
V28	V	-4.374667	0.849082	-0.114622
O29	O	-4.135158	0.796228	-0.166522
O30	O	-4.575386	0.887214	-0.078974
O31	O	-4.246155	0.985021	-0.115643
O32	O	-4.455581	0.703807	-0.121168
O33	O	-4.506091	0.893990	-0.249520
O34	O	-4.195992	0.796145	0.011826
C35	C	-4.028175	0.314379	0.042627
C36	C	-3.961327	0.315025	0.146005
C37	C	-3.690112	0.860968	-0.288103
C38	C	-3.734860	0.898193	-0.391480
C39	C	-4.012150	0.771572	0.042623
C40	C	-3.946678	0.733310	0.146002
C41	C	-3.936129	0.921139	-0.444805
C42	C	-3.978201	0.956132	-0.541938
C43	C	-3.819002	0.968170	-0.585745
C44	C	-3.617715	0.945224	-0.532413
C45	C	-3.575645	0.910240	-0.435281
C46	C	-3.742063	0.702929	0.189790
C47	C	-3.680512	0.666990	0.286928
C48	C	-3.823583	0.661426	0.340274
C49	C	-4.028215	0.691813	0.296480
C50	C	-4.089759	0.727758	0.199346
H51	H	-4.065784	0.911338	-0.409151
H52	H	-3.773443	0.632153	0.419366
Br53	Br	-3.547852	0.710473	0.117413
H54	H	-4.144688	0.687277	0.339930
Br55	Br	-3.876134	1.015651	-0.717570
Br56	Br	-3.402795	0.625753	0.346340
Br57	Br	-4.367472	0.768979	0.139931
H58	H	-4.142110	0.974807	-0.585348
H59	H	-3.488107	0.955032	-0.568095
H60	H	-3.411749	0.891554	-0.391871
