data_functionalizedCrystal
_audit_creation_method	'MofGen! by Chris Wilmer'
_symmetry_space_group_name_H-M	'P1'
_symmetry_Int_Tables_number	1
_symmetry_cell_setting	triclinic
loop_
_symmetry_equiv_pos_as_xyz
  x,y,z
_cell_length_a	16.625547
_cell_length_b	11.169416
_cell_length_c	11.169409
_cell_angle_alpha	90.030874
_cell_angle_beta	90.027407
_cell_angle_gamma	90.010278
loop_
_atom_site_label
_atom_site_type_symbol
_atom_site_fract_x
_atom_site_fract_y
_atom_site_fract_z
Zn1	Zn	1.232769	-0.477712	0.678798
Zn2	Zn	1.232695	-0.678452	0.478120
Zn3	Zn	1.097925	-0.477782	0.478106
Zn4	Zn	1.097930	-0.678351	0.678738
O5	O	1.165330	-0.578074	0.578440
O6	O	1.345592	-0.504353	0.652208
O7	O	1.214784	-0.651904	0.310168
O8	O	1.115841	-0.309823	0.504747
O9	O	1.345537	-0.651837	0.504771
O10	O	1.214911	-0.309771	0.652195
O11	O	1.115769	-0.504473	0.310158
O12	O	0.985093	-0.504375	0.504689
O13	O	1.115850	-0.651665	0.846696
O14	O	0.985097	-0.651732	0.652093
O15	O	1.214916	-0.504256	0.846740
O16	O	1.214789	-0.846389	0.504713
O17	O	1.115778	-0.846314	0.652107
C18	C	1.165298	-0.889899	0.578431
C19	C	1.165358	-1.023299	0.578467
C20	C	0.955839	-0.578051	0.578384
C21	C	0.866218	-0.578070	0.578388
C22	C	0.793435	-0.578072	0.578403
C23	C	0.702127	-0.578079	0.578433
C24	C	0.629350	-0.578090	0.578463
C25	C	0.538036	-0.578098	0.578492
C26	C	1.375638	-0.578099	0.578498
C27	C	1.465260	-0.578109	0.578522
C28	C	1.165391	-0.577941	0.891483
C29	C	1.165418	-0.577884	1.024883
C30	C	1.165384	-0.265032	0.578476
C31	C	1.165407	-0.131632	0.578491
C32	C	1.165314	-0.578120	0.266616
C33	C	1.165444	-0.577839	0.133216
