data_functionalizedCrystal
_audit_creation_method	'MofGen! by Chris Wilmer'
_symmetry_space_group_name_H-M	'P1'
_symmetry_Int_Tables_number	1
_symmetry_cell_setting	triclinic
loop_
_symmetry_equiv_pos_as_xyz
  x,y,z
_cell_length_a	8.559649
_cell_length_b	10.654559
_cell_length_c	7.681481
_cell_angle_alpha	84.204597
_cell_angle_beta	94.913240
_cell_angle_gamma	77.133674
loop_
_atom_site_label
_atom_site_type_symbol
_atom_site_fract_x
_atom_site_fract_y
_atom_site_fract_z
O1	O	2.104698	-0.029228	-0.146402
O2	O	1.640214	0.035559	-0.146408
O3	O	1.883128	-0.180675	-0.146405
O4	O	1.861784	0.187007	-0.146405
O5	O	1.913026	-0.207344	0.146454
O6	O	1.670112	0.008891	0.146450
O7	O	2.134596	-0.055896	0.146456
Zn8	Zn	1.907101	-0.027737	0.192951
Zn9	Zn	1.867709	0.007400	-0.192902
O10	O	1.891682	0.160338	0.146453
C11	C	1.595688	0.027135	0.000020
C12	C	1.418470	0.041749	0.000018
C13	C	1.896506	-0.240645	0.000021
C14	C	1.891807	-0.379601	0.000010
C15	C	1.744367	-0.415910	0.000003
C16	C	1.739964	-0.546478	0.000016
C17	C	2.030453	-0.604419	0.000035
C18	C	2.034856	-0.473854	0.000034
C19	C	1.601318	-0.321657	-0.000022
C20	C	1.453867	-0.357964	-0.000030
C21	C	1.449463	-0.488532	-0.000017
C22	C	1.592512	-0.582794	0.000005
C23	C	2.179122	-0.047471	0.000024
C24	C	2.356338	-0.062085	0.000015
C25	C	1.878303	0.220308	0.000024
C26	C	1.883001	0.359265	0.000023
N27	N	1.933996	-0.051719	0.456285
N28	N	1.840826	0.031371	-0.456237
H29	H	1.438721	-0.162161	0.000007
H30	H	1.336076	0.141834	0.000008
H31	H	2.029123	-0.136527	0.531493
H32	H	1.337404	-0.281210	-0.000032
H33	H	2.146916	-0.681176	0.000049
H34	H	1.588915	-0.689109	0.000014
H35	H	1.745717	0.116181	0.468565
H36	H	1.604887	-0.215338	-0.000036
H37	H	2.154914	-0.444292	0.000042
H38	H	1.329404	-0.518090	-0.000005
