data_functionalizedCrystal
_audit_creation_method	'MofGen! by Chris Wilmer'
_symmetry_space_group_name_H-M	'P1'
_symmetry_Int_Tables_number	1
_symmetry_cell_setting	triclinic
loop_
_symmetry_equiv_pos_as_xyz
  x,y,z
_cell_length_a	8.497374
_cell_length_b	8.497374
_cell_length_c	21.295418
_cell_angle_alpha	89.983088
_cell_angle_beta	90.022758
_cell_angle_gamma	90.005237
loop_
_atom_site_label
_atom_site_type_symbol
_atom_site_fract_x
_atom_site_fract_y
_atom_site_fract_z
Zn1	Zn	0.892992	0.627664	0.962354
Zn2	Zn	0.629257	0.891409	0.962349
Zn3	Zn	0.629122	0.627710	0.857116
Zn4	Zn	0.892892	0.891468	0.857101
O5	O	0.761066	0.759563	0.909730
O6	O	0.858105	0.662606	1.050443
O7	O	0.408477	0.856424	0.948394
O8	O	0.664110	0.406941	0.871084
O9	O	0.664340	0.856379	1.050439
O10	O	0.857974	0.406907	0.948402
O11	O	0.408378	0.662685	0.871079
O12	O	0.664013	0.662742	0.769024
O13	O	1.113667	0.856479	0.871058
O14	O	0.857804	0.856524	0.769013
O15	O	1.113741	0.662663	0.948388
O16	O	0.664244	1.112180	0.948379
O17	O	0.857935	1.112223	0.871054
C18	C	0.760884	0.759646	0.746178
C19	C	0.760844	0.759719	0.676210
C20	C	1.172546	0.759565	0.909725
C21	C	1.351190	0.759582	0.909726
C22	C	0.761088	1.169443	0.909722
C23	C	0.761063	1.348087	0.909739
C24	C	0.861600	0.860755	0.643354
C25	C	0.861671	0.860716	0.577612
C26	C	0.760957	0.759658	0.544727
C27	C	0.660194	0.658603	0.577591
C28	C	0.660138	0.658633	0.643333
N29	N	0.622972	0.747296	0.441469
N30	N	0.623030	0.747276	0.379018
C31	C	0.761125	0.759558	0.346653
N32	N	0.899161	0.771891	0.379099
N33	N	0.899101	0.771919	0.441556
C34	C	0.761008	0.759613	0.473442
C35	C	0.861966	0.860557	0.242511
C36	C	0.862039	0.860507	0.176768
C37	C	0.660549	0.658401	0.176749
C38	C	0.660490	0.658443	0.242491
C39	C	0.761196	0.759529	0.275369
C40	C	0.761249	0.759481	1.073920
C41	C	0.761327	0.759446	1.143888
H42	H	0.943724	0.942991	0.550855
H43	H	0.578090	0.576353	0.670084
N44	N	0.970214	0.969778	0.678815
H45	H	1.034054	1.033779	0.648021
H46	H	1.043298	0.905695	0.706125
N47	N	0.970708	0.969498	0.141328
H48	H	1.043950	0.905502	0.114087
H49	H	1.034378	1.033516	0.172174
N50	N	0.970582	0.969573	0.277978
H51	H	1.034433	1.033566	0.247185
H52	H	1.043656	0.905486	0.305291
N53	N	0.551547	0.549622	0.542128
H54	H	0.566859	0.564944	0.495495
H55	H	0.438841	0.574026	0.553589
H56	H	0.578554	0.576110	0.149975
N57	N	0.551826	0.549458	0.277934
H58	H	0.488038	0.485425	0.247128
H59	H	0.478695	0.613556	0.305180
