data_functionalizedCrystal
_audit_creation_method	'MofGen! by Chris Wilmer'
_symmetry_space_group_name_H-M	'P1'
_symmetry_Int_Tables_number	1
_symmetry_cell_setting	triclinic
loop_
_symmetry_equiv_pos_as_xyz
  x,y,z
_cell_length_a	14.519709
_cell_length_b	16.098538
_cell_length_c	14.519731
_cell_angle_alpha	87.272855
_cell_angle_beta	83.684499
_cell_angle_gamma	92.738106
loop_
_atom_site_label
_atom_site_type_symbol
_atom_site_fract_x
_atom_site_fract_y
_atom_site_fract_z
O1	O	1.227993	0.069149	0.116782
O2	O	1.561326	0.402483	0.450115
O3	O	1.894659	0.735816	0.783448
O4	O	0.959518	0.069175	0.131017
O5	O	1.292852	0.402508	0.464350
O6	O	1.626185	0.735842	0.797683
O7	O	1.100863	0.069154	-0.010337
O8	O	1.434196	0.402487	0.322996
O9	O	1.767530	0.735820	0.656329
O10	O	1.086648	0.069170	0.258136
O11	O	1.419981	0.402504	0.591469
O12	O	1.753315	0.735837	0.924802
O13	O	1.092606	-0.069358	-0.002113
O14	O	1.425940	0.263975	0.331221
O15	O	1.759273	0.597309	0.664554
O16	O	0.951262	-0.069337	0.139241
O17	O	1.284595	0.263997	0.472575
O18	O	1.617928	0.597330	0.805908
O19	O	1.219736	-0.069362	0.125007
O20	O	1.553069	0.263971	0.458340
O21	O	1.886403	0.597304	0.791673
Zn22	Zn	1.084188	-0.091341	0.133430
Zn23	Zn	1.417521	0.241992	0.466763
Zn24	Zn	1.750854	0.575325	0.800097
Zn25	Zn	1.095066	0.091154	0.122593
Zn26	Zn	1.428400	0.424487	0.455927
Zn27	Zn	1.761733	0.757820	0.789260
O28	O	1.078391	-0.069341	0.266361
O29	O	1.411725	0.263992	0.599694
O30	O	1.745058	0.597325	0.933027
C31	C	0.921030	-0.000078	0.134465
C32	C	1.254364	0.333256	0.467799
C33	C	1.587697	0.666589	0.801132
C34	C	0.818650	-0.000068	0.132477
C35	C	1.151983	0.333265	0.465810
C36	C	1.485316	0.666599	0.799143
N37	N	1.076770	-0.215889	0.140825
N38	N	1.410103	0.117444	0.474158
N39	N	1.743437	0.450777	0.807492
C40	C	0.443751	-0.000106	0.125159
C41	C	0.777084	0.333227	0.458493
C42	C	1.110418	0.666560	0.791826
C43	C	0.548060	-0.000096	0.127191
C44	C	0.881393	0.333238	0.460525
C45	C	1.214726	0.666571	0.793858
C46	C	0.631197	-0.000087	0.128818
C47	C	0.964530	0.333247	0.462151
C48	C	1.297864	0.666580	0.795484
C49	C	0.735512	-0.000077	0.130850
C50	C	1.068846	0.333256	0.464184
C51	C	1.402179	0.666589	0.797517
C52	C	1.136785	-0.259483	0.080850
C53	C	1.470118	0.073850	0.414183
C54	C	1.803451	0.407183	0.747517
C55	C	1.131604	-0.346672	0.086032
C56	C	1.464938	-0.013338	0.419365
C57	C	1.798271	0.319995	0.752699
C58	C	1.066413	-0.390264	0.151194
C59	C	1.399747	-0.056931	0.484527
C60	C	1.733080	0.276402	0.817861
C61	C	1.006392	-0.346664	0.211172
C62	C	1.339726	-0.013331	0.544505
C63	C	1.673059	0.320003	0.877838
C64	C	1.011569	-0.259477	0.205985
C65	C	1.344902	0.073856	0.539318
C66	C	1.678236	0.407189	0.872651
C67	C	1.047647	-0.653511	0.169982
C68	C	1.380981	-0.320178	0.503315
C69	C	1.714314	0.013155	0.836648
C70	C	1.042477	-0.740704	0.175166
C71	C	1.375810	-0.407371	0.508499
C72	C	1.709144	-0.074037	0.841833
C73	C	1.167688	-0.740706	0.050025
C74	C	1.501022	-0.407372	0.383358
C75	C	1.834355	-0.074039	0.716691
C76	C	1.172863	-0.653517	0.044847
C77	C	1.506196	-0.320184	0.378180
C78	C	1.839529	0.013149	0.711514
C79	C	1.112839	-0.609925	0.104821
C80	C	1.446172	-0.276591	0.438155
C81	C	1.779505	0.056742	0.771488
C82	C	1.061118	-0.479385	0.156494
C83	C	1.394452	-0.146051	0.489828
C84	C	1.727785	0.187282	0.823161
C85	C	1.118130	-0.520806	0.099516
C86	C	1.451463	-0.187473	0.432849
C87	C	1.784796	0.145861	0.766183
C88	C	1.258224	-0.000108	0.121558
C89	C	1.591557	0.333225	0.454891
C90	C	1.924891	0.666559	0.788224
C91	C	1.360605	-0.000112	0.123546
C92	C	1.693939	0.333221	0.456879
C93	C	2.027272	0.666555	0.790213
C94	C	1.096069	-0.000102	-0.040584
C95	C	1.429402	0.333231	0.292749
C96	C	1.762735	0.666565	0.626082
C97	C	1.094072	-0.000102	-0.142965
C98	C	1.427406	0.333231	0.190369
C99	C	1.760739	0.666564	0.523702
N100	N	1.102491	0.215702	0.115191
N101	N	1.435825	0.549035	0.448524
N102	N	1.769158	0.882369	0.781858
C103	C	1.092451	-0.000100	-0.226109
C104	C	1.425784	0.333233	0.107224
C105	C	1.759117	0.666566	0.440558
C106	C	1.090424	-0.000094	-0.330418
C107	C	1.423758	0.333240	0.002915
C108	C	1.757091	0.666573	0.336249
C109	C	1.088816	-0.000088	-0.413557
C110	C	1.422150	0.333245	-0.080224
C111	C	1.755483	0.666578	0.253109
C112	C	1.086790	-0.000083	-0.517873
C113	C	1.420124	0.333250	-0.184540
C114	C	1.753457	0.666583	0.148793
C115	C	1.083186	-0.000084	0.296608
C116	C	1.416519	0.333250	0.629941
C117	C	1.749853	0.666583	0.963274
C118	C	1.085182	-0.000078	0.398987
C119	C	1.418516	0.333256	0.732321
C120	C	1.751849	0.666589	1.065654
H121	H	1.189874	-0.223996	0.027792
H122	H	1.523207	0.109337	0.361125
H123	H	1.856540	0.442671	0.694459
H124	H	0.998775	-0.618025	0.218817
H125	H	1.332108	-0.284692	0.552150
H126	H	1.665442	0.048641	0.885483
H127	H	1.180472	-0.382165	0.037195
H128	H	1.513805	-0.048832	0.370528
H129	H	1.847139	0.284501	0.703862
Cl130	Cl	0.960516	-0.795501	0.257094
Cl131	Cl	1.293849	-0.462167	0.590427
Cl132	Cl	1.627183	-0.128834	0.923760
H133	H	1.225946	-0.618026	-0.008213
H134	H	1.559280	-0.284693	0.325120
H135	H	1.892613	0.048641	0.658454
H136	H	1.216556	-0.776207	0.001195
H137	H	1.549889	-0.442873	0.334529
H138	H	1.883223	-0.109540	0.667862
H139	H	0.953308	-0.382162	0.264225
H140	H	1.286641	-0.048829	0.597558
H141	H	1.619975	0.284504	0.930892
H142	H	0.962698	-0.223984	0.254821
H143	H	1.296031	0.109349	0.588155
H144	H	1.629365	0.442683	0.921488
Cl145	Cl	1.200078	-0.466003	0.017598
Cl146	Cl	1.533412	-0.132670	0.350931
Cl147	Cl	1.866745	0.200663	0.684264
H148	H	1.008040	-0.514885	0.209552
H149	H	1.341373	-0.181551	0.542885
H150	H	1.674707	0.151782	0.876219
