data_functionalizedCrystal
_audit_creation_method	'MofGen! by Chris Wilmer'
_symmetry_space_group_name_H-M	'P1'
_symmetry_Int_Tables_number	1
_symmetry_cell_setting	triclinic
loop_
_symmetry_equiv_pos_as_xyz
  x,y,z
_cell_length_a	15.297475
_cell_length_b	12.594516
_cell_length_c	15.296720
_cell_angle_alpha	99.650531
_cell_angle_beta	91.617114
_cell_angle_gamma	80.319586
loop_
_atom_site_label
_atom_site_type_symbol
_atom_site_fract_x
_atom_site_fract_y
_atom_site_fract_z
Zn1	Zn	1.253466	-0.828402	-0.726662
Zn2	Zn	1.278741	-0.981670	-0.580189
Zn3	Zn	1.132339	-0.768606	-0.554898
Zn4	Zn	1.106966	-0.971207	-0.701317
O5	O	1.192878	-0.887471	-0.640767
O6	O	1.379399	-0.878137	-0.728424
O7	O	1.280516	-0.932761	-0.454258
O8	O	1.148448	-0.627605	-0.577705
O9	O	1.397968	-0.990742	-0.620811
O10	O	1.237439	-0.671537	-0.703900
O11	O	1.172956	-0.776223	-0.435677
O12	O	1.006393	-0.766078	-0.553130
O13	O	1.105203	-0.972910	-0.827255
O14	O	0.987752	-0.914928	-0.660703
O15	O	1.212836	-0.867992	-0.845876
O16	O	1.255913	-1.129215	-0.596235
O17	O	1.129711	-1.121528	-0.685227
C18	C	0.965289	-0.832880	-0.601422
C19	C	0.867921	-0.809554	-0.584611
C20	C	0.554794	-1.054189	-0.760920
C21	C	0.646276	-1.076112	-0.776712
C22	C	0.701692	-1.009475	-0.728689
C23	C	0.665617	-0.920910	-0.664869
C24	C	0.574127	-0.898991	-0.649070
C25	C	0.721024	-0.854276	-0.616839
C26	C	0.684949	-0.765712	-0.553020
C27	C	0.593468	-0.743795	-0.537225
C28	C	0.538052	-0.810433	-0.585248
C29	C	0.812514	-0.876196	-0.632638
C30	C	0.831847	-0.720997	-0.520789
C31	C	0.740365	-0.699074	-0.504996
C32	C	1.192822	-1.163997	-0.640748
C33	C	1.192873	-1.282320	-0.640783
C34	C	1.124233	-1.347423	-0.689144
C35	C	1.116732	-1.399680	-0.605532
C36	C	1.200452	-1.440883	-0.724423
C37	C	1.185337	-1.333002	-0.557122
C38	C	1.269085	-1.374217	-0.676073
C39	C	1.261623	-1.426440	-0.592411
C40	C	1.421356	-0.942277	-0.680265
C41	C	1.518720	-0.965632	-0.697097
C42	C	1.153370	-0.925954	-0.869237
C43	C	1.136534	-0.942353	-0.966597
C44	C	1.192955	-0.609875	-0.640809
C45	C	1.192987	-0.491580	-0.640826
C46	C	1.313239	-0.770087	-1.279821
C47	C	1.329063	-0.754682	-1.188347
C48	C	1.280932	-0.801598	-1.132905
C49	C	1.216975	-0.863922	-1.168946
C50	C	1.201155	-0.879335	-1.260430
C51	C	1.168847	-0.910847	-1.113514
C52	C	1.104891	-0.973170	-1.149555
C53	C	1.089073	-0.988580	-1.241030
C54	C	1.137203	-0.941664	-1.296472
C55	C	1.184668	-0.895433	-1.022030
C56	C	1.072583	-1.004682	-1.002639
C57	C	1.056760	-1.020086	-1.094113
C58	C	1.232282	-0.849074	-0.413194
C59	C	1.249288	-0.832416	-0.315863
H60	H	0.509668	-1.108442	-0.800008
C61	C	0.802318	-1.033579	-0.746069
H62	H	0.815865	-1.095860	-0.790961
H63	H	0.832788	-1.047300	-0.693092
H64	H	0.820379	-0.972445	-0.764898
C65	C	1.356069	-1.358097	-0.716388
H66	H	1.361326	-1.395459	-0.775828
H67	H	1.404894	-1.386466	-0.682638
H68	H	1.355646	-1.282425	-0.715585
C69	C	1.029738	-1.415810	-0.565230
H70	H	0.980984	-1.388676	-0.599643
H71	H	1.023922	-1.377338	-0.506161
H72	H	1.030633	-1.491377	-0.565043
C73	C	1.045721	-1.300690	-0.744273
H74	H	0.991663	-1.308812	-0.719072
H75	H	1.050532	-1.338974	-0.803432
H76	H	1.046524	-1.225437	-0.744305
C77	C	1.399403	-0.686126	-1.148702
H78	H	1.401937	-0.683674	-1.086282
H79	H	1.384012	-0.614069	-1.161490
H80	H	1.455664	-0.718354	-1.173867
C81	C	0.553781	-0.646371	-0.467035
H82	H	0.491361	-0.642863	-0.464503
H83	H	0.566556	-0.580661	-0.482557
H84	H	0.578936	-0.655497	-0.410737
H85	H	0.675642	-1.148223	-0.828672
H86	H	0.463559	-0.792586	-0.572395
C87	C	1.119800	-0.958609	-1.397095
H88	H	1.157626	-0.921741	-1.424948
H89	H	1.059698	-0.930132	-1.408019
H90	H	1.131356	-1.034413	-1.420400
H91	H	0.710979	-0.626964	-0.453034
C92	C	0.986415	-1.088646	-1.133762
H93	H	0.960009	-1.114377	-1.087646
H94	H	1.013738	-1.149065	-1.175235
H95	H	0.942088	-1.044778	-1.162854
C96	C	1.366172	-0.718484	-1.340805
H97	H	1.347585	-0.736586	-1.400446
H98	H	1.427616	-0.745649	-1.335989
H99	H	1.355957	-0.641370	-1.323611
H100	H	1.293819	-0.789052	-1.058424
C101	C	1.176634	-1.269983	-0.461546
H102	H	1.173073	-1.319383	-0.421673
H103	H	1.124509	-1.216394	-0.456646
H104	H	1.226963	-1.235306	-0.447351
H105	H	1.206818	-1.487649	-0.795139
H106	H	1.319729	-1.460800	-0.551475
C107	C	1.255010	-0.826878	-0.982390
H108	H	1.257546	-0.824422	-0.919969
H109	H	1.239620	-0.754822	-0.995181
H110	H	1.311270	-0.859109	-1.007556
H111	H	1.037002	-1.039339	-1.270373
H112	H	1.033393	-1.042887	-0.957499
H113	H	0.841877	-0.948305	-0.684601
H114	H	0.876967	-0.666736	-0.481682
