data_functionalizedCrystal
_audit_creation_method	'MofGen! by Chris Wilmer'
_symmetry_space_group_name_H-M	'P1'
_symmetry_Int_Tables_number	1
_symmetry_cell_setting	triclinic
loop_
_symmetry_equiv_pos_as_xyz
  x,y,z
_cell_length_a	12.759401
_cell_length_b	21.295417
_cell_length_c	12.759393
_cell_angle_alpha	90.038095
_cell_angle_beta	90.020938
_cell_angle_gamma	90.032032
loop_
_atom_site_label
_atom_site_type_symbol
_atom_site_fract_x
_atom_site_fract_y
_atom_site_fract_z
Zn1	Zn	1.606151	-0.250553	0.593965
Zn2	Zn	1.605994	-0.355835	0.418261
Zn3	Zn	1.430450	-0.250587	0.418300
Zn4	Zn	1.430393	-0.355791	0.593899
O5	O	1.518247	-0.303192	0.506106
O6	O	1.753151	-0.264523	0.570669
O7	O	1.582665	-0.341906	0.271245
O8	O	1.453846	-0.162493	0.441646
O9	O	1.753035	-0.341874	0.441580
O10	O	1.582933	-0.162468	0.570706
O11	O	1.453694	-0.264581	0.271274
O12	O	1.283421	-0.264538	0.441582
O13	O	1.453750	-0.341799	0.740929
O14	O	1.283380	-0.341831	0.570594
O15	O	1.582879	-0.264481	0.740977
O16	O	1.582610	-0.443919	0.441516
O17	O	1.453597	-0.443886	0.570556
C18	C	1.245279	-0.303184	0.506085
C19	C	1.128503	-0.303196	0.506101
C20	C	1.073647	-0.343504	0.573172
C21	C	0.963923	-0.343506	0.573193
C22	C	0.963921	-0.262891	0.439063
C23	C	1.073643	-0.262886	0.439048
C24	C	0.814016	-0.366094	0.697048
C25	C	0.759156	-0.406411	0.764110
C26	C	0.794726	-0.467844	0.780044
C27	C	0.885153	-0.488971	0.728901
C28	C	0.940008	-0.448657	0.661832
C29	C	0.904440	-0.387215	0.645918
C30	C	1.223551	-0.240305	0.315192
C31	C	1.278407	-0.199993	0.248116
C32	C	1.242840	-0.138559	0.232171
C33	C	1.152409	-0.117434	0.283295
C34	C	1.097553	-0.157746	0.350371
C35	C	1.133128	-0.219179	0.366317
C36	C	1.518109	-0.466743	0.506048
C37	C	1.518146	-0.536711	0.506058
C38	C	1.585383	-0.569574	0.438936
C39	C	1.585432	-0.635316	0.438960
C40	C	1.518226	-0.668194	0.506094
C41	C	1.450985	-0.635323	0.573230
C42	C	1.450945	-0.569582	0.573212
N43	N	1.426319	-0.771460	0.514097
N44	N	1.426360	-0.833912	0.514108
C45	C	1.518344	-0.866268	0.506155
N46	N	1.610287	-0.833814	0.498169
N47	N	1.610245	-0.771357	0.498153
C48	C	1.518262	-0.739479	0.506122
C49	C	1.585640	-0.970417	0.439054
C50	C	1.585691	-1.036160	0.439085
C51	C	1.451233	-1.036166	0.573350
C52	C	1.451192	-0.970423	0.573325
C53	C	1.518393	-0.937553	0.506171
C54	C	1.792280	-0.303200	0.506128
C55	C	1.909057	-0.303203	0.506137
C56	C	1.518325	-0.303131	0.780140
C57	C	1.518359	-0.303105	0.896916
C58	C	1.518414	-0.139001	0.506188
C59	C	1.518485	-0.069033	0.506222
C60	C	1.518229	-0.303206	0.233139
C61	C	1.518399	-0.303055	0.116363
C62	C	1.585601	-0.262839	0.951805
C63	C	1.585619	-0.262812	1.061529
C64	C	1.451149	-0.343322	1.061466
C65	C	1.451127	-0.343346	0.951744
C66	C	1.623265	-0.188542	1.211524
C67	C	1.690524	-0.148282	1.266417
C68	C	1.793041	-0.138629	1.230827
C69	C	1.828321	-0.169246	1.140347
C70	C	1.761068	-0.209511	1.085460
C71	C	1.658536	-0.219152	1.121048
C72	C	1.413492	-0.417617	0.801747
C73	C	1.346243	-0.457885	0.746858
C74	C	1.243724	-0.467545	0.782446
C75	C	1.208448	-0.436939	0.872929
C76	C	1.275697	-0.396670	0.927818
C77	C	1.378215	-0.387010	0.892223
H78	H	0.750052	-0.500671	0.834648
H79	H	1.640363	-0.943652	0.384377
O80	O	1.237647	-0.363650	1.025403
H81	H	1.214006	-0.399077	1.084634
H82	H	1.287509	-0.105740	0.177544
H83	H	0.685531	-0.389203	0.805751
H84	H	1.396192	-0.542825	0.627872
H85	H	1.374978	-0.482812	0.673189
H86	H	1.847803	-0.105848	1.275529
H87	H	1.252525	-0.290328	0.328178
H88	H	1.539785	-0.196393	1.240504
O89	O	0.775654	-0.299829	0.679879
H90	H	0.828997	-0.275340	0.624664
H91	H	1.496969	-0.409751	0.772758
H92	H	1.013631	-0.465858	0.620192
O93	O	1.132823	-0.386971	0.645501
H94	H	1.076239	-0.414994	0.692151
O95	O	1.378642	-0.934980	0.645701
H96	H	1.396606	-0.947549	0.728181
O97	O	1.378495	-0.670786	0.645631
H98	H	1.396468	-0.658126	0.728104
H99	H	1.352041	-0.217199	0.206488
O100	O	0.923516	-0.555235	0.746078
H101	H	0.870185	-0.579717	0.801313
H102	H	0.919240	-0.230073	0.384470
H103	H	1.640449	-1.062916	0.384429
H104	H	1.396517	-1.062934	0.628017
O105	O	1.114043	-0.051175	0.266072
H106	H	1.033726	-0.052474	0.232694
O107	O	1.000011	-0.134955	0.405500
H108	H	0.932420	-0.164692	0.382216
H109	H	1.124970	-0.444806	0.901908
O110	O	1.657875	-0.534119	0.366525
H111	H	1.704647	-0.568020	0.319862
O112	O	1.652469	-0.115258	1.363998
H113	H	1.716465	-0.085647	1.396193
O114	O	1.657945	-0.670774	0.366552
H115	H	1.704661	-0.636872	0.319849
O116	O	1.658103	-0.219435	0.892664
H117	H	1.704856	-0.191427	0.949271
O118	O	1.799098	-0.242529	0.987871
H119	H	1.881686	-0.229052	0.972339
O120	O	1.171185	-0.510977	0.723246
H121	H	1.212932	-0.530639	0.654347
H122	H	1.396414	-0.376086	1.106120
O123	O	1.938903	-0.158845	1.101969
H124	H	1.979740	-0.125700	1.155333
