data_functionalizedCrystal
_audit_creation_method	'MofGen! by Chris Wilmer'
_symmetry_space_group_name_H-M	'P1'
_symmetry_Int_Tables_number	1
_symmetry_cell_setting	triclinic
loop_
_symmetry_equiv_pos_as_xyz
  x,y,z
_cell_length_a	10.540510
_cell_length_b	10.489746
_cell_length_c	9.616153
_cell_angle_alpha	89.997463
_cell_angle_beta	89.992871
_cell_angle_gamma	84.527306
loop_
_atom_site_label
_atom_site_type_symbol
_atom_site_fract_x
_atom_site_fract_y
_atom_site_fract_z
O1	O	1.685939	0.179578	-0.115656
O2	O	1.316523	0.196555	-0.115657
O3	O	1.509634	0.002467	-0.115646
O4	O	1.492829	0.373666	-0.115666
O5	O	1.509607	0.002471	0.115646
O6	O	1.316497	0.196559	0.115635
O7	O	1.685912	0.179582	0.115636
Zn8	Zn	1.501200	0.188071	0.152358
Zn9	Zn	1.501235	0.188066	-0.152379
O10	O	1.492802	0.373670	0.115625
C11	C	1.269206	0.195292	-0.000011
C12	C	1.128256	0.191507	-0.000011
C13	C	0.910819	0.326339	-0.000550
C14	C	1.057415	0.330377	-0.000020
C15	C	1.083471	0.120422	0.132068
C16	C	0.936710	0.117368	0.132171
C17	C	0.936933	0.114471	-0.130851
C18	C	1.083276	0.121058	-0.132588
C19	C	1.508350	-0.045062	-0.000000
C20	C	1.504548	-0.186690	-0.000001
C21	C	1.379428	-0.339519	-0.000019
C22	C	1.441996	-0.262143	-0.114055
C23	C	1.441999	-0.262181	0.113981
C24	C	1.560407	-0.361662	-0.114162
C25	C	1.560393	-0.361704	0.113976
C26	C	1.623048	-0.284378	-0.000088
C27	C	1.733229	0.180845	-0.000013
C28	C	1.874180	0.184630	-0.000022
C29	C	1.494086	0.421199	-0.000023
C30	C	1.497887	0.562828	-0.000032
N31	N	1.501186	0.188074	0.360332
N32	N	1.501260	0.188053	-0.360353
C33	C	1.397569	0.291550	0.580697
C34	C	1.397797	0.291938	0.419529
C35	C	1.633915	0.218339	0.418780
C36	C	1.633350	0.219072	0.579998
C37	C	1.473395	0.053994	0.580251
C38	C	1.470348	0.054864	0.419025
H39	H	0.914765	0.010208	-0.131738
H40	H	1.391958	-0.218723	0.210390
H41	H	1.415710	0.391398	0.380944
N42	N	1.273470	0.269093	0.629437
N43	N	1.209735	0.352699	0.699539
H44	H	1.122089	0.336839	0.733981
N45	N	1.122133	0.182374	0.255375
N46	N	1.040316	0.227635	0.340594
H47	H	1.067616	0.271397	0.427678
N48	N	1.094241	0.400147	-0.118801
N49	N	1.011599	0.446195	-0.202669
H50	H	1.037599	0.495477	-0.286561
N51	N	1.379304	-0.207593	-0.235017
N52	N	1.418540	-0.241158	-0.353370
H53	H	1.374259	-0.202639	-0.438800
N54	N	1.142889	-0.007831	0.138287
N55	N	1.076123	-0.100121	0.137870
H56	H	1.118090	-0.190699	0.142267
H57	H	1.610392	-0.404956	-0.210680
N58	N	1.419755	0.415610	0.631504
N59	N	1.511601	0.428132	0.710941
H60	H	1.527275	0.515748	0.746826
H61	H	1.726131	-0.259926	-0.000150
N62	N	1.623048	-0.416280	0.234936
N63	N	1.582608	-0.384159	0.353263
H64	H	1.626848	-0.422703	0.438703
H65	H	1.299176	0.273730	0.380015
N66	N	1.663926	0.341768	0.627133
N67	N	1.685530	0.426263	0.540964
H68	H	1.707124	0.512922	0.574245
N69	N	1.354514	0.017859	0.631279
N70	N	1.316257	-0.086333	0.595083
H71	H	1.232292	-0.111843	0.631121
N72	N	1.733130	0.128176	0.628903
N73	N	1.802966	0.064407	0.543963
H74	H	1.873439	0.000217	0.578494
H75	H	1.276422	-0.364215	-0.000133
N76	N	1.119226	0.185921	-0.255169
N77	N	1.191334	0.128199	-0.342548
H78	H	1.216735	0.174011	-0.429119
N79	N	0.883700	0.169534	-0.256432
N80	N	0.798853	0.261165	-0.251029
H81	H	0.761252	0.300066	-0.339714
H82	H	1.540865	-0.025852	0.378734
N83	N	1.568207	-0.042668	0.628077
N84	N	1.563297	-0.156673	0.592388
H85	H	1.630259	-0.224935	0.626171
H86	H	1.712961	0.145015	0.380432
H87	H	0.868884	0.380439	-0.095272
H88	H	1.658826	0.315039	0.378384
H89	H	1.372705	0.031923	0.380826
H90	H	0.867309	0.380131	0.093629
N91	N	0.907814	-0.012919	0.139700
N92	N	0.845285	-0.058913	0.044706
H93	H	0.824881	-0.150927	0.050030
N94	N	1.093023	0.400663	0.118887
N95	N	1.009555	0.446873	0.201749
H96	H	1.034696	0.496552	0.285710
N97	N	0.886267	0.178342	0.256012
N98	N	0.902748	0.292807	0.279440
H99	H	0.867132	0.335877	0.366905
H100	H	1.132330	0.019673	-0.140559
