data_functionalizedCrystal
_audit_creation_method	'MofGen! by Chris Wilmer'
_symmetry_space_group_name_H-M	'P1'
_symmetry_Int_Tables_number	1
_symmetry_cell_setting	triclinic
loop_
_symmetry_equiv_pos_as_xyz
  x,y,z
_cell_length_a	18.101398
_cell_length_b	18.101395
_cell_length_c	18.101389
_cell_angle_alpha	89.983159
_cell_angle_beta	90.024327
_cell_angle_gamma	89.973629
loop_
_atom_site_label
_atom_site_type_symbol
_atom_site_fract_x
_atom_site_fract_y
_atom_site_fract_z
Zn1	Zn	1.132121	0.295001	0.418847
Zn2	Zn	1.632121	0.795001	0.918847
Zn3	Zn	1.132017	0.418826	0.295009
Zn4	Zn	1.632017	0.918826	0.795009
Zn5	Zn	1.008280	0.294993	0.295008
Zn6	Zn	1.508280	0.794993	0.795008
Zn7	Zn	1.008231	0.418795	0.418797
Zn8	Zn	1.508231	0.918795	0.918797
O9	O	1.070162	0.356904	0.356915
O10	O	1.570162	0.856904	0.856915
O11	O	1.235740	0.311443	0.402440
O12	O	1.735740	0.811443	0.902440
O13	O	1.115580	0.402410	0.191376
O14	O	1.615580	0.902410	0.691376
O15	O	1.024772	0.191361	0.311456
O16	O	1.524772	0.691361	0.811456
O17	O	1.235664	0.402417	0.311457
O18	O	1.735664	0.902417	0.811457
O19	O	1.115757	0.191367	0.402440
O20	O	1.615757	0.691367	0.902440
O21	O	1.024671	0.311430	0.191375
O22	O	1.524671	0.811430	0.691375
O23	O	0.904641	0.311399	0.311408
O24	O	1.404641	0.811399	0.811408
O25	O	1.024688	0.402363	0.522437
O26	O	1.524688	0.902363	1.022437
O27	O	0.904604	0.402356	0.402355
O28	O	1.404604	0.902356	0.902355
O29	O	1.115710	0.311412	0.522473
O30	O	1.615710	0.811412	1.022473
O31	O	1.115532	0.522455	0.311409
O32	O	1.615532	1.022455	0.811409
O33	O	1.024587	0.522432	0.402356
O34	O	1.524587	1.022432	0.902356
C35	C	0.877752	0.356874	0.356877
C36	C	1.377752	0.856874	0.856877
C37	C	0.795437	0.356879	0.356878
C38	C	1.295437	0.856879	0.856878
C39	C	1.070063	0.549314	0.356893
C40	C	1.570063	1.049314	0.856893
C41	C	1.070088	0.631628	0.356909
C42	C	1.570088	1.131628	0.856909
C43	C	0.496347	0.356925	0.356940
C44	C	0.996347	0.856925	0.856940
C45	C	0.527670	0.299412	0.299997
C46	C	1.027670	0.799412	0.799997
C47	C	0.613288	0.299566	0.299754
C48	C	1.113288	0.799566	0.799754
C49	C	0.644729	0.356901	0.356909
C50	C	1.144729	0.856901	0.856909
C51	C	0.613611	0.434909	0.335587
C52	C	1.113611	0.934909	0.835587
C53	C	0.527966	0.434590	0.335191
C54	C	1.027966	0.934590	0.835191
C55	C	0.527961	0.337109	0.435339
C56	C	1.027961	0.837109	0.935339
C57	C	0.613612	0.335371	0.434911
C58	C	1.113612	0.835371	0.934911
C59	C	0.728589	0.356893	0.356893
C60	C	1.228589	0.856893	0.856893
C61	C	0.412487	0.356939	0.356954
C62	C	0.912487	0.856939	0.856954
C63	C	1.070205	0.356885	0.550077
C64	C	1.570205	0.856885	1.050077
C65	C	1.070223	0.356877	0.632391
C66	C	1.570223	0.856877	1.132391
C67	C	1.263324	0.356934	0.356954
C68	C	1.763324	0.856934	0.856954
C69	C	1.345638	0.356948	0.356971
C70	C	1.845638	0.856948	0.856971
C71	C	1.070282	0.163742	0.356953
C72	C	1.570282	0.663742	0.856953
C73	C	1.070333	0.081428	0.356970
C74	C	1.570333	0.581428	0.856970
C75	C	1.070251	0.930719	0.356949
C76	C	1.570251	1.430719	0.856949
C77	C	1.013163	0.899410	0.414312
C78	C	1.513163	1.399410	0.914312
C79	C	1.012892	0.813792	0.414133
C80	C	1.512892	1.313792	0.914133
C81	C	1.070170	0.782337	0.356930
C82	C	1.570170	1.282337	0.856930
C83	C	1.049041	0.813472	0.278878
C84	C	1.549041	1.313472	0.778878
C85	C	1.048673	0.899117	0.279221
C86	C	1.548673	1.399117	0.779221
C87	C	1.148593	0.899073	0.376950
C88	C	1.648593	1.399073	0.876950
C89	C	1.148132	0.813422	0.378661
C90	C	1.648132	1.313422	0.878661
C91	C	1.070126	0.698477	0.356914
C92	C	1.570126	1.198477	0.856914
C93	C	1.070293	1.014579	0.356959
C94	C	1.570293	1.514579	0.856959
C95	C	1.070162	0.356869	0.164505
C96	C	1.570162	0.856869	0.664505
C97	C	1.070287	0.356668	0.082191
C98	C	1.570287	0.856668	0.582191
C99	C	1.070266	0.356738	0.931482
C100	C	1.570266	0.856738	1.431482
C101	C	1.012801	0.413780	0.900134
C102	C	1.512801	0.913780	1.400134
C103	C	1.012956	0.414045	0.814516
C104	C	1.512956	0.914045	1.314516
C105	C	1.070244	0.356807	0.783100
C106	C	1.570244	0.856807	1.283100
C107	C	1.148270	0.377998	0.814206
C108	C	1.648270	0.877998	1.314206
C109	C	1.147949	0.378372	0.899851
C110	C	1.647949	0.878372	1.399851
C111	C	1.050385	0.278379	0.899905
C112	C	1.550385	0.778379	1.399905
C113	C	1.048649	0.278832	0.814254
C114	C	1.548649	0.778832	1.314254
C115	C	1.070237	0.356845	0.699240
C116	C	1.570237	0.856845	1.199240
C117	C	1.070279	0.356702	1.015342
C118	C	1.570279	0.856702	1.515342
H119	H	0.634329	0.241719	0.313119
H120	H	1.134329	0.741719	0.813119
N121	N	0.640593	0.493197	0.388794
N122	N	1.140593	0.993197	0.888794
H123	H	0.619914	0.542889	0.374029
H124	H	1.119914	1.042889	0.874029
H125	H	0.623597	0.480534	0.440400
H126	H	1.123597	0.980534	0.940400
N127	N	0.500502	0.493279	0.387716
N128	N	1.000502	0.993279	0.887716
H129	H	0.469521	0.469565	0.427589
H130	H	0.969521	0.969565	0.927589
H131	H	0.544070	0.519228	0.410974
H132	H	1.044070	1.019228	0.910974
H133	H	0.994478	0.259074	0.921490
H134	H	1.494478	0.759074	1.421490
N135	N	0.641967	0.457551	0.260483
N136	N	1.141967	0.957551	0.760483
H137	H	0.598887	0.465485	0.225898
H138	H	1.098887	0.965485	0.725898
H139	H	0.671059	0.504920	0.265127
H140	H	1.171059	1.004920	0.765127
N141	N	1.030338	0.490979	0.787378
N142	N	1.530338	0.990979	1.287378
H143	H	1.037937	0.524852	0.831051
H144	H	1.537937	1.024852	1.331051
H145	H	1.076778	0.489715	0.756498
H146	H	1.576778	0.989715	1.256498
H147	H	0.507099	0.241388	0.313215
H148	H	1.007099	0.741388	0.813215
N149	N	1.206512	0.324692	0.787270
N150	N	1.706512	0.824692	1.287270
H151	H	1.182822	0.286203	0.754563
H152	H	1.682822	0.786203	1.254563
H153	H	1.245159	0.352541	0.758247
H154	H	1.745159	0.852541	1.258247
N155	N	1.101343	0.926546	0.220658
N156	N	1.601343	1.426546	0.720658
H157	H	1.073439	0.957503	0.183528
H158	H	1.573439	1.457503	0.683528
H159	H	1.141168	0.957477	0.244522
H160	H	1.641168	1.457477	0.744522
N161	N	0.972594	0.257658	0.787317
N162	N	1.472594	0.757658	1.287317
H163	H	0.975787	0.210436	0.757780
H164	H	1.475787	0.710436	1.257780
H165	H	0.938874	0.249992	0.831088
H166	H	1.438874	0.749992	1.331088
H167	H	0.954768	0.400655	0.920720
H168	H	1.454768	0.900655	1.420720
N169	N	1.030395	0.785903	0.490794
N170	N	1.530395	1.285903	0.990794
H171	H	0.987879	0.755030	0.509529
H172	H	1.487879	1.255030	1.009529
H173	H	1.076689	0.754784	0.489152
H174	H	1.576689	1.254784	0.989152
N175	N	1.206597	0.325745	0.927328
N176	N	1.706597	0.825745	1.427328
H177	H	1.206848	0.325579	0.983124
H178	H	1.706848	0.825579	1.483124
H179	H	1.195664	0.274340	0.908615
H180	H	1.695664	0.774340	1.408615
H181	H	1.164065	0.793071	0.436103
H182	H	1.664065	1.293071	0.936103
H183	H	0.633956	0.277966	0.450989
H184	H	1.133956	0.777966	0.950989
H185	H	1.165415	0.434671	0.792765
H186	H	1.665415	0.934671	1.292765
N187	N	1.207459	0.785054	0.327361
N188	N	1.707459	1.285054	0.827361
H189	H	1.184537	0.751503	0.289132
H190	H	1.684537	1.251503	0.789132
H191	H	1.232132	0.828133	0.301911
H192	H	1.732132	1.328133	0.801911
H193	H	1.087450	0.234076	0.792868
H194	H	1.587450	0.734076	1.292868
N195	N	0.498859	0.316356	0.223549
N196	N	0.998859	0.816356	0.723549
H197	H	0.465636	0.361149	0.225634
H198	H	0.965636	0.861149	0.725634
H199	H	0.541703	0.326539	0.189309
H200	H	1.041703	0.826539	0.689309
H201	H	1.092240	0.235880	0.920179
H202	H	1.592240	0.735880	1.420179
H203	H	1.025796	0.471508	0.921661
H204	H	1.525796	0.971508	1.421661
N205	N	0.640381	0.316916	0.222803
N206	N	1.140381	0.816916	0.722803
H207	H	0.621495	0.367080	0.207257
H208	H	1.121495	0.867080	0.707257
H209	H	0.696173	0.317045	0.222374
H210	H	1.196173	0.817045	0.722374
N211	N	1.102381	0.786489	0.220714
N212	N	1.602381	1.286489	0.720714
H213	H	1.140847	0.753743	0.244457
H214	H	1.640847	1.253743	0.744457
H215	H	1.074549	0.757495	0.182019
H216	H	1.574549	1.257495	0.682019
N217	N	0.973990	0.785139	0.256026
N218	N	1.473990	1.285139	0.756026
H219	H	0.953569	0.752143	0.296113
H220	H	1.453569	1.252143	0.796113
H221	H	0.939487	0.828266	0.248002
H222	H	1.439487	1.328266	0.748002
H223	H	0.507954	0.451397	0.277877
H224	H	1.007954	0.951397	0.777877
H225	H	0.954823	0.793362	0.400884
H226	H	1.454823	1.293362	0.900884
H227	H	1.167856	0.920633	0.432895
H228	H	1.667856	1.420633	0.932895
H229	H	0.506389	0.281216	0.454725
H230	H	1.006389	0.781216	0.954725
H231	H	0.635017	0.374209	0.479611
H232	H	1.135017	0.874209	0.979611
N233	N	1.030491	0.926647	0.491223
N234	N	1.530491	1.426647	0.991223
H235	H	0.987045	0.955574	0.510946
H236	H	1.487045	1.455574	1.010946
H237	H	1.040540	0.883037	0.524565
H238	H	1.540540	1.383037	1.024565
N239	N	1.204935	0.925894	0.321615
N240	N	1.704935	1.425894	0.821615
H241	H	1.255155	0.905388	0.334742
H242	H	1.755155	1.405388	0.834742
H243	H	1.190512	0.908610	0.270564
H244	H	1.690512	1.408610	0.770564
N245	N	0.501134	0.392582	0.491554
N246	N	1.001134	0.892582	0.991554
H247	H	0.518423	0.443617	0.477092
H248	H	1.018423	0.943617	0.977092
H249	H	0.445378	0.391668	0.493400
H250	H	0.945378	0.891668	0.993400
N251	N	0.936709	0.927988	0.396989
N252	N	1.436709	1.427988	0.896989
H253	H	0.938893	0.961128	0.352145
H254	H	1.438893	1.461128	0.852145
H255	H	0.902711	0.884977	0.386700
H256	H	1.402711	1.384977	0.886700
N257	N	0.936317	0.396455	0.786666
N258	N	1.436317	0.896455	1.286666
H259	H	0.900421	0.434880	0.805335
H260	H	1.400421	0.934880	1.305335
H261	H	0.936326	0.396574	0.730871
H262	H	1.436326	0.896574	1.230871
N263	N	0.972817	0.925658	0.256779
N264	N	1.472817	1.425658	0.756779
H265	H	0.934928	0.906415	0.292917
H266	H	1.434928	1.406415	0.792917
H267	H	0.971885	0.981445	0.256768
H268	H	1.471885	1.481445	0.756768
N269	N	1.170274	0.454245	0.926331
N270	N	1.670274	0.954245	1.426331
H271	H	1.180229	0.487134	0.882369
H272	H	1.680229	0.987134	1.382369
H273	H	1.129076	0.476099	0.956951
H274	H	1.629076	0.976099	1.456951
