data_functionalizedCrystal
_audit_creation_method	'MofGen! by Chris Wilmer'
_symmetry_space_group_name_H-M	'P1'
_symmetry_Int_Tables_number	1
_symmetry_cell_setting	triclinic
loop_
_symmetry_equiv_pos_as_xyz
  x,y,z
_cell_length_a	27.731993
_cell_length_b	27.731996
_cell_length_c	26.809956
_cell_angle_alpha	89.998344
_cell_angle_beta	90.002784
_cell_angle_gamma	82.620891
loop_
_atom_site_label
_atom_site_type_symbol
_atom_site_fract_x
_atom_site_fract_y
_atom_site_fract_z
O1	O	0.640938	0.057386	-0.041352
O2	O	0.500139	0.066159	-0.041383
O3	O	0.574924	-0.008627	-0.041356
O4	O	0.566152	0.132172	-0.041379
O5	O	0.574910	-0.008615	0.041604
O6	O	0.500125	0.066171	0.041576
O7	O	0.640923	0.057398	0.041607
Zn8	Zn	0.570522	0.061786	0.054763
Zn9	Zn	0.570540	0.061771	-0.054539
O10	O	0.566138	0.132184	0.041580
C11	C	0.482124	0.065985	0.000093
C12	C	0.428468	0.065443	0.000081
C13	C	0.045316	0.061506	-0.045115
C14	C	0.246973	0.063573	-0.045129
O15	O	0.273053	0.063815	-0.083589
N16	N	0.272186	0.063838	0.000091
C17	C	0.246981	0.063583	0.045318
O18	O	0.273054	0.063850	0.083780
C19	C	0.045326	0.061512	0.045331
C20	C	0.020115	0.061252	0.000108
C21	C	0.020106	0.061245	-0.090334
C22	C	-0.030306	0.060731	-0.090330
C23	C	-0.055507	0.060478	-0.045107
C24	C	-0.030296	0.060738	0.000112
C25	C	0.020123	0.061253	0.090557
C26	C	-0.030294	0.060735	0.090557
C27	C	-0.055505	0.060475	0.045334
C28	C	-0.105909	0.059970	0.045339
N29	N	-0.131121	0.059705	0.000119
C30	C	-0.105920	0.059959	-0.045104
C31	C	0.352853	0.064671	0.045308
C32	C	0.403267	0.065189	0.045304
C33	C	0.403255	0.065178	-0.045143
C34	C	0.352841	0.064663	-0.045139
C35	C	0.327641	0.064406	0.000088
C36	C	-0.211789	0.058880	-0.045092
C37	C	-0.262205	0.058368	-0.045084
C38	C	-0.262189	0.058376	0.045362
C39	C	-0.211777	0.058891	0.045355
C40	C	-0.186578	0.059141	0.000123
O41	O	-0.132019	0.059722	0.083779
O42	O	-0.132000	0.059681	-0.083560
C43	C	0.095728	0.062020	-0.045119
C44	C	0.120938	0.062280	0.000100
C45	C	0.095737	0.062027	0.045324
C46	C	0.171352	0.062799	0.000097
C47	C	0.196553	0.063052	-0.045126
C48	C	0.171341	0.062788	-0.090346
C49	C	0.120929	0.062274	-0.090342
C50	C	0.120950	0.062292	0.090544
C51	C	0.171362	0.062806	0.090536
C52	C	0.196563	0.063060	0.045313
C53	C	0.574737	-0.026628	0.000126
C54	C	0.574194	-0.080284	0.000131
C55	C	0.570787	-0.413006	-0.045116
C56	C	0.568726	-0.614664	-0.045125
O57	O	0.568445	-0.640740	-0.083584
N58	N	0.568462	-0.639875	0.000096
C59	C	0.568711	-0.614668	0.045322
O60	O	0.568434	-0.640738	0.083785
C61	C	0.570768	-0.413010	0.045331
C62	C	0.571037	-0.387803	0.000107
C63	C	0.571055	-0.387799	-0.090336
C64	C	0.571573	-0.337388	-0.090333
C65	C	0.571823	-0.312184	-0.045110
C66	C	0.571555	-0.337392	0.000110
C67	C	0.571013	-0.387804	0.090556
C68	C	0.571526	-0.337386	0.090554
C69	C	0.571795	-0.312179	0.045331
C70	C	0.572323	-0.261777	0.045335
N71	N	0.572586	-0.236567	0.000115
C72	C	0.572336	-0.261770	-0.045108
C73	C	0.567631	-0.720541	0.045314
C74	C	0.567118	-0.770955	0.045312
C75	C	0.567132	-0.770948	-0.045135
C76	C	0.567649	-0.720533	-0.045132
C77	C	0.567895	-0.695330	0.000093
C78	C	0.573424	-0.155903	-0.045099
C79	C	0.573944	-0.105488	-0.045092
C80	C	0.573927	-0.105499	0.045355
C81	C	0.573410	-0.155910	0.045348
C82	C	0.573157	-0.181111	0.000117
O83	O	0.572598	-0.235670	0.083774
O84	O	0.572602	-0.235690	-0.083565
C85	C	0.570269	-0.463417	-0.045118
C86	C	0.570001	-0.488625	0.000101
C87	C	0.570251	-0.463422	0.045324
C88	C	0.569488	-0.539039	0.000099
C89	C	0.569238	-0.564243	-0.045123
C90	C	0.569501	-0.539032	-0.090344
C91	C	0.570019	-0.488621	-0.090341
C92	C	0.569987	-0.488633	0.090545
C93	C	0.569470	-0.539044	0.090538
C94	C	0.569220	-0.564247	0.045316
C95	C	0.658938	0.057572	0.000131
C96	C	0.712594	0.058114	0.000139
C97	C	0.566325	0.150185	0.000098
C98	C	0.566868	0.203841	0.000089
N99	N	0.570513	0.061796	0.129359
N100	N	0.570553	0.061757	-0.129135
C101	C	0.603651	0.028664	0.473998
C102	C	0.603663	0.028656	0.682875
O103	O	0.631818	0.000489	0.709889
N104	N	0.570543	0.061760	0.708986
C105	C	0.537416	0.094866	0.682875
O106	O	0.509243	0.123020	0.709877
C107	C	0.537403	0.094871	0.473998
C108	C	0.570528	0.061768	0.447890
C109	C	0.636773	-0.004437	0.447889
C110	C	0.636772	-0.004433	0.395673
C111	C	0.603648	0.028672	0.369565
C112	C	0.570526	0.061772	0.395673
C113	C	0.504274	0.127974	0.447888
C114	C	0.504273	0.127972	0.395665
C115	C	0.537398	0.094869	0.369557
C116	C	0.537401	0.094881	0.317349
N117	N	0.570521	0.061777	0.291238
C118	C	0.603644	0.028672	0.317346
C119	C	0.537426	0.094862	0.792538
C120	C	0.537430	0.094862	0.844757
C121	C	0.603676	0.028651	0.844754
C122	C	0.603674	0.028654	0.792534
C123	C	0.570546	0.061758	0.766427
C124	C	0.603639	0.028683	0.207688
C125	C	0.603636	0.028692	0.155467
C126	C	0.537389	0.094900	0.155475
C127	C	0.537393	0.094894	0.207691
C128	C	0.570520	0.061781	0.233797
O129	O	0.509257	0.123029	0.290303
O130	O	0.631806	0.000516	0.290335
C131	C	0.603653	0.028660	0.526214
C132	C	0.570531	0.061760	0.552322
C133	C	0.537407	0.094865	0.526215
C134	C	0.570534	0.061760	0.604541
C135	C	0.603658	0.028655	0.630649
C136	C	0.636777	-0.004448	0.604538
C137	C	0.636776	-0.004445	0.552322
C138	C	0.504288	0.127969	0.552326
C139	C	0.504292	0.127962	0.604542
C140	C	0.537416	0.094858	0.630650
H141	H	0.332341	0.064459	0.082138
H142	H	0.423788	0.065409	0.082129
C143	C	0.222283	0.104930	-0.142821
C144	C	0.199050	0.063066	-0.140056
H145	H	0.239394	0.105098	-0.173507
H146	H	0.198712	0.132925	-0.140952
H147	H	0.244506	0.105156	-0.115883
H148	H	0.176824	0.062842	-0.166992
H149	H	0.222624	0.035064	-0.141930
C150	C	0.526430	0.160733	0.903475
C151	C	0.501022	0.131253	0.873452
H152	H	0.503950	0.183200	0.921185
H153	H	0.546151	0.141019	0.926499
H154	H	0.546415	0.177977	0.883098
H155	H	0.481039	0.114006	0.893829
H156	H	0.481292	0.150969	0.850425
H157	H	0.663750	-0.031402	0.625803
C158	C	0.528822	-0.438712	0.143013
C159	C	0.570698	-0.415494	0.140272
H160	H	0.528624	-0.455805	0.173708
H161	H	0.500835	-0.415134	0.141105
H162	H	0.528613	-0.460950	0.116088
H163	H	0.570905	-0.393253	0.167196
H164	H	0.598692	-0.439074	0.142185
H165	H	-0.050809	0.060529	0.127386
C166	C	-0.149354	0.017884	-0.097581
C167	C	-0.184097	0.059158	-0.094812
H168	H	-0.132262	0.018059	-0.128277
H169	H	-0.127121	0.018116	-0.070659
H170	H	-0.165121	-0.010514	-0.095694
H171	H	-0.168330	0.087557	-0.096695
H172	H	-0.206333	0.058931	-0.121741
H173	H	-0.050828	0.060517	-0.127156
C174	C	0.424534	0.023753	-0.122226
C175	C	0.430962	0.065454	-0.094854
H176	H	0.441639	0.023924	-0.152915
H177	H	0.436703	-0.004352	-0.103637
H178	H	0.390901	0.023413	-0.128697
H179	H	0.464595	0.065793	-0.088380
H180	H	0.418796	0.093567	-0.113448
H181	H	0.477294	0.154929	0.374412
H182	H	0.510448	0.121821	0.771286
H183	H	0.571790	-0.316868	-0.127158
C184	C	0.567152	-0.765886	0.134713
C185	C	0.566827	-0.798661	0.095023
H186	H	0.566967	-0.782989	0.165403
H187	H	0.595551	-0.750129	0.132839
H188	H	0.539151	-0.742316	0.132819
H189	H	0.594829	-0.822228	0.096916
H190	H	0.538424	-0.814425	0.096899
H191	H	0.040619	0.061450	-0.127163
C192	C	0.192638	0.021395	0.167631
C193	C	0.199070	0.063090	0.140250
H194	H	0.209746	0.021567	0.198320
H195	H	0.159009	0.021058	0.174100
H196	H	0.204805	-0.006717	0.149045
H197	H	0.186900	0.091203	0.158834
H198	H	0.232706	0.063432	0.133782
H199	H	-0.191251	0.059112	0.082179
C200	C	0.532485	-0.084214	0.122422
C201	C	0.574191	-0.077784	0.095060
H202	H	0.532644	-0.067103	0.153108
H203	H	0.504383	-0.072054	0.103823
H204	H	0.532148	-0.117846	0.128898
H205	H	0.574525	-0.044151	0.088581
H206	H	0.602300	-0.089942	0.113663
C207	C	0.471906	0.160335	0.202447
C208	C	0.500980	0.131278	0.236393
H209	H	0.449421	0.182792	0.220164
H210	H	0.491892	0.177587	0.182087
H211	H	0.454681	0.140330	0.182072
H212	H	0.518208	0.151283	0.256765
H213	H	0.480992	0.114025	0.256761
H214	H	0.573216	-0.176415	-0.081930
C215	C	0.571130	-0.382715	-0.179734
C216	C	0.570785	-0.415497	-0.140050
H217	H	0.570969	-0.399814	-0.210427
H218	H	0.543130	-0.359152	-0.177858
H219	H	0.599530	-0.366954	-0.177833
H220	H	0.542382	-0.431256	-0.141949
H221	H	0.598787	-0.439069	-0.141927
C222	C	0.526631	-0.658103	0.097797
C223	C	0.567906	-0.692845	0.095032
H224	H	0.526802	-0.641010	0.128493
H225	H	0.526864	-0.635871	0.070875
H226	H	0.498234	-0.673871	0.095907
H227	H	0.596304	-0.677077	0.096919
H228	H	0.567677	-0.715080	0.121962
H229	H	0.477319	0.154923	0.625796
C230	C	0.438813	0.193416	0.557585
C231	C	0.467878	0.164363	0.523633
H232	H	0.416338	0.215889	0.539872
H233	H	0.421582	0.173414	0.577948
H234	H	0.458810	0.210654	0.577956
H235	H	0.447882	0.147122	0.503265
H236	H	0.485111	0.184368	0.503262
H237	H	0.332317	0.064452	-0.081963
H238	H	0.571719	-0.316867	0.127383
C239	C	0.647789	-0.070312	0.506606
C240	C	0.673188	-0.040829	0.476580
H241	H	0.670274	-0.092781	0.524313
H242	H	0.628072	-0.050603	0.529634
H243	H	0.627800	-0.087556	0.486232
H244	H	0.693174	-0.023582	0.496955
H245	H	0.692913	-0.060541	0.453550
H246	H	0.510421	0.121855	0.134210
C247	C	-0.339468	0.057585	0.085518
C248	C	-0.289896	0.058095	0.095070
H249	H	-0.356573	0.057406	0.116206
H250	H	-0.351633	0.085698	0.066939
H251	H	-0.343819	0.029298	0.066937
H252	H	-0.285546	0.086384	0.113648
H253	H	-0.277728	0.029979	0.113657
C254	C	0.015051	0.061197	0.179957
C255	C	0.047826	0.061534	0.140269
H256	H	0.032155	0.061367	0.210648
H257	H	-0.008515	0.089195	0.178073
H258	H	-0.000709	0.032794	0.178068
H259	H	0.063583	0.089939	0.142155
H260	H	0.071401	0.033534	0.142153
H261	H	0.100407	0.062062	-0.127167
C262	C	-0.257144	0.058407	-0.134490
C263	C	-0.289915	0.058079	-0.094797
H264	H	-0.274251	0.058225	-0.165179
H265	H	-0.241387	0.086806	-0.132614
H266	H	-0.233575	0.030406	-0.132600
H267	H	-0.313482	0.086082	-0.096685
H268	H	-0.305681	0.029677	-0.096674
H269	H	0.573196	-0.176436	0.082173
C270	C	0.573903	-0.110552	-0.134497
C271	C	0.574236	-0.077780	-0.094805
H272	H	0.574080	-0.093446	-0.165186
H273	H	0.601900	-0.134119	-0.132611
H274	H	0.545500	-0.126310	-0.132618
H275	H	0.602642	-0.062024	-0.096683
H276	H	0.546237	-0.054204	-0.096693
H277	H	0.100437	0.062083	0.127371
C278	C	0.568712	-0.616313	-0.130499
C279	C	0.569224	-0.566742	-0.140054
H280	H	0.568535	-0.633420	-0.161186
H281	H	0.596823	-0.628477	-0.111916
H282	H	0.540423	-0.620661	-0.111920
H283	H	0.597514	-0.562394	-0.158629
H284	H	0.541109	-0.554575	-0.158644
H285	H	0.567867	-0.700012	-0.081957
C286	C	0.569499	-0.533973	0.179943
C287	C	0.569173	-0.566748	0.140253
H288	H	0.569309	-0.551076	0.210633
H289	H	0.597901	-0.518220	0.178071
H290	H	0.541501	-0.510401	0.178046
H291	H	0.597173	-0.590319	0.142148
H292	H	0.540768	-0.582509	0.142126
H293	H	0.566929	-0.791477	-0.081957
H294	H	0.663749	-0.031400	0.531068
H295	H	0.570238	-0.468101	-0.127167
H296	H	0.630612	0.001735	0.134211
C297	C	0.669122	-0.036762	0.202425
C298	C	0.640053	-0.007713	0.236378
H299	H	0.691605	-0.059228	0.220138
H300	H	0.649132	-0.054003	0.182058
H301	H	0.686349	-0.016752	0.182059
H302	H	0.622823	-0.027722	0.256742
H303	H	0.660045	0.009529	0.256753
H304	H	0.570191	-0.468117	0.127371
C305	C	0.702246	-0.069882	0.400931
C306	C	0.673178	-0.040826	0.366979
H307	H	0.724719	-0.092354	0.383218
H308	H	0.719479	-0.049883	0.421295
H309	H	0.682250	-0.087122	0.421301
H310	H	0.693173	-0.023584	0.346611
H311	H	0.655944	-0.060829	0.346606
C312	C	0.669154	-0.036791	0.797788
C313	C	0.640082	-0.007737	0.763838
H314	H	0.691628	-0.059261	0.780073
H315	H	0.686386	-0.016790	0.818151
H316	H	0.649162	-0.054033	0.818159
H317	H	0.660074	0.009508	0.743470
H318	H	0.622848	-0.027741	0.743467
H319	H	0.630647	0.001697	0.866020
H320	H	0.477300	0.154929	0.469138
