data_functionalizedCrystal
_audit_creation_method	'MofGen! by Chris Wilmer'
_symmetry_space_group_name_H-M	'P1'
_symmetry_Int_Tables_number	1
_symmetry_cell_setting	triclinic
loop_
_symmetry_equiv_pos_as_xyz
  x,y,z
_cell_length_a	18.215407
_cell_length_b	14.908520
_cell_length_c	18.215399
_cell_angle_alpha	93.269364
_cell_angle_beta	89.980167
_cell_angle_gamma	93.321174
loop_
_atom_site_label
_atom_site_type_symbol
_atom_site_fract_x
_atom_site_fract_y
_atom_site_fract_z
Zn1	Zn	1.108178	-0.359158	-0.433017
Zn2	Zn	1.358178	-0.109158	-0.183017
Zn3	Zn	1.608178	0.140842	0.066983
Zn4	Zn	1.858178	0.390842	0.316983
Zn5	Zn	1.100989	-0.510027	-0.317051
Zn6	Zn	1.350989	-0.260027	-0.067051
Zn7	Zn	1.600989	-0.010027	0.182949
Zn8	Zn	1.850989	0.239973	0.432949
Zn9	Zn	0.985109	-0.359188	-0.309966
Zn10	Zn	1.235109	-0.109188	-0.059966
Zn11	Zn	1.485109	0.140812	0.190034
Zn12	Zn	1.735109	0.390812	0.440034
Zn13	Zn	0.977982	-0.509977	-0.440073
Zn14	Zn	1.227982	-0.259977	-0.190073
Zn15	Zn	1.477982	-0.009977	0.059927
Zn16	Zn	1.727982	0.240023	0.309927
O17	O	1.043064	-0.434588	-0.375027
O18	O	1.293064	-0.184588	-0.125027
O19	O	1.543064	0.065412	0.124973
O20	O	1.793064	0.315412	0.374973
O21	O	1.210208	-0.379180	-0.417646
O22	O	1.460208	-0.129180	-0.167646
O23	O	1.710208	0.120820	0.082354
O24	O	1.960208	0.370820	0.332354
O25	O	1.085592	-0.490052	-0.213128
O26	O	1.335592	-0.240052	0.036872
O27	O	1.585592	0.009948	0.286872
O28	O	1.835592	0.259948	0.536872
O29	O	1.007425	-0.232939	-0.320371
O30	O	1.257425	0.017061	-0.070371
O31	O	1.507425	0.267061	0.179629
O32	O	1.757425	0.517061	0.429629
O33	O	1.204927	-0.490023	-0.332446
O34	O	1.454927	-0.240023	-0.082446
O35	O	1.704927	0.009977	0.167554
O36	O	1.954927	0.259977	0.417554
O37	O	1.097843	-0.232917	-0.410776
O38	O	1.347843	0.017083	-0.160776
O39	O	1.597843	0.267083	0.089224
O40	O	1.847843	0.517083	0.339224
O41	O	1.000455	-0.379230	-0.207923
O42	O	1.250455	-0.129230	0.042077
O43	O	1.500455	0.120770	0.292077
O44	O	1.750455	0.370770	0.542077
O45	O	0.881180	-0.379182	-0.327213
O46	O	1.131180	-0.129182	-0.077213
O47	O	1.381180	0.120818	0.172787
O48	O	1.631180	0.370818	0.422787
O49	O	0.995278	-0.489937	-0.542120
O50	O	1.245278	-0.239937	-0.292120
O51	O	1.495278	0.010063	-0.042120
O52	O	1.745278	0.260063	0.207880
O53	O	0.875943	-0.489966	-0.422802
O54	O	1.125943	-0.239966	-0.172802
O55	O	1.375943	0.010034	0.077198
O56	O	1.625943	0.260034	0.327198
O57	O	1.090932	-0.379131	-0.536936
O58	O	1.340932	-0.129131	-0.286936
O59	O	1.590932	0.120869	-0.036936
O60	O	1.840932	0.370869	0.213064
O61	O	1.078681	-0.636266	-0.339288
O62	O	1.328681	-0.386266	-0.089288
O63	O	1.578681	-0.136266	0.160712
O64	O	1.828681	0.113734	0.410712
O65	O	0.988308	-0.636229	-0.429672
O66	O	1.238308	-0.386229	-0.179672
O67	O	1.488308	-0.136229	0.070328
O68	O	1.738308	0.113771	0.320328
C69	C	0.851859	-0.434572	-0.375005
C70	C	1.101859	-0.184572	-0.125005
C71	C	1.351859	0.065428	0.124995
C72	C	1.601859	0.315428	0.374995
C73	C	0.770059	-0.434587	-0.375014
C74	C	1.020059	-0.184587	-0.125014
C75	C	1.270059	0.065413	0.124986
C76	C	1.520059	0.315413	0.374986
C77	C	1.031961	-0.668981	-0.386030
C78	C	1.281961	-0.418981	-0.136030
C79	C	1.531961	-0.168981	0.113970
C80	C	1.781961	0.081019	0.363970
C81	C	1.027278	-0.769256	-0.390762
C82	C	1.277278	-0.519256	-0.140762
C83	C	1.527278	-0.269256	0.109238
C84	C	1.777278	-0.019256	0.359238
C85	C	0.579154	-0.492363	-0.424733
C86	C	0.829154	-0.242363	-0.174733
C87	C	1.079154	0.007637	0.075267
C88	C	1.329154	0.257637	0.325267
C89	C	0.502295	-0.492366	-0.424742
C90	C	0.752295	-0.242366	-0.174742
C91	C	1.002295	0.007634	0.075258
C92	C	1.252295	0.257634	0.325258
C93	C	0.507726	-0.376828	-0.325338
C94	C	0.757726	-0.126828	-0.075338
C95	C	1.007726	0.123172	0.174662
C96	C	1.257726	0.373172	0.424662
C97	C	0.584584	-0.376822	-0.325333
C98	C	0.834584	-0.126822	-0.075333
C99	C	1.084584	0.123178	0.174667
C100	C	1.334584	0.373178	0.424667
C101	C	0.620295	-0.434594	-0.375029
C102	C	0.870295	-0.184594	-0.125029
C103	C	1.120295	0.065406	0.124971
C104	C	1.370295	0.315406	0.374971
C105	C	0.466579	-0.434604	-0.375044
C106	C	0.716579	-0.184604	-0.125044
C107	C	0.966579	0.065396	0.124956
C108	C	1.216579	0.315396	0.374956
C109	C	0.383245	-0.434606	-0.375053
C110	C	0.633245	-0.184606	-0.125053
C111	C	0.883245	0.065394	0.124947
C112	C	1.133245	0.315394	0.374947
C113	C	0.703635	-0.434591	-0.375021
C114	C	0.953635	-0.184591	-0.125021
C115	C	1.203635	0.065409	0.124979
C116	C	1.453635	0.315409	0.374979
C117	C	1.112681	-0.957660	-0.305613
C118	C	1.362681	-0.707660	-0.055613
C119	C	1.612681	-0.457660	0.194387
C120	C	1.862681	-0.207660	0.444387
C121	C	1.108284	-1.051877	-0.310057
C122	C	1.358284	-0.801877	-0.060057
C123	C	1.608284	-0.551877	0.189943
C124	C	1.858284	-0.301877	0.439943
C125	C	1.014091	-1.051908	-0.404097
C126	C	1.264091	-0.801908	-0.154097
C127	C	1.514091	-0.551908	0.095903
C128	C	1.764091	-0.301908	0.345903
C129	C	1.018488	-0.957691	-0.399653
C130	C	1.268488	-0.707691	-0.149653
C131	C	1.518488	-0.457691	0.100347
C132	C	1.768488	-0.207691	0.350347
C133	C	1.067784	-0.910570	-0.350409
C134	C	1.317784	-0.660570	-0.100409
C135	C	1.567784	-0.410570	0.149591
C136	C	1.817784	-0.160570	0.399591
C137	C	1.072177	-0.816352	-0.345962
C138	C	1.322177	-0.566352	-0.095962
C139	C	1.572177	-0.316352	0.154038
C140	C	1.822177	-0.066352	0.404038
C141	C	0.977988	-0.816385	-0.440005
C142	C	1.227988	-0.566385	-0.190005
C143	C	1.477988	-0.316385	0.059995
C144	C	1.727988	-0.066385	0.309995
C145	C	0.973591	-0.910602	-0.444449
C146	C	1.223591	-0.660602	-0.194449
C147	C	1.473591	-0.410602	0.055551
C148	C	1.723591	-0.160602	0.305551
C149	C	1.235017	-0.434604	-0.375049
C150	C	1.485017	-0.184604	-0.125049
C151	C	1.735017	0.065396	0.124951
C152	C	1.985017	0.315396	0.374951
C153	C	1.316815	-0.434611	-0.375059
C154	C	1.566815	-0.184611	-0.125059
C155	C	1.816815	0.065389	0.124941
C156	C	2.066815	0.315389	0.374941
C157	C	1.043112	-0.434526	-0.566977
C158	C	1.293112	-0.184526	-0.316977
C159	C	1.543112	0.065474	-0.066977
C160	C	1.793112	0.315474	0.183023
C161	C	1.043133	-0.434499	-0.648775
C162	C	1.293133	-0.184499	-0.398775
C163	C	1.543133	0.065501	-0.148775
C164	C	1.793133	0.315501	0.101225
C165	C	1.054231	-0.199279	-0.363996
C166	C	1.304231	0.050721	-0.113996
C167	C	1.554231	0.300721	0.136004
C168	C	1.804231	0.550721	0.386004
C169	C	1.058990	-0.099004	-0.359296
C170	C	1.308990	0.150996	-0.109296
C171	C	1.558990	0.400996	0.140704
C172	C	1.808990	0.650996	0.390704
C173	C	1.092959	-0.376748	-0.834268
C174	C	1.342959	-0.126748	-0.584268
C175	C	1.592959	0.123252	-0.334268
C176	C	1.842959	0.373252	-0.084268
C177	C	1.092969	-0.376722	-0.911126
C178	C	1.342969	-0.126722	-0.661126
C179	C	1.592969	0.123278	-0.411126
C180	C	1.842969	0.373278	-0.161126
C181	C	0.993364	-0.492110	-0.916513
C182	C	1.243364	-0.242110	-0.666513
C183	C	1.493364	0.007890	-0.416513
C184	C	1.743364	0.257890	-0.166513
C185	C	0.993351	-0.492131	-0.839656
C186	C	1.243351	-0.242131	-0.589656
C187	C	1.493351	0.007869	-0.339656
C188	C	1.743351	0.257869	-0.089656
C189	C	1.043153	-0.434452	-0.798536
C190	C	1.293153	-0.184452	-0.548536
C191	C	1.543153	0.065548	-0.298536
C192	C	1.793153	0.315548	-0.048536
C193	C	1.043176	-0.434404	-0.952250
C194	C	1.293176	-0.184404	-0.702250
C195	C	1.543176	0.065596	-0.452250
C196	C	1.793176	0.315596	-0.202250
C197	C	1.043186	-0.434376	-1.035582
C198	C	1.293186	-0.184376	-0.785582
C199	C	1.543186	0.065624	-0.535582
C200	C	1.793186	0.315624	-0.285582
C201	C	1.043142	-0.434478	-0.715198
C202	C	1.293142	-0.184478	-0.465198
C203	C	1.543142	0.065522	-0.215198
C204	C	1.793142	0.315522	0.034802
C205	C	1.043062	-0.434585	-0.183820
C206	C	1.293062	-0.184585	0.066180
C207	C	1.543062	0.065415	0.316180
C208	C	1.793062	0.315415	0.566180
C209	C	1.043196	-0.434357	-0.102011
C210	C	1.293196	-0.184357	0.147989
C211	C	1.543196	0.065643	0.397989
C212	C	1.793196	0.315643	0.647989
H213	H	0.608228	-0.539403	-0.465200
H214	H	0.858228	-0.289403	-0.215200
H215	H	1.108228	-0.039403	0.034800
H216	H	1.358228	0.210597	0.284800
F217	F	0.940335	-0.553546	-0.801625
F218	F	1.190335	-0.303546	-0.551625
F219	F	1.440335	-0.053546	-0.301625
F220	F	1.690335	0.196454	-0.051625
F221	F	0.628373	-0.315328	-0.272432
F222	F	0.878373	-0.065328	-0.022432
F223	F	1.128373	0.184672	0.227568
F224	F	1.378373	0.434672	0.477568
F225	F	0.940368	-0.553497	-0.960282
F226	F	1.190368	-0.303497	-0.710282
F227	F	1.440368	-0.053497	-0.460282
F228	F	1.690368	0.196503	-0.210282
H229	H	1.133525	-0.329733	-0.940215
H230	H	1.383525	-0.079733	-0.690215
H231	H	1.633525	0.170267	-0.440215
H232	H	1.883525	0.420267	-0.190215
H233	H	0.941427	-0.778034	-0.476478
H234	H	1.191427	-0.528034	-0.226478
H235	H	1.441427	-0.278034	0.023522
H236	H	1.691427	-0.028034	0.273522
F237	F	0.469713	-0.315347	-0.272449
F238	F	0.719713	-0.065347	-0.022449
F239	F	0.969713	0.184653	0.227551
F240	F	1.219713	0.434653	0.477551
F241	F	0.458512	-0.553851	-0.477645
F242	F	0.708512	-0.303851	-0.227645
F243	F	0.958512	-0.053851	0.022355
F244	F	1.208512	0.196149	0.272355
F245	F	0.921132	-0.960761	-0.496857
F246	F	1.171132	-0.710761	-0.246857
F247	F	1.421132	-0.460761	0.003143
F248	F	1.671132	-0.210761	0.253143
H249	H	1.112315	-0.777987	-0.305863
H250	H	1.362315	-0.527987	-0.055863
H251	H	1.612315	-0.277987	0.194137
H252	H	1.862315	-0.027987	0.444137
H253	H	0.973961	-1.090290	-0.444194
H254	H	1.223961	-0.840290	-0.194194
H255	H	1.473961	-0.590290	0.055806
H256	H	1.723961	-0.340290	0.305806
F257	F	1.165136	-0.907508	-0.253195
F258	F	1.415136	-0.657508	-0.003195
F259	F	1.665136	-0.407508	0.246805
F260	F	1.915136	-0.157508	0.496805
H261	H	1.144846	-1.090213	-0.273581
H262	H	1.394846	-0.840213	-0.023581
H263	H	1.644846	-0.590213	0.226419
H264	H	1.894846	-0.340213	0.476419
H265	H	1.133509	-0.329780	-0.800790
H266	H	1.383509	-0.079780	-0.550790
H267	H	1.633509	0.170220	-0.300790
H268	H	1.883509	0.420220	-0.050790
