data_functionalizedCrystal
_audit_creation_method	'MofGen! by Chris Wilmer'
_symmetry_space_group_name_H-M	'P1'
_symmetry_Int_Tables_number	1
_symmetry_cell_setting	triclinic
loop_
_symmetry_equiv_pos_as_xyz
  x,y,z
_cell_length_a	8.497374
_cell_length_b	8.497374
_cell_length_c	19.121102
_cell_angle_alpha	92.443878
_cell_angle_beta	92.441575
_cell_angle_gamma	90.005237
loop_
_atom_site_label
_atom_site_type_symbol
_atom_site_fract_x
_atom_site_fract_y
_atom_site_fract_z
Zn1	Zn	0.994973	0.731412	1.073738
Zn2	Zn	0.731238	0.995157	1.073733
Zn3	Zn	0.719952	0.720113	0.956320
Zn4	Zn	0.983720	0.983870	0.956303
O5	O	0.857471	0.857638	1.015023
O6	O	0.969421	0.775851	1.172022
O7	O	0.508979	0.958667	1.058162
O8	O	0.756420	0.500850	0.971905
O9	O	0.775657	0.969623	1.172018
O10	O	0.958477	0.509152	1.058172
O11	O	0.500687	0.756593	0.971899
O12	O	0.745508	0.745648	0.858032
O13	O	1.205974	0.950386	0.971876
O14	O	0.939297	0.939429	0.858020
O15	O	1.214242	0.764906	1.058155
O16	O	0.764745	1.214421	1.058146
O17	O	0.950241	1.206129	0.971871
C18	C	0.839957	0.840089	0.832542
C19	C	0.832503	0.832619	0.754476
C20	C	1.268951	0.857640	1.015018
C21	C	1.447595	0.857657	1.015020
C22	C	0.857493	1.267517	1.015014
C23	C	0.857469	1.446163	1.015033
C24	C	0.929738	0.930154	0.717812
C25	C	0.922740	0.923115	0.644460
C26	C	0.818499	0.818548	0.607774
C27	C	0.721261	0.721003	0.644443
C28	C	0.728267	0.728035	0.717793
C29	C	0.792313	0.792252	0.386303
C30	C	0.785311	0.785230	0.312947
C31	C	0.986794	0.987341	0.312970
C32	C	0.993784	0.994371	0.386322
C33	C	0.896551	0.896820	0.422984
C34	C	0.811341	0.811354	0.532797
C35	C	0.903718	0.904007	0.497960
C36	C	0.875053	0.875257	1.198217
C37	C	0.882546	0.882765	1.276284
H38	H	1.014617	1.015309	0.747677
H39	H	1.001918	1.002539	0.614612
H40	H	0.713127	0.712831	0.416144
H41	H	1.078665	1.079524	0.416187
H42	H	0.988598	0.989138	0.527833
H43	H	1.065958	1.066759	0.283111
H44	H	0.726465	0.726218	0.502918
H45	H	0.700435	0.700061	0.283079
H46	H	0.636392	0.635856	0.614567
H47	H	0.649096	0.648604	0.747644
