data_functionalizedCrystal
_audit_creation_method	'MofGen! by Chris Wilmer'
_symmetry_space_group_name_H-M	'P1'
_symmetry_Int_Tables_number	1
_symmetry_cell_setting	triclinic
loop_
_symmetry_equiv_pos_as_xyz
  x,y,z
_cell_length_a	6.817900
_cell_length_b	17.982959
_cell_length_c	11.168152
_cell_angle_alpha	94.260703
_cell_angle_beta	108.508980
_cell_angle_gamma	102.451857
loop_
_atom_site_label
_atom_site_type_symbol
_atom_site_fract_x
_atom_site_fract_y
_atom_site_fract_z
V1	V	-4.079256	-0.105424	-0.394227
O2	O	-4.070938	0.005054	-0.386180
O3	O	-4.025442	-0.209027	-0.392052
O4	O	-4.056017	-0.103808	-0.565924
O5	O	-4.040152	-0.100893	-0.211104
V6	V	-4.560325	-0.092209	-0.372260
O7	O	-4.345897	-0.134412	-0.442412
O8	O	-4.743880	-0.063221	-0.324075
O9	O	-4.390931	0.011394	-0.374435
O10	O	-4.686039	-0.202687	-0.380307
O11	O	-4.716825	-0.096740	-0.555383
O12	O	-4.360356	-0.093825	-0.200563
C13	C	-3.868312	-0.234283	-0.385968
C14	C	-3.905768	-0.318979	-0.385334
C15	C	-4.106208	-0.362651	-0.391355
C16	C	-4.141394	-0.442233	-0.390767
C17	C	-3.976132	-0.478141	-0.384150
C18	C	-3.775678	-0.434464	-0.378133
C19	C	-3.740500	-0.354884	-0.378730
C20	C	-3.917546	-0.755400	-0.375728
C21	C	-3.952739	-0.834985	-0.375128
C22	C	-4.318440	-0.842748	-0.387765
C23	C	-4.283261	-0.763168	-0.388362
C24	C	-4.082815	-0.719499	-0.382352
C25	C	-4.044666	-0.633208	-0.382991
C26	C	-4.014274	-0.564430	-0.383501
C27	C	-3.907312	-0.100064	-0.607757
C28	C	-3.969560	-0.099428	-0.748125
C29	C	-3.823523	-0.095531	-0.804576
C30	C	-3.887855	-0.094873	-0.949653
C31	C	-4.211403	0.036646	-0.380516
C32	C	-4.153186	0.121342	-0.381157
C33	C	-4.172402	-0.097571	-0.158723
C34	C	-4.089393	-0.098203	-0.018354
H35	H	-3.577286	-0.319328	-0.373833
Cl36	Cl	-4.236137	-0.103834	-0.839322
Cl37	Cl	-3.665554	-0.700510	-0.368161
H38	H	-3.650871	-0.092685	-0.745503
H39	H	-4.240781	-0.333419	-0.396731
Cl40	Cl	-3.694967	-0.089714	-1.024633
Cl41	Cl	-3.567923	-0.479607	-0.369822
H42	H	-4.214325	-0.101540	-0.969792
Cl43	Cl	-4.491021	-0.718029	-0.396664
Cl44	Cl	-4.570439	-0.897652	-0.395325
Cl45	Cl	-3.744964	-0.880125	-0.366810
Cl46	Cl	-4.393383	-0.497130	-0.398333
