data_functionalizedCrystal
_audit_creation_method	'MofGen! by Chris Wilmer'
_symmetry_space_group_name_H-M	'P1'
_symmetry_Int_Tables_number	1
_symmetry_cell_setting	triclinic
loop_
_symmetry_equiv_pos_as_xyz
  x,y,z
_cell_length_a	14.044220
_cell_length_b	16.992695
_cell_length_c	15.455313
_cell_angle_alpha	92.847427
_cell_angle_beta	87.080121
_cell_angle_gamma	91.928550
loop_
_atom_site_label
_atom_site_type_symbol
_atom_site_fract_x
_atom_site_fract_y
_atom_site_fract_z
O1	O	1.276013	0.186891	-0.072039
O2	O	1.776013	0.686891	0.427961
O3	O	0.999526	0.180033	-0.072061
O4	O	1.499526	0.680033	0.427939
O5	O	1.136661	0.069242	-0.072043
O6	O	1.636661	0.569242	0.427957
O7	O	1.138878	0.297682	-0.072057
O8	O	1.638878	0.797682	0.427943
O9	O	1.128817	0.075549	0.072218
O10	O	1.628817	0.575549	0.572218
O11	O	0.991682	0.186340	0.072200
O12	O	1.491682	0.686340	0.572200
O13	O	1.268169	0.193198	0.072222
O14	O	1.768169	0.693198	0.572222
Cu15	Cu	1.129209	0.190345	0.085383
Cu16	Cu	1.629209	0.690345	0.585383
Cu17	Cu	1.138486	0.182886	-0.085222
Cu18	Cu	1.638486	0.682886	0.414778
O19	O	1.131034	0.303989	0.072204
O20	O	1.631034	0.803989	0.572204
C21	C	0.960062	0.180184	0.000067
C22	C	1.460062	0.680184	0.500067
C23	C	0.854158	0.171230	0.000058
C24	C	1.354158	0.671230	0.500058
C25	C	1.129887	0.042984	0.000087
C26	C	1.629887	0.542984	0.500087
C27	C	1.121378	-0.044656	0.000086
C28	C	1.621378	0.455344	0.500086
C29	C	1.203475	-0.089154	0.000093
C30	C	1.703475	0.410846	0.500093
C31	C	1.195475	-0.171500	0.000084
C32	C	1.695475	0.328500	0.500084
C33	C	1.105377	-0.209347	0.000074
C34	C	1.605377	0.290653	0.500074
C35	C	1.023275	-0.164843	0.000064
C36	C	1.523275	0.335157	0.500064
C37	C	1.031276	-0.082498	0.000067
C38	C	1.531276	0.417502	0.500067
C39	C	1.072216	-0.455265	0.000060
C40	C	1.572216	0.044735	0.500060
C41	C	1.064220	-0.537615	0.000060
C42	C	1.564220	-0.037615	0.500060
C43	C	1.236421	-0.544267	0.000078
C44	C	1.736421	-0.044267	0.500078
C45	C	1.244414	-0.461920	0.000086
C46	C	1.744414	0.038080	0.500086
C47	C	1.162312	-0.417424	0.000071
C48	C	1.662312	0.082576	0.500071
N49	N	1.097198	-0.293518	0.000068
N50	N	1.597198	0.206482	0.500068
N51	N	1.170493	-0.333254	0.000072
N52	N	1.670493	0.166746	0.500072
C53	C	0.660256	0.154861	0.000077
C54	C	1.160256	0.654861	0.500077
C55	C	0.607433	0.218367	0.000076
C56	C	1.107433	0.718367	0.500076
C57	C	0.499539	0.209259	0.000087
C58	C	0.999539	0.709259	0.500087
C59	C	0.768160	0.163967	0.000066
C60	C	1.268160	0.663967	0.500066
C61	C	1.307633	0.193047	0.000092
C62	C	1.807633	0.693047	0.500092
C63	C	1.413537	0.202001	0.000095
C64	C	1.913537	0.702001	0.500095
C65	C	1.137808	0.330247	0.000072
C66	C	1.637808	0.830247	0.500072
C67	C	1.146317	0.417886	0.000067
C68	C	1.646317	0.917886	0.500067
N69	N	1.122691	0.195591	0.205378
N70	N	1.622691	0.695591	0.705378
N71	N	1.145011	0.177634	-0.205217
N72	N	1.645011	0.677634	0.294783
C73	C	1.180974	0.148544	0.250779
C74	C	1.680974	0.648544	0.750779
C75	C	1.176054	0.152519	0.341587
C76	C	1.676054	0.652519	0.841587
C77	C	1.112856	0.203546	0.386991
C78	C	1.612856	0.703546	0.886991
C79	C	1.054567	0.250595	0.341583
C80	C	1.554567	0.750595	0.841583
C81	C	1.059482	0.246615	0.250777
C82	C	1.559482	0.746615	0.750777
C83	C	1.091637	0.220704	0.658569
C84	C	1.591637	0.720704	1.158569
C85	C	1.086728	0.224682	0.749381
C86	C	1.586728	0.724682	1.249381
C87	C	1.208215	0.126604	0.749379
C88	C	1.708215	0.626604	1.249379
C89	C	1.213129	0.122632	0.658572
C90	C	1.713129	0.622632	1.158572
C91	C	1.154836	0.169678	0.613172
C92	C	1.654836	0.669678	1.113172
N93	N	1.107828	0.207613	0.479810
N94	N	1.607828	0.707613	0.979810
N95	N	1.159860	0.165607	0.520354
N96	N	1.659860	0.665607	1.020354
H97	H	1.276841	-0.058345	0.000107
H98	H	1.776841	0.441655	0.500107
Cl99	Cl	1.260433	0.084396	0.193710
Cl100	Cl	1.760433	0.584396	0.693710
H101	H	0.964424	-0.046269	0.000061
H102	H	1.464424	0.453731	0.500061
H103	H	0.643242	0.279576	0.000069
H104	H	1.143242	0.779576	0.500069
H105	H	1.317781	-0.431111	0.000094
H106	H	1.817781	0.068889	0.500094
H107	H	1.005362	-0.419045	0.000048
H108	H	1.505362	0.080955	0.500048
H109	H	0.990848	-0.568427	0.000066
H110	H	1.490848	-0.068427	0.500066
H111	H	1.303264	-0.580505	0.000088
H112	H	1.803264	-0.080505	0.500088
Cl113	Cl	0.604974	0.060363	0.000084
Cl114	Cl	1.104974	0.560363	0.500084
H115	H	0.949916	-0.195665	0.000051
H116	H	1.449916	0.304335	0.500051
Cl117	Cl	1.249324	0.093372	0.398665
Cl118	Cl	1.749324	0.593372	0.898665
H119	H	1.264590	0.081082	0.621606
H120	H	1.764590	0.581082	1.121606
Cl121	Cl	1.298687	-0.227437	0.000096
Cl122	Cl	1.798687	0.272563	0.500096
Cl123	Cl	1.281489	0.067461	0.806457
Cl124	Cl	1.781489	0.567461	1.306457
H125	H	1.035261	0.266237	0.786345
H126	H	1.535261	0.766237	1.286345
Cl127	Cl	1.018361	0.279849	0.601501
Cl128	Cl	1.518361	0.779849	1.101501
H129	H	1.003104	0.292140	0.378556
H130	H	1.503104	0.792140	0.878556
Cl131	Cl	0.986205	0.305761	0.193701
Cl132	Cl	1.486205	0.805761	0.693701
