data_functionalizedCrystal
_audit_creation_method	'MofGen! by Chris Wilmer'
_symmetry_space_group_name_H-M	'P1'
_symmetry_Int_Tables_number	1
_symmetry_cell_setting	triclinic
loop_
_symmetry_equiv_pos_as_xyz
  x,y,z
_cell_length_a	9.065218
_cell_length_b	10.723024
_cell_length_c	7.540329
_cell_angle_alpha	89.997572
_cell_angle_beta	89.996962
_cell_angle_gamma	84.741877
loop_
_atom_site_label
_atom_site_type_symbol
_atom_site_fract_x
_atom_site_fract_y
_atom_site_fract_z
O1	O	1.959359	0.182984	-0.147482
O2	O	1.529989	0.197993	-0.147484
O3	O	1.754578	0.008953	-0.147476
O4	O	1.734770	0.372025	-0.147490
O5	O	1.754565	0.008950	0.147489
O6	O	1.529976	0.197991	0.147481
O7	O	1.959346	0.182982	0.147483
Cu8	Cu	1.744660	0.190486	0.174415
Cu9	Cu	1.744676	0.190489	-0.174416
O10	O	1.734757	0.372022	0.147475
C11	C	1.475004	0.196550	-0.000002
C12	C	1.311186	0.192237	-0.000003
C13	C	1.753130	-0.037554	0.000004
C14	C	1.748817	-0.176126	-0.000002
C15	C	1.874486	-0.250598	-0.000004
C16	C	1.870031	-0.393819	-0.000011
C17	C	2.014331	0.184425	-0.000003
C18	C	2.178150	0.188738	-0.000014
C19	C	1.736205	0.418529	-0.000009
C20	C	1.740518	0.557101	-0.000014
N21	N	1.744659	0.190483	0.419763
N22	N	1.744688	0.190482	-0.419764
H23	H	1.985373	-0.208325	0.000007
O24	O	1.998344	-0.470207	-0.000329
C25	C	2.003908	-0.546332	-0.153074
H26	H	1.929003	-0.499436	-0.259845
H27	H	2.122606	-0.559745	-0.204355
H28	H	1.964619	-0.641369	-0.118538
O29	O	1.616486	-0.226484	-0.000322
C30	C	1.535737	-0.186592	-0.153063
H31	H	1.615362	-0.158517	-0.259833
H32	H	1.472303	-0.266235	-0.204348
H33	H	1.454250	-0.102771	-0.118519
H34	H	1.632930	-0.378911	-0.000001
