data_functionalizedCrystal
_audit_creation_method	'MofGen! by Chris Wilmer'
_symmetry_space_group_name_H-M	'P1'
_symmetry_Int_Tables_number	1
_symmetry_cell_setting	triclinic
loop_
_symmetry_equiv_pos_as_xyz
  x,y,z
_cell_length_a	15.186229
_cell_length_b	16.992701
_cell_length_c	16.109301
_cell_angle_alpha	87.064325
_cell_angle_beta	89.998295
_cell_angle_gamma	89.994051
loop_
_atom_site_label
_atom_site_type_symbol
_atom_site_fract_x
_atom_site_fract_y
_atom_site_fract_z
O1	O	-0.073240	1.040348	0.176274
O2	O	0.426760	1.540348	0.676274
O3	O	-0.073240	0.812063	0.174342
O4	O	0.426760	1.312063	0.674342
O5	O	-0.073231	0.932477	0.054695
O6	O	0.426769	1.432477	0.554695
O7	O	-0.073249	0.919935	0.295920
O8	O	0.426751	1.419935	0.795920
O9	O	0.073226	0.932463	0.054701
O10	O	0.573226	1.432463	0.554701
O11	O	0.073217	0.812049	0.174348
O12	O	0.573217	1.312049	0.674348
O13	O	0.073218	1.040334	0.176280
O14	O	0.573218	1.540334	0.676280
Zn15	Zn	0.096471	0.926189	0.175315
Zn16	Zn	0.596471	1.426189	0.675315
Zn17	Zn	-0.096493	0.926208	0.175307
Zn18	Zn	0.403507	1.426208	0.675307
O19	O	0.073208	0.919920	0.295927
O20	O	0.573208	1.419920	0.795927
C21	C	-0.000011	0.782844	0.171857
C22	C	0.499989	1.282844	0.671857
C23	C	-0.000011	0.695802	0.164435
C24	C	0.499989	1.195802	0.664435
N25	N	0.228163	0.926182	0.175321
N26	N	0.728163	1.426182	0.675321
N27	N	-0.228186	0.926221	0.175295
N28	N	0.271814	1.426221	0.675295
C29	C	-0.000011	0.206855	0.114561
C30	C	0.499989	0.706855	0.614561
C31	C	-0.000006	0.288640	0.121542
C32	C	0.499994	0.788640	0.621542
C33	C	-0.000016	0.320163	0.200149
C34	C	0.499984	0.820163	0.700149
C35	C	-0.000021	0.269897	0.271780
C36	C	0.499979	0.769897	0.771780
C37	C	-0.000020	0.188114	0.264799
C38	C	0.499980	0.688114	0.764799
C39	C	-0.000015	0.563753	0.229084
C40	C	0.499985	1.063753	0.729084
C41	C	-0.000019	0.645542	0.236060
C42	C	0.499981	1.145542	0.736060
C43	C	-0.000002	0.664280	0.085821
C44	C	0.499998	1.164280	0.585821
C45	C	-0.000006	0.582494	0.078847
C46	C	0.499994	1.082494	0.578847
C47	C	-0.000007	0.532235	0.150478
C48	C	0.499993	1.032235	0.650478
N49	N	-0.000014	0.403760	0.207287
N50	N	0.499986	0.903760	0.707287
N51	N	-0.000003	0.448640	0.143340
N52	N	0.499997	0.948640	0.643340
C53	C	0.453882	0.973736	0.228921
C54	C	0.953882	1.473736	0.728921
C55	C	0.546072	0.973745	0.228916
C56	C	1.046072	1.473745	0.728916
C57	C	0.546089	0.878665	0.121688
C58	C	1.046089	1.378665	0.621688
C59	C	0.453901	0.878662	0.121690
C60	C	0.953901	1.378662	0.621690
C61	C	0.407800	0.926196	0.175311
C62	C	0.907800	1.426196	0.675311
C63	C	0.592178	0.926208	0.175304
C64	C	1.092178	1.426208	0.675304
C65	C	0.692134	0.926217	0.175298
C66	C	1.192134	1.426217	0.675298
C67	C	0.307837	0.926188	0.175317
C68	C	0.807837	1.426188	0.675317
C69	C	-0.000013	1.069553	0.178764
C70	C	0.499987	1.569553	0.678764
C71	C	-0.000019	1.156595	0.186187
C72	C	0.499981	1.656595	0.686187
C73	C	-0.000002	0.931962	0.023690
C74	C	0.499998	1.431962	0.523690
C75	C	-0.000001	0.930439	-0.068707
C76	C	0.499999	1.430439	0.431293
C77	C	-0.000014	0.998348	-0.286449
C78	C	0.499986	1.498348	0.213551
C79	C	-0.000022	0.996911	-0.373265
C80	C	0.499978	1.496911	0.126735
C81	C	-0.000018	0.854044	-0.362923
C82	C	0.499982	1.354044	0.137077
C83	C	-0.000017	0.855482	-0.276108
C84	C	0.499983	1.355482	0.223892
C85	C	-0.000011	0.927636	-0.237874
C86	C	0.499989	1.427636	0.262126
C87	C	-0.000019	0.924761	-0.411505
C88	C	0.499981	1.424761	0.088495
C89	C	-0.000027	0.923202	-0.505635
C90	C	0.499973	1.423202	-0.005635
C91	C	-0.000005	0.929196	-0.143738
C92	C	0.499995	1.429196	0.356262
C93	C	-0.000023	0.920436	0.326932
C94	C	0.499977	1.420436	0.826932
C95	C	-0.000030	0.921959	0.419329
C96	C	0.499970	1.421959	0.919329
H97	H	-0.000008	0.181196	0.050551
H98	H	0.499992	0.681196	0.550551
H99	H	-0.000015	0.671205	0.300075
H100	H	0.499985	1.171205	0.800075
Cl101	Cl	-0.000009	1.089056	-0.238385
Cl102	Cl	0.499991	1.589056	0.261615
H103	H	0.583635	0.839964	0.078032
H104	H	1.083635	1.339964	0.578032
Cl105	Cl	0.395964	0.818890	0.054290
Cl106	Cl	0.895964	1.318890	0.554290
Cl107	Cl	-0.000021	0.766580	-0.215037
Cl108	Cl	0.499979	1.266580	0.284963
H109	H	-0.000021	0.522841	0.287412
H110	H	0.499979	1.022841	0.787412
H111	H	-0.000026	1.054491	-0.412812
H112	H	0.499974	1.554491	0.087188
H113	H	0.000002	0.556835	0.014837
H114	H	0.500002	1.056835	0.514837
Cl115	Cl	0.000010	0.351821	0.031494
Cl116	Cl	0.500010	0.851821	0.531494
Cl117	Cl	0.000006	0.727467	-0.004223
Cl118	Cl	0.500006	1.227467	0.495777
H119	H	0.583588	1.012458	0.272570
H120	H	1.083588	1.512458	0.772570
Cl121	Cl	0.395930	1.033500	0.296324
Cl122	Cl	0.895930	1.533500	0.796324
H123	H	-0.000022	0.795298	-0.394064
H124	H	0.499978	1.295298	0.105936
H125	H	-0.000024	0.147192	0.323124
H126	H	0.499976	0.647192	0.823124
Cl127	Cl	-0.000032	0.309526	0.370602
Cl128	Cl	0.499968	0.809526	0.870602
