data_functionalizedCrystal
_audit_creation_method	'MofGen! by Chris Wilmer'
_symmetry_space_group_name_H-M	'P1'
_symmetry_Int_Tables_number	1
_symmetry_cell_setting	triclinic
loop_
_symmetry_equiv_pos_as_xyz
  x,y,z
_cell_length_a	12.837943
_cell_length_b	14.421503
_cell_length_c	12.811415
_cell_angle_alpha	95.426546
_cell_angle_beta	89.411917
_cell_angle_gamma	90.007355
loop_
_atom_site_label
_atom_site_type_symbol
_atom_site_fract_x
_atom_site_fract_y
_atom_site_fract_z
O1	O	1.376640	0.100045	0.272960
O2	O	1.074776	0.098917	0.259475
O3	O	1.233301	0.086693	0.114187
O4	O	1.218116	0.112270	0.418249
O5	O	1.233275	-0.067529	0.114208
O6	O	1.074750	-0.055305	0.259497
O7	O	1.376614	-0.054176	0.272981
Cu8	Cu	1.225680	-0.068822	0.266241
Cu9	Cu	1.225711	0.113563	0.266216
O10	O	1.218089	-0.041952	0.418270
C11	C	1.036123	0.021424	0.254931
C12	C	0.920987	0.020284	0.241345
N13	N	1.225665	-0.197102	0.266259
C14	C	0.680735	0.034009	0.404673
C15	C	0.572554	0.032938	0.391912
C16	C	0.596442	0.017062	0.203065
C17	C	0.704623	0.018133	0.215825
C18	C	0.746765	0.026609	0.316632
C19	C	0.854948	0.027687	0.329392
C20	C	0.878834	0.011805	0.140545
C21	C	0.770653	0.010733	0.127785
C22	C	1.152350	-0.441106	0.333405
C23	C	1.246148	-0.500408	0.363158
C24	C	1.225691	-0.386265	0.266236
C25	C	1.131917	-0.511055	0.236510
C26	C	1.225706	-0.568988	0.266216
C27	C	1.319536	-0.444202	0.296041
C28	C	1.205243	-0.454848	0.169346
C29	C	1.299108	-0.514124	0.199065
C30	C	1.225680	-0.281003	0.266250
C31	C	1.225728	-0.674248	0.266202
C32	C	1.415267	0.023319	0.277526
C33	C	1.530403	0.024465	0.291112
C34	C	1.232436	0.006287	0.075009
C35	C	1.229887	-0.003529	-0.041763
N36	N	1.225733	0.241842	0.266190
C37	C	1.225105	0.146176	-0.261203
C38	C	1.222709	0.136956	-0.370920
C39	C	1.222691	-0.031186	-0.370916
C40	C	1.225087	-0.021967	-0.261199
C41	C	1.226296	0.066717	-0.206346
C42	C	1.228699	0.075935	-0.096627
C43	C	1.228674	-0.092207	-0.096625
C44	C	1.226278	-0.101426	-0.206343
C45	C	1.218954	0.038456	0.457448
C46	C	1.221504	0.048278	0.574219
H47	H	0.715047	0.040912	0.486754
C48	C	1.382059	-0.556351	0.123462
C49	C	1.480016	-0.522205	0.155051
C50	C	1.556458	-0.561094	0.085446
H51	H	1.368235	-0.540025	0.054836
H52	H	1.381298	-0.622225	0.123460
H53	H	1.480774	-0.456345	0.155042
H54	H	1.493873	-0.538529	0.223667
H55	H	1.555697	-0.626969	0.085444
H56	H	1.542624	-0.544766	0.016823
H57	H	1.622931	-0.537939	0.106874
C58	C	1.181912	-0.427813	0.060160
C59	C	1.083582	-0.461658	0.029445
C60	C	1.062036	-0.436759	-0.071125
H61	H	1.233239	-0.453882	0.012121
H62	H	1.182653	-0.361885	0.060819
H63	H	1.082849	-0.527572	0.028778
H64	H	1.032234	-0.435593	0.077456
H65	H	1.062776	-0.370831	-0.070465
H66	H	1.113368	-0.462830	-0.119155
H67	H	0.995313	-0.459711	-0.091973
C68	C	0.724693	0.001588	0.018428
C69	C	0.615819	0.002254	0.026094
C70	C	0.573449	-0.006154	-0.074625
H71	H	0.747208	-0.055270	-0.018369
H72	H	0.747278	0.052306	-0.018293
H73	H	0.593244	-0.048460	0.062799
H74	H	0.593276	0.059106	0.062872
H75	H	0.596034	0.044565	-0.111346
H76	H	0.595971	-0.063011	-0.111414
H77	H	0.499574	-0.005694	-0.069437
H78	H	1.226098	0.218385	-0.216541
H79	H	1.229686	0.148146	-0.051968
H80	H	1.225290	-0.173630	-0.251019
H81	H	1.221736	0.201660	-0.415580
C82	C	0.950647	0.003924	0.045041
C83	C	1.013476	0.083413	0.046859
C84	C	1.079650	0.076186	-0.041092
H85	H	0.910179	-0.001234	-0.016892
H86	H	0.993403	-0.049739	0.046090
H87	H	0.970725	0.137061	0.045800
H88	H	1.053966	0.088586	0.108772
H89	H	1.122406	0.022523	-0.040043
H90	H	1.039173	0.071026	-0.103019
H91	H	1.122293	0.130113	-0.039865
H92	H	1.090393	-0.409224	0.390265
H93	H	1.229647	-0.156908	-0.051950
C94	C	0.900506	0.036847	0.438922
C95	C	0.819519	0.043071	0.513291
C96	C	0.861443	0.051494	0.614203
H97	H	0.942204	0.091374	0.447974
H98	H	0.942173	-0.016203	0.447881
H99	H	0.777869	0.096116	0.504337
H100	H	0.777815	-0.011449	0.504273
H101	H	0.903110	-0.001556	0.623162
H102	H	0.903140	0.106021	0.623244
H103	H	0.806500	0.055710	0.664675
C104	C	0.501036	0.041035	0.487631
C105	C	0.561102	0.048709	0.578639
C106	C	0.495256	0.056182	0.666838
H107	H	0.458305	-0.012806	0.486731
H108	H	0.458363	0.094755	0.486633
H109	H	0.603757	-0.005005	0.579637
H110	H	0.603831	0.102549	0.579573
H111	H	0.452583	0.109903	0.665840
H112	H	0.452528	0.002340	0.665928
H113	H	0.536001	0.061399	0.728597
C114	C	1.269025	-0.527403	0.472466
C115	C	1.191992	-0.490270	0.542475
C116	C	1.213017	-0.515124	0.643176
H117	H	1.335100	-0.503513	0.494179
H118	H	1.269448	-0.593350	0.471574
H119	H	1.191580	-0.424336	0.543371
H120	H	1.125909	-0.514155	0.520796
H121	H	1.213439	-0.581071	0.642284
H122	H	1.279094	-0.491233	0.664879
H123	H	1.160749	-0.489941	0.690688
H124	H	0.562110	0.010085	0.120992
C125	C	1.425198	-0.405119	0.329795
C126	C	1.423922	-0.308064	0.329516
C127	C	1.521219	-0.272024	0.360657
H128	H	1.477457	-0.430607	0.282476
H129	H	1.439796	-0.421009	0.398442
H130	H	1.409336	-0.292183	0.260879
H131	H	1.371683	-0.282551	0.376837
H132	H	1.535818	-0.287913	0.429304
H133	H	1.573471	-0.297518	0.313335
H134	H	1.520364	-0.206168	0.360481
H135	H	1.052608	-0.540337	0.211379
C136	C	1.221235	-0.127401	-0.430626
C137	C	1.130764	-0.137361	-0.490750
C138	C	1.129404	-0.225975	-0.545786
H139	H	1.222239	-0.173505	-0.382375
H140	H	1.280676	-0.134642	-0.475445
H141	H	1.071338	-0.130129	-0.445936
H142	H	1.129740	-0.091278	-0.539020
H143	H	1.188845	-0.233216	-0.590604
H144	H	1.130411	-0.272072	-0.497527
H145	H	1.068026	-0.232742	-0.586594
