data_functionalizedCrystal
_audit_creation_method	'MofGen! by Chris Wilmer'
_symmetry_space_group_name_H-M	'P1'
_symmetry_Int_Tables_number	1
_symmetry_cell_setting	triclinic
loop_
_symmetry_equiv_pos_as_xyz
  x,y,z
_cell_length_a	17.699083
_cell_length_b	17.699082
_cell_length_c	16.176319
_cell_angle_alpha	89.995130
_cell_angle_beta	90.001389
_cell_angle_gamma	96.717252
loop_
_atom_site_label
_atom_site_type_symbol
_atom_site_fract_x
_atom_site_fract_y
_atom_site_fract_z
O1	O	-1.004078	0.095713	-0.068627
O2	O	-0.670745	0.429047	0.264706
O3	O	-0.337412	0.762380	0.598040
O4	O	-0.783700	0.108166	-0.068654
O5	O	-0.450367	0.441499	0.264680
O6	O	-0.117033	0.774832	0.598013
O7	O	-0.900116	-0.008250	-0.068638
O8	O	-0.566783	0.325083	0.264695
O9	O	-0.233449	0.658417	0.598028
O10	O	-0.887662	0.212129	-0.068643
O11	O	-0.554329	0.545462	0.264691
O12	O	-0.220996	0.878795	0.598024
O13	O	-0.900100	-0.008257	0.068855
O14	O	-0.566767	0.325076	0.402188
O15	O	-0.233433	0.658409	0.735522
O16	O	-0.783684	0.108158	0.068839
O17	O	-0.450351	0.441492	0.402173
O18	O	-0.117017	0.774825	0.735506
O19	O	-1.004062	0.095706	0.068866
O20	O	-0.670729	0.429039	0.402199
O21	O	-0.337396	0.762372	0.735533
Cu22	Cu	-0.893872	0.101931	0.081407
Cu23	Cu	-0.560538	0.435265	0.414740
Cu24	Cu	-0.227205	0.768598	0.748074
Cu25	Cu	-0.893891	0.101940	-0.081195
Cu26	Cu	-0.560557	0.435273	0.252139
Cu27	Cu	-0.227224	0.768607	0.585472
O28	O	-0.887646	0.212121	0.068851
O29	O	-0.554313	0.545455	0.402184
O30	O	-0.220980	0.878788	0.735517
C31	C	-0.755495	0.107716	0.000089
C32	C	-0.422162	0.441049	0.333423
C33	C	-0.088828	0.774382	0.666756
C34	C	-0.671477	0.106377	0.000079
C35	C	-0.338143	0.439710	0.333412
C36	C	-0.004810	0.773044	0.666746
C37	C	-0.899662	-0.036451	0.000107
C38	C	-0.566328	0.296883	0.333440
C39	C	-0.232995	0.630216	0.666773
C40	C	-0.898324	-0.120469	0.000102
C41	C	-0.564990	0.212865	0.333436
C42	C	-0.231657	0.546198	0.666769
C43	C	-1.032267	0.096156	0.000121
C44	C	-0.698934	0.429489	0.333454
C45	C	-0.365601	0.762822	0.666788
C46	C	-1.116285	0.097494	0.000126
C47	C	-0.782952	0.430828	0.333459
C48	C	-0.449619	0.764161	0.666793
C49	C	-0.622856	0.174711	0.000078
C50	C	-0.289522	0.508044	0.333411
C51	C	0.043811	0.841377	0.666745
C52	C	-0.543912	0.173448	0.000089
C53	C	-0.210579	0.506782	0.333422
C54	C	0.122754	0.840115	0.666755
C55	C	-0.513592	0.103852	0.000095
C56	C	-0.180258	0.437185	0.333428
C57	C	0.153075	0.770518	0.666761
C58	C	-0.562219	0.035513	0.000098
C59	C	-0.228886	0.368846	0.333432
C60	C	0.104447	0.702180	0.666765
C61	C	-0.641161	0.036776	0.000093
C62	C	-0.307828	0.370110	0.333427
C63	C	0.025506	0.703443	0.666760
C64	C	-0.243856	0.030418	0.000119
C65	C	0.089477	0.363751	0.333452
C66	C	0.422810	0.697085	0.666785
C67	C	-0.164908	0.029160	0.000121
C68	C	0.168425	0.362493	0.333454
C69	C	0.501758	0.695827	0.666788
C70	C	-0.146607	0.167090	0.000114
C71	C	0.186726	0.500423	0.333447
C72	C	0.520059	0.833757	0.666781
C73	C	-0.225549	0.168353	0.000109
C74	C	0.107784	0.501686	0.333443
C75	C	0.441117	0.835020	0.666776
C76	C	-0.274170	0.100015	0.000117
C77	C	0.059164	0.433348	0.333451
C78	C	0.392497	0.766681	0.666784
C79	C	-0.359769	0.101384	0.000107
C80	C	-0.026436	0.434718	0.333440
C81	C	0.306898	0.768051	0.666774
C82	C	-0.427994	0.102481	0.000099
C83	C	-0.094661	0.435815	0.333432
C84	C	0.238673	0.769148	0.666765
N85	N	-0.893864	0.101925	0.195772
N86	N	-0.560531	0.435258	0.529106
N87	N	-0.227197	0.768591	0.862439
C88	C	-0.888100	0.240322	0.000104
C89	C	-0.554767	0.573655	0.333437
C90	C	-0.221434	0.906989	0.666770
C91	C	-0.889439	0.324340	0.000103
C92	C	-0.556105	0.657673	0.333436
C93	C	-0.222772	0.991007	0.666769
C94	C	-0.890077	0.363813	-0.074846
C95	C	-0.556743	0.697147	0.258488
C96	C	-0.223410	1.030480	0.591821
C97	C	-0.891344	0.442756	-0.074847
C98	C	-0.558011	0.776089	0.258487
C99	C	-0.224677	1.109423	0.591820
C100	C	-0.891967	0.482225	0.000102
C101	C	-0.558634	0.815558	0.333435
C102	C	-0.225301	1.148891	0.666768
C103	C	-0.891331	0.442746	0.075056
C104	C	-0.557998	0.776079	0.408389
C105	C	-0.224665	1.109412	0.741723
C106	C	-0.890070	0.363804	0.075056
C107	C	-0.556736	0.697137	0.408389
C108	C	-0.223403	1.030471	0.741723
C109	C	-0.896421	0.761110	0.075058
C110	C	-0.563087	1.094443	0.408391
C111	C	-0.229754	1.427776	0.741724
C112	C	-0.897680	0.840057	0.075052
C113	C	-0.564347	1.173391	0.408385
C114	C	-0.231013	1.506724	0.741718
C115	C	-0.897695	0.840062	-0.074845
C116	C	-0.564361	1.173395	0.258488
C117	C	-0.231028	1.506728	0.591822
C118	C	-0.896433	0.761120	-0.074845
C119	C	-0.563100	1.094453	0.258488
C120	C	-0.229766	1.427786	0.591822
C121	C	-0.895801	0.721647	0.000109
C122	C	-0.562468	1.054981	0.333442
C123	C	-0.229134	1.388314	0.666775
C124	C	-0.894429	0.636048	0.000109
C125	C	-0.561095	0.969382	0.333442
C126	C	-0.227762	1.302715	0.666775
C127	C	-0.893334	0.567823	0.000103
C128	C	-0.560001	0.901156	0.333436
C129	C	-0.226668	1.234489	0.666769
N130	N	-0.893904	0.101941	-0.195560
N131	N	-0.560571	0.435274	0.137773
N132	N	-0.227238	0.768607	0.471107
C133	C	-0.945428	0.050397	0.239043
C134	C	-0.612095	0.383730	0.572377
C135	C	-0.278762	0.717064	0.905710
C136	C	-0.945432	0.050396	0.325590
C137	C	-0.612099	0.383729	0.658924
C138	C	-0.278766	0.717063	0.992257
C139	C	-0.893875	0.101927	0.368865
C140	C	-0.560541	0.435261	0.702198
C141	C	-0.227208	0.768594	1.035531
C142	C	-0.842305	0.153458	0.325588
C143	C	-0.508971	0.486791	0.658921
C144	C	-0.175638	0.820124	0.992254
C145	C	-0.842298	0.153454	0.239042
C146	C	-0.508964	0.486787	0.572376
C147	C	-0.175631	0.820121	0.905709
C148	C	-0.842331	0.153472	0.674616
C149	C	-0.508997	0.486805	1.007949
C150	C	-0.175664	0.820138	1.341283
C151	C	-0.842343	0.153473	0.761168
C152	C	-0.509010	0.486806	1.094501
C153	C	-0.175676	0.820139	1.427834
C154	C	-0.945465	0.050414	0.761164
C155	C	-0.612132	0.383747	1.094497
C156	C	-0.278798	0.717080	1.427831
C157	C	-0.945458	0.050410	0.674619
C158	C	-0.612125	0.383744	1.007952
C159	C	-0.278791	0.717077	1.341285
C160	C	-0.893886	0.101938	0.631349
C161	C	-0.560553	0.435271	0.964682
C162	C	-0.227219	0.768604	1.298016
C163	C	-0.893881	0.101937	0.537505
C164	C	-0.560548	0.435270	0.870838
C165	C	-0.227215	0.768603	1.204172
C166	C	-0.893882	0.101932	0.462707
C167	C	-0.560549	0.435266	0.796041
C168	C	-0.227215	0.768599	1.129374
H169	H	-0.647536	0.231384	0.000073
H170	H	-0.314202	0.564717	0.333406
H171	H	0.019131	0.898051	0.666739
Br172	Br	-1.015435	-0.019522	0.615891
Br173	Br	-0.682102	0.313811	0.949225
Br174	Br	-0.348768	0.647144	1.282558
Br175	Br	-0.707149	-0.055966	0.000102
Br176	Br	-0.373815	0.277368	0.333435
Br177	Br	-0.040482	0.610701	0.666769
H178	H	-0.898184	0.872191	0.136087
H179	H	-0.564851	1.205525	0.469421
H180	H	-0.231517	1.538858	0.802754
Br181	Br	-1.015409	-0.019537	0.180323
Br182	Br	-0.682076	0.313796	0.513656
Br183	Br	-0.348742	0.647130	0.846989
Br184	Br	-0.892185	0.496309	0.176773
Br185	Br	-0.558852	0.829642	0.510107
Br186	Br	-0.225518	1.162975	0.843440
Br187	Br	-0.477928	0.266191	0.000085
Br188	Br	-0.144595	0.599524	0.333418
Br189	Br	0.188738	0.932857	0.666751
H190	H	-0.250231	0.225026	0.000101
H191	H	0.083102	0.558359	0.333434
H192	H	0.416435	0.891692	0.666767
H193	H	-0.889550	0.331666	0.136087
H194	H	-0.556216	0.664999	0.469420
H195	H	-0.222883	0.998333	0.802753
Br196	Br	-1.015411	-0.019538	0.384318
Br197	Br	-0.682077	0.313795	0.717651
Br198	Br	-0.348744	0.647129	1.050985
H199	H	-0.898211	0.872210	-0.135876
H200	H	-0.564878	1.205543	0.197457
H201	H	-0.231545	1.538876	0.530791
H202	H	-0.987456	0.008455	0.796403
H203	H	-0.654122	0.341788	1.129737
H204	H	-0.320789	0.675122	1.463070
H205	H	-0.107011	0.222734	0.000112
H206	H	0.226323	0.556068	0.333445
H207	H	0.559656	0.889401	0.666779
H208	H	-0.800356	0.195437	0.796400
H209	H	-0.467022	0.528770	1.129734
H210	H	-0.133689	0.862104	1.463067
Br211	Br	-0.309831	-0.062327	0.000132
Br212	Br	0.023502	0.271006	0.333465
Br213	Br	0.356835	0.604339	0.666798
H214	H	-0.140225	-0.027517	0.000127
H215	H	0.193108	0.305816	0.333460
H216	H	0.526442	0.639150	0.666794
Br217	Br	-0.895582	0.707559	-0.176564
Br218	Br	-0.562248	1.040893	0.156769
Br219	Br	-0.228915	1.374226	0.490102
H220	H	-0.800340	0.195428	0.639393
H221	H	-0.467007	0.528762	0.972726
H222	H	-0.133673	0.862095	1.306059
H223	H	-0.800322	0.195413	0.360827
H224	H	-0.466988	0.528746	0.694160
H225	H	-0.133655	0.862079	1.027493
H226	H	-0.800308	0.195412	0.203812
H227	H	-0.466975	0.528746	0.537145
H228	H	-0.133641	0.862079	0.870478
Br229	Br	-0.521071	-0.058941	0.000114
Br230	Br	-0.187738	0.274393	0.333448
Br231	Br	0.145596	0.607726	0.666781
Br232	Br	-0.889222	0.310257	-0.176567
Br233	Br	-0.555889	0.643590	0.156766
Br234	Br	-0.222555	0.976924	0.490099
H235	H	-0.895907	0.728980	0.136089
H236	H	-0.562574	1.062314	0.469423
H237	H	-0.229240	1.395647	0.802756
Br238	Br	-0.892214	0.496323	-0.176567
Br239	Br	-0.558881	0.829657	0.156766
Br240	Br	-0.225548	1.162990	0.490100
