data_functionalizedCrystal
_audit_creation_method	'MofGen! by Chris Wilmer'
_symmetry_space_group_name_H-M	'P1'
_symmetry_Int_Tables_number	1
_symmetry_cell_setting	triclinic
loop_
_symmetry_equiv_pos_as_xyz
  x,y,z
_cell_length_a	18.050589
_cell_length_b	18.215407
_cell_length_c	18.215399
_cell_angle_alpha	90.017777
_cell_angle_beta	89.976397
_cell_angle_gamma	89.976159
loop_
_atom_site_label
_atom_site_type_symbol
_atom_site_fract_x
_atom_site_fract_y
_atom_site_fract_z
Zn1	Zn	-0.295754	-1.125055	-0.416098
Zn2	Zn	0.037579	-0.791722	-0.082764
Zn3	Zn	0.370913	-0.458388	0.250569
Zn4	Zn	-0.419949	-1.124956	-0.293041
Zn5	Zn	-0.086616	-0.791623	0.040293
Zn6	Zn	0.246718	-0.458289	0.373626
Zn7	Zn	-0.295768	-1.001987	-0.293049
Zn8	Zn	0.037566	-0.668654	0.040284
Zn9	Zn	0.370899	-0.335321	0.373617
Zn10	Zn	-0.419897	-1.001946	-0.416070
Zn11	Zn	-0.086564	-0.668613	-0.082737
Zn12	Zn	0.246770	-0.335279	0.250597
O13	O	-0.357842	-1.063486	-0.354564
O14	O	-0.024509	-0.730153	-0.021231
O15	O	0.308825	-0.396819	0.312102
O16	O	-0.312244	-1.228026	-0.399782
O17	O	0.021089	-0.894693	-0.066448
O18	O	0.354422	-0.561359	0.266885
O19	O	-0.403503	-1.108620	-0.190058
O20	O	-0.070170	-0.775287	0.143276
O21	O	0.263163	-0.441953	0.476609
O22	O	-0.191841	-1.018371	-0.309387
O23	O	0.141492	-0.685038	0.023946
O24	O	0.474825	-0.351705	0.357279
O25	O	-0.403490	-1.227953	-0.309372
O26	O	-0.070157	-0.894620	0.023961
O27	O	0.263177	-0.561287	0.357294
O28	O	-0.191831	-1.108788	-0.399790
O29	O	0.141502	-0.775455	-0.066457
O30	O	0.474836	-0.442122	0.266876
O31	O	-0.312268	-1.018275	-0.190064
O32	O	0.021065	-0.684942	0.143269
O33	O	0.354399	-0.351609	0.476603
O34	O	-0.312218	-0.898998	-0.309361
O35	O	0.021115	-0.565664	0.023973
O36	O	0.354449	-0.232331	0.357306
O37	O	-0.403402	-1.018301	-0.519058
O38	O	-0.070068	-0.684967	-0.185725
O39	O	0.263265	-0.351634	0.147609
O40	O	-0.403415	-0.898967	-0.399743
O41	O	-0.070082	-0.565634	-0.066410
O42	O	0.263252	-0.232301	0.266923
O43	O	-0.312194	-1.108748	-0.519078
O44	O	0.021139	-0.775415	-0.185745
O45	O	0.354472	-0.442082	0.147588
O46	O	-0.523867	-1.108580	-0.309346
O47	O	-0.190533	-0.775247	0.023988
O48	O	0.142800	-0.441913	0.357321
O49	O	-0.523829	-1.018205	-0.399735
O50	O	-0.190495	-0.684872	-0.066401
O51	O	0.142838	-0.351538	0.266932
C52	C	-0.357813	-0.872280	-0.354550
C53	C	-0.024480	-0.538947	-0.021217
C54	C	0.308854	-0.205613	0.312116
C55	C	-0.357818	-0.790481	-0.354562
C56	C	-0.024485	-0.457148	-0.021228
C57	C	0.308848	-0.123814	0.312105
C58	C	-0.310399	-0.602324	-0.401711
C59	C	0.022935	-0.268990	-0.068377
C60	C	0.356268	0.064343	0.264956
C61	C	-0.310402	-0.525465	-0.401713
C62	C	0.022931	-0.192132	-0.068379
C63	C	0.356264	0.141202	0.264954
C64	C	-0.405274	-0.525400	-0.307424
C65	C	-0.071941	-0.192067	0.025909
C66	C	0.261393	0.141266	0.359243
C67	C	-0.405266	-0.602258	-0.307419
C68	C	-0.071932	-0.268924	0.025914
C69	C	0.261401	0.064409	0.359248
C70	C	-0.357829	-0.640717	-0.354566
C71	C	-0.024496	-0.307384	-0.021233
C72	C	0.308837	0.025949	0.312100
C73	C	-0.357841	-0.487001	-0.354573
C74	C	-0.024508	-0.153668	-0.021240
C75	C	0.308825	0.179665	0.312093
C76	C	-0.357846	-0.403668	-0.354575
C77	C	-0.024512	-0.070334	-0.021242
C78	C	0.308821	0.262999	0.312091
C79	C	-0.357823	-0.724056	-0.354564
C80	C	-0.024490	-0.390723	-0.021231
C81	C	0.308843	-0.057390	0.312103
C82	C	-0.550794	-1.063397	-0.354552
C83	C	-0.217461	-0.730064	-0.021219
C84	C	0.115873	-0.396731	0.312114
C85	C	-0.633340	-1.063427	-0.354572
C86	C	-0.300006	-0.730093	-0.021238
C87	C	0.033327	-0.396760	0.312095
C88	C	-0.832797	-1.014329	-0.403708
C89	C	-0.499463	-0.680996	-0.070375
C90	C	-0.166130	-0.347662	0.262959
C91	C	-0.882236	-0.996389	-0.336555
C92	C	-0.548902	-0.663056	-0.003221
C93	C	-0.215569	-0.329723	0.330112
C94	C	-0.784470	-1.063499	-0.354581
C95	C	-0.451137	-0.730166	-0.021248
C96	C	-0.117803	-0.396832	0.312085
C97	C	-0.882113	-1.081475	-0.421742
C98	C	-0.548780	-0.748141	-0.088409
C99	C	-0.215446	-0.414808	0.244924
C100	C	-0.930455	-1.063567	-0.354596
C101	C	-0.597122	-0.730234	-0.021263
C102	C	-0.263789	-0.396901	0.312070
C103	C	-0.832822	-1.045524	-0.287392
C104	C	-0.499489	-0.712191	0.045941
C105	C	-0.166155	-0.378857	0.379275
C106	C	-0.832695	-1.130641	-0.372625
C107	C	-0.499361	-0.797307	-0.039292
C108	C	-0.166028	-0.463974	0.294041
C109	C	-0.882111	-1.112726	-0.305426
C110	C	-0.548778	-0.779393	0.027908
C111	C	-0.215445	-0.446060	0.361241
C112	C	-0.700372	-1.063458	-0.354573
C113	C	-0.367039	-0.730124	-0.021240
C114	C	-0.033705	-0.396791	0.312093
C115	C	-1.014552	-1.063609	-0.354597
C116	C	-0.681218	-0.730275	-0.021263
C117	C	-0.347885	-0.396942	0.312070
C118	C	-0.164136	-1.063595	-0.354593
C119	C	0.169197	-0.730262	-0.021260
C120	C	0.502530	-0.396929	0.312074
C121	C	-0.081590	-1.063642	-0.354605
C122	C	0.251743	-0.730309	-0.021272
C123	C	0.585076	-0.396975	0.312062
C124	C	-0.357791	-1.063531	-0.546517
C125	C	-0.024457	-0.730198	-0.213184
C126	C	0.308876	-0.396864	0.120149
C127	C	-0.357769	-1.063550	-0.628316
C128	C	-0.024436	-0.730217	-0.294983
C129	C	0.308898	-0.396883	0.038350
C130	C	-0.357863	-0.255439	-0.354577
C131	C	-0.024530	0.077894	-0.021244
C132	C	0.308803	0.411228	0.312089
C133	C	-0.357852	-0.337238	-0.354578
C134	C	-0.024519	-0.003905	-0.021245
C135	C	0.308815	0.329429	0.312088
C136	C	-0.310233	-1.110663	-0.816522
C137	C	0.023101	-0.777330	-0.483189
C138	C	0.356434	-0.443996	-0.149856
C139	C	-0.310211	-1.110672	-0.893381
C140	C	0.023122	-0.777338	-0.560048
C141	C	0.356456	-0.444005	-0.226714
C142	C	-0.405190	-1.016489	-0.893349
C143	C	-0.071857	-0.683156	-0.560015
C144	C	0.261477	-0.349823	-0.226682
C145	C	-0.405207	-1.016477	-0.816491
C146	C	-0.071874	-0.683144	-0.483158
C147	C	0.261459	-0.349811	-0.149825
C148	C	-0.357730	-1.063568	-0.778080
C149	C	-0.024397	-0.730235	-0.444747
C150	C	0.308937	-0.396902	-0.111413
C151	C	-0.357691	-1.063589	-0.931796
C152	C	-0.024358	-0.730256	-0.598463
C153	C	0.308976	-0.396922	-0.265129
C154	C	-0.357668	-1.063598	-1.015130
C155	C	-0.024334	-0.730265	-0.681797
C156	C	0.308999	-0.396932	-0.348463
C157	C	-0.357752	-1.063558	-0.694741
C158	C	-0.024418	-0.730225	-0.361408
C159	C	0.308915	-0.396892	-0.028074
C160	C	-0.357839	-1.063484	-0.163358
C161	C	-0.024506	-0.730150	0.169975
C162	C	0.308827	-0.396817	0.503308
C163	C	-0.357652	-1.063607	-0.081560
C164	C	-0.024319	-0.730274	0.251774
C165	C	0.309015	-0.396941	0.585107
H166	H	-0.271779	-0.494208	-0.440101
H167	H	0.061555	-0.160875	-0.106768
H168	H	0.394888	0.172458	0.226565
H169	H	-0.903764	-1.096652	-0.478534
H170	H	-0.570431	-0.763318	-0.145201
H171	H	-0.237098	-0.429985	0.188133
H172	H	-0.811260	-1.030281	-0.230585
H173	H	-0.477926	-0.696948	0.102748
H174	H	-0.144593	-0.363615	0.436082
H175	H	-0.443896	-0.494077	-0.269039
H176	H	-0.110562	-0.160744	0.064295
H177	H	0.222771	0.172589	0.397628
H178	H	-0.810920	-1.187375	-0.387906
H179	H	-0.477586	-0.854042	-0.054572
H180	H	-0.144253	-0.520708	0.278761
F181	F	-0.259663	-1.160801	-0.934291
F182	F	0.073670	-0.827468	-0.600957
F183	F	0.407004	-0.494135	-0.267624
H184	H	-0.811143	-0.972687	-0.445194
H185	H	-0.477809	-0.639353	-0.111861
H186	H	-0.144476	-0.306020	0.221472
H187	H	-0.443885	-0.978122	-0.785191
H188	H	-0.110551	-0.644789	-0.451857
H189	H	0.222782	-0.311455	-0.118524
F190	F	-0.910677	-0.922213	-0.316607
F191	F	-0.577344	-0.588879	0.016726
F192	F	-0.244010	-0.255546	0.350060
F193	F	-0.455744	-0.643122	-0.257233
F194	F	-0.122411	-0.309788	0.076101
F195	F	0.210922	0.023545	0.409434
H196	H	-0.903628	-1.154337	-0.263839
H197	H	-0.570295	-0.821004	0.069494
H198	H	-0.236962	-0.487670	0.402828
F199	F	-0.455719	-0.966377	-0.934235
F200	F	-0.122386	-0.633044	-0.600902
F201	F	0.210948	-0.299710	-0.267568
F202	F	-0.259701	-1.160779	-0.775645
F203	F	0.073632	-0.827446	-0.442311
F204	F	0.406966	-0.494113	-0.108978
F205	F	-0.259910	-0.643253	-0.451887
F206	F	0.073423	-0.309920	-0.118554
F207	F	0.406756	0.023414	0.214780
