data_functionalizedCrystal
_audit_creation_method	'MofGen! by Chris Wilmer'
_symmetry_space_group_name_H-M	'P1'
_symmetry_Int_Tables_number	1
_symmetry_cell_setting	triclinic
loop_
_symmetry_equiv_pos_as_xyz
  x,y,z
_cell_length_a	19.188933
_cell_length_b	10.654550
_cell_length_c	9.730223
_cell_angle_alpha	90.000193
_cell_angle_beta	90.001221
_cell_angle_gamma	96.184764
loop_
_atom_site_label
_atom_site_type_symbol
_atom_site_fract_x
_atom_site_fract_y
_atom_site_fract_z
O1	O	0.927165	-0.156786	-0.114241
O2	O	0.723992	-0.177889	-0.114253
O3	O	0.830250	0.015501	-0.114241
O4	O	0.820907	-0.350175	-0.114252
O5	O	0.830249	0.015496	0.114338
O6	O	0.723991	-0.177894	0.114327
O7	O	0.927164	-0.156791	0.114339
Zn8	Zn	0.825577	-0.167343	0.150625
Zn9	Zn	0.825579	-0.167337	-0.150539
O10	O	0.820906	-0.350180	0.114328
C11	C	0.697976	-0.177207	0.000035
C12	C	0.620458	-0.175155	0.000031
C13	C	0.067108	-0.160502	-0.124553
C14	C	0.139945	-0.162423	-0.124558
C15	C	0.176367	-0.163392	0.000040
C16	C	0.139949	-0.162408	0.124653
C17	C	0.067115	-0.160474	0.124655
N18	N	0.285874	-0.237890	0.092782
N19	N	0.355064	-0.239729	0.092772
C20	C	0.395814	-0.169216	0.000042
N21	N	0.364760	-0.096809	-0.092698
N22	N	0.295563	-0.094975	-0.092692
C23	C	0.255344	-0.165488	0.000052
C24	C	0.511202	-0.172274	-0.124569
C25	C	0.584041	-0.174188	-0.124569
C26	C	0.584043	-0.174185	0.124646
C27	C	0.511206	-0.172259	0.124643
C28	C	0.474790	-0.171310	0.000031
C29	C	0.829564	0.062282	0.000047
C30	C	0.827511	0.201682	0.000042
C31	C	0.953180	-0.157472	0.000048
C32	C	1.030698	-0.159525	0.000044
C33	C	0.821593	-0.396961	0.000036
C34	C	0.823645	-0.536361	0.000032
N35	N	0.825581	-0.167347	0.356161
C36	C	0.890074	0.282490	0.000050
C37	C	0.888141	0.413470	0.000040
C38	C	0.761077	0.382820	0.000020
C39	C	0.763011	0.251842	0.000020
C40	C	0.963434	0.300187	0.000067
C41	C	0.961501	0.431167	0.000058
N42	N	0.825580	-0.167323	-0.356075
C43	C	0.872645	-0.081742	0.428093
C44	C	0.872643	-0.081727	0.571976
C45	C	0.778512	-0.252931	0.571984
C46	C	0.778511	-0.252940	0.428103
C47	C	0.926992	0.017097	0.428089
C48	C	0.926990	0.017113	0.571972
H49	H	0.037470	-0.159683	0.226120
H50	H	0.708563	0.423677	0.000001
H51	H	0.983672	0.477281	-0.098636
H52	H	0.740189	-0.322618	0.630574
H53	H	0.992128	0.271438	-0.095585
H54	H	0.915072	0.113378	0.389037
O55	O	0.702285	0.173214	0.000179
C56	C	0.630697	0.007593	0.118604
C57	C	0.699504	0.096548	0.118584
H58	H	0.628419	-0.054396	0.214339
H59	H	0.628426	-0.054576	0.023005
H60	H	0.584277	0.065969	0.118522
H61	H	0.745962	0.038271	0.118715
H62	H	0.701713	0.158720	0.214175
O63	O	0.475886	-0.171514	-0.245694
C64	C	0.446176	-0.279740	-0.458649
C65	C	0.486216	-0.280743	-0.321542
H66	H	0.454502	-0.368055	-0.519998
H67	H	0.466464	-0.192316	-0.520196
H68	H	0.387872	-0.278141	-0.437207
H69	H	0.544526	-0.282387	-0.342859
H70	H	0.465870	-0.368157	-0.260037
H71	H	0.169595	-0.163226	-0.226023
H72	H	0.977682	-0.012419	0.383465
H73	H	0.986793	0.265052	0.098765
O74	O	0.994466	0.481479	0.114281
C75	C	1.056551	0.441576	0.322314
C76	C	1.019227	0.384430	0.193037
H77	H	1.076594	0.363142	0.386009
H78	H	1.018148	0.491734	0.386181
H79	H	1.102589	0.512186	0.290398
H80	H	0.973192	0.313770	0.224830
H81	H	1.057676	0.334352	0.129201
H82	H	0.980642	-0.003271	0.611025
O83	O	0.732859	-0.336263	0.358295
C84	C	0.692956	-0.554804	0.314364
C85	C	0.744710	-0.460574	0.393478
H86	H	0.702509	-0.655329	0.342802
H87	H	0.701035	-0.540224	0.199153
H88	H	0.636968	-0.538604	0.342640
H89	H	0.800718	-0.476717	0.365318
H90	H	0.736570	-0.475177	0.508670
O91	O	0.031847	-0.159508	-0.245719
C92	C	0.039530	-0.159782	-0.492901
C93	C	0.079553	-0.160888	-0.355782
H94	H	0.078081	-0.160923	-0.581923
H95	H	0.011421	-0.070988	-0.499224
H96	H	-0.000556	-0.246714	-0.499061
H97	H	0.119672	-0.074016	-0.349530
H98	H	0.107614	-0.249738	-0.349517
O99	O	0.175311	-0.163126	0.245723
C100	C	0.204954	-0.054978	0.458751
C101	C	0.164888	-0.054000	0.321671
H102	H	0.196530	0.033227	0.520207
H103	H	0.263279	-0.056450	0.437429
H104	H	0.184673	-0.142498	0.520145
H105	H	0.185110	0.033506	0.260209
H106	H	0.106568	-0.052594	0.343091
O107	O	0.619459	-0.174915	-0.245573
C108	C	0.709101	-0.068380	-0.390181
C109	C	0.669032	-0.067384	-0.253109
H110	H	0.749200	0.018535	-0.396306
H111	H	0.670596	-0.067293	-0.479293
H112	H	0.737203	-0.157186	-0.396378
H113	H	0.640927	0.021407	-0.246778
H114	H	0.707569	-0.068538	-0.164063
O115	O	0.619328	-0.175290	0.245769
C116	C	0.634267	-0.284680	0.458734
C117	C	0.594236	-0.283577	0.321623
H118	H	0.614006	-0.372235	0.520088
H119	H	0.625894	-0.196495	0.520273
H120	H	0.692579	-0.286164	0.437296
H121	H	0.535911	-0.282137	0.342937
H122	H	0.602667	-0.371757	0.260127
O123	O	0.906794	0.125626	0.624986
C124	C	0.868753	0.329450	0.577215
C125	C	0.891617	0.206632	0.516992
H126	H	0.856463	0.394966	0.489932
H127	H	0.912839	0.377992	0.643092
H128	H	0.819980	0.306272	0.643224
H129	H	0.940375	0.229701	0.450922
H130	H	0.847490	0.158125	0.451194
H131	H	0.481561	-0.171468	0.226103
