data_functionalizedCrystal
_audit_creation_method	'MofGen! by Chris Wilmer'
_symmetry_space_group_name_H-M	'P1'
_symmetry_Int_Tables_number	1
_symmetry_cell_setting	triclinic
loop_
_symmetry_equiv_pos_as_xyz
  x,y,z
_cell_length_a	27.732048
_cell_length_b	19.188930
_cell_length_c	17.666332
_cell_angle_alpha	89.980296
_cell_angle_beta	90.009510
_cell_angle_gamma	97.106284
loop_
_atom_site_label
_atom_site_type_symbol
_atom_site_fract_x
_atom_site_fract_y
_atom_site_fract_z
O1	O	0.060347	-0.925761	0.063200
O2	O	0.393680	-0.592428	0.396533
O3	O	0.727014	-0.259095	0.729866
O4	O	0.068471	-0.722398	0.063149
O5	O	0.401804	-0.389065	0.396482
O6	O	0.735137	-0.055732	0.729816
O7	O	-0.005969	-0.830396	0.063161
O8	O	0.327365	-0.497062	0.396495
O9	O	0.660698	-0.163729	0.729828
O10	O	0.134786	-0.817764	0.063187
O11	O	0.468120	-0.484430	0.396520
O12	O	0.801453	-0.151097	0.729854
O13	O	-0.005970	-0.830384	-0.062735
O14	O	0.327363	-0.497050	0.270598
O15	O	0.660696	-0.163717	0.603931
O16	O	0.068469	-0.722386	-0.062748
O17	O	0.401802	-0.389053	0.270585
O18	O	0.735136	-0.055720	0.603919
O19	O	0.060345	-0.925749	-0.062697
O20	O	0.393678	-0.592416	0.270636
O21	O	0.727012	-0.259083	0.603970
Cu22	Cu	0.064407	-0.824067	-0.074218
Cu23	Cu	0.397740	-0.490733	0.259115
Cu24	Cu	0.731074	-0.157400	0.592449
Cu25	Cu	0.064409	-0.824081	0.074670
Cu26	Cu	0.397742	-0.490748	0.408003
Cu27	Cu	0.731076	-0.157414	0.741336
O28	O	0.134784	-0.817752	-0.062710
O29	O	0.468118	-0.484418	0.270624
O30	O	0.801451	-0.151085	0.603957
C31	C	-0.023977	-0.830125	0.000211
C32	C	0.309356	-0.496791	0.333544
C33	C	0.642689	-0.163458	0.666878
C34	C	-0.077635	-0.829326	0.000204
C35	C	0.255699	-0.495993	0.333538
C36	C	0.589032	-0.162660	0.666871
C37	C	0.068207	-0.696383	0.000194
C38	C	0.401540	-0.363050	0.333527
C39	C	0.734873	-0.029716	0.666860
C40	C	0.067417	-0.618883	0.000174
C41	C	0.400750	-0.285550	0.333507
C42	C	0.734084	0.047783	0.666840
C43	C	0.060609	-0.951765	0.000260
C44	C	0.393942	-0.618431	0.333593
C45	C	0.727276	-0.285098	0.666926
C46	C	0.061399	-1.029264	0.000285
C47	C	0.394732	-0.695931	0.333618
C48	C	0.728066	-0.362597	0.666951
C49	C	-0.416270	-0.888119	0.000258
C50	C	-0.082937	-0.554786	0.333591
C51	C	0.250397	-0.221452	0.666925
C52	C	-0.617939	-0.885157	0.000268
C53	C	-0.284605	-0.551823	0.333601
C54	C	0.048728	-0.218490	0.666935
O55	O	-0.649030	-0.938918	0.000314
O56	O	-0.315696	-0.605585	0.333648
O57	O	0.017637	-0.272252	0.666981
N58	N	-0.637258	-0.821118	0.000251
N59	N	-0.303925	-0.487785	0.333584
N60	N	0.029409	-0.154452	0.666918
C61	C	-0.606157	-0.757816	0.000237
C62	C	-0.272824	-0.424483	0.333570
C63	C	0.060510	-0.091150	0.666904
O64	O	-0.627217	-0.703280	0.000231
O65	O	-0.293883	-0.369947	0.333564
O66	O	0.039450	-0.036613	0.666897
C67	C	-0.404489	-0.760780	0.000233
C68	C	-0.071156	-0.427446	0.333566
C69	C	0.262177	-0.094113	0.666899
C70	C	-0.385173	-0.824822	0.000242
C71	C	-0.051839	-0.491489	0.333575
C72	C	0.281494	-0.158155	0.666908
C73	C	-0.396953	-0.952156	0.000268
C74	C	-0.063620	-0.618823	0.333601
C75	C	0.269714	-0.285489	0.666935
C76	C	-0.346539	-0.952896	0.000261
C77	C	-0.013205	-0.619563	0.333595
C78	C	0.320128	-0.286229	0.666928
C79	C	-0.315441	-0.889599	0.000245
C80	C	0.017892	-0.556266	0.333578
C81	C	0.351225	-0.222932	0.666912
C82	C	-0.334759	-0.825562	0.000235
C83	C	-0.001425	-0.492228	0.333568
C84	C	0.331908	-0.158895	0.666902
C85	C	-0.373389	-0.697478	0.000224
C86	C	-0.040056	-0.364145	0.333557
C87	C	0.293278	-0.030812	0.666890
C88	C	-0.322969	-0.698225	0.000225
C89	C	0.010364	-0.364892	0.333558
C90	C	0.343697	-0.031558	0.666891
C91	C	-0.303653	-0.762267	0.000234
C92	C	0.029680	-0.428934	0.333567
C93	C	0.363014	-0.095600	0.666900
C94	C	-0.253247	-0.763005	0.000212
C95	C	0.080086	-0.429671	0.333545
C96	C	0.413420	-0.096338	0.666879
N97	N	-0.233928	-0.827043	0.000229
N98	N	0.099406	-0.493709	0.333562
N99	N	0.432739	-0.160376	0.666895
C100	C	-0.265025	-0.890340	0.000245
C101	C	0.068309	-0.557007	0.333578
C102	C	0.401642	-0.223673	0.666912
C103	C	-0.712036	-0.756265	0.000238
C104	C	-0.378702	-0.422932	0.333571
C105	C	-0.045369	-0.089599	0.666904
C106	C	-0.762452	-0.755524	0.000238
C107	C	-0.429119	-0.422191	0.333571
C108	C	-0.095786	-0.088858	0.666904
C109	C	-0.774231	-0.882865	0.000270
C110	C	-0.440897	-0.549531	0.333603
C111	C	-0.107564	-0.216198	0.666936
C112	C	-0.723813	-0.883605	0.000265
C113	C	-0.390480	-0.550272	0.333598
C114	C	-0.057146	-0.216938	0.666931
C115	C	-0.692716	-0.820303	0.000254
C116	C	-0.359383	-0.486970	0.333588
C117	C	-0.026050	-0.153637	0.666921
C118	C	-0.159151	-0.891889	0.000231
C119	C	0.174182	-0.558556	0.333564
C120	C	0.507516	-0.225222	0.666897
C121	C	-0.108732	-0.892623	0.000221
C122	C	0.224602	-0.559290	0.333554
C123	C	0.557935	-0.225957	0.666888
C124	C	-0.096958	-0.765283	0.000193
C125	C	0.236375	-0.431950	0.333526
C126	C	0.569709	-0.098617	0.666859
C127	C	-0.147373	-0.764549	0.000198
C128	C	0.185961	-0.431215	0.333532
C129	C	0.519294	-0.097882	0.666865
C130	C	-0.178468	-0.827857	0.000220
C131	C	0.154865	-0.494524	0.333553
C132	C	0.488198	-0.161190	0.666887
O133	O	-0.222127	-0.709272	0.000174
O134	O	0.111206	-0.375938	0.333507
O135	O	0.444539	-0.042605	0.666841
O136	O	-0.243956	-0.944868	0.000268
O137	O	0.089378	-0.611535	0.333601
O138	O	0.422711	-0.278202	0.666935
C139	C	-0.466684	-0.887379	0.000265
C140	C	-0.133351	-0.554046	0.333598
C141	C	0.199983	-0.220712	0.666931
C142	C	-0.486001	-0.823342	0.000255
C143	C	-0.152668	-0.490009	0.333588
C144	C	0.180666	-0.156675	0.666921
C145	C	-0.454904	-0.760045	0.000238
C146	C	-0.121571	-0.426712	0.333572
C147	C	0.211763	-0.093378	0.666905
C148	C	-0.536418	-0.822601	0.000254
C149	C	-0.203084	-0.489268	0.333588
C150	C	0.130249	-0.155934	0.666921
C151	C	-0.567515	-0.885898	0.000271
C152	C	-0.234182	-0.552565	0.333604
C153	C	0.099152	-0.219231	0.666938
C154	C	-0.548195	-0.949936	0.000288
C155	C	-0.214862	-0.616603	0.333621
C156	C	0.118471	-0.283270	0.666954
C157	C	-0.497781	-0.950676	0.000281
C158	C	-0.164448	-0.617343	0.333614
C159	C	0.168885	-0.284010	0.666948
C160	C	-0.474224	-0.696007	0.000222
C161	C	-0.140890	-0.362673	0.333555
C162	C	0.192443	-0.029340	0.666888
C163	C	-0.524638	-0.695272	0.000227
C164	C	-0.191305	-0.361939	0.333561
C165	C	0.142028	-0.028605	0.666894
C166	C	-0.555735	-0.758569	0.000244
C167	C	-0.222402	-0.425236	0.333577
C168	C	0.110931	-0.091902	0.666910
C169	C	0.152793	-0.818023	0.000243
C170	C	0.486126	-0.484690	0.333576
C171	C	0.819460	-0.151356	0.666909
C172	C	0.206450	-0.818821	0.000254
C173	C	0.539784	-0.485488	0.333587
C174	C	0.873117	-0.152155	0.666921
N175	N	0.064405	-0.824062	-0.178937
N176	N	0.397738	-0.490728	0.154396
N177	N	0.731072	-0.157395	0.487729
C178	C	0.111096	-0.573681	0.000194
C179	C	0.444429	-0.240348	0.333527
C180	C	0.777762	0.092986	0.666860
C181	C	0.110354	-0.500862	0.000202
C182	C	0.443687	-0.167528	0.333535
C183	C	0.777020	0.165805	0.666868
C184	C	0.065931	-0.473249	0.000205
C185	C	0.399264	-0.139915	0.333539
C186	C	0.732597	0.193418	0.666872
C187	C	0.022246	-0.518461	0.000181
C188	C	0.355580	-0.185128	0.333515
C189	C	0.688913	0.148206	0.666848
C190	C	0.022990	-0.591278	0.000165
C191	C	0.356323	-0.257945	0.333499
C192	C	0.689656	0.075388	0.666832
N193	N	0.031975	-0.365489	0.043078
N194	N	0.365309	-0.032156	0.376411
N195	N	0.698642	0.301178	0.709744
N196	N	0.031272	-0.296315	0.043094
N197	N	0.364606	0.037018	0.376428
N198	N	0.697939	0.370352	0.709761
C199	C	0.063689	-0.253854	0.000251
C200	C	0.397022	0.079479	0.333585
C201	C	0.730356	0.412812	0.666918
N202	N	0.096842	-0.283179	-0.042600
N203	N	0.430176	0.050154	0.290734
N204	N	0.763509	0.383487	0.624067
N205	N	0.097547	-0.352360	-0.042613
N206	N	0.430880	-0.019026	0.290720
N207	N	0.764213	0.314307	0.624054
C208	C	0.065120	-0.394291	0.000222
C209	C	0.398453	-0.060958	0.333555
C210	C	0.731787	0.272375	0.666889
C211	C	0.106566	-0.129692	0.000279
C212	C	0.439899	0.203641	0.333612
C213	C	0.773233	0.536974	0.666946
C214	C	0.105822	-0.056872	0.000282
C215	C	0.439156	0.276461	0.333616
C216	C	0.772489	0.609794	0.666949
C217	C	0.017714	-0.074473	0.000269
C218	C	0.351047	0.258860	0.333603
C219	C	0.684380	0.592194	0.666936
C220	C	0.018459	-0.147292	0.000258
C221	C	0.351792	0.186042	0.333592
C222	C	0.685125	0.519375	0.666925
C223	C	0.062886	-0.174896	0.000267
C224	C	0.396220	0.158437	0.333600
C225	C	0.729553	0.491770	0.666933
C226	C	0.031454	-0.871914	-0.780982
C227	C	0.364788	-0.538580	-0.447648
C228	C	0.698121	-0.205247	-0.114315
C229	C	0.031455	-0.871915	-0.701734
C230	C	0.364789	-0.538582	-0.368401
C231	C	0.698122	-0.205248	-0.035068
C232	C	0.064405	-0.824082	-0.662119
C233	C	0.397738	-0.490748	-0.328785
C234	C	0.731071	-0.157415	0.004548
C235	C	0.097363	-0.776255	-0.701757
C236	C	0.430697	-0.442922	-0.368424
C237	C	0.764030	-0.109589	-0.035091
C238	C	0.097365	-0.776260	-0.781004
C239	C	0.430698	-0.442927	-0.447670
C240	C	0.764031	-0.109594	-0.114337
N241	N	0.070669	-0.762230	-0.537721
N242	N	0.404002	-0.428896	-0.204388
N243	N	0.737335	-0.095563	0.128946
N244	N	0.070665	-0.762227	-0.462440
N245	N	0.403998	-0.428894	-0.129107
N246	N	0.737331	-0.095561	0.204226
C247	C	0.064404	-0.824065	-0.423355
C248	C	0.397737	-0.490732	-0.090021
C249	C	0.731070	-0.157398	0.243312
N250	N	0.058137	-0.885907	-0.462393
N251	N	0.391471	-0.552574	-0.129060
N252	N	0.724804	-0.219241	0.204273
N253	N	0.058139	-0.885909	-0.537681
N254	N	0.391472	-0.552576	-0.204348
N255	N	0.724806	-0.219243	0.128986
C256	C	0.064407	-0.824071	-0.576190
C257	C	0.397741	-0.490738	-0.242856
C258	C	0.731074	-0.157405	0.090477
C259	C	0.031450	-0.871893	-0.297796
C260	C	0.364784	-0.538559	0.035537
C261	C	0.698117	-0.205226	0.368870
C262	C	0.031455	-0.871895	-0.218547
C263	C	0.364788	-0.538561	0.114786
C264	C	0.698122	-0.205228	0.448119
C265	C	0.097361	-0.776229	-0.218572
C266	C	0.430694	-0.442896	0.114761
C267	C	0.764027	-0.109563	0.448095
C268	C	0.097359	-0.776233	-0.297820
C269	C	0.430692	-0.442900	0.035514
C270	C	0.764025	-0.109567	0.368847
C271	C	0.064401	-0.824064	-0.337427
C272	C	0.397734	-0.490731	-0.004094
C273	C	0.731068	-0.157398	0.329240
N274	N	0.064407	-0.824091	0.179389
N275	N	0.397740	-0.490758	0.512722
N276	N	0.731074	-0.157425	0.846056
H277	H	-0.184464	-0.943441	0.000251
H278	H	0.148870	-0.610108	0.333585
H279	H	0.482203	-0.276774	0.666918
O280	O	0.129436	-0.729858	-0.663313
O281	O	0.462770	-0.396524	-0.329979
O282	O	0.796103	-0.063191	0.003354
C283	C	0.177267	-0.740682	-0.682669
C284	C	0.510601	-0.407349	-0.349336
C285	C	0.843934	-0.074015	-0.016003
H286	H	0.177406	-0.796579	-0.704427
H287	H	0.510740	-0.463246	-0.371094
H288	H	0.844073	-0.129912	-0.037761
H289	H	0.201539	-0.732386	-0.630549
H290	H	0.534873	-0.399052	-0.297216
H291	H	0.868206	-0.065719	0.036117
H292	H	0.191534	-0.701834	-0.728682
H293	H	0.524868	-0.368501	-0.395348
H294	H	0.858201	-0.035168	-0.062015
O295	O	-0.292832	-0.636668	0.000181
O296	O	0.040502	-0.303334	0.333514
O297	O	0.373835	0.029999	0.666848
C298	C	-0.320697	-0.579990	0.000194
C299	C	0.012636	-0.246657	0.333527
C300	C	0.345970	0.086676	0.666861
H301	H	-0.358365	-0.598128	-0.023635
H302	H	-0.025032	-0.264794	0.309698
H303	H	0.308302	0.068539	0.643032
H304	H	-0.302017	-0.535667	-0.036365
H305	H	0.031316	-0.202333	0.296968
H306	H	0.364649	0.131000	0.630302
H307	H	-0.324241	-0.560346	0.060591
H308	H	0.009092	-0.227013	0.393924
H309	H	0.342425	0.106321	0.727257
H310	H	-0.012580	-0.628083	0.000150
H311	H	0.320753	-0.294750	0.333483
H312	H	0.654087	0.038583	0.666816
O313	O	0.149678	-0.156630	0.000307
O314	O	0.483011	0.176704	0.333640
O315	O	0.816345	0.510037	0.666973
C316	C	0.140968	-0.230594	0.000273
C317	C	0.474302	0.102739	0.333606
C318	C	0.807635	0.436073	0.666940
H319	H	0.103213	-0.248113	0.024107
H320	H	0.436546	0.085220	0.357441
H321	H	0.769879	0.418554	0.690774
H322	H	0.169389	-0.252667	0.036817
H323	H	0.502722	0.080667	0.370150
H324	H	0.836055	0.414000	0.703484
H325	H	0.143261	-0.250812	-0.060131
H326	H	0.476595	0.082521	0.273203
H327	H	0.809928	0.415854	0.606536
H328	H	-0.686720	-0.704714	0.000229
H329	H	-0.353387	-0.371381	0.333563
H330	H	-0.020054	-0.038048	0.666896
O331	O	-0.025397	-0.047542	0.000308
O332	O	0.307936	0.285791	0.333641
O333	O	0.641270	0.619124	0.666975
C334	C	-0.016688	0.026422	0.000305
C335	C	0.316645	0.359755	0.333638
C336	C	0.649979	0.693089	0.666971
H337	H	0.021071	0.043919	0.024146
H338	H	0.354404	0.377252	0.357479
H339	H	0.687738	0.710585	0.690812
H340	H	-0.045103	0.048459	0.036859
H341	H	0.288230	0.381792	0.370192
H342	H	0.621563	0.715126	0.703525
H343	H	-0.018990	0.046698	-0.060090
H344	H	0.314344	0.380032	0.273243
H345	H	0.647677	0.713365	0.606576
H346	H	0.004619	-0.910862	-0.813228
H347	H	0.337953	-0.577529	-0.479894
H348	H	0.671286	-0.244195	-0.146561
O349	O	-0.020948	-0.491757	0.000155
O350	O	0.312385	-0.158424	0.333488
O351	O	0.645718	0.174909	0.666821
C352	C	-0.059343	-0.547274	0.000155
C353	C	0.273990	-0.213940	0.333488
C354	C	0.607324	0.119393	0.666822
H355	H	-0.045899	-0.596588	-0.023693
H356	H	0.287434	-0.263255	0.309641
H357	H	0.620767	0.070079	0.642974
H358	H	-0.090369	-0.532368	-0.036395
H359	H	0.242965	-0.199035	0.296939
H360	H	0.576298	0.134298	0.630272
H361	H	-0.072807	-0.557756	0.060550
H362	H	0.260526	-0.224423	0.393883
H363	H	0.593859	0.108910	0.727217
O364	O	0.129391	-0.729861	-0.180018
O365	O	0.462724	-0.396527	0.153316
O366	O	0.796057	-0.063194	0.486649
C367	C	0.159155	-0.766929	-0.134172
C368	C	0.492488	-0.433596	0.199161
C369	C	0.825822	-0.100263	0.532495
H370	H	0.139806	-0.821768	-0.122280
H371	H	0.473139	-0.488435	0.211053
H372	H	0.806473	-0.155101	0.544387
H373	H	0.166856	-0.737703	-0.078457
H374	H	0.500189	-0.404370	0.254876
H375	H	0.833523	-0.071036	0.588209
H376	H	0.194870	-0.771292	-0.164705
H377	H	0.528203	-0.437959	0.168628
H378	H	0.861537	-0.104625	0.501961
H379	H	0.004616	-0.910842	-0.330046
H380	H	0.337949	-0.577509	0.003287
H381	H	0.671282	-0.244175	0.336621
H382	H	-0.093007	-0.944776	0.000226
H383	H	0.240326	-0.611443	0.333560
H384	H	0.573659	-0.278110	0.666893
H385	H	0.124199	-0.737317	-0.813270
H386	H	0.457533	-0.403984	-0.479937
H387	H	0.790866	-0.070650	-0.146604
H388	H	0.004622	-0.910841	-0.186281
H389	H	0.337956	-0.577508	0.147053
H390	H	0.671289	-0.244175	0.480386
O391	O	0.148299	-0.013059	0.000333
O392	O	0.481632	0.320275	0.333667
O393	O	0.814965	0.653608	0.667000
C394	C	0.187668	-0.053043	0.000319
C395	C	0.521001	0.280290	0.333652
C396	C	0.854334	0.613624	0.666986
H397	H	0.175282	-0.107540	0.024143
H398	H	0.508615	0.225793	0.357476
H399	H	0.841949	0.559127	0.690809
H400	H	0.218262	-0.025866	0.036882
H401	H	0.551595	0.307467	0.370215
H402	H	0.884928	0.640801	0.703549
H403	H	0.201294	-0.058055	-0.060077
H404	H	0.534627	0.275279	0.273256
H405	H	0.867961	0.608612	0.606589
H406	H	0.124190	-0.737289	-0.330088
H407	H	0.457523	-0.403956	0.003246
H408	H	0.790857	-0.070622	0.336579
O409	O	-0.392170	-0.635286	0.000089
O410	O	-0.058836	-0.301952	0.333423
O411	O	0.274497	0.031381	0.666756
C412	C	-0.420999	-0.631029	-0.065099
C413	C	-0.087666	-0.297695	0.268235
C414	C	0.245668	0.035638	0.601568
H415	H	-0.409160	-0.667372	-0.110674
H416	H	-0.075827	-0.334039	0.222659
H417	H	0.257507	-0.000706	0.555992
H418	H	-0.416358	-0.574702	-0.086986
H419	H	-0.083025	-0.241369	0.246348
H420	H	0.250308	0.091965	0.579681
H421	H	-0.460790	-0.647568	-0.050350
H422	H	-0.127457	-0.314234	0.282984
H423	H	0.205876	0.019099	0.616317
O424	O	-0.327859	-1.015169	0.000310
O425	O	0.005475	-0.681835	0.333643
O426	O	0.338808	-0.348502	0.666977
C427	C	-0.366125	-1.070870	0.000308
C428	C	-0.032791	-0.737536	0.333641
C429	C	0.300542	-0.404203	0.666975
H430	H	-0.400331	-1.051668	0.024138
H431	H	-0.066998	-0.718335	0.357471
H432	H	0.266336	-0.385002	0.690805
H433	H	-0.355679	-1.115619	0.036872
H434	H	-0.022346	-0.782286	0.370205
H435	H	0.310987	-0.448952	0.703538
H436	H	-0.373307	-1.090363	-0.060085
H437	H	-0.039973	-0.757030	0.273248
H438	H	0.293360	-0.423696	0.606581
O439	O	0.154218	-0.600586	0.000107
O440	O	0.487551	-0.267252	0.333441
O441	O	0.820885	0.066081	0.666774
C442	C	0.157295	-0.642139	-0.065108
C443	C	0.490629	-0.308805	0.268226
C444	C	0.823962	0.024528	0.601559
H445	H	0.119161	-0.660670	-0.086869
H446	H	0.452494	-0.327337	0.246465
H447	H	0.785827	0.005996	0.579798
H448	H	0.176455	-0.689631	-0.050437
H449	H	0.509788	-0.356298	0.282896
H450	H	0.843122	-0.022965	0.616229
H451	H	0.178758	-0.609718	-0.110750
H452	H	0.512092	-0.276384	0.222583
H453	H	0.845425	0.056949	0.555917
O454	O	-0.543422	-0.633074	0.000085
O455	O	-0.210089	-0.299741	0.333419
O456	O	0.123244	0.033592	0.666752
C457	C	-0.572255	-0.628823	-0.065101
C458	C	-0.238921	-0.295490	0.268232
C459	C	0.094412	0.037843	0.601566
H460	H	-0.560415	-0.665169	-0.110675
H461	H	-0.227082	-0.331835	0.222658
H462	H	0.106251	0.001498	0.555991
H463	H	-0.567617	-0.572498	-0.086992
H464	H	-0.234284	-0.239165	0.246342
H465	H	0.099050	0.094169	0.579675
H466	H	-0.612045	-0.645365	-0.050348
H467	H	-0.278712	-0.312032	0.282985
H468	H	0.054622	0.021302	0.616319
O469	O	-0.578428	-1.011406	0.000440
O470	O	-0.245095	-0.678072	0.333773
O471	O	0.088239	-0.344739	0.667106
C472	C	-0.607941	-1.014774	0.065638
C473	C	-0.274608	-0.681441	0.398972
C474	C	0.058725	-0.348108	0.732305
H475	H	-0.589394	-0.978872	0.111198
H476	H	-0.256061	-0.645539	0.444531
H477	H	0.077273	-0.312205	0.777865
H478	H	-0.613726	-1.071078	0.087543
H479	H	-0.280393	-0.737745	0.420876
H480	H	0.052941	-0.404411	0.754210
H481	H	-0.644568	-0.997098	0.050897
H482	H	-0.311235	-0.663765	0.384230
H483	H	0.022099	-0.330431	0.717563
H484	H	0.004620	-0.910859	-0.669462
H485	H	0.337954	-0.577526	-0.336129
H486	H	0.671287	-0.244193	-0.002796
O487	O	-0.427176	-1.013630	0.000417
O488	O	-0.093842	-0.680297	0.333750
O489	O	0.239491	-0.346964	0.667083
C490	C	-0.456696	-1.017026	0.065609
C491	C	-0.123362	-0.683693	0.398942
C492	C	0.209971	-0.350359	0.732276
H493	H	-0.438162	-0.981121	0.111178
H494	H	-0.104829	-0.647788	0.444511
H495	H	0.228505	-0.314454	0.777844
H496	H	-0.462466	-1.073333	0.087504
H497	H	-0.129133	-0.740000	0.420837
H498	H	0.204200	-0.406667	0.754171
H499	H	-0.493328	-0.999371	0.050862
H500	H	-0.159995	-0.666037	0.384196
H501	H	0.173339	-0.332704	0.717529
O502	O	-0.804462	-0.944335	0.000426
O503	O	-0.471129	-0.611001	0.333759
O504	O	-0.137796	-0.277668	0.667093
C505	C	-0.833976	-0.947698	0.065624
C506	C	-0.500643	-0.614365	0.398957
C507	C	-0.167309	-0.281031	0.732291
H508	H	-0.815430	-0.911790	0.111180
H509	H	-0.482097	-0.578457	0.444513
H510	H	-0.148763	-0.245124	0.777846
H511	H	-0.839760	-1.003999	0.087535
H512	H	-0.506426	-0.670666	0.420868
H513	H	-0.173093	-0.337333	0.754202
H514	H	-0.870604	-0.930025	0.050878
H515	H	-0.537270	-0.596692	0.384212
H516	H	-0.203937	-0.263358	0.717545
O517	O	-0.781133	-0.693252	0.000254
O518	O	-0.447800	-0.359919	0.333587
O519	O	-0.114466	-0.026585	0.666921
C520	C	-0.742869	-0.637548	0.000222
C521	C	-0.409536	-0.304215	0.333555
C522	C	-0.076202	0.029118	0.666889
H523	H	-0.708656	-0.656751	0.024059
H524	H	-0.375323	-0.323418	0.357393
H525	H	-0.041990	0.009916	0.690726
H526	H	-0.753308	-0.592807	0.036764
H527	H	-0.419975	-0.259473	0.370098
H528	H	-0.086641	0.073860	0.703431
H529	H	-0.735701	-0.618044	-0.060181
H530	H	-0.402368	-0.284711	0.273152
H531	H	-0.069034	0.048623	0.606485
H532	H	-0.017109	-0.184097	0.000246
H533	H	0.316224	0.149237	0.333580
H534	H	0.649557	0.482570	0.666913
H535	H	0.145923	-0.464051	0.000216
H536	H	0.479256	-0.130718	0.333549
H537	H	0.812590	0.202616	0.666883
H538	H	-0.163101	-0.712400	0.000170
H539	H	0.170233	-0.379067	0.333503
H540	H	0.503566	-0.045734	0.666837
O541	O	-0.066725	-0.703819	0.000313
O542	O	0.266609	-0.370485	0.333646
O543	O	0.599942	-0.037152	0.666980
C544	C	-0.037195	-0.700466	0.065505
C545	C	0.296139	-0.367132	0.398839
C546	C	0.629472	-0.033799	0.732172
H547	H	-0.055731	-0.736378	0.111083
H548	H	0.277603	-0.403045	0.444416
H549	H	0.610936	-0.069712	0.777750
H550	H	-0.031404	-0.644167	0.087386
H551	H	0.301929	-0.310834	0.420719
H552	H	0.635262	0.022500	0.754052
H553	H	-0.000572	-0.718139	0.050765
H554	H	0.332762	-0.384805	0.384098
H555	H	0.666095	-0.051472	0.717432
O556	O	-0.479101	-1.012949	0.000329
O557	O	-0.145768	-0.679616	0.333662
O558	O	0.187565	-0.346282	0.666995
C559	C	-0.517367	-1.068650	0.000326
C560	C	-0.184034	-0.735316	0.333659
C561	C	0.149299	-0.401983	0.666993
H562	H	-0.551574	-1.049449	0.024157
H563	H	-0.218240	-0.716116	0.357490
H564	H	0.115093	-0.382782	0.690824
H565	H	-0.506922	-1.113400	0.036889
H566	H	-0.173588	-0.780066	0.370222
H567	H	0.159745	-0.446733	0.703555
H568	H	-0.524550	-1.088142	-0.060068
H569	H	-0.191216	-0.754809	0.273266
H570	H	0.142117	-0.421475	0.606599
O571	O	-0.444069	-0.634470	0.000302
O572	O	-0.110736	-0.301137	0.333635
O573	O	0.222597	0.032196	0.666969
C574	C	-0.452790	-0.595568	0.065504
C575	C	-0.119457	-0.262234	0.398837
C576	C	0.213876	0.071099	0.732170
H577	H	-0.491066	-0.613144	0.087255
H578	H	-0.157732	-0.279811	0.420589
H579	H	0.175601	0.053522	0.753922
H580	H	-0.449137	-0.537297	0.050820
H581	H	-0.115804	-0.203964	0.384153
H582	H	0.217529	0.129370	0.717486
H583	H	-0.425221	-0.604803	0.111159
H584	H	-0.091888	-0.271470	0.444492
H585	H	0.241445	0.061864	0.777825
H586	H	-0.708089	-0.935754	0.000273
H587	H	-0.374756	-0.602420	0.333606
H588	H	-0.041423	-0.269087	0.666939
