data_functionalizedCrystal
_audit_creation_method	'MofGen! by Chris Wilmer'
_symmetry_space_group_name_H-M	'P1'
_symmetry_Int_Tables_number	1
_symmetry_cell_setting	triclinic
loop_
_symmetry_equiv_pos_as_xyz
  x,y,z
_cell_length_a	19.121102
_cell_length_b	25.639239
_cell_length_c	25.639233
_cell_angle_alpha	90.018747
_cell_angle_beta	92.451631
_cell_angle_gamma	87.592882
loop_
_atom_site_label
_atom_site_type_symbol
_atom_site_fract_x
_atom_site_fract_y
_atom_site_fract_z
Zn1	Zn	1.073601	-0.242371	0.329671
Zn2	Zn	1.073498	-0.329786	0.242232
Zn3	Zn	0.956164	-0.238634	0.238524
Zn4	Zn	0.956091	-0.326038	0.325912
O5	O	1.014838	-0.284207	0.284085
O6	O	1.171870	-0.257099	0.321197
O7	O	1.057921	-0.317699	0.168575
O8	O	0.971816	-0.165966	0.250636
O9	O	1.171794	-0.321323	0.256956
O10	O	1.058096	-0.168712	0.317602
O11	O	0.971717	-0.250730	0.165850
O12	O	0.857872	-0.247096	0.246991
O13	O	0.971691	-0.314935	0.399576
O14	O	0.857817	-0.311311	0.311194
O15	O	1.058025	-0.253465	0.402338
O16	O	1.057850	-0.402452	0.253311
O17	O	0.971591	-0.399698	0.314790
C18	C	0.832361	-0.278392	0.278282
C19	C	0.754296	-0.275916	0.275813
C20	C	0.717611	-0.308238	0.308027
C21	C	0.644261	-0.305905	0.305709
C22	C	0.607597	-0.271253	0.271173
C23	C	0.644287	-0.238929	0.238958
C24	C	0.717636	-0.241259	0.241279
C25	C	0.386132	-0.262539	0.262498
C26	C	0.312778	-0.260212	0.260178
C27	C	0.312757	-0.327189	0.326930
C28	C	0.386107	-0.329518	0.329246
C29	C	0.422791	-0.297191	0.297032
C30	C	0.532622	-0.268869	0.268802
C31	C	0.497765	-0.299573	0.299407
C32	C	1.014720	-0.420046	0.284057
C33	C	1.014734	-0.478160	0.284065
C34	C	1.059870	-0.839952	0.252133
C35	C	1.059898	-0.894557	0.252141
O36	O	1.098152	-0.924004	0.224962
N37	N	1.014962	-0.920450	0.284123
C38	C	0.970001	-0.891735	0.316104
O39	O	0.931782	-0.918774	0.343308
C40	C	0.969978	-0.837131	0.316098
C41	C	1.014911	-0.811241	0.284110
C42	C	1.104801	-0.814061	0.220148
C43	C	1.104773	-0.759460	0.220140
C44	C	1.059814	-0.730749	0.252116
C45	C	1.014883	-0.756639	0.284101
C46	C	0.925021	-0.808418	0.348081
C47	C	0.925002	-0.753810	0.348073
C48	C	0.969936	-0.727920	0.316085
C49	C	0.969896	-0.673327	0.316070
N50	N	1.014832	-0.647434	0.284088
C51	C	1.059791	-0.676145	0.252111
C52	C	0.970054	-1.006408	0.316113
C53	C	0.970073	-1.061011	0.316116
C54	C	1.059971	-1.063828	0.252155
C55	C	1.059948	-1.009224	0.252149
C56	C	1.014990	-0.980515	0.284131
C57	C	1.059727	-0.561478	0.252095
C58	C	1.059693	-0.506871	0.252088
C59	C	0.969798	-0.504058	0.316052
C60	C	0.969829	-0.558660	0.316057
C61	C	1.014800	-0.587369	0.284077
O62	O	0.931663	-0.643846	0.343237
O63	O	1.098009	-0.649100	0.224916
C64	C	1.198028	-0.290046	0.289910
C65	C	1.276093	-0.292534	0.292392
C66	C	1.014861	-0.284199	0.420458
C67	C	1.014871	-0.284195	0.478573
C68	C	1.014976	-0.147839	0.284125
C69	C	1.015035	-0.089726	0.284142
C70	C	1.014856	-0.284179	0.148243
C71	C	1.014983	-0.284040	0.090133
C72	C	1.059882	-0.252090	0.840382
C73	C	1.059891	-0.252076	0.894986
O74	O	1.098104	-0.224839	0.924450
N75	N	1.014948	-0.284075	0.920858
C76	C	0.969989	-0.316087	0.892122
O77	O	0.931762	-0.343303	0.919142
C78	C	0.969977	-0.316098	0.837518
C79	C	1.014928	-0.284100	0.811650
C80	C	1.104828	-0.220095	0.814513
C81	C	1.104820	-0.220110	0.759912
C82	C	1.059866	-0.252120	0.731180
C83	C	1.014920	-0.284115	0.757049
C84	C	0.925015	-0.348106	0.808783
C85	C	0.925007	-0.348114	0.754176
C86	C	0.969957	-0.316117	0.728307
C87	C	0.969958	-0.316141	0.673716
N88	N	1.014900	-0.284141	0.647844
C89	C	1.059854	-0.252131	0.676576
C90	C	0.970016	-0.316060	1.006793
C91	C	0.970031	-0.316052	1.061396
C92	C	1.059932	-0.252041	1.064257
C93	C	1.059920	-0.252052	1.009653
C94	C	1.014959	-0.284061	0.980922
C95	C	1.059835	-0.252165	0.561911
C96	C	1.059825	-0.252185	0.507305
C97	C	0.969922	-0.316194	0.504449
C98	C	0.969934	-0.316177	0.559050
C99	C	1.014893	-0.284158	0.587780
O100	O	0.931762	-0.343362	0.644218
O101	O	1.098068	-0.224915	0.649549
H102	H	0.282881	-0.353506	0.353157
H103	H	0.614430	-0.210712	0.210840
H104	H	0.933438	-0.983034	0.342155
H105	H	0.282928	-0.231989	0.232058
N106	N	0.876565	-0.836332	0.382591
H107	H	0.883395	-0.875282	0.377750
H108	H	0.826407	-0.825232	0.372833
H109	H	1.096431	-0.226128	0.486245
N110	N	0.425692	-0.227666	0.227763
H111	H	0.391334	-0.205361	0.205535
H112	H	0.456105	-0.249868	0.204487
N113	N	0.876512	-0.722845	0.382570
H114	H	0.848054	-0.747536	0.402832
H115	H	0.844015	-0.699191	0.360234
H116	H	0.747504	-0.214937	0.215049
H117	H	0.747458	-0.336457	0.336148
N118	N	0.921438	-0.350684	0.586943
H119	H	0.888914	-0.328386	0.608556
H120	H	0.949987	-0.375818	0.610482
H121	H	1.141416	-0.837432	0.194109
N122	N	0.921359	-0.586589	0.350551
H123	H	0.892872	-0.560112	0.370805
H124	H	0.949939	-0.610117	0.375678
H125	H	0.933191	-0.480674	0.342085
H126	H	0.614396	-0.332225	0.331941
N127	N	1.153249	-0.731539	0.185647
H128	H	1.142388	-0.740723	0.147938
H129	H	1.203403	-0.742616	0.195448
H130	H	0.415954	-0.357736	0.357367
H131	H	1.096581	-1.087215	0.226119
N132	N	0.537302	-0.336949	0.336654
H133	H	0.567765	-0.316707	0.361886
H134	H	0.567664	-0.362101	0.316281
H135	H	1.096442	-0.226091	0.585296
H136	H	1.141422	-0.194053	0.738855
N137	N	0.921597	-1.088932	0.350608
H138	H	0.893113	-1.062453	0.370861
H139	H	0.950169	-1.112464	0.375736
H140	H	1.141435	-0.194025	0.837901
N141	N	0.876532	-0.382617	0.836675
H142	H	0.848053	-0.402891	0.810180
H143	H	0.844053	-0.360293	0.858298
N144	N	1.108405	-0.217509	1.095259
H145	H	1.097527	-0.179808	1.085415
H146	H	1.158563	-0.227266	1.087347
N147	N	1.108401	-0.217541	0.981754
H148	H	1.136880	-0.197264	1.008246
H149	H	1.079835	-0.192437	0.958195
H150	H	0.933435	-0.342114	1.082454
H151	H	1.096537	-0.988148	0.226102
N152	N	0.921515	-0.350583	0.975806
H153	H	0.893047	-0.370849	1.000485
H154	H	0.950064	-0.375698	0.954052
H155	H	1.096348	-0.584846	0.226056
H156	H	0.888386	-0.374175	0.730785
H157	H	0.502762	-0.240657	0.240682
H158	H	1.096283	-0.485793	0.226038
N159	N	0.921439	-0.350720	0.473454
H160	H	0.928256	-0.345869	0.434939
H161	H	0.871289	-0.340979	0.481403
