data_functionalizedCrystal
_audit_creation_method	'MofGen! by Chris Wilmer'
_symmetry_space_group_name_H-M	'P1'
_symmetry_Int_Tables_number	1
_symmetry_cell_setting	triclinic
loop_
_symmetry_equiv_pos_as_xyz
  x,y,z
_cell_length_a	29.839134
_cell_length_b	21.295417
_cell_length_c	21.295411
_cell_angle_alpha	89.978356
_cell_angle_beta	89.965732
_cell_angle_gamma	90.025367
loop_
_atom_site_label
_atom_site_type_symbol
_atom_site_fract_x
_atom_site_fract_y
_atom_site_fract_z
Zn1	Zn	0.686808	-0.250767	-0.356074
Zn2	Zn	0.686739	-0.356019	-0.250800
Zn3	Zn	0.611675	-0.250758	-0.250802
Zn4	Zn	0.611653	-0.355993	-0.356014
O5	O	0.649219	-0.303384	-0.303422
O6	O	0.749666	-0.264744	-0.342134
O7	O	0.676761	-0.342063	-0.162711
O8	O	0.621680	-0.162670	-0.264792
O9	O	0.749615	-0.342072	-0.264789
O10	O	0.676880	-0.162677	-0.342136
O11	O	0.621612	-0.264728	-0.162712
O12	O	0.548805	-0.264703	-0.264734
O13	O	0.621643	-0.342027	-0.444111
O14	O	0.548789	-0.342019	-0.342032
O15	O	0.676859	-0.264718	-0.444156
O16	O	0.676740	-0.444105	-0.264730
O17	O	0.621575	-0.444086	-0.342031
C18	C	0.649160	-0.466936	-0.303388
C19	C	0.649176	-0.536904	-0.303394
C20	C	0.532496	-0.303358	-0.303377
C21	C	0.482562	-0.303361	-0.303372
C22	C	0.677926	-0.569760	-0.263185
C23	C	0.677947	-0.635502	-0.263199
C24	C	0.649210	-0.668387	-0.303415
C25	C	0.620458	-0.635523	-0.343632
C26	C	0.620441	-0.569782	-0.343621
N27	N	0.609910	-0.771648	-0.308199
N28	N	0.609927	-0.834100	-0.308206
C29	C	0.649260	-0.866461	-0.303451
N30	N	0.688576	-0.834012	-0.298678
N31	N	0.688558	-0.771555	-0.298668
C32	C	0.649225	-0.739672	-0.303432
C33	C	0.678035	-0.970603	-0.263256
C34	C	0.678057	-1.036346	-0.263274
C35	C	0.620564	-1.036366	-0.343704
C36	C	0.620546	-0.970623	-0.343689
C37	C	0.649281	-0.937746	-0.303461
C38	C	0.172919	-0.343702	-0.343623
C39	C	-0.014754	-0.343720	-0.343651
O40	O	-0.039018	-0.377989	-0.377846
N41	N	-0.038223	-0.303407	-0.303470
C42	C	-0.014772	-0.263085	-0.263282
O43	O	-0.039041	-0.228793	-0.229111
C44	C	0.172900	-0.263064	-0.263258
C45	C	0.196367	-0.303384	-0.303437
C46	C	0.196387	-0.384018	-0.383799
C47	C	0.243302	-0.384015	-0.383789
C48	C	0.266750	-0.343697	-0.343603
C49	C	0.243283	-0.303382	-0.303427
C50	C	0.196351	-0.222739	-0.223074
C51	C	0.243272	-0.222736	-0.223072
C52	C	0.266739	-0.263056	-0.263251
C53	C	0.313646	-0.263061	-0.263231
N54	N	0.337116	-0.303373	-0.303412
C55	C	0.313668	-0.343691	-0.343598
C56	C	-0.113303	-0.263099	-0.263297
C57	C	-0.160220	-0.263105	-0.263302
C58	C	-0.160199	-0.343739	-0.343671
C59	C	-0.113280	-0.343736	-0.343663
C60	C	-0.089833	-0.303412	-0.303478
C61	C	0.412194	-0.343684	-0.343574
C62	C	0.459114	-0.343680	-0.343558
C63	C	0.459088	-0.263043	-0.263192
C64	C	0.412172	-0.263049	-0.263204
C65	C	0.388727	-0.303372	-0.303400
O66	O	0.337939	-0.228804	-0.229059
O67	O	0.337945	-0.377969	-0.377773
C68	C	0.126004	-0.343705	-0.343632
C69	C	0.102537	-0.303389	-0.303456
C70	C	0.125985	-0.263071	-0.263270
C71	C	0.055619	-0.303395	-0.303461
C72	C	0.032171	-0.343713	-0.343647
C73	C	0.055640	-0.384025	-0.383828
C74	C	0.102556	-0.384023	-0.383818
C75	C	0.102515	-0.222758	-0.223090
C76	C	0.055599	-0.222764	-0.223102
C77	C	0.032151	-0.263083	-0.263288
C78	C	0.766397	-0.303412	-0.303468
C79	C	0.816331	-0.303423	-0.303488
C80	C	0.649256	-0.303371	-0.467613
C81	C	0.649272	-0.303365	-0.537581
C82	C	0.649290	-0.139194	-0.303471
C83	C	0.649320	-0.069226	-0.303492
C84	C	0.678022	-0.263109	-0.570472
C85	C	0.678021	-0.263082	-0.636214
C86	C	0.649275	-0.303322	-0.669063
C87	C	0.620520	-0.343581	-0.636165
C88	C	0.620518	-0.343603	-0.570423
N89	N	0.645809	-0.358389	-0.772278
N90	N	0.645814	-0.358367	-0.834729
C91	C	0.649278	-0.303258	-0.867138
N92	N	0.652747	-0.248171	-0.834736
N93	N	0.652745	-0.248195	-0.772279
C94	C	0.649274	-0.303303	-0.740349
C95	C	0.678029	-0.262969	-0.971315
C96	C	0.678025	-0.262940	-1.037059
C97	C	0.620526	-0.343446	-1.037008
C98	C	0.620528	-0.343469	-0.971265
C99	C	0.649281	-0.303231	-0.938423
C100	C	0.649207	-0.303352	-0.139871
C101	C	0.649279	-0.303181	-0.069903
H102	H	0.701360	-0.662259	-0.230456
C103	C	-0.185605	-0.387475	-0.387409
C104	C	-0.174151	-0.373861	-0.449713
C105	C	-0.197544	-0.414136	-0.490022
H106	H	-0.216914	-0.381740	-0.381740
H107	H	-0.177925	-0.429769	-0.378162
H108	H	-0.181834	-0.331576	-0.458957
H109	H	-0.142846	-0.379599	-0.455402
H110	H	-0.189864	-0.456430	-0.480775
H111	H	-0.228852	-0.408397	-0.484348
H112	H	-0.189773	-0.404908	-0.532300
H113	H	0.701472	-1.063096	-0.230533
H114	H	0.597061	-0.662302	-0.376378
H115	H	-0.094176	-0.376567	-0.376381
H116	H	0.262405	-0.416846	-0.416508
H117	H	0.597119	-0.376254	-0.944485
H118	H	0.478188	-0.230219	-0.230471
C119	C	0.589386	-0.387352	-0.671859
C120	C	0.614808	-0.427705	-0.709604
C121	C	0.586141	-0.468040	-0.742486
H122	H	0.569814	-0.363334	-0.697544
H123	H	0.572271	-0.411369	-0.642871
H124	H	0.631916	-0.403691	-0.738588
H125	H	0.634379	-0.451737	-0.683934
H126	H	0.569026	-0.492057	-0.713499
H127	H	0.566570	-0.444017	-0.768168
H128	H	0.603386	-0.495428	-0.768096
H129	H	0.701434	-0.943832	-0.230502
H130	H	0.701436	-0.230155	-1.063837
H131	H	0.393064	-0.230219	-0.230486
C132	C	0.170910	-0.427694	-0.427510
C133	C	0.144011	-0.392125	-0.467945
C134	C	0.120544	-0.432344	-0.508225
H135	H	0.152554	-0.455104	-0.403455
H136	H	0.191599	-0.451689	-0.451469
H137	H	0.123325	-0.368141	-0.443988
H138	H	0.162356	-0.364717	-0.492014
H139	H	0.141233	-0.456339	-0.532184
H140	H	0.102191	-0.459752	-0.484165
H141	H	0.102293	-0.408217	-0.535668
C142	C	-0.185777	-0.219416	-0.219684
C143	C	-0.231886	-0.228060	-0.228267
C144	C	-0.255441	-0.187832	-0.188087
H145	H	-0.178130	-0.177104	-0.228923
H146	H	-0.178130	-0.228584	-0.177363
H147	H	-0.239530	-0.218887	-0.270579
H148	H	-0.239547	-0.270364	-0.219024
H149	H	-0.247794	-0.197001	-0.145765
H150	H	-0.247789	-0.145524	-0.197330
H151	H	-0.286728	-0.193697	-0.193901
C152	C	0.589382	-1.072174	-0.387303
C153	C	0.595544	-1.136781	-0.378699
C154	C	0.566824	-1.169789	-0.418850
H155	H	0.595912	-1.061443	-0.429632
H156	H	0.559187	-1.061477	-0.378038
H157	H	0.625732	-1.147473	-0.387969
H158	H	0.589011	-1.147530	-0.336380
H159	H	0.536629	-1.159093	-0.409585
H160	H	0.573356	-1.159053	-0.461176
H161	H	0.570998	-1.213628	-0.413014
C162	C	0.589376	-0.934833	-0.387316
C163	C	0.595519	-0.870222	-0.378710
C164	C	0.566817	-0.837234	-0.418898
H165	H	0.559179	-0.945570	-0.378099
H166	H	0.595943	-0.945540	-0.429637
H167	H	0.588949	-0.859520	-0.336399
H168	H	0.625711	-0.859467	-0.387932
H169	H	0.573385	-0.847941	-0.461219
H170	H	0.536622	-0.847976	-0.409678
H171	H	0.570985	-0.793392	-0.413069
C172	C	0.589174	-0.534219	-0.387301
C173	C	0.564004	-0.577085	-0.422517
C174	C	0.535192	-0.544347	-0.462754
H175	H	0.606293	-0.508535	-0.414804
H176	H	0.569576	-0.508624	-0.363199
H177	H	0.583599	-0.602669	-0.446617
H178	H	0.546876	-0.602771	-0.395030
H179	H	0.515594	-0.518752	-0.438653
H180	H	0.552314	-0.518664	-0.490253
H181	H	0.518108	-0.573426	-0.486649
H182	H	0.478219	-0.376515	-0.376277
H183	H	0.393110	-0.376517	-0.376307
C184	C	-0.087930	-0.219294	-0.219592
C185	C	-0.118532	-0.184008	-0.184397
C186	C	-0.095178	-0.143656	-0.144122
H187	H	-0.069608	-0.191839	-0.243646
H188	H	-0.069657	-0.243315	-0.192081
H189	H	-0.136797	-0.159988	-0.211904
H190	H	-0.136855	-0.211446	-0.160331
H191	H	-0.076905	-0.167678	-0.116612
H192	H	-0.076856	-0.116206	-0.168181
H193	H	-0.115937	-0.119715	-0.120234
C194	C	0.030152	-0.427693	-0.427539
C195	C	0.003257	-0.392101	-0.467960
C196	C	-0.020227	-0.432299	-0.508241
H197	H	0.011791	-0.455096	-0.403484
H198	H	0.050830	-0.451694	-0.451509
H199	H	-0.017418	-0.368109	-0.443993
H200	H	0.021607	-0.364698	-0.492029
H201	H	0.000451	-0.456301	-0.532210
H202	H	-0.038585	-0.459701	-0.484181
H203	H	-0.038475	-0.408155	-0.535675
C204	C	0.170961	-0.178889	-0.179430
C205	C	0.201547	-0.143570	-0.144257
C206	C	0.178176	-0.103159	-0.104050
H207	H	0.152635	-0.202850	-0.151898
H208	H	0.152690	-0.151464	-0.203552
H209	H	0.219811	-0.170992	-0.120137
H210	H	0.219874	-0.119595	-0.171772
H211	H	0.159905	-0.075733	-0.128172
H212	H	0.159851	-0.127125	-0.076523
H213	H	0.198925	-0.079186	-0.080185
H214	H	0.597105	-0.376384	-0.543644
H215	H	0.701324	-0.542993	-0.230431
C216	C	0.268786	-0.179059	-0.179402
C217	C	0.295699	-0.214638	-0.138993
C218	C	0.319213	-0.174426	-0.098761
H219	H	0.248140	-0.155034	-0.155416
H220	H	0.287136	-0.151675	-0.203512
H221	H	0.277351	-0.242010	-0.114885
H222	H	0.316353	-0.238661	-0.162962
H223	H	0.337562	-0.147043	-0.122871
H224	H	0.298564	-0.150404	-0.074779
H225	H	0.337479	-0.198560	-0.071342
H226	H	0.121659	-0.416855	-0.416536
C227	C	0.030205	-0.178916	-0.179452
C228	C	0.060788	-0.143597	-0.144272
C229	C	0.037413	-0.103190	-0.104067
H230	H	0.011877	-0.202880	-0.151924
H231	H	0.011935	-0.151490	-0.203575
H232	H	0.079050	-0.171020	-0.120151
H233	H	0.079116	-0.119621	-0.171784
H234	H	0.019142	-0.075763	-0.128190
H235	H	0.019086	-0.127158	-0.076544
H236	H	0.058159	-0.079217	-0.080198
C237	C	0.709278	-0.219512	-0.534772
C238	C	0.738064	-0.255159	-0.497049
C239	C	0.766860	-0.215015	-0.464154
H240	H	0.692143	-0.192085	-0.509071
H241	H	0.726426	-0.195534	-0.563752
H242	H	0.720917	-0.279127	-0.468072
H243	H	0.755209	-0.282585	-0.522734
H244	H	0.784009	-0.191036	-0.493134
H245	H	0.749722	-0.187589	-0.438457
H246	H	0.786398	-0.239195	-0.438559
H247	H	0.701439	-0.230201	-0.944573
H248	H	0.121602	-0.189926	-0.190365
H249	H	0.701432	-0.230296	-0.662999
C250	C	0.589369	-0.387119	-1.072778
C251	C	0.595532	-0.378497	-1.137392
C252	C	0.566842	-0.418725	-1.170366
H253	H	0.559168	-0.377949	-1.062058
H254	H	0.595934	-0.429431	-1.062040
H255	H	0.588963	-0.336195	-1.148125
H256	H	0.625727	-0.387671	-1.148130
H257	H	0.573407	-0.461037	-1.159628
H258	H	0.536643	-0.409552	-1.159641
H259	H	0.571022	-0.412885	-1.214210
