data_functionalizedCrystal
_audit_creation_method	'MofGen! by Chris Wilmer'
_symmetry_space_group_name_H-M	'P1'
_symmetry_Int_Tables_number	1
_symmetry_cell_setting	triclinic
loop_
_symmetry_equiv_pos_as_xyz
  x,y,z
_cell_length_a	16.992694
_cell_length_b	14.519731
_cell_length_c	15.455313
_cell_angle_alpha	92.669259
_cell_angle_beta	87.142206
_cell_angle_gamma	87.178538
loop_
_atom_site_label
_atom_site_type_symbol
_atom_site_fract_x
_atom_site_fract_y
_atom_site_fract_z
O1	O	1.044104	0.191794	-0.072025
O2	O	0.815817	0.189647	-0.072051
O3	O	0.936004	0.056917	-0.072029
O4	O	0.923917	0.324523	-0.072046
O5	O	0.929132	0.064474	0.072232
O6	O	0.808944	0.197204	0.072210
O7	O	1.037232	0.199351	0.072236
Cu8	Cu	0.922460	0.198967	0.085395
Cu9	Cu	0.930588	0.190030	-0.085210
O10	O	0.917044	0.332080	0.072214
C11	C	0.783164	0.190665	0.000077
C12	C	0.696109	0.182429	0.000067
C13	C	0.645985	0.261888	0.000063
C14	C	0.564186	0.254146	0.000075
C15	C	0.532513	0.166942	0.000086
C16	C	0.582643	0.087477	0.000093
C17	C	0.664440	0.095221	0.000087
C18	C	0.288867	0.134847	0.000111
C19	C	0.207064	0.127109	0.000115
C20	C	0.188613	0.293778	0.000099
C21	C	0.270412	0.301514	0.000087
C22	C	0.320535	0.222049	0.000099
N23	N	0.448902	0.159026	0.000096
N24	N	0.404144	0.229967	0.000095
C25	C	0.932002	0.026296	0.000101
C26	C	0.930304	-0.076206	0.000102
C27	C	0.928925	-0.159450	0.000099
C28	C	0.927202	-0.263882	0.000093
C29	C	0.925835	-0.347120	0.000087
C30	C	0.924112	-0.451559	0.000082
C31	C	1.069885	0.198332	0.000107
C32	C	1.156941	0.206568	0.000110
C33	C	0.921047	0.362702	0.000082
C34	C	0.922745	0.465203	0.000076
N35	N	0.916749	0.205252	0.205390
N36	N	0.936306	0.183738	-0.205205
C37	C	0.967827	0.148888	0.250793
C38	C	0.963515	0.153650	0.341600
C39	C	0.908129	0.214783	0.387002
C40	C	0.857046	0.271150	0.341593
C41	C	0.861355	0.266382	0.250787
C42	C	0.889531	0.235337	0.658580
C43	C	0.885228	0.240103	0.749392
C44	C	0.991697	0.122602	0.749393
C45	C	0.996004	0.117843	0.658586
C46	C	0.944918	0.174207	0.613184
N47	N	0.903722	0.219654	0.479822
N48	N	0.949322	0.169330	0.520367
H49	H	0.147795	0.358473	0.000091
H50	H	1.012931	0.099111	0.213832
O51	O	1.013223	0.098872	0.385570
C52	C	1.063026	0.043886	0.326025
H53	H	1.067025	0.078367	0.261288
H54	H	1.124386	0.035869	0.352251
H55	H	1.037939	-0.027039	0.316387
H56	H	0.181280	0.056094	0.000123
H57	H	0.819761	0.312279	0.213821
H58	H	0.705251	0.030517	0.000090
H59	H	0.523378	0.318850	0.000071
O60	O	0.676792	0.346571	-0.000104
C61	C	0.727116	0.352116	-0.074812
H62	H	0.710185	0.299755	-0.127027
H63	H	0.721070	0.424592	-0.099897
H64	H	0.790787	0.336486	-0.057924
H65	H	0.329668	0.070140	0.000121
O66	O	1.049827	0.058375	0.614619
C67	C	1.093999	0.009662	0.674167
H68	H	1.058778	0.009626	0.738901
H69	H	1.107102	-0.064482	0.647939
H70	H	1.151835	0.044451	0.683810
O71	O	0.551750	0.002836	0.000066
C72	C	0.468805	0.013039	0.000090
H73	H	0.451000	0.082167	-0.027227
H74	H	0.445602	-0.045320	-0.041786
H75	H	0.442742	0.010518	0.069301
H76	H	0.847937	0.281233	0.621622
H77	H	0.296194	0.372523	0.000069
H78	H	0.811945	0.320922	0.378565
H79	H	1.033288	0.076712	0.786368
H80	H	0.840124	0.289888	0.786355
