data_functionalizedCrystal
_audit_creation_method	'MofGen! by Chris Wilmer'
_symmetry_space_group_name_H-M	'P1'
_symmetry_Int_Tables_number	1
_symmetry_cell_setting	triclinic
loop_
_symmetry_equiv_pos_as_xyz
  x,y,z
_cell_length_a	14.044220
_cell_length_b	14.044220
_cell_length_c	11.892095
_cell_angle_alpha	85.750402
_cell_angle_beta	94.243827
_cell_angle_gamma	93.188878
loop_
_atom_site_label
_atom_site_type_symbol
_atom_site_fract_x
_atom_site_fract_y
_atom_site_fract_z
O1	O	0.224587	1.282749	-0.093887
O2	O	0.216280	1.006079	-0.093915
O3	O	0.082098	1.140261	-0.093890
O4	O	0.358769	1.148568	-0.093912
O5	O	0.093267	1.129072	0.094115
O6	O	0.227449	0.994890	0.094090
O7	O	0.235756	1.271560	0.094118
Zn8	Zn	0.233376	1.131448	0.123954
Zn9	Zn	0.218660	1.146191	-0.123751
O10	O	0.369938	1.137378	0.094094
C11	C	0.218228	0.964863	0.000084
C12	C	0.207383	0.858721	0.000073
C13	C	0.187558	0.664382	0.000097
C14	C	0.264473	0.613252	0.000096
C15	C	0.253442	0.505115	0.000109
C16	C	0.198588	0.772529	0.000084
C17	C	0.052061	1.131031	0.000112
C18	C	-0.054082	1.120186	0.000113
C19	C	-0.248421	1.100361	0.000094
C20	C	-0.299550	1.177275	0.000099
C21	C	-0.407687	1.166244	0.000089
C22	C	-0.140274	1.111390	0.000105
C23	C	0.399975	1.146609	0.000088
C24	C	0.506117	1.157454	0.000081
C25	C	0.233807	1.312776	0.000117
C26	C	0.244652	1.418919	0.000120
N27	N	0.243419	1.121394	0.293006
N28	N	0.208610	1.156252	-0.292803
C29	C	0.138672	1.226211	0.529674
C30	C	0.145699	1.219191	0.648014
C31	C	0.264496	1.100328	0.648030
C32	C	0.257468	1.107349	0.529690
C33	C	0.194555	1.170293	0.470516
C34	C	0.187533	1.177318	0.352173
C35	C	0.306324	1.058451	0.352191
C36	C	0.313352	1.051431	0.470532
H37	H	0.338605	0.650692	0.000085
H38	H	0.100192	1.264723	0.696178
H39	H	-0.285858	1.026234	0.000084
Cl40	Cl	-0.241750	1.291731	0.000123
H41	H	0.136309	1.228573	0.303994
H42	H	0.113432	0.626944	0.000109
H43	H	0.087452	1.277470	0.481493
H44	H	0.315711	1.049074	0.696225
Cl45	Cl	0.392437	0.972302	0.544930
Cl46	Cl	0.376587	0.988158	0.277810
