data_functionalizedCrystal
_audit_creation_method	'MofGen! by Chris Wilmer'
_symmetry_space_group_name_H-M	'P1'
_symmetry_Int_Tables_number	1
_symmetry_cell_setting	triclinic
loop_
_symmetry_equiv_pos_as_xyz
  x,y,z
_cell_length_a	14.044220
_cell_length_b	27.732064
_cell_length_c	12.503572
_cell_angle_alpha	93.498303
_cell_angle_beta	86.164750
_cell_angle_gamma	87.919150
loop_
_atom_site_label
_atom_site_type_symbol
_atom_site_fract_x
_atom_site_fract_y
_atom_site_fract_z
O1	O	1.261509	0.113904	-0.089188
O2	O	0.985603	0.109701	-0.089216
O3	O	1.132117	0.041808	-0.089205
O4	O	1.114995	0.181797	-0.089199
O5	O	1.121098	0.046923	0.089436
O6	O	0.974584	0.114816	0.089425
O7	O	1.250491	0.119019	0.089453
Cu8	Cu	1.111531	0.117384	0.105751
Cu9	Cu	1.124562	0.111335	-0.105513
O10	O	1.103976	0.186912	0.089443
C11	C	0.944806	0.110418	0.000101
C12	C	0.839661	0.104931	0.000090
C13	C	0.647144	0.094900	0.000111
C14	C	0.588945	0.133817	0.000117
C15	C	0.481822	0.128236	0.000129
C16	C	0.754277	0.100481	0.000099
C17	C	1.126246	0.026341	0.000112
C18	C	1.125157	-0.027364	0.000102
C19	C	1.031158	-0.408849	0.000088
C20	C	1.035168	-0.207000	0.000087
O21	O	0.962230	-0.179172	0.000037
N22	N	1.122048	-0.183796	0.000096
C23	C	1.207933	-0.211056	0.000098
O24	O	1.281922	-0.186688	0.000094
C25	C	1.203922	-0.412904	0.000091
C26	C	1.117036	-0.436106	0.000093
C27	C	0.944279	-0.432051	0.000089
C28	C	0.943277	-0.482510	0.000095
C29	C	1.029154	-0.509767	0.000100
C30	C	1.116034	-0.486565	0.000099
C31	C	1.289806	-0.440164	0.000085
C32	C	1.288796	-0.490629	0.000081
C33	C	1.201909	-0.513831	0.000083
C34	C	1.200909	-0.564281	0.000110
N35	N	1.114029	-0.587485	0.000102
C36	C	1.028152	-0.560229	0.000097
C37	C	1.210032	-0.105083	0.000103
C38	C	1.211035	-0.054621	0.000107
C39	C	1.038270	-0.050569	0.000094
C40	C	1.037268	-0.101032	0.000098
C41	C	1.123152	-0.128288	0.000095
C42	C	1.026054	-0.666196	0.000110
C43	C	1.025059	-0.716659	0.000121
C44	C	1.197824	-0.720707	0.000128
C45	C	1.198819	-0.670248	0.000123
C46	C	1.112926	-0.642994	0.000111
O47	O	1.273809	-0.592139	0.000149
O48	O	0.954174	-0.584607	0.000077
C49	C	1.032160	-0.358390	0.000082
C50	C	1.119040	-0.335188	0.000081
C51	C	1.204917	-0.362445	0.000086
C52	C	1.120042	-0.284726	0.000085
C53	C	1.034165	-0.257469	0.000079
C54	C	0.947285	-0.280674	0.000071
C55	C	0.946283	-0.331133	0.000077
C56	C	1.291797	-0.339240	0.000095
C57	C	1.292792	-0.288781	0.000090
C58	C	1.206915	-0.261524	0.000085
C59	C	1.291288	0.118301	0.000134
C60	C	1.396433	0.123788	0.000138
C61	C	1.109847	0.202378	0.000123
C62	C	1.110937	0.256084	0.000126
N63	N	1.102373	0.121639	0.254342
N64	N	1.133728	0.107077	-0.254105
C65	C	1.088900	0.127902	0.473456
C66	C	1.147198	0.100815	0.526788
C67	C	1.139701	0.104300	0.648710
C68	C	1.096395	0.124418	0.351523
H69	H	0.956112	-0.644011	0.000100
O70	O	1.220774	0.066633	0.465984
H71	H	1.207823	0.029068	0.487484
O72	O	1.386512	-0.263758	0.000074
H73	H	1.446055	-0.291194	0.000064
O74	O	1.015342	0.162091	0.534253
H75	H	1.020935	0.159502	0.621862
O76	O	0.629496	0.183506	0.000107
H77	H	0.678423	0.185816	-0.072716
H78	H	0.616519	0.057393	0.000115
H79	H	1.279973	-0.127271	0.000102
O80	O	0.931343	-0.741686	0.000120
H81	H	0.871799	-0.714252	0.000105
O82	O	0.852567	-0.356154	0.000081
H83	H	0.852459	-0.381136	-0.072724
O84	O	0.849563	-0.507532	0.000092
H85	H	0.812832	-0.498959	-0.072727
O86	O	0.851642	-0.402658	0.000102
H87	H	0.814506	-0.413461	-0.072701
O88	O	0.943557	-0.126056	0.000091
H89	H	0.884016	-0.098620	0.000083
O90	O	0.945641	-0.021167	0.000079
H91	H	0.960945	0.017819	0.000072
O92	O	1.304750	-0.029602	0.000119
H93	H	1.291030	0.010068	0.000129
H94	H	1.360558	-0.421282	0.000082
H95	H	1.269568	-0.651356	0.000137
O96	O	1.381429	-0.520028	0.000088
H97	H	1.442006	-0.495412	0.000098
O98	O	1.290446	-0.750111	0.000140
H99	H	1.298605	-0.775282	-0.072674
O100	O	0.854656	-0.251272	0.000063
H101	H	0.869961	-0.212286	0.000052
H102	H	1.361731	-0.361428	0.000098
