data_functionalizedCrystal
_audit_creation_method	'MofGen! by Chris Wilmer'
_symmetry_space_group_name_H-M	'P1'
_symmetry_Int_Tables_number	1
_symmetry_cell_setting	triclinic
loop_
_symmetry_equiv_pos_as_xyz
  x,y,z
_cell_length_a	10.654550
_cell_length_b	12.503552
_cell_length_c	10.654550
_cell_angle_alpha	93.553931
_cell_angle_beta	95.515069
_cell_angle_gamma	93.554123
loop_
_atom_site_label
_atom_site_type_symbol
_atom_site_fract_x
_atom_site_fract_y
_atom_site_fract_z
O1	O	1.675022	0.089240	-0.169209
O2	O	1.309545	0.089260	-0.186013
O3	O	1.500686	0.089243	0.005128
O4	O	1.483881	0.089257	-0.360350
O5	O	1.486295	-0.089398	-0.009260
O6	O	1.295154	-0.089381	-0.200401
O7	O	1.660631	-0.089401	-0.183596
Cu8	Cu	1.476578	-0.105703	-0.193312
Cu9	Cu	1.493598	0.105561	-0.176297
O10	O	1.469490	-0.089384	-0.374737
C11	C	1.255552	-0.000058	-0.191973
C12	C	1.116109	-0.000051	-0.188280
N13	N	1.464617	-0.254294	-0.205279
C14	C	1.036624	-0.000050	-0.300822
C15	C	0.905601	-0.000068	-0.297347
C16	C	0.933563	-0.000086	-0.068779
C17	C	1.064582	-0.000074	-0.072256
C18	C	1.523159	-0.526733	-0.146713
C19	C	1.447031	-0.473402	-0.222882
C20	C	1.456818	-0.351479	-0.213085
C21	C	1.513373	-0.648666	-0.156509
C22	C	1.714624	-0.000081	-0.177636
C23	C	1.854068	-0.000081	-0.181328
C24	C	1.492256	-0.000077	0.044732
C25	C	1.488565	-0.000075	0.184175
N26	N	1.505569	0.254153	-0.164321
C27	C	1.477920	-0.000062	-0.414341
C28	C	1.481612	-0.000057	-0.553784
C29	C	1.601106	-0.000081	0.263661
C30	C	1.597630	-0.000068	0.394682
C31	C	1.369063	-0.000048	0.366721
C32	C	1.372540	-0.000053	0.235702
H33	H	1.078571	-0.000039	-0.395297
H34	H	1.274599	-0.000032	0.408690
H35	H	1.595679	-0.480829	-0.074151
H36	H	0.891593	-0.000111	0.025684
H37	H	1.129303	-0.000079	0.019395
H38	H	1.374507	-0.519311	-0.295451
H39	H	1.695581	-0.000097	0.221712
H40	H	1.689273	-0.000070	0.459395
H41	H	0.840888	-0.000070	-0.388990
H42	H	1.280890	-0.000045	0.170982
