data_functionalizedCrystal
_audit_creation_method	'MofGen! by Chris Wilmer'
_symmetry_space_group_name_H-M	'P1'
_symmetry_Int_Tables_number	1
_symmetry_cell_setting	triclinic
loop_
_symmetry_equiv_pos_as_xyz
  x,y,z
_cell_length_a	13.339070
_cell_length_b	19.288865
_cell_length_c	18.366186
_cell_angle_alpha	89.988521
_cell_angle_beta	90.008803
_cell_angle_gamma	80.617229
loop_
_atom_site_label
_atom_site_type_symbol
_atom_site_fract_x
_atom_site_fract_y
_atom_site_fract_z
O1	O	1.340704	-0.347912	0.060609
O2	O	1.046385	-0.302246	0.060601
O3	O	1.202049	-0.225606	0.060591
O4	O	1.185040	-0.424552	0.060619
O5	O	1.202022	-0.225596	-0.060509
O6	O	1.046358	-0.302236	-0.060499
O7	O	1.340677	-0.347901	-0.060490
Zn8	Zn	1.193514	-0.325067	-0.079722
Zn9	Zn	1.193548	-0.325081	0.079832
O10	O	1.185014	-0.424542	-0.060480
C11	C	1.008718	-0.294527	0.000050
C12	C	0.896521	-0.271535	0.000046
C13	C	1.201488	-0.199618	0.000039
C14	C	1.199845	-0.122194	0.000032
N15	N	1.193497	-0.325059	-0.188613
C16	C	0.530913	-0.450315	0.000083
C17	C	0.636327	-0.471920	0.000089
C18	C	0.701381	-0.421825	0.000078
C19	C	0.661010	-0.350122	0.000061
C20	C	0.555585	-0.328515	0.000061
C21	C	0.726053	-0.300025	0.000056
C22	C	0.685682	-0.228322	0.000039
C23	C	0.580267	-0.206719	0.000039
C24	C	0.515214	-0.256813	0.000050
C25	C	0.831477	-0.321633	0.000056
C26	C	0.856149	-0.199833	0.000034
C27	C	0.750735	-0.178228	0.000028
C28	C	1.378345	-0.355620	0.000063
C29	C	1.490542	-0.378613	0.000071
C30	C	1.185574	-0.450530	0.000073
C31	C	1.187217	-0.527954	0.000085
C32	C	1.291182	-0.095296	0.000032
C33	C	1.289638	-0.022549	0.000043
C34	C	1.196753	0.023300	0.000041
C35	C	1.105405	-0.003605	0.000046
C36	C	1.106951	-0.076352	0.000042
C37	C	1.123725	0.145820	-0.042380
C38	C	1.122183	0.218565	-0.042380
C39	C	1.191981	0.247675	0.000057
C40	C	1.263338	0.204030	0.042485
C41	C	1.264884	0.131283	0.042481
C42	C	1.195067	0.102182	0.000046
C43	C	1.281650	0.353454	0.000070
C44	C	1.280103	0.426203	0.000086
C45	C	1.095867	0.445145	0.000081
C46	C	1.097416	0.372397	0.000072
C47	C	1.190311	0.326555	0.000063
C48	C	1.262448	-0.291150	-0.226717
C49	C	1.262454	-0.291148	-0.302945
C50	C	1.193520	-0.325069	-0.341065
C51	C	1.124556	-0.358979	-0.302951
C52	C	1.124545	-0.358974	-0.226725
C53	C	1.179990	-0.385720	-0.461817
C54	C	1.180008	-0.385727	-0.538042
C55	C	1.193549	-0.325083	-0.576173
C56	C	1.207092	-0.264433	-0.538069
C57	C	1.207081	-0.264428	-0.461843
C58	C	1.193524	-0.325078	-0.423720
C59	C	1.262510	-0.291169	-0.696933
C60	C	1.262509	-0.291165	-0.773162
C61	C	1.124616	-0.359003	-0.773167
C62	C	1.124612	-0.359000	-0.696939
C63	C	1.193564	-0.325085	-0.658826
N64	N	1.193573	-0.325085	0.188723
H65	H	0.787213	-0.439421	0.000084
N66	N	0.401516	-0.233500	0.000046
H67	H	0.380964	-0.204381	-0.044850
H68	H	0.366504	-0.276145	0.000079
N69	N	1.336872	-0.254589	-0.655819
H70	H	1.380549	-0.233102	-0.691528
H71	H	1.298318	-0.216437	-0.624206
N72	N	0.707188	-0.100893	0.000005
H73	H	0.630536	-0.094810	0.000005
H74	H	0.731009	-0.078073	0.044892
N75	N	0.679854	-0.549253	0.000102
H76	H	0.723031	-0.560932	-0.044788
H77	H	0.723001	-0.560887	0.045025
N78	N	0.536716	-0.129384	0.000026
H79	H	0.560470	-0.106522	0.044912
H80	H	0.560453	-0.106576	-0.044901
N81	N	1.221686	-0.199017	-0.420747
H82	H	1.219628	-0.208220	-0.366673
H83	H	1.289573	-0.185809	-0.434063
H84	H	1.068396	-0.386587	-0.195700
N85	N	0.926301	-0.145795	0.000027
H86	H	0.999208	-0.170363	0.000027
H87	H	0.913250	-0.115421	-0.044870
N88	N	1.391371	-0.144739	0.000023
H89	H	1.448998	-0.116656	0.000025
H90	H	1.396039	-0.175347	0.044915
N91	N	1.341838	0.084208	0.088239
H92	H	1.385824	0.113682	0.115125
H93	H	1.305292	0.057840	0.124474
H94	H	0.864337	-0.380014	0.000067
H95	H	1.318654	-0.263548	-0.804187
H96	H	0.477938	-0.491094	0.000098
N97	N	1.388154	0.006474	0.000044
H98	H	1.447236	-0.033605	0.000039
H99	H	1.391506	0.036257	-0.044849
N100	N	1.008427	-0.105359	0.000031
H101	H	1.004955	-0.135104	-0.044865
H102	H	1.005024	-0.135101	0.044948
N103	N	1.338631	0.235414	0.088258
H104	H	1.326824	0.288121	0.081828
H105	H	1.329464	0.223652	0.141176
N106	N	1.381837	0.304004	0.000063
H107	H	1.439466	0.332085	0.000070
H108	H	1.386500	0.273393	0.044952
N109	N	1.045227	0.265628	-0.088148
H110	H	0.974387	0.260277	-0.072307
H111	H	1.054927	0.316109	-0.081698
N112	N	1.050256	-0.395583	-0.814271
H113	H	1.060722	-0.390439	-0.868343
H114	H	1.061698	-0.447069	-0.800933
H115	H	1.354483	0.448100	0.000089
N116	N	1.048443	0.114437	-0.088169
H117	H	1.086204	0.080451	-0.124450
H118	H	1.005688	0.088745	-0.055636
H119	H	1.168986	-0.435113	-0.569060
N120	N	1.336811	-0.254569	-0.185610
H121	H	1.380491	-0.233086	-0.221321
H122	H	1.298257	-0.216413	-0.154002
H123	H	1.020238	0.482474	0.000083
N124	N	0.998903	0.343380	0.000069
H125	H	0.939824	0.383461	0.000069
H126	H	0.995522	0.313622	-0.044826
H127	H	1.068470	-0.386615	-0.665912
H128	H	1.218118	-0.215050	-0.569114
N129	N	1.336822	-0.254571	-0.344057
H130	H	1.380499	-0.233085	-0.308346
H131	H	1.381378	-0.289775	-0.375665
N132	N	1.165386	-0.451133	-0.420693
H133	H	1.156819	-0.489556	-0.456396
H134	H	1.226765	-0.467038	-0.389054
H135	H	1.029777	0.033729	0.000046
N136	N	1.050199	-0.395561	-0.344061
H137	H	1.060670	-0.390420	-0.398133
H138	H	1.061639	-0.447045	-0.330721
