data_functionalizedCrystal
_audit_creation_method	'MofGen! by Chris Wilmer'
_symmetry_space_group_name_H-M	'P1'
_symmetry_Int_Tables_number	1
_symmetry_cell_setting	triclinic
loop_
_symmetry_equiv_pos_as_xyz
  x,y,z
_cell_length_a	10.654550
_cell_length_b	18.266242
_cell_length_c	10.654550
_cell_angle_alpha	89.995070
_cell_angle_beta	95.515069
_cell_angle_gamma	90.005694
loop_
_atom_site_label
_atom_site_type_symbol
_atom_site_fract_x
_atom_site_fract_y
_atom_site_fract_z
O1	O	1.667849	0.060826	-0.176399
O2	O	2.167849	0.560826	0.323601
O3	O	1.302371	0.060840	-0.193205
O4	O	1.802371	0.560840	0.306795
O5	O	1.493513	0.060828	-0.002063
O6	O	1.993513	0.560828	0.497937
O7	O	1.476707	0.060838	-0.367541
O8	O	1.976707	0.560838	0.132459
O9	O	1.493480	-0.060934	-0.002057
O10	O	1.993480	0.439066	0.497943
O11	O	1.302338	-0.060922	-0.193199
O12	O	1.802338	0.439078	0.306801
O13	O	1.667816	-0.060936	-0.176393
O14	O	2.167816	0.439064	0.323607
Zn15	Zn	1.485072	-0.080262	-0.184795
Zn16	Zn	1.985072	0.419738	0.315205
Zn17	Zn	1.485115	0.080165	-0.184803
Zn18	Zn	1.985115	0.580165	0.315197
O19	O	1.476674	-0.060924	-0.367535
O20	O	1.976674	0.439076	0.132465
C21	C	1.255556	-0.000040	-0.191968
C22	C	1.755556	0.499960	0.308032
C23	C	1.116113	-0.000035	-0.188276
C24	C	1.616113	0.499965	0.311724
N25	N	1.485051	-0.189748	-0.184789
N26	N	1.985051	0.310252	0.315211
C27	C	1.036628	-0.000034	-0.300818
C28	C	1.536628	0.499966	0.199182
C29	C	0.905607	-0.000047	-0.297341
C30	C	1.405607	0.499953	0.202659
C31	C	0.933570	-0.000058	-0.068772
C32	C	1.433570	0.499942	0.431228
C33	C	1.064588	-0.000051	-0.072250
C34	C	1.564588	0.499949	0.427750
C35	C	1.561873	-0.228052	-0.261676
C36	C	2.061873	0.271948	0.238324
C37	C	1.561894	-0.304697	-0.261673
C38	C	2.061894	0.195303	0.238327
C39	C	1.485070	-0.343035	-0.184797
C40	C	1.985070	0.156965	0.315203
C41	C	1.408243	-0.304723	-0.107895
C42	C	1.908243	0.195277	0.392105
C43	C	1.408234	-0.228079	-0.107891
C44	C	1.908234	0.271921	0.392109
N45	N	1.375038	-0.463384	-0.180409
N46	N	1.875038	0.036616	0.319591
N47	N	1.375050	-0.536192	-0.180420
N48	N	1.875050	-0.036192	0.319580
C49	C	1.485095	-0.573958	-0.184802
C50	C	1.985095	-0.073958	0.315198
N51	N	1.595129	-0.536165	-0.189197
N52	N	2.095129	-0.036165	0.310803
N53	N	1.595115	-0.463350	-0.189193
N54	N	2.095115	0.036650	0.310807
C55	C	1.485072	-0.426142	-0.184792
C56	C	1.985072	0.073858	0.315208
C57	C	1.561946	-0.695368	-0.261689
C58	C	2.061946	-0.195368	0.238311
C59	C	1.561969	-0.772015	-0.261677
C60	C	2.061969	-0.272015	0.238323
C61	C	1.408306	-0.772039	-0.107906
C62	C	1.908306	-0.272039	0.392094
C63	C	1.408295	-0.695394	-0.107912
C64	C	1.908295	-0.195394	0.392088
C65	C	1.485112	-0.657063	-0.184810
C66	C	1.985112	-0.157063	0.315190
C67	C	1.714631	-0.000055	-0.177630
C68	C	2.214631	0.499945	0.322370
C69	C	1.854074	-0.000055	-0.181322
C70	C	2.354074	0.499945	0.318678
C71	C	1.492263	-0.000053	0.044738
C72	C	1.992263	0.499947	0.544738
C73	C	1.488571	-0.000051	0.184181
C74	C	1.988571	0.499949	0.684181
N75	N	1.485146	0.189652	-0.184799
N76	N	1.985146	0.689652	0.315201
C77	C	1.477925	-0.000042	-0.414336
C78	C	1.977925	0.499958	0.085664
C79	C	1.481616	-0.000039	-0.553779
C80	C	1.981616	0.499961	-0.053779
C81	C	1.601112	-0.000055	0.263667
C82	C	2.101112	0.499945	0.763667
C83	C	1.597636	-0.000046	0.394688
C84	C	2.097636	0.499954	0.894688
C85	C	1.369066	-0.000032	0.366725
C86	C	1.869066	0.499968	0.866725
C87	C	1.372544	-0.000036	0.235706
C88	C	1.872544	0.499964	0.735706
H89	H	1.078574	-0.000026	-0.395294
H90	H	1.578574	0.499974	0.104706
Cl91	Cl	1.311740	-0.820229	-0.011247
Cl92	Cl	1.811740	-0.320229	0.488753
Cl93	Cl	1.231051	-0.000025	0.135774
Cl94	Cl	1.731051	0.499975	0.635774
H95	H	1.624452	-0.335890	-0.324286
H96	H	2.124452	0.164110	0.175714
Cl97	Cl	1.658420	-0.179869	-0.358372
Cl98	Cl	2.158420	0.320131	0.141628
Cl99	Cl	0.805687	-0.000046	-0.438829
Cl100	Cl	1.305687	0.499954	0.061171
Cl101	Cl	1.311668	-0.352918	-0.011247
Cl102	Cl	1.811668	0.147082	0.488753
Cl103	Cl	1.223212	-0.000014	0.431509
Cl104	Cl	1.723212	0.499986	0.931509
Cl105	Cl	1.311641	-0.179924	-0.011234
Cl106	Cl	1.811641	0.320076	0.488766
Cl107	Cl	1.311688	-0.647238	-0.011273
Cl108	Cl	1.811688	-0.147238	0.488727
H109	H	1.695588	-0.000066	0.221720
H110	H	2.195588	0.499934	0.721720
H111	H	1.129309	-0.000054	0.019401
H112	H	1.629309	0.499946	0.519401
H113	H	0.891602	-0.000076	0.025693
H114	H	1.391602	0.499924	0.525693
H115	H	1.624496	-0.664158	-0.324303
H116	H	2.124496	-0.164158	0.175697
H117	H	1.689279	-0.000048	0.459401
H118	H	2.189279	0.499952	0.959401
Cl119	Cl	1.658561	-0.820169	-0.358337
Cl120	Cl	2.158561	-0.320169	0.141663
