data_functionalizedCrystal
_audit_creation_method	'MofGen! by Chris Wilmer'
_symmetry_space_group_name_H-M	'P1'
_symmetry_Int_Tables_number	1
_symmetry_cell_setting	triclinic
loop_
_symmetry_equiv_pos_as_xyz
  x,y,z
_cell_length_a	15.538191
_cell_length_b	15.712078
_cell_length_c	9.482900
_cell_angle_alpha	77.881830
_cell_angle_beta	95.622696
_cell_angle_gamma	83.426622
loop_
_atom_site_label
_atom_site_type_symbol
_atom_site_fract_x
_atom_site_fract_y
_atom_site_fract_z
O1	O	0.457038	1.017007	-0.121149
O2	O	0.392327	0.785647	-0.121089
O3	O	0.303068	0.946364	-0.121138
O4	O	0.546297	0.856290	-0.121101
O5	O	0.321305	0.913686	0.120665
O6	O	0.410564	0.752969	0.120713
O7	O	0.475275	0.984329	0.120653
Cu8	Cu	0.444585	0.865665	0.142762
Cu9	Cu	0.423017	0.904311	-0.143198
O10	O	0.564534	0.823612	0.120702
C11	C	0.390874	0.740421	-0.000181
C12	C	0.359364	0.654350	-0.000160
C13	C	0.626904	0.203321	-0.000219
C14	C	0.597271	0.122461	-0.000260
C15	C	0.448801	0.189661	-0.000286
C16	C	0.478421	0.270530	-0.000252
C17	C	0.567474	0.277352	-0.000217
C18	C	0.418991	0.344560	-0.000250
C19	C	0.448609	0.425421	-0.000209
C20	C	0.537659	0.432250	-0.000170
C21	C	0.597092	0.358212	-0.000176
C22	C	0.329939	0.337735	-0.000275
C23	C	0.270509	0.411766	-0.000273
C24	C	0.300126	0.492629	-0.000242
C25	C	0.389176	0.499459	-0.000203
C26	C	0.240693	0.566668	-0.000236
C27	C	0.270311	0.647528	-0.000195
C28	C	0.418794	0.580319	-0.000162
C29	C	0.280337	0.939450	-0.000244
C30	C	0.185433	0.967522	-0.000265
C31	C	-0.198430	0.688643	-0.000163
C32	C	-0.287601	0.715038	-0.000166
C33	C	-0.258894	0.863512	-0.000205
C34	C	-0.169719	0.837130	-0.000209
C35	C	-0.139494	0.749694	-0.000186
C36	C	-0.110783	0.898181	-0.000232
C37	C	-0.021615	0.871799	-0.000228
C38	C	0.008618	0.784366	-0.000200
C39	C	-0.050326	0.723312	-0.000182
C40	C	-0.141009	0.985615	-0.000244
C41	C	-0.082073	1.046666	-0.000267
C42	C	0.007096	1.020286	-0.000274
C43	C	0.037329	0.932853	-0.000246
C44	C	0.066039	1.081340	-0.000292
C45	C	0.155208	1.054959	-0.000288
C46	C	0.126497	0.906471	-0.000242
C47	C	0.587265	0.830527	-0.000196
C48	C	0.682168	0.802455	-0.000183
C49	C	0.476728	1.029555	-0.000258
C50	C	0.508237	1.115628	-0.000289
N51	N	0.459756	0.838489	0.343890
N52	N	0.407842	0.931495	-0.344326
C53	C	0.427486	0.896291	0.416072
C54	C	0.440117	0.873684	0.583496
H55	H	0.699420	0.208874	-0.000189
Cl56	Cl	0.120718	0.751196	-0.000182
H57	H	0.390503	0.962514	0.353924
Cl58	Cl	0.128747	0.558076	-0.000258
Cl59	Cl	0.671995	0.029390	-0.000249
Cl60	Cl	0.164500	0.796551	-0.000229
H61	H	0.041417	1.152529	-0.000296
H62	H	0.370857	0.997721	0.593530
H63	H	0.221916	0.707808	-0.000197
H64	H	-0.025716	0.652114	-0.000174
Cl65	Cl	0.497207	0.771430	0.679435
H66	H	-0.173820	0.617445	-0.000155
H67	H	0.496730	0.772264	0.406040
H68	H	-0.335585	0.665314	-0.000126
H69	H	-0.106695	1.117856	-0.000280
H70	H	0.491310	0.585872	-0.000131
H71	H	0.561773	0.498092	-0.000130
Cl72	Cl	0.709045	0.366796	-0.000151
H73	H	0.376295	0.184092	-0.000297
H74	H	0.305828	0.271889	-0.000290
Cl75	Cl	0.229305	1.131705	-0.000290
Cl76	Cl	0.158561	0.403179	-0.000313
Cl77	Cl	-0.253107	1.018779	-0.000239
H78	H	-0.283516	0.934702	-0.000218
