data_functionalizedCrystal
_audit_creation_method	'MofGen! by Chris Wilmer'
_symmetry_space_group_name_H-M	'P1'
_symmetry_Int_Tables_number	1
_symmetry_cell_setting	triclinic
loop_
_symmetry_equiv_pos_as_xyz
  x,y,z
_cell_length_a	18.050590
_cell_length_b	29.839131
_cell_length_c	18.050591
_cell_angle_alpha	90.015531
_cell_angle_beta	89.986577
_cell_angle_gamma	90.024397
loop_
_atom_site_label
_atom_site_type_symbol
_atom_site_fract_x
_atom_site_fract_y
_atom_site_fract_z
Zn1	Zn	1.135163	-0.179090	0.419547
Zn2	Zn	1.135086	-0.254189	0.295334
Zn3	Zn	1.011010	-0.179060	0.295405
Zn4	Zn	1.010916	-0.254179	0.419516
O5	O	1.073044	-0.216629	0.357451
O6	O	1.239078	-0.189069	0.403053
O7	O	1.118635	-0.244214	0.191419
O8	O	1.027551	-0.116196	0.311915
O9	O	1.239021	-0.244244	0.311794
O10	O	1.118766	-0.116219	0.403122
O11	O	1.027476	-0.189017	0.191471
O12	O	0.907073	-0.189008	0.311886
O13	O	1.027390	-0.244227	0.523445
O14	O	0.907004	-0.244198	0.403070
O15	O	1.118674	-0.189059	0.523467
O16	O	1.118543	-0.317055	0.311765
O17	O	1.027315	-0.317048	0.403001
C18	C	0.880092	-0.216599	0.357483
C19	C	0.797546	-0.216596	0.357514
C20	C	0.598079	-0.246695	0.406982
C21	C	0.548690	-0.205735	0.425270
C22	C	0.646416	-0.216621	0.357478
C23	C	0.548723	-0.257604	0.339189
C24	C	0.500431	-0.216649	0.357444
C25	C	0.598114	-0.175640	0.375801
C26	C	0.598151	-0.227537	0.289689
C27	C	0.548784	-0.186549	0.307951
C28	C	0.730514	-0.216606	0.357499
C29	C	0.416334	-0.216660	0.357423
C30	C	1.072931	-0.333352	0.357388
C31	C	1.072950	-0.383286	0.357386
C32	C	1.120529	-0.692906	0.405009
C33	C	1.120610	-0.880580	0.405054
O34	O	1.160952	-0.904825	0.445499
N35	N	1.073170	-0.904071	0.357533
C36	C	1.025703	-0.880642	0.310001
O37	O	0.985349	-0.904930	0.269588
C38	C	1.025620	-0.692970	0.309960
C39	C	1.073068	-0.669481	0.357479
C40	C	1.167973	-0.669417	0.452525
C41	C	1.167955	-0.622501	0.452511
C42	C	1.120494	-0.599076	0.404980
C43	C	1.073050	-0.622565	0.357465
C44	C	0.978150	-0.669542	0.262433
C45	C	0.978132	-0.622621	0.262428
C46	C	1.025580	-0.599131	0.309947
C47	C	1.025571	-0.552224	0.309920
N48	N	1.073010	-0.528732	0.357441
C49	C	1.120472	-0.552158	0.404971
C50	C	1.025752	-0.979173	0.310024
C51	C	1.025773	-1.026091	0.310033
C52	C	1.120679	-1.026025	0.405088
C53	C	1.120661	-0.979106	0.405074
C54	C	1.073191	-0.955681	0.357545
C55	C	1.120431	-0.453632	0.404937
C56	C	1.120412	-0.406712	0.404916
C57	C	1.025504	-0.406782	0.309865
C58	C	1.025526	-0.453698	0.309883
C59	C	1.072992	-0.477121	0.357425
O60	O	0.985244	-0.527950	0.269503
O61	O	1.160808	-0.527862	0.445390
C62	C	1.120547	-0.739822	0.405024
C63	C	1.073103	-0.763311	0.357508
C64	C	1.025642	-0.739886	0.309978
C65	C	1.073125	-0.810229	0.357517
C66	C	1.120586	-0.833655	0.405047
C67	C	1.168026	-0.810163	0.452569
C68	C	1.168008	-0.763248	0.452554
C69	C	0.978202	-0.763377	0.262457
C70	C	0.978224	-0.810293	0.262475
C71	C	1.025686	-0.833719	0.310005
C72	C	1.266749	-0.216661	0.357419
C73	C	1.349295	-0.216674	0.357405
C74	C	1.073030	-0.216645	0.551156
C75	C	1.073024	-0.216652	0.633702
C76	C	1.073178	-0.099451	0.357530
C77	C	1.073235	-0.049517	0.357563
C78	C	1.023378	-0.246649	0.833140
C79	C	1.091120	-0.257647	0.882510
C80	C	1.073028	-0.216646	0.784832
C81	C	1.005290	-0.205662	0.882545
C82	C	1.073025	-0.216641	0.930817
C83	C	1.140805	-0.227666	0.833114
C84	C	1.054930	-0.175662	0.833145
C85	C	1.122719	-0.186645	0.882492
C86	C	1.073028	-0.216650	0.700734
C87	C	1.073032	-0.216637	1.014914
C88	C	1.073045	-0.216628	1.164498
C89	C	1.073029	-0.216633	1.081953
H90	H	0.526965	-0.196512	0.482583
H91	H	0.948007	-0.196375	0.904257
C92	C	0.519718	-0.152174	0.251377
H93	H	0.490760	-0.167113	0.215014
H94	H	0.490076	-0.130537	0.276105
H95	H	0.560389	-0.137668	0.228102
C96	C	0.925950	-0.695370	0.210166
H97	H	0.897678	-0.674692	0.181870
H98	H	0.954383	-0.713671	0.177823
H99	H	0.893570	-0.713676	0.238566
H100	H	0.939474	-0.603550	0.223725
C101	C	0.627529	-0.240013	0.212289
H102	H	0.610648	-0.269147	0.199378
H103	H	0.609917	-0.218958	0.176985
H104	H	0.680154	-0.239643	0.212758
C105	C	1.218213	-0.240270	0.803916
H106	H	1.250522	-0.245513	0.844537
H107	H	1.214760	-0.266635	0.774612
H108	H	1.237117	-0.216430	0.774594
H109	H	1.159325	-1.045106	0.443788
H110	H	0.986863	-0.387702	0.271164
H111	H	0.986896	-0.472824	0.271183
H112	H	1.206645	-0.744126	0.491249
C113	C	0.926027	-0.836128	0.210204
H114	H	0.932831	-0.867427	0.217013
H115	H	0.876120	-0.828452	0.221045
H116	H	0.936936	-0.828449	0.160307
C117	C	0.519403	-0.304406	0.318315
H118	H	0.536286	-0.325725	0.353553
H119	H	0.466782	-0.304008	0.318014
H120	H	0.537065	-0.312363	0.270508
H121	H	0.619719	-0.140983	0.391320
C122	C	1.172600	-0.380876	0.457195
H123	H	1.200861	-0.401550	0.485510
H124	H	1.204980	-0.362567	0.428809
H125	H	1.144148	-0.362579	0.489532
H126	H	1.159078	-0.472698	0.443655
C127	C	1.220146	-0.596669	0.504784
H128	H	1.248407	-0.617346	0.533094
H129	H	1.252525	-0.578360	0.476397
H130	H	1.191700	-0.578371	0.537127
H131	H	1.206622	-0.688485	0.491234
H132	H	1.159296	-0.959984	0.443769
C133	C	1.220231	-0.835938	0.504852
H134	H	1.213437	-0.867244	0.498053
H135	H	1.270138	-0.828235	0.494020
H136	H	1.209307	-0.828242	0.554744
C137	C	0.973585	-1.051924	0.257758
H138	H	0.945313	-1.031249	0.229457
H139	H	1.002025	-1.070224	0.225419
H140	H	0.941205	-1.070232	0.286154
C141	C	0.973540	-0.953411	0.257732
H142	H	0.945299	-0.974125	0.229429
H143	H	0.941142	-0.935114	0.286106
H144	H	1.001974	-0.935106	0.225384
C145	C	0.966728	-0.280949	0.803859
H146	H	0.930453	-0.265950	0.774915
H147	H	0.991423	-0.302574	0.774163
H148	H	0.943351	-0.295478	0.844442
H149	H	0.939552	-0.744308	0.223753
H150	H	1.106431	-0.292304	0.904194
C151	C	1.179500	-0.152368	0.911589
H152	H	1.227573	-0.160242	0.894572
H153	H	1.167056	-0.123344	0.893939
H154	H	1.178909	-0.152380	0.964216
C155	C	0.627331	-0.280991	0.463592
H156	H	0.656298	-0.302915	0.438742
H157	H	0.657000	-0.266067	0.499386
H158	H	0.586737	-0.295155	0.487566
C159	C	1.034221	-0.128858	0.803822
H160	H	0.986053	-0.121100	0.820717
H161	H	1.068997	-0.107468	0.821455
H162	H	1.034817	-0.129136	0.751197
