data_functionalizedCrystal
_audit_creation_method	'MofGen! by Chris Wilmer'
_symmetry_space_group_name_H-M	'P1'
_symmetry_Int_Tables_number	1
_symmetry_cell_setting	triclinic
loop_
_symmetry_equiv_pos_as_xyz
  x,y,z
_cell_length_a	29.839134
_cell_length_b	29.839131
_cell_length_c	17.077396
_cell_angle_alpha	89.968087
_cell_angle_beta	89.970675
_cell_angle_gamma	90.036281
loop_
_atom_site_label
_atom_site_type_symbol
_atom_site_fract_x
_atom_site_fract_y
_atom_site_fract_z
Zn1	Zn	0.686752	-0.178915	-0.444030
Zn2	Zn	1.020086	0.154418	-0.110696
Zn3	Zn	1.353419	0.487752	0.222637
Zn4	Zn	0.686675	-0.254046	-0.312756
Zn5	Zn	1.020008	0.079288	0.020578
Zn6	Zn	1.353341	0.412621	0.353911
Zn7	Zn	0.611625	-0.178924	-0.312755
Zn8	Zn	0.944959	0.154410	0.020578
Zn9	Zn	1.278292	0.487743	0.353912
Zn10	Zn	0.611583	-0.254012	-0.443957
Zn11	Zn	0.944916	0.079321	-0.110624
Zn12	Zn	1.278249	0.412655	0.222710
O13	O	0.649159	-0.216474	-0.378374
O14	O	0.982492	0.116859	-0.045041
O15	O	1.315825	0.450193	0.288292
O16	O	0.749609	-0.188892	-0.426647
O17	O	1.082942	0.144442	-0.093313
O18	O	1.416276	0.477775	0.240020
O19	O	0.676705	-0.244098	-0.202909
O20	O	1.010038	0.089235	0.130425
O21	O	1.343371	0.422568	0.463758
O22	O	0.621641	-0.116055	-0.330199
O23	O	0.954975	0.217278	0.003134
O24	O	1.288308	0.550611	0.336468
O25	O	0.749552	-0.244090	-0.330200
O26	O	1.082885	0.089244	0.003133
O27	O	1.416219	0.422577	0.336466
O28	O	0.676837	-0.116049	-0.426646
O29	O	1.010170	0.217284	-0.093313
O30	O	1.343503	0.550618	0.240021
O31	O	0.621566	-0.188906	-0.202908
O32	O	0.954900	0.144427	0.130425
O33	O	1.288233	0.477760	0.463758
O34	O	0.548753	-0.188874	-0.330129
O35	O	0.882086	0.144460	0.003205
O36	O	1.215419	0.477793	0.336538
O37	O	0.621569	-0.244032	-0.553813
O38	O	0.954902	0.089301	-0.220480
O39	O	1.288235	0.422634	0.112853
O40	O	0.548721	-0.244041	-0.426522
O41	O	0.882055	0.089293	-0.093189
O42	O	1.215388	0.422626	0.240145
O43	O	0.676795	-0.188859	-0.553867
O44	O	1.010129	0.144474	-0.220534
O45	O	1.343462	0.477808	0.112800
O46	O	0.676663	-0.316908	-0.330130
O47	O	1.009997	0.016425	0.003204
O48	O	1.343330	0.349758	0.336537
O49	O	0.621494	-0.316883	-0.426523
O50	O	0.954827	0.016450	-0.093189
O51	O	1.288160	0.349783	0.240144
C52	C	0.532436	-0.216455	-0.378318
C53	C	0.865770	0.116878	-0.044984
C54	C	1.199103	0.450212	0.288349
C55	C	0.482502	-0.216458	-0.378312
C56	C	0.815835	0.116876	-0.044979
C57	C	1.149168	0.450209	0.288355
C58	C	0.172852	-0.245242	-0.428505
C59	C	0.506185	0.088091	-0.095171
C60	C	0.839518	0.421425	0.238162
C61	C	-0.014822	-0.245255	-0.428540
C62	C	0.318512	0.088079	-0.095206
C63	C	0.651845	0.421412	0.238127
O64	O	-0.039092	-0.269707	-0.471182
O65	O	0.294241	0.063626	-0.137849
O66	O	0.627575	0.396960	0.195485
N67	N	-0.038283	-0.216490	-0.378433
N68	N	0.295050	0.116843	-0.045100
N69	N	0.628383	0.450176	0.288233
C70	C	-0.014824	-0.187719	-0.328318
C71	C	0.318509	0.145614	0.005015
C72	C	0.651843	0.478948	0.338348
O73	O	-0.039086	-0.163250	-0.285707
O74	O	0.294247	0.170083	0.047627
O75	O	0.627581	0.503416	0.380960
C76	C	0.172848	-0.187704	-0.328288
C77	C	0.506182	0.145629	0.005045
C78	C	0.839515	0.478962	0.338379
C79	C	0.196308	-0.216474	-0.378392
C80	C	0.529641	0.116860	-0.045059
C81	C	0.862974	0.450193	0.288275
C82	C	0.196311	-0.274008	-0.478605
C83	C	0.529644	0.059325	-0.145272
C84	C	0.862978	0.392658	0.188061
C85	C	0.243226	-0.274007	-0.478593
C86	C	0.576560	0.059327	-0.145260
C87	C	0.909893	0.392660	0.188074
C88	C	0.266682	-0.245238	-0.428480
C89	C	0.600016	0.088095	-0.095147
C90	C	0.933349	0.421428	0.238186
C91	C	0.243223	-0.216472	-0.378380
C92	C	0.576556	0.116861	-0.045046
C93	C	0.909890	0.450195	0.288287
C94	C	0.196307	-0.158931	-0.278178
C95	C	0.529640	0.174402	0.055156
C96	C	0.862973	0.507736	0.388489
C97	C	0.243228	-0.158929	-0.278176
C98	C	0.576561	0.174404	0.055157
C99	C	0.909894	0.507737	0.388491
C100	C	0.266687	-0.187698	-0.328280
C101	C	0.600020	0.145635	0.005053
C102	C	0.933354	0.478968	0.338387
C103	C	0.313595	-0.187702	-0.328255
C104	C	0.646928	0.145631	0.005079
C105	C	0.980261	0.478965	0.338412
N106	N	0.337056	-0.216466	-0.378361
N107	N	0.670390	0.116867	-0.045028
N108	N	1.003723	0.450201	0.288306
C109	C	0.313600	-0.245234	-0.428474
C110	C	0.646934	0.088099	-0.095141
C111	C	0.980267	0.421432	0.238193
C112	C	-0.113355	-0.187729	-0.328337
C113	C	0.219979	0.145604	0.004996
C114	C	0.553312	0.478937	0.338330
C115	C	-0.160272	-0.187733	-0.328343
C116	C	0.173061	0.145600	0.004990
C117	C	0.506394	0.478933	0.338323
C118	C	-0.160267	-0.245269	-0.428566
C119	C	0.173067	0.088065	-0.095232
C120	C	0.506400	0.421398	0.238101
C121	C	-0.113348	-0.245266	-0.428555
C122	C	0.219985	0.088067	-0.095221
C123	C	0.553319	0.421400	0.238112
C124	C	-0.089893	-0.216493	-0.378443
C125	C	0.243441	0.116840	-0.045110
C126	C	0.576774	0.450173	0.288224
C127	C	0.412126	-0.245229	-0.428444
C128	C	0.745459	0.088105	-0.095111
C129	C	1.078793	0.421438	0.238223
C130	C	0.459046	-0.245226	-0.428425
C131	C	0.792379	0.088107	-0.095092
C132	C	1.125712	0.421441	0.238242
C133	C	0.459036	-0.187689	-0.328206
C134	C	0.792369	0.145644	0.005128
C135	C	1.125703	0.478977	0.338461
C136	C	0.412120	-0.187694	-0.328221
C137	C	0.745454	0.145640	0.005112
C138	C	1.078787	0.478973	0.338445
C139	C	0.388667	-0.216465	-0.378347
C140	C	0.722000	0.116868	-0.045014
C141	C	1.055333	0.450202	0.288320
O142	O	0.337894	-0.163259	-0.285641
O143	O	0.671227	0.170074	0.047692
O144	O	1.004561	0.503408	0.381025
O145	O	0.337870	-0.269692	-0.471092
O146	O	0.671204	0.063641	-0.137758
O147	O	1.004537	0.396974	0.195575
C148	C	0.125936	-0.245244	-0.428517
C149	C	0.459269	0.088090	-0.095184
C150	C	0.792603	0.421423	0.238150
C151	C	0.102477	-0.216477	-0.378417
C152	C	0.435810	0.116856	-0.045083
C153	C	0.769143	0.450190	0.288250
C154	C	0.125933	-0.187709	-0.328304
C155	C	0.459266	0.145624	0.005029
C156	C	0.792599	0.478958	0.338363
C157	C	0.055559	-0.216481	-0.378423
C158	C	0.388892	0.116852	-0.045090
C159	C	0.722226	0.450185	0.288244
C160	C	0.032103	-0.245250	-0.428536
C161	C	0.365436	0.088084	-0.095202
C162	C	0.698769	0.421417	0.238131
C163	C	0.055565	-0.274014	-0.478642
C164	C	0.388898	0.059320	-0.145309
C165	C	0.722231	0.392653	0.188025
C166	C	0.102480	-0.274012	-0.478630
C167	C	0.435813	0.059321	-0.145297
C168	C	0.769147	0.392655	0.188037
C169	C	0.102471	-0.158945	-0.278198
C170	C	0.435804	0.174389	0.055136
C171	C	0.769138	0.507722	0.388469
C172	C	0.055555	-0.158949	-0.278213
C173	C	0.388889	0.174384	0.055120
C174	C	0.722222	0.507718	0.388453
C175	C	0.032099	-0.187717	-0.328326
C176	C	0.365433	0.145616	0.005007
C177	C	0.698766	0.478949	0.338341
C178	C	0.649078	-0.333197	-0.378335
C179	C	0.982411	0.000137	-0.045002
C180	C	1.315744	0.333470	0.288331
C181	C	0.649084	-0.383131	-0.378345
C182	C	0.982417	-0.049798	-0.045012
C183	C	1.315751	0.283536	0.288322
C184	C	0.677938	-0.692775	-0.328256
C185	C	1.011271	-0.359441	0.005077
C186	C	1.344605	-0.026108	0.338411
C187	C	0.677993	-0.880448	-0.328286
C188	C	1.011327	-0.547114	0.005047
C189	C	1.344660	-0.213781	0.338380
O190	O	0.702462	-0.904713	-0.285669
O191	O	1.035795	-0.571379	0.047664
O192	O	1.369128	-0.238046	0.380998
N193	N	0.649252	-0.903916	-0.378434
N194	N	0.982585	-0.570583	-0.045100
N195	N	1.315919	-0.237249	0.288233
C196	C	0.620497	-0.880463	-0.428580
C197	C	0.953830	-0.547130	-0.095247
C198	C	1.287163	-0.213797	0.238086
O199	O	0.596055	-0.904731	-0.471240
O200	O	0.929388	-0.571397	-0.137907
O201	O	1.262722	-0.238064	0.195427
C202	C	0.620444	-0.692791	-0.428553
C203	C	0.953777	-0.359458	-0.095220
C204	C	1.287110	-0.026124	0.238113
C205	C	0.649184	-0.669325	-0.378397
C206	C	0.982517	-0.335992	-0.045064
C207	C	1.315851	-0.002658	0.288270
C208	C	0.706676	-0.669309	-0.278105
C209	C	1.040009	-0.335975	0.055229
C210	C	1.373343	-0.002642	0.388562
C211	C	0.706660	-0.622393	-0.278094
C212	C	1.039993	-0.289060	0.055239
C213	C	1.373327	0.044274	0.388572
C214	C	0.677906	-0.598944	-0.328236
C215	C	1.011239	-0.265610	0.005098
C216	C	1.344573	0.067723	0.338431
C217	C	0.649168	-0.622410	-0.378387
C218	C	0.982501	-0.289076	-0.045054
C219	C	1.315835	0.044257	0.288280
C220	C	0.591691	-0.669339	-0.478703
C221	C	0.925024	-0.336006	-0.145370
C222	C	1.258358	-0.002673	0.187963
C223	C	0.591681	-0.622418	-0.478693
C224	C	0.925015	-0.289085	-0.145360
C225	C	1.258348	0.044249	0.187973
C226	C	0.620421	-0.598952	-0.428537
C227	C	0.953755	-0.265619	-0.095204
C228	C	1.287088	0.067714	0.238129
C229	C	0.620398	-0.552045	-0.428518
C230	C	0.953731	-0.218711	-0.095185
C231	C	1.287065	0.114622	0.238149
N232	N	0.649140	-0.528576	-0.378371
N233	N	0.982473	-0.195243	-0.045038
N234	N	1.315806	0.138090	0.288296
C235	C	0.677894	-0.552026	-0.328230
C236	C	1.011227	-0.218693	0.005104
C237	C	1.344560	0.114641	0.338437
C238	C	0.620526	-0.978994	-0.428590
C239	C	0.953859	-0.645661	-0.095257
C240	C	1.287192	-0.312327	0.238077
C241	C	0.620538	-1.025912	-0.428596
C242	C	0.953872	-0.692578	-0.095262
C243	C	1.287205	-0.359245	0.238071
C244	C	0.678036	-1.025893	-0.328303
C245	C	1.011369	-0.692559	0.005031
C246	C	1.344702	-0.359226	0.338364
C247	C	0.678021	-0.978974	-0.328293
C248	C	1.011354	-0.645641	0.005040
C249	C	1.344687	-0.312307	0.338373
C250	C	0.649267	-0.955525	-0.378443
C251	C	0.982601	-0.622192	-0.045109
C252	C	1.315934	-0.288859	0.288224
C253	C	0.677858	-0.453500	-0.328212
C254	C	1.011191	-0.120167	0.005122
C255	C	1.344524	0.213167	0.338455
C256	C	0.677838	-0.406580	-0.328204
C257	C	1.011171	-0.073247	0.005130
C258	C	1.344505	0.260086	0.338463
C259	C	0.620343	-0.406603	-0.428499
C260	C	0.953676	-0.073270	-0.095166
C261	C	1.287009	0.260063	0.238167
C262	C	0.620360	-0.453519	-0.428505
C263	C	0.953694	-0.120186	-0.095171
C264	C	1.287027	0.213148	0.238162
C265	C	0.649122	-0.476966	-0.378358
C266	C	0.982455	-0.143633	-0.045025
C267	C	1.315788	0.189701	0.288308
O268	O	0.595946	-0.527751	-0.471119
O269	O	0.929280	-0.194417	-0.137786
O270	O	1.262613	0.138916	0.195547
O271	O	0.702339	-0.527750	-0.285589
O272	O	1.035672	-0.194417	0.047745
O273	O	1.369005	0.138916	0.381078
C274	C	0.677954	-0.739690	-0.328266
C275	C	1.011287	-0.406357	0.005067
C276	C	1.344620	-0.073023	0.338401
C277	C	0.649216	-0.763156	-0.378417
C278	C	0.982549	-0.429823	-0.045084
C279	C	1.315882	-0.096489	0.288249
C280	C	0.620462	-0.739707	-0.428559
C281	C	0.953795	-0.406373	-0.095225
C282	C	1.287128	-0.073040	0.238108
C283	C	0.649228	-0.810074	-0.378423
C284	C	0.982562	-0.476741	-0.045090
C285	C	1.315895	-0.143407	0.288243
C286	C	0.677982	-0.833523	-0.328282
C287	C	1.011316	-0.500190	0.005051
C288	C	1.344649	-0.166857	0.338385
C289	C	0.706724	-0.810055	-0.278135
C290	C	1.040057	-0.476722	0.055198
C291	C	1.373390	-0.143388	0.388532
C292	C	0.706708	-0.763139	-0.278125
C293	C	1.040041	-0.429806	0.055208
C294	C	1.373374	-0.096473	0.388542
C295	C	0.591720	-0.763175	-0.478706
C296	C	0.925054	-0.429842	-0.145372
C297	C	1.258387	-0.096508	0.187961
C298	C	0.591738	-0.810090	-0.478711
C299	C	0.925071	-0.476757	-0.145378
C300	C	1.258405	-0.143424	0.187955
C301	C	0.620492	-0.833540	-0.428570
C302	C	0.953825	-0.500207	-0.095237
C303	C	1.287159	-0.166873	0.238097
C304	C	0.766337	-0.216493	-0.378432
C305	C	1.099670	0.116840	-0.045098
C306	C	1.433004	0.450173	0.288235
C307	C	0.816272	-0.216502	-0.378456
C308	C	1.149605	0.116832	-0.045123
C309	C	1.482938	0.450165	0.288211
C310	C	0.649186	-0.216441	-0.583119
C311	C	0.982519	0.116892	-0.249785
C312	C	1.315853	0.450226	0.083548
C313	C	0.649198	-0.216427	-0.670369
C314	C	0.982531	0.116907	-0.337035
C315	C	1.315864	0.450240	-0.003702
C316	C	0.649252	-0.099296	-0.378431
C317	C	0.982586	0.234038	-0.045097
C318	C	1.315919	0.567371	0.288236
C319	C	0.649292	-0.049361	-0.378455
C320	C	0.982626	0.283972	-0.045121
C321	C	1.315959	0.617306	0.288212
C322	C	0.677955	-0.187696	-0.711388
C323	C	1.011288	0.145638	-0.378055
C324	C	1.344622	0.478971	-0.044721
C325	C	0.677961	-0.187681	-0.793368
C326	C	1.011294	0.145653	-0.460035
C327	C	1.344627	0.478986	-0.126702
C328	C	0.649210	-0.216399	-0.834328
C329	C	0.982544	0.116934	-0.500995
C330	C	1.315877	0.450267	-0.167661
C331	C	0.620450	-0.245132	-0.793303
C332	C	0.953783	0.088201	-0.459970
C333	C	1.287116	0.421535	-0.126636
C334	C	0.620442	-0.245144	-0.711324
C335	C	0.953776	0.088189	-0.377991
C336	C	1.287109	0.421522	-0.044657
C337	C	0.620468	-0.245105	-0.964173
C338	C	0.953801	0.088228	-0.630840
C339	C	1.287134	0.421562	-0.297507
C340	C	0.620475	-0.245093	-1.046158
C341	C	0.953809	0.088240	-0.712825
C342	C	1.287142	0.421573	-0.379491
C343	C	0.677986	-0.187641	-1.046218
C344	C	1.011319	0.145692	-0.712884
C345	C	1.344653	0.479025	-0.379551
C346	C	0.677979	-0.187654	-0.964239
C347	C	1.011312	0.145680	-0.630905
C348	C	1.344645	0.479013	-0.297572
C349	C	0.649218	-0.216387	-0.923219
C350	C	0.982552	0.116947	-0.589886
C351	C	1.315885	0.450280	-0.256552
C352	C	0.649158	-0.216475	-0.174426
C353	C	0.982491	0.116859	0.158907
C354	C	1.315824	0.450192	0.492240
C355	C	0.649233	-0.216362	-0.087177
C356	C	0.982566	0.116971	0.246156
C357	C	1.315900	0.450305	0.579490
H358	H	0.036459	-0.135522	-0.237405
H359	H	0.369792	0.197811	0.095928
H360	H	0.703125	0.531144	0.429261
H361	H	0.597039	-0.268514	-0.826659
H362	H	0.930372	0.064820	-0.493326
H363	H	1.263706	0.398153	-0.159992
H364	H	-0.094251	-0.268692	-0.469355
H365	H	0.239083	0.064641	-0.136022
H366	H	0.572416	0.397975	0.197312
C367	C	0.128266	-0.127297	-0.223063
C368	C	0.461599	0.206036	0.110270
C369	C	0.794933	0.539369	0.443604
N370	N	0.147693	-0.103461	-0.181528
N371	N	0.481026	0.229873	0.151805
N372	N	0.814360	0.563206	0.485138
H373	H	0.701242	-0.387476	-0.287358
H374	H	1.034575	-0.054143	0.045975
H375	H	1.367908	0.279191	0.379309
H376	H	0.730093	-0.688396	-0.237273
H377	H	1.063427	-0.355063	0.096060
H378	H	1.396760	-0.021730	0.429393
C379	C	0.588846	-0.276683	-1.091212
C380	C	0.922179	0.056651	-0.757879
C381	C	1.255513	0.389984	-0.424545
N382	N	0.565022	-0.300476	-1.125147
N383	N	0.898355	0.032858	-0.791813
N384	N	1.231688	0.366191	-0.458480
C385	C	0.709583	-0.156102	-0.666340
C386	C	1.042916	0.177232	-0.333006
C387	C	1.376249	0.510565	0.000327
N388	N	0.733404	-0.132302	-0.632412
N389	N	1.066738	0.201031	-0.299078
N390	N	1.400071	0.534364	0.034255
H391	H	0.568286	-0.688437	-0.519542
H392	H	0.901619	-0.355104	-0.186209
H393	H	1.234952	-0.021770	0.147125
H394	H	-0.179369	-0.164311	-0.287536
H395	H	0.153964	0.169022	0.045798
H396	H	0.487298	0.502356	0.379131
H397	H	0.393036	-0.268656	-0.469263
H398	H	0.726369	0.064677	-0.135929
H399	H	1.059702	0.398011	0.197404
H400	H	-0.094262	-0.164299	-0.287526
H401	H	0.239072	0.169035	0.045807
H402	H	0.572405	0.502368	0.379141
H403	H	0.596959	-0.472626	-0.469348
H404	H	0.930293	-0.139293	-0.136015
H405	H	1.263626	0.194041	0.197318
H406	H	0.701392	-0.164271	-0.930891
H407	H	1.034725	0.169063	-0.597558
H408	H	1.368059	0.502396	-0.264225
H409	H	0.701279	-0.472585	-0.287379
H410	H	1.034612	-0.139252	0.045954
H411	H	1.367946	0.194081	0.379287
H412	H	0.730064	-0.603290	-0.237255
H413	H	1.063397	-0.269957	0.096078
H414	H	1.396731	0.063377	0.429411
C415	C	0.709638	-0.953166	-0.273121
C416	C	1.042971	-0.619833	0.060212
C417	C	1.376305	-0.286499	0.393546
N418	N	0.733454	-0.933730	-0.231564
N419	N	1.066788	-0.600396	0.101770
N420	N	1.400121	-0.267063	0.435103
C421	C	0.738323	-0.737333	-0.222946
C422	C	1.071656	-0.404000	0.110387
C423	C	1.404990	-0.070666	0.443721
N424	N	0.762137	-0.717899	-0.181381
N425	N	1.095470	-0.384565	0.151952
N426	N	1.428803	-0.051232	0.485285
H427	H	0.478144	-0.268655	-0.469226
H428	H	0.811478	0.064678	-0.135893
H429	H	1.144811	0.398012	0.197441
H430	H	0.177214	-0.135505	-0.237375
H431	H	0.510547	0.197828	0.095958
H432	H	0.843881	0.531161	0.429291
C433	C	0.709668	-1.051696	-0.273151
C434	C	1.043001	-0.718363	0.060182
C435	C	1.376335	-0.385029	0.393516
N436	N	0.733495	-1.071133	-0.231618
N437	N	1.066828	-0.737800	0.101715
N438	N	1.400161	-0.404466	0.435049
C439	C	0.588905	-0.953206	-0.483783
C440	C	0.922238	-0.619873	-0.150449
C441	C	1.255571	-0.286540	0.182884
N442	N	0.565091	-0.933785	-0.525360
N443	N	0.898424	-0.600452	-0.192027
N444	N	1.231757	-0.267118	0.141306
H445	H	0.701379	-0.164286	-0.826763
H446	H	1.034712	0.169047	-0.493429
H447	H	1.368046	0.502381	-0.160096
C448	C	0.738353	-0.835858	-0.222979
C449	C	1.071686	-0.502525	0.110355
C450	C	1.405019	-0.169192	0.443688
N451	N	0.762176	-0.855296	-0.181440
N452	N	1.095509	-0.521963	0.151893
N453	N	1.428842	-0.188629	0.485227
C454	C	0.709622	-0.156034	-1.091340
C455	C	1.042956	0.177299	-0.758007
C456	C	1.376289	0.510633	-0.424674
N457	N	0.733451	-0.132230	-1.125330
N458	N	1.066785	0.201103	-0.791997
N459	N	1.400118	0.534437	-0.458664
H460	H	0.597041	-0.268495	-0.930778
H461	H	0.930374	0.064838	-0.597444
H462	H	1.263708	0.398171	-0.264111
C463	C	0.029754	-0.305658	-0.533768
C464	C	0.363087	0.027675	-0.200434
C465	C	0.696421	0.361009	0.132899
N466	N	0.010311	-0.329489	-0.575289
N467	N	0.343644	0.003844	-0.241956
N468	N	0.676978	0.337177	0.091377
C469	C	0.588918	-1.051719	-0.483764
C470	C	0.922251	-0.718386	-0.150430
C471	C	1.255584	-0.385052	0.182903
N472	N	0.565102	-1.071155	-0.525322
N473	N	0.898435	-0.737822	-0.191988
N474	N	1.231768	-0.404489	0.141345
C475	C	0.588807	-0.276752	-0.666203
C476	C	0.922141	0.056582	-0.332870
C477	C	1.255474	0.389915	0.000463
N478	N	0.564978	-0.300558	-0.632219
N479	N	0.898312	0.032775	-0.298886
N480	N	1.231645	0.366108	0.034447
C481	C	0.560119	-0.835898	-0.533890
C482	C	0.893452	-0.502564	-0.200556
C483	C	1.226785	-0.169231	0.132777
N484	N	0.536306	-0.855334	-0.575454
N485	N	0.869640	-0.522001	-0.242121
N486	N	1.202973	-0.188667	0.091213
C487	C	0.560050	-0.596628	-0.533864
C488	C	0.893383	-0.263294	-0.200530
C489	C	1.226716	0.070039	0.132803
N490	N	0.536224	-0.577203	-0.575416
N491	N	0.869557	-0.243870	-0.242083
N492	N	1.202891	0.089464	0.091250
C493	C	0.588716	-0.380800	-0.483655
C494	C	0.922050	-0.047467	-0.150322
C495	C	1.255383	0.285867	0.183012
N496	N	0.564898	-0.361364	-0.525204
N497	N	0.898232	-0.028030	-0.191870
N498	N	1.231565	0.305303	0.141463
C499	C	0.386314	-0.156050	-0.273099
C500	C	0.719648	0.177284	0.060234
C501	C	1.052981	0.510617	0.393568
N502	N	0.366880	-0.132212	-0.231584
N503	N	0.700214	0.201121	0.101749
N504	N	1.033547	0.534455	0.435082
C505	C	0.269026	-0.305653	-0.533716
C506	C	0.602359	0.027680	-0.200383
C507	C	0.935692	0.361013	0.132951
N508	N	0.288455	-0.329490	-0.575239
N509	N	0.621788	0.003843	-0.241906
N510	N	0.955121	0.337177	0.091428
H511	H	0.568306	-0.744086	-0.519538
H512	H	0.901639	-0.410753	-0.186205
H513	H	1.234972	-0.077419	0.147129
C514	C	0.170517	-0.305664	-0.533730
C515	C	0.503850	0.027670	-0.200396
C516	C	0.837183	0.361003	0.132937
N517	N	0.151092	-0.329512	-0.575246
N518	N	0.484425	0.003821	-0.241913
N519	N	0.817758	0.337154	0.091420
H520	H	-0.179373	-0.268693	-0.469370
H521	H	0.153961	0.064641	-0.136036
H522	H	0.487294	0.397974	0.197297
C523	C	0.484847	-0.156040	-0.273093
C524	C	0.818180	0.177293	0.060240
C525	C	1.151513	0.510626	0.393573
N526	N	0.504289	-0.132198	-0.231590
N527	N	0.837622	0.201135	0.101744
N528	N	1.170955	0.534468	0.435077
C529	C	0.269026	-0.127277	-0.223045
C530	C	0.602359	0.206056	0.110288
C531	C	0.935692	0.539389	0.443621
N532	N	0.288456	-0.103438	-0.181519
N533	N	0.621789	0.229895	0.151815
N534	N	0.955122	0.563228	0.485148
H535	H	0.121577	-0.297439	-0.519430
H536	H	0.454910	0.035895	-0.186097
H537	H	0.788243	0.369228	0.147237
