data_functionalizedCrystal
_audit_creation_method	'MofGen! by Chris Wilmer'
_symmetry_space_group_name_H-M	'P1'
_symmetry_Int_Tables_number	1
_symmetry_cell_setting	triclinic
loop_
_symmetry_equiv_pos_as_xyz
  x,y,z
_cell_length_a	23.532407
_cell_length_b	23.532407
_cell_length_c	22.010155
_cell_angle_alpha	90.003069
_cell_angle_beta	89.999577
_cell_angle_gamma	97.151322
loop_
_atom_site_label
_atom_site_type_symbol
_atom_site_fract_x
_atom_site_fract_y
_atom_site_fract_z
O1	O	0.069127	-0.755264	-0.050455
O2	O	0.319127	-0.505264	0.199545
O3	O	0.569127	-0.255264	0.449545
O4	O	0.819127	-0.005264	0.699545
O5	O	0.079130	-0.589400	-0.050474
O6	O	0.329130	-0.339400	0.199526
O7	O	0.579130	-0.089400	0.449526
O8	O	0.829130	0.160600	0.699526
O9	O	-0.008803	-0.677334	-0.050453
O10	O	0.241197	-0.427334	0.199547
O11	O	0.491197	-0.177334	0.449547
O12	O	0.741197	0.072666	0.699547
O13	O	0.157060	-0.667330	-0.050476
O14	O	0.407060	-0.417330	0.199524
O15	O	0.657060	-0.167330	0.449524
O16	O	0.907060	0.082670	0.699524
O17	O	-0.008790	-0.677318	0.050597
O18	O	0.241210	-0.427318	0.300597
O19	O	0.491210	-0.177318	0.550597
O20	O	0.741210	0.072682	0.800597
O21	O	0.079143	-0.589384	0.050576
O22	O	0.329143	-0.339384	0.300576
O23	O	0.579143	-0.089384	0.550576
O24	O	0.829143	0.160616	0.800576
O25	O	0.069140	-0.755248	0.050595
O26	O	0.319140	-0.505248	0.300595
O27	O	0.569140	-0.255248	0.550595
O28	O	0.819140	-0.005248	0.800595
Cu29	Cu	0.074143	-0.672315	0.059812
Cu30	Cu	0.324143	-0.422315	0.309812
Cu31	Cu	0.574143	-0.172315	0.559812
Cu32	Cu	0.824143	0.077685	0.809812
Cu33	Cu	0.074127	-0.672333	-0.059691
Cu34	Cu	0.324127	-0.422333	0.190309
Cu35	Cu	0.574127	-0.172333	0.440309
Cu36	Cu	0.824127	0.077667	0.690309
O37	O	0.157073	-0.667314	0.050574
O38	O	0.407073	-0.417314	0.300574
O39	O	0.657073	-0.167314	0.550574
O40	O	0.907073	0.082686	0.800574
C41	C	0.078882	-0.568176	0.000049
C42	C	0.328882	-0.318176	0.250049
C43	C	0.578882	-0.068176	0.500049
C44	C	0.828882	0.181824	0.750049
C45	C	0.078116	-0.504959	0.000042
C46	C	0.328116	-0.254959	0.250042
C47	C	0.578116	-0.004959	0.500042
C48	C	0.828116	0.245041	0.750042
C49	C	-0.030013	-0.677071	0.000074
C50	C	0.219987	-0.427071	0.250074
C51	C	0.469987	-0.177071	0.500074
C52	C	0.719987	0.072929	0.750074
C53	C	-0.093230	-0.676305	0.000078
C54	C	0.156770	-0.426305	0.250078
C55	C	0.406770	-0.176305	0.500078
C56	C	0.656770	0.073695	0.750078
N57	N	0.074153	-0.672305	0.143865
N58	N	0.324153	-0.422305	0.393865
N59	N	0.574153	-0.172305	0.643865
N60	N	0.824153	0.077695	0.893865
C61	C	-0.492333	-0.723539	0.000050
C62	C	-0.242333	-0.473539	0.250050
C63	C	0.007667	-0.223539	0.500050
C64	C	0.257667	0.026461	0.750050
C65	C	-0.551733	-0.722827	0.000046
C66	C	-0.301733	-0.472827	0.250046
C67	C	-0.051733	-0.222827	0.500046
C68	C	0.198267	0.027173	0.750046
O69	O	-0.588478	-0.766613	0.000028
O70	O	-0.338478	-0.516613	0.250028
O71	O	-0.088478	-0.266613	0.500028
O72	O	0.161522	-0.016613	0.750028
N73	N	-0.574359	-0.670551	0.000040
N74	N	-0.324359	-0.420551	0.250040
N75	N	-0.074359	-0.170551	0.500040
N76	N	0.175641	0.079449	0.750040
C77	C	-0.537582	-0.618983	0.000033
C78	C	-0.287582	-0.368983	0.250033
C79	C	-0.037582	-0.118983	0.500033
C80	C	0.212418	0.131017	0.750033
O81	O	-0.562281	-0.574452	0.000027
O82	O	-0.312281	-0.324452	0.250027
O83	O	-0.062281	-0.074452	0.500027
O84	O	0.187719	0.175548	0.750027
C85	C	-0.478182	-0.619695	0.000033
C86	C	-0.228182	-0.369695	0.250033
C87	C	0.021818	-0.119695	0.500033
C88	C	0.271818	0.130305	0.750033
C89	C	-0.455560	-0.671974	0.000045
C90	C	-0.205560	-0.421974	0.250045
C91	C	0.044440	-0.171974	0.500045
C92	C	0.294440	0.078026	0.750045
C93	C	-0.469710	-0.775814	0.000061
C94	C	-0.219710	-0.525814	0.250061
C95	C	0.030290	-0.275814	0.500061
C96	C	0.280290	-0.025814	0.750061
C97	C	-0.410313	-0.776525	0.000067
C98	C	-0.160313	-0.526525	0.250067
C99	C	0.089687	-0.276525	0.500067
C100	C	0.339687	-0.026525	0.750067
C101	C	-0.373540	-0.724961	0.000062
C102	C	-0.123540	-0.474961	0.250062
C103	C	0.126460	-0.224961	0.500062
C104	C	0.376460	0.025039	0.750062
C105	C	-0.396164	-0.672685	0.000051
C106	C	-0.146164	-0.422685	0.250051
C107	C	0.103836	-0.172685	0.500051
C108	C	0.353836	0.077315	0.750051
C109	C	-0.441406	-0.568127	0.000022
C110	C	-0.191406	-0.318127	0.250022
C111	C	0.058594	-0.068127	0.500022
C112	C	0.308594	0.181873	0.750022
C113	C	-0.382004	-0.568844	0.000022
C114	C	-0.132004	-0.318844	0.250022
C115	C	0.117996	-0.068844	0.500022
C116	C	0.367996	0.181156	0.750022
C117	C	-0.359381	-0.621123	0.000034
C118	C	-0.109381	-0.371123	0.250034
C119	C	0.140619	-0.121123	0.500034
C120	C	0.390619	0.128877	0.750034
C121	C	-0.299995	-0.621832	0.000052
C122	C	-0.049995	-0.371832	0.250052
C123	C	0.200005	-0.121832	0.500052
C124	C	0.450005	0.128168	0.750052
N125	N	-0.277368	-0.674109	0.000057
N126	N	-0.027368	-0.424109	0.250057
N127	N	0.222632	-0.174109	0.500057
N128	N	0.472632	0.075891	0.750057
C129	C	-0.314141	-0.725673	0.000062
C130	C	-0.064141	-0.475673	0.250062
C131	C	0.185859	-0.225673	0.500062
C132	C	0.435859	0.024327	0.750062
C133	C	-0.662324	-0.617491	0.000031
C134	C	-0.412324	-0.367491	0.250031
C135	C	-0.162324	-0.117491	0.500031
C136	C	0.087676	0.132509	0.750031
C137	C	-0.721722	-0.616778	0.000035
C138	C	-0.471722	-0.366778	0.250035
C139	C	-0.221722	-0.116778	0.500035
C140	C	0.028278	0.133222	0.750035
C141	C	-0.735869	-0.720623	0.000047
C142	C	-0.485869	-0.470623	0.250047
C143	C	-0.235869	-0.220623	0.500047
C144	C	0.014131	0.029377	0.750047
C145	C	-0.676470	-0.721335	0.000047
C146	C	-0.426470	-0.471335	0.250047
C147	C	-0.176470	-0.221335	0.500047
C148	C	0.073530	0.028665	0.750047
C149	C	-0.639698	-0.669767	0.000037
C150	C	-0.389698	-0.419767	0.250037
C151	C	-0.139698	-0.169767	0.500037
C152	C	0.110302	0.080233	0.750037
C153	C	-0.189405	-0.727163	0.000075
C154	C	0.060595	-0.477163	0.250075
C155	C	0.310595	-0.227163	0.500075
C156	C	0.560595	0.022837	0.750075
C157	C	-0.130003	-0.727869	0.000083
C158	C	0.119997	-0.477869	0.250083
C159	C	0.369997	-0.227869	0.500083
C160	C	0.619997	0.022131	0.750083
C161	C	-0.115860	-0.624025	0.000069
C162	C	0.134140	-0.374025	0.250069
C163	C	0.384140	-0.124025	0.500069
C164	C	0.634140	0.125975	0.750069
C165	C	-0.175257	-0.623318	0.000064
C166	C	0.074743	-0.373318	0.250064
C167	C	0.324743	-0.123318	0.500064
C168	C	0.574743	0.126682	0.750064
C169	C	-0.212029	-0.674891	0.000065
C170	C	0.037971	-0.424891	0.250065
C171	C	0.287971	-0.174891	0.500065
C172	C	0.537971	0.075109	0.750065
O173	O	-0.263215	-0.578070	0.000067
O174	O	-0.013215	-0.328070	0.250067
O175	O	0.236785	-0.078070	0.500067
O176	O	0.486785	0.171930	0.750067
O177	O	-0.289433	-0.770196	0.000060
O178	O	-0.039433	-0.520196	0.250060
O179	O	0.210567	-0.270196	0.500060
O180	O	0.460567	-0.020196	0.750060
C181	C	0.178283	-0.667577	0.000046
C182	C	0.428283	-0.417577	0.250046
C183	C	0.678283	-0.167577	0.500046
C184	C	0.928283	0.082423	0.750046
C185	C	0.241500	-0.668343	0.000037
C186	C	0.491500	-0.418343	0.250037
C187	C	0.741500	-0.168343	0.500037
C188	C	0.991500	0.081657	0.750037
C189	C	0.069388	-0.776472	0.000071
C190	C	0.319388	-0.526472	0.250071
C191	C	0.569388	-0.276472	0.500071
C192	C	0.819388	-0.026472	0.750071
C193	C	0.070154	-0.839689	0.000073
C194	C	0.320154	-0.589689	0.250073
C195	C	0.570154	-0.339689	0.500073
C196	C	0.820154	-0.089689	0.750073
C197	C	0.125350	-0.105856	0.000063
C198	C	0.375350	0.144144	0.250063
C199	C	0.625350	0.394144	0.500063
C200	C	0.875350	0.644144	0.750063
C201	C	0.124638	-0.046456	0.000067
C202	C	0.374638	0.203544	0.250067
C203	C	0.624638	0.453544	0.500067
C204	C	0.874638	0.703544	0.750067
O205	O	0.168424	-0.009711	0.000083
O206	O	0.418424	0.240289	0.250083
O207	O	0.668424	0.490289	0.500083
O208	O	0.918424	0.740289	0.750083
N209	N	0.072362	-0.023830	0.000073
N210	N	0.322362	0.226170	0.250073
N211	N	0.572362	0.476170	0.500073
N212	N	0.822362	0.726170	0.750073
C213	C	0.020794	-0.060607	0.000082
C214	C	0.270794	0.189393	0.250082
C215	C	0.520794	0.439393	0.500082
C216	C	0.770794	0.689393	0.750082
O217	O	-0.023737	-0.035908	0.000088
O218	O	0.226263	0.214092	0.250088
O219	O	0.476263	0.464092	0.500088
O220	O	0.726263	0.714092	0.750088
C221	C	0.021506	-0.120006	0.000082
C222	C	0.271506	0.129994	0.250082
C223	C	0.521506	0.379994	0.500082
C224	C	0.771506	0.629994	0.750082
C225	C	0.073785	-0.142629	0.000070
C226	C	0.323785	0.107371	0.250070
C227	C	0.573785	0.357371	0.500070
C228	C	0.823785	0.607371	0.750070
C229	C	0.177625	-0.128479	0.000051
C230	C	0.427625	0.121521	0.250051
C231	C	0.677625	0.371521	0.500051
C232	C	0.927625	0.621521	0.750051
C233	C	0.178336	-0.187876	0.000046
C234	C	0.428336	0.062124	0.250046
C235	C	0.678336	0.312124	0.500046
C236	C	0.928336	0.562124	0.750046
C237	C	0.126772	-0.224649	0.000053
C238	C	0.376772	0.025351	0.250053
C239	C	0.626772	0.275351	0.500053
C240	C	0.876772	0.525351	0.750053
C241	C	0.074497	-0.202025	0.000065
C242	C	0.324497	0.047975	0.250065
C243	C	0.574497	0.297975	0.500065
C244	C	0.824497	0.547975	0.750065
C245	C	-0.030062	-0.156783	0.000096
C246	C	0.219938	0.093217	0.250096
C247	C	0.469938	0.343217	0.500096
C248	C	0.719938	0.593217	0.750096
C249	C	-0.029345	-0.216185	0.000097
C250	C	0.220655	0.033815	0.250097
C251	C	0.470655	0.283815	0.500097
C252	C	0.720655	0.533815	0.750097
C253	C	0.022934	-0.238808	0.000084
C254	C	0.272934	0.011192	0.250084
C255	C	0.522934	0.261192	0.500084
C256	C	0.772934	0.511192	0.750084
C257	C	0.023643	-0.298194	0.000067
C258	C	0.273643	-0.048194	0.250067
C259	C	0.523643	0.201806	0.500067
C260	C	0.773643	0.451806	0.750067
N261	N	0.075920	-0.320820	0.000061
N262	N	0.325920	-0.070820	0.250061
N263	N	0.575920	0.179180	0.500061
N264	N	0.825920	0.429180	0.750061
C265	C	0.127484	-0.284048	0.000054
C266	C	0.377484	-0.034048	0.250054
C267	C	0.627484	0.215952	0.500054
C268	C	0.877484	0.465952	0.750054
C269	C	0.019302	0.064135	0.000082
C270	C	0.269302	0.314135	0.250082
C271	C	0.519302	0.564135	0.500082
C272	C	0.769302	0.814135	0.750082
C273	C	0.018589	0.123533	0.000077
C274	C	0.268589	0.373533	0.250077
C275	C	0.518589	0.623533	0.500077
C276	C	0.768589	0.873533	0.750077
C277	C	0.122434	0.137680	0.000063
C278	C	0.372434	0.387680	0.250063
C279	C	0.622434	0.637680	0.500063
C280	C	0.872434	0.887680	0.750063
C281	C	0.123146	0.078281	0.000064
C282	C	0.373146	0.328281	0.250064
C283	C	0.623146	0.578281	0.500064
C284	C	0.873146	0.828281	0.750064
C285	C	0.071578	0.041509	0.000076
C286	C	0.321578	0.291509	0.250076
C287	C	0.571578	0.541509	0.500076
C288	C	0.821578	0.791509	0.750076
C289	C	0.128974	-0.408784	0.000043
C290	C	0.378974	-0.158784	0.250043
C291	C	0.628974	0.091216	0.500043
C292	C	0.878974	0.341216	0.750043
C293	C	0.129680	-0.468186	0.000035
C294	C	0.379680	-0.218186	0.250035
C295	C	0.629680	0.031814	0.500035
C296	C	0.879680	0.281814	0.750035
C297	C	0.025836	-0.482329	0.000052
C298	C	0.275836	-0.232329	0.250052
C299	C	0.525836	0.017671	0.500052
C300	C	0.775836	0.267671	0.750052
C301	C	0.025129	-0.422932	0.000057
C302	C	0.275129	-0.172932	0.250057
C303	C	0.525129	0.077068	0.500057
C304	C	0.775129	0.327068	0.750057
C305	C	0.076702	-0.386160	0.000054
C306	C	0.326702	-0.136160	0.250054
C307	C	0.576702	0.113840	0.500054
C308	C	0.826702	0.363840	0.750054
O309	O	-0.020119	-0.334974	0.000054
O310	O	0.229881	-0.084974	0.250054
O311	O	0.479881	0.165026	0.500054
O312	O	0.729881	0.415026	0.750054
O313	O	0.172007	-0.308755	0.000055
O314	O	0.422007	-0.058755	0.250055
O315	O	0.672007	0.191245	0.500055
O316	O	0.922007	0.441245	0.750055
N317	N	0.074112	-0.672347	-0.143744
N318	N	0.324112	-0.422347	0.106256
N319	N	0.574112	-0.172347	0.356256
N320	N	0.824112	0.077653	0.606256
C321	C	0.035196	-0.711273	0.563653
C322	C	0.285196	-0.461273	0.813653
C323	C	0.535196	-0.211273	1.063653
C324	C	0.785196	0.038727	1.313653
C325	C	0.035192	-0.711275	0.627261
C326	C	0.285192	-0.461275	0.877261
C327	C	0.535192	-0.211275	1.127261
C328	C	0.785192	0.038725	1.377261
O329	O	0.002076	-0.744384	0.660160
O330	O	0.252076	-0.494384	0.910160
O331	O	0.502076	-0.244384	1.160160
O332	O	0.752076	0.005616	1.410160
N333	N	0.074115	-0.672333	0.659072
N334	N	0.324115	-0.422333	0.909072
N335	N	0.574115	-0.172333	1.159072
N336	N	0.824115	0.077667	1.409072
C337	C	0.113041	-0.633382	0.627272
C338	C	0.363041	-0.383382	0.877272
C339	C	0.613041	-0.133382	1.127272
C340	C	0.863041	0.116618	1.377272
O341	O	0.146148	-0.600259	0.660170
O342	O	0.396148	-0.350259	0.910170
O343	O	0.646148	-0.100259	1.160170
O344	O	0.896148	0.149741	1.410170
C345	C	0.113042	-0.633377	0.563665
C346	C	0.363042	-0.383377	0.813665
C347	C	0.613042	-0.133377	1.063665
C348	C	0.863042	0.116623	1.313665
C349	C	0.074120	-0.672326	0.531858
C350	C	0.324120	-0.422326	0.781858
C351	C	0.574120	-0.172326	1.031858
C352	C	0.824120	0.077674	1.281858
C353	C	-0.003723	-0.750217	0.531846
C354	C	0.246277	-0.500217	0.781846
C355	C	0.496277	-0.250217	1.031846
C356	C	0.746277	-0.000217	1.281846
C357	C	-0.003719	-0.750215	0.468243
C358	C	0.246281	-0.500215	0.718243
C359	C	0.496281	-0.250215	0.968243
C360	C	0.746281	-0.000215	1.218243
C361	C	0.035205	-0.711268	0.436447
C362	C	0.285205	-0.461268	0.686447
C363	C	0.535205	-0.211268	0.936447
C364	C	0.785205	0.038732	1.186447
C365	C	0.074125	-0.672324	0.468255
C366	C	0.324125	-0.422324	0.718255
C367	C	0.574125	-0.172324	0.968255
C368	C	0.824125	0.077676	1.218255
C369	C	0.151965	-0.594424	0.531866
C370	C	0.401965	-0.344424	0.781866
C371	C	0.651965	-0.094424	1.031866
C372	C	0.901965	0.155576	1.281866
C373	C	0.151962	-0.594422	0.468256
C374	C	0.401962	-0.344422	0.718256
C375	C	0.651962	-0.094422	0.968256
C376	C	0.901962	0.155578	1.218256
C377	C	0.113040	-0.633370	0.436448
C378	C	0.363040	-0.383370	0.686448
C379	C	0.613040	-0.133370	0.936448
C380	C	0.863040	0.116630	1.186448
C381	C	0.113054	-0.633374	0.372856
C382	C	0.363054	-0.383374	0.622856
C383	C	0.613054	-0.133374	0.872856
C384	C	0.863054	0.116626	1.122856
N385	N	0.074130	-0.672317	0.341045
N386	N	0.324130	-0.422317	0.591045
N387	N	0.574130	-0.172317	0.841045
N388	N	0.824130	0.077683	1.091045
C389	C	0.035206	-0.711263	0.372841
C390	C	0.285206	-0.461263	0.622841
C391	C	0.535206	-0.211263	0.872841
C392	C	0.785206	0.038737	1.122841
C393	C	0.113036	-0.633395	0.760850
C394	C	0.363036	-0.383395	1.010850
C395	C	0.613036	-0.133395	1.260850
C396	C	0.863036	0.116605	1.510850
C397	C	0.113039	-0.633402	0.824455
C398	C	0.363039	-0.383402	1.074455
C399	C	0.613039	-0.133402	1.324455
C400	C	0.863039	0.116598	1.574455
C401	C	0.035188	-0.711294	0.824440
C402	C	0.285188	-0.461294	1.074440
C403	C	0.535188	-0.211294	1.324440
C404	C	0.785188	0.038706	1.574440
C405	C	0.035189	-0.711290	0.760833
C406	C	0.285189	-0.461290	1.010833
C407	C	0.535189	-0.211290	1.260833
C408	C	0.785189	0.038710	1.510833
C409	C	0.074113	-0.672337	0.729039
C410	C	0.324113	-0.422337	0.979039
C411	C	0.574113	-0.172337	1.229039
C412	C	0.824113	0.077663	1.479039
C413	C	0.035220	-0.711256	0.239269
C414	C	0.285220	-0.461256	0.489269
C415	C	0.535220	-0.211256	0.739269
C416	C	0.785220	0.038744	0.989269
C417	C	0.035229	-0.711252	0.175660
C418	C	0.285229	-0.461252	0.425660
C419	C	0.535229	-0.211252	0.675660
C420	C	0.785229	0.038748	0.925660
C421	C	0.113077	-0.633358	0.175681
C422	C	0.363077	-0.383358	0.425681
C423	C	0.613077	-0.133358	0.675681
C424	C	0.863077	0.116642	0.925681
C425	C	0.113070	-0.633364	0.239284
C426	C	0.363070	-0.383364	0.489284
C427	C	0.613070	-0.133364	0.739284
C428	C	0.863070	0.116636	0.989284
C429	C	0.074136	-0.672315	0.271077
C430	C	0.324136	-0.422315	0.521077
C431	C	0.574136	-0.172315	0.771077
C432	C	0.824136	0.077685	1.021077
O433	O	0.146151	-0.600282	0.339916
O434	O	0.396151	-0.350282	0.589916
O435	O	0.646151	-0.100282	0.839916
O436	O	0.896151	0.149718	1.089916
O437	O	0.002100	-0.744376	0.339935
O438	O	0.252100	-0.494376	0.589935
O439	O	0.502100	-0.244376	0.839935
O440	O	0.752100	0.005624	1.089935
H441	H	-0.111587	-0.770443	0.000094
H442	H	0.138413	-0.520443	0.250094
H443	H	0.388413	-0.270443	0.500094
H444	H	0.638413	-0.020443	0.750094
F445	F	0.183864	-0.369658	0.000040
F446	F	0.433864	-0.119658	0.250040
F447	F	0.683864	0.130342	0.500040
F448	F	0.933864	0.380342	0.750040
H449	H	-0.740136	-0.574207	0.000036
H450	H	-0.490136	-0.324207	0.250036
H451	H	-0.240136	-0.074207	0.500036
H452	H	0.009864	0.175793	0.750036
H453	H	0.003534	-0.742971	0.149765
H454	H	0.253534	-0.492971	0.399765
H455	H	0.503534	-0.242971	0.649765
H456	H	0.753534	0.007029	0.899765
F457	F	-0.030513	-0.398854	0.000070
F458	F	0.219487	-0.148854	0.250070
F459	F	0.469487	0.101146	0.500070
F460	F	0.719487	0.351146	0.750070
F461	F	-0.085706	-0.132720	0.000100
F462	F	0.164294	0.117280	0.250100
F463	F	0.414294	0.367280	0.500100
F464	F	0.664294	0.617280	0.750100
F465	F	-0.775016	-0.775503	0.000049
F466	F	-0.525016	-0.525503	0.250049
F467	F	-0.275016	-0.275503	0.500049
F468	F	-0.025016	-0.025503	0.750049
H469	H	-0.499645	-0.817806	0.000063
H470	H	-0.249645	-0.567806	0.250063
H471	H	0.000355	-0.317806	0.500063
H472	H	0.250355	-0.067806	0.750063
F473	F	0.232512	-0.089351	0.000044
F474	F	0.482512	0.160649	0.250044
F475	F	0.732512	0.410649	0.500044
F476	F	0.982512	0.660649	0.750044
F477	F	-0.652399	-0.776978	0.000059
F478	F	-0.402399	-0.526978	0.250059
F479	F	-0.152399	-0.276978	0.500059
F480	F	0.097601	-0.026978	0.750059
H481	H	-0.023982	0.141947	0.000078
H482	H	0.226018	0.391947	0.250078
H483	H	0.476018	0.641947	0.500078
H484	H	0.726018	0.891947	0.750078
F485	F	-0.199335	-0.567676	0.000062
F486	F	0.050665	-0.317676	0.250062
F487	F	0.300665	-0.067676	0.500062
F488	F	0.550665	0.182324	0.750062
H489	H	-0.071339	-0.246123	0.000107
H490	H	0.178661	0.003877	0.250107
H491	H	0.428661	0.253877	0.500107
H492	H	0.678661	0.503877	0.750107
F493	F	0.233980	-0.211944	0.000036
F494	F	0.483980	0.038056	0.250036
F495	F	0.733980	0.288056	0.500036
F496	F	0.983980	0.538056	0.750036
F497	F	-0.623192	-0.562602	0.000026
F498	F	-0.373192	-0.312602	0.250026
F499	F	-0.123192	-0.062602	0.500026
F500	F	0.126808	0.187398	0.750026
F501	F	-0.342871	-0.513956	0.000010
F502	F	-0.092871	-0.263956	0.250010
F503	F	0.157129	-0.013956	0.500010
F504	F	0.407129	0.236044	0.750010
F505	F	-0.076714	-0.569149	0.000064
F506	F	0.173286	-0.319149	0.250064
F507	F	0.423286	-0.069149	0.500064
F508	F	0.673286	0.180851	0.750064
F509	F	-0.465469	-0.512483	0.000007
F510	F	-0.215469	-0.262483	0.250007
F511	F	0.034531	-0.012483	0.500007
F512	F	0.284531	0.237517	0.750007
H513	H	0.165717	0.059867	0.000057
H514	H	0.415717	0.309867	0.250057
H515	H	0.665717	0.559867	0.500057
H516	H	0.915717	0.809867	0.750057
H517	H	0.183658	-0.562708	0.557755
H518	H	0.433658	-0.312708	0.807755
H519	H	0.683658	-0.062708	1.057755
H520	H	0.933658	0.187292	1.307755
F521	F	0.154472	-0.591955	0.858300
F522	F	0.404472	-0.341955	1.108300
F523	F	0.654472	-0.091955	1.358300
F524	F	0.904472	0.158045	1.608300
F525	F	0.185326	-0.492259	0.000020
F526	F	0.435326	-0.242259	0.250020
F527	F	0.685326	0.007741	0.500020
F528	F	0.935326	0.257741	0.750020
F529	F	0.177314	0.176828	0.000058
F530	F	0.427314	0.426828	0.250058
F531	F	0.677314	0.676828	0.500058
F532	F	0.927314	0.926828	0.750058
H533	H	-0.022693	0.034198	0.000086
H534	H	0.227307	0.284198	0.250086
H535	H	0.477307	0.534198	0.500086
H536	H	0.727307	0.784198	0.750086
H537	H	-0.016146	-0.512280	0.000056
H538	H	0.233854	-0.262280	0.250056
H539	H	0.483854	-0.012280	0.500056
H540	H	0.733854	0.237720	0.750056
F541	F	-0.386245	-0.832169	0.000066
F542	F	-0.136245	-0.582169	0.250066
F543	F	0.113755	-0.332169	0.500066
F544	F	0.363755	-0.082169	0.750066
F545	F	-0.006237	-0.752743	0.726987
F546	F	0.243763	-0.502743	0.976987
F547	F	0.493763	-0.252743	1.226987
F548	F	0.743763	-0.002743	1.476987
H549	H	0.003516	-0.742973	0.265148
H550	H	0.253516	-0.492973	0.515148
H551	H	0.503516	-0.242973	0.765148
H552	H	0.753516	0.007027	1.015148
H553	H	-0.035414	-0.781929	0.442349
H554	H	0.214586	-0.531929	0.692349
H555	H	0.464586	-0.281929	0.942349
H556	H	0.714586	-0.031929	1.192349
H557	H	-0.035423	-0.781933	0.557728
H558	H	0.214577	-0.531933	0.807728
H559	H	0.464577	-0.281933	1.057728
H560	H	0.714577	-0.031933	1.307728
H561	H	0.144737	-0.601676	0.734966
H562	H	0.394737	-0.351676	0.984966
H563	H	0.644737	-0.101676	1.234966
H564	H	0.894737	0.148324	1.484966
H565	H	0.003493	-0.743006	0.850339
H566	H	0.253493	-0.493006	1.100339
H567	H	0.503493	-0.243006	1.350339
H568	H	0.753493	0.006994	1.600339
F569	F	0.193390	-0.552960	0.434422
F570	F	0.443390	-0.302960	0.684422
F571	F	0.693390	-0.052960	0.934422
F572	F	0.943390	0.197040	1.184422
H573	H	0.144769	-0.601654	0.265183
H574	H	0.394769	-0.351654	0.515183
H575	H	0.644769	-0.101654	0.765183
H576	H	0.894769	0.148346	1.015183
H577	H	-0.219337	-0.769159	0.000073
H578	H	0.030663	-0.519159	0.250073
H579	H	0.280663	-0.269159	0.500073
H580	H	0.530663	-0.019159	0.750073
F581	F	0.154503	-0.591911	0.141832
F582	F	0.404503	-0.341911	0.391832
F583	F	0.654503	-0.091911	0.641832
F584	F	0.904503	0.158089	0.891832
