data_functionalizedCrystal
_audit_creation_method	'MofGen! by Chris Wilmer'
_symmetry_space_group_name_H-M	'P1'
_symmetry_Int_Tables_number	1
_symmetry_cell_setting	triclinic
loop_
_symmetry_equiv_pos_as_xyz
  x,y,z
_cell_length_a	29.839131
_cell_length_b	19.805407
_cell_length_c	19.805399
_cell_angle_alpha	90.021064
_cell_angle_beta	89.970435
_cell_angle_gamma	89.959595
loop_
_atom_site_label
_atom_site_type_symbol
_atom_site_fract_x
_atom_site_fract_y
_atom_site_fract_z
Zn1	Zn	-0.178876	-1.034665	-0.382737
Zn2	Zn	0.321124	-0.534665	0.117263
Zn3	Zn	-0.254003	-1.034550	-0.269545
Zn4	Zn	0.245997	-0.534550	0.230455
Zn5	Zn	-0.178887	-0.921480	-0.269559
Zn6	Zn	0.321113	-0.421480	0.230441
Zn7	Zn	-0.253978	-0.921414	-0.382689
Zn8	Zn	0.246022	-0.421414	0.117311
O9	O	-0.216436	-0.978027	-0.326132
O10	O	0.283564	-0.478027	0.173868
O11	O	-0.188848	-1.129366	-0.367736
O12	O	0.311152	-0.629366	0.132264
O13	O	-0.244054	-1.019531	-0.174830
O14	O	0.255946	-0.519531	0.325170
O15	O	-0.116018	-0.936570	-0.284598
O16	O	0.383982	-0.436570	0.215402
O17	O	-0.244044	-1.129282	-0.284575
O18	O	0.255956	-0.629282	0.215425
O19	O	-0.116010	-1.019727	-0.367750
O20	O	0.383990	-0.519727	0.132250
O21	O	-0.188867	-0.936458	-0.174840
O22	O	0.311133	-0.436458	0.325160
O23	O	-0.188842	-0.826754	-0.284551
O24	O	0.311158	-0.326754	0.215449
O25	O	-0.244001	-0.936457	-0.477412
O26	O	0.255999	-0.436457	0.022588
O27	O	-0.244011	-0.826706	-0.367667
O28	O	0.255989	-0.326706	0.132333
O29	O	-0.188823	-1.019662	-0.477447
O30	O	0.311177	-0.519662	0.022553
O31	O	-0.316867	-1.019467	-0.284528
O32	O	0.183133	-0.519467	0.215472
O33	O	-0.316849	-0.936346	-0.367654
O34	O	0.183151	-0.436346	0.132346
C35	C	-0.216425	-0.802171	-0.326106
C36	C	0.283575	-0.302171	0.173894
C37	C	-0.216432	-0.726939	-0.326111
C38	C	0.283568	-0.226939	0.173889
C39	C	-0.245201	-0.691587	-0.369318
C40	C	0.254799	-0.191587	0.130682
C41	C	-0.245201	-0.620899	-0.369326
C42	C	0.254799	-0.120899	0.130674
C43	C	-0.216434	-0.585564	-0.326122
C44	C	0.283566	-0.085564	0.173878
C45	C	-0.187661	-0.620920	-0.282913
C46	C	0.312339	-0.120920	0.217087
C47	C	-0.187659	-0.691607	-0.282909
C48	C	0.312341	-0.191607	0.217091
C49	C	-0.187668	-0.335847	-0.282928
C50	C	0.312332	0.164153	0.217072
C51	C	-0.187673	-0.265155	-0.282933
C52	C	0.312327	0.234845	0.217067
C53	C	-0.245210	-0.265139	-0.369345
C54	C	0.254790	0.234861	0.130655
C55	C	-0.245208	-0.335826	-0.369341
C56	C	0.254792	0.164174	0.130659
C57	C	-0.216434	-0.371176	-0.326134
C58	C	0.283566	0.128824	0.173866
C59	C	-0.216433	-0.447825	-0.326127
C60	C	0.283567	0.052175	0.173873
C61	C	-0.216436	-0.508916	-0.326125
C62	C	0.283564	-0.008916	0.173875
C63	C	-0.333159	-0.977905	-0.326099
C64	C	0.166841	-0.477905	0.173901
C65	C	-0.383093	-0.977915	-0.326107
C66	C	0.116907	-0.477915	0.173893
C67	C	-0.692734	-1.021387	-0.282912
C68	C	-0.192734	-0.521387	0.217088
C69	C	-0.880407	-1.021471	-0.282938
C70	C	-0.380407	-0.521471	0.217062
O71	O	-0.904669	-1.058335	-0.246186
O72	O	-0.404669	-0.558335	0.253814
N73	N	-0.903878	-0.978168	-0.326184
N74	N	-0.403878	-0.478168	0.173816
C75	C	-0.880429	-0.934844	-0.369429
C76	C	-0.380429	-0.434844	0.130571
O77	O	-0.904699	-0.898019	-0.406217
O78	O	-0.404699	-0.398019	0.093783
C79	C	-0.692757	-0.934764	-0.369405
C80	C	-0.192757	-0.434764	0.130595
C81	C	-0.669287	-0.978065	-0.326152
C82	C	-0.169287	-0.478065	0.173848
C83	C	-0.669264	-1.064685	-0.239663
C84	C	-0.169264	-0.564685	0.260337
C85	C	-0.622349	-1.064661	-0.239654
C86	C	-0.122349	-0.564661	0.260346
C87	C	-0.598903	-1.021339	-0.282894
C88	C	-0.098903	-0.521339	0.217106
C89	C	-0.622372	-0.978041	-0.326143
C90	C	-0.122372	-0.478041	0.173857
C91	C	-0.669308	-0.891444	-0.412653
C92	C	-0.169308	-0.391444	0.087347
C93	C	-0.622387	-0.891429	-0.412645
C94	C	-0.122387	-0.391429	0.087355
C95	C	-0.598918	-0.934730	-0.369392
C96	C	-0.098918	-0.434730	0.130608
C97	C	-0.552010	-0.934695	-0.369375
C98	C	-0.052010	-0.434695	0.130625
N99	N	-0.528539	-0.977998	-0.326130
N100	N	-0.028539	-0.477998	0.173870
C101	C	-0.551985	-1.021320	-0.282889
C102	C	-0.051985	-0.521320	0.217111
C103	C	-0.978959	-0.934888	-0.369437
C104	C	-0.478959	-0.434888	0.130563
C105	C	-1.025877	-0.934907	-0.369442
C106	C	-0.525877	-0.434907	0.130558
C107	C	-1.025852	-1.021534	-0.282952
C108	C	-0.525852	-0.521534	0.217048
C109	C	-0.978933	-1.021512	-0.282944
C110	C	-0.478933	-0.521512	0.217056
C111	C	-0.955488	-0.978191	-0.326191
C112	C	-0.455488	-0.478191	0.173809
C113	C	-0.453459	-1.021266	-0.282874
C114	C	0.046541	-0.521266	0.217126
C115	C	-0.406539	-1.021236	-0.282867
C116	C	0.093461	-0.521236	0.217133
C117	C	-0.406569	-0.934611	-0.369359
C118	C	0.093431	-0.434611	0.130641
C119	C	-0.453484	-0.934638	-0.369363
C120	C	0.046516	-0.434638	0.130637
C121	C	-0.476928	-0.977971	-0.326119
C122	C	0.023072	-0.477971	0.173881
O123	O	-0.527719	-0.897855	-0.406113
O124	O	-0.027719	-0.397855	0.093887
O125	O	-0.527706	-1.058150	-0.246117
O126	O	-0.027706	-0.558150	0.253883
C127	C	-0.739649	-1.021411	-0.282921
C128	C	-0.239649	-0.521411	0.217079
C129	C	-0.763118	-0.978113	-0.326170
C130	C	-0.263118	-0.478113	0.173830
C131	C	-0.739672	-0.934791	-0.369410
C132	C	-0.239672	-0.434791	0.130590
C133	C	-0.810036	-0.978132	-0.326175
C134	C	-0.310036	-0.478132	0.173825
C135	C	-0.833482	-1.021454	-0.282934
C136	C	-0.333482	-0.521454	0.217066
C137	C	-0.810011	-1.064757	-0.239689
C138	C	-0.310011	-0.564757	0.260311
C139	C	-0.763095	-1.064733	-0.239680
C140	C	-0.263095	-0.564733	0.260320
C141	C	-0.763144	-0.891488	-0.412655
C142	C	-0.263144	-0.391488	0.087345
C143	C	-0.810059	-0.891515	-0.412660
C144	C	-0.310059	-0.391515	0.087340
C145	C	-0.833505	-0.934837	-0.369420
C146	C	-0.333505	-0.434837	0.130580
C147	C	-0.099258	-0.978168	-0.326181
C148	C	0.400742	-0.478168	0.173819
C149	C	-0.049323	-0.978228	-0.326202
C150	C	0.450677	-0.478228	0.173798
C151	C	-0.216408	-0.978065	-0.502675
C152	C	0.283592	-0.478065	-0.002675
C153	C	-0.216396	-0.978081	-0.577907
C154	C	0.283604	-0.478081	-0.077907
C155	C	-0.216444	-0.154570	-0.326153
C156	C	0.283556	0.345430	0.173847
C157	C	-0.216440	-0.229802	-0.326145
C158	C	0.283560	0.270198	0.173855
C159	C	-0.187664	-1.021407	-0.613271
C160	C	0.312336	-0.521407	-0.113271
C161	C	-0.187650	-1.021414	-0.683960
C162	C	0.312350	-0.521414	-0.183960
C163	C	-0.216372	-0.978098	-0.719283
C164	C	0.283628	-0.478098	-0.219283
C165	C	-0.245106	-0.934767	-0.683914
C166	C	0.254894	-0.434767	-0.183914
C167	C	-0.245116	-0.934757	-0.613227
C168	C	0.254884	-0.434757	-0.113227
C169	C	-0.245064	-0.934806	-0.968988
C170	C	0.254936	-0.434806	-0.468988
C171	C	-0.245052	-0.934820	-1.039680
C172	C	0.254948	-0.434820	-0.539680
C173	C	-0.187598	-1.021462	-1.039720
C174	C	0.312402	-0.521462	-0.539720
C175	C	-0.187609	-1.021453	-0.969033
C176	C	0.312391	-0.521453	-0.469033
C177	C	-0.216340	-0.978120	-0.933670
C178	C	0.283660	-0.478120	-0.433670
C179	C	-0.216353	-0.978112	-0.857022
C180	C	0.283647	-0.478112	-0.357022
C181	C	-0.216362	-0.978109	-0.795930
C182	C	0.283638	-0.478109	-0.295930
C183	C	-0.216432	-0.978028	-0.150277
C184	C	0.283568	-0.478028	0.349723
C185	C	-0.216317	-0.978143	-0.075045
C186	C	0.283683	-0.478143	0.424955
H187	H	-0.164230	-0.720390	-0.247728
H188	H	0.335770	-0.220390	0.252272
O189	O	-0.383811	-1.063366	-0.240828
O190	O	0.116189	-0.563366	0.259172
C191	C	-0.414570	-1.101596	-0.202656
C192	C	0.085430	-0.601596	0.297344
H193	H	-0.448001	-1.103937	-0.230391
H194	H	0.051999	-0.603937	0.269609
H195	H	-0.400983	-1.154923	-0.195484
H196	H	0.099017	-0.654923	0.304516
H197	H	-0.419600	-1.076843	-0.151228
H198	H	0.080400	-0.576843	0.348772
O199	O	-0.476281	-1.063268	-0.240841
O200	O	0.023719	-0.563268	0.259159
C201	C	-0.503461	-1.024782	-0.197078
C202	C	-0.003461	-0.524782	0.302922
H203	H	-0.510517	-0.973475	-0.220894
H204	H	-0.010517	-0.473475	0.279106
H205	H	-0.536437	-1.052379	-0.188046
H206	H	-0.036437	-0.552379	0.311954
H207	H	-0.485407	-1.017372	-0.146905
H208	H	0.014593	-0.517372	0.353095
O209	O	-0.159771	-0.230724	-0.240980
O210	O	0.340229	0.269276	0.259020
C211	C	-0.165941	-0.160754	-0.250257
C212	C	0.334059	0.339246	0.249743
H213	H	-0.200630	-0.151082	-0.272335
H214	H	0.299370	0.348918	0.227665
H215	H	-0.162857	-0.133873	-0.199565
H216	H	0.337143	0.366127	0.300435
H217	H	-0.139325	-0.140727	-0.286369
H218	H	0.360675	0.359273	0.213631
O219	O	-0.159703	-0.370076	-0.240895
O220	O	0.340297	0.129924	0.259105
C221	C	-0.134306	-0.323727	-0.202777
C222	C	0.365694	0.176273	0.297223
H223	H	-0.152711	-0.273323	-0.200382
H224	H	0.347289	0.226677	0.299618
H225	H	-0.129461	-0.344133	-0.149462
H226	H	0.370539	0.155867	0.350538
H227	H	-0.100210	-0.316248	-0.227663
H228	H	0.399790	0.183752	0.272337
O229	O	-0.740350	-1.106766	-0.197573
O230	O	-0.240350	-0.606766	0.302427
C231	C	-0.751848	-1.092008	-0.130102
C232	C	-0.251848	-0.592008	0.369898
H233	H	-0.785929	-1.065997	-0.128684
H234	H	-0.285929	-0.565997	0.371316
H235	H	-0.753440	-1.140876	-0.099801
H236	H	-0.253440	-0.640876	0.400199
H237	H	-0.725473	-1.057217	-0.107261
H238	H	-0.225473	-0.557217	0.392739
O239	O	-0.159621	-1.063519	-1.073998
O240	O	0.340379	-0.563519	-0.573998
C241	C	-0.114847	-1.048769	-1.056749
C242	C	0.385153	-0.548769	-0.556749
H243	H	-0.113924	-1.022743	-1.005420
H244	H	0.386076	-0.522743	-0.505420
H245	H	-0.094707	-1.097643	-1.054348
H246	H	0.405293	-0.597643	-0.554348
H247	H	-0.099704	-1.013996	-1.096530
H248	H	0.400296	-0.513996	-0.596530
H249	H	-0.164236	-0.592145	-0.247738
H250	H	0.335764	-0.092145	0.252262
H251	H	-1.044950	-1.056809	-0.247744
H252	H	-0.544950	-0.556809	0.252256
O253	O	-0.599624	-1.106795	-0.197623
O254	O	-0.099624	-0.606795	0.302377
C255	C	-0.630387	-1.145022	-0.159456
C256	C	-0.130387	-0.645022	0.340544
H257	H	-0.663818	-1.147351	-0.187191
H258	H	-0.163818	-0.647351	0.312809
H259	H	-0.616805	-1.198353	-0.152291
H260	H	-0.116805	-0.698353	0.347709
H261	H	-0.635413	-1.120274	-0.108025
H262	H	-0.135413	-0.620274	0.391975
O263	O	-0.692041	-1.106882	-0.197773
O264	O	-0.192041	-0.606882	0.302227
C265	C	-0.719126	-1.150582	-0.236375
C266	C	-0.219126	-0.650582	0.263625
H267	H	-0.704970	-1.154665	-0.289695
H268	H	-0.204970	-0.654665	0.210305
H269	H	-0.719599	-1.202705	-0.211985
H270	H	-0.219599	-0.702705	0.288015
H271	H	-0.754709	-1.129713	-0.238661
H272	H	-0.254709	-0.629713	0.261339
H273	H	-0.959827	-1.056771	-0.247724
H274	H	-0.459827	-0.556771	0.252276
H275	H	-0.164276	-1.056683	-0.584516
H276	H	0.335724	-0.556683	-0.084516
H277	H	-0.268442	-0.899544	-1.068438
H278	H	0.231558	-0.399544	-0.568438
O279	O	-1.048603	-0.892817	-0.411516
O280	O	-0.548603	-0.392817	0.088484
C281	C	-1.017842	-0.854568	-0.449666
C282	C	-0.517842	-0.354568	0.050334
H283	H	-0.984379	-0.882280	-0.452027
H284	H	-0.484379	-0.382280	0.047973
H285	H	-1.031378	-0.847322	-0.502991
H286	H	-0.531378	-0.347322	-0.002991
H287	H	-1.012894	-0.803176	-0.424830
H288	H	-0.512894	-0.303176	0.075170
O289	O	-0.272908	-0.892647	-0.934605
O290	O	0.227092	-0.392647	-0.434605
C291	C	-0.247330	-0.848969	-0.893709
C292	C	0.252670	-0.348969	-0.393709
H293	H	-0.211945	-0.844835	-0.915032
H294	H	0.288055	-0.344835	-0.415032
H295	H	-0.263574	-0.796860	-0.892883
H296	H	0.236426	-0.296860	-0.392883
H297	H	-0.245788	-0.869893	-0.840143
H298	H	0.254212	-0.369893	-0.340143
O299	O	-0.956138	-0.892766	-0.411352
O300	O	-0.456138	-0.392766	0.088648
C301	C	-0.929051	-0.849048	-0.372771
C302	C	-0.429051	-0.349048	0.127229
H303	H	-0.922022	-0.872950	-0.321502
H304	H	-0.422022	-0.372950	0.178498
H305	H	-0.896056	-0.839939	-0.400332
H306	H	-0.396056	-0.339939	0.099668
H307	H	-0.947172	-0.798905	-0.365282
H308	H	-0.447172	-0.298905	0.134718
H309	H	-0.688408	-0.856180	-0.447871
H310	H	-0.188408	-0.356180	0.052129
O311	O	-0.273069	-0.892723	-0.718152
O312	O	0.226931	-0.392723	-0.218152
C313	C	-0.317848	-0.907469	-0.700874
C314	C	0.182152	-0.407469	-0.200874
H315	H	-0.318788	-0.933478	-0.649555
H316	H	0.181212	-0.433478	-0.149555
H317	H	-0.337990	-0.858595	-0.698437
H318	H	0.162010	-0.358595	-0.198437
H319	H	-0.332976	-0.942256	-0.740657
H320	H	0.167024	-0.442256	-0.240657
O321	O	-0.273161	-0.725805	-0.411351
O322	O	0.226839	-0.225805	0.088649
C323	C	-0.298560	-0.679440	-0.449478
C324	C	0.201440	-0.179440	0.050522
H325	H	-0.280162	-0.629072	-0.451873
H326	H	0.219838	-0.129072	0.048127
H327	H	-0.303397	-0.699880	-0.502793
H328	H	0.196603	-0.199880	-0.002793
H329	H	-0.332659	-0.671878	-0.424600
H330	H	0.167341	-0.171878	0.075400
O331	O	-0.273087	-0.586532	-0.411368
O332	O	0.226913	-0.086532	0.088632
C333	C	-0.247554	-0.545676	-0.455154
C334	C	0.252446	-0.045676	0.044846
H335	H	-0.212174	-0.567012	-0.459436
H336	H	0.287826	-0.067012	0.040564
H337	H	-0.263852	-0.544887	-0.507196
H338	H	0.236148	-0.044887	-0.007196
H339	H	-0.245991	-0.492094	-0.434240
H340	H	0.254009	0.007906	0.065760
O341	O	-0.599682	-0.849284	-0.454680
O342	O	-0.099682	-0.349284	0.045320
C343	C	-0.630462	-0.811088	-0.492867
C344	C	-0.130462	-0.311088	0.007133
H345	H	-0.663918	-0.808775	-0.465143
H346	H	-0.163918	-0.308775	0.034857
H347	H	-0.616940	-0.757750	-0.500042
H348	H	-0.116940	-0.257750	-0.000042
H349	H	-0.635416	-0.835853	-0.544293
H350	H	-0.135416	-0.335853	-0.044293
H351	H	-0.472594	-0.899381	-0.404586
H352	H	0.027406	-0.399381	0.095414
O353	O	-0.383766	-0.892631	-0.411434
O354	O	0.116234	-0.392631	0.088566
C355	C	-0.356577	-0.931141	-0.455162
C356	C	0.143423	-0.431141	0.044838
H357	H	-0.370685	-0.984450	-0.459391
H358	H	0.129315	-0.484450	0.040609
H359	H	-0.356032	-0.906637	-0.507231
H360	H	0.143968	-0.406637	-0.007231
H361	H	-0.321027	-0.933476	-0.434225
H362	H	0.178973	-0.433476	0.065775
O363	O	-0.832805	-1.106929	-0.197791
O364	O	-0.332805	-0.606929	0.302209
C365	C	-0.859898	-1.150616	-0.236395
C366	C	-0.359898	-0.650616	0.263605
H367	H	-0.845730	-1.154733	-0.289704
H368	H	-0.345730	-0.654733	0.210296
H369	H	-0.860401	-1.202730	-0.211986
H370	H	-0.360401	-0.702730	0.288014
H371	H	-0.895472	-1.129714	-0.238709
H372	H	-0.395472	-0.629714	0.261291
O373	O	-0.832785	-0.849426	-0.454743
O374	O	-0.332785	-0.349426	0.045257
C375	C	-0.802024	-0.811177	-0.492891
C376	C	-0.302024	-0.311177	0.007109
H377	H	-0.768560	-0.838885	-0.495245
H378	H	-0.268560	-0.338885	0.004755
H379	H	-0.815557	-0.803936	-0.546219
H380	H	-0.315557	-0.303936	-0.046219
H381	H	-0.797081	-0.759781	-0.468059
H382	H	-0.297081	-0.259781	0.031941
O383	O	-0.273050	-0.892769	-0.578794
O384	O	0.226950	-0.392769	-0.078794
C385	C	-0.302080	-0.931269	-0.537914
C386	C	0.197920	-0.431269	-0.037914
H387	H	-0.286239	-0.982581	-0.527349
H388	H	0.213761	-0.482581	-0.027349
H389	H	-0.308104	-0.903689	-0.488195
H390	H	0.191896	-0.403689	0.011805
H391	H	-0.335370	-0.938668	-0.565140
H392	H	0.164630	-0.438668	-0.065140
H393	H	-0.268635	-0.364592	-0.404520
H394	H	0.231365	0.135408	0.095480
H395	H	-0.744057	-0.856211	-0.447868
H396	H	-0.244057	-0.356211	0.052132
O397	O	-0.159727	-1.063568	-0.718207
O398	O	0.340273	-0.563568	-0.218207
C399	C	-0.134374	-1.101789	-0.671872
C400	C	0.365626	-0.601789	-0.171872
H401	H	-0.152784	-1.104101	-0.621477
H402	H	0.347216	-0.604101	-0.121477
H403	H	-0.129585	-1.155127	-0.692310
H404	H	0.370415	-0.655127	-0.192310
H405	H	-0.100252	-1.077048	-0.664362
H406	H	0.399748	-0.577048	-0.164362
O407	O	-0.159744	-1.063498	-0.934616
O408	O	0.340256	-0.563498	-0.434616
C409	C	-0.165903	-1.054181	-0.864642
C410	C	0.334097	-0.554181	-0.364642
H411	H	-0.200577	-1.031985	-0.854965
H412	H	0.299423	-0.531985	-0.354965
H413	H	-0.162850	-1.104874	-0.837783
H414	H	0.337150	-0.604874	-0.337783
H415	H	-0.139262	-1.018150	-0.844596
H416	H	0.360738	-0.518150	-0.344596
O417	O	-0.273116	-0.230693	-0.411301
O418	O	0.226884	0.269307	0.088699
C419	C	-0.266958	-0.160726	-0.402034
C420	C	0.233042	0.339274	0.097966
H421	H	-0.232268	-0.151094	-0.379966
H422	H	0.267732	0.348906	0.120034
H423	H	-0.270052	-0.133882	-0.452727
H424	H	0.229948	0.366118	0.047273
H425	H	-0.293574	-0.140623	-0.365917
H426	H	0.206426	0.359377	0.134083
