data_functionalizedCrystal
_audit_creation_method	'MofGen! by Chris Wilmer'
_symmetry_space_group_name_H-M	'P1'
_symmetry_Int_Tables_number	1
_symmetry_cell_setting	triclinic
loop_
_symmetry_equiv_pos_as_xyz
  x,y,z
_cell_length_a	19.188920
_cell_length_b	14.044191
_cell_length_c	13.101039
_cell_angle_alpha	86.337551
_cell_angle_beta	86.659607
_cell_angle_gamma	91.833321
loop_
_atom_site_label
_atom_site_type_symbol
_atom_site_fract_x
_atom_site_fract_y
_atom_site_fract_z
O1	O	-0.164779	1.262233	-0.085209
O2	O	-0.158701	0.986290	-0.085220
O3	O	-0.060600	1.132226	-0.085180
O4	O	-0.262880	1.116296	-0.085249
O5	O	-0.067651	1.121755	0.085247
O6	O	-0.165752	0.975819	0.085207
O7	O	-0.171830	1.251762	0.085218
Zn8	Zn	-0.169911	1.112128	0.112272
Zn9	Zn	-0.160620	1.125924	-0.112273
O10	O	-0.269932	1.105826	0.085178
C11	C	-0.159568	0.945751	-0.000008
C12	C	-0.151637	0.840558	-0.000010
C13	C	-0.193385	0.590097	-0.000014
C14	C	-0.137149	0.647961	0.000003
C15	C	-0.145212	0.755132	-0.000004
C16	C	-0.185323	0.482916	-0.000007
C17	C	-0.038081	1.126476	0.000040
C18	C	0.039523	1.124929	0.000059
C19	C	0.596428	1.200206	0.000191
C20	C	0.523511	1.201667	0.000180
C21	C	0.484105	1.116036	0.000165
C22	C	0.517620	1.028935	0.000187
C23	C	0.590536	1.027476	0.000208
N24	N	0.369828	1.057607	-0.057879
N25	N	0.300561	1.058999	-0.057902
C26	C	0.264415	1.120426	0.000103
N27	N	0.300152	1.180425	0.058119
N28	N	0.369425	1.179036	0.058136
C29	C	0.405040	1.117608	0.000142
C30	C	0.151843	1.209105	0.000077
C31	C	0.078924	1.210561	0.000073
C32	C	0.073035	1.037828	0.000069
C33	C	0.145952	1.036373	0.000084
C34	C	0.185352	1.122014	0.000083
C35	C	0.707547	1.111575	0.000026
C36	C	0.629936	1.113118	0.000207
N37	N	-0.176251	1.102720	0.265517
C38	C	-0.170963	1.292301	0.000003
C39	C	-0.178894	1.397494	-0.000001
N40	N	-0.154275	1.135340	-0.265519
C41	C	-0.184884	1.089919	0.474557
C42	C	-0.145644	1.148137	0.525448
C43	C	-0.150447	1.141015	0.641765
C44	C	-0.180082	1.097040	0.358230
H45	H	-0.082946	0.617015	-0.000051
O46	O	-0.229280	1.024000	0.526625
C47	C	-0.315165	0.896680	0.515588
C48	C	-0.264905	0.971271	0.456477
H49	H	-0.343992	0.854042	0.458899
H50	H	-0.284193	0.846299	0.565806
H51	H	-0.354557	0.934530	0.565832
H52	H	-0.225503	0.933502	0.406177
H53	H	-0.295924	1.021647	0.406325
O54	O	0.190159	1.292276	-0.000092
C55	C	0.279582	1.396268	-0.088329
C56	C	0.236227	1.302062	-0.088278
H57	H	0.316849	1.404201	-0.159609
H58	H	0.243141	1.458808	-0.088397
H59	H	0.310887	1.395504	-0.016965
H60	H	0.204918	1.302732	-0.159630
H61	H	0.272705	1.239563	-0.088156
O62	O	0.046260	1.295078	0.000100
C63	C	-0.063456	1.373883	0.000002
C64	C	-0.026554	1.278099	-0.000003
H65	H	-0.122331	1.360190	-0.000103
H66	H	-0.050666	1.411828	0.071340
H67	H	-0.044678	1.420553	-0.071307
H68	H	-0.045311	1.231355	0.071258
H69	H	-0.039342	1.240229	-0.071388
O70	O	-0.258064	0.626955	0.000134
C71	C	-0.371495	0.632232	0.088334
C72	C	-0.298269	0.590423	0.088312
H73	H	-0.404026	0.602698	0.159607
H74	H	-0.366604	0.713342	0.088395
H75	H	-0.398082	0.611558	0.016964
H76	H	-0.271641	0.611025	0.159670
H77	H	-0.303207	0.509321	0.088198
H78	H	-0.108442	1.203328	0.481661
H79	H	0.628503	1.269942	0.000196
H80	H	0.173234	0.965457	0.000089
O81	O	0.491066	1.286355	0.000107
C82	C	0.504596	1.457525	0.000134
C83	C	0.541427	1.361686	0.000199
H84	H	0.545295	1.518454	0.000231
H85	H	0.473582	1.466954	-0.071222
H86	H	0.467632	1.458108	0.071425
H87	H	0.578424	1.361036	-0.071043
H88	H	0.572397	1.352295	0.071602
H89	H	0.485531	0.959214	0.000177
H90	H	0.617816	0.956556	0.000223
H91	H	0.040950	0.968105	0.000065
