data_functionalizedCrystal
_audit_creation_method	'MofGen! by Chris Wilmer'
_symmetry_space_group_name_H-M	'P1'
_symmetry_Int_Tables_number	1
_symmetry_cell_setting	triclinic
loop_
_symmetry_equiv_pos_as_xyz
  x,y,z
_cell_length_a	23.532407
_cell_length_b	14.044190
_cell_length_c	13.101039
_cell_angle_alpha	93.663707
_cell_angle_beta	86.668910
_cell_angle_gamma	88.020228
loop_
_atom_site_label
_atom_site_type_symbol
_atom_site_fract_x
_atom_site_fract_y
_atom_site_fract_z
O1	O	0.764357	0.109758	-0.085096
O2	O	1.097690	0.443092	0.248237
O3	O	1.431023	0.776425	0.581571
O4	O	0.599397	0.126397	-0.085128
O5	O	0.932730	0.459731	0.248206
O6	O	1.266063	0.793064	0.581539
O7	O	0.679398	-0.019883	-0.085092
O8	O	1.012731	0.313451	0.248241
O9	O	1.346064	0.646784	0.581575
O10	O	0.684355	0.256038	-0.085131
O11	O	1.017689	0.589371	0.248202
O12	O	1.351022	0.922705	0.581535
O13	O	0.673659	-0.009370	0.085335
O14	O	1.006992	0.323964	0.418669
O15	O	1.340325	0.657297	0.752002
O16	O	0.593657	0.136910	0.085300
O17	O	0.926991	0.470243	0.418633
O18	O	1.260324	0.803577	0.751966
O19	O	0.758617	0.120271	0.085331
O20	O	1.091951	0.453604	0.418665
O21	O	1.425284	0.786938	0.751998
Zn22	Zn	0.675226	0.130260	0.112375
Zn23	Zn	1.008560	0.463593	0.445708
Zn24	Zn	1.341893	0.796926	0.779041
Zn25	Zn	0.682788	0.116409	-0.112171
Zn26	Zn	1.016121	0.449742	0.221163
Zn27	Zn	1.349454	0.783075	0.554496
O28	O	0.678616	0.266551	0.085296
O29	O	1.011950	0.599884	0.418629
O30	O	1.345283	0.933217	0.751963
C31	C	0.575288	0.131230	0.000082
C32	C	0.908621	0.464563	0.333416
C33	C	1.241955	0.797896	0.666749
C34	C	0.512002	0.129955	0.000071
C35	C	0.845336	0.463288	0.333404
C36	C	1.178669	0.796622	0.666738
C37	C	0.674360	-0.049920	0.000124
C38	C	1.007693	0.283413	0.333457
C39	C	1.341027	0.616747	0.666791
C40	C	0.667892	-0.155085	0.000132
C41	C	1.001225	0.178249	0.333465
C42	C	1.334559	0.511582	0.666799
C43	C	0.701938	-0.405694	0.000098
C44	C	1.035272	-0.072360	0.333432
C45	C	1.368605	0.260973	0.666765
C46	C	0.656078	-0.347633	0.000097
C47	C	0.989412	-0.014300	0.333430
C48	C	1.322745	0.319034	0.666763
C49	C	0.662653	-0.240489	0.000116
C50	C	0.995986	0.092844	0.333450
C51	C	1.329320	0.426177	0.666783
C52	C	0.695365	-0.512847	0.000079
C53	C	1.028698	-0.179514	0.333412
C54	C	1.362031	0.153819	0.666745
C55	C	0.117158	0.208532	0.000106
C56	C	0.450491	0.541866	0.333440
C57	C	0.783825	0.875199	0.666773
C58	C	0.057694	0.207349	0.000113
C59	C	0.391027	0.540683	0.333446
C60	C	0.724360	0.874016	0.666779
O61	O	0.024897	0.280191	0.000140
O62	O	0.358231	0.613525	0.333473
O63	O	0.691564	0.946858	0.666806
N64	N	0.030352	0.120385	0.000123
N65	N	0.363685	0.453719	0.333457
N66	N	0.697019	0.787052	0.666790
C67	C	0.062478	0.034600	0.000138
C68	C	0.395812	0.367933	0.333471
C69	C	0.729145	0.701266	0.666805
O70	O	0.033762	-0.039478	0.000149
O71	O	0.367095	0.293855	0.333482
O72	O	0.700429	0.627188	0.666816
C73	C	0.121941	0.035784	0.000139
C74	C	0.455275	0.369118	0.333472
C75	C	0.788608	0.702451	0.666806
C76	C	0.149280	0.122753	0.000118
C77	C	0.482613	0.456087	0.333451
C78	C	0.815947	0.789420	0.666785
C79	C	0.144497	0.295494	0.000086
C80	C	0.477830	0.628828	0.333420
C81	C	0.811164	0.962161	0.666753
C82	C	0.203957	0.296677	0.000078
C83	C	0.537291	0.630010	0.333411
C84	C	0.870624	0.963344	0.666745
C85	C	0.236079	0.210898	0.000090
C86	C	0.569413	0.544231	0.333423
C87	C	0.902746	0.877564	0.666756
C88	C	0.208741	0.123936	0.000110
C89	C	0.542074	0.457269	0.333443
C90	C	0.875407	0.790602	0.666776
C91	C	0.154066	-0.050000	0.000161
C92	C	0.487399	0.283333	0.333494
C93	C	0.820733	0.616667	0.666828
C94	C	0.213533	-0.048808	0.000163
C95	C	0.546867	0.284526	0.333496
C96	C	0.880200	0.617859	0.666829
C97	C	0.240872	0.038161	0.000142
C98	C	0.574205	0.371494	0.333475
C99	C	0.907538	0.704828	0.666808
C100	C	0.300323	0.039339	0.000113
C101	C	0.633656	0.372672	0.333446
C102	C	0.966990	0.706006	0.666780
N103	N	0.327664	0.126303	0.000102
N104	N	0.660998	0.459636	0.333435
N105	N	0.994331	0.792970	0.666769
C106	C	0.295543	0.212082	0.000091
C107	C	0.628876	0.545416	0.333424
C108	C	0.962209	0.878749	0.666757
C109	C	-0.062399	0.032119	0.000138
C110	C	0.270934	0.365452	0.333471
C111	C	0.604268	0.698785	0.666805
C112	C	-0.121861	0.030933	0.000130
C113	C	0.211473	0.364266	0.333463
C114	C	0.544806	0.697599	0.666797
C115	C	-0.126641	0.203683	0.000106
C116	C	0.206692	0.537016	0.333440
C117	C	0.540025	0.870349	0.666773
C118	C	-0.067178	0.204867	0.000107
C119	C	0.266155	0.538201	0.333441
C120	C	0.599488	0.871534	0.666774
C121	C	-0.035057	0.119083	0.000127
C122	C	0.298276	0.452416	0.333461
C123	C	0.631609	0.785749	0.666794
C124	C	0.420414	0.214559	0.000072
C125	C	0.753748	0.547893	0.333405
C126	C	1.087081	0.881226	0.666739
C127	C	0.479880	0.215734	0.000060
C128	C	0.813214	0.549067	0.333393
C129	C	1.146547	0.882401	0.666726
C130	C	0.484656	0.042985	0.000088
C131	C	0.817989	0.376318	0.333422
C132	C	1.151322	0.709652	0.666755
C133	C	0.425195	0.041809	0.000096
C134	C	0.758528	0.375143	0.333429
C135	C	1.091862	0.708476	0.666762
C136	C	0.393075	0.127604	0.000091
C137	C	0.726409	0.460938	0.333424
C138	C	1.059742	0.794271	0.666758
O139	O	0.333156	-0.033464	0.000090
O140	O	0.666489	0.299869	0.333424
O141	O	0.999823	0.633202	0.666757
O142	O	0.324266	0.286149	0.000093
O143	O	0.657599	0.619482	0.333427
O144	O	0.990933	0.952816	0.666760
C145	C	0.782726	0.115438	0.000119
C146	C	1.116059	0.448772	0.333452
C147	C	1.449393	0.782105	0.666786
C148	C	0.846012	0.116713	0.000124
C149	C	1.179345	0.450046	0.333457
C150	C	1.512679	0.783379	0.666790
C151	C	0.683654	0.296588	0.000077
C152	C	1.016988	0.629921	0.333411
C153	C	1.350321	0.963255	0.666744
C154	C	0.690122	0.401752	0.000063
C155	C	1.023456	0.735086	0.333396
C156	C	1.356789	1.068419	0.666730
N157	N	0.670070	0.139712	0.265621
N158	N	1.003403	0.473045	0.598954
N159	N	1.336736	0.806378	0.932287
N160	N	0.687948	0.106949	-0.265417
N161	N	1.021282	0.440282	0.067916
N162	N	1.354615	0.773616	0.401250
C163	C	0.663055	0.152581	0.474660
C164	C	0.996388	0.485914	0.807994
C165	C	1.329721	0.819247	1.141327
C166	C	0.694962	0.094083	0.525550
C167	C	1.028295	0.427417	0.858883
C168	C	1.361628	0.760750	1.192217
C169	C	0.691058	0.101244	0.641867
C170	C	1.024392	0.434577	0.975200
C171	C	1.357725	0.767910	1.308533
C172	C	0.666957	0.145421	0.358333
C173	C	1.000291	0.478755	0.691666
C174	C	1.333624	0.812088	1.025000
H175	H	0.611879	-0.378393	0.000082
H176	H	0.945212	-0.045060	0.333416
H177	H	1.278545	0.288274	0.666749
F178	F	0.623522	0.225067	0.531890
F179	F	0.956855	0.558400	0.865223
F180	F	1.290188	0.891734	1.198556
H181	H	0.510820	-0.026854	0.000094
H182	H	0.844153	0.306479	0.333427
H183	H	1.177487	0.639812	0.666761
H184	H	-0.044923	0.275685	0.000096
H185	H	0.288410	0.609019	0.333429
H186	H	0.621743	0.942352	0.666763
H187	H	0.502137	0.286558	0.000042
H188	H	0.835470	0.619891	0.333375
H189	H	1.168803	0.953224	0.666708
F190	F	0.759707	-0.365490	0.000122
F191	F	1.093040	-0.032157	0.333455
F192	F	1.426374	0.301176	0.666788
F193	F	0.386238	0.305872	0.000068
F194	F	0.719572	0.639206	0.333401
F195	F	1.052905	0.972539	0.666735
F196	F	-0.150949	-0.061633	0.000129
F197	F	0.182384	0.271701	0.333463
F198	F	0.515717	0.605034	0.666796
H199	H	0.226211	0.367496	0.000060
H200	H	0.559544	0.700829	0.333394
H201	H	0.892878	1.034163	0.666727
H202	H	0.725210	0.038625	0.481761
H203	H	1.058543	0.371958	0.815095
H204	H	1.391877	0.705292	1.148428
F205	F	0.110319	0.386801	0.000074
F206	F	0.443652	0.720134	0.333407
F207	F	0.776986	1.053468	0.666741
H208	H	-0.152806	0.273529	0.000102
H209	H	0.180527	0.606863	0.333435
H210	H	0.513861	0.940196	0.666768
H211	H	-0.036249	-0.037743	0.000145
H212	H	0.297084	0.295591	0.333479
H213	H	0.630418	0.628924	0.666812
F214	F	0.124984	-0.142566	0.000169
F215	F	0.458317	0.190767	0.333502
F216	F	0.791651	0.524100	0.666836
H217	H	0.239683	-0.118666	0.000180
H218	H	0.573016	0.214667	0.333513
H219	H	0.906350	0.548001	0.666847
F220	F	0.396098	-0.050752	0.000119
F221	F	0.729432	0.282581	0.333452
F222	F	1.062765	0.615915	0.666785
