data_functionalizedCrystal
_audit_creation_method	'MofGen! by Chris Wilmer'
_symmetry_space_group_name_H-M	'P1'
_symmetry_Int_Tables_number	1
_symmetry_cell_setting	triclinic
loop_
_symmetry_equiv_pos_as_xyz
  x,y,z
_cell_length_a	16.992697
_cell_length_b	15.021413
_cell_length_c	16.992695
_cell_angle_alpha	90.003993
_cell_angle_beta	90.668337
_cell_angle_gamma	89.998647
loop_
_atom_site_label
_atom_site_type_symbol
_atom_site_fract_x
_atom_site_fract_y
_atom_site_fract_z
O1	O	-1.050854	0.073904	-0.166908
O2	O	-0.550854	0.573904	0.333092
O3	O	-0.822454	0.073934	-0.165077
O4	O	-0.322454	0.573934	0.334923
O5	O	-0.935739	0.073912	-0.051793
O6	O	-0.435739	0.573912	0.448207
O7	O	-0.937570	0.073926	-0.280193
O8	O	-0.437570	0.573926	0.219807
O9	O	-0.935720	-0.074152	-0.051809
O10	O	-0.435720	0.425848	0.448191
O11	O	-0.822436	-0.074130	-0.165093
O12	O	-0.322436	0.425870	0.334907
O13	O	-1.050836	-0.074160	-0.166925
O14	O	-0.550836	0.425840	0.333075
Zn15	Zn	-0.936633	-0.097654	-0.166011
Zn16	Zn	-0.436633	0.402346	0.333989
Zn17	Zn	-0.936657	0.097427	-0.165990
Zn18	Zn	-0.436657	0.597427	0.334010
O19	O	-0.937552	-0.074138	-0.280209
O20	O	-0.437552	0.425862	0.219791
C21	C	-0.793085	-0.000094	-0.162729
C22	C	-0.293085	0.499906	0.337271
C23	C	-0.705600	-0.000083	-0.155700
C24	C	-0.205600	0.499917	0.344300
N25	N	-0.936623	-0.230791	-0.166026
N26	N	-0.436623	0.269209	0.333974
C27	C	-0.659609	-0.000079	-0.223518
C28	C	-0.159609	0.499921	0.276482
C29	C	-0.577409	-0.000090	-0.216909
C30	C	-0.077409	0.499910	0.283091
C31	C	-0.541200	-0.000099	-0.142481
C32	C	-0.041200	0.499901	0.357519
C33	C	-0.587197	-0.000106	-0.074658
C34	C	-0.087197	0.499894	0.425342
C35	C	-0.669397	-0.000101	-0.081268
C36	C	-0.169397	0.499899	0.418732
C37	C	-0.295886	-0.000121	-0.115086
C38	C	0.204114	0.499879	0.384914
C39	C	-0.213681	-0.000123	-0.108481
C40	C	0.286319	0.499877	0.391519
C41	C	-0.203898	-0.000109	-0.250733
C42	C	0.296102	0.499891	0.249267
C43	C	-0.286099	-0.000098	-0.257336
C44	C	0.213901	0.499902	0.242664
C45	C	-0.332089	-0.000110	-0.189513
C46	C	0.167911	0.499890	0.310487
N47	N	-0.457178	-0.000108	-0.135724
N48	N	0.042822	0.499892	0.364276
N49	N	-0.416109	-0.000108	-0.196271
N50	N	0.083891	0.499892	0.303729
C51	C	-0.080205	-0.000126	-0.169272
C52	C	0.419795	0.499874	0.330728
C53	C	-0.167690	-0.000119	-0.176299
C54	C	0.332310	0.499881	0.323701
C55	C	-0.884230	-0.470464	-0.218381
C56	C	-0.384230	0.029536	0.281619
C57	C	-0.956318	-0.529807	-0.238117
C58	C	-0.456318	-0.029807	0.261883
C59	C	-0.936641	-0.412398	-0.166007
C60	C	-0.436641	0.087602	0.333993
C61	C	-0.864574	-0.529797	-0.146290
C62	C	-0.364574	-0.029797	0.353710
C63	C	-0.936653	-0.587822	-0.165991
C64	C	-0.436653	-0.087822	0.334009
C65	C	-1.008768	-0.470435	-0.185781
C66	C	-0.508768	0.029565	0.314219
C67	C	-0.916975	-0.470419	-0.093920
C68	C	-0.416975	0.029581	0.406080
C69	C	-0.989113	-0.529735	-0.113629
C70	C	-0.489113	-0.029735	0.386371
C71	C	-0.936634	-0.311341	-0.166019
C72	C	-0.436634	0.188659	0.333981
C73	C	-0.936669	-0.688878	-0.165979
C74	C	-0.436669	-0.188878	0.334021
C75	C	-0.933374	-0.000120	-0.022440
C76	C	-0.433374	0.499880	0.477560
C77	C	-0.926345	-0.000119	0.065044
C78	C	-0.426345	0.499881	0.565044
N79	N	-0.936674	0.230565	-0.165970
N80	N	-0.436674	0.730565	0.334030
C81	C	-0.939916	-0.000105	-0.309561
C82	C	-0.439916	0.499895	0.190439
C83	C	-0.946945	-0.000100	-0.397045
C84	C	-0.446945	0.499900	0.102955
C85	C	-0.994163	-0.000128	0.111035
C86	C	-0.494163	0.499872	0.611035
C87	C	-0.987554	-0.000119	0.193236
C88	C	-0.487554	0.499881	0.693236
C89	C	-0.913126	-0.000106	0.229444
C90	C	-0.413126	0.499894	0.729444
C91	C	-0.845303	-0.000094	0.183447
C92	C	-0.345303	0.499906	0.683447
C93	C	-0.851913	-0.000097	0.101248
C94	C	-0.351913	0.499903	0.601248
C95	C	-0.885732	-0.000091	0.474758
C96	C	-0.385732	0.499909	0.974758
C97	C	-0.879127	-0.000090	0.556964
C98	C	-0.379127	0.499910	1.056964
C99	C	-1.021379	-0.000114	0.566747
C100	C	-0.521379	0.499886	1.066747
C101	C	-1.027982	-0.000122	0.484545
C102	C	-0.527982	0.499878	0.984545
C103	C	-0.960159	-0.000105	0.438556
C104	C	-0.460159	0.499895	0.938556
N105	N	-0.906369	-0.000100	0.313466
N106	N	-0.406369	0.499900	0.813466
N107	N	-0.966917	-0.000105	0.354535
N108	N	-0.466917	0.499895	0.854535
H109	H	-0.689084	-0.000071	-0.284125
H110	H	-0.189084	0.499929	0.215875
H111	H	-1.069737	-0.444469	-0.202522
H112	H	-0.569737	0.055531	0.297478
Br113	Br	-0.538059	-0.000128	0.026352
Br114	Br	-0.038059	0.499872	0.526352
H115	H	-0.315574	-0.000081	-0.317943
H116	H	0.184426	0.499919	0.182057
Br117	Br	-1.063077	-0.572846	-0.039795
Br118	Br	-0.563077	-0.072846	0.460205
H119	H	-0.706842	-0.000104	-0.026043
H120	H	-0.206842	0.499896	0.473957
Br121	Br	-0.984064	-0.573285	-0.339713
Br122	Br	-0.484064	-0.073285	0.160287
Br123	Br	-0.810438	-0.427083	-0.292267
Br124	Br	-0.310438	0.072917	0.207733
Br125	Br	-1.113419	-0.000137	0.629165
Br126	Br	-0.613419	0.499863	1.129165
H127	H	-0.900309	-0.444313	-0.032982
H128	H	-0.400309	0.055687	0.467018
H129	H	-1.042779	-0.000129	0.230678
H130	H	-0.542779	0.499871	0.730678
Br131	Br	-1.128994	-0.000111	0.435411
Br132	Br	-0.628994	0.499889	0.935411
Br133	Br	-0.762986	-0.573264	-0.118506
Br134	Br	-0.262986	-0.073264	0.381494
H135	H	-0.166444	-0.000101	-0.305950
H136	H	0.333556	0.499899	0.194050
Br137	Br	-0.759871	-0.000076	0.038831
Br138	Br	-0.259871	0.499924	0.538831
Br139	Br	-1.095177	-0.000159	0.061903
Br140	Br	-0.595177	0.499841	0.561903
H141	H	-0.818516	-0.000094	0.586442
H142	H	-0.318516	0.499906	1.086442
H143	H	-0.830505	-0.000077	0.437323
H144	H	-0.330505	0.499923	0.937323
H145	H	-0.784703	-0.000078	0.212935
H146	H	-0.284703	0.499922	0.712935
H147	H	-0.539966	-0.000086	-0.272134
H148	H	-0.039966	0.499914	0.227866
H149	H	-0.333321	-0.000131	-0.059859
H150	H	0.166679	0.499869	0.440141
Br151	Br	-0.164541	-0.000155	-0.007466
Br152	Br	0.335459	0.499845	0.492534
