data_functionalizedCrystal
_audit_creation_method	'MofGen! by Chris Wilmer'
_symmetry_space_group_name_H-M	'P1'
_symmetry_Int_Tables_number	1
_symmetry_cell_setting	triclinic
loop_
_symmetry_equiv_pos_as_xyz
  x,y,z
_cell_length_a	19.188930
_cell_length_b	16.992695
_cell_length_c	18.266242
_cell_angle_alpha	89.995331
_cell_angle_beta	89.980496
_cell_angle_gamma	86.906501
loop_
_atom_site_label
_atom_site_type_symbol
_atom_site_fract_x
_atom_site_fract_y
_atom_site_fract_z
O1	O	-0.931873	-0.097872	0.061119
O2	O	-0.729333	-0.111047	0.061069
O3	O	-0.829791	0.009680	0.061088
O4	O	-0.831415	-0.218600	0.061100
O5	O	-0.829779	0.009683	-0.060674
O6	O	-0.729321	-0.111045	-0.060693
O7	O	-0.931861	-0.097869	-0.060643
Zn8	Zn	-0.830589	-0.104457	-0.080001
Zn9	Zn	-0.830605	-0.104460	0.080426
O10	O	-0.831403	-0.218597	-0.060662
C11	C	-0.703291	-0.110619	0.000181
C12	C	-0.625712	-0.109339	0.000162
C13	C	-0.827696	0.038887	0.000206
C14	C	-0.821463	0.125910	0.000205
C15	C	-0.957903	-0.098297	0.000246
C16	C	-1.035483	-0.099578	0.000270
C17	C	-0.584933	-0.180178	0.000177
C18	C	-0.512039	-0.178974	0.000185
C19	C	-0.479926	-0.106928	0.000193
C20	C	-0.520714	-0.036080	0.000173
C21	C	-0.593607	-0.037285	0.000158
N22	N	-0.368727	-0.051859	0.041660
N23	N	-0.299482	-0.050718	0.041676
C24	C	-0.260305	-0.103292	0.000237
N25	N	-0.292988	-0.157061	-0.041209
N26	N	-0.362239	-0.158204	-0.041222
C27	C	-0.400887	-0.105613	0.000209
C28	C	-0.140486	-0.172831	0.000260
C29	C	-0.067590	-0.171625	0.000263
C30	C	-0.076267	-0.028729	0.000259
C31	C	-0.149161	-0.029937	0.000248
C32	C	-0.181266	-0.101990	0.000252
C33	C	-0.833498	-0.247804	0.000221
C34	C	-0.839731	-0.334826	0.000227
N35	N	-0.830584	-0.104454	-0.189488
C36	C	-0.881603	0.176356	0.000219
C37	C	-0.875742	0.258123	0.000224
C38	C	-0.809741	0.289441	0.000211
C39	C	-0.749597	0.238988	0.000199
C40	C	-0.755459	0.157223	0.000198
C41	C	-0.785448	0.532955	0.000215
C42	C	-0.779591	0.614727	0.000213
C43	C	-0.905737	0.633856	0.000240
C44	C	-0.911593	0.552089	0.000235
C45	C	-0.851449	0.501643	0.000227
N46	N	-0.803749	0.373019	0.000214
N47	N	-0.857441	0.418066	0.000229
C48	C	-0.875100	-0.051013	-0.771756
C49	C	-0.875101	-0.051015	-0.695112
C50	C	-0.830605	-0.104453	-0.656800
C51	C	-0.786117	-0.157907	-0.695140
C52	C	-0.786122	-0.157909	-0.771784
N53	N	-0.769387	-0.114613	-0.536488
N54	N	-0.769384	-0.114606	-0.463680
C55	C	-0.830588	-0.104452	-0.425878
N56	N	-0.891796	-0.094289	-0.463634
N57	N	-0.891798	-0.094291	-0.536449
C58	C	-0.830595	-0.104457	-0.573693
C59	C	-0.875077	-0.051007	-0.304440
C60	C	-0.875080	-0.051014	-0.227794
C61	C	-0.786089	-0.157902	-0.227824
C62	C	-0.786093	-0.157898	-0.304469
C63	C	-0.830586	-0.104447	-0.342772
N64	N	-0.830616	-0.104457	0.189913
H65	H	-0.611068	-0.238849	0.000182
H66	H	-0.935348	0.150864	0.000226
C67	C	-0.924034	0.007796	-0.813886
N68	N	-0.960888	0.052096	-0.845619
H69	H	-0.749867	-0.201414	-0.335679
C70	C	-0.719287	0.477475	0.000210
N71	N	-0.669451	0.435684	0.000208
H72	H	-0.749862	-0.201415	-0.196631
H73	H	-0.478830	-0.236662	0.000195
H74	H	-0.911308	-0.007496	-0.196584
H75	H	-0.749897	-0.201430	-0.802993
H76	H	-0.626809	0.020402	0.000146
C77	C	-0.485389	0.043171	0.000182
N78	N	-0.458782	0.102866	0.000187
H79	H	-0.034389	-0.229313	0.000272
C80	C	-0.175803	-0.252091	0.000255
N81	N	-0.202402	-0.311790	0.000250
H82	H	-0.050122	0.029933	0.000310
C83	C	-0.194020	0.047993	0.000240
N84	N	-0.227807	0.106693	0.000233
H85	H	-0.965337	0.526596	0.000246
C86	C	-0.941901	0.313611	0.000228
N87	N	-0.991735	0.355405	0.000227
H88	H	-0.954703	0.674938	0.000248
C89	C	-0.706982	0.649174	0.000203
N90	N	-0.652296	0.675120	0.000196
C91	C	-0.676995	0.273441	0.000177
N92	N	-0.622310	0.299390	0.000156
C93	C	-0.924036	0.007783	-0.652939
N94	N	-0.960892	0.052072	-0.621178
C95	C	-0.737170	-0.216687	-0.652996
N96	N	-0.700303	-0.260964	-0.621253
H97	H	-0.706486	0.116149	0.000187
H98	H	-0.911309	-0.007486	-0.335628
