data_functionalizedCrystal
_audit_creation_method	'MofGen! by Chris Wilmer'
_symmetry_space_group_name_H-M	'P1'
_symmetry_Int_Tables_number	1
_symmetry_cell_setting	triclinic
loop_
_symmetry_equiv_pos_as_xyz
  x,y,z
_cell_length_a	18.050591
_cell_length_b	13.033615
_cell_length_c	13.032268
_cell_angle_alpha	89.080892
_cell_angle_beta	97.156847
_cell_angle_gamma	97.180064
loop_
_atom_site_label
_atom_site_type_symbol
_atom_site_fract_x
_atom_site_fract_y
_atom_site_fract_z
Zn1	Zn	1.043996	-0.483379	-0.529669
Zn2	Zn	1.047885	-0.633546	-0.335872
Zn3	Zn	0.937298	-0.461575	-0.357695
Zn4	Zn	0.906270	-0.655290	-0.507778
O5	O	0.983862	-0.558447	-0.432754
O6	O	1.148432	-0.503324	-0.503990
O7	O	1.047827	-0.592508	-0.194852
O8	O	0.962809	-0.320551	-0.398803
O9	O	1.151289	-0.613651	-0.361608
O10	O	1.041200	-0.336570	-0.525151
O11	O	0.966579	-0.466162	-0.210886
O12	O	0.829262	-0.487247	-0.377576
O13	O	0.909928	-0.650711	-0.654597
O14	O	0.806466	-0.629568	-0.487841
O15	O	1.011115	-0.524408	-0.670680
O16	O	1.017741	-0.780346	-0.340381
O17	O	0.913698	-0.796322	-0.466680
C18	C	0.790919	-0.558402	-0.432702
C19	C	0.708372	-0.558410	-0.432701
C20	C	1.005032	-0.290202	-0.466853
C21	C	1.014054	-0.175891	-0.481385
C22	C	0.962793	-0.825653	-0.398809
C23	C	0.953843	-0.939969	-0.384322
C24	C	0.521287	-0.480956	-0.372907
C25	C	0.467073	-0.571551	-0.335696
C26	C	0.557235	-0.558447	-0.432743
C27	C	0.464364	-0.467885	-0.469948
C28	C	0.411244	-0.558475	-0.432783
C29	C	0.504110	-0.649085	-0.395477
C30	C	0.501406	-0.545362	-0.529780
C31	C	0.447206	-0.636026	-0.492597
C32	C	0.641337	-0.558430	-0.432718
C33	C	0.327143	-0.558503	-0.432808
C34	C	1.177559	-0.558494	-0.432806
C35	C	1.260101	-0.558514	-0.432829
C36	C	0.956627	-0.592417	-0.700997
C37	C	0.945020	-0.606893	-0.815307
C38	C	0.979289	-0.117002	-0.425348
C39	C	0.988612	0.001144	-0.440366
C40	C	0.989911	-0.550855	-0.874227
C41	C	0.977917	-0.565816	-0.992372
C42	C	1.011041	-0.524535	-0.165563
C43	C	1.022813	-0.509770	-0.051291
H44	H	0.451742	-0.582639	-0.253649
N45	N	1.085494	-0.431549	-1.002267
H46	H	1.113804	-0.396209	-1.057821
H47	H	1.063517	-0.378342	-0.963736
H48	H	0.917170	0.022987	-0.325231
N49	N	0.930722	-0.166064	-0.347068
H50	H	0.930948	-0.243509	-0.347434
H51	H	0.951211	-0.138039	-0.275988
N52	N	1.037177	0.050201	-0.518656
H53	H	1.036952	0.127646	-0.518290
H54	H	1.090374	0.033495	-0.500305
N55	N	1.062616	-0.126830	-0.559671
H56	H	1.062390	-0.049385	-0.559305
H57	H	1.115812	-0.143536	-0.541319
N58	N	0.882337	-0.685102	-0.864335
H59	H	0.882650	-0.684698	-0.941785
H60	H	0.889978	-0.756206	-0.836284
N61	N	0.521742	-0.530644	-0.638436
H62	H	0.507462	-0.462166	-0.666471
H63	H	0.577686	-0.531478	-0.637608
N64	N	0.441032	-0.366425	-0.511614
H65	H	0.403318	-0.379597	-0.575493
H66	H	0.417500	-0.331653	-0.457309
N67	N	1.052599	-0.472654	-0.825198
H68	H	1.052290	-0.473064	-0.747748
H69	H	1.102475	-0.491059	-0.841912
N70	N	0.915230	-0.644029	-1.041395
H71	H	0.915543	-0.643624	-1.118846
H72	H	0.922871	-0.715132	-1.013345
H73	H	0.415213	-0.701636	-0.543207
N74	N	0.563845	-0.394225	-0.305795
H75	H	0.551551	-0.404262	-0.232509
H76	H	0.619672	-0.394471	-0.306862
H77	H	0.521641	-0.725696	-0.363936
