data_functionalizedCrystal
_audit_creation_method	'MofGen! by Chris Wilmer'
_symmetry_space_group_name_H-M	'P1'
_symmetry_Int_Tables_number	1
_symmetry_cell_setting	triclinic
loop_
_symmetry_equiv_pos_as_xyz
  x,y,z
_cell_length_a	12.759401
_cell_length_b	18.050590
_cell_length_c	12.759393
_cell_angle_alpha	90.034679
_cell_angle_beta	90.019676
_cell_angle_gamma	90.018979
loop_
_atom_site_label
_atom_site_type_symbol
_atom_site_fract_x
_atom_site_fract_y
_atom_site_fract_z
Zn1	Zn	1.606238	-0.295615	0.593954
Zn2	Zn	1.939572	0.037718	0.927288
Zn3	Zn	2.272905	0.371052	1.260621
Zn4	Zn	1.606117	-0.419823	0.418261
Zn5	Zn	1.939451	-0.086490	0.751595
Zn6	Zn	2.272784	0.246844	1.084928
Zn7	Zn	1.430537	-0.295652	0.418293
Zn8	Zn	1.763870	0.037681	0.751627
Zn9	Zn	2.097204	0.371014	1.084960
Zn10	Zn	1.430517	-0.419769	0.593903
Zn11	Zn	1.763850	-0.086435	0.927236
Zn12	Zn	2.097184	0.246898	1.260569
O13	O	1.518352	-0.357715	0.506103
O14	O	1.851686	-0.024381	0.839436
O15	O	2.185019	0.308952	1.172770
O16	O	1.753243	-0.312099	0.570656
O17	O	2.086577	0.021235	0.903990
O18	O	2.419910	0.354568	1.237323
O19	O	1.582784	-0.403390	0.271245
O20	O	1.916118	-0.070056	0.604578
O21	O	2.249451	0.263277	0.937911
O22	O	1.453903	-0.191723	0.441630
O23	O	1.787236	0.141611	0.774963
O24	O	2.120570	0.474944	1.108297
O25	O	1.753155	-0.403354	0.441576
O26	O	2.086488	-0.070020	0.774909
O27	O	2.419821	0.263313	1.108242
O28	O	1.582990	-0.191695	0.570687
O29	O	1.916323	0.141638	0.904021
O30	O	2.249657	0.474971	1.237354
O31	O	1.453786	-0.312162	0.271268
O32	O	1.787119	0.021171	0.604601
O33	O	2.120453	0.354505	0.937935
O34	O	1.283513	-0.312109	0.441580
O35	O	1.616847	0.021224	0.774913
O36	O	1.950180	0.354557	1.108247
O37	O	1.453869	-0.403261	0.740931
O38	O	1.787202	-0.069928	1.074264
O39	O	2.120536	0.263405	1.407597
O40	O	1.283499	-0.403297	0.570599
O41	O	1.616832	-0.069964	0.903933
O42	O	1.950165	0.263369	1.237266
O43	O	1.582971	-0.312046	0.740968
O44	O	1.916304	0.021287	1.074302
O45	O	2.249637	0.354621	1.407635
O46	O	1.582765	-0.523740	0.441526
O47	O	1.916098	-0.190407	0.774859
O48	O	2.249432	0.142926	1.108192
O49	O	1.453752	-0.523700	0.570568
O50	O	1.787085	-0.190367	0.903902
O51	O	2.120419	0.142966	1.237235
C52	C	1.245385	-0.357702	0.506088
C53	C	1.578718	-0.024369	0.839421
C54	C	1.912052	0.308965	1.172755
C55	C	1.128608	-0.357714	0.506107
C56	C	1.461942	-0.024381	0.839440
C57	C	1.795275	0.308952	1.172773
C58	C	1.073793	-0.310284	0.573423
C59	C	1.407127	0.023050	0.906756
C60	C	1.740460	0.356383	1.240089
C61	C	0.964069	-0.310291	0.573429
C62	C	1.297403	0.023042	0.906763
C63	C	1.630736	0.356375	1.240096
C64	C	0.963985	-0.405166	0.438802
C65	C	1.297318	-0.071833	0.772135
C66	C	1.630652	0.261500	1.105468
C67	C	1.073707	-0.405155	0.438790
C68	C	1.407041	-0.071821	0.772124
C69	C	1.740374	0.261512	1.105457
C70	C	1.518272	-0.550667	0.506061
C71	C	1.851605	-0.217334	0.839394
C72	C	2.184938	0.116000	1.172728
C73	C	1.518333	-0.633213	0.506078
C74	C	1.851667	-0.299879	0.839412
C75	C	2.185000	0.033454	1.172745
C76	C	1.588636	-0.832658	0.436003
C77	C	1.921970	-0.499325	0.769336
C78	C	2.255303	-0.165991	1.102669
C79	C	1.614306	-0.881983	0.531889
C80	C	1.947639	-0.548650	0.865223
C81	C	2.280972	-0.215316	1.198556
C82	C	1.518393	-0.784343	0.506120
C83	C	1.851726	-0.451010	0.839453
C84	C	2.185060	-0.117676	1.172787
C85	C	1.492831	-0.882100	0.410277
C86	C	1.826164	-0.548766	0.743610
C87	C	2.159497	-0.215433	1.076943
C88	C	1.518452	-0.930328	0.506152
C89	C	1.851786	-0.596995	0.839485
C90	C	2.185119	-0.263661	1.172819
C91	C	1.544111	-0.832581	0.602057
C92	C	1.877445	-0.499247	0.935390
C93	C	2.210778	-0.165914	1.268724
C94	C	1.422592	-0.832693	0.480380
C95	C	1.755925	-0.499360	0.813713
C96	C	2.089258	-0.166026	1.147046
C97	C	1.448224	-0.881996	0.576332
C98	C	1.781558	-0.548662	0.909666
C99	C	2.114891	-0.215329	1.242999
C100	C	1.518361	-0.700245	0.506100
C101	C	1.851695	-0.366911	0.839434
C102	C	2.185028	-0.033578	1.172767
C103	C	1.518484	-1.014425	0.506183
C104	C	1.851817	-0.681091	0.839516
C105	C	2.185151	-0.347758	1.172849
C106	C	1.792386	-0.357728	0.506118
C107	C	2.125719	-0.024395	0.839452
C108	C	2.459052	0.308939	1.172785
C109	C	1.909162	-0.357734	0.506125
C110	C	2.242496	-0.024400	0.839458
C111	C	2.575829	0.308933	1.172792
C112	C	1.518431	-0.357643	0.780136
C113	C	1.851764	-0.024310	1.113470
C114	C	2.185098	0.309023	1.446803
C115	C	1.518465	-0.357613	0.896913
C116	C	1.851798	-0.024280	1.230246
C117	C	2.185131	0.309054	1.563580
C118	C	1.518462	-0.164009	0.506168
C119	C	1.851795	0.169324	0.839501
C120	C	2.185129	0.502658	1.172835
C121	C	1.518509	-0.081463	0.506196
C122	C	1.851842	0.251870	0.839529
C123	C	2.185176	0.585203	1.172862
C124	C	1.518335	-0.357732	0.233135
C125	C	1.851668	-0.024399	0.566469
C126	C	2.185001	0.308935	0.899802
C127	C	1.518505	-0.357553	0.116359
C128	C	1.851838	-0.024220	0.449693
C129	C	2.185171	0.309113	0.783026
C130	C	1.585693	-0.310110	0.951796
C131	C	1.919026	0.023224	1.285130
C132	C	2.252359	0.356557	1.618463
C133	C	1.585711	-0.310078	1.061521
C134	C	1.919044	0.023256	1.394854
C135	C	2.252377	0.356589	1.728187
C136	C	1.451269	-0.405059	1.061468
C137	C	1.784602	-0.071725	1.394802
C138	C	2.117936	0.261608	1.728135
C139	C	1.451247	-0.405086	0.951746
C140	C	1.784580	-0.071753	1.285079
C141	C	2.117913	0.261580	1.618413
H142	H	0.919271	-0.443791	0.383996
H143	H	1.252605	-0.110458	0.717329
H144	H	1.585938	0.222875	1.050663
H145	H	1.640453	-0.271395	1.106202
H146	H	1.973786	0.061939	1.439535
H147	H	2.307119	0.395272	1.772869
Br148	Br	1.148299	-0.245899	0.664777
Br149	Br	1.481633	0.087434	0.998110
Br150	Br	1.814966	0.420768	1.331444
H151	H	0.919444	-0.271667	0.628243
H152	H	1.252777	0.061666	0.961577
H153	H	1.586110	0.394999	1.294910
H154	H	1.640423	-0.271452	0.907155
H155	H	1.973756	0.061882	1.240488
H156	H	2.307090	0.395215	1.573821
H157	H	1.396545	-0.443711	1.106127
H158	H	1.729878	-0.110378	1.439460
H159	H	2.063212	0.222955	1.772793
H160	H	1.118339	-0.443779	0.383968
H161	H	1.451672	-0.110446	0.717301
H162	H	1.785006	0.222888	1.050634
H163	H	1.388847	-0.903523	0.635711
H164	H	1.722181	-0.570189	0.969044
H165	H	2.055514	-0.236856	1.302377
H166	H	1.648059	-0.810994	0.376768
H167	H	1.981392	-0.477660	0.710101
H168	H	2.314726	-0.144327	1.043435
H169	H	1.695348	-0.903636	0.553681
H170	H	2.028682	-0.570303	0.887014
H171	H	2.362015	-0.236969	1.220348
Br172	Br	1.287546	-0.796581	0.444017
Br173	Br	1.620880	-0.463247	0.777351
Br174	Br	1.954213	-0.129914	1.110684
Br175	Br	1.580360	-0.796488	0.737211
Br176	Br	1.913693	-0.463154	1.070544
Br177	Br	2.247027	-0.129821	1.403878
H178	H	1.471186	-0.903850	0.329210
H179	H	1.804519	-0.570517	0.662543
H180	H	2.137852	-0.237183	0.995877
H181	H	1.396494	-0.443769	0.907059
H182	H	1.729827	-0.110435	1.240392
H183	H	2.063161	0.222898	1.573726
