data_functionalizedCrystal
_audit_creation_method	'MofGen! by Chris Wilmer'
_symmetry_space_group_name_H-M	'P1'
_symmetry_Int_Tables_number	1
_symmetry_cell_setting	triclinic
loop_
_symmetry_equiv_pos_as_xyz
  x,y,z
_cell_length_a	12.759401
_cell_length_b	8.497374
_cell_length_c	12.759400
_cell_angle_alpha	90.002260
_cell_angle_beta	89.997280
_cell_angle_gamma	89.993826
loop_
_atom_site_label
_atom_site_type_symbol
_atom_site_fract_x
_atom_site_fract_y
_atom_site_fract_z
Zn1	Zn	-1.606154	0.892203	-0.418460
Zn2	Zn	-1.606137	0.628439	-0.594109
Zn3	Zn	-1.430510	0.628412	-0.418443
Zn4	Zn	-1.430479	0.892151	-0.594095
O5	O	-1.518320	0.760301	-0.506277
O6	O	-1.753173	0.857247	-0.441773
O7	O	-1.582846	0.407673	-0.570805
O8	O	-1.453830	0.663415	-0.271424
O9	O	-1.753160	0.663460	-0.570822
O10	O	-1.582874	0.857222	-0.271437
O11	O	-1.453813	0.407653	-0.441744
O12	O	-1.283485	0.663365	-0.441730
O13	O	-1.453777	1.112921	-0.570798
O14	O	-1.283462	0.857133	-0.570781
O15	O	-1.582844	1.112959	-0.441760
O16	O	-1.582816	0.663410	-0.741128
O17	O	-1.453760	0.857159	-0.741118
C18	C	-1.245353	0.760241	-0.506253
C19	C	-1.128576	0.760253	-0.506268
C20	C	-1.518357	0.760321	-0.232243
C21	C	-1.518373	0.760330	-0.115467
C22	C	-1.073704	0.659214	-0.573356
C23	C	-0.963980	0.659247	-0.573372
C24	C	-0.964010	0.861362	-0.439204
C25	C	-1.073732	0.861336	-0.439194
C26	C	-0.814025	0.602616	-0.697232
C27	C	-0.759149	0.501553	-0.764310
C28	C	-0.794733	0.347573	-0.780275
C29	C	-0.885191	0.294625	-0.729147
C30	C	-0.940062	0.395680	-0.662061
C31	C	-0.904479	0.549682	-0.646115
C32	C	-1.223689	0.917951	-0.315333
C33	C	-1.278561	1.018999	-0.248241
C34	C	-1.242979	1.172982	-0.232265
C35	C	-1.152517	1.225924	-0.283374
C36	C	-1.097645	1.124876	-0.350467
C37	C	-1.133234	0.970895	-0.366444
C38	C	-0.792353	0.760343	-0.506297
C39	C	-0.909130	0.760312	-0.506294
C40	C	-1.518311	0.760316	-0.779244
C41	C	-1.518404	0.760375	-0.896021
C42	C	-1.518326	1.350422	-0.506294
C43	C	-1.518315	1.171778	-0.506289
C44	C	-1.451198	0.659434	-0.060597
C45	C	-1.451210	0.659459	0.049127
C46	C	-1.585582	0.861282	0.049101
C47	C	-1.585564	0.861263	-0.060621
C48	C	-1.327331	0.603088	0.199095
C49	C	-1.260165	0.502167	0.253969
C50	C	-1.244035	0.348225	0.218368
C51	C	-1.295086	0.295172	0.127894
C52	C	-1.362261	0.396084	0.073026
C53	C	-1.378371	0.550049	0.108626
C54	C	-1.709444	0.917618	-0.210590
C55	C	-1.776624	1.018524	-0.265461
C56	C	-1.792765	1.172469	-0.229861
C57	C	-1.741732	1.225517	-0.139385
C58	C	-1.674552	1.124611	-0.084514
C59	C	-1.658409	0.970667	-0.120121
H60	H	-1.118354	0.576909	-0.627974
Cl61	Cl	-0.645435	0.568116	-0.828584
H62	H	-1.123539	1.351305	-0.270358
Cl63	Cl	-1.274819	0.101622	0.083154
H64	H	-1.218599	0.545378	0.327633
Cl65	Cl	-0.769295	0.796209	-0.677183
Cl66	Cl	-0.929907	0.101027	-0.749203
H67	H	-1.340446	0.728447	0.228082
H68	H	-1.696294	0.792270	-0.239593
H69	H	-1.023977	1.167987	-0.392072
H70	H	-0.919342	0.943658	-0.384593
Cl71	Cl	-1.311953	1.300003	-0.147901
H72	H	-1.013709	0.352569	-0.620430
H73	H	-1.640289	0.943457	0.093768
Cl74	Cl	-1.392222	0.952386	-0.183897
H75	H	-1.847478	1.254620	-0.274542
H76	H	-1.633000	1.167813	-0.010841
Cl77	Cl	-1.268433	0.724368	-0.335422
H78	H	-1.396484	0.577251	-0.105249
Cl79	Cl	-1.426434	0.329405	-0.040706
Cl80	Cl	-1.762027	1.419050	-0.094622
H81	H	-1.189347	0.266054	0.263055
H82	H	-1.818183	0.975316	-0.339129
H83	H	-0.750047	0.265288	-0.834896
