data_functionalizedCrystal
_audit_creation_method	'MofGen! by Chris Wilmer'
_symmetry_space_group_name_H-M	'P1'
_symmetry_Int_Tables_number	1
_symmetry_cell_setting	triclinic
loop_
_symmetry_equiv_pos_as_xyz
  x,y,z
_cell_length_a	6.817900
_cell_length_b	17.982865
_cell_length_c	14.858572
_cell_angle_alpha	95.367744
_cell_angle_beta	104.524003
_cell_angle_gamma	102.450232
loop_
_atom_site_label
_atom_site_type_symbol
_atom_site_fract_x
_atom_site_fract_y
_atom_site_fract_z
V1	V	-4.033210	-0.105894	-0.290361
O2	O	-4.025834	0.004595	-0.284423
O3	O	-3.979649	-0.209495	-0.288770
O4	O	-3.989918	-0.104482	-0.416817
O5	O	-4.015494	-0.101146	-0.155489
V6	V	-4.516845	-0.092653	-0.274181
O7	O	-4.294223	-0.134940	-0.325853
O8	O	-4.706029	-0.063607	-0.238690
O9	O	-4.347199	0.010949	-0.275772
O10	O	-4.641617	-0.203142	-0.280119
O11	O	-4.651957	-0.097401	-0.409053
O12	O	-4.336930	-0.094065	-0.147725
C13	C	-3.823230	-0.234744	-0.284291
C14	C	-3.860758	-0.319441	-0.283834
C15	C	-4.047938	-0.828293	-0.195726
C16	C	-4.012677	-0.748713	-0.196169
C17	C	-4.038163	-0.719952	-0.281599
C18	C	-4.098894	-0.770775	-0.366591
C19	C	-4.134140	-0.850353	-0.366147
C20	C	-3.956751	-0.449844	-0.368383
C21	C	-3.921505	-0.370260	-0.368821
C22	C	-3.835288	-0.348205	-0.198405
C23	C	-3.870534	-0.427783	-0.197961
C24	C	-3.931251	-0.478599	-0.282953
C25	C	-3.969481	-0.564888	-0.282472
C26	C	-3.999949	-0.633664	-0.282081
C27	C	-3.836327	-0.100788	-0.447627
C28	C	-3.882181	-0.100319	-0.551008
C29	C	-4.050006	-0.098604	-0.929570
C30	C	-4.003303	-0.099081	-0.824243
C31	C	-3.966095	-0.099462	-0.740293
C32	C	-3.919389	-0.099938	-0.634958
C33	C	-4.166960	0.036194	-0.280248
C34	C	-4.108670	0.120890	-0.280712
C35	C	-4.153863	-0.097761	-0.116910
C36	C	-4.087248	-0.098226	-0.013528
H37	H	-3.849786	-0.451196	-0.128396
H38	H	-4.183586	-0.891728	-0.435351
Cl39	Cl	-3.936326	-0.684832	-0.089324
Cl40	Cl	-4.032901	-0.513713	-0.475225
H41	H	-3.785835	-0.306820	-0.129201
H42	H	-4.119630	-0.747351	-0.436149
Cl43	Cl	-4.015904	-0.864442	-0.088323
H44	H	-3.942270	-0.346846	-0.438392
