data_functionalizedCrystal
_audit_creation_method	'MofGen! by Chris Wilmer'
_symmetry_space_group_name_H-M	'P1'
_symmetry_Int_Tables_number	1
_symmetry_cell_setting	triclinic
loop_
_symmetry_equiv_pos_as_xyz
  x,y,z
_cell_length_a	12.594516
_cell_length_b	12.594517
_cell_length_c	12.594509
_cell_angle_alpha	89.978673
_cell_angle_beta	90.026199
_cell_angle_gamma	89.984147
loop_
_atom_site_label
_atom_site_type_symbol
_atom_site_fract_x
_atom_site_fract_y
_atom_site_fract_z
Zn1	Zn	-0.423716	-1.627267	0.601875
Zn2	Zn	-0.601726	-1.627158	0.423903
Zn3	Zn	-0.423761	-1.449271	0.423904
Zn4	Zn	-0.601652	-1.449253	0.601833
O5	O	-0.512714	-1.538237	0.512879
O6	O	-0.447341	-1.776198	0.578284
O7	O	-0.578169	-1.603522	0.274957
O8	O	-0.274809	-1.472936	0.447530
O9	O	-0.578124	-1.776118	0.447528
O10	O	-0.274776	-1.603709	0.578285
O11	O	-0.447419	-1.472830	0.274958
O12	O	-0.447347	-1.300323	0.447489
O13	O	-0.577998	-1.472905	0.750784
O14	O	-0.578042	-1.300310	0.578213
O15	O	-0.447269	-1.603691	0.750815
O16	O	-0.750662	-1.603505	0.447488
O17	O	-0.750608	-1.472799	0.578212
C18	C	-0.512692	-1.261696	0.512847
C19	C	-0.512709	-1.143391	0.512859
C20	C	-0.789255	-1.538167	0.512868
C21	C	-0.907560	-1.538235	0.512899
C22	C	-0.512620	-1.538308	0.790500
C23	C	-0.512581	-1.538339	0.908805
C24	C	-0.976822	-1.467137	0.583950
C25	C	-1.047688	-1.441204	0.486827
C26	C	-1.047494	-1.564265	0.610039
C27	C	-0.976867	-1.512250	0.415725
C28	C	-0.976667	-1.635357	0.539002
C29	C	-1.047500	-1.609460	0.441812
C30	C	-0.235093	-1.538336	0.512912
C31	C	-0.116787	-1.538378	0.512927
C32	C	-0.512736	-1.815858	0.512911
C33	C	-0.512745	-1.934163	0.512924
C34	C	-0.441526	-1.074114	0.441894
C35	C	-0.538615	-1.003303	0.415718
C36	C	-0.415668	-1.003403	0.539054
C37	C	-0.609849	-1.074138	0.486632
C38	C	-0.486836	-1.074244	0.610013
C39	C	-0.583991	-1.003465	0.583874
C40	C	-0.512730	-1.538227	0.236338
C41	C	-0.512470	-1.538403	0.118033
C42	C	-0.583644	-1.467227	0.978042
C43	C	-0.609650	-1.564347	1.048833
C44	C	-0.486510	-1.441294	1.048813
C45	C	-0.538638	-1.635510	0.978038
C46	C	-0.415453	-1.512391	0.978012
C47	C	-0.441422	-1.609579	1.048772
H48	H	-0.945788	-1.406905	0.643949
C49	C	-0.306129	-0.962118	0.568422
C50	C	-0.231917	-0.997937	0.493840
C51	C	-0.130996	-0.959942	0.520858
H52	H	-0.306943	-0.886703	0.568851
H53	H	-0.287190	-0.987482	0.636913
H54	H	-0.250851	-0.972567	0.425367
H55	H	-0.231070	-1.073348	0.493400
H56	H	-0.112057	-0.985306	0.589349
H57	H	-0.131821	-0.884528	0.521286
H58	H	-0.080630	-0.984248	0.470264
C59	C	-0.305991	-1.483264	0.936430
C60	C	-0.266126	-1.567133	0.875346
C61	C	-0.165288	-1.540331	0.837033
H62	H	-0.310957	-1.421234	0.893789
H63	H	-0.259654	-1.470239	0.994527
H64	H	-0.312451	-1.580144	0.817258
H65	H	-0.261134	-1.629171	0.917965
H66	H	-0.118951	-1.527306	0.895130
H67	H	-0.170264	-1.478300	0.794396
H68	H	-0.138223	-1.597235	0.795592
H69	H	-0.560736	-1.717631	0.947080
H70	H	-0.381389	-1.105135	0.381807
H71	H	-1.078518	-1.586224	0.692178
H72	H	-0.691742	-1.586329	1.079941
C73	C	-0.457804	-1.115901	0.719527
C74	C	-0.541714	-1.177009	0.759270
C75	C	-0.515000	-1.215393	0.860155
H76	H	-0.395776	-1.158541	0.714663
H77	H	-0.444809	-1.057837	0.765876
H78	H	-0.554696	-1.235064	0.712933
H79	H	-0.603750	-1.134390	0.764161
H80	H	-0.502004	-1.157330	0.906504
H81	H	-0.452971	-1.258030	0.855280
H82	H	-0.571931	-1.256851	0.887138
H83	H	-0.381279	-1.669813	1.079632
C84	C	-1.089229	-1.331696	0.457597
C85	C	-1.053448	-1.257503	0.532233
C86	C	-1.091701	-1.156616	0.505356
H87	H	-1.064032	-1.312622	0.389123
H88	H	-1.164656	-1.332660	0.457230
H89	H	-0.978037	-1.256537	0.532589
H90	H	-1.078643	-1.276542	0.600713
H91	H	-1.167128	-1.157579	0.504989
H92	H	-1.066501	-1.137552	0.436881
H93	H	-1.067438	-1.106265	0.555997
H94	H	-0.560522	-0.972144	0.333584
H95	H	-0.945972	-1.490197	0.333563
C96	C	-0.664062	-1.387242	0.936681
C97	C	-0.765553	-1.414945	0.972548
C98	C	-0.839663	-1.341302	0.934455
H99	H	-0.646399	-1.318415	0.961930
H100	H	-0.663162	-1.387338	0.861252
H101	H	-0.766450	-1.414839	1.047960
H102	H	-0.783249	-1.483761	0.947301
H103	H	-0.838764	-1.341398	0.859027
H104	H	-0.821990	-1.272479	0.959707
H105	H	-0.908535	-1.360094	0.958777
C106	C	-0.719241	-1.115593	0.456962
C107	C	-0.717926	-1.226754	0.457206
C108	C	-0.818672	-1.264981	0.429864
H109	H	-0.769946	-1.090950	0.507038
H110	H	-0.737760	-1.090772	0.388158
H111	H	-0.699420	-1.251565	0.526000
H112	H	-0.667243	-1.251425	0.407130
H113	H	-0.837191	-1.240160	0.361060
H114	H	-0.869369	-1.240331	0.479942
H115	H	-0.817791	-1.340407	0.430016
C116	C	-1.088573	-1.689573	0.361455
C117	C	-1.052617	-1.661903	0.259974
C118	C	-1.090445	-1.735664	0.185919
H119	H	-1.063205	-1.758349	0.379257
H120	H	-1.164003	-1.689586	0.362244
H121	H	-0.977203	-1.661900	0.259188
H122	H	-1.077982	-1.593139	0.242139
H123	H	-1.165875	-1.735677	0.186708
H124	H	-1.065074	-1.804435	0.203731
H125	H	-1.066063	-1.716895	0.117055
C126	C	-0.664193	-0.962295	0.664074
C127	C	-0.611769	-0.901222	0.740748
C128	C	-0.685615	-0.863289	0.814648
H129	H	-0.715528	-0.919728	0.628788
H130	H	-0.698501	-1.020566	0.697495
H131	H	-0.577478	-0.842959	0.707330
H132	H	-0.560440	-0.943765	0.776061
H133	H	-0.719923	-0.921561	0.848069
H134	H	-0.736946	-0.820728	0.779352
H135	H	-0.650055	-0.821856	0.866685
C136	C	-0.935091	-1.744722	0.568687
C137	C	-0.970788	-1.771491	0.670500
C138	C	-0.932495	-1.872223	0.697899
H139	H	-0.960317	-1.795564	0.519033
H140	H	-0.859664	-1.744044	0.567881
H141	H	-1.046199	-1.772177	0.671297
H142	H	-0.945564	-1.720676	0.720177
H143	H	-0.857069	-1.871546	0.697093
H144	H	-0.957724	-1.923057	0.648239
H145	H	-0.956702	-1.890395	0.766985
C146	C	-0.457308	-1.331736	1.090122
C147	C	-0.532018	-1.257583	1.054262
C148	C	-0.505154	-1.156646	1.092280
H149	H	-0.456863	-1.332562	1.165538
H150	H	-0.388853	-1.312733	1.064802
H151	H	-0.600455	-1.276582	1.079587
H152	H	-0.532474	-1.256725	0.978851
H153	H	-0.436699	-1.137642	1.066959
H154	H	-0.504709	-1.157482	1.167694
H155	H	-0.555834	-1.106319	1.067946
