data_functionalizedCrystal
_audit_creation_method	'MofGen! by Chris Wilmer'
_symmetry_space_group_name_H-M	'P1'
_symmetry_Int_Tables_number	1
_symmetry_cell_setting	triclinic
loop_
_symmetry_equiv_pos_as_xyz
  x,y,z
_cell_length_a	11.169417
_cell_length_b	14.908178
_cell_length_c	11.169409
_cell_angle_alpha	93.334554
_cell_angle_beta	90.019824
_cell_angle_gamma	93.314955
loop_
_atom_site_label
_atom_site_type_symbol
_atom_site_fract_x
_atom_site_fract_y
_atom_site_fract_z
Zn1	Zn	1.807331	-0.359096	0.650924
Zn2	Zn	1.795609	-0.510002	0.438634
Zn3	Zn	1.606613	-0.359151	0.450254
Zn4	Zn	1.595018	-0.509929	0.639285
O5	O	1.701143	-0.434545	0.544774
O6	O	1.973725	-0.379122	0.622771
O7	O	1.770484	-0.490045	0.272222
O8	O	1.642997	-0.232888	0.486607
O9	O	1.965113	-0.489992	0.466803
O10	O	1.790464	-0.232848	0.634039
O11	O	1.631630	-0.379216	0.280759
O12	O	1.437126	-0.379144	0.475321
O13	O	1.623236	-0.489867	0.808783
O14	O	1.428607	-0.489920	0.614201
O15	O	1.779221	-0.379051	0.817334
O16	O	1.759242	-0.636248	0.455517
O17	O	1.611869	-0.636194	0.602934
C18	C	1.389319	-0.434531	0.544760
C19	C	1.255918	-0.434547	0.544781
C20	C	1.683058	-0.668958	0.526728
C21	C	1.675431	-0.769241	0.519048
C22	C	1.814540	-0.957492	0.658301
C23	C	1.807378	-1.051716	0.651089
C24	C	1.653940	-1.051917	0.497418
C25	C	1.661102	-0.957693	0.504630
C26	C	1.741406	-0.910483	0.585073
C27	C	1.748573	-0.816256	0.592278
C28	C	1.595129	-0.816459	0.438615
C29	C	1.587967	-0.910684	0.431403
C30	C	2.014184	-0.434559	0.544789
C31	C	2.147583	-0.434565	0.544796
C32	C	1.701243	-0.434444	0.857825
C33	C	1.701285	-0.434402	0.991228
C34	C	1.719331	-0.199216	0.562917
C35	C	1.727082	-0.098933	0.570649
C36	C	1.701117	-0.434579	0.232947
C37	C	1.701327	-0.434368	0.099564
H38	H	1.813964	-0.777819	0.657776
H39	H	1.535582	-0.778174	0.378984
C40	C	1.965485	-0.966753	0.809477
C41	C	1.902803	-0.905593	0.746723
H42	H	2.019968	-0.934712	0.864072
H43	H	2.008633	-1.003501	0.754416
H44	H	1.910362	-1.003516	0.852518
H45	H	1.957925	-0.868834	0.703675
H46	H	1.859653	-0.868830	0.801792
C47	C	1.815908	-1.157562	0.804442
C48	C	1.887768	-1.103391	0.731582
H49	H	1.865540	-1.189460	0.854142
H50	H	1.767073	-1.199161	0.755501
H51	H	1.766388	-1.120800	0.853110
H52	H	1.937282	-1.140154	0.682907
H53	H	1.936623	-1.061788	0.780527
H54	H	1.588554	-1.090372	0.431931
C55	C	1.508865	-1.055214	0.352106
C56	C	1.499707	-0.962582	0.342977
H57	H	1.454382	-1.087250	0.297506
H58	H	1.490071	-1.070612	0.431539
H59	H	1.588350	-1.070603	0.333445
H60	H	1.420224	-0.947192	0.361647
H61	H	1.518493	-0.947178	0.263526
