data_functionalizedCrystal
_audit_creation_method	'MofGen! by Chris Wilmer'
_symmetry_space_group_name_H-M	'P1'
_symmetry_Int_Tables_number	1
_symmetry_cell_setting	triclinic
loop_
_symmetry_equiv_pos_as_xyz
  x,y,z
_cell_length_a	25.639242
_cell_length_b	25.639239
_cell_length_c	16.959447
_cell_angle_alpha	90.029510
_cell_angle_beta	90.027385
_cell_angle_gamma	90.034213
loop_
_atom_site_label
_atom_site_type_symbol
_atom_site_fract_x
_atom_site_fract_y
_atom_site_fract_z
Zn1	Zn	0.799252	-0.208221	0.447102
Zn2	Zn	1.299252	0.291779	0.947102
Zn3	Zn	0.799168	-0.295656	0.314917
Zn4	Zn	1.299168	0.204344	0.814917
Zn5	Zn	0.711820	-0.208230	0.314917
Zn6	Zn	1.211820	0.291770	0.814917
Zn7	Zn	0.711773	-0.295621	0.447033
Zn8	Zn	1.211773	0.204379	0.947033
O9	O	0.755503	-0.251932	0.380992
O10	O	1.255503	0.248068	0.880992
O11	O	0.872406	-0.219831	0.429597
O12	O	1.372406	0.280169	0.929597
O13	O	0.787565	-0.284078	0.204306
O14	O	1.287565	0.215922	0.704306
O15	O	0.723473	-0.135064	0.332480
O16	O	1.223473	0.364936	0.832480
O17	O	0.872344	-0.284069	0.332481
O18	O	1.372344	0.215931	0.832481
O19	O	0.787709	-0.135057	0.429596
O20	O	1.287709	0.364943	0.929596
O21	O	0.723391	-0.219846	0.204306
O22	O	1.223391	0.280154	0.704306
O23	O	0.638649	-0.219811	0.332413
O24	O	1.138649	0.280189	0.832413
O25	O	0.723393	-0.284008	0.557653
O26	O	1.223393	0.215992	1.057653
O27	O	0.638614	-0.284017	0.429478
O28	O	1.138614	0.215983	0.929478
O29	O	0.787664	-0.219796	0.557704
O30	O	1.287664	0.280204	1.057704
O31	O	0.787520	-0.368817	0.332414
O32	O	1.287520	0.131183	0.832414
O33	O	0.723311	-0.368791	0.429479
O34	O	1.223311	0.131209	0.929479
C35	C	0.619661	-0.251911	0.380939
C36	C	1.119661	0.248089	0.880939
C37	C	0.561547	-0.251915	0.380935
C38	C	1.061547	0.248085	0.880935
C39	C	0.201175	-0.285420	0.431486
C40	C	0.701175	0.214580	0.931486
C41	C	0.146570	-0.285423	0.431499
C42	C	0.646570	0.214577	0.931499
O43	O	0.118326	-0.313884	0.474434
O44	O	0.618326	0.186116	0.974434
N45	N	0.119264	-0.251946	0.381044
N46	N	0.619264	0.248054	0.881044
C47	C	0.146565	-0.218461	0.330579
C48	C	0.646565	0.281539	0.830579
O49	O	0.118325	-0.189986	0.287665
O50	O	0.618325	0.310014	0.787665
C51	C	0.201169	-0.218455	0.330571
C52	C	0.701169	0.281545	0.830571
C53	C	0.228472	-0.251938	0.381023
C54	C	0.728472	0.248062	0.881023
C55	C	0.228478	-0.318899	0.481935
C56	C	0.728478	0.181101	0.981935
C57	C	0.283078	-0.318896	0.481921
C58	C	0.783078	0.181104	0.981921
C59	C	0.310376	-0.285414	0.431459
C60	C	0.810376	0.214586	0.931459
C61	C	0.283072	-0.251935	0.381010
C62	C	0.783072	0.248065	0.881010
C63	C	0.228469	-0.184968	0.280111
C64	C	0.728469	0.315032	0.780111
C65	C	0.283076	-0.184965	0.280108
C66	C	0.783076	0.315035	0.780108
C67	C	0.310379	-0.218447	0.330560
C68	C	0.810379	0.281553	0.830560
C69	C	0.364970	-0.218451	0.330533
C70	C	0.864970	0.281549	0.830533
N71	N	0.392276	-0.251927	0.380988
N72	N	0.892276	0.248073	0.880988
C73	C	0.364979	-0.285409	0.431451
C74	C	0.864979	0.214591	0.931451
C75	C	0.031895	-0.218474	0.330600
C76	C	0.531895	0.281526	0.830600
C77	C	-0.022708	-0.218482	0.330604
C78	C	0.477292	0.281518	0.830604
C79	C	-0.022699	-0.285443	0.431525
C80	C	0.477301	0.214557	0.931525
C81	C	0.031904	-0.285438	0.431517
C82	C	0.531904	0.214562	0.931517
C83	C	0.059201	-0.251951	0.381055
C84	C	0.559201	0.248049	0.881055
C85	C	0.479644	-0.285401	0.431418
C86	C	0.979644	0.214599	0.931418
C87	C	0.534249	-0.285397	0.431397
C88	C	1.034249	0.214603	0.931397
C89	C	0.534236	-0.218434	0.330480
C90	C	1.034236	0.281566	0.830480
C91	C	0.479635	-0.218440	0.330497
C92	C	0.979635	0.281560	0.830497
C93	C	0.452341	-0.251925	0.380972
C94	C	0.952341	0.248075	0.880972
O95	O	0.393249	-0.190002	0.287622
O96	O	0.893249	0.309998	0.787622
O97	O	0.393226	-0.313874	0.474365
O98	O	0.893226	0.186126	0.974365
C99	C	0.755415	-0.387775	0.380956
C100	C	1.255415	0.112225	0.880956
C101	C	0.755426	-0.445889	0.380967
C102	C	1.255426	0.054111	0.880967
C103	C	0.789024	-0.806253	0.330537
C104	C	1.289024	-0.306253	0.830537
C105	C	0.789044	-0.860857	0.330547
C106	C	1.289044	-0.360857	0.830547
O107	O	0.817519	-0.889095	0.287630
O108	O	1.317519	-0.389095	0.787630
N109	N	0.755595	-0.888171	0.381045
N110	N	1.255595	-0.388171	0.881045
C111	C	0.722128	-0.860878	0.431540
C112	C	1.222128	-0.360878	0.931540
O113	O	0.693679	-0.889125	0.474494
O114	O	1.193679	-0.389125	0.974494
C115	C	0.722111	-0.806275	0.431533
C116	C	1.222111	-0.306275	0.931533
C117	C	0.755558	-0.778963	0.381027
C118	C	1.255558	-0.278963	0.881027
C119	C	0.822469	-0.778942	0.280035
C120	C	1.322469	-0.278942	0.780035
C121	C	0.822448	-0.724341	0.280024
C122	C	1.322448	-0.224341	0.780024
C123	C	0.788982	-0.697052	0.330514
C124	C	1.288982	-0.197052	0.830514
C125	C	0.755537	-0.724363	0.381016
C126	C	1.255537	-0.224363	0.881016
C127	C	0.688646	-0.778982	0.482032
C128	C	1.188646	-0.278982	0.982032
C129	C	0.688632	-0.724375	0.482021
C130	C	1.188632	-0.224375	0.982021
C131	C	0.722079	-0.697064	0.431515
C132	C	1.222079	-0.197064	0.931515
C133	C	0.722050	-0.642473	0.431494
C134	C	1.222050	-0.142473	0.931494
N135	N	0.755498	-0.615159	0.380997
N136	N	1.255498	-0.115159	0.880997
C137	C	0.788964	-0.642448	0.330507
C138	C	1.288964	-0.142448	0.830507
C139	C	0.722167	-0.975549	0.431553
C140	C	1.222167	-0.475549	0.931553
C141	C	0.722181	-1.030151	0.431556
C142	C	1.222181	-0.530151	0.931556
C143	C	0.789098	-1.030126	0.330564
C144	C	1.289098	-0.530126	0.830564
C145	C	0.789081	-0.975523	0.330557
C146	C	1.289081	-0.475523	0.830557
C147	C	0.755616	-0.948235	0.381055
C148	C	1.255616	-0.448235	0.881055
C149	C	0.788917	-0.527783	0.330486
C150	C	1.288917	-0.027783	0.830486
C151	C	0.788892	-0.473178	0.330477
C152	C	1.288892	0.026822	0.830477
C153	C	0.721977	-0.473207	0.431472
C154	C	1.221977	0.026793	0.931472
C155	C	0.722000	-0.527808	0.431478
C156	C	1.222000	-0.027808	0.931478
C157	C	0.755475	-0.555095	0.380983
C158	C	1.255475	-0.055095	0.880983
O159	O	0.693591	-0.614201	0.474392
O160	O	1.193591	-0.114201	0.974392
O161	O	0.817413	-0.614195	0.287568
O162	O	1.317413	-0.114195	0.787568
C163	C	0.891876	-0.251953	0.381047
C164	C	1.391876	0.248047	0.881047
C165	C	0.949990	-0.251962	0.381070
C166	C	1.449990	0.248038	0.881070
C167	C	0.755533	-0.251897	0.587161
C168	C	1.255533	0.248103	1.087161
C169	C	0.755545	-0.251882	0.675017
C170	C	1.255545	0.248118	1.175017
C171	C	0.755606	-0.115559	0.381046
C172	C	1.255606	0.384441	0.881046
C173	C	0.755650	-0.057445	0.381069
C174	C	1.255650	0.442555	0.881069
C175	C	0.755504	-0.251929	0.175626
C176	C	1.255504	0.248071	0.675626
C177	C	0.755593	-0.251797	0.087770
C178	C	1.255593	0.248203	0.587770
C179	C	0.722089	-0.285308	0.716266
C180	C	1.222089	0.214692	1.216266
C181	C	0.789010	-0.218439	0.716322
C182	C	1.289010	0.281561	1.216322
C183	C	0.789021	-0.218422	0.798868
C184	C	1.289021	0.281578	1.298868
C185	C	0.755565	-0.251848	0.840117
C186	C	1.255565	0.248152	1.340117
C187	C	0.722098	-0.285291	0.798820
C188	C	1.222098	0.214709	1.298820
C189	C	0.822483	-0.184976	0.840171
C190	C	1.322483	0.315024	1.340171
C191	C	0.822495	-0.184957	0.922722
C192	C	1.322495	0.315043	1.422722
C193	C	0.789041	-0.218386	0.963972
C194	C	1.289041	0.281614	1.463972
C195	C	0.755573	-0.251831	0.922670
C196	C	1.255573	0.248169	1.422670
C197	C	0.722117	-0.285257	0.963919
C198	C	1.222117	0.214743	1.463919
C199	C	0.688652	-0.318704	0.922619
C200	C	1.188652	0.181296	1.422619
C201	C	0.688644	-0.318720	0.840070
C202	C	1.188644	0.181280	1.340070
C203	C	0.789049	-0.218371	1.046521
C204	C	1.289049	0.281629	1.546521
C205	C	0.722126	-0.285239	1.046473
C206	C	1.222126	0.214761	1.546473
H207	H	0.305304	-0.346160	0.523007
H208	H	0.805304	0.153840	1.023007
H209	H	0.816176	-0.549994	0.289370
H210	H	1.316176	-0.049994	0.789370
H211	H	0.816292	-0.191134	1.080144
H212	H	1.316292	0.308866	1.580144
Br213	Br	0.867924	-0.139578	0.978765
Br214	Br	1.367924	0.360422	1.478765
H215	H	0.694844	-0.312542	0.682636
H216	H	1.194844	0.187458	1.182636
H217	H	0.816128	-0.450943	0.289346
H218	H	1.316128	0.049057	0.789346
H219	H	0.849685	-0.702108	0.238900
H220	H	1.349685	-0.202108	0.738900
H221	H	0.556477	-0.312665	0.472482
H222	H	1.056477	0.187335	0.972482
H223	H	0.661381	-0.702160	0.523146
H224	H	1.161381	-0.202160	1.023146
H225	H	0.661407	-0.801210	0.523156
H226	H	1.161407	-0.301210	1.023156
Br227	Br	0.867852	-0.139582	0.784187
Br228	Br	1.367852	0.360418	1.284187
Br229	Br	0.191428	-0.139521	0.211639
Br230	Br	0.691428	0.360479	0.711639
H231	H	0.556471	-0.191175	0.289392
H232	H	1.056471	0.308825	0.789392
H233	H	0.457427	-0.312667	0.472522
H234	H	0.957427	0.187333	0.972522
H235	H	0.054116	-0.191205	0.289503
H236	H	0.554116	0.308795	0.789503
Br237	Br	0.191442	-0.364344	0.550431
Br238	Br	0.691442	0.135656	1.050431
H239	H	0.054131	-0.312702	0.472601
H240	H	0.554131	0.187298	0.972601
Br241	Br	0.676563	-0.436161	0.499994
Br242	Br	1.176563	0.063839	0.999994
Br243	Br	0.834475	-0.938464	0.262010
Br244	Br	1.334475	-0.438464	0.762010
Br245	Br	0.834391	-0.173057	0.660341
Br246	Br	1.334391	0.326943	1.160341
H247	H	-0.044933	-0.191222	0.289512
H248	H	0.455067	0.308778	0.789512
Br249	Br	-0.059756	-0.330879	0.500017
Br250	Br	0.440244	0.169121	1.000017
Br251	Br	0.320118	-0.139513	0.211622
Br252	Br	0.820118	0.360487	0.711622
Br253	Br	0.442580	-0.173009	0.262010
Br254	Br	0.942580	0.326991	0.762010
H255	H	0.849723	-0.801155	0.238920
H256	H	1.349723	-0.301155	0.738920
Br257	Br	0.643227	-0.364105	0.784016
Br258	Br	1.143227	0.135895	1.284016
H259	H	0.816350	-1.052355	0.289455
H260	H	1.316350	-0.552355	0.789455
Br261	Br	0.676779	-1.067209	0.500092
Br262	Br	1.176779	-0.567209	1.000092
H263	H	0.694911	-0.953333	0.472672
H264	H	1.194911	-0.453333	0.972672
H265	H	0.694884	-0.312461	1.080052
H266	H	1.194884	0.187539	1.580052
Br267	Br	0.676595	-0.564874	0.500004
Br268	Br	1.176595	-0.064874	1.000004
H269	H	0.661409	-0.345917	0.956215
H270	H	1.161409	0.154083	1.456215
