data_functionalizedCrystal
_audit_creation_method	'MofGen! by Chris Wilmer'
_symmetry_space_group_name_H-M	'P1'
_symmetry_Int_Tables_number	1
_symmetry_cell_setting	triclinic
loop_
_symmetry_equiv_pos_as_xyz
  x,y,z
_cell_length_a	9.065215
_cell_length_b	19.188930
_cell_length_c	7.540329
_cell_angle_alpha	89.991297
_cell_angle_beta	89.997574
_cell_angle_gamma	84.079739
loop_
_atom_site_label
_atom_site_type_symbol
_atom_site_fract_x
_atom_site_fract_y
_atom_site_fract_z
O1	O	1.956850	0.102360	-0.147485
O2	O	2.456850	0.602360	0.352515
O3	O	1.527273	0.110759	-0.147495
O4	O	2.027273	0.610759	0.352505
O5	O	1.754458	0.005000	-0.147455
O6	O	2.254458	0.505000	0.352545
O7	O	1.729665	0.208119	-0.147525
O8	O	2.229665	0.708119	0.352475
O9	O	1.754445	0.004999	0.147510
O10	O	2.254445	0.504999	0.647510
O11	O	1.527259	0.110757	0.147470
O12	O	2.027259	0.610757	0.647470
O13	O	1.956836	0.102358	0.147480
O14	O	2.456836	0.602358	0.647480
Cu15	Cu	1.742047	0.106558	0.174407
Cu16	Cu	2.242047	0.606558	0.674407
Cu17	Cu	1.742063	0.106559	-0.174423
Cu18	Cu	2.242063	0.606559	0.325577
O19	O	1.729651	0.208117	0.147440
O20	O	2.229651	0.708117	0.647440
C21	C	1.472308	0.109951	-0.000013
C22	C	1.972308	0.609951	0.499987
C23	C	1.308548	0.107539	-0.000016
C24	C	1.808548	0.607539	0.499984
C25	C	1.753648	-0.021018	0.000032
C26	C	2.253648	0.478982	0.500032
C27	C	1.751238	-0.098541	0.000047
C28	C	2.251238	0.401459	0.500047
C29	C	1.884543	-0.142430	0.000059
C30	C	2.384543	0.357570	0.500059
C31	C	1.882279	-0.215272	0.000031
C32	C	2.382279	0.284728	0.500031
C33	C	1.746702	-0.244221	0.000026
C34	C	2.246702	0.255779	0.500026
C35	C	1.613380	-0.200322	0.000005
C36	C	2.113380	0.299678	0.500005
C37	C	1.615648	-0.127482	0.000015
C38	C	2.115648	0.372518	0.500015
N39	N	1.643065	-0.353031	0.100406
N40	N	2.143065	0.146969	0.600406
N41	N	1.640920	-0.422226	0.100400
N42	N	2.140920	0.077774	0.600400
C43	C	1.739860	-0.463683	-0.000010
C44	C	2.239860	0.036317	0.499990
N45	N	1.841050	-0.433331	-0.100391
N46	N	2.341050	0.066669	0.399609
N47	N	1.843200	-0.364130	-0.100376
N48	N	2.343200	0.135870	0.399624
C49	C	1.744228	-0.323202	0.000013
C50	C	2.244228	0.176798	0.500013
C51	C	1.870719	-0.586555	-0.000032
C52	C	2.370719	-0.086555	0.499968
C53	C	1.868449	-0.659397	-0.000071
C54	C	2.368449	-0.159397	0.499929
C55	C	1.599546	-0.644446	-0.000079
C56	C	2.099546	-0.144446	0.499921
C57	C	1.601820	-0.571605	-0.000058
C58	C	2.101820	-0.071605	0.499942
C59	C	1.737410	-0.542664	-0.000025
C60	C	2.237410	-0.042664	0.499975
C61	C	2.011802	0.103166	-0.000006
C62	C	2.511802	0.603166	0.499994
C63	C	2.175561	0.105578	-0.000015
C64	C	2.675561	0.605578	0.499985
C65	C	1.730461	0.234135	-0.000052
C66	C	2.230461	0.734135	0.499948
C67	C	1.732871	0.311659	-0.000079
C68	C	2.232871	0.811659	0.499921
N69	N	1.742046	0.106556	0.419756
N70	N	2.242046	0.606556	0.919756
N71	N	1.742075	0.106556	-0.419771
N72	N	2.242075	0.606556	0.080229
H73	H	1.990835	-0.251013	0.000033
H74	H	2.490835	0.248987	0.500033
C75	C	2.015092	-0.707676	-0.000055
C76	C	2.515092	-0.207676	0.499945
H77	H	2.096163	-0.680004	-0.000017
H78	H	2.596163	-0.180004	0.499983
H79	H	2.019815	-0.736393	-0.102920
H80	H	2.519815	-0.236393	0.397080
H81	H	2.019778	-0.736409	0.102814
H82	H	2.519778	-0.236409	0.602814
C83	C	2.019855	-0.554713	-0.000019
C84	C	2.519855	-0.054713	0.499981
H85	H	2.002114	-0.505046	0.000011
H86	H	2.502114	-0.005046	0.500011
H87	H	2.074729	-0.569710	-0.102881
H88	H	2.574729	-0.069710	0.397119
H89	H	2.074718	-0.569732	0.102853
H90	H	2.574718	-0.069732	0.602853
C91	C	2.033686	-0.110598	0.000063
C92	C	2.533686	0.389402	0.500063
H93	H	2.112754	-0.147174	0.000048
H94	H	2.612754	0.352826	0.500048
H95	H	2.040163	-0.082499	0.102921
H96	H	2.540163	0.417501	0.602921
H97	H	2.040160	-0.082490	-0.102814
H98	H	2.540160	0.417510	0.397186
C99	C	1.450414	-0.676282	-0.000090
C100	C	1.950414	-0.176282	0.499910
H101	H	1.468153	-0.725949	-0.000087
H102	H	1.968153	-0.225949	0.499913
H103	H	1.395549	-0.661263	-0.102950
H104	H	1.895549	-0.161263	0.397050
H105	H	1.395541	-0.661283	0.102785
H106	H	1.895541	-0.161283	0.602785
C107	C	1.464250	-0.232163	0.000006
C108	C	1.964250	0.267837	0.500006
H109	H	1.481990	-0.281830	0.000020
H110	H	1.981990	0.218170	0.500020
H111	H	1.409382	-0.217149	-0.102855
H112	H	1.909382	0.282851	0.397145
H113	H	1.409378	-0.217161	0.102880
H114	H	1.909378	0.282839	0.602880
C115	C	1.455183	-0.523326	-0.000040
C116	C	1.955183	-0.023326	0.499960
H117	H	1.374112	-0.550997	-0.000032
H118	H	1.874112	-0.050997	0.499968
H119	H	1.450478	-0.494589	-0.102893
H120	H	1.950478	0.005411	0.397107
H121	H	1.450480	-0.494612	0.102842
H122	H	1.950480	0.005388	0.602842
H123	H	1.507091	-0.091747	0.000006
H124	H	2.007091	0.408253	0.500006
