data_functionalizedCrystal
_audit_creation_method	'MofGen! by Chris Wilmer'
_symmetry_space_group_name_H-M	'P1'
_symmetry_Int_Tables_number	1
_symmetry_cell_setting	triclinic
loop_
_symmetry_equiv_pos_as_xyz
  x,y,z
_cell_length_a	14.971486
_cell_length_b	13.101039
_cell_length_c	14.044220
_cell_angle_alpha	86.332523
_cell_angle_beta	88.401503
_cell_angle_gamma	93.356744
loop_
_atom_site_label
_atom_site_type_symbol
_atom_site_fract_x
_atom_site_fract_y
_atom_site_fract_z
O1	O	1.201174	0.085098	0.118316
O2	O	1.701174	0.585098	0.618316
O3	O	0.941941	0.085126	0.133109
O4	O	1.441941	0.585126	0.633109
O5	O	1.067666	0.085103	-0.012276
O6	O	1.567666	0.585103	0.487724
O7	O	1.075449	0.085122	0.263701
O8	O	1.575449	0.585122	0.763701
O9	O	1.058646	-0.085326	-0.001827
O10	O	1.558646	0.414674	0.498173
O11	O	0.932922	-0.085302	0.143557
O12	O	1.432922	0.414698	0.643557
O13	O	1.192155	-0.085330	0.128765
O14	O	1.692155	0.414670	0.628765
Zn15	Zn	1.061106	-0.112375	0.137820
Zn16	Zn	1.561106	0.387625	0.637820
Zn17	Zn	1.072989	0.112171	0.124054
Zn18	Zn	1.572989	0.612171	0.624054
O19	O	1.066430	-0.085306	0.274149
O20	O	1.566430	0.414694	0.774149
C21	C	0.904054	-0.000084	0.137671
C22	C	1.404054	0.499916	0.637671
C23	C	0.804602	-0.000074	0.135688
C24	C	1.304602	0.499926	0.635688
N25	N	1.053003	-0.265622	0.147214
N26	N	1.553003	0.234378	0.647214
C27	C	0.754105	-0.000069	0.221098
C28	C	1.254105	0.499931	0.721098
C29	C	0.660658	-0.000085	0.219230
C30	C	1.160658	0.499915	0.719230
C31	C	0.617709	-0.000097	0.131951
C32	C	1.117709	0.499903	0.631951
C33	C	0.668212	-0.000105	0.046535
C34	C	1.168212	0.499895	0.546535
C35	C	0.761658	-0.000097	0.048404
C36	C	1.261658	0.499903	0.548404
C37	C	0.473442	-0.000119	0.042645
C38	C	0.973442	0.499881	0.542645
C39	C	0.379991	-0.000125	0.040775
C40	C	0.879991	0.499875	0.540775
C41	C	0.372443	-0.000107	0.213471
C42	C	0.872443	0.499893	0.713471
C43	C	0.465888	-0.000099	0.215340
C44	C	0.965888	0.499901	0.715340
C45	C	0.516385	-0.000105	0.129923
C46	C	1.016385	0.499895	0.629923
C47	C	1.041978	-0.474663	0.160005
C48	C	1.541978	0.025337	0.660005
C49	C	1.092121	-0.525548	0.101864
C50	C	1.592121	-0.025548	0.601864
C51	C	1.085987	-0.641865	0.108981
C52	C	1.585987	-0.141865	0.608981
C53	C	1.048111	-0.358335	0.152889
C54	C	1.548111	0.141665	0.652889
C55	C	1.230041	-0.000117	0.124202
C56	C	1.730041	0.499883	0.624202
C57	C	1.329494	-0.000121	0.126185
C58	C	1.829494	0.499879	0.626185
C59	C	1.059750	-0.000112	-0.042370
C60	C	1.559750	0.499888	0.457630
C61	C	1.049588	-0.000112	-0.147607
C62	C	1.549588	0.499888	0.352393
N63	N	1.081099	0.265418	0.114652
N64	N	1.581099	0.765418	0.614652
C65	C	1.031013	-0.000095	-0.340291
C66	C	1.531013	0.499905	0.159709
C67	C	1.103079	-0.000100	-0.397842
C68	C	1.603079	0.499900	0.102158
C69	C	1.092743	-0.000090	-0.505058
C70	C	1.592743	0.499910	-0.005058
C71	C	1.041347	-0.000104	-0.233065
C72	C	1.541347	0.499896	0.266935
C73	C	1.074346	-0.000090	0.304243
C74	C	1.574346	0.499910	0.804243
C75	C	1.084508	-0.000083	0.409480
C76	C	1.584508	0.499917	0.909480
H77	H	0.789067	-0.000058	0.292170
H78	H	1.289067	0.499942	0.792170
H79	H	0.331323	-0.000107	0.283021
H80	H	0.831323	0.499893	0.783021
F81	F	0.334282	-0.000165	-0.052115
F82	F	0.834282	0.499835	0.447885
F83	F	0.511596	-0.000075	0.308232
F84	F	1.011596	0.499925	0.808232
H85	H	1.139657	-0.481754	0.046745
H86	H	1.639657	0.018246	0.546745
H87	H	1.172544	-0.000038	-0.366596
H88	H	1.672544	0.499962	0.133404
F89	F	0.979851	-0.531898	0.232049
F90	F	1.479851	-0.031898	0.732049
H91	H	0.619547	-0.000080	0.288780
H92	H	1.119547	0.499920	0.788780
F93	F	0.940228	-0.000080	-0.381135
F94	F	1.440228	0.499920	0.118865
F95	F	0.527183	-0.000129	-0.048266
F96	F	1.027183	0.499871	0.451734
F97	F	0.622500	-0.000125	-0.046354
F98	F	1.122500	0.499875	0.453646
H99	H	0.802771	-0.000100	-0.021146
H100	H	1.302771	0.499900	0.478854
