data_functionalizedCrystal
_audit_creation_method	'MofGen! by Chris Wilmer'
_symmetry_space_group_name_H-M	'P1'
_symmetry_Int_Tables_number	1
_symmetry_cell_setting	triclinic
loop_
_symmetry_equiv_pos_as_xyz
  x,y,z
_cell_length_a	10.654554
_cell_length_b	10.654551
_cell_length_c	9.730223
_cell_angle_alpha	90.000061
_cell_angle_beta	89.998375
_cell_angle_gamma	84.486053
loop_
_atom_site_label
_atom_site_type_symbol
_atom_site_fract_x
_atom_site_fract_y
_atom_site_fract_z
O1	O	1.667836	0.176422	-0.114238
O2	O	1.302358	0.193222	-0.114249
O3	O	1.493500	0.002083	-0.114244
O4	O	1.476695	0.367561	-0.114243
O5	O	1.493488	0.002084	0.114336
O6	O	1.302347	0.193223	0.114331
O7	O	1.667824	0.176423	0.114342
Zn8	Zn	1.485084	0.184823	0.150628
Zn9	Zn	1.485099	0.184822	-0.150535
O10	O	1.476683	0.367562	0.114337
C11	C	1.255555	0.191988	0.000039
C12	C	1.116112	0.188294	0.000035
C13	C	1.492260	-0.044714	0.000043
C14	C	1.488567	-0.184158	0.000034
C15	C	0.905604	0.297367	0.000048
C16	C	1.036625	0.300839	0.000037
C17	C	1.064571	0.072269	0.000029
C18	C	0.933552	0.068799	0.000030
C19	C	0.826123	0.409919	0.000064
C20	C	0.877654	0.525944	0.000066
C21	C	1.008676	0.529416	0.000056
C22	C	1.088166	0.416863	0.000042
C23	C	1.486841	-0.249670	-0.124563
C24	C	1.483361	-0.380690	-0.124557
C25	C	1.483338	-0.380675	0.124654
C26	C	1.486809	-0.249656	0.124646
C27	C	1.488599	-0.184172	-0.249175
C28	C	1.486875	-0.249684	-0.373782
C29	C	1.483395	-0.380705	-0.373776
C30	C	1.481639	-0.446212	-0.249163
C31	C	1.714628	0.177657	0.000051
C32	C	1.854071	0.181351	0.000046
C33	C	1.477923	0.414360	0.000047
C34	C	1.481616	0.553803	0.000047
N35	N	1.485082	0.184823	0.356165
N36	N	1.485111	0.184812	-0.356072
C37	C	1.569757	0.100207	0.571977
C38	C	1.569746	0.100215	0.428094
C39	C	1.400432	0.269437	0.428126
C40	C	1.400450	0.269435	0.572006
C41	C	1.654418	0.015585	0.643899
C42	C	1.739070	-0.069028	0.571948
C43	C	1.739059	-0.069021	0.428065
C44	C	1.654396	0.015600	0.356133
H45	H	0.719437	0.407105	0.000077
Br46	Br	1.493334	-0.006360	-0.249191
Br47	Br	1.489155	-0.160738	0.293744
H48	H	0.891594	-0.025671	0.000027
H49	H	1.481978	-0.434040	-0.475236
H50	H	1.488293	-0.196338	-0.475237
H51	H	1.654432	0.015568	0.761056
Br52	Br	1.480955	-0.469578	0.293760
H53	H	1.331524	0.338329	0.630589
Br54	Br	1.654401	0.015620	0.160862
Br55	Br	1.476898	-0.624025	-0.249158
H56	H	1.807994	-0.137907	0.369484
Br57	Br	0.769781	0.678686	0.000059
Br58	Br	1.078610	0.686874	0.000037
Br59	Br	1.265982	0.421578	0.000005
Br60	Br	1.285538	0.384271	0.330506
Br61	Br	1.172448	-0.080470	0.000017
H62	H	1.808007	-0.137917	0.630522
