data_functionalizedCrystal
_audit_creation_method	'MofGen! by Chris Wilmer'
_symmetry_space_group_name_H-M	'P1'
_symmetry_Int_Tables_number	1
_symmetry_cell_setting	triclinic
loop_
_symmetry_equiv_pos_as_xyz
  x,y,z
_cell_length_a	12.759395
_cell_length_b	29.839126
_cell_length_c	29.839131
_cell_angle_alpha	89.975848
_cell_angle_beta	90.042957
_cell_angle_gamma	89.982477
loop_
_atom_site_label
_atom_site_type_symbol
_atom_site_fract_x
_atom_site_fract_y
_atom_site_fract_z
Zn1	Zn	1.606043	-0.253980	-0.178869
Zn2	Zn	1.605860	-0.178850	-0.253990
Zn3	Zn	1.430350	-0.178865	-0.178877
Zn4	Zn	1.430251	-0.253954	-0.253975
O5	O	1.518126	-0.216412	-0.216428
O6	O	1.753040	-0.244018	-0.188837
O7	O	1.582544	-0.115985	-0.244035
O8	O	1.453773	-0.188847	-0.116009
O9	O	1.752906	-0.188820	-0.244028
O10	O	1.582854	-0.244033	-0.116003
O11	O	1.453597	-0.115996	-0.188850
O12	O	1.283316	-0.188822	-0.188835
O13	O	1.453605	-0.316825	-0.244003
O14	O	1.283243	-0.243989	-0.244010
O15	O	1.582758	-0.316844	-0.188823
O16	O	1.582448	-0.188795	-0.316855
O17	O	1.453429	-0.243974	-0.316844
C18	C	1.245159	-0.216405	-0.216422
C19	C	1.128382	-0.216412	-0.216431
C20	C	1.128345	-0.273765	-0.273977
C21	C	1.073466	-0.302442	-0.302753
C22	C	0.963744	-0.302448	-0.302759
C23	C	0.908899	-0.273774	-0.273984
C24	C	0.963778	-0.245096	-0.245207
C25	C	1.073503	-0.245093	-0.245206
C26	C	0.963815	-0.187746	-0.187659
C27	C	1.073537	-0.187738	-0.187656
C28	C	0.908971	-0.159072	-0.158884
C29	C	0.963850	-0.130391	-0.130109
C30	C	1.073578	-0.130386	-0.130105
C31	C	1.128416	-0.159060	-0.158879
C32	C	1.518191	-0.333591	-0.216410
C33	C	1.518219	-0.383525	-0.216403
C34	C	1.451097	-0.693177	-0.187623
C35	C	1.451127	-0.880851	-0.187592
O36	O	1.394005	-0.905123	-0.163167
N37	N	1.518269	-0.904310	-0.216319
C38	C	1.585403	-0.880849	-0.245058
O39	O	1.642504	-0.905109	-0.269494
C40	C	1.585367	-0.693177	-0.245091
C41	C	1.518228	-0.669719	-0.216359
C42	C	1.383963	-0.669720	-0.158894
C43	C	1.383961	-0.622804	-0.158900
C44	C	1.451092	-0.599346	-0.187636
C45	C	1.518226	-0.622804	-0.216365
C46	C	1.652495	-0.669716	-0.273831
C47	C	1.652478	-0.622795	-0.273838
C48	C	1.585340	-0.599338	-0.245106
C49	C	1.585354	-0.552430	-0.245107
N50	N	1.518213	-0.528971	-0.216380
C51	C	1.451081	-0.552429	-0.187645
C52	C	1.585418	-0.979380	-0.245038
C53	C	1.585429	-1.026298	-0.245029
C54	C	1.451151	-1.026296	-0.187564
C55	C	1.451147	-0.979377	-0.187571
C56	C	1.518277	-0.955920	-0.216311
C57	C	1.451081	-0.453903	-0.187660
C58	C	1.451088	-0.406983	-0.187668
C59	C	1.585361	-0.406989	-0.245134
C60	C	1.585359	-0.453904	-0.245125
C61	C	1.518211	-0.477360	-0.216386
O62	O	1.642438	-0.528129	-0.269523
O63	O	1.393972	-0.528160	-0.163219
C64	C	1.451100	-0.740093	-0.187617
C65	C	1.518234	-0.763550	-0.216346
C66	C	1.585365	-0.740092	-0.245082
C67	C	1.518244	-0.810468	-0.216337
C68	C	1.451113	-0.833926	-0.187602
C69	C	1.383971	-0.810466	-0.158875
C70	C	1.383969	-0.763551	-0.158881
C71	C	1.652507	-0.763552	-0.273809
C72	C	1.652505	-0.810468	-0.273799
C73	C	1.585374	-0.833926	-0.245064
C74	C	1.792159	-0.216420	-0.216434
C75	C	1.908936	-0.216424	-0.216436
C76	C	1.517936	-0.216390	-0.333150
C77	C	1.517951	-0.216395	-0.383085
C78	C	1.518122	-0.099690	-0.216412
C79	C	1.518298	-0.049756	-0.216293
C80	C	1.585429	-0.187723	-0.692721
C81	C	1.585558	-0.187740	-0.880394
O82	O	1.642779	-0.163344	-0.904653
N83	N	1.518344	-0.216446	-0.903870
C84	C	1.451097	-0.245152	-0.880424
O85	O	1.393938	-0.269572	-0.904698
C86	C	1.450974	-0.245136	-0.692752
C87	C	1.518185	-0.216425	-0.669279
C88	C	1.652635	-0.159014	-0.669248
C89	C	1.652598	-0.159008	-0.622332
C90	C	1.585354	-0.187711	-0.598890
C91	C	1.518148	-0.216420	-0.622363
C92	C	1.383733	-0.273844	-0.669307
C93	C	1.383710	-0.273839	-0.622386
C94	C	1.450921	-0.245127	-0.598913
C95	C	1.450867	-0.245116	-0.552006
N96	N	1.518081	-0.216410	-0.528530
C97	C	1.585325	-0.187708	-0.551972
C98	C	1.451165	-0.245157	-0.978955
C99	C	1.451195	-0.245161	-1.025873
C100	C	1.585658	-0.187749	-1.025839
C101	C	1.585622	-0.187744	-0.978921
C102	C	1.518380	-0.216451	-0.955479
C103	C	1.585241	-0.187697	-0.453447
C104	C	1.585195	-0.187693	-0.406527
C105	C	1.450737	-0.245106	-0.406564
C106	C	1.450778	-0.245109	-0.453480
C107	C	1.518039	-0.216403	-0.476920
O108	O	1.393684	-0.269503	-0.527718
O109	O	1.642492	-0.163298	-0.527691
C110	C	1.585466	-0.187728	-0.739637
C111	C	1.518259	-0.216437	-0.763110
C112	C	1.451015	-0.245140	-0.739668
C113	C	1.518289	-0.216440	-0.810028
C114	C	1.585532	-0.187738	-0.833470
C115	C	1.652747	-0.159032	-0.809994
C116	C	1.652709	-0.159026	-0.763079
C117	C	1.383801	-0.273846	-0.763143
C118	C	1.383843	-0.273849	-0.810059
C119	C	1.451087	-0.245146	-0.833501
C120	C	1.518345	-0.216444	-0.099249
C121	C	1.518439	-0.216458	-0.049315
H122	H	1.118254	-0.107036	-0.106669
C123	C	1.377247	-0.276741	-1.051688
N124	N	1.321551	-0.300530	-1.071130
C125	C	1.659562	-0.156161	-0.953105
N126	N	1.715259	-0.132372	-0.933662
H127	H	1.217686	-0.273760	-0.273979
C128	C	0.788274	-0.159083	-0.158887
N129	N	0.697363	-0.159091	-0.158888
C130	C	1.659220	-0.479708	-0.276729
N131	N	1.714847	-0.499141	-0.300537
H132	H	0.919187	-0.107049	-0.106681
H133	H	1.328997	-0.297222	-0.688411
C134	C	1.377300	-1.052108	-0.155957
N135	N	1.321673	-1.071552	-0.132154
C136	C	1.377224	-0.381183	-0.156060
N137	N	1.321589	-0.361751	-0.132255
C138	C	1.133803	-0.333981	-0.334406
N139	N	1.179246	-0.357735	-0.358248
H140	H	1.707496	-0.135660	-0.829089
C141	C	1.310114	-0.695516	-0.127276
N142	N	1.254494	-0.714943	-0.103457
H143	H	1.329102	-0.297228	-0.829167
C144	C	1.249113	-0.159054	-0.158880
N145	N	1.340024	-0.159052	-0.158882
C146	C	0.903375	-0.333994	-0.334415
N147	N	0.857905	-0.357754	-0.358258
H148	H	1.395984	-0.268474	-0.387470
C149	C	1.377283	-0.953578	-0.155966
N150	N	1.321643	-0.934149	-0.132162
H151	H	1.707399	-0.135641	-0.688330
H152	H	0.819558	-0.273785	-0.273987
H153	H	1.396404	-0.472995	-0.164258
H154	H	1.329285	-0.603710	-0.135506
H155	H	1.707330	-0.135631	-0.603223
C156	C	1.726394	-0.737755	-0.305408
N157	N	1.782066	-0.718326	-0.329204
H158	H	1.639926	-0.164311	-0.387417
H159	H	1.640014	-0.164323	-0.472526
H160	H	1.640410	-0.164379	-1.044934
C161	C	1.377216	-0.276752	-0.953175
N162	N	1.321525	-0.300552	-0.933760
H163	H	1.328954	-0.297217	-0.603303
H164	H	1.640084	-0.960285	-0.268444
H165	H	1.707151	-0.603699	-0.297239
C166	C	1.659295	-1.052095	-0.276633
N167	N	1.714928	-1.071525	-0.300440
H168	H	1.707439	-0.135647	-0.743970
H169	H	1.707166	-0.688807	-0.297229
C170	C	1.659198	-0.381176	-0.276743
N171	N	1.714807	-0.361733	-0.300554
C172	C	1.310126	-0.836279	-0.127266
N173	N	1.254504	-0.855724	-0.103462
C174	C	1.726367	-0.836265	-0.305409
N175	N	1.781992	-0.855695	-0.329221
C176	C	1.376839	-0.276691	-0.479301
N177	N	1.321155	-0.300482	-0.498747
C178	C	1.309852	-0.305435	-0.737363
N179	N	1.254155	-0.329233	-0.717948
H180	H	1.329298	-0.744456	-0.135485
