data_functionalizedCrystal
_audit_creation_method	'MofGen! by Chris Wilmer'
_symmetry_space_group_name_H-M	'P1'
_symmetry_Int_Tables_number	1
_symmetry_cell_setting	triclinic
loop_
_symmetry_equiv_pos_as_xyz
  x,y,z
_cell_length_a	12.759394
_cell_length_b	12.759401
_cell_length_c	12.759393
_cell_angle_alpha	89.981504
_cell_angle_beta	89.967706
_cell_angle_gamma	90.014998
loop_
_atom_site_label
_atom_site_type_symbol
_atom_site_fract_x
_atom_site_fract_y
_atom_site_fract_z
Zn1	Zn	-0.418200	1.606254	-0.593976
Zn2	Zn	-0.593919	1.606148	-0.418294
Zn3	Zn	-0.418255	1.430556	-0.418315
Zn4	Zn	-0.593838	1.430545	-0.593935
O5	O	-0.506053	1.518376	-0.506130
O6	O	-0.441520	1.753261	-0.570679
O7	O	-0.570674	1.582816	-0.271276
O8	O	-0.271227	1.453912	-0.441643
O9	O	-0.570620	1.753183	-0.441607
O10	O	-0.271186	1.582997	-0.570700
O11	O	-0.441614	1.453810	-0.271291
O12	O	-0.441536	1.283534	-0.441604
O13	O	-0.570482	1.453892	-0.740962
O14	O	-0.570536	1.283525	-0.570631
O15	O	-0.441442	1.582986	-0.740992
O16	O	-0.740929	1.582805	-0.441567
O17	O	-0.740870	1.453789	-0.570610
C18	C	-0.506034	1.245409	-0.506116
C19	C	-0.506051	1.128632	-0.506135
C20	C	-0.573329	1.073793	-0.573208
C21	C	-0.573342	0.964069	-0.573219
C22	C	-0.438796	0.964032	-0.439075
C23	C	-0.438779	1.073755	-0.439070
C24	C	-0.651011	1.073813	-0.650652
C25	C	-0.651024	0.964089	-0.650664
C26	C	-0.779021	1.518313	-0.506105
C27	C	-0.895797	1.518382	-0.506129
C28	C	-0.895806	1.652826	-0.371857
C29	C	-0.950671	1.720076	-0.304734
C30	C	-1.060392	1.720138	-0.304762
C31	C	-1.115251	1.652945	-0.371924
C32	C	-1.060386	1.585695	-0.439047
C33	C	-0.950662	1.585638	-0.439009
C34	C	-1.060378	1.451257	-0.573323
C35	C	-0.950656	1.451189	-0.573291
C36	C	-1.115237	1.384064	-0.640484
C37	C	-1.060372	1.316808	-0.707604
C38	C	-0.950644	1.316748	-0.707572
C39	C	-0.895791	1.383939	-0.640414
C40	C	-0.232020	1.518468	-0.506179
C41	C	-0.115243	1.518507	-0.506199
C42	C	-0.505947	1.518449	-0.780164
C43	C	-0.505902	1.518481	-0.896940
C44	C	-0.506073	1.792409	-0.506145
C45	C	-0.506082	1.909186	-0.506151
C46	C	-0.438704	1.585709	-0.951820
C47	C	-0.438666	1.585734	-1.061544
C48	C	-0.573033	1.451300	-1.061500
C49	C	-0.573065	1.451270	-0.951778
C50	C	-0.361132	1.663327	-0.951846
C51	C	-0.361094	1.663352	-1.061570
C52	C	-0.506083	1.518363	-0.233163
C53	C	-0.505832	1.518535	-0.116387
H54	H	-0.806465	1.652770	-0.371814
O55	O	-0.395939	1.755426	-0.911058
C56	C	-0.433284	1.854431	-0.754647
C57	C	-0.393863	1.750069	-0.800701
H58	H	-0.431599	1.850142	-0.665418
H59	H	-0.516942	1.869472	-0.782131
H60	H	-0.380421	1.920973	-0.782309
H61	H	-0.446650	1.683462	-0.773059
H62	H	-0.310188	1.735119	-0.773222
O63	O	-0.387211	1.760340	-1.097238
C64	C	-0.508347	1.863569	-1.198836
C65	C	-0.478884	1.753675	-1.158530
H66	H	-0.582479	1.858221	-1.248381
H67	H	-0.441552	1.896062	-1.248553
H68	H	-0.522859	1.917799	-1.129340
H69	H	-0.464389	1.699365	-1.227963
H70	H	-0.545695	1.721268	-1.108782
H71	H	-0.283785	1.634238	-1.095619
O72	O	-0.638235	1.385993	-0.898305
C73	C	-0.697876	1.326405	-0.729254
C74	C	-0.623998	1.400371	-0.789680
H75	H	-0.686406	1.338020	-0.641420
H76	H	-0.679401	1.241680	-0.750750
H77	H	-0.782578	1.344810	-0.750868
H78	H	-0.539271	1.382061	-0.768098
H79	H	-0.642563	1.485074	-0.768179
O80	O	-0.373381	1.126863	-0.373827
C81	C	-0.239866	1.115244	-0.240841
C82	C	-0.313899	1.054968	-0.314657
H83	H	-0.191740	1.057143	-0.192999
H84	H	-0.287964	1.166563	-0.185741
H85	H	-0.185032	1.166661	-0.289199
H86	H	-0.368748	1.003494	-0.266384
H87	H	-0.265735	1.003716	-0.369761
O88	O	-0.638389	1.386170	-1.114817
C89	C	-0.780154	1.372012	-1.238706
C90	C	-0.706217	1.445891	-1.178376
H91	H	-0.834997	1.420266	-1.290125
H92	H	-0.828266	1.323978	-1.180678
H93	H	-0.731876	1.317085	-1.290036
H94	H	-0.754414	1.500882	-1.127044
H95	H	-0.658101	1.493852	-1.236461
O96	O	-0.373560	0.910560	-0.373956
C97	C	-0.313918	0.741512	-0.314551
C98	C	-0.387866	0.801935	-0.388340
H99	H	-0.325443	0.653678	-0.326170
H100	H	-0.332272	0.762974	-0.229780
H101	H	-0.229231	0.763164	-0.333130
H102	H	-0.472578	0.780315	-0.369855
H103	H	-0.369422	0.780468	-0.473089
O104	O	-0.748017	0.928356	-0.624548
C105	C	-0.857797	0.777526	-0.594883
C106	C	-0.747919	0.817851	-0.624497
H107	H	-0.857749	0.688179	-0.594810
H108	H	-0.917473	0.807240	-0.654341
H109	H	-0.879498	0.807319	-0.513492
H110	H	-0.726119	0.788074	-0.705863
H111	H	-0.688307	0.788146	-0.564971
H112	H	-0.279767	1.641558	-0.922091
O113	O	-0.625002	1.109513	-0.747686
C114	C	-0.503943	1.211171	-0.851145
C115	C	-0.533287	1.170830	-0.741199
H116	H	-0.429778	1.260736	-0.845941
H117	H	-0.570753	1.260877	-0.883485
H118	H	-0.489539	1.141692	-0.905423
H119	H	-0.547675	1.240245	-0.686841
H120	H	-0.466461	1.121092	-0.708945
O121	O	-1.113812	1.785320	-0.239514
C122	C	-1.237770	1.799583	-0.097688
C123	C	-1.177355	1.725647	-0.171526
H124	H	-1.289142	1.751366	-0.042686
H125	H	-1.289124	1.854500	-0.145934
H126	H	-1.179704	1.847627	-0.049731
H127	H	-1.235346	1.677534	-0.219498
H128	H	-1.125986	1.670799	-0.123220
O129	O	-0.897464	1.251476	-0.772926
C130	C	-0.863736	1.200435	-0.951597
C131	C	-0.924040	1.274403	-0.877700
H132	H	-0.885182	1.218960	-1.036323
H133	H	-0.885415	1.115720	-0.933182
H134	H	-0.775896	1.211912	-0.939987
H135	H	-1.011893	1.263020	-0.889269
H136	H	-0.902273	1.359091	-0.896133
O137	O	-0.743252	1.114228	-0.615739
C138	C	-0.916549	1.077772	-0.549988
C139	C	-0.812152	1.031862	-0.589534
H140	H	-0.972275	1.011202	-0.528770
H141	H	-0.953192	1.128044	-0.614111
H142	H	-0.901434	1.128073	-0.477730
H143	H	-0.827177	0.981515	-0.661773
H144	H	-0.775540	0.981651	-0.525347
H145	H	-0.621980	0.930091	-0.728016
H146	H	-0.806450	1.383890	-0.640375
H147	H	-0.905995	1.774786	-0.250053
H148	H	-1.204578	1.384124	-0.640507
O149	O	-1.113776	1.251691	-0.772890
C150	C	-1.237496	1.237577	-0.914806
C151	C	-1.177095	1.311440	-0.840920
H152	H	-1.288687	1.285855	-0.969842
H153	H	-1.289029	1.182715	-0.866601
H154	H	-1.179420	1.189470	-0.962725
H155	H	-1.235095	1.359615	-0.792986
H156	H	-1.125546	1.366233	-0.889186
H157	H	-1.204592	1.653010	-0.371950
