data_functionalizedCrystal
_audit_creation_method	'MofGen! by Chris Wilmer'
_symmetry_space_group_name_H-M	'P1'
_symmetry_Int_Tables_number	1
_symmetry_cell_setting	triclinic
loop_
_symmetry_equiv_pos_as_xyz
  x,y,z
_cell_length_a	14.908571
_cell_length_b	18.050589
_cell_length_c	14.908308
_cell_angle_alpha	93.269302
_cell_angle_beta	90.175053
_cell_angle_gamma	86.724558
loop_
_atom_site_label
_atom_site_type_symbol
_atom_site_fract_x
_atom_site_fract_y
_atom_site_fract_z
Zn1	Zn	1.345230	-0.387558	-0.587600
Zn2	Zn	1.353791	-0.505024	-0.437245
Zn3	Zn	1.203548	-0.373294	-0.428597
Zn4	Zn	1.194819	-0.504142	-0.578897
O5	O	1.274347	-0.442504	-0.508085
O6	O	1.472191	-0.409479	-0.574916
O7	O	1.341097	-0.481949	-0.310273
O8	O	1.222413	-0.271266	-0.449712
O9	O	1.478480	-0.495781	-0.464452
O10	O	1.326506	-0.281746	-0.566530
O11	O	1.230714	-0.385168	-0.303919
O12	O	1.076565	-0.384312	-0.441273
O13	O	1.207536	-0.494277	-0.705876
O14	O	1.070152	-0.480446	-0.551698
O15	O	1.318042	-0.408624	-0.712270
O16	O	1.332633	-0.608827	-0.456013
O17	O	1.215836	-0.608179	-0.560084
C18	C	1.040734	-0.430736	-0.494603
C19	C	0.940791	-0.425720	-0.488857
C20	C	0.746369	-0.516539	-0.592890
C21	C	0.652464	-0.511829	-0.587494
C22	C	0.659075	-0.411586	-0.472674
C23	C	0.752980	-0.416296	-0.478070
C24	C	0.796623	-0.468775	-0.538179
C25	C	0.890530	-0.473489	-0.543570
C26	C	0.897139	-0.373243	-0.428755
C27	C	0.803235	-0.368533	-0.423359
C28	C	1.274239	-0.635451	-0.508063
C29	C	1.274274	-0.717999	-0.508089
C30	C	1.210820	-0.917126	-0.564665
C31	C	1.193639	-0.961795	-0.481356
C32	C	1.274362	-0.869134	-0.508106
C33	C	1.291586	-0.971550	-0.591427
C34	C	1.274444	-1.015125	-0.508129
C35	C	1.257140	-0.912712	-0.424750
C36	C	1.355122	-0.922467	-0.534880
C37	C	1.337975	-0.967112	-0.451515
C38	C	1.274312	-0.785033	-0.508094
C39	C	1.274495	-1.099224	-0.508132
C40	C	1.508873	-0.454320	-0.521619
C41	C	1.608814	-0.459355	-0.527387
C42	C	1.260860	-0.452943	-0.742610
C43	C	1.255113	-0.457391	-0.842551
C44	C	1.274479	-0.248807	-0.508127
C45	C	1.274535	-0.166265	-0.508145
C46	C	1.359381	-0.376542	-1.037010
C47	C	1.353984	-0.380719	-1.130914
C48	C	1.238917	-0.469919	-1.124263
C49	C	1.244314	-0.465741	-1.030360
C50	C	1.304549	-0.419052	-0.986737
C51	C	1.309951	-0.414880	-0.892832
C52	C	1.194880	-0.504075	-0.886183
C53	C	1.189483	-0.508252	-0.980086
C54	C	1.287833	-0.432055	-0.274474
C55	C	1.293755	-0.427407	-0.174544
H56	H	0.611550	-0.550721	-0.632047
H57	H	1.125381	-0.979255	-0.458730
C58	C	0.951546	-0.321338	-0.369245
C59	C	0.893223	-0.274386	-0.315437
C60	C	0.943310	-0.226571	-0.260597
H61	H	0.986229	-0.292325	-0.405710
H62	H	0.990395	-0.349769	-0.332064
H63	H	0.854389	-0.245957	-0.352614
H64	H	0.858539	-0.303378	-0.278954
H65	H	0.982159	-0.255002	-0.223416
H66	H	0.977991	-0.197563	-0.297069
H67	H	0.903746	-0.194713	-0.224076
C68	C	1.446154	-0.899136	-0.564913
C69	C	1.483971	-0.855049	-0.496028
C70	C	1.567834	-0.833552	-0.523668
H71	H	1.438906	-0.871497	-0.617050
H72	H	1.484645	-0.942105	-0.578239
H73	H	1.445489	-0.812087	-0.482714
H74	H	1.491241	-0.882673	-0.443885
H75	H	1.606326	-0.876521	-0.536994
H76	H	1.560578	-0.805916	-0.575806
H77	H	1.593507	-0.803642	-0.476931
C78	C	0.937973	-0.530549	-0.608684
C79	C	0.994768	-0.578535	-0.560778
C80	C	1.038474	-0.631113	-0.620734
H81	H	0.972442	-0.505862	-0.650044
H82	H	0.894619	-0.558362	-0.640482
H83	H	1.038116	-0.550725	-0.528995
H84	H	0.960321	-0.603239	-0.519422
H85	H	0.995120	-0.658926	-0.652533
H86	H	1.072938	-0.606420	-0.662091
H87	H	1.077008	-0.663682	-0.588238
H88	H	0.623524	-0.368856	-0.423742
H89	H	0.767687	-0.325804	-0.374423
H90	H	1.150234	-0.538692	-0.845240
H91	H	1.157015	-0.895182	-0.612419
H92	H	0.781904	-0.559273	-0.641828
H93	H	1.242524	-0.887110	-0.354272
H94	H	1.140439	-0.546263	-1.015617
C95	C	1.409566	-0.996135	-0.387530
C96	C	1.391149	-0.966033	-0.300458
C97	C	1.457068	-0.992761	-0.241487
H98	H	1.466802	-0.982031	-0.405915
H99	H	1.409525	-1.048795	-0.388195
H100	H	1.391199	-0.913385	-0.299796
H101	H	1.333925	-0.980134	-0.282045
H102	H	1.457027	-1.045420	-0.242152
H103	H	1.514299	-0.978655	-0.259881
H104	H	1.444577	-0.972346	-0.182401
H105	H	1.306123	-0.997236	-0.661882
C106	C	1.424804	-0.325785	-0.989806
C107	C	1.471658	-0.289439	-1.053933
C108	C	1.531926	-0.242668	-1.010483
H109	H	1.466146	-0.354459	-0.955430
H110	H	1.392554	-0.290028	-0.951217
H111	H	1.503906	-0.325191	-1.092507
H112	H	1.430341	-0.260751	-1.088313
H113	H	1.499676	-0.206911	-0.971894
H114	H	1.573261	-0.271348	-0.976108
H115	H	1.563718	-0.217997	-1.053986
H116	H	1.398631	-0.346101	-1.171843
H117	H	1.358998	-0.376864	-0.857315
C118	C	1.173597	-0.520576	-1.171802
C119	C	1.180617	-0.515137	-1.264799
C120	C	1.120461	-0.561794	-1.308621
H121	H	1.114037	-0.506023	-1.153029
H122	H	1.187603	-0.570474	-1.157228
H123	H	1.166605	-0.465250	-1.279366
H124	H	1.240164	-0.529696	-1.283598
H125	H	1.134466	-0.611693	-1.294047
H126	H	1.060904	-0.547238	-1.289840
H127	H	1.125221	-0.558116	-1.371723
