data_functionalizedCrystal
_audit_creation_method	'MofGen! by Chris Wilmer'
_symmetry_space_group_name_H-M	'P1'
_symmetry_Int_Tables_number	1
_symmetry_cell_setting	triclinic
loop_
_symmetry_equiv_pos_as_xyz
  x,y,z
_cell_length_a	12.645331
_cell_length_b	18.050589
_cell_length_c	12.645323
_cell_angle_alpha	89.972583
_cell_angle_beta	89.978207
_cell_angle_gamma	90.027200
loop_
_atom_site_label
_atom_site_type_symbol
_atom_site_fract_x
_atom_site_fract_y
_atom_site_fract_z
Zn1	Zn	1.620644	-0.295659	-0.599442
Zn2	Zn	1.953978	0.037674	-0.266109
Zn3	Zn	2.287311	0.371007	0.067225
Zn4	Zn	1.620496	-0.419863	-0.422180
Zn5	Zn	1.953830	-0.086529	-0.088847
Zn6	Zn	2.287163	0.246804	0.244486
Zn7	Zn	1.443362	-0.295689	-0.422186
Zn8	Zn	1.776695	0.037645	-0.088853
Zn9	Zn	2.110028	0.370978	0.244480
Zn10	Zn	1.443308	-0.419810	-0.599396
Zn11	Zn	1.776642	-0.086476	-0.266062
Zn12	Zn	2.109975	0.246857	0.067271
O13	O	1.531953	-0.357755	-0.510801
O14	O	1.865286	-0.024422	-0.177468
O15	O	2.198619	0.308912	0.155866
O16	O	1.768972	-0.312145	-0.575945
O17	O	2.102305	0.021188	-0.242611
O18	O	2.435639	0.354522	0.090722
O19	O	1.596959	-0.403425	-0.273834
O20	O	1.930293	-0.070092	0.059500
O21	O	2.263626	0.263242	0.392833
O22	O	1.466963	-0.191760	-0.445722
O23	O	1.800296	0.141573	-0.112388
O24	O	2.133630	0.474906	0.220945
O25	O	1.768863	-0.403397	-0.445711
O26	O	2.102197	-0.070063	-0.112378
O27	O	2.435530	0.263270	0.220955
O28	O	1.597212	-0.191739	-0.575951
O29	O	1.930545	0.141595	-0.242617
O30	O	2.263879	0.474928	0.090716
O31	O	1.466819	-0.312195	-0.273838
O32	O	1.800153	0.021138	0.059495
O33	O	2.133486	0.354472	0.392828
O34	O	1.295007	-0.312144	-0.445677
O35	O	1.628341	0.021189	-0.112343
O36	O	1.961674	0.354523	0.220990
O37	O	1.466872	-0.403307	-0.747749
O38	O	1.800205	-0.069973	-0.414416
O39	O	2.133539	0.263360	-0.081083
O40	O	1.294968	-0.403335	-0.575872
O41	O	1.628301	-0.070002	-0.242538
O42	O	1.961635	0.263332	0.090795
O43	O	1.597160	-0.312094	-0.747783
O44	O	1.930493	0.021240	-0.414450
O45	O	2.263827	0.354573	-0.081117
O46	O	1.596907	-0.523780	-0.445666
O47	O	1.930241	-0.190447	-0.112333
O48	O	2.263574	0.142886	0.221000
O49	O	1.466728	-0.523741	-0.575866
O50	O	1.800062	-0.190408	-0.242532
O51	O	2.133395	0.142925	0.090801
C52	C	1.256523	-0.357737	-0.510770
C53	C	1.589856	-0.024404	-0.177437
C54	C	1.923190	0.308929	0.155896
C55	C	1.138693	-0.357748	-0.510783
C56	C	1.472026	-0.024414	-0.177449
C57	C	1.805360	0.308919	0.155884
C58	C	0.971118	-0.300116	-0.429329
C59	C	1.304452	0.033218	-0.095995
C60	C	1.637785	0.366551	0.237338
C61	C	1.093678	-0.300265	-0.428970
C62	C	1.427011	0.033069	-0.095637
C63	C	1.760345	0.366402	0.237697
C64	C	1.094153	-0.435982	-0.480267
C65	C	1.427486	-0.102648	-0.146933
C66	C	1.760819	0.230685	0.186400
C67	C	0.971554	-0.435667	-0.479711
C68	C	1.304888	-0.102334	-0.146377
C69	C	1.638221	0.231000	0.186956
C70	C	0.971547	-0.337891	-0.623067
C71	C	1.304880	-0.004557	-0.289733
C72	C	1.638214	0.328776	0.043600
C73	C	1.094153	-0.336143	-0.622443
C74	C	1.427487	-0.002810	-0.289110
C75	C	1.760820	0.330524	0.044224
C76	C	1.531825	-0.550707	-0.510784
C77	C	1.865158	-0.217374	-0.177450
C78	C	2.198491	0.115959	0.155883
C79	C	1.531867	-0.633253	-0.510811
C80	C	1.865200	-0.299920	-0.177478
C81	C	2.198534	0.033414	0.155855
C82	C	1.461145	-0.832710	-0.581589
C83	C	1.794478	-0.499376	-0.248256
C84	C	2.127812	-0.166043	0.085078
C85	C	1.435300	-0.882154	-0.484854
C86	C	1.768633	-0.548821	-0.151521
C87	C	2.101967	-0.215487	0.181812
C88	C	1.531971	-0.784383	-0.510825
C89	C	1.865304	-0.451050	-0.177492
C90	C	2.198638	-0.117717	0.155841
C91	C	1.557868	-0.882021	-0.607571
C92	C	1.891202	-0.548687	-0.274238
C93	C	2.224535	-0.215354	0.059096
C94	C	1.532070	-0.930368	-0.510847
C95	C	1.865403	-0.597035	-0.177514
C96	C	2.198736	-0.263702	0.155820
C97	C	1.506075	-0.832741	-0.414039
C98	C	1.839408	-0.499407	-0.080706
C99	C	2.172742	-0.166074	0.252627
C100	C	1.628688	-0.832603	-0.536821
C101	C	1.962022	-0.499269	-0.203488
C102	C	2.295355	-0.165936	0.129846
C103	C	1.602880	-0.882025	-0.440020
C104	C	1.936213	-0.548692	-0.106687
C105	C	2.269547	-0.215358	0.226647
C106	C	1.531912	-0.700285	-0.510814
C107	C	1.865245	-0.366952	-0.177481
C108	C	2.198578	-0.033618	0.155853
C109	C	1.532129	-1.014465	-0.510847
C110	C	1.865463	-0.681132	-0.177514
C111	C	2.198796	-0.347798	0.155819
C112	C	1.808458	-0.357773	-0.510832
C113	C	2.141791	-0.024440	-0.177499
C114	C	2.475125	0.308893	0.155834
C115	C	1.926288	-0.357781	-0.510846
C116	C	2.259621	-0.024448	-0.177513
C117	C	2.592955	0.308886	0.155821
C118	C	1.532027	-0.357691	-0.787307
C119	C	1.865360	-0.024358	-0.453973
C120	C	2.198693	0.308976	-0.120640
C121	C	1.532058	-0.357664	-0.905137
C122	C	1.865391	-0.024330	-0.571803
C123	C	2.198725	0.309003	-0.238470
C124	C	1.532110	-0.164049	-0.510842
C125	C	1.865443	0.169284	-0.177509
C126	C	2.198777	0.502617	0.155825
C127	C	1.532177	-0.081504	-0.510859
C128	C	1.865510	0.251830	-0.177526
C129	C	2.198844	0.585163	0.155807
C130	C	1.450099	-0.415034	-0.949997
C131	C	1.783432	-0.081701	-0.616664
C132	C	2.116765	0.251633	-0.283331
C133	C	1.449810	-0.414818	-1.072557
C134	C	1.783143	-0.081485	-0.739224
C135	C	2.116477	0.251848	-0.405891
C136	C	1.502209	-0.279273	-1.073040
C137	C	1.835543	0.054060	-0.739707
C138	C	2.168876	0.387394	-0.406373
C139	C	1.501582	-0.279651	-0.950442
C140	C	1.834915	0.053682	-0.617108
C141	C	2.168249	0.387015	-0.283775
C142	C	1.644141	-0.377902	-0.950327
C143	C	1.977474	-0.044569	-0.616994
C144	C	2.310808	0.288764	-0.283661
C145	C	1.643572	-0.379582	-1.072934
C146	C	1.976906	-0.046249	-0.739600
C147	C	2.310239	0.287084	-0.406267
C148	C	1.531940	-0.357765	-0.235371
C149	C	1.865273	-0.024432	0.097962
C150	C	2.198607	0.308901	0.431295
C151	C	1.532114	-0.357583	-0.117542
C152	C	1.865447	-0.024250	0.215791
C153	C	2.198781	0.309083	0.549125
H154	H	0.941669	-0.241928	-0.448251
H155	H	1.275003	0.091406	-0.114917
H156	H	1.608336	0.424739	0.218416
Cl157	Cl	0.923469	-0.320172	-0.301693
Cl158	Cl	1.256802	0.013161	0.031640
Cl159	Cl	1.590135	0.346494	0.364974
H160	H	1.367519	-0.401782	-0.919185
H161	H	1.700853	-0.068448	-0.585852
H162	H	2.034186	0.264885	-0.252518
H163	H	1.558703	-0.235432	-0.920765
H164	H	1.892036	0.097901	-0.587431
H165	H	2.225370	0.431234	-0.254098
Cl166	Cl	1.377149	-0.252341	-1.120435
Cl167	Cl	1.710482	0.080993	-0.787102
Cl168	Cl	2.043815	0.414326	-0.453768
H169	H	1.419665	-0.262527	-0.921844
H170	H	1.752998	0.070807	-0.588510
H171	H	2.086332	0.404140	-0.255177
H172	H	1.122954	-0.313411	-0.345809
H173	H	1.456287	0.019922	-0.012476
H174	H	1.789620	0.353255	0.320857
Cl175	Cl	1.678403	-0.468564	-1.117839
Cl176	Cl	2.011737	-0.135230	-0.784505
Cl177	Cl	2.345070	0.198103	-0.451172
Cl178	Cl	1.309087	-0.915757	-0.450909
Cl179	Cl	1.642420	-0.582423	-0.117575
Cl180	Cl	1.975754	-0.249090	0.215758
H181	H	1.468478	-0.472879	-1.102646
H182	H	1.801811	-0.139546	-0.769313
H183	H	2.135144	0.193788	-0.435980
Cl184	Cl	1.695422	-0.915248	-0.347540
Cl185	Cl	2.028755	-0.581915	-0.014207
Cl186	Cl	2.362089	-0.248581	0.319126
Cl187	Cl	0.927318	-0.461705	-0.353048
Cl188	Cl	1.260651	-0.128372	-0.019715
Cl189	Cl	1.593984	0.204961	0.313619
Cl190	Cl	1.686257	-0.464611	-0.902605
Cl191	Cl	2.019590	-0.131278	-0.569271
Cl192	Cl	2.352924	0.202055	-0.235938
Cl193	Cl	1.591625	-0.915445	-0.733874
Cl194	Cl	1.924958	-0.582112	-0.400540
Cl195	Cl	2.258292	-0.248778	-0.067207
H196	H	1.707891	-0.340845	-1.103559
H197	H	2.041224	-0.007511	-0.770226
H198	H	2.374558	0.325822	-0.436893
H199	H	1.468530	-0.473299	-0.920520
H200	H	1.801863	-0.139966	-0.587187
H201	H	2.135196	0.193367	-0.253853
Cl202	Cl	1.140179	-0.210696	-0.458497
Cl203	Cl	1.473512	0.122638	-0.125164
Cl204	Cl	1.806846	0.455971	0.208170
H205	H	1.705201	-0.336114	-0.921324
H206	H	2.038534	-0.002781	-0.587990
H207	H	2.371867	0.330553	-0.254657
Cl208	Cl	0.925761	-0.504251	-0.567371
Cl209	Cl	1.259094	-0.170917	-0.234038
Cl210	Cl	1.592427	0.162416	0.099295
Cl211	Cl	1.139153	-0.504092	-0.569063
Cl212	Cl	1.472486	-0.170758	-0.235729
Cl213	Cl	1.805820	0.162575	0.097604
Cl214	Cl	1.472173	-0.799463	-0.287697
Cl215	Cl	1.805507	-0.466129	0.045636
Cl216	Cl	2.138840	-0.132796	0.378969
Cl217	Cl	1.139129	-0.247264	-0.657986
Cl218	Cl	1.472462	0.086069	-0.324652
Cl219	Cl	1.805795	0.419402	0.008681
H220	H	1.710414	-0.810823	-0.558835
H221	H	2.043748	-0.477490	-0.225502
H222	H	2.377081	-0.144157	0.107832
H223	H	1.560093	-0.235335	-1.102177
H224	H	1.893426	0.097998	-0.768844
H225	H	2.226760	0.431331	-0.435510
Cl226	Cl	0.923873	-0.251348	-0.665913
Cl227	Cl	1.257207	0.081985	-0.332579
Cl228	Cl	1.590540	0.415319	0.000754
Cl229	Cl	1.141470	-0.462473	-0.354962
Cl230	Cl	1.474803	-0.129140	-0.021629
Cl231	Cl	1.808136	0.204194	0.311705
Cl232	Cl	1.141459	-0.396262	-0.721234
Cl233	Cl	1.474793	-0.062929	-0.387901
Cl234	Cl	1.808126	0.270404	-0.054568
Cl235	Cl	0.926787	-0.402735	-0.716842
Cl236	Cl	1.260120	-0.069402	-0.383508
Cl237	Cl	1.593454	0.263932	-0.050175
H238	H	1.401162	-0.811055	-0.641347
H239	H	1.734495	-0.477722	-0.308014
H240	H	2.067828	-0.144388	0.025320
Cl241	Cl	1.321600	-0.394097	-1.117843
Cl242	Cl	1.654933	-0.060764	-0.784509
Cl243	Cl	1.988266	0.272569	-0.451176
