data_functionalizedCrystal
_audit_creation_method	'MofGen! by Chris Wilmer'
_symmetry_space_group_name_H-M	'P1'
_symmetry_Int_Tables_number	1
_symmetry_cell_setting	triclinic
loop_
_symmetry_equiv_pos_as_xyz
  x,y,z
_cell_length_a	27.440280
_cell_length_b	27.440280
_cell_length_c	19.902436
_cell_angle_alpha	90.007166
_cell_angle_beta	59.998531
_cell_angle_gamma	59.999099
loop_
_atom_site_label
_atom_site_type_symbol
_atom_site_fract_x
_atom_site_fract_y
_atom_site_fract_z
Zr1	Zr	0.533417	0.469481	-0.088206
O2	O	0.635096	0.391659	-0.195522
O3	O	0.431739	0.493341	-0.055293
O4	O	0.533405	0.493337	-0.195482
O5	O	0.533439	0.391662	0.055233
O6	O	0.533396	0.573540	-0.195468
O7	O	0.533429	0.391662	-0.055333
O8	O	0.351533	0.573547	0.055305
O9	O	0.715302	0.391655	-0.195539
O10	O	0.473554	0.563368	-0.041264
O11	O	0.473568	0.503513	0.041240
O12	O	0.593267	0.503509	-0.123815
O13	O	0.593281	0.443654	-0.041311
Zr14	Zr	0.533417	0.597395	0.088156
Zr15	Zr	0.533402	0.597396	-0.088184
Zr16	Zr	0.533432	0.469481	0.088133
Zr17	Zr	0.661337	0.469476	-0.088234
Zr18	Zr	0.405498	0.597400	0.088184
O19	O	0.635096	0.573536	0.055242
O20	O	0.635075	0.573536	-0.195490
O21	O	0.635118	0.391658	0.055211
O22	O	0.431739	0.675218	0.195471
O23	O	0.431717	0.675218	-0.055261
O24	O	0.431760	0.493341	0.195440
O25	O	0.533396	0.675214	-0.055284
O26	O	0.533429	0.573540	0.195431
O27	O	0.533439	0.493337	0.195417
O28	O	0.533406	0.675214	0.055282
O29	O	0.715290	0.493330	-0.195522
O30	O	0.351545	0.573547	0.195471
O31	O	0.351533	0.675221	0.195489
O32	O	0.351521	0.675221	0.055322
O33	O	0.715314	0.391655	-0.055373
O34	O	0.715302	0.493330	-0.055355
O35	O	0.473568	0.563368	0.123764
O36	O	0.473554	0.623222	0.041260
O37	O	0.593267	0.563363	-0.041290
O38	O	0.593281	0.503509	0.041213
C39	C	0.373410	0.533444	0.000010
C40	C	0.319105	0.533446	0.000022
C41	C	0.533436	0.373437	-0.000053
C42	C	0.533443	0.319134	-0.000062
C43	C	0.026606	0.489251	-0.060978
C44	C	-0.024411	0.489251	-0.060987
O45	O	-0.013218	0.451685	-0.112823
N46	N	-0.094115	0.533436	-0.000058
C47	C	-0.112802	0.577628	0.060879
O48	O	-0.176775	0.615212	0.112703
C49	C	-0.061785	0.577631	0.060884
C50	C	0.007919	0.533439	-0.000045
C51	C	0.096307	0.445064	-0.121902
C52	C	0.147320	0.445064	-0.121892
C53	C	0.128633	0.489251	-0.060959
C54	C	0.058932	0.533439	-0.000035
C55	C	-0.080473	0.621825	0.121816
C56	C	-0.029449	0.621823	0.121815
C57	C	0.040255	0.577632	0.060887
C58	C	0.091258	0.577626	0.060908
N59	N	0.160962	0.533441	-0.000021
C60	C	0.179650	0.489254	-0.060954
C61	C	-0.219937	0.577621	0.060864
C62	C	-0.270953	0.577616	0.060864
C63	C	-0.182558	0.489240	-0.061003
C64	C	-0.131542	0.489242	-0.060999
C65	C	-0.150233	0.533435	-0.000065
C66	C	0.286778	0.489256	-0.060929
C67	C	0.337792	0.489259	-0.060912
C68	C	0.249393	0.577637	0.060952
C69	C	0.198383	0.577633	0.060938
C70	C	0.217081	0.533440	-0.000009
O71	O	0.080118	0.615175	0.112717
O72	O	0.243623	0.451681	-0.112775
C73	C	0.470917	0.013682	0.043088
C74	C	0.470913	-0.037336	0.043095
O75	O	0.417768	-0.037151	0.079767
N76	N	0.533402	-0.094099	0.000004
C77	C	0.595898	-0.099842	-0.043091
O78	O	0.649049	-0.152807	-0.079742
C79	C	0.595901	-0.048824	-0.043093
C80	C	0.533408	0.007938	-0.000005
C81	C	0.408429	0.070442	0.086173
C82	C	0.408433	0.121456	0.086164
C83	C	0.470925	0.115712	0.043071
C84	C	0.533412	0.058953	-0.000014
C85	C	0.658397	-0.054568	-0.086182
C86	C	0.658395	-0.003544	-0.086180
C87	C	0.595902	0.053218	-0.043093
C88	C	0.595908	0.104223	-0.043116
N89	N	0.533420	0.160985	-0.000025
C90	C	0.470928	0.166730	0.043069
C91	C	0.595887	-0.206981	-0.043082
C92	C	0.595884	-0.257998	-0.043086
C93	C	0.470899	-0.195488	0.043102
C94	C	0.470902	-0.144471	0.043100
C95	C	0.533398	-0.150218	0.000009
C96	C	0.470941	0.273862	0.043046
C97	C	0.470951	0.324879	0.043031
C98	C	0.595936	0.262365	-0.043153
C99	C	0.595927	0.211353	-0.043141
C100	C	0.533424	0.217105	-0.000035
O101	O	0.649026	0.104084	-0.079767
O102	O	0.417786	0.219697	0.079723
C103	C	0.693425	0.533432	-0.000061
C104	C	0.747730	0.533430	-0.000072
C105	C	0.533399	0.533438	-0.220599
C106	C	0.533392	0.533438	-0.295460
C107	C	0.533399	0.693440	0.000002
C108	C	0.533392	0.747742	0.000012
C109	C	0.533426	0.533438	-0.567509
C110	C	0.457908	0.571378	-0.486944
C111	C	0.457861	0.571214	-0.409041
C112	C	0.533409	0.533439	-0.432542
C113	C	0.570918	0.468401	-0.486681
C114	C	0.570435	0.468609	-0.564243
C115	C	0.571975	0.560012	-0.565367
C116	C	0.570556	0.561328	-0.486489
C117	C	0.533403	0.533436	-0.356267
C118	C	0.533434	0.533437	-0.643785
C119	C	0.533436	0.533438	0.220549
C120	C	0.533443	0.533438	0.295410
C121	C	0.373391	0.693446	0.000038
C122	C	0.319080	0.747751	0.000059
C123	C	0.373429	0.533444	0.220584
C124	C	0.319130	0.533446	0.295457
C125	C	0.373410	0.693445	0.220612
C126	C	0.319105	0.747750	0.295494
C127	C	0.693425	0.373431	-0.220662
C128	C	0.747730	0.319126	-0.295544
C129	C	0.693444	0.373431	-0.000088
C130	C	0.747755	0.319126	-0.000109
C131	C	0.693406	0.533432	-0.220635
C132	C	0.747705	0.533430	-0.295507
C133	C	0.293574	0.742009	-0.043015
C134	C	0.242550	0.793030	-0.043012
C135	C	0.217028	0.849791	0.000071
C136	C	0.242539	0.855531	0.043147
C137	C	0.293566	0.804511	0.043138
C138	C	0.293631	0.564691	0.373702
C139	C	0.242619	0.564690	0.444060
C140	C	0.217103	0.533449	0.436170
C141	C	0.242607	0.502201	0.357917
C142	C	0.293622	0.502198	0.287561
C143	C	0.293595	0.804501	0.287593
C144	C	0.242577	0.855532	0.357946
C145	C	0.217066	0.849809	0.436199
C146	C	0.242580	0.793052	0.444098
C147	C	0.293601	0.742024	0.373746
C148	C	0.773246	0.262375	-0.287644
C149	C	0.824280	0.211345	-0.357997
C150	C	0.849794	0.217067	-0.436249
C151	C	0.824276	0.273824	-0.444148
C152	C	0.773246	0.324853	-0.373796
C153	C	0.773266	0.324867	0.042957
C154	C	0.824304	0.273847	0.042934
C155	C	0.849828	0.217086	-0.000151
C156	C	0.824315	0.211346	-0.043223
C157	C	0.773281	0.262366	-0.043205
C158	C	0.773204	0.564678	-0.287591
C159	C	0.824217	0.564688	-0.357936
C160	C	0.849733	0.533446	-0.436195
C161	C	0.824228	0.502197	-0.444109
C162	C	0.773213	0.502192	-0.373766
H163	H	0.302012	0.453271	-0.110559
N164	N	0.644503	0.429331	-0.512907
H165	H	0.667621	0.387741	-0.547646
H166	H	0.670105	0.446538	-0.546055
N167	N	-0.240098	0.625281	0.126598
H168	H	-0.220908	0.648504	0.100036
H169	H	-0.291999	0.653228	0.165173
H170	H	0.709285	-0.100778	-0.121268
N171	N	0.161993	0.904817	0.000076
H172	H	0.149711	0.892561	-0.033750
H173	H	0.119687	0.929355	0.058444
H174	H	0.428432	0.619106	-0.369631
N175	N	0.851821	0.280041	0.089387
H176	H	0.812895	0.302577	0.149656
H177	H	0.888037	0.239088	0.082766
H178	H	0.543787	0.447335	-0.564046
N179	N	0.341026	0.182671	0.132641
H180	H	0.313712	0.187452	0.192903
H181	H	0.350552	0.214092	0.126044
N182	N	0.341024	0.076641	0.132651
H183	H	0.313705	0.099189	0.192913
H184	H	0.313763	0.099166	0.109993
H185	H	0.891273	0.533456	-0.493466
H186	H	-0.327707	0.613596	0.110485
N187	N	0.321143	0.598391	0.382223
H188	H	0.297245	0.618179	0.442472
H189	H	0.372366	0.569700	0.354895
N190	N	0.215105	0.598404	0.528456
H191	H	0.223995	0.569754	0.559559
H192	H	0.239018	0.618199	0.522704
N193	N	0.215056	0.786883	0.528500
H194	H	0.253979	0.764345	0.535093
H195	H	0.178852	0.827844	0.571812
H196	H	0.543201	0.609245	-0.449153
H197	H	0.420015	-0.098256	0.078193
H198	H	0.234188	0.613612	0.110565
N199	N	0.904871	0.162060	-0.000168
H200	H	0.917154	0.174315	0.033658
H201	H	0.887081	0.137525	0.024329
H202	H	0.221825	0.476765	0.351505
N203	N	0.403495	-0.189296	0.089583
H204	H	0.412980	-0.230231	0.083044
H205	H	0.376209	-0.166730	0.149826
H206	H	-0.044676	0.657812	0.171436
N207	N	0.745731	0.256195	-0.203248
H208	H	0.769647	0.212497	-0.208931
H209	H	0.754606	0.276007	-0.172183
N210	N	0.745759	0.256167	-0.089644
H211	H	0.709554	0.297097	-0.083098
H212	H	0.784725	0.233600	-0.149891
N213	N	0.321094	0.680793	-0.089485
H214	H	0.297190	0.684906	-0.116771
H215	H	0.372314	0.658260	-0.132799
H216	H	0.709288	-0.008231	-0.121260
N217	N	0.745689	0.598386	-0.203194
H218	H	0.694468	0.629826	-0.172077
H219	H	0.754623	0.569696	-0.172156
H220	H	0.752457	0.476743	-0.380222
N221	N	0.643562	0.528527	-0.511040
H222	H	0.670445	0.485334	-0.543939
H223	H	0.666045	0.547471	-0.545576
H224	H	0.314377	0.476757	0.223853
N225	N	-0.155646	0.669492	0.187528
H226	H	-0.159731	0.697484	0.226119
H227	H	-0.178733	0.692664	0.160885
H228	H	0.314359	0.809172	0.223882
H229	H	0.646772	-0.304212	-0.078182
H230	H	0.221752	0.901752	0.078223
H231	H	0.845048	0.165136	-0.351549
N232	N	0.643824	0.429123	-0.639818
H233	H	0.644082	0.428950	-0.690743
H234	H	0.670502	0.444878	-0.641192
H235	H	0.314325	0.809194	0.078219
N236	N	0.162032	0.904847	0.512080
H237	H	0.179789	0.929403	0.512108
H238	H	0.119712	0.929357	0.512072
N239	N	0.663297	-0.213183	-0.089572
H240	H	0.702878	-0.256885	-0.116869
H241	H	0.666016	-0.193381	-0.132877
N242	N	0.123203	0.625298	0.126657
H243	H	0.100070	0.648517	0.100080
H244	H	0.100115	0.605984	0.158641
H245	H	0.845104	0.165124	-0.078302
N246	N	0.162079	0.533455	0.512058
H247	H	0.149799	0.557993	0.562820
H248	H	0.119770	0.551227	0.512035
H249	H	0.221808	0.901741	0.351500
N250	N	-0.162399	0.441579	-0.126734
H251	H	-0.181596	0.418361	-0.100167
H252	H	-0.181600	0.460903	-0.158717
H253	H	0.314365	0.695816	0.380190
H254	H	0.891345	0.175511	-0.493528
N255	N	0.403533	0.280065	0.089531
H256	H	0.376213	0.302614	0.149792
H257	H	0.376270	0.302586	0.066873
N258	N	0.851717	0.598394	-0.349389
H259	H	0.827814	0.618178	-0.289137
H260	H	0.902940	0.569709	-0.376714
H261	H	0.845056	0.278476	-0.507870
H262	H	0.752472	0.371061	-0.380239
N263	N	0.745744	0.386084	0.089431
H264	H	0.769658	0.381970	0.116703
H265	H	0.754617	0.408613	0.049881
N266	N	0.851753	0.468500	-0.528518
H267	H	0.842869	0.497158	-0.559613
H268	H	0.902966	0.437064	-0.559563
N269	N	0.412975	0.441600	-0.126638
H270	H	0.417068	0.413612	-0.165244
H271	H	0.436057	0.460932	-0.158572
N272	N	0.403542	0.386099	0.089504
H273	H	0.376225	0.390887	0.149768
H274	H	0.413076	0.417515	0.082898
N275	N	0.222498	0.397417	-0.187632
H276	H	0.226585	0.369434	-0.226237
H277	H	0.245565	0.416760	-0.219561
N278	N	0.116472	0.397403	-0.187633
H279	H	0.168371	0.369416	-0.226222
H280	H	0.097237	0.374225	-0.161006
H281	H	-0.074788	0.453254	-0.110607
H282	H	0.646813	0.165134	-0.078237
H283	H	0.428263	0.619394	-0.485230
N284	N	0.663335	0.256175	-0.089635
H285	H	0.653849	0.297110	-0.083096
H286	H	0.690626	0.233617	-0.067024
N287	N	0.418838	0.547198	-0.485944
H288	H	0.449844	0.511775	-0.537451
H289	H	0.403175	0.534394	-0.436002
H290	H	0.428251	0.552784	-0.369998
H291	H	0.547802	0.607181	-0.568340
N292	N	0.536428	0.440013	-0.437081
H293	H	0.538561	0.438416	-0.387853
H294	H	0.486693	0.464450	-0.417760
N295	N	0.645667	0.523584	-0.640583
H296	H	0.654070	0.490034	-0.675894
H297	H	0.654335	0.549977	-0.673178
N298	N	0.215043	0.786831	-0.089474
H299	H	0.238951	0.743131	-0.116759
H300	H	0.163822	0.806643	-0.049917
