data_functionalizedCrystal
_audit_creation_method	'MofGen! by Chris Wilmer'
_symmetry_space_group_name_H-M	'P1'
_symmetry_Int_Tables_number	1
_symmetry_cell_setting	triclinic
loop_
_symmetry_equiv_pos_as_xyz
  x,y,z
_cell_length_a	20.299480
_cell_length_b	20.298645
_cell_length_c	20.294903
_cell_angle_alpha	60.007695
_cell_angle_beta	60.015306
_cell_angle_gamma	59.991039
loop_
_atom_site_label
_atom_site_type_symbol
_atom_site_fract_x
_atom_site_fract_y
_atom_site_fract_z
O1	O	0.091305	-0.962534	0.804873
O2	O	0.034397	-0.749399	0.648508
O3	O	0.169355	-0.884263	0.648401
O4	O	-0.043654	-0.827670	0.804979
O5	O	0.214132	-0.839502	0.693072
O6	O	0.079173	-0.704639	0.693178
O7	O	0.136081	-0.917774	0.849544
Zn8	Zn	0.114736	-0.804099	0.778453
Zn9	Zn	0.055742	-0.863073	0.719598
O10	O	0.001122	-0.782910	0.849650
N11	N	0.155000	-0.763857	0.818624
N12	N	0.015485	-0.903322	0.679427
C13	C	0.179343	-0.615641	0.842971
C14	C	0.179443	-0.739552	0.966834
C15	C	0.303264	-0.739536	0.842917
C16	C	0.179356	-0.739528	0.842952
C17	C	0.210353	-0.708565	0.873918
C18	C	-0.132622	-0.927446	0.654695
C19	C	-0.008595	-0.927622	0.530981
C20	C	-0.008820	-1.051459	0.654914
C21	C	-0.008800	-0.927618	0.654995
C22	C	-0.039709	-0.958538	0.623897
N23	N	0.376268	-0.763873	0.818558
O24	O	0.652281	-0.777347	0.619856
O25	O	0.652556	-0.934198	0.832777
O26	O	0.652445	-0.933836	0.697731
O27	O	0.652392	-0.777709	0.754902
O28	O	0.518259	-0.889182	0.742556
O29	O	0.518369	-0.889544	0.877602
O30	O	0.518095	-0.732693	0.664680
Zn31	Zn	0.496927	-0.804029	0.778258
Zn32	Zn	0.673724	-0.862862	0.719200
O33	O	0.518205	-0.733055	0.799726
N34	N	0.794383	-0.903019	0.678891
N35	N	0.154981	-0.542636	0.818657
O36	O	-0.043628	-0.266455	0.805024
O37	O	0.169291	-0.266451	0.648191
O38	O	0.034217	-0.266468	0.648577
O39	O	0.091446	-0.266438	0.804638
O40	O	0.078998	-0.400670	0.693303
O41	O	0.214071	-0.400653	0.692918
O42	O	0.001152	-0.400657	0.849750
Zn43	Zn	0.114722	-0.421963	0.778435
Zn44	Zn	0.055722	-0.245145	0.719506
O45	O	0.136226	-0.400640	0.849364
N46	N	0.015453	-0.124472	0.679286
N47	N	0.155155	-0.763898	1.039838
O48	O	0.141555	-0.962488	1.315987
O49	O	-0.015254	-0.749480	1.316022
O50	O	-0.014890	-0.884527	1.315962
O51	O	0.141192	-0.827441	1.316047
O52	O	0.029815	-0.839777	1.181768
O53	O	0.029452	-0.704730	1.181828
O54	O	0.186261	-0.917739	1.181793
Zn55	Zn	0.114954	-0.804130	1.160504
Zn56	Zn	0.056053	-0.863089	1.337311
O57	O	0.185897	-0.782692	1.181853
N58	N	0.015850	-0.903330	1.457977
C59	C	0.051451	-0.700162	0.649301
C60	C	0.218580	-0.867175	0.649169
C61	C	0.119026	-0.967011	0.848750
C62	C	-0.048103	-0.799998	0.848882
C63	C	0.585495	-0.933471	0.882014
C64	C	0.585361	-0.933023	0.714775
C65	C	0.585151	-0.733419	0.615444
C66	C	0.585291	-0.733869	0.782682
C67	C	0.218449	-0.333386	0.648902
C68	C	0.051232	-0.333573	0.649435
C69	C	-0.048061	-0.333556	0.848984
C70	C	0.119212	-0.333537	0.848507
C71	C	-0.014496	-0.700269	1.248929
C72	C	-0.014037	-0.867500	1.248828
C73	C	0.185503	-0.966949	1.248886
C74	C	0.185054	-0.799709	1.248957
H75	H	0.039295	-0.638935	0.600193
H76	H	0.234089	-0.787495	1.248972
O77	O	0.291621	-0.881682	0.590606
C78	C	0.424470	-0.977317	0.553285
C79	C	0.341796	-0.960988	0.619684
H80	H	0.465054	-1.041439	0.576764
H81	H	0.453555	-0.932622	0.535649
H82	H	0.415983	-0.969989	0.498256
H83	H	0.350213	-0.968327	0.674756
H84	H	0.312739	-1.005680	0.637252
O85	O	0.133680	-0.333496	0.907079
C86	C	0.080977	-0.333541	1.043044
C87	C	0.064479	-0.333568	0.976778
H88	H	0.025046	-0.333617	1.099417
H89	H	0.096289	-0.277361	1.020730
H90	H	0.133842	-0.389688	1.058058
H91	H	0.011605	-0.277459	0.961734
H92	H	0.049214	-0.389785	0.999127
O93	O	0.585082	-0.674765	0.542442
C94	C	0.584884	-0.637222	0.409561
C95	C	0.584984	-0.703724	0.492192
H96	H	0.584787	-0.660604	0.368918
H97	H	0.641020	-0.619588	0.380501
H98	H	0.528706	-0.582212	0.418117
H99	H	0.641123	-0.758777	0.483707
H100	H	0.528810	-0.721290	0.521225
H101	H	-0.109209	-0.333558	0.898221
O102	O	-0.073154	-0.627255	1.248975
C103	C	-0.110650	-0.494315	1.248969
C104	C	-0.044155	-0.576972	1.248936
H105	H	-0.087222	-0.453633	1.248920
H106	H	-0.165674	-0.502735	1.305133
H107	H	-0.128265	-0.465366	1.192813
H108	H	-0.026471	-0.605966	1.305054
H109	H	0.010826	-0.568500	1.192734
H110	H	0.585383	-0.982069	0.702538
H111	H	0.131184	-1.028235	0.897860
O112	O	-0.121121	-0.785467	0.907468
C113	C	-0.254003	-0.689867	0.944756
C114	C	-0.171344	-0.706210	0.878342
H115	H	-0.294638	-0.625794	0.921226
H116	H	-0.245593	-0.697090	0.999783
H117	H	-0.282993	-0.734648	0.962411
H118	H	-0.142309	-0.661443	0.860618
H119	H	-0.179807	-0.699015	0.823358
O120	O	0.291285	-0.333091	0.590040
C121	C	0.409768	-0.401958	0.501303
C122	C	0.327302	-0.402395	0.567969
H123	H	0.438905	-0.457975	0.483427
H124	H	0.450482	-0.401881	0.524614
H125	H	0.400941	-0.345653	0.446471
H126	H	0.336054	-0.458691	0.622824
H127	H	0.286618	-0.402429	0.544593
O128	O	0.585415	-0.675378	0.797186
C129	C	0.654837	-0.587272	0.758332
C130	C	0.654804	-0.653521	0.741830
H131	H	0.710923	-0.569569	0.713576
H132	H	0.654960	-0.610914	0.822412
H133	H	0.598612	-0.532242	0.751191
H134	H	0.711019	-0.708573	0.748926
H135	H	0.654639	-0.629814	0.677756
H136	H	-0.063051	-0.879692	1.248749
O137	O	0.585696	-0.992318	0.954897
C138	C	0.655386	-1.126860	1.026885
C139	C	0.655247	-1.060293	0.944293
H140	H	0.711621	-1.181828	1.018342
H141	H	0.599299	-1.144562	1.055895
H142	H	0.655364	-1.103443	1.067572
H143	H	0.655298	-1.083654	0.903544
H144	H	0.711329	-1.042601	0.915348
O145	O	0.244139	-1.039985	1.248907
C146	C	0.281672	-1.172888	1.248801
C147	C	0.215189	-1.090219	1.248799
H148	H	0.258296	-1.213520	1.248696
H149	H	0.299273	-1.201936	1.304982
H150	H	0.336694	-1.164386	1.192662
H151	H	0.160124	-1.098651	1.304900
H152	H	0.197656	-1.061200	1.192580
O153	O	0.036506	-0.333641	0.591050
C154	C	-0.059386	-0.333662	0.554173
C155	C	-0.042816	-0.333587	0.620365
H156	H	-0.123522	-0.333601	0.577844
H157	H	-0.014760	-0.389852	0.536563
H158	H	-0.052154	-0.277524	0.499081
H159	H	-0.050058	-0.389687	0.675500
H160	H	-0.087439	-0.277361	0.637907
