data_functionalizedCrystal
_audit_creation_method	'MofGen! by Chris Wilmer'
_symmetry_space_group_name_H-M	'P1'
_symmetry_Int_Tables_number	1
_symmetry_cell_setting	triclinic
loop_
_symmetry_equiv_pos_as_xyz
  x,y,z
_cell_length_a	19.288864
_cell_length_b	18.366186
_cell_length_c	19.288865
_cell_angle_alpha	90.011479
_cell_angle_beta	83.136245
_cell_angle_gamma	90.022894
loop_
_atom_site_label
_atom_site_type_symbol
_atom_site_fract_x
_atom_site_fract_y
_atom_site_fract_z
O1	O	0.921353	0.060791	0.086649
O2	O	1.421353	0.560791	0.586649
O3	O	0.719092	0.060743	0.098337
O4	O	1.219092	0.560743	0.598337
O5	O	0.826067	0.060754	-0.008637
O6	O	1.326067	0.560754	0.491363
O7	O	0.814378	0.060780	0.193623
O8	O	1.314378	0.560780	0.693623
O9	O	0.826049	-0.060345	-0.008643
O10	O	1.326049	0.439655	0.491357
O11	O	0.719074	-0.060357	0.098332
O12	O	1.219074	0.439643	0.598332
O13	O	0.921335	-0.060308	0.086643
O14	O	1.421335	0.439692	0.586643
Zn15	Zn	0.820201	-0.079559	0.092487
Zn16	Zn	1.320201	0.420441	0.592487
Zn17	Zn	0.820225	0.079994	0.092494
Zn18	Zn	1.320225	0.579994	0.592494
O19	O	0.814360	-0.060319	0.193618
O20	O	1.314360	0.439681	0.693618
C21	C	0.693207	0.000187	0.097959
C22	C	1.193207	0.500187	0.597959
C23	C	0.616103	0.000167	0.096830
C24	C	1.116103	0.500167	0.596830
N25	N	0.820190	-0.188451	0.092482
N26	N	1.320190	0.311549	0.592482
C27	C	0.571407	0.000187	0.159598
C28	C	1.071407	0.500187	0.659598
C29	C	0.498960	0.000195	0.158537
C30	C	0.998960	0.500195	0.658537
C31	C	0.471212	0.000198	0.094705
C32	C	0.971212	0.500198	0.594705
C33	C	0.515918	0.000174	0.031929
C34	C	1.015918	0.500174	0.531929
C35	C	0.588364	0.000159	0.032991
C36	C	1.088364	0.500159	0.532991
C37	C	0.362956	0.042642	0.044527
C38	C	0.862956	0.542642	0.544527
C39	C	0.290512	0.042662	0.043468
C40	C	0.790512	0.542662	0.543468
C41	C	0.247767	0.000241	0.091425
C42	C	0.747767	0.500241	0.591425
C43	C	0.277473	-0.042189	0.140454
C44	C	0.777473	0.457811	0.640454
C45	C	0.349918	-0.042205	0.141517
C46	C	0.849918	0.457795	0.641517
C47	C	0.392658	0.000214	0.093546
C48	C	0.892658	0.500214	0.593546
C49	C	0.124514	0.000269	0.153047
C50	C	0.624514	0.500269	0.653047
C51	C	0.052066	0.000272	0.151984
C52	C	0.552066	0.500272	0.651984
C53	C	0.069026	0.000259	0.025374
C54	C	0.569026	0.500259	0.525374
C55	C	0.141473	0.000248	0.026439
C56	C	0.641473	0.500248	0.526439
C57	C	0.169212	0.000256	0.090278
C58	C	0.669212	0.500256	0.590278
C59	C	0.867574	-0.226546	0.045137
C60	C	1.367574	0.273454	0.545137
C61	C	0.867578	-0.302774	0.045134
C62	C	1.367578	0.197226	0.545134
C63	C	0.820206	-0.340903	0.092488
C64	C	1.320206	0.159097	0.592488
C65	C	0.772813	-0.302799	0.139836
C66	C	1.272813	0.197201	0.639836
C67	C	0.772805	-0.226572	0.139834
C68	C	1.272805	0.273428	0.639834
C69	C	0.810907	-0.461657	0.155775
C70	C	1.310907	0.038343	0.655775
C71	C	0.810920	-0.537882	0.155779
C72	C	1.310920	-0.037882	0.655779
C73	C	0.820225	-0.576011	0.092496
C74	C	1.320225	-0.076011	0.592496
C75	C	0.829533	-0.537905	0.029207
C76	C	1.329533	-0.037905	0.529207
C77	C	0.829525	-0.461679	0.029204
C78	C	1.329525	0.038321	0.529204
C79	C	0.820208	-0.423558	0.092496
C80	C	1.320208	0.076442	0.592496
C81	C	0.867617	-0.696761	0.045144
C82	C	1.367617	-0.196761	0.545144
C83	C	0.867616	-0.772990	0.045140
C84	C	1.367616	-0.272990	0.545140
C85	C	0.772854	-0.773014	0.139849
C86	C	1.272854	-0.273014	0.639849
C87	C	0.772851	-0.696786	0.139847
C88	C	1.272851	-0.196786	0.639847
C89	C	0.820236	-0.658664	0.092495
C90	C	1.320236	-0.158664	0.592495
C91	C	0.947220	0.000250	0.087022
C92	C	1.447220	0.500250	0.587022
C93	C	1.024324	0.000274	0.088151
C94	C	1.524324	0.500274	0.588151
C95	C	0.825682	0.000202	-0.034516
C96	C	1.325682	0.500202	0.465484
C97	C	0.824553	0.000195	-0.111620
C98	C	1.324553	0.500195	0.388380
N99	N	0.820242	0.188885	0.092493
N100	N	1.320242	0.688885	0.592493
C101	C	0.887321	0.000207	-0.156316
C102	C	1.387321	0.500207	0.343684
C103	C	0.886260	0.000218	-0.228763
C104	C	1.386260	0.500218	0.271237
C105	C	0.822428	0.000203	-0.256511
C106	C	1.322428	0.500203	0.243489
C107	C	0.759652	0.000196	-0.211805
C108	C	1.259652	0.500196	0.288195
C109	C	0.760714	0.000192	-0.139359
C110	C	1.260714	0.500192	0.360641
C111	C	0.772242	-0.042227	-0.364800
C112	C	1.272242	0.457773	0.135200
C113	C	0.771182	-0.042228	-0.437245
C114	C	1.271182	0.457772	0.062755
C115	C	0.819148	0.000219	-0.479956
C116	C	1.319148	0.500219	0.020044
C117	C	0.868186	0.042657	-0.450216
C118	C	1.368186	0.542657	0.049784
C119	C	0.869248	0.042653	-0.377771
C120	C	1.369248	0.542653	0.122229
C121	C	0.821269	0.000208	-0.335065
C122	C	1.321269	0.500208	0.164935
C123	C	0.880770	0.000244	-0.603209
C124	C	1.380770	0.500244	-0.103209
C125	C	0.879707	0.000259	-0.675657
C126	C	1.379707	0.500259	-0.175657
C127	C	0.753097	0.000230	-0.658697
C128	C	1.253097	0.500230	-0.158697
C129	C	0.754162	0.000221	-0.586250
C130	C	1.254162	0.500221	-0.086250
C131	C	0.818001	0.000225	-0.558511
C132	C	1.318001	0.500225	-0.058511
C133	C	0.814745	0.000234	0.219497
C134	C	1.314745	0.500234	0.719497
C135	C	0.815874	0.000246	0.296601
C136	C	1.315874	0.500246	0.796601
H137	H	0.593987	0.000195	0.211580
H138	H	1.093987	0.500195	0.711580
Cl139	Cl	0.799273	-0.413731	0.235341
Cl140	Cl	1.299273	0.086269	0.735341
Cl141	Cl	0.711937	-0.095596	-0.311112
Cl142	Cl	1.211937	0.404404	0.188888
Cl143	Cl	0.672850	0.000215	-0.693572
Cl144	Cl	1.172850	0.500215	-0.193572
Cl145	Cl	0.442760	0.000218	0.237451
Cl146	Cl	0.942760	0.500218	0.737451
Cl147	Cl	0.927139	-0.178622	-0.014393
Cl148	Cl	1.427139	0.321378	0.485607
H149	H	0.803346	-0.568901	0.207313
H150	H	1.303346	-0.068901	0.707313
H151	H	0.493322	0.000187	-0.020044
H152	H	0.993322	0.500187	0.479956
H153	H	0.734240	-0.333848	0.178392
H154	H	1.234240	0.166152	0.678392
H155	H	0.703049	0.000208	-0.549857
H156	H	1.203049	0.500208	-0.049857
H157	H	0.734219	-0.195554	0.178388
H158	H	1.234219	0.304446	0.678388
Cl159	Cl	0.197666	0.000228	-0.052474
Cl160	Cl	0.697666	0.500228	0.447526
Cl161	Cl	0.681799	0.000177	-0.083166
Cl162	Cl	1.181799	0.500177	0.416834
Cl163	Cl	0.967575	0.000232	-0.121448
Cl164	Cl	1.467575	0.500232	0.378552
Cl165	Cl	0.416687	0.095976	-0.015768
Cl166	Cl	0.916687	0.595976	0.484232
Cl167	Cl	0.965174	0.000233	-0.284963
Cl168	Cl	1.465174	0.500233	0.215037
Cl169	Cl	0.927153	-0.350673	-0.014391
Cl170	Cl	1.427153	0.149327	0.485609
Cl171	Cl	0.159390	0.000272	0.233300
Cl172	Cl	0.659390	0.500272	0.733300
H173	H	0.624756	0.000144	-0.018124
H174	H	1.124756	0.500144	0.481876
H175	H	0.734279	-0.804058	0.178402
H176	H	1.234279	-0.304058	0.678402
H177	H	0.707679	0.000185	-0.234401
H178	H	1.207679	0.500185	0.265599
Cl179	Cl	0.928490	0.096023	-0.503903
Cl180	Cl	1.428490	0.596023	-0.003903
Cl181	Cl	0.841218	-0.413778	-0.050356
Cl182	Cl	1.341218	0.086222	0.449644
Cl183	Cl	0.930888	0.096005	-0.340385
Cl184	Cl	1.430888	0.596005	0.159615
Cl185	Cl	0.961023	0.000244	-0.568333
Cl186	Cl	1.461023	0.500244	-0.068333
Cl187	Cl	0.958623	0.000279	-0.731848
Cl188	Cl	1.458623	0.500279	-0.231848
H189	H	0.242671	-0.076733	0.179506
H190	H	0.742671	0.423267	0.679506
Cl191	Cl	0.709538	-0.095580	-0.474625
Cl192	Cl	1.209538	0.404420	0.025375
H193	H	0.906198	-0.665721	0.006585
H194	H	1.406198	-0.165721	0.506585
Cl195	Cl	0.034151	0.000254	-0.054873
Cl196	Cl	0.534151	0.500254	0.445127
H197	H	0.837110	-0.568948	-0.022324
H198	H	1.337110	-0.068948	0.477676
Cl199	Cl	0.387262	-0.095547	0.203147
Cl200	Cl	0.887262	0.404453	0.703147
Cl201	Cl	0.927185	-0.820885	-0.014389
Cl202	Cl	1.427185	-0.320885	0.485611
Cl203	Cl	0.713284	-0.648890	0.199373
Cl204	Cl	1.213284	-0.148890	0.699373
H205	H	0.015674	0.000284	0.203099
H206	H	0.515674	0.500284	0.703099
H207	H	0.266331	0.077215	0.003548
H208	H	0.766331	0.577215	0.503548
