data_functionalizedCrystal
_audit_creation_method	'MofGen! by Chris Wilmer'
_symmetry_space_group_name_H-M	'P1'
_symmetry_Int_Tables_number	1
_symmetry_cell_setting	triclinic
loop_
_symmetry_equiv_pos_as_xyz
  x,y,z
_cell_length_a	19.288864
_cell_length_b	9.730223
_cell_length_c	19.288865
_cell_angle_alpha	89.994288
_cell_angle_beta	83.136245
_cell_angle_gamma	89.985868
loop_
_atom_site_label
_atom_site_type_symbol
_atom_site_fract_x
_atom_site_fract_y
_atom_site_fract_z
O1	O	0.921345	-0.114746	0.086644
O2	O	0.719084	-0.114654	0.098333
O3	O	0.826059	-0.114676	-0.008642
O4	O	0.814370	-0.114725	0.193619
O5	O	0.826057	0.113904	-0.008638
O6	O	0.719082	0.113926	0.098337
O7	O	0.921343	0.113834	0.086648
Zn8	Zn	0.820212	0.150172	0.092493
Zn9	Zn	0.820214	-0.150992	0.092487
O10	O	0.814368	0.113855	0.193623
C11	C	0.693207	-0.000352	0.097959
C12	C	0.616103	-0.000316	0.096830
N13	N	0.820216	0.355708	0.092497
C14	C	0.571407	-0.000353	0.159598
C15	C	0.498960	-0.000368	0.158537
C16	C	0.471212	-0.000373	0.094705
C17	C	0.515918	-0.000329	0.031929
C18	C	0.588364	-0.000300	0.032991
C19	C	0.362951	-0.080489	0.044524
C20	C	0.290506	-0.080526	0.043464
C21	C	0.247767	-0.000456	0.091425
C22	C	0.277479	0.079634	0.140458
C23	C	0.349924	0.079663	0.141520
C24	C	0.392658	-0.000404	0.093546
C25	C	0.124514	-0.000507	0.153047
C26	C	0.052066	-0.000513	0.151984
C27	C	0.069026	-0.000488	0.025374
C28	C	0.141473	-0.000468	0.026439
C29	C	0.169212	-0.000484	0.090278
C30	C	0.867596	0.427625	0.045145
C31	C	0.867594	0.571508	0.045137
C32	C	0.772829	0.571545	0.139840
C33	C	0.772829	0.427664	0.139844
C34	C	0.914983	0.355668	-0.002202
C35	C	0.962368	0.427585	-0.049557
C36	C	0.962366	0.571468	-0.049565
C37	C	0.914979	0.643434	-0.002217
C38	C	0.947220	-0.000471	0.087022
C39	C	1.024324	-0.000517	0.088151
N40	N	0.820215	0.643471	0.092486
C41	C	0.825682	-0.000382	-0.034516
C42	C	0.824553	-0.000369	-0.111620
C43	C	0.887321	-0.000391	-0.156316
C44	C	0.886260	-0.000412	-0.228763
C45	C	0.822428	-0.000384	-0.256511
C46	C	0.759652	-0.000370	-0.211805
C47	C	0.760714	-0.000362	-0.139359
C48	C	0.772248	0.079706	-0.364797
C49	C	0.771188	0.079707	-0.437241
C50	C	0.819148	-0.000413	-0.479956
C51	C	0.868180	-0.080516	-0.450220
C52	C	0.869242	-0.080509	-0.377774
C53	C	0.821269	-0.000393	-0.335065
C54	C	0.880770	-0.000460	-0.603209
C55	C	0.879707	-0.000490	-0.675657
C56	C	0.753097	-0.000434	-0.658697
C57	C	0.754162	-0.000418	-0.586250
C58	C	0.818000	-0.000424	-0.558511
C59	C	0.814745	-0.000442	0.219497
C60	C	0.815874	-0.000464	0.296601
H61	H	0.593987	-0.000368	0.211580
H62	H	0.930822	-0.000515	-0.712049
Cl63	Cl	1.021930	0.337117	-0.109083
Cl64	Cl	1.021928	0.661876	-0.109101
H65	H	0.397744	-0.145700	0.005467
H66	H	0.624756	-0.000271	-0.018124
Cl67	Cl	0.481037	-0.000328	-0.048318
Cl68	Cl	0.711950	0.180442	-0.311105
Cl69	Cl	0.223757	0.180301	0.200756
Cl70	Cl	0.681799	-0.000334	-0.083166
Cl71	Cl	0.961023	-0.000460	-0.568333
H72	H	0.731260	0.144923	-0.461446
Cl73	Cl	0.713261	0.337253	0.199372
Cl74	Cl	0.442760	-0.000411	0.237451
H75	H	0.914977	0.760593	-0.002231
Cl76	Cl	0.713264	0.662016	0.199362
Cl77	Cl	0.967575	-0.000438	-0.121448
H78	H	0.914991	0.238512	-0.002199
Cl79	Cl	0.679405	-0.000346	-0.246686
H80	H	0.046435	-0.000578	-0.026600
Cl81	Cl	0.965174	-0.000441	-0.284963
Cl82	Cl	0.930875	-0.181214	-0.340393
Cl83	Cl	0.387275	0.180349	0.203155
Cl84	Cl	0.159390	-0.000513	0.233300
Cl85	Cl	-0.004125	-0.000553	0.230900
H86	H	0.177866	-0.000445	-0.024674
H87	H	0.907234	-0.145758	-0.484998
H88	H	0.701123	-0.000418	-0.681288
Cl89	Cl	0.675249	-0.000384	-0.530057
Cl90	Cl	0.253160	-0.181224	-0.018169
