data_functionalizedCrystal
_audit_creation_method	'MofGen! by Chris Wilmer'
_symmetry_space_group_name_H-M	'P1'
_symmetry_Int_Tables_number	1
_symmetry_cell_setting	triclinic
loop_
_symmetry_equiv_pos_as_xyz
  x,y,z
_cell_length_a	18.426585
_cell_length_b	14.628931
_cell_length_c	18.426585
_cell_angle_alpha	120.000528
_cell_angle_beta	89.998565
_cell_angle_gamma	60.001356
loop_
_atom_site_label
_atom_site_type_symbol
_atom_site_fract_x
_atom_site_fract_y
_atom_site_fract_z
Zr1	Zr	0.699107	1.000621	0.095258
O2	O	0.583225	1.191326	0.211137
O3	O	0.734631	0.809915	0.059735
O4	O	0.734624	1.000629	0.211140
O5	O	0.583239	1.000606	-0.059699
O6	O	0.854049	1.000635	0.211143
O7	O	0.583233	1.000613	0.059731
O8	O	0.854063	0.659483	-0.059693
O9	O	0.583225	1.341758	0.211137
O10	O	0.838908	0.888360	0.044587
O11	O	0.749786	0.888350	-0.044545
O12	O	0.749777	1.112891	0.133715
O13	O	0.660656	1.112882	0.044583
Zr14	Zr	0.889587	1.000621	-0.095216
Zr15	Zr	0.889578	1.000631	0.095263
Zr16	Zr	0.699117	1.000611	-0.095220
Zr17	Zr	0.699107	1.240542	0.095258
Zr18	Zr	0.889587	0.760699	-0.095216
O19	O	0.854063	1.191326	-0.059692
O20	O	0.854050	1.191341	0.211144
O21	O	0.583239	1.191312	-0.059699
O22	O	1.005469	0.809915	-0.211094
O23	O	1.005455	0.809930	0.059742
O24	O	0.734645	0.809901	-0.211101
O25	O	1.005456	1.000635	0.059742
O26	O	0.854071	1.000613	-0.211098
O27	O	0.734645	1.000606	-0.211101
O28	O	1.005462	1.000629	-0.059689
O29	O	0.734624	1.341766	0.211141
O30	O	0.854070	0.659475	-0.211098
O31	O	1.005469	0.659483	-0.211094
O32	O	1.005461	0.659491	-0.059689
O33	O	0.583233	1.341750	0.059732
O34	O	0.734632	1.341758	0.059736
O35	O	0.838917	0.888350	-0.133673
O36	O	0.928039	0.888360	-0.044540
O37	O	0.838908	1.112891	0.044588
O38	O	0.749786	1.112882	-0.044545
C39	C	0.794347	0.700516	0.000021
C40	C	0.794347	0.598663	0.000021
C41	C	0.838557	0.553258	0.044236
C42	C	0.838558	0.447988	0.044237
C43	C	0.556098	1.000608	0.000015
C44	C	0.475238	1.000604	0.000013
C45	C	0.179123	1.000643	0.000029
C46	C	0.261509	1.000637	0.000027
C47	C	0.327178	1.000623	0.000022
C48	C	0.409569	1.000618	0.000018
C49	C	1.032597	1.000634	0.000027
C50	C	1.113456	1.000638	0.000029
C51	C	0.794335	1.000634	0.238281
C52	C	0.794331	1.000638	0.319144
C53	C	0.794347	1.300726	0.000022
C54	C	0.794348	1.402579	0.000022
C55	C	0.794365	1.000599	0.615228
C56	C	0.794357	1.000604	0.532846
C57	C	0.794347	1.000618	0.467189
C58	C	0.794341	1.000624	0.384802
C59	C	0.794359	1.000608	0.761762
C60	C	0.794365	1.000604	0.680899
C61	C	1.032596	0.700528	0.000027
C62	C	1.113456	0.598680	0.000029
C63	C	0.794359	0.700503	-0.238239
C64	C	0.794363	0.598646	-0.319102
C65	C	1.032608	0.700516	-0.238233
C66	C	1.113472	0.598663	-0.319094
C67	C	0.556086	1.300726	0.238275
C68	C	0.475222	1.402579	0.319136
C69	C	0.556098	1.300713	0.000016
C70	C	0.475238	1.402562	0.000014
C71	C	0.794335	1.300739	0.238281
C72	C	0.794331	1.402596	0.319145
C73	C	1.104903	0.550850	0.046562
C74	C	1.180872	0.455166	0.046581
C75	C	1.265393	0.407306	0.000063
C76	C	1.273944	0.455145	-0.046472
C77	C	1.197976	0.550834	-0.046485
C78	C	0.840890	0.550812	-0.403608
C79	C	0.840890	0.455120	-0.479595
C80	C	0.794368	0.407256	-0.471074
C81	C	0.747835	0.455099	-0.386559
C82	C	0.747830	0.550796	-0.310574
C83	C	1.197975	0.550836	-0.310541
C84	C	1.273962	0.455148	-0.386511
C85	C	1.265445	0.407281	-0.471034
C86	C	1.180933	0.455117	-0.479585
C87	C	1.104947	0.550810	-0.403615
C88	C	0.390719	1.450417	0.310584
C89	C	0.314732	1.546135	0.386554
C90	C	0.323250	1.594007	0.471076
C91	C	0.407761	1.546165	0.479628
C92	C	0.483747	1.450455	0.403658
C93	C	0.483791	1.450401	-0.046511
C94	C	0.407822	1.546112	-0.046510
C95	C	0.323301	1.593975	0.000012
C96	C	0.314750	1.546132	0.046542
C97	C	0.390718	1.450430	0.046546
C98	C	0.840863	1.450430	0.310595
C99	C	0.840876	1.546123	0.386567
C100	C	0.794353	1.593987	0.471088
C101	C	0.747820	1.546144	0.479636
C102	C	0.747812	1.450446	0.403665
H103	H	1.036089	0.589817	0.084454
H104	H	1.204952	0.589764	-0.084383
C105	C	0.586416	1.499189	0.459629
C106	C	0.576627	1.397884	0.413083
H107	H	0.643752	1.466741	0.465459
H108	H	0.579780	1.536483	0.428044
H109	H	0.542360	1.563038	0.516958
H110	H	0.620678	1.334039	0.355751
H111	H	0.583271	1.360569	0.444667
H112	H	0.552605	1.411438	-0.084400
H113	H	0.383742	1.411482	0.084429
C114	C	0.655835	1.536578	0.564021
C115	C	0.696683	1.598765	0.572546
H116	H	0.624268	1.569065	0.621382
H117	H	0.615678	1.552267	0.532458
H118	H	0.699860	1.446226	0.532453
H119	H	0.652657	1.689116	0.604109
H120	H	0.736843	1.583086	0.604123
C121	C	1.081227	0.464788	0.138534
C122	C	1.171458	0.402582	0.097724
H123	H	1.075416	0.432318	0.170102
H124	H	1.053527	0.555128	0.178687
H125	H	1.053548	0.449083	0.094487
H126	H	1.199136	0.418295	0.141773
H127	H	1.199170	0.312220	0.057569
C128	C	0.932857	1.460026	0.226253
C129	C	0.892012	1.397824	0.217695
H130	H	0.964443	1.427542	0.168901
H131	H	0.888836	1.550365	0.257818
H132	H	0.973006	1.444333	0.257833
H133	H	0.851858	1.413524	0.186121
H134	H	0.936038	1.307464	0.186117
C135	C	0.507467	1.536428	-0.138512
C136	C	0.417236	1.598674	-0.097670
H137	H	0.513278	1.568871	-0.170101
H138	H	0.535163	1.552118	-0.094488
H139	H	0.535150	1.446079	-0.178659
H140	H	0.389554	1.689023	-0.057518
H141	H	0.389529	1.582994	-0.141700
C142	C	0.845028	1.731060	0.529228
C143	C	0.794362	1.699187	0.554593
H144	H	0.845029	1.796013	0.580779
H145	H	0.904293	1.656391	0.494864
H146	H	0.820113	1.762413	0.494852
H147	H	0.819281	1.667825	0.588964
H148	H	0.735086	1.773871	0.588972
H149	H	0.261450	1.671902	0.000002
C150	C	0.730586	0.502040	-0.207905
C151	C	0.696696	0.603354	-0.217684
H152	H	0.699019	0.534487	-0.150558
H153	H	0.723929	0.438214	-0.251941
H154	H	0.791793	0.464724	-0.214571
H155	H	0.635490	0.640664	-0.211025
H156	H	0.703345	0.667203	-0.173636
H157	H	0.709917	1.411511	0.410638
H158	H	0.709958	0.416114	-0.379634
H159	H	0.876411	0.592313	0.082087
H160	H	1.204927	0.589796	-0.241725
H161	H	1.174011	0.416130	-0.548413
H162	H	0.245926	1.585072	0.379574
C163	C	0.239709	1.809272	0.605241
C164	C	0.239719	1.699204	0.554579
H165	H	0.188136	1.874213	0.656786
H166	H	0.291246	1.787638	0.622436
H167	H	0.239723	1.840624	0.570859
H168	H	0.239712	1.667846	0.588959
H169	H	0.188169	1.720839	0.537385
H170	H	0.876404	0.408947	0.082096
H171	H	0.245923	1.585117	0.084419
H172	H	0.756491	0.441625	-0.037830
C173	C	0.802530	0.412722	-0.115924
C174	C	0.743262	0.545910	-0.051086
H175	H	0.770993	0.380150	-0.147473
H176	H	0.846513	0.397062	-0.156103
H177	H	0.830267	0.370625	-0.088165
H178	H	0.715530	0.588008	-0.078847
H179	H	0.699263	0.561580	-0.010902
H180	H	1.327244	0.329389	0.000080
C181	C	1.358270	0.464780	-0.286865
C182	C	1.366851	0.402568	-0.377098
H183	H	1.415615	0.432313	-0.281054
H184	H	1.326700	0.555120	-0.259166
H185	H	1.326689	0.449079	-0.259183
H186	H	1.398427	0.418277	-0.404778
H187	H	1.398434	0.312207	-0.404808
H188	H	1.342771	0.416163	-0.084345
H189	H	0.878774	0.589773	-0.410563
C190	C	1.424941	0.270215	-0.529168
C191	C	1.348975	0.302083	-0.554536
H192	H	1.476510	0.205262	-0.580718
H193	H	1.424924	0.344886	-0.494804
H194	H	1.424914	0.238864	-0.494790
H195	H	1.348999	0.333443	-0.588908
H196	H	1.348993	0.227397	-0.588915
H197	H	0.794379	0.329334	-0.532953
C198	C	0.932895	0.464744	-0.563909
C199	C	0.892053	0.402533	-0.572486
H200	H	0.964485	0.432272	-0.621255
H201	H	0.888872	0.555083	-0.532340
H202	H	0.973039	0.449046	-0.532327
H203	H	0.851903	0.418238	-0.604063
H204	H	0.936081	0.312172	-0.604069
H205	H	1.036144	0.589738	-0.410592
C206	C	0.291115	1.460059	0.226237
C207	C	0.381340	1.397828	0.217682
H208	H	0.285322	1.427607	0.168884
H209	H	0.263412	1.444366	0.257796
H210	H	0.263427	1.550409	0.257820
H211	H	0.409027	1.307478	0.186104
H212	H	0.409056	1.413511	0.186109
C213	C	0.376151	1.575635	0.619012
C214	C	0.417049	1.598802	0.572567
H215	H	0.381869	1.608128	0.676397
H216	H	0.314972	1.617787	0.624720
H217	H	0.403887	1.485273	0.587423
H218	H	0.389309	1.689166	0.604154
H219	H	0.478239	1.556654	0.566863
H220	H	0.878767	1.585066	0.379590
