data_functionalizedCrystal
_audit_creation_method	'MofGen! by Chris Wilmer'
_symmetry_space_group_name_H-M	'P1'
_symmetry_Int_Tables_number	1
_symmetry_cell_setting	triclinic
loop_
_symmetry_equiv_pos_as_xyz
  x,y,z
_cell_length_a	14.971486
_cell_length_b	9.065218
_cell_length_c	13.448316
_cell_angle_alpha	89.995277
_cell_angle_beta	89.998199
_cell_angle_gamma	84.315007
loop_
_atom_site_label
_atom_site_type_symbol
_atom_site_fract_x
_atom_site_fract_y
_atom_site_fract_z
O1	O	1.188380	0.192261	-0.082573
O2	O	0.928152	0.215285	-0.082600
O3	O	1.063645	-0.010978	-0.082584
O4	O	1.052887	0.418525	-0.082589
O5	O	1.063628	-0.010992	0.082800
O6	O	0.928134	0.215271	0.082784
O7	O	1.188363	0.192248	0.082811
Cu8	Cu	1.058247	0.203758	0.097898
Cu9	Cu	1.058268	0.203775	-0.097687
O10	O	1.052870	0.418511	0.082795
C11	C	0.894811	0.214248	0.000089
C12	C	0.795491	0.211163	0.000078
C13	C	0.739256	0.344086	0.000078
C14	C	0.645935	0.341178	0.000093
C15	C	0.608850	0.205345	0.000101
C16	C	0.665092	0.072412	0.000104
C17	C	0.758411	0.075321	0.000096
C18	C	0.470584	0.066357	0.000118
C19	C	0.377259	0.063446	0.000124
C20	C	0.358108	0.332214	0.000115
C21	C	0.451427	0.335123	0.000107
C22	C	0.507663	0.202189	0.000108
C23	C	1.062602	-0.065951	0.000106
C24	C	1.059511	-0.229731	0.000101
C25	C	1.221704	0.193284	0.000120
C26	C	1.321024	0.196370	0.000124
C27	C	1.053912	0.473483	0.000102
C28	C	1.057004	0.637264	0.000101
N29	N	1.058239	0.203746	0.235462
N30	N	1.058283	0.203775	-0.235252
C31	C	1.118255	0.103597	0.287510
C32	C	1.118260	0.103596	0.391613
C33	C	1.058254	0.203751	0.443667
C34	C	0.998232	0.303904	0.391612
C35	C	0.998223	0.303897	0.287511
C36	C	0.998257	0.303914	0.608592
C37	C	0.998267	0.303924	0.712701
C38	C	1.118294	0.103613	0.712694
C39	C	1.118285	0.103606	0.608593
C40	C	1.058264	0.203761	0.556546
H41	H	0.769442	0.454697	0.000071
C42	C	0.947761	0.559159	0.255435
C43	C	0.932256	0.413988	0.230294
H44	H	0.907036	0.627120	0.220106
H45	H	0.939175	0.573490	0.324874
H46	H	1.007585	0.575324	0.238358
H47	H	0.872434	0.397819	0.247378
H48	H	0.940835	0.399651	0.160839
C49	C	0.636379	0.607131	0.000069
C50	C	0.584121	0.487293	0.000088
H51	H	0.598216	0.697338	0.000062
H52	H	0.673177	0.602676	0.057734
H53	H	0.673173	0.602662	-0.057612
H54	H	0.547331	0.491756	0.057774
H55	H	0.547308	0.491750	-0.057583
H56	H	0.516370	-0.041893	0.000120
H57	H	0.949378	0.385467	0.566219
C58	C	0.693402	-0.192960	0.000114
C59	C	0.624332	-0.076902	0.000112
H60	H	0.668238	-0.285140	0.000122
H61	H	0.729399	-0.186229	-0.057556
H62	H	0.729403	-0.186229	0.057790
H63	H	0.588335	-0.083626	-0.057568
H64	H	0.588320	-0.083636	0.057789
C65	C	0.874474	-0.077313	-0.084925
C66	C	0.820232	-0.070789	0.000093
H67	H	0.912642	-0.167514	-0.084918
H68	H	0.837670	-0.072869	-0.142585
H69	H	0.909908	0.004011	-0.084919
H70	H	0.784793	-0.152107	0.000083
H71	H	0.857041	-0.075247	0.057768
H72	H	1.167165	0.022064	0.755078
C73	C	0.206556	0.447109	0.000130
C74	C	0.296297	0.478340	0.000115
H75	H	0.168396	0.537319	0.000131
H76	H	0.195199	0.391423	-0.057532
H77	H	0.195209	0.391422	0.057814
H78	H	0.307646	0.534017	-0.057573
H79	H	0.307658	0.534049	0.057783
H80	H	1.167122	0.022046	0.245134
H81	H	0.481618	0.445730	0.000091
H82	H	0.949369	0.385448	0.434001
H83	H	0.347068	-0.047161	0.000132
H84	H	1.167151	0.022060	0.566211
C85	C	1.236923	-0.094359	0.381150
C86	C	1.184246	-0.006467	0.448823
H87	H	1.277667	-0.162299	0.416471
H88	H	1.199268	-0.147550	0.340564
H89	H	1.269573	-0.032831	0.340530
H90	H	1.151591	-0.067995	0.489439
H91	H	1.221906	0.046728	0.489426
C92	C	0.879593	0.501874	0.702257
C93	C	0.932291	0.413987	0.769921
H94	H	0.838856	0.569810	0.737585
H95	H	0.917236	0.555070	0.661650
H96	H	0.846937	0.440342	0.661656
H97	H	0.964952	0.475518	0.810517
H98	H	0.894643	0.360787	0.810545
