data_functionalizedCrystal
_audit_creation_method	'MofGen! by Chris Wilmer'
_symmetry_space_group_name_H-M	'P1'
_symmetry_Int_Tables_number	1
_symmetry_cell_setting	triclinic
loop_
_symmetry_equiv_pos_as_xyz
  x,y,z
_cell_length_a	10.723023
_cell_length_b	10.723024
_cell_length_c	13.448316
_cell_angle_alpha	89.994589
_cell_angle_beta	89.993401
_cell_angle_gamma	84.467709
loop_
_atom_site_label
_atom_site_type_symbol
_atom_site_fract_x
_atom_site_fract_y
_atom_site_fract_z
O1	O	1.657193	0.175026	-0.082686
O2	O	1.294040	0.191780	-0.082689
O3	O	1.483993	0.001826	-0.082684
O4	O	1.467240	0.364979	-0.082691
O5	O	1.483969	0.001815	0.082700
O6	O	1.294016	0.191768	0.082695
O7	O	1.657169	0.175014	0.082697
Cu8	Cu	1.475590	0.183390	0.097797
Cu9	Cu	1.475619	0.183404	-0.097788
O10	O	1.467216	0.364967	0.082693
C11	C	1.247529	0.190555	0.000003
C12	C	1.108974	0.186908	0.000002
C13	C	0.903994	0.181506	0.085672
C14	C	1.047197	0.185275	0.085675
C15	C	1.482762	-0.044679	0.000007
C16	C	1.479114	-0.183233	0.000003
C17	C	1.585402	-0.258216	0.000003
C18	C	1.581634	-0.401420	-0.000001
C19	C	1.703680	0.176239	0.000004
C20	C	1.842235	0.179886	-0.000002
C21	C	1.468447	0.411473	-0.000000
C22	C	1.472095	0.550027	-0.000003
N23	N	1.475579	0.183379	0.235361
N24	N	1.475640	0.183405	-0.235353
C25	C	1.559717	0.099303	0.287404
C26	C	1.559725	0.099302	0.391507
C27	C	1.475600	0.183384	0.443566
C28	C	1.391453	0.267464	0.391516
C29	C	1.391440	0.267458	0.287415
C30	C	1.391488	0.267473	0.608496
C31	C	1.391502	0.267481	0.712605
C32	C	1.559772	0.099316	0.712589
C33	C	1.559760	0.099310	0.608487
C34	C	1.475614	0.183393	0.556445
H35	H	1.672625	-0.465852	0.000003
O36	O	1.363566	-0.373071	-0.000180
C37	C	1.358878	-0.296904	-0.085818
H38	H	1.422244	-0.344090	-0.145685
H39	H	1.258492	-0.283001	-0.114572
H40	H	1.392105	-0.202031	-0.066449
O41	O	1.045548	0.185468	-0.087485
C42	C	0.957006	0.291357	-0.092794
H43	H	0.987079	0.367795	-0.041675
H44	H	0.950979	0.327537	-0.172529
H45	H	0.861364	0.264364	-0.068473
H46	H	1.628226	0.030838	0.245024
H47	H	1.628235	0.030840	0.433880
H48	H	1.322925	0.335920	0.245043
O49	O	1.367146	-0.232967	0.000132
C50	C	1.298855	-0.192823	0.085798
H51	H	1.333505	-0.102202	0.114360
H52	H	1.195082	-0.175781	0.066533
H53	H	1.312755	-0.268022	0.145773
O54	O	1.641524	0.017516	0.558070
C55	C	1.715816	-0.056676	0.626324
H56	H	1.664659	-0.058556	0.700542
H57	H	1.734001	-0.156162	0.596249
H58	H	1.808861	-0.015306	0.637371
H59	H	1.679188	-0.216394	0.000009
O60	O	1.309647	0.349185	0.763023
C61	C	1.235382	0.423404	0.694769
H62	H	1.233542	0.372231	0.620563
H63	H	1.135891	0.441498	0.724864
H64	H	1.276656	0.516496	0.683687
O65	O	1.309922	0.349203	0.557830
C66	C	1.377403	0.426818	0.497612
H67	H	1.474623	0.378004	0.482008
H68	H	1.325480	0.446080	0.424413
H69	H	1.386672	0.519129	0.537719
H70	H	1.628286	0.030854	0.754968
O71	O	1.309608	0.349183	0.441929
C72	C	1.235360	0.423408	0.373668
H73	H	1.233511	0.372226	0.299467
H74	H	1.135870	0.441529	0.403760
H75	H	1.276657	0.516487	0.362579
O76	O	0.840763	0.179667	0.173242
C77	C	0.885659	0.072592	0.228112
H78	H	0.984631	0.039112	0.202578
H79	H	0.886995	0.096963	0.310591
H80	H	0.821659	-0.004882	0.215537
O81	O	1.110390	0.187099	0.173248
C82	C	1.065475	0.294165	0.228113
H83	H	0.966513	0.327650	0.202574
H84	H	1.064109	0.269779	0.310593
H85	H	1.129481	0.371640	0.215541
O86	O	0.905504	0.181393	-0.087573
C87	C	0.887027	0.072658	-0.142440
H88	H	0.796865	0.034193	-0.116904
H89	H	0.879746	0.096817	-0.224919
H90	H	0.969525	-0.000960	-0.129866
