data_functionalizedCrystal
_audit_creation_method	'MofGen! by Chris Wilmer'
_symmetry_space_group_name_H-M	'P1'
_symmetry_Int_Tables_number	1
_symmetry_cell_setting	triclinic
loop_
_symmetry_equiv_pos_as_xyz
  x,y,z
_cell_length_a	21.295419
_cell_length_b	21.295417
_cell_length_c	16.625539
_cell_angle_alpha	89.969538
_cell_angle_beta	89.982931
_cell_angle_gamma	90.044503
loop_
_atom_site_label
_atom_site_type_symbol
_atom_site_fract_x
_atom_site_fract_y
_atom_site_fract_z
Zn1	Zn	0.962313	-0.250371	-0.455887
Zn2	Zn	1.295646	0.082962	-0.122554
Zn3	Zn	1.628979	0.416296	0.210779
Zn4	Zn	0.962230	-0.355641	-0.321045
Zn5	Zn	1.295564	-0.022308	0.012288
Zn6	Zn	1.628897	0.311026	0.345622
Zn7	Zn	0.857050	-0.250417	-0.321068
Zn8	Zn	1.190383	0.082916	0.012266
Zn9	Zn	1.523716	0.416250	0.345599
Zn10	Zn	0.857007	-0.355634	-0.455835
Zn11	Zn	1.190340	-0.022300	-0.122501
Zn12	Zn	1.523673	0.311033	0.210832
O13	O	0.909650	-0.303016	-0.388459
O14	O	1.242983	0.030318	-0.055125
O15	O	1.576316	0.363651	0.278208
O16	O	1.050391	-0.264319	-0.438013
O17	O	1.383724	0.069014	-0.104679
O18	O	1.717058	0.402347	0.228654
O19	O	0.948261	-0.341705	-0.208216
O20	O	1.281595	-0.008372	0.125118
O21	O	1.614928	0.324962	0.458451
O22	O	0.871065	-0.162321	-0.338983
O23	O	1.204399	0.171012	-0.005650
O24	O	1.537732	0.504345	0.327683
O25	O	1.050331	-0.341661	-0.338945
O26	O	1.383664	-0.008327	-0.005611
O27	O	1.716997	0.325006	0.327722
O28	O	0.948402	-0.162288	-0.438035
O29	O	1.281735	0.171046	-0.104701
O30	O	1.615068	0.504379	0.228632
O31	O	0.870985	-0.264397	-0.208232
O32	O	1.204319	0.068936	0.125101
O33	O	1.537652	0.402269	0.458434
O34	O	0.768955	-0.264390	-0.338932
O35	O	1.102288	0.068943	-0.005599
O36	O	1.435621	0.402277	0.327734
O37	O	0.870992	-0.341648	-0.568674
O38	O	1.204326	-0.008315	-0.235341
O39	O	1.537659	0.325019	0.097992
O40	O	0.768923	-0.341692	-0.437945
O41	O	1.102256	-0.008359	-0.104612
O42	O	1.435590	0.324974	0.228721
O43	O	0.948360	-0.264312	-0.568713
O44	O	1.281694	0.069021	-0.235379
O45	O	1.615027	0.402355	0.097954
O46	O	0.948220	-0.443729	-0.338894
O47	O	1.281553	-0.110396	-0.005560
O48	O	1.614886	0.222937	0.327773
O49	O	0.870912	-0.443724	-0.437923
O50	O	1.204246	-0.110391	-0.104590
O51	O	1.537579	0.222943	0.228743
C52	C	0.746098	-0.303046	-0.388436
C53	C	1.079432	0.030287	-0.055103
C54	C	1.412765	0.363621	0.278231
C55	C	0.676130	-0.303074	-0.388446
C56	C	1.009463	0.030259	-0.055112
C57	C	1.342797	0.363593	0.278221
C58	C	0.643317	-0.262868	-0.440110
C59	C	0.976651	0.070465	-0.106777
C60	C	1.309984	0.403799	0.226557
C61	C	0.577575	-0.262851	-0.440113
C62	C	0.910908	0.070482	-0.106780
C63	C	1.244242	0.403816	0.226554
C64	C	0.544648	-0.303051	-0.388460
C65	C	0.877981	0.030282	-0.055127
C66	C	1.211314	0.363615	0.278206
C67	C	0.577468	-0.343260	-0.336786
C68	C	0.910802	-0.009927	-0.003452
C69	C	1.244135	0.323407	0.329881
C70	C	0.643209	-0.343271	-0.336778
C71	C	0.976543	-0.009938	-0.003445
C72	C	1.309876	0.323395	0.329888
N73	N	0.441374	-0.358129	-0.382160
N74	N	0.774707	-0.024796	-0.048827
N75	N	1.108040	0.308537	0.284507
N76	N	0.378922	-0.358117	-0.382172
N77	N	0.712255	-0.024784	-0.048838
N78	N	1.045589	0.308550	0.284495
C79	C	0.346573	-0.303019	-0.388478
C80	C	0.679906	0.030315	-0.055145
C81	C	1.013240	0.363648	0.278189
N82	N	0.379034	-0.247932	-0.394788
N83	N	0.712368	0.085401	-0.061455
N84	N	1.045701	0.418734	0.271879
N85	N	0.441492	-0.247946	-0.394781
N86	N	0.774825	0.085388	-0.061447
N87	N	1.108158	0.418721	0.271886
C88	C	0.473362	-0.303043	-0.388462
C89	C	0.806696	0.030290	-0.055129
C90	C	1.140029	0.363623	0.278205
C91	C	0.242475	-0.262791	-0.440149
C92	C	0.575808	0.070542	-0.106815
C93	C	0.909141	0.403875	0.226518
C94	C	0.176731	-0.262773	-0.440146
C95	C	0.510064	0.070560	-0.106813
C96	C	0.843398	0.403893	0.226521
C97	C	0.176626	-0.343188	-0.336823
C98	C	0.509959	-0.009854	-0.003490
C99	C	0.843292	0.323479	0.329844
C100	C	0.242368	-0.343200	-0.336821
C101	C	0.575701	-0.009867	-0.003488
C102	C	0.909035	0.323467	0.329845
C103	C	0.275289	-0.303003	-0.388488
C104	C	0.608622	0.030331	-0.055155
C105	C	0.941955	0.363664	0.278178
C106	C	0.909570	-0.466567	-0.388418
C107	C	1.242903	-0.133234	-0.055085
C108	C	1.576236	0.200099	0.278249
C109	C	0.909593	-0.536535	-0.388427
C110	C	1.242926	-0.203202	-0.055094
C111	C	1.576260	0.130131	0.278239
C112	C	0.949839	-0.569327	-0.440040
C113	C	1.283172	-0.235994	-0.106707
C114	C	1.616506	0.097339	0.226626
C115	C	0.949861	-0.635070	-0.440060
C116	C	1.283194	-0.301737	-0.106727
C117	C	1.616528	0.031597	0.226607
C118	C	0.909644	-0.668018	-0.388453
C119	C	1.242977	-0.334685	-0.055119
C120	C	1.576311	-0.001351	0.278214
C121	C	0.869390	-0.635218	-0.336836
C122	C	1.202723	-0.301885	-0.003503
C123	C	1.536057	0.031449	0.329830
C124	C	0.869365	-0.569477	-0.336824
C125	C	1.202698	-0.236143	-0.003490
C126	C	1.536031	0.097190	0.329843
N127	N	0.904892	-0.771281	-0.317887
N128	N	1.238225	-0.437948	0.015446
N129	N	1.571558	-0.104614	0.348779
N130	N	0.904920	-0.833732	-0.317902
N131	N	1.238253	-0.500399	0.015431
N132	N	1.571586	-0.167066	0.348765
C133	C	0.909717	-0.866093	-0.388489
C134	C	1.243051	-0.532759	-0.055156
C135	C	1.576384	-0.199426	0.278177
N136	N	0.914499	-0.833642	-0.459063
N137	N	1.247832	-0.500309	-0.125730
N138	N	1.581165	-0.166975	0.207603
N139	N	0.914474	-0.771185	-0.459048
N140	N	1.247807	-0.437852	-0.125715
N141	N	1.581141	-0.104518	0.207619
C142	C	0.909667	-0.739303	-0.388461
C143	C	1.243000	-0.405970	-0.055128
C144	C	1.576334	-0.072637	0.278205
C145	C	0.949990	-0.970170	-0.440128
C146	C	1.283323	-0.636837	-0.106795
C147	C	1.616656	-0.303503	0.226539
C148	C	0.950007	-1.035914	-0.440149
C149	C	1.283341	-0.702580	-0.106816
C150	C	1.616674	-0.369247	0.226517
C151	C	0.869540	-1.036061	-0.336918
C152	C	1.202873	-0.702727	-0.003585
C153	C	1.536206	-0.369394	0.329748
C154	C	0.869519	-0.970318	-0.336904
C155	C	1.202852	-0.636985	-0.003571
C156	C	1.536185	-0.303651	0.329763
C157	C	0.909747	-0.937377	-0.388508
C158	C	1.243080	-0.604043	-0.055175
C159	C	1.576414	-0.270710	0.278159
C160	C	1.073840	-0.302986	-0.388482
C161	C	1.407173	0.030348	-0.055149
C162	C	1.740507	0.363681	0.278185
C163	C	1.143808	-0.302973	-0.388492
C164	C	1.477142	0.030360	-0.055158
C165	C	1.810475	0.363694	0.278175
C166	C	0.909681	-0.302974	-0.598768
C167	C	1.243014	0.030359	-0.265434
C168	C	1.576347	0.363693	0.067899
C169	C	0.909694	-0.302956	-0.688389
C170	C	1.243027	0.030377	-0.355056
C171	C	1.576361	0.363710	-0.021722
C172	C	0.909748	-0.138825	-0.388517
C173	C	1.243081	0.194508	-0.055184
C174	C	1.576414	0.527841	0.278149
C175	C	0.909789	-0.068857	-0.388542
C176	C	1.243122	0.264476	-0.055209
C177	C	1.576456	0.597809	0.278124
C178	C	0.909704	-0.302942	-0.761171
C179	C	1.243037	0.030391	-0.427838
C180	C	1.576371	0.363724	-0.094505
C181	C	0.909719	-0.302919	-0.852480
C182	C	1.243052	0.030414	-0.519147
C183	C	1.576385	0.363748	-0.185813
C184	C	0.909734	-0.302897	-0.925256
C185	C	1.243067	0.030436	-0.591923
C186	C	1.576400	0.363770	-0.258590
C187	C	0.909749	-0.302874	-1.016571
C188	C	1.243083	0.030459	-0.683237
C189	C	1.576416	0.363793	-0.349904
C190	C	0.909655	-0.303012	-0.178968
C191	C	1.242989	0.030322	0.154365
C192	C	1.576322	0.363655	0.487699
C193	C	0.909764	-0.302852	-0.089347
C194	C	1.243097	0.030481	0.243986
C195	C	1.576431	0.363815	0.577319
H196	H	0.550655	-0.375991	-0.294729
H197	H	0.883988	-0.042657	0.038604
H198	H	1.217321	0.290676	0.371938
H199	H	0.836591	-0.542777	-0.294793
H200	H	1.169924	-0.209444	0.038540
H201	H	1.503257	0.123890	0.371873
H202	H	0.269084	-0.375943	-0.294754
H203	H	0.602418	-0.042609	0.038580
H204	H	0.935751	0.290724	0.371913
H205	H	0.149817	-0.375919	-0.294766
H206	H	0.483150	-0.042586	0.038567
H207	H	0.816483	0.290747	0.371901
H208	H	0.836749	-0.943617	-0.294873
H209	H	1.170083	-0.610284	0.038461
H210	H	1.503416	-0.276950	0.371794
C211	C	0.278301	-0.219108	-0.496105
C212	C	0.611634	0.114225	-0.162772
C213	C	0.944967	0.447559	0.170561
C214	C	0.316083	-0.178733	-0.450545
C215	C	0.649416	0.154600	-0.117212
C216	C	0.982750	0.487934	0.216122
C217	C	0.349098	-0.138489	-0.502065
C218	C	0.682431	0.194844	-0.168732
C219	C	1.015765	0.528178	0.164601
H220	H	0.249411	-0.195097	-0.526890
H221	H	0.582744	0.138237	-0.193556
H222	H	0.916078	0.471570	0.139777
H223	H	0.303968	-0.243211	-0.531168
H224	H	0.637301	0.090123	-0.197835
H225	H	0.970635	0.423456	0.135498
H226	H	0.290418	-0.154633	-0.415496
H227	H	0.623751	0.178701	-0.082163
H228	H	0.957085	0.512034	0.251170
H229	H	0.344984	-0.202727	-0.419763
H230	H	0.678318	0.130606	-0.086429
H231	H	1.011651	0.463940	0.246904
H232	H	0.374765	-0.162592	-0.537128
H233	H	0.708099	0.170741	-0.203795
H234	H	1.041432	0.504075	0.129538
H235	H	0.320204	-0.114482	-0.532847
H236	H	0.653537	0.218851	-0.199514
H237	H	0.986871	0.552185	0.133820
H238	H	0.374742	-0.111094	-0.471161
H239	H	0.708075	0.222239	-0.137828
H240	H	1.041408	0.555573	0.195506
H241	H	0.550854	-0.230108	-0.482183
H242	H	0.884187	0.103226	-0.148850
H243	H	1.217520	0.436559	0.184483
C244	C	0.993535	-0.533677	-0.496158
C245	C	1.326869	-0.200343	-0.162824
C246	C	1.660202	0.132990	0.170509
C247	C	1.028775	-0.576471	-0.541377
C248	C	1.362109	-0.243138	-0.208043
C249	C	1.695442	0.090195	0.125290
C250	C	1.069028	-0.543652	-0.593088
C251	C	1.402362	-0.210319	-0.259754
C252	C	1.735695	0.123015	0.073579
H253	H	1.021023	-0.508013	-0.465430
H254	H	1.354356	-0.174680	-0.132097
H255	H	1.687689	0.158654	0.201237
H256	H	0.969444	-0.508054	-0.531302
H257	H	1.302777	-0.174721	-0.197969
H258	H	1.636111	0.158612	0.135364
H259	H	1.052865	-0.602083	-0.506236
H260	H	1.386198	-0.268750	-0.172903
H261	H	1.719531	0.064584	0.160430
H262	H	1.001304	-0.602137	-0.572121
H263	H	1.334638	-0.268803	-0.238787
H264	H	1.667971	0.064530	0.094546
H265	H	1.044937	-0.518029	-0.628232
H266	H	1.378270	-0.184696	-0.294899
H267	H	1.711604	0.148637	0.038434
H268	H	1.096512	-0.517989	-0.562354
H269	H	1.429845	-0.184656	-0.229020
H270	H	1.763178	0.148678	0.104313
H271	H	1.092939	-0.572683	-0.623780
H272	H	1.426273	-0.239349	-0.290447
H273	H	1.759606	0.093984	0.042887
H274	H	0.669925	-0.376013	-0.294706
H275	H	1.003259	-0.042679	0.038628
H276	H	1.336592	0.290654	0.371961
H277	H	0.150016	-0.230029	-0.482216
H278	H	0.483349	0.103304	-0.148883
H279	H	0.816683	0.436638	0.184450
H280	H	0.982744	-0.943348	-0.482150
H281	H	1.316077	-0.610015	-0.148816
H282	H	1.649411	-0.276681	0.184517
H283	H	0.982629	-0.661774	-0.482099
H284	H	1.315962	-0.328441	-0.148766
H285	H	1.649296	0.004892	0.184568
H286	H	0.836790	-1.062886	-0.294904
H287	H	1.170124	-0.729553	0.038430
H288	H	1.503457	-0.396220	0.371763
H289	H	0.836644	-0.662048	-0.294819
H290	H	1.169977	-0.328715	0.038514
H291	H	1.503310	0.004618	0.371848
C292	C	0.678977	-0.219255	-0.496327
C293	C	1.012310	0.114078	-0.162994
C294	C	1.345643	0.447412	0.170340
C295	C	0.662984	-0.233029	-0.576073
C296	C	0.996318	0.100305	-0.242740
C297	C	1.329651	0.433638	0.090594
C298	C	0.695815	-0.192858	-0.627879
C299	C	1.029148	0.140475	-0.294546
C300	C	1.362482	0.473809	0.038787
H301	H	0.722840	-0.224976	-0.489036
H302	H	1.056173	0.108357	-0.155703
H303	H	1.389507	0.441691	0.177631
H304	H	0.668221	-0.176937	-0.484673
H305	H	1.001555	0.156396	-0.151339
H306	H	1.334888	0.489730	0.181994
H307	H	0.673744	-0.275337	-0.587723
H308	H	1.007077	0.057997	-0.254390
H309	H	1.340410	0.391330	0.078943
H310	H	0.619126	-0.227304	-0.583390
H311	H	0.952460	0.106029	-0.250056
H312	H	1.285793	0.439363	0.083277
H313	H	0.685060	-0.150540	-0.616225
H314	H	1.018393	0.182794	-0.282892
H315	H	1.351727	0.516127	0.050442
H316	H	0.739677	-0.198582	-0.620581
H317	H	1.073010	0.134751	-0.287248
H318	H	1.406344	0.468084	0.046086
H319	H	0.684965	-0.202194	-0.681992
H320	H	1.018298	0.131139	-0.348659
H321	H	1.351631	0.464473	-0.015325
C322	C	0.993777	-1.071406	-0.496218
C323	C	1.327111	-0.738072	-0.162884
C324	C	1.660444	-0.404739	0.170449
C325	C	1.029013	-1.028482	-0.541386
C326	C	1.362346	-0.695149	-0.208053
C327	C	1.695679	-0.361816	0.125280
C328	C	1.069348	-1.061155	-0.593036
C329	C	1.402681	-0.727822	-0.259702
C330	C	1.736014	-0.394488	0.073631
H331	H	0.969765	-1.097063	-0.531403
H332	H	1.303098	-0.763729	-0.198070
H333	H	1.636431	-0.430396	0.135263
H334	H	1.021259	-1.097023	-0.465423
H335	H	1.354593	-0.763689	-0.132090
H336	H	1.687926	-0.430356	0.201244
H337	H	1.001534	-1.002876	-0.572179
H338	H	1.334867	-0.669543	-0.238846
H339	H	1.668201	-0.336210	0.094488
H340	H	1.053038	-1.002824	-0.506222
H341	H	1.386371	-0.669491	-0.172889
H342	H	1.719705	-0.336158	0.160444
H343	H	1.096830	-1.086772	-0.562241
H344	H	1.430163	-0.753439	-0.228908
H345	H	1.763496	-0.420105	0.104426
H346	H	1.045330	-1.086811	-0.628216
H347	H	1.378663	-0.753478	-0.294882
H348	H	1.711997	-0.420144	0.038451
H349	H	1.093264	-1.032037	-0.623683
H350	H	1.426597	-0.698704	-0.290350
H351	H	1.759930	-0.365370	0.042983
