data_functionalizedCrystal
_audit_creation_method	'MofGen! by Chris Wilmer'
_symmetry_space_group_name_H-M	'P1'
_symmetry_Int_Tables_number	1
_symmetry_cell_setting	triclinic
loop_
_symmetry_equiv_pos_as_xyz
  x,y,z
_cell_length_a	16.959453
_cell_length_b	16.959455
_cell_length_c	19.805399
_cell_angle_alpha	89.976446
_cell_angle_beta	89.972778
_cell_angle_gamma	90.019746
loop_
_atom_site_label
_atom_site_type_symbol
_atom_site_fract_x
_atom_site_fract_y
_atom_site_fract_z
Zn1	Zn	-0.314763	1.208394	-0.382793
Zn2	Zn	-0.446945	1.208303	-0.269606
Zn3	Zn	-0.314778	1.076215	-0.269610
Zn4	Zn	-0.446896	1.076181	-0.382745
O5	O	-0.380845	1.142273	-0.326188
O6	O	-0.332311	1.318993	-0.367797
O7	O	-0.429440	1.190758	-0.174890
O8	O	-0.204165	1.093801	-0.284646
O9	O	-0.429425	1.318926	-0.284639
O10	O	-0.204154	1.190913	-0.367801
O11	O	-0.332337	1.093713	-0.174893
O12	O	-0.332289	0.965600	-0.284599
O13	O	-0.429342	1.093743	-0.477468
O14	O	-0.429356	0.965575	-0.367718
O15	O	-0.332264	1.190880	-0.477503
O16	O	-0.557550	1.190724	-0.284592
O17	O	-0.557514	1.093655	-0.367714
C18	C	-0.380820	0.936907	-0.326154
C19	C	-0.380828	0.849050	-0.326156
C20	C	-0.431363	0.477529	-0.282866
C21	C	-0.330394	0.477620	-0.369593
C22	C	-0.330381	0.560166	-0.369577
C23	C	-0.380860	0.601398	-0.326205
C24	C	-0.431353	0.560083	-0.282849
C25	C	-0.279895	0.601487	-0.412937
C26	C	-0.279881	0.684038	-0.412922
C27	C	-0.330357	0.725271	-0.369546
C28	C	-0.380850	0.683951	-0.326189
C29	C	-0.431330	0.725182	-0.282817
C30	C	-0.481820	0.683864	-0.239455
C31	C	-0.481829	0.601316	-0.239473
C32	C	-0.330348	0.807819	-0.369528
C33	C	-0.431320	0.807736	-0.282800
C34	C	-0.586212	1.142198	-0.326162
C35	C	-0.674068	1.142238	-0.326173
C36	C	-0.715416	1.091738	-0.282848
C37	C	-0.715274	1.192771	-0.369514
C38	C	-0.797820	1.192808	-0.369529
C39	C	-0.839168	1.142308	-0.326203
C40	C	-0.797970	1.091771	-0.282862
C41	C	-0.839024	1.243338	-0.412873
C42	C	-0.921575	1.243377	-0.412890
C43	C	-0.962924	1.192880	-0.369561
C44	C	-0.921721	1.142342	-0.326218
C45	C	-0.963069	1.091842	-0.282892
C46	C	-0.921868	1.041307	-0.239545
C47	C	-0.839319	1.041275	-0.239533
C48	C	-1.045473	1.192912	-0.369573
C49	C	-1.045623	1.091876	-0.282907
C50	C	-0.174677	1.142371	-0.326230
C51	C	-0.086821	1.142412	-0.326247
C52	C	-0.380796	1.142318	-0.502731
C53	C	-0.380774	1.142337	-0.577963
C54	C	-0.380872	1.348442	-0.326223
C55	C	-0.380883	1.436298	-0.326238
C56	C	-0.330223	1.192917	-0.613327
C57	C	-0.330200	1.192925	-0.684016
C58	C	-0.380733	1.142356	-0.719339
C59	C	-0.431286	1.091771	-0.683970
C60	C	-0.431305	1.091759	-0.613283
C61	C	-0.431213	1.091815	-0.969043
C62	C	-0.431192	1.091832	-1.039736
C63	C	-0.330108	1.192981	-1.039776
C64	C	-0.330127	1.192969	-0.969089
C65	C	-0.380677	1.142381	-0.933726
C66	C	-0.380700	1.142372	-0.857078
C67	C	-0.380714	1.142369	-0.795986
C68	C	-0.380838	1.142275	-0.150332
C69	C	-0.380637	1.142409	-0.075101
H70	H	-0.238768	0.717672	-0.448230
H71	H	-1.079015	1.234047	-0.404874
N72	N	-0.225457	0.557019	-0.459718
H73	H	-0.233123	0.498456	-0.453145
H74	H	-0.168987	0.571454	-0.449269
N75	N	-0.275904	0.852385	-0.416295
H76	H	-0.243931	0.813739	-0.443776
H77	H	-0.239275	0.886621	-0.388795
H78	H	-0.472424	0.841301	-0.247479
N79	N	-0.536292	0.556750	-0.192719
H80	H	-0.568270	0.595393	-0.165239
H81	H	-0.504078	0.522479	-0.161453
N82	N	-0.275626	1.247516	-0.930994
H83	H	-0.219145	1.235268	-0.943303
H84	H	-0.283376	1.239810	-0.880860
N85	N	-0.275662	1.247463	-0.722159
H86	H	-0.243652	1.279495	-0.689056
H87	H	-0.307821	1.284035	-0.751498
N88	N	-1.090217	1.037412	-0.236171
H89	H	-1.051589	1.005398	-0.208711
H90	H	-1.124472	1.000822	-0.263693
H91	H	-0.289300	0.444045	-0.404909
N92	N	-0.670672	1.247233	-0.416238
H93	H	-0.684999	1.303724	-0.405780
H94	H	-0.685025	1.234861	-0.464573
H95	H	-0.522925	0.717446	-0.204145
H96	H	-0.955544	1.000186	-0.204273
H97	H	-0.289076	1.234098	-0.584572
N98	N	-0.485706	1.037229	-0.930907
H99	H	-0.517707	1.005191	-0.964013
H100	H	-0.522308	1.069351	-0.901564
N101	N	-0.794882	0.986775	-0.192782
H102	H	-0.736314	0.994416	-0.199350
H103	H	-0.809345	0.930320	-0.203265
N104	N	-0.670985	1.037240	-0.236092
H105	H	-0.612416	1.044880	-0.242651
H106	H	-0.685446	0.980784	-0.246575
N107	N	-0.485811	0.432973	-0.236093
H108	H	-0.478158	0.374421	-0.242679
H109	H	-0.542279	0.447394	-0.246535
N110	N	-0.275582	1.247544	-1.077917
H111	H	-0.283233	1.239879	-1.128057
H112	H	-0.219132	1.235270	-1.065568
N113	N	-0.966026	1.297876	-0.459631
H114	H	-1.000276	1.265736	-0.490967
H115	H	-0.927269	1.329857	-0.487037
N116	N	-0.794419	1.297799	-0.459596
H117	H	-0.808750	1.354290	-0.449142
H118	H	-0.808764	1.285424	-0.507932
N119	N	-0.485697	1.037288	-1.077837
H120	H	-0.517723	1.005237	-1.044709
H121	H	-0.453506	1.000735	-1.107166
H122	H	-0.472428	1.050594	-0.712736
N123	N	-0.485820	1.037198	-0.575137
H124	H	-0.517829	1.005163	-0.608239
H125	H	-0.522413	1.069344	-0.545804
