data_functionalizedCrystal
_audit_creation_method	'MofGen! by Chris Wilmer'
_symmetry_space_group_name_H-M	'P1'
_symmetry_Int_Tables_number	1
_symmetry_cell_setting	triclinic
loop_
_symmetry_equiv_pos_as_xyz
  x,y,z
_cell_length_a	15.625950
_cell_length_b	15.995350
_cell_length_c	14.750779
_cell_angle_alpha	102.638622
_cell_angle_beta	120.090508
_cell_angle_gamma	96.114081
loop_
_atom_site_label
_atom_site_type_symbol
_atom_site_fract_x
_atom_site_fract_y
_atom_site_fract_z
O1	O	1.286212	-0.025808	0.367750
O2	O	0.999294	-0.061506	0.267910
O3	O	1.150595	0.078841	0.320555
O4	O	1.134911	-0.166155	0.315105
O5	O	1.193366	0.118512	0.495087
O6	O	1.042065	-0.021835	0.442442
O7	O	1.328983	0.013863	0.542282
Zn8	Zn	1.192315	0.002312	0.520073
Zn9	Zn	1.135962	-0.049955	0.290119
O10	O	1.177682	-0.126485	0.489637
C11	C	0.983964	-0.043982	0.342400
C12	C	0.874564	-0.050860	0.304331
C13	C	0.631207	0.034566	0.654686
C14	C	0.528394	0.028075	0.618865
C15	C	0.481818	-0.015169	0.428615
C16	C	0.584628	-0.008686	0.464419
C17	C	0.659315	0.016183	0.577456
C18	C	0.612737	-0.027069	0.387190
C19	C	0.715539	-0.020582	0.422992
C20	C	0.790232	0.004288	0.536024
C21	C	0.762117	0.022669	0.613259
C22	C	0.538048	-0.051932	0.274153
C23	C	0.566157	-0.070315	0.196924
C24	C	0.668960	-0.063834	0.232726
C25	C	0.743653	-0.038964	0.345758
C26	C	0.697074	-0.082216	0.155491
C27	C	0.799876	-0.075729	0.191294
C28	C	0.846455	-0.032477	0.381560
C29	C	1.156945	-0.177464	0.402597
C30	C	1.158890	-0.270262	0.403277
C31	C	1.165868	-0.607469	0.405690
C32	C	1.273527	-0.551722	0.442796
C33	C	1.271680	-0.455093	0.442519
C34	C	1.162407	-0.440177	0.404493
C35	C	1.133682	-0.462750	0.485661
C36	C	1.136408	-0.559157	0.486681
C37	C	1.085543	-0.604791	0.287430
C38	C	1.085247	-0.508142	0.286127
C39	C	1.160445	-0.345630	0.403817
C40	C	1.167828	-0.702014	0.406371
C41	C	1.344312	-0.003662	0.467790
C42	C	1.453711	0.003215	0.505852
C43	C	1.171331	0.129820	0.407592
C44	C	1.169385	0.222617	0.406906
N45	N	1.230781	0.037984	0.677013
N46	N	1.097504	-0.085621	0.133182
C47	C	0.990073	-0.185211	0.945077
C48	C	1.017035	-0.160219	1.054957
C49	C	1.151039	-0.035982	1.101547
C50	C	1.124085	-0.060961	0.991667
C51	C	1.043602	-0.135577	0.913440
C52	C	1.177614	-0.011326	0.960030
C53	C	1.150666	-0.036306	0.850161
C54	C	1.070188	-0.110921	0.771929
C55	C	1.016653	-0.160557	0.803571
C56	C	1.258102	0.063286	1.038261
C57	C	1.311631	0.112921	1.006624
C58	C	1.284678	0.087944	0.896751
C59	C	1.204200	0.013330	0.818519
C60	C	1.338213	0.137580	0.865109
C61	C	1.311264	0.112600	0.755240
C62	C	1.177252	-0.011650	0.708650
H63	H	0.505334	-0.090559	0.104889
N64	N	0.433034	-0.058579	0.237574
N65	N	0.367688	-0.130822	0.175963
H66	H	0.293520	-0.135520	0.150127
H67	H	0.873939	0.009570	0.565173
N68	N	0.707498	0.059976	0.770155
N69	N	0.779129	0.128113	0.814529
H70	H	0.833007	0.146059	0.896076
H71	H	1.354855	0.153018	0.729483
H72	H	0.636251	-0.102455	0.063457
H73	H	0.822931	0.042907	0.705304
H74	H	1.188781	-0.414643	0.572680
H75	H	1.054309	-0.454042	0.461430
H76	H	1.403749	0.198328	0.928817
N77	N	1.393832	0.189136	1.086550
N78	N	1.377607	0.252623	1.136989
H79	H	1.435662	0.306452	1.193439
H80	H	1.331274	-0.407686	0.528722
N81	N	1.285621	0.088827	1.150487
N82	N	1.281353	0.163411	1.193836
H83	H	1.300789	0.181454	1.273096
N84	N	0.828580	-0.094502	0.112395
N85	N	0.761886	-0.116704	0.011476
H86	H	0.782157	-0.129958	-0.044250
H87	H	1.333843	-0.551912	0.528733
H88	H	1.295957	-0.439646	0.385620
H89	H	0.973438	-0.200645	1.080707
N90	N	0.922759	-0.007117	0.497021
N91	N	0.917799	-0.053077	0.553543
H92	H	0.971691	-0.035176	0.635082
N93	N	0.499701	0.046862	0.697776
N94	N	0.566400	0.069068	0.798694
H95	H	0.546137	0.082339	0.854425
N96	N	0.405512	-0.040563	0.313159
N97	N	0.313729	-0.046348	0.281204
H98	H	0.259837	-0.064284	0.199662
N99	N	1.207931	-0.557079	0.597064
N100	N	1.255492	-0.484576	0.672813
H101	H	1.306008	-0.483102	0.750775
N102	N	1.305574	-0.591136	0.371927
N103	N	1.249448	-0.660774	0.293246
H104	H	1.272080	-0.688616	0.243189
N105	N	1.106523	-0.648623	0.208040
N106	N	1.125068	-0.606851	0.154840
H107	H	1.139896	-0.637803	0.098778
N108	N	1.038552	-0.606055	0.457817
N109	N	0.968466	-0.567540	0.436992
H110	H	0.899357	-0.600656	0.416611
H111	H	1.105987	-0.494572	0.225902
N112	N	0.983436	-0.498367	0.243793
N113	N	0.966007	-0.440898	0.300425
H114	H	0.894101	-0.433991	0.270532
H115	H	1.005928	-0.642885	0.259120
N116	N	1.095041	-0.087875	0.628747
N117	N	1.099394	-0.162374	0.641491
H118	H	1.041337	-0.216207	0.585061
N119	N	1.042634	-0.136447	0.659691
N120	N	0.970772	-0.203066	0.589857
H121	H	0.951309	-0.221095	0.510587
N122	N	0.934430	-0.236772	0.723665
N123	N	0.886634	-0.281081	0.751920
H124	H	0.828566	-0.334906	0.695488
N125	N	0.907849	-0.261426	0.865171
N126	N	0.860053	-0.305735	0.893426
H127	H	0.801985	-0.359561	0.836994
N128	N	1.233256	0.040222	1.181474
N129	N	1.257317	0.062513	1.279571
H130	H	1.315385	0.116332	1.336021
