data_functionalizedCrystal
_audit_creation_method	'MofGen! by Chris Wilmer'
_symmetry_space_group_name_H-M	'P1'
_symmetry_Int_Tables_number	1
_symmetry_cell_setting	triclinic
loop_
_symmetry_equiv_pos_as_xyz
  x,y,z
_cell_length_a	15.995350
_cell_length_b	18.366186
_cell_length_c	15.995362
_cell_angle_alpha	90.000851
_cell_angle_beta	96.505123
_cell_angle_gamma	89.994601
loop_
_atom_site_label
_atom_site_type_symbol
_atom_site_fract_x
_atom_site_fract_y
_atom_site_fract_z
O1	O	1.110996	-0.060479	-0.107927
O2	O	1.610996	0.439521	0.392073
O3	O	0.867221	-0.060493	-0.121255
O4	O	1.367221	0.439507	0.378745
O5	O	0.995767	-0.060491	0.007296
O6	O	1.495767	0.439509	0.507296
O7	O	0.982450	-0.060481	-0.236478
O8	O	1.482450	0.439519	0.263522
O9	O	0.995745	0.060609	0.007302
O10	O	1.495745	0.560609	0.507302
O11	O	0.867199	0.060606	-0.121248
O12	O	1.367199	0.560606	0.378752
O13	O	1.110974	0.060620	-0.107921
O14	O	1.610974	0.560620	0.392079
Zn15	Zn	0.989083	0.079840	-0.114584
Zn16	Zn	1.489083	0.579840	0.385416
Zn17	Zn	0.989112	-0.079713	-0.114592
Zn18	Zn	1.489112	0.420287	0.385408
O19	O	0.982428	0.060618	-0.236471
O20	O	1.482428	0.560618	0.263529
C21	C	0.836015	0.000055	-0.120700
C22	C	1.336015	0.500055	0.379300
C23	C	0.743065	0.000049	-0.119049
C24	C	1.243065	0.500049	0.380951
N25	N	0.989069	0.188732	-0.114577
N26	N	1.489069	0.688732	0.385423
N27	N	0.989132	-0.188604	-0.114592
N28	N	1.489132	0.311396	0.385408
C29	C	0.405317	0.000064	-0.113116
C30	C	0.905317	0.500064	0.386884
C31	C	0.452747	0.000330	-0.021565
C32	C	0.952747	0.500330	0.478435
C33	C	0.549437	0.000053	-0.023217
C34	C	1.049437	0.500053	0.476783
C35	C	0.572878	0.000057	-0.116059
C36	C	1.072878	0.500057	0.383941
C37	C	0.531805	-0.069092	-0.161219
C38	C	1.031805	0.430908	0.338781
C39	C	0.435169	-0.069145	-0.158919
C40	C	0.935169	0.430855	0.341081
C41	C	0.434806	0.068568	-0.160803
C42	C	0.934806	0.568568	0.339197
C43	C	0.531751	0.069477	-0.160782
C44	C	1.031751	0.569477	0.339218
C45	C	0.667575	0.000051	-0.117727
C46	C	1.167575	0.500051	0.382273
C47	C	0.310619	0.000065	-0.111451
C48	C	0.810619	0.500065	0.388549
C49	C	1.142179	0.000071	-0.108475
C50	C	1.642179	0.500071	0.391525
C51	C	1.235130	0.000072	-0.110127
C52	C	1.735130	0.500072	0.389873
C53	C	0.995203	0.000056	0.038494
C54	C	1.495203	0.500056	0.538494
C55	C	0.993548	0.000047	0.131444
C56	C	1.493548	0.500047	0.631444
C57	C	1.046008	0.226833	-0.057683
C58	C	1.546008	0.726833	0.442317
C59	C	1.046013	0.303061	-0.057679
C60	C	1.546013	0.803061	0.442321
C61	C	0.989088	0.341184	-0.114584
C62	C	1.489088	0.841184	0.385416
C63	C	0.932139	0.303074	-0.171483
C64	C	1.432139	0.803074	0.328517
C65	C	0.932129	0.226847	-0.171479
C66	C	1.432129	0.726847	0.328521
C67	C	0.978121	0.461947	-0.190840
C68	C	1.478121	0.961947	0.309160
C69	C	0.978137	0.538172	-0.190845
C70	C	1.478137	1.038172	0.309155
C71	C	0.989112	0.576292	-0.114595
C72	C	1.489112	1.076292	0.385405
C73	C	1.000090	0.538177	-0.038337
C74	C	1.500090	1.038177	0.461663
C75	C	1.000081	0.461951	-0.038333
C76	C	1.500081	0.961951	0.461667
C77	C	0.989091	0.423839	-0.114594
C78	C	1.489091	0.923839	0.385406
C79	C	1.046059	0.697048	-0.057692
C80	C	1.546059	1.197048	0.442308
C81	C	1.046059	0.773277	-0.057687
C82	C	1.546059	1.273277	0.442313
C83	C	0.932188	0.773289	-0.171498
C84	C	1.432188	1.273289	0.328502
C85	C	0.932185	0.697061	-0.171495
C86	C	1.432185	1.197061	0.328505
C87	C	0.989125	0.658945	-0.114593
C88	C	1.489125	1.158945	0.385407
C89	C	0.987600	0.000033	0.469189
C90	C	1.487600	0.500033	0.969189
C91	C	0.896051	-0.000242	0.421755
C92	C	1.396051	0.499758	0.921755
C93	C	0.897707	0.000036	0.325066
C94	C	1.397707	0.500036	0.825066
C95	C	0.990550	0.000040	0.301630
C96	C	1.490550	0.500040	0.801630
C97	C	1.035693	0.069193	0.342711
C98	C	1.535693	0.569193	0.842711
C99	C	1.033389	0.069246	0.439346
C100	C	1.533389	0.569246	0.939346
C101	C	1.035305	-0.068467	0.439697
C102	C	1.535305	0.431533	0.939697
C103	C	1.035287	-0.069376	0.342752
C104	C	1.535287	0.430624	0.842752
C105	C	0.992222	0.000046	0.206933
C106	C	1.492222	0.500046	0.706933
C107	C	0.985931	0.000032	0.563886
C108	C	1.485931	0.500032	1.063886
C109	C	0.982980	0.000058	0.732329
C110	C	1.482980	0.500058	1.232329
C111	C	0.984603	0.000026	0.639375
C112	C	1.484603	0.500026	1.139375
H113	H	0.577856	0.049621	0.012281
H114	H	1.077856	0.549621	0.512281
H115	H	0.885823	0.666037	-0.217827
H116	H	1.385823	1.166037	0.282173
H117	H	0.560187	-0.120557	-0.129858
H118	H	1.060187	0.379443	0.370142
H119	H	1.009017	0.430921	0.023759
H120	H	1.509017	0.930921	0.523759
H121	H	0.969169	0.430916	-0.252937
H122	H	1.469169	0.930916	0.247063
H123	H	1.100603	0.072384	0.471594
H124	H	1.600603	0.572384	0.971594
H125	H	0.433161	-0.048988	0.014859
H126	H	0.933161	0.451012	0.514859
H127	H	1.009027	0.569213	0.023754
H128	H	1.509027	1.069213	0.523754
O129	O	0.550179	0.074565	-0.241511
O130	O	1.050179	0.574565	0.258489
C131	C	0.593707	0.140113	-0.251883
C132	C	1.093707	0.640113	0.248117
H133	H	0.625096	0.159381	-0.188183
H134	H	1.125096	0.659381	0.311817
H135	H	0.643724	0.130635	-0.296133
H136	H	1.143724	0.630635	0.203867
H137	H	0.547502	0.183326	-0.279718
H138	H	1.047502	0.683326	0.220282
O139	O	0.396838	0.069031	-0.241300
O140	O	0.896838	0.569031	0.258700
C141	C	0.343905	0.007751	-0.254531
C142	C	0.843905	0.507751	0.245469
H143	H	0.325636	-0.012166	-0.191587
H144	H	0.825636	0.487834	0.308413
H145	H	0.284765	0.023320	-0.297391
H146	H	0.784765	0.523320	0.202609
H147	H	0.378509	-0.037452	-0.285314
H148	H	0.878509	0.462548	0.214686
H149	H	1.102993	-0.073549	0.327390
H150	H	1.602993	0.426451	0.827390
O151	O	0.430517	0.059510	0.021992
O152	O	0.930517	0.559510	0.521992
C153	C	0.371762	0.101598	-0.029688
C154	C	0.871762	0.601598	0.470312
H155	H	0.338655	0.065769	-0.081447
H156	H	0.838655	0.565769	0.418553
H157	H	0.323305	0.125221	0.009835
H158	H	0.823305	0.625221	0.509835
H159	H	0.405814	0.147834	-0.059242
H160	H	0.905814	0.647834	0.440758
O161	O	0.996109	-0.130465	0.310158
O162	O	1.496109	0.369535	0.810158
C163	C	1.053736	-0.173202	0.271035
C164	C	1.553736	0.326798	0.771035
H165	H	1.120601	-0.159230	0.298818
H166	H	1.620601	0.340770	0.798818
H167	H	1.041044	-0.233316	0.282093
H168	H	1.541044	0.266684	0.782093
H169	H	1.046163	-0.161622	0.200561
H170	H	1.546163	0.338378	0.700561
O171	O	0.582770	-0.059219	0.019286
O172	O	1.082770	0.440781	0.519286
C173	C	0.624360	-0.103102	-0.035364
C174	C	1.124360	0.396898	0.464636
H175	H	0.642681	-0.068515	-0.089597
H176	H	1.142681	0.431485	0.410403
H177	H	0.683382	-0.127475	0.000611
H178	H	1.183382	0.372525	0.500611
H179	H	0.580651	-0.148801	-0.061297
H180	H	1.080651	0.351199	0.438703
H181	H	0.402924	-0.072280	-0.226135
H182	H	0.902924	0.427720	0.273865
O183	O	1.101343	0.189922	-0.002324
O184	O	1.601343	0.689922	0.497676
C185	C	1.151614	0.239903	0.047881
C186	C	1.651614	0.739903	0.547881
H187	H	1.117294	0.294247	0.048841
H188	H	1.617294	0.794247	0.548841
H189	H	1.164386	0.217884	0.114744
H190	H	1.664386	0.717884	0.614744
H191	H	1.213812	0.247996	0.020655
H192	H	1.713812	0.747996	0.520655
H193	H	1.092381	0.334089	-0.011347
H194	H	1.592381	0.834089	0.488653
O195	O	0.852274	-0.059324	0.443873
O196	O	1.352274	0.440676	0.943873
C197	C	0.780467	-0.036125	0.480129
C198	C	1.280467	0.463875	0.980129
H199	H	0.763049	0.021436	0.457860
H200	H	1.263049	0.521436	0.957860
H201	H	0.725790	-0.074485	0.460230
H202	H	1.225790	0.425515	0.960230
H203	H	0.794496	-0.036565	0.551614
H204	H	1.294496	0.463435	1.051614
H205	H	0.416869	-0.120839	-0.125992
H206	H	0.916869	0.379161	0.374008
O207	O	0.548769	-0.072070	-0.242561
O208	O	1.048769	0.427930	0.257439
C209	C	0.598119	-0.011487	-0.259905
C210	C	1.098119	0.488513	0.240095
H211	H	0.632620	0.010144	-0.198661
H212	H	1.132620	0.510144	0.301339
H213	H	0.645896	-0.028596	-0.303894
H214	H	1.145896	0.471404	0.196106
H215	H	0.555748	0.032979	-0.291186
H216	H	1.055748	0.532979	0.208814
H217	H	0.969203	0.569199	-0.252939
H218	H	1.469203	1.069199	0.247061
H219	H	0.414259	0.120981	-0.130870
H220	H	0.914259	0.620981	0.369130
O221	O	1.101291	0.810404	-0.002447
O222	O	1.601291	1.310404	0.497553
C223	C	1.089102	0.885858	-0.014660
C224	C	1.589102	1.385858	0.485340
H225	H	1.022535	0.896277	-0.045910
H226	H	1.522535	1.396277	0.454090
H227	H	1.098426	0.914828	0.048744
H228	H	1.598426	1.414828	0.548744
H229	H	1.136489	0.907482	-0.056689
H230	H	1.636489	1.407482	0.443311
O231	O	1.101393	0.660130	-0.002333
O232	O	1.601393	1.160130	0.497667
C233	C	1.151660	0.710110	0.047878
C234	C	1.651660	1.210110	0.547878
H235	H	1.117337	0.764451	0.048843
H236	H	1.617337	1.264451	0.548843
H237	H	1.164430	0.688085	0.114739
H238	H	1.664430	1.188085	0.614739
H239	H	1.213858	0.718207	0.020656
H240	H	1.713858	1.218207	0.520656
H241	H	0.885835	0.804328	-0.217828
H242	H	1.385835	1.304328	0.282172
O243	O	0.564433	0.130436	-0.121381
O244	O	1.064433	0.630436	0.378619
C245	C	0.624192	0.110444	-0.053637
C246	C	1.124192	0.610444	0.446363
H247	H	0.649010	0.053546	-0.065088
H248	H	1.149010	0.553546	0.434912
H249	H	0.678570	0.150916	-0.048245
H250	H	1.178570	0.650916	0.451755
H251	H	0.593321	0.110704	0.007201
H252	H	1.093321	0.610704	0.507201
H253	H	1.005380	-0.120883	0.460233
H254	H	1.505380	0.379117	0.960233
O255	O	0.876808	0.340185	-0.226646
O256	O	1.376808	0.840185	0.273354
C257	C	0.825151	0.384277	-0.181774
C258	C	1.325151	0.884277	0.318226
H259	H	0.858502	0.395694	-0.116274
H260	H	1.358502	0.895694	0.383726
H261	H	0.811913	0.437881	-0.216717
H262	H	1.311913	0.937881	0.283283
H263	H	0.763267	0.354914	-0.176045
H264	H	1.263267	0.854914	0.323955
O265	O	0.876789	0.189945	-0.226834
O266	O	1.376789	0.689945	0.273166
C267	C	0.826526	0.239935	-0.277044
C268	C	1.326526	0.739935	0.222956
H269	H	0.860855	0.294268	-0.278011
H270	H	1.360855	0.794268	0.221989
H271	H	0.813750	0.217910	-0.343904
H272	H	1.313750	0.717910	0.156096
H273	H	0.764330	0.248050	-0.249819
H274	H	1.264330	0.748050	0.250181
O275	O	0.855444	-0.059179	0.291266
O276	O	1.355444	0.440821	0.791266
C277	C	0.894307	-0.123076	0.325610
C278	C	1.394307	0.376924	0.825610
H279	H	0.931373	-0.110028	0.388959
H280	H	1.431373	0.389972	0.888959
H281	H	0.844140	-0.165534	0.334688
H282	H	1.344140	0.334466	0.834688
H283	H	0.938834	-0.145333	0.280958
H284	H	1.438834	0.354667	0.780958
O285	O	0.852441	0.058530	0.445063
O286	O	1.352441	0.558530	0.945063
C287	C	0.770496	0.057566	0.402017
C288	C	1.270496	0.557566	0.902017
H289	H	0.753283	-0.000477	0.381492
H290	H	1.253283	0.499523	0.881492
H291	H	0.723928	0.078199	0.445503
H292	H	1.223928	0.578199	0.945503
H293	H	0.768015	0.094196	0.344249
H294	H	1.268015	0.594196	0.844249
O295	O	0.854957	0.059198	0.291766
O296	O	1.354957	0.559198	0.791766
C297	C	0.787006	0.036184	0.233937
C298	C	1.287006	0.536184	0.733937
H299	H	0.769194	-0.022021	0.249222
H300	H	1.269194	0.477979	0.749222
H301	H	0.730786	0.073572	0.238387
H302	H	1.230786	0.573572	0.738387
H303	H	0.806088	0.038394	0.167440
H304	H	1.306088	0.538394	0.667440
H305	H	1.000450	0.120938	0.457650
H306	H	1.500450	0.620938	0.957650
H307	H	1.103902	0.071767	0.328585
H308	H	1.603902	0.571767	0.828585
H309	H	1.102804	-0.068931	0.471457
H310	H	1.602804	0.431069	0.971457
H311	H	1.004321	0.120655	0.314332
H312	H	1.504321	0.620655	0.814332
