data_functionalizedCrystal
_audit_creation_method	'MofGen! by Chris Wilmer'
_symmetry_space_group_name_H-M	'P1'
_symmetry_Int_Tables_number	1
_symmetry_cell_setting	triclinic
loop_
_symmetry_equiv_pos_as_xyz
  x,y,z
_cell_length_a	19.288864
_cell_length_b	13.330367
_cell_length_c	19.288865
_cell_angle_alpha	90.009880
_cell_angle_beta	83.136245
_cell_angle_gamma	90.021397
loop_
_atom_site_label
_atom_site_type_symbol
_atom_site_fract_x
_atom_site_fract_y
_atom_site_fract_z
O1	O	0.921351	0.083757	0.086647
O2	O	1.421351	0.583757	0.586647
O3	O	0.719091	0.083690	0.098336
O4	O	1.219091	0.583690	0.598336
O5	O	0.826065	0.083705	-0.008639
O6	O	1.326065	0.583705	0.491361
O7	O	0.814377	0.083741	0.193622
O8	O	1.314377	0.583741	0.693622
O9	O	0.826050	-0.083142	-0.008641
O10	O	1.326050	0.416858	0.491359
O11	O	0.719075	-0.083158	0.098334
O12	O	1.219075	0.416842	0.598334
O13	O	0.921336	-0.083091	0.086645
O14	O	1.421336	0.416909	0.586645
Cu15	Cu	0.820204	-0.098359	0.092489
Cu16	Cu	1.320204	0.401641	0.592489
Cu17	Cu	0.820223	0.098958	0.092492
Cu18	Cu	1.320223	0.598958	0.592492
O19	O	0.814361	-0.083106	0.193620
O20	O	1.314361	0.416894	0.693620
C21	C	0.693207	0.000257	0.097959
C22	C	1.193207	0.500257	0.597959
C23	C	0.616103	0.000231	0.096830
C24	C	1.116103	0.500231	0.596830
N25	N	0.820196	-0.237140	0.092487
N26	N	1.320196	0.262860	0.592487
C27	C	0.571407	0.000258	0.159598
C28	C	1.071407	0.500258	0.659598
C29	C	0.498960	0.000268	0.158537
C30	C	0.998960	0.500268	0.658537
C31	C	0.471212	0.000273	0.094705
C32	C	0.971212	0.500273	0.594705
C33	C	0.515918	0.000240	0.031929
C34	C	1.015918	0.500240	0.531929
C35	C	0.588364	0.000219	0.032991
C36	C	1.088364	0.500219	0.532991
C37	C	0.362956	0.058751	0.044526
C38	C	0.862956	0.558751	0.544526
C39	C	0.290511	0.058779	0.043467
C40	C	0.790511	0.558779	0.543467
C41	C	0.247767	0.000333	0.091425
C42	C	0.747767	0.500333	0.591425
C43	C	0.277474	-0.058127	0.140455
C44	C	0.777474	0.441873	0.640455
C45	C	0.349919	-0.058148	0.141518
C46	C	0.849919	0.441852	0.641518
C47	C	0.392658	0.000295	0.093546
C48	C	0.892658	0.500295	0.593546
C49	C	0.124514	0.000370	0.153047
C50	C	0.624514	0.500370	0.653047
C51	C	0.052066	0.000375	0.151984
C52	C	0.552066	0.500375	0.651984
C53	C	0.069026	0.000356	0.025374
C54	C	0.569026	0.500356	0.525374
C55	C	0.141473	0.000342	0.026439
C56	C	0.641473	0.500342	0.526439
C57	C	0.169212	0.000353	0.090278
C58	C	0.669212	0.500353	0.590278
C59	C	0.772852	-0.709770	0.139842
C60	C	1.272852	-0.209770	0.639842
C61	C	0.867612	-0.709724	0.045136
C62	C	1.367612	-0.209724	0.545136
C63	C	0.867604	-0.604706	0.045134
C64	C	1.367604	-0.104706	0.545134
C65	C	0.820220	-0.552215	0.092487
C66	C	1.320220	-0.052215	0.592487
C67	C	0.772844	-0.604742	0.139842
C68	C	1.272844	-0.104742	0.639842
C69	C	0.914983	-0.552171	-0.002215
C70	C	1.414983	-0.052171	0.497785
C71	C	0.914978	-0.447146	-0.002219
C72	C	1.414978	0.052854	0.497781
C73	C	0.867590	-0.394653	0.045132
C74	C	1.367590	0.105347	0.545132
C75	C	0.820212	-0.447186	0.092488
C76	C	1.320212	0.052814	0.592488
C77	C	0.772829	-0.394695	0.139841
C78	C	1.272829	0.105305	0.639841
C79	C	0.725446	-0.447227	0.187195
C80	C	1.225446	0.052773	0.687195
C81	C	0.725457	-0.552249	0.187193
C82	C	1.225457	-0.052249	0.687193
C83	C	0.867580	-0.289631	0.045134
C84	C	1.367580	0.210369	0.545134
C85	C	0.772821	-0.289667	0.139842
C86	C	1.272821	0.210333	0.639842
C87	C	0.947220	0.000344	0.087022
C88	C	1.447220	0.500344	0.587022
C89	C	1.024324	0.000377	0.088151
C90	C	1.524324	0.500377	0.588151
C91	C	0.825682	0.000278	-0.034516
C92	C	1.325682	0.500278	0.465484
C93	C	0.824553	0.000269	-0.111620
C94	C	1.324553	0.500269	0.388380
N95	N	0.820236	0.237739	0.092489
N96	N	1.320236	0.737739	0.592489
C97	C	0.887321	0.000285	-0.156316
C98	C	1.387321	0.500285	0.343684
C99	C	0.886260	0.000301	-0.228763
C100	C	1.386260	0.500301	0.271237
C101	C	0.822428	0.000280	-0.256511
C102	C	1.322428	0.500280	0.243489
C103	C	0.759652	0.000270	-0.211805
C104	C	1.259652	0.500270	0.288195
C105	C	0.760714	0.000264	-0.139359
C106	C	1.260714	0.500264	0.360641
C107	C	0.772243	-0.058179	-0.364799
C108	C	1.272243	0.441821	0.135201
C109	C	0.771183	-0.058180	-0.437244
C110	C	1.271183	0.441820	0.062756
C111	C	0.819148	0.000302	-0.479956
C112	C	1.319148	0.500302	0.020044
C113	C	0.868185	0.058771	-0.450218
C114	C	1.368185	0.558771	0.049782
C115	C	0.869247	0.058766	-0.377772
C116	C	1.369247	0.558766	0.122228
C117	C	0.821269	0.000287	-0.335065
C118	C	1.321269	0.500287	0.164935
C119	C	0.880770	0.000336	-0.603209
C120	C	1.380770	0.500336	-0.103209
C121	C	0.879707	0.000357	-0.675657
C122	C	1.379707	0.500357	-0.175657
C123	C	0.753097	0.000317	-0.658697
C124	C	1.253097	0.500317	-0.158697
C125	C	0.754162	0.000305	-0.586250
C126	C	1.254162	0.500305	-0.086250
C127	C	0.818001	0.000310	-0.558511
C128	C	1.318001	0.500310	-0.058511
C129	C	0.814745	0.000323	0.219497
C130	C	1.314745	0.500323	0.719497
C131	C	0.815874	0.000339	0.296601
C132	C	1.315874	0.500339	0.796601
H133	H	0.593987	0.000269	0.211580
H134	H	1.093987	0.500269	0.711580
Cl135	Cl	0.675249	0.000280	-0.530057
Cl136	Cl	1.175249	0.500280	-0.030057
Cl137	Cl	0.713245	-0.223687	0.199371
Cl138	Cl	1.213245	0.276313	0.699371
Cl139	Cl	0.961023	0.000336	-0.568333
Cl140	Cl	1.461023	0.500336	-0.068333
H141	H	0.930822	0.000376	-0.712049
H142	H	1.430822	0.500376	-0.212049
H143	H	0.701123	0.000305	-0.681288
H144	H	1.201123	0.500305	-0.181288
H145	H	0.686869	-0.404477	0.225753
H146	H	1.186869	0.095523	0.725753
H147	H	0.686880	-0.595027	0.225747
H148	H	1.186880	-0.095027	0.725747
Cl149	Cl	0.711939	-0.131710	-0.311110
Cl150	Cl	1.211939	0.368290	0.188890
H151	H	0.734272	-0.752544	0.178395
H152	H	1.234272	-0.252544	0.678395
Cl153	Cl	0.927182	-0.775710	-0.014386
Cl154	Cl	1.427182	-0.275710	0.485614
Cl155	Cl	0.974554	-0.618157	-0.061738
Cl156	Cl	1.474554	-0.118157	0.438262
Cl157	Cl	0.974540	-0.381113	-0.061749
Cl158	Cl	1.474540	0.118887	0.438251
H159	H	0.177866	0.000325	-0.024674
H160	H	0.677866	0.500325	0.475326
H161	H	0.906161	-0.246865	0.006582
H162	H	1.406161	0.253135	0.506582
Cl163	Cl	0.967575	0.000320	-0.121448
Cl164	Cl	1.467575	0.500320	0.378552
H165	H	0.937375	0.000318	-0.265162
H166	H	1.437375	0.500318	0.234838
Cl167	Cl	0.930886	0.132273	-0.340387
Cl168	Cl	1.430886	0.632273	0.159613
Cl169	Cl	0.928488	0.132298	-0.503906
Cl170	Cl	1.428488	0.632298	-0.003906
Cl171	Cl	0.416685	0.132233	-0.015771
Cl172	Cl	0.916685	0.632233	0.484229
Cl173	Cl	0.679405	0.000252	-0.246686
Cl174	Cl	1.179405	0.500252	0.253314
Cl175	Cl	0.034151	0.000350	-0.054873
Cl176	Cl	0.534151	0.500350	0.445127
Cl177	Cl	0.159390	0.000375	0.233300
Cl178	Cl	0.659390	0.500375	0.733300
Cl179	Cl	0.681799	0.000244	-0.083166
Cl180	Cl	1.181799	0.500244	0.416834
Cl181	Cl	0.709540	-0.131687	-0.474623
Cl182	Cl	1.209540	0.368313	0.025377
H183	H	0.374104	-0.105752	0.181438
H184	H	0.874104	0.394248	0.681438
Cl185	Cl	0.442760	0.000300	0.237451
Cl186	Cl	0.942760	0.500300	0.737451
Cl187	Cl	0.481037	0.000239	-0.048318
Cl188	Cl	0.981037	0.500239	0.451682
Cl189	Cl	0.223746	-0.131607	0.200751
Cl190	Cl	0.723746	0.368393	0.700751
H191	H	0.266329	0.106384	0.003546
H192	H	0.766329	0.606384	0.503546
Cl193	Cl	-0.004125	0.000403	0.230900
Cl194	Cl	0.495875	0.500403	0.730900
H195	H	0.624756	0.000198	-0.018124
H196	H	1.124756	0.500198	0.481876
