data_functionalizedCrystal
_audit_creation_method	'MofGen! by Chris Wilmer'
_symmetry_space_group_name_H-M	'P1'
_symmetry_Int_Tables_number	1
_symmetry_cell_setting	triclinic
loop_
_symmetry_equiv_pos_as_xyz
  x,y,z
_cell_length_a	15.995300
_cell_length_b	16.098524
_cell_length_c	17.019448
_cell_angle_alpha	89.196975
_cell_angle_beta	83.437365
_cell_angle_gamma	93.066695
loop_
_atom_site_label
_atom_site_type_symbol
_atom_site_fract_x
_atom_site_fract_y
_atom_site_fract_z
O1	O	1.113878	0.061817	0.104297
O2	O	1.613878	0.561817	0.604297
O3	O	0.870039	0.060913	0.116853
O4	O	1.370039	0.560913	0.616853
O5	O	0.999146	0.069558	-0.003883
O6	O	1.499146	0.569558	0.496117
O7	O	0.984771	0.053172	0.225033
O8	O	1.484771	0.553172	0.725033
O9	O	0.992479	-0.068506	-0.010162
O10	O	1.492479	0.431494	0.489838
O11	O	0.863372	-0.077152	0.110574
O12	O	1.363372	0.422848	0.610574
O13	O	1.107211	-0.076247	0.098018
O14	O	1.607211	0.423753	0.598018
Zn15	Zn	0.984233	-0.098620	0.103299
Zn16	Zn	1.484233	0.401380	0.603299
Zn17	Zn	0.993017	0.083285	0.111572
Zn18	Zn	1.493017	0.583285	0.611572
O19	O	0.978104	-0.084892	0.218754
O20	O	1.478104	0.415108	0.718754
C21	C	0.835513	-0.008084	0.113202
C22	C	1.335513	0.491916	0.613202
C23	C	0.742567	-0.007976	0.111666
C24	C	1.242567	0.492024	0.611666
N25	N	0.978244	-0.222766	0.097653
N26	N	1.478244	0.277234	0.597653
C27	C	0.572397	-0.007766	0.108831
C28	C	1.072397	0.492234	0.608831
C29	C	0.524538	-0.013922	0.194798
C30	C	1.024538	0.486078	0.694798
C31	C	0.427872	-0.013494	0.193244
C32	C	0.927872	0.486506	0.693244
C33	C	0.404853	-0.007561	0.106041
C34	C	0.904853	0.492439	0.606041
C35	C	0.449981	0.074178	0.066968
C36	C	0.949981	0.574178	0.566968
C37	C	0.546608	0.074086	0.069146
C38	C	1.046608	0.574086	0.569146
C39	C	0.539311	-0.082833	0.060733
C40	C	1.039311	0.417167	0.560733
C41	C	0.442316	-0.083866	0.060694
C42	C	0.942316	0.416134	0.560694
C43	C	0.310166	-0.007442	0.104459
C44	C	0.810166	0.492558	0.604459
C45	C	0.667086	-0.007880	0.110410
C46	C	1.167086	0.492120	0.610410
C47	C	1.026711	-0.269620	0.143386
C48	C	1.526711	0.230380	0.643386
C49	C	1.022533	-0.356526	0.139431
C50	C	1.522533	0.143474	0.639431
C51	C	0.969883	-0.396577	0.089747
C52	C	1.469883	0.103423	0.589747
C53	C	0.921414	-0.349716	0.044009
C54	C	1.421414	0.150284	0.544009
C55	C	0.925597	-0.262811	0.047960
C56	C	1.425597	0.237189	0.547960
C57	C	0.954727	-0.658803	0.075425
C58	C	1.454727	-0.158803	0.575425
C59	C	0.950545	-0.745715	0.071479
C60	C	1.450545	-0.245715	0.571479
C61	C	1.051667	-0.752518	0.166901
C62	C	1.551667	-0.252518	0.666901
C63	C	1.055841	-0.665611	0.170851
C64	C	1.555841	-0.165611	0.670851
C65	C	1.007376	-0.618758	0.125110
C66	C	1.507376	-0.118758	0.625110
C67	C	0.965609	-0.485409	0.085705
C68	C	1.465609	0.014591	0.585705
C69	C	1.011655	-0.529927	0.129149
C70	C	1.511655	-0.029927	0.629149
C71	C	1.141738	-0.007249	0.101670
C72	C	1.641738	0.492751	0.601670
C73	C	1.234684	-0.007352	0.103206
C74	C	1.734684	0.492648	0.603206
C75	C	0.995396	0.002624	-0.036315
C76	C	1.495396	0.502624	0.463685
C77	C	0.994144	0.008877	-0.123598
C78	C	1.494144	0.508877	0.376402
N79	N	0.999013	0.207431	0.117212
N80	N	1.499013	0.707431	0.617212
C81	C	0.987325	0.048108	-0.617087
C82	C	1.487325	0.548108	-0.117087
C83	C	0.988493	0.042215	-0.535075
C84	C	1.488493	0.542215	-0.035075
C85	C	0.985436	-0.035990	-0.497507
C86	C	1.485436	0.464010	0.002493
C87	C	0.981219	-0.108307	-0.541957
C88	C	1.481219	0.391693	-0.041957
C89	C	0.980058	-0.102414	-0.623968
C90	C	1.480058	0.397586	-0.123968
C91	C	0.988766	-0.057547	-0.250059
C92	C	1.488766	0.442453	0.249941
C93	C	0.989925	-0.063435	-0.168041
C94	C	1.489925	0.436565	0.331959
C95	C	0.997200	0.087088	-0.161165
C96	C	1.497200	0.587088	0.338835
C97	C	0.996033	0.092974	-0.243178
C98	C	1.496033	0.592974	0.256822
C99	C	0.991822	0.020657	-0.287621
C100	C	1.491822	0.520657	0.212379
C101	C	0.986626	-0.042014	-0.413677
C102	C	1.486626	0.457986	0.086323
C103	C	0.990637	0.026682	-0.371450
C104	C	1.490637	0.526682	0.128550
C105	C	0.981854	-0.017957	0.251186
C106	C	1.481854	0.482043	0.751186
C107	C	0.983107	-0.024204	0.338470
C108	C	1.483107	0.475796	0.838470
H109	H	0.396532	-0.072285	0.224192
H110	H	0.896532	0.427715	0.724192
Cl111	Cl	0.991162	0.146428	-0.664306
Cl112	Cl	1.491162	0.646428	-0.164306
H113	H	0.436305	0.081469	0.003027
H114	H	0.936305	0.581469	0.503027
Cl115	Cl	0.999879	0.191293	-0.290400
Cl116	Cl	1.499879	0.691293	0.209600
Cl117	Cl	0.977381	-0.206623	-0.494729
Cl118	Cl	1.477381	0.293377	0.005271
H119	H	0.878549	-0.382332	0.003551
H120	H	1.378549	0.117668	0.503551
Cl121	Cl	1.077845	-0.479576	0.191604
Cl122	Cl	1.577845	0.020424	0.691604
H123	H	1.098718	-0.633008	0.211307
H124	H	1.598718	-0.133008	0.711307
Cl125	Cl	1.112593	-0.811423	0.224398
Cl126	Cl	1.612593	-0.311423	0.724398
H127	H	0.907667	-0.778321	0.031021
H128	H	1.407667	-0.278321	0.531021
H129	H	0.579332	0.081967	0.006173
H130	H	1.079332	0.581967	0.506173
H131	H	0.412023	-0.144308	0.089193
H132	H	0.912023	0.355692	0.589193
Cl133	Cl	0.974759	-0.193325	-0.679841
Cl134	Cl	1.474759	0.306675	-0.179841
Cl135	Cl	1.083465	-0.415425	0.196928
Cl136	Cl	1.583465	0.084575	0.696928
Cl137	Cl	0.549177	-0.104494	0.244408
Cl138	Cl	1.049177	0.395506	0.744408
H139	H	0.424300	0.130863	0.098882
H140	H	0.924300	0.630863	0.598882
Cl141	Cl	0.566312	-0.178070	0.100241
Cl142	Cl	1.066312	0.321930	0.600241
H143	H	0.915263	-0.620666	0.038179
H144	H	1.415263	-0.120666	0.538179
Cl145	Cl	0.418709	-0.084542	-0.037799
Cl146	Cl	0.918709	0.415458	0.462201
Cl147	Cl	0.588785	-0.077010	-0.037171
Cl148	Cl	1.088785	0.422990	0.462829
H149	H	0.546711	0.039984	0.231393
H150	H	1.046711	0.539984	0.731393
Cl151	Cl	1.002513	0.177995	-0.105292
Cl152	Cl	1.502513	0.677995	0.394708
Cl153	Cl	0.982779	-0.140326	-0.366442
Cl154	Cl	1.482779	0.359674	0.133558
H155	H	0.886129	-0.224664	0.010720
H156	H	1.386129	0.275336	0.510720
H157	H	0.991929	0.101100	-0.498892
H158	H	1.491929	0.601100	0.001108
Cl159	Cl	0.899414	-0.535767	0.023253
Cl160	Cl	1.399414	-0.035767	0.523253
Cl161	Cl	1.092903	-0.219279	0.205850
Cl162	Cl	1.592903	0.280721	0.705850
H163	H	0.987411	-0.127122	-0.137454
H164	H	1.487411	0.372878	0.362546
H165	H	0.985338	-0.116434	-0.286235
H166	H	1.485338	0.383566	0.213765
Cl167	Cl	0.994486	0.124994	-0.418680
Cl168	Cl	1.494486	0.624994	0.081320
Cl169	Cl	0.388866	0.070414	0.248744
Cl170	Cl	0.888866	0.570414	0.748744
H171	H	0.567637	0.130927	0.102570
H172	H	1.067637	0.630927	0.602570
