data_functionalizedCrystal
_audit_creation_method	'MofGen! by Chris Wilmer'
_symmetry_space_group_name_H-M	'P1'
_symmetry_Int_Tables_number	1
_symmetry_cell_setting	triclinic
loop_
_symmetry_equiv_pos_as_xyz
  x,y,z
_cell_length_a	19.805405
_cell_length_b	17.077404
_cell_length_c	17.077396
_cell_angle_alpha	89.980499
_cell_angle_beta	89.968350
_cell_angle_gamma	90.026635
loop_
_atom_site_label
_atom_site_type_symbol
_atom_site_fract_x
_atom_site_fract_y
_atom_site_fract_z
Zn1	Zn	-0.269459	1.200035	-0.443825
Zn2	Zn	-0.382652	1.199934	-0.312552
Zn3	Zn	-0.269483	1.068767	-0.312573
Zn4	Zn	-0.382612	1.068727	-0.443776
O5	O	-0.326052	1.134366	-0.378182
O6	O	-0.284481	1.309869	-0.426424
O7	O	-0.367667	1.182509	-0.202708
O8	O	-0.174763	1.086239	-0.330014
O9	O	-0.367644	1.309795	-0.329978
O10	O	-0.174746	1.182681	-0.426444
O11	O	-0.284522	1.086141	-0.202724
O12	O	-0.284483	0.958915	-0.329966
O13	O	-0.367575	1.086171	-0.553629
O14	O	-0.367598	0.958886	-0.426360
O15	O	-0.284442	1.182643	-0.553666
O16	O	-0.477363	1.182470	-0.329930
O17	O	-0.477334	1.086073	-0.426339
C18	C	-0.326039	0.930418	-0.378160
C19	C	-0.326050	0.843168	-0.378169
C20	C	-0.501908	1.134278	-0.378144
C21	C	-0.577140	1.134312	-0.378154
C22	C	-0.369394	0.802183	-0.428281
C23	C	-0.369395	0.720203	-0.428294
C24	C	-0.326056	0.679209	-0.378190
C25	C	-0.282708	0.720200	-0.328076
C26	C	-0.282703	0.802179	-0.328068
C27	C	-0.282721	0.549330	-0.328095
C28	C	-0.282726	0.467345	-0.328102
C29	C	-0.369413	0.467354	-0.428321
C30	C	-0.369409	0.549333	-0.428313
C31	C	-0.326061	0.590318	-0.378197
C32	C	-0.612477	1.184555	-0.328006
C33	C	-0.683165	1.184588	-0.328023
C34	C	-0.718515	1.134374	-0.378185
C35	C	-0.683173	1.084129	-0.428338
C36	C	-0.612486	1.084100	-0.428324
C37	C	-0.968246	1.084245	-0.428397
C38	C	-1.038938	1.084276	-0.428405
C39	C	-1.038925	1.184733	-0.328095
C40	C	-0.968238	1.184704	-0.328081
C41	C	-0.932902	1.134462	-0.378237
C42	C	-0.856254	1.134427	-0.378219
C43	C	-0.795162	1.134404	-0.378200
C44	C	-0.149509	1.134476	-0.378237
C45	C	-0.074277	1.134523	-0.378261
C46	C	-0.326002	1.134414	-0.582926
C47	C	-0.325980	1.134434	-0.670176
C48	C	-0.326064	1.339110	-0.378204
C49	C	-0.326070	1.426360	-0.378213
C50	C	-0.282690	1.184668	-0.711186
C51	C	-0.282667	1.184678	-0.793167
C52	C	-0.325939	1.134456	-0.834135
C53	C	-0.369232	1.084216	-0.793119
C54	C	-0.369251	1.084203	-0.711140
C55	C	-0.369191	1.084248	-0.963989
C56	C	-0.369174	1.084261	-1.045974
C57	C	-0.282608	1.184722	-1.046016
C58	C	-0.282626	1.184709	-0.964037
C59	C	-0.325920	1.134470	-0.923026
C60	C	-0.326052	1.134364	-0.174234
C61	C	-0.325883	1.134496	-0.086984
H62	H	-0.404688	0.835555	-0.469079
O63	O	-0.235911	1.238908	-1.090248
H64	H	-0.205832	1.273835	-1.047987
H65	H	-0.404691	0.686837	-0.469099
O66	O	-0.416149	0.593553	-0.482354
H67	H	-0.446286	0.551283	-0.517210
O68	O	-0.416164	0.423156	-0.482382
H69	H	-0.408881	0.359264	-0.473980
H70	H	-0.247405	0.835548	-0.287266
O71	O	-0.415933	1.030012	-0.666901
H72	H	-0.446021	0.995091	-0.709160
O73	O	-0.930109	1.238867	-0.273984
H74	H	-0.966557	1.273817	-0.239121
H75	H	-0.247417	0.582697	-0.287293
H76	H	-0.247417	0.686816	-0.287284
O77	O	-0.235977	0.423125	-0.274072
H78	H	-0.205825	0.465395	-0.239232
O79	O	-0.415833	1.030085	-1.090169
H80	H	-0.468964	1.043492	-1.074422
H81	H	-1.067704	1.225645	-0.287259
O82	O	-0.415881	1.030057	-0.919752
H83	H	-0.445972	0.995140	-0.962011
O84	O	-0.574349	1.238718	-0.273906
H85	H	-0.610800	1.273666	-0.239045
H86	H	-0.711933	1.225500	-0.287187
O87	O	-1.077071	1.030120	-0.482516
H88	H	-1.040624	0.995184	-0.517397
O89	O	-0.415900	1.030040	-0.837303
H90	H	-0.450336	1.065154	-0.874644
O91	O	-0.930137	1.030034	-0.482466
H92	H	-0.966596	0.995110	-0.517333
H93	H	-0.711961	1.043247	-0.469184
H94	H	-0.583715	1.043188	-0.469161
H95	H	-0.247454	1.225567	-0.677836
H96	H	-0.247417	1.225586	-0.826554
H97	H	-0.247394	1.225609	-0.930683
