data_functionalizedCrystal
_audit_creation_method	'MofGen! by Chris Wilmer'
_symmetry_space_group_name_H-M	'P1'
_symmetry_Int_Tables_number	1
_symmetry_cell_setting	triclinic
loop_
_symmetry_equiv_pos_as_xyz
  x,y,z
_cell_length_a	11.792241
_cell_length_b	15.072220
_cell_length_c	11.792241
_cell_angle_alpha	90.001222
_cell_angle_beta	84.193416
_cell_angle_gamma	90.008318
loop_
_atom_site_label
_atom_site_type_symbol
_atom_site_fract_x
_atom_site_fract_y
_atom_site_fract_z
O1	O	1.506923	0.073697	0.155560
O2	O	1.840256	0.407030	0.488894
O3	O	2.173589	0.740363	0.822227
O4	O	1.176582	0.073717	0.171593
O5	O	1.509915	0.407051	0.504927
O6	O	1.843248	0.740384	0.838260
O7	O	1.349769	0.073700	-0.001594
O8	O	1.683102	0.407034	0.331740
O9	O	2.016435	0.740367	0.665073
O10	O	1.333736	0.073714	0.328747
O11	O	1.667069	0.407047	0.662081
O12	O	2.000402	0.740380	0.995414
O13	O	1.349726	-0.073865	-0.001584
O14	O	1.683059	0.259469	0.331749
O15	O	2.016392	0.592802	0.665082
O16	O	1.176539	-0.073848	0.171603
O17	O	1.509872	0.259486	0.504936
O18	O	1.843205	0.592819	0.838269
O19	O	1.506880	-0.073868	0.155570
O20	O	1.840213	0.259465	0.488903
O21	O	2.173546	0.592798	0.822236
Zn22	Zn	1.341702	-0.097287	0.163588
Zn23	Zn	1.675036	0.236046	0.496921
Zn24	Zn	2.008369	0.569379	0.830254
Zn25	Zn	1.341759	0.097136	0.163575
Zn26	Zn	1.675092	0.430470	0.496909
Zn27	Zn	2.008426	0.763803	0.830242
O28	O	1.333693	-0.073851	0.328757
O29	O	1.667026	0.259482	0.662090
O30	O	2.000359	0.592815	0.995423
C31	C	1.134269	-0.000063	0.170591
C32	C	1.467603	0.333271	0.503924
C33	C	1.800936	0.666604	0.837258
C34	C	1.008255	-0.000055	0.167576
C35	C	1.341589	0.333279	0.500910
C36	C	1.674922	0.666612	0.834243
N37	N	1.341672	-0.229976	0.163596
N38	N	1.675005	0.103357	0.496929
N39	N	2.008339	0.436691	0.830262
C40	C	0.777543	-0.000080	0.162034
C41	C	1.110877	0.333253	0.495367
C42	C	1.444210	0.666586	0.828700
C43	C	0.905928	-0.000066	0.165113
C44	C	1.239262	0.333267	0.498447
C45	C	1.572595	0.666600	0.831780
C46	C	1.341757	-0.589178	0.163571
C47	C	1.675090	-0.255844	0.496904
C48	C	2.008423	0.077489	0.830238
C49	C	1.248773	-0.551561	0.255925
C50	C	1.582106	-0.218228	0.589259
C51	C	1.915439	0.115105	0.922592
C52	C	1.248989	-0.448736	0.256266
C53	C	1.582323	-0.115402	0.589599
C54	C	1.915656	0.217931	0.922932
C55	C	1.341714	-0.410973	0.163583
C56	C	1.675047	-0.077640	0.496917
C57	C	2.008380	0.255693	0.830250
C58	C	1.460301	-0.448271	0.190178
C59	C	1.793635	-0.114938	0.523512
C60	C	2.126968	0.218396	0.856845
C61	C	1.459781	-0.551129	0.190835
C62	C	1.793114	-0.217795	0.524169
C63	C	2.126448	0.115538	0.857502
C64	C	1.317207	-0.551281	0.044353
C65	C	1.650541	-0.217948	0.377686
C66	C	1.983874	0.115386	0.711019
C67	C	1.314495	-0.448417	0.045130
C68	C	1.647828	-0.115084	0.378463
C69	C	1.981162	0.218249	0.711797
C70	C	1.341697	-0.310260	0.163588
C71	C	1.675030	0.023073	0.496921
C72	C	2.008363	0.356407	0.830255
C73	C	1.341781	-0.689891	0.163569
C74	C	1.675115	-0.356558	0.496902
C75	C	2.008448	-0.023224	0.830235
C76	C	1.549192	-0.000086	0.156572
C77	C	1.882525	0.333247	0.489906
C78	C	2.215859	0.666580	0.823239
C79	C	1.675206	-0.000088	0.159587
C80	C	2.008539	0.333245	0.492920
C81	C	2.341872	0.666578	0.826253
C82	C	1.348740	-0.000082	-0.043880
C83	C	1.682073	0.333251	0.289453
C84	C	2.015407	0.666585	0.622787
C85	C	1.345726	-0.000081	-0.169894
C86	C	1.679059	0.333253	0.163440
C87	C	2.012392	0.666586	0.496773
N88	N	1.341798	0.229825	0.163559
N89	N	1.675132	0.563158	0.496892
N90	N	2.008465	0.896492	0.830225
C91	C	1.340183	-0.000066	-0.400606
C92	C	1.673516	0.333268	-0.067272
C93	C	2.006849	0.666601	0.266061
C94	C	1.343262	-0.000074	-0.272221
C95	C	1.676596	0.333259	0.061113
C96	C	2.009929	0.666593	0.394446
C97	C	1.334721	-0.000067	0.371043
C98	C	1.668055	0.333266	0.704376
C99	C	2.001388	0.666600	1.037710
C100	C	1.337736	-0.000062	0.497057
C101	C	1.671069	0.333271	0.830390
C102	C	2.004402	0.666604	1.163723
H103	H	1.160865	-0.423520	0.240313
H104	H	1.494198	-0.090187	0.573646
H105	H	1.827531	0.243147	0.906980
H106	H	1.385008	-0.575606	-0.024383
H107	H	1.718341	-0.242273	0.308950
H108	H	2.051674	0.091061	0.642284
H109	H	1.377765	-0.422715	-0.026872
H110	H	1.711098	-0.089382	0.306461
H111	H	2.044431	0.243951	0.639795
H112	H	1.160365	-0.576318	0.240224
H113	H	1.493698	-0.242985	0.573557
H114	H	1.827032	0.090349	0.906891
H115	H	1.264312	-0.577397	0.343881
H116	H	1.597645	-0.244064	0.677215
H117	H	1.930979	0.089269	1.010548
H118	H	1.531173	-0.576010	0.126260
H119	H	1.864506	-0.242677	0.459594
H120	H	2.197839	0.090656	0.792927
O121	O	1.269861	-0.416115	0.373428
O122	O	1.603194	-0.082782	0.706762
O123	O	1.936527	0.250551	1.040095
H124	H	1.279850	-0.473807	0.430062
H125	H	1.613184	-0.140474	0.763396
H126	H	1.946517	0.192859	1.096729
O127	O	1.488287	-0.582896	0.306033
O128	O	1.821620	-0.249563	0.639366
O129	O	2.154954	0.083771	0.972699
H130	H	1.488206	-0.656527	0.307643
H131	H	1.821539	-0.323194	0.640976
H132	H	2.154872	0.010139	0.974310
O133	O	1.554196	-0.415874	0.103497
O134	O	1.887529	-0.082540	0.436830
O135	O	2.220862	0.250793	0.770163
H136	H	1.517247	-0.372738	0.040393
H137	H	1.850580	-0.039404	0.373727
H138	H	2.183914	0.293929	0.707060
O139	O	1.489471	-0.414152	0.304076
O140	O	1.822804	-0.080819	0.637409
O141	O	2.156137	0.252514	0.970743
H142	H	1.419700	-0.370642	0.341916
H143	H	1.753033	-0.037309	0.675250
H144	H	2.086366	0.296025	1.008583
O145	O	1.205074	-0.585662	0.010731
O146	O	1.538407	-0.252329	0.344064
O147	O	1.871740	0.081004	0.677398
H148	H	1.165585	-0.630150	0.078627
H149	H	1.498919	-0.296816	0.411961
H150	H	1.832252	0.036517	0.745294
H151	H	1.227257	-0.424040	0.024964
H152	H	1.560590	-0.090707	0.358297
H153	H	1.893924	0.242626	0.691631
