data_functionalizedCrystal
_audit_creation_method	'MofGen! by Chris Wilmer'
_symmetry_space_group_name_H-M	'P1'
_symmetry_Int_Tables_number	1
_symmetry_cell_setting	triclinic
loop_
_symmetry_equiv_pos_as_xyz
  x,y,z
_cell_length_a	23.532361
_cell_length_b	23.532407
_cell_length_c	17.666332
_cell_angle_alpha	89.988854
_cell_angle_beta	89.994922
_cell_angle_gamma	82.839173
loop_
_atom_site_label
_atom_site_type_symbol
_atom_site_fract_x
_atom_site_fract_y
_atom_site_fract_z
O1	O	0.755281	0.069009	-0.062880
O2	O	0.589413	0.079040	-0.062899
O3	O	0.677349	-0.008908	-0.062875
O4	O	0.667345	0.156957	-0.062904
O5	O	0.677333	-0.008912	0.063022
O6	O	0.589398	0.079036	0.062997
O7	O	0.755265	0.069005	0.063017
Cu8	Cu	0.672330	0.074020	0.074502
Cu9	Cu	0.672348	0.074025	-0.074385
O10	O	0.667330	0.156953	0.062993
C11	C	0.568189	0.078787	0.000047
C12	C	0.504971	0.078032	0.000040
C13	C	0.677086	-0.030126	0.000075
C14	C	0.676320	-0.093343	0.000081
C15	C	0.231735	0.074731	-0.068581
C16	C	0.291135	0.075446	-0.068583
O17	O	0.321868	0.075798	-0.126946
N18	N	0.320832	0.075804	0.000043
C19	C	0.291128	0.075442	0.068676
O20	O	0.321842	0.075812	0.127048
C21	C	0.231730	0.074723	0.068678
C22	C	0.202035	0.074370	0.000047
C23	C	0.202040	0.074377	-0.137207
C24	C	0.142645	0.073663	-0.137204
C25	C	0.112944	0.073303	-0.068577
C26	C	0.142639	0.073657	0.000049
C27	C	0.202027	0.074357	0.137310
C28	C	0.142624	0.073637	0.137305
C29	C	0.112929	0.073285	0.068674
C30	C	0.053542	0.072582	0.068679
N31	N	0.023845	0.072224	0.000052
C32	C	0.053546	0.072584	-0.068575
C33	C	0.415868	0.076951	0.068669
C34	C	0.475264	0.077674	0.068668
C35	C	0.475268	0.077677	-0.068592
C36	C	0.415870	0.076958	-0.068590
C37	C	0.386171	0.076593	0.000042
C38	C	-0.071190	0.071086	-0.068565
C39	C	-0.130591	0.070374	-0.068557
C40	C	-0.130589	0.070369	0.068702
C41	C	-0.071193	0.071083	0.068694
C42	C	-0.041495	0.071440	0.000054
O43	O	0.022772	0.072227	0.127012
O44	O	0.022825	0.072206	-0.126938
C45	C	0.723555	-0.492454	0.000045
C46	C	0.722844	-0.551854	0.000039
O47	O	0.766630	-0.588606	0.000016
N48	N	0.670566	-0.574471	0.000033
C49	C	0.618997	-0.537685	0.000026
O50	O	0.574465	-0.562377	0.000020
C51	C	0.619709	-0.478286	0.000026
C52	C	0.671990	-0.455672	0.000040
C53	C	0.775832	-0.469839	0.000057
C54	C	0.776543	-0.410443	0.000064
C55	C	0.724977	-0.373662	0.000059
C56	C	0.672701	-0.396276	0.000047
C57	C	0.568140	-0.441501	0.000014
C58	C	0.568857	-0.382099	0.000014
C59	C	0.621137	-0.359485	0.000027
C60	C	0.621847	-0.300099	0.000049
N61	N	0.674124	-0.277481	0.000055
C62	C	0.725690	-0.314263	0.000060
C63	C	0.617505	-0.662427	0.000024
C64	C	0.616793	-0.721825	0.000029
C65	C	0.720640	-0.735990	0.000040
C66	C	0.721352	-0.676591	0.000041
C67	C	0.669783	-0.639810	0.000029
C68	C	0.727179	-0.189526	0.000076
C69	C	0.727886	-0.130124	0.000086
C70	C	0.624039	-0.115965	0.000070
C71	C	0.623332	-0.175361	0.000064
C72	C	0.674907	-0.212141	0.000064
O73	O	0.578083	-0.263312	0.000069
O74	O	0.770214	-0.289562	0.000056
C75	C	0.776489	0.069258	0.000069
C76	C	0.839708	0.070014	0.000071
C77	C	0.667592	0.178171	0.000041
C78	C	0.668358	0.241388	0.000030
N79	N	0.672322	0.074016	0.179222
N80	N	0.672362	0.074025	-0.179104
C81	C	0.711272	0.035091	0.218842
C82	C	0.711275	0.035088	0.298090
C83	C	0.672334	0.074020	0.337714
C84	C	0.633376	0.112948	0.298084
C85	C	0.633370	0.112945	0.218838
N86	N	0.664799	0.124456	0.462123
N87	N	0.664808	0.124456	0.537404
C88	C	0.672349	0.074028	0.576478
N89	N	0.679891	0.023598	0.537428
N90	N	0.679885	0.023598	0.462140
C91	C	0.672336	0.074026	0.423643
C92	C	0.711305	0.035097	0.702028
C93	C	0.711304	0.035094	0.781277
C94	C	0.633408	0.112958	0.781270
C95	C	0.633406	0.112956	0.702022
C96	C	0.672357	0.074027	0.662406
H97	H	-0.154767	0.070088	-0.124447
H98	H	0.391690	0.076661	0.124561
H99	H	0.819115	-0.392037	0.000072
H100	H	0.575509	-0.632483	0.000021
O101	O	0.770747	-0.771703	0.000172
C102	C	0.802513	-0.761507	0.065367
H103	H	0.772329	-0.741038	0.110942
H104	H	0.835308	-0.731449	0.050630
C105	C	0.870760	-0.843764	0.038951
C106	C	0.833686	-0.818628	0.094929
H107	H	0.889991	-0.878998	0.057185
H108	H	0.849360	-0.850633	-0.004974
H109	H	0.898084	-0.818710	0.026675
H110	H	0.806359	-0.843679	0.107197
H111	H	0.855082	-0.811765	0.138857
O112	O	0.595630	0.150852	0.663566
C113	C	0.604559	0.207182	0.682928
H114	H	0.650156	0.207220	0.704700
H115	H	0.572902	0.224076	0.728931
C116	C	0.539482	0.245794	0.585782
C117	C	0.595486	0.245841	0.612517
H118	H	0.533883	0.269642	0.542351
H119	H	0.533464	0.207844	0.572739
H120	H	0.513108	0.259871	0.624124
H121	H	0.621859	0.231758	0.574179
H122	H	0.601509	0.283790	0.625552
O123	O	0.749080	-0.002783	0.663548
C124	C	0.740175	-0.059126	0.682907
H125	H	0.694589	-0.059187	0.704717
H126	H	0.771853	-0.076031	0.728881
C127	C	0.805223	-0.097677	0.585701
C128	C	0.749232	-0.097753	0.612483
H129	H	0.810813	-0.121506	0.542262
H130	H	0.811225	-0.059718	0.572660
H131	H	0.831616	-0.111763	0.624019
H132	H	0.722841	-0.083660	0.574168
H133	H	0.743226	-0.135711	0.625516
O134	O	0.518776	-0.346347	-0.000130
C135	C	0.516095	-0.311542	-0.065320
H136	H	0.545353	-0.333452	-0.110889
H137	H	0.530578	-0.268429	-0.050571
C138	C	0.418142	-0.275254	-0.038928
C139	C	0.454074	-0.302167	-0.094899
H140	H	0.379884	-0.269469	-0.057173
H141	H	0.419948	-0.298701	0.004994
H142	H	0.430218	-0.239330	-0.026642
H143	H	0.442002	-0.338094	-0.107177
H144	H	0.452264	-0.278726	-0.138824
H145	H	0.601699	0.144654	0.813531
O146	O	0.574003	-0.080149	0.000031
C147	C	0.585848	-0.022875	0.000055
H148	H	0.630574	-0.020853	-0.023768
H149	H	0.583579	-0.005691	0.060454
C150	C	0.486501	0.011262	-0.020069
C151	C	0.541433	0.013746	-0.049334
H152	H	0.459103	0.033853	-0.050531
H153	H	0.478520	-0.027324	-0.020082
H154	H	0.484618	0.025581	0.030263
H155	H	0.543317	-0.000579	-0.099661
H156	H	0.549413	0.052331	-0.049330
O157	O	0.749165	-0.002642	0.819851
C158	C	0.784132	0.027680	0.865661
H159	H	0.761191	0.072363	0.877524
H160	H	0.826198	0.031333	0.835112
C161	C	0.824669	-0.059374	0.926374
C162	C	0.796490	-0.004494	0.940950
H163	H	0.832294	-0.079221	0.972814
H164	H	0.801112	-0.079803	0.895509
H165	H	0.859721	-0.056322	0.900915
H166	H	0.761436	-0.007547	0.966400
H167	H	0.820041	0.015933	0.971821
H168	H	0.118473	0.073374	-0.193091
H169	H	0.770461	-0.111716	0.000099
H170	H	-0.047017	0.071377	-0.124459
H171	H	0.601669	0.144645	0.330350
H172	H	0.226217	0.074669	-0.193095
H173	H	0.763923	-0.658183	0.000051
O174	O	0.230779	0.074670	0.204047
C175	C	0.191814	0.074208	0.264609
H176	H	0.151937	0.055669	0.244480
H177	H	0.179256	0.119826	0.285708
C178	C	0.269058	0.059896	0.354179
C179	C	0.220083	0.037121	0.329457
H180	H	0.286496	0.037021	0.394182
H181	H	0.295310	0.060209	0.313378
H182	H	0.258586	0.097910	0.371756
H183	H	0.230556	-0.000890	0.311872
H184	H	0.193834	0.036800	0.370257
O185	O	0.517338	-0.463430	-0.000138
C186	C	0.485938	-0.444574	-0.065340
H187	H	0.516529	-0.432390	-0.110902
H188	H	0.453982	-0.405674	-0.050605
C189	C	0.415910	-0.507948	-0.038963
C190	C	0.453483	-0.492988	-0.094925
H191	H	0.395888	-0.537810	-0.057211
H192	H	0.437064	-0.520650	0.004967
H193	H	0.389285	-0.475527	-0.026688
H194	H	0.480112	-0.525407	-0.107191
H195	H	0.432333	-0.480293	-0.138857
H196	H	0.499436	0.077971	0.124555
O197	O	0.749126	-0.002783	0.180478
C198	C	0.783514	-0.037130	0.232448
H199	H	0.760174	-0.037648	0.288944
H200	H	0.825715	-0.018858	0.240858
C201	C	0.824270	-0.097998	0.132152
C202	C	0.795600	-0.098637	0.201540
H203	H	0.831727	-0.135938	0.113085
H204	H	0.801103	-0.074856	0.097138
H205	H	0.859434	-0.082768	0.139169
H206	H	0.760433	-0.113860	0.194520
H207	H	0.818761	-0.121783	0.236552
H208	H	-0.154783	0.070078	0.124577
O209	O	0.749035	-0.002778	0.336626
C210	C	0.718741	-0.037743	0.382501
H211	H	0.673835	-0.038477	0.358627
H212	H	0.715653	-0.019895	0.442552
C213	C	0.805638	-0.098152	0.413066
C214	C	0.750485	-0.099058	0.383740
H215	H	0.825220	-0.135973	0.413834
H216	H	0.826049	-0.074594	0.382162
H217	H	0.803057	-0.083276	0.463106
H218	H	0.753067	-0.113927	0.333698
H219	H	0.730076	-0.122619	0.414636
H220	H	0.118446	0.073345	0.193195
H221	H	0.817825	-0.499782	0.000058
H222	H	0.601652	0.144643	0.186578
H223	H	-0.047016	0.071382	0.124579
H224	H	0.580761	-0.193774	0.000074
H225	H	0.391696	0.076670	-0.124476
O226	O	0.565957	-0.743694	-0.000009
C227	C	0.520601	-0.698485	0.000009
H228	H	0.536338	-0.658218	-0.023819
H229	H	0.504705	-0.690000	0.060406
C230	C	0.451942	-0.764415	-0.020106
C231	C	0.471269	-0.714960	-0.049378
H232	H	0.421511	-0.774578	-0.050567
H233	H	0.482499	-0.794874	-0.020115
H234	H	0.438699	-0.757338	0.030225
H235	H	0.484518	-0.722040	-0.099705
H236	H	0.440714	-0.684503	-0.049379
O237	O	0.504086	0.078123	-0.135279
C238	C	0.482836	0.127270	-0.177055
H239	H	0.461795	0.161554	-0.136912
H240	H	0.449886	0.115701	-0.219848
C241	C	0.558397	0.108163	-0.268411
C242	C	0.532559	0.150274	-0.219106
H243	H	0.589068	0.122352	-0.294353
H244	H	0.572713	0.075050	-0.240268
H245	H	0.530933	0.098526	-0.304065
H246	H	0.560021	0.159905	-0.183447
H247	H	0.518249	0.183389	-0.247244
O248	O	0.777330	-0.225168	0.000112
C249	C	0.823618	-0.192460	0.000106
H250	H	0.808892	-0.148047	0.023941
H251	H	0.839668	-0.188307	-0.060289
C252	C	0.890478	-0.276883	0.020212
C253	C	0.872393	-0.222336	0.049492
H254	H	0.920566	-0.295313	0.050673
H255	H	0.859294	-0.298920	0.020213
H256	H	0.903849	-0.273415	-0.030117
H257	H	0.859015	-0.225805	0.099817
H258	H	0.903576	-0.200300	0.049501
