data_functionalizedCrystal
_audit_creation_method	'MofGen! by Chris Wilmer'
_symmetry_space_group_name_H-M	'P1'
_symmetry_Int_Tables_number	1
_symmetry_cell_setting	triclinic
loop_
_symmetry_equiv_pos_as_xyz
  x,y,z
_cell_length_a	14.044220
_cell_length_b	15.072220
_cell_length_c	14.044220
_cell_angle_alpha	90.001345
_cell_angle_beta	93.188878
_cell_angle_gamma	90.007881
loop_
_atom_site_label
_atom_site_type_symbol
_atom_site_fract_x
_atom_site_fract_y
_atom_site_fract_z
O1	O	1.277179	0.073692	0.230162
O2	O	1.000508	0.073714	0.221856
O3	O	1.134691	0.073694	0.087674
O4	O	1.142996	0.073711	0.364345
O5	O	1.134655	-0.073871	0.087679
O6	O	1.000472	-0.073851	0.221862
O7	O	1.277144	-0.073873	0.230167
Zn8	Zn	1.138802	-0.097291	0.226015
Zn9	Zn	1.138849	0.097132	0.226009
O10	O	1.142961	-0.073854	0.364350
C11	C	0.964868	-0.000066	0.218223
C12	C	0.858725	-0.000058	0.207379
N13	N	1.138777	-0.229980	0.226020
C14	C	0.664388	-0.000076	0.187553
C15	C	0.613258	-0.000075	0.264467
C16	C	0.505122	-0.000086	0.253435
C17	C	0.772534	-0.000066	0.198583
C18	C	1.138847	-0.589182	0.226005
C19	C	1.066763	-0.551564	0.297518
C20	C	1.066967	-0.448739	0.297819
C21	C	1.138811	-0.410978	0.226012
C22	C	1.240266	-0.448275	0.256192
C23	C	1.239872	-0.551133	0.256710
C24	C	1.110345	-0.551286	0.124155
C25	C	1.108116	-0.448423	0.124630
C26	C	1.138798	-0.310264	0.226015
C27	C	1.138867	-0.689895	0.226004
C28	C	1.312783	-0.000092	0.233800
C29	C	1.418926	-0.000094	0.244645
C30	C	1.131037	-0.000088	0.052054
C31	C	1.120193	-0.000088	-0.054088
N32	N	1.138881	0.229821	0.225997
C33	C	1.100366	-0.000074	-0.248426
C34	C	1.177281	-0.000078	-0.299556
C35	C	1.166249	-0.000070	-0.407692
C36	C	1.111397	-0.000082	-0.140280
C37	C	1.146614	-0.000069	0.399969
C38	C	1.157459	-0.000063	0.506112
H39	H	0.626951	-0.000086	0.113425
C40	C	1.000221	-0.000072	-0.298996
C41	C	0.911109	-0.000075	-0.239871
C42	C	0.810965	-0.000077	-0.290454
C43	C	0.799933	-0.000076	-0.400162
C44	C	0.889048	-0.000073	-0.459293
C45	C	0.989192	-0.000071	-0.408710
H46	H	0.919273	-0.000075	-0.158653
H47	H	0.744996	-0.000079	-0.246681
H48	H	0.725800	-0.000078	-0.437607
H49	H	0.880884	-0.000072	-0.540511
H50	H	1.055160	-0.000068	-0.452483
C51	C	0.965454	-0.414666	0.271871
C52	C	0.883634	-0.481049	0.250729
C53	C	0.782114	-0.446982	0.224790
C54	C	0.762414	-0.346531	0.219993
C55	C	0.844236	-0.280141	0.241135
C56	C	0.945756	-0.314208	0.267075
H57	H	0.898215	-0.555415	0.254280
H58	H	0.721544	-0.496128	0.209139
H59	H	0.687263	-0.321312	0.200791
H60	H	0.829655	-0.205775	0.237585
H61	H	1.006326	-0.265062	0.282726
H62	H	0.650697	-0.000067	0.338600
C63	C	0.964931	-0.584931	0.271757
C64	C	0.945980	-0.646754	0.185477
C65	C	0.844137	-0.680089	0.159684
C66	C	0.761244	-0.651601	0.220170
C67	C	0.780193	-0.589775	0.306455
C68	C	0.882036	-0.556440	0.332249
H69	H	1.007344	-0.667845	0.140697
H70	H	0.830110	-0.725856	0.095809
H71	H	0.685854	-0.676278	0.201076
H72	H	0.718829	-0.568684	0.351236
H73	H	0.896063	-0.510673	0.396123
C74	C	1.277433	-0.000095	-0.248986
C75	C	1.366540	-0.000103	-0.308119
C76	C	1.466688	-0.000122	-0.257545
C77	C	1.477730	-0.000134	-0.147838
C78	C	1.388620	-0.000126	-0.088698
C79	C	1.288472	-0.000107	-0.139273
H80	H	1.358368	-0.000094	-0.389337
H81	H	1.532652	-0.000128	-0.301324
H82	H	1.551865	-0.000149	-0.110399
H83	H	1.396792	-0.000135	-0.007481
H84	H	1.222508	-0.000101	-0.095493
H85	H	1.086044	-0.424121	0.373224
C86	C	1.092285	-0.586406	0.398817
C87	C	1.178216	-0.648810	0.416815
C88	C	1.203761	-0.683629	0.518119
C89	C	1.143376	-0.656043	0.601426
C90	C	1.057439	-0.593635	0.583430
C91	C	1.031894	-0.558817	0.482126
H92	H	1.222922	-0.669234	0.355145
H93	H	1.267377	-0.729827	0.531440
H94	H	1.162286	-0.681817	0.676417
H95	H	1.012734	-0.573212	0.645101
H96	H	0.968278	-0.512619	0.468805
H97	H	1.263701	-0.575112	0.331246
H98	H	1.295537	-0.423814	0.205843
C99	C	1.315103	-0.584756	0.189622
C100	C	1.375350	-0.518012	0.135750
C101	C	1.450585	-0.551630	0.068670
C102	C	1.465573	-0.651993	0.055461
C103	C	1.405325	-0.718744	0.109335
C104	C	1.330090	-0.685126	0.176415
H105	H	1.364256	-0.443711	0.145526
H106	H	1.495185	-0.502216	0.028789
H107	H	1.521267	-0.676879	0.005805
H108	H	1.416418	-0.793045	0.099558
H109	H	1.285490	-0.734540	0.216296
C110	C	1.272937	-0.413469	0.355811
C111	C	1.283130	-0.312963	0.373268
C112	C	1.315794	-0.278158	0.472889
C113	C	1.338266	-0.343859	0.555052
C114	C	1.328073	-0.444372	0.537598
C115	C	1.295409	-0.479176	0.437977
H116	H	1.266495	-0.264321	0.312443
H117	H	1.323340	-0.203752	0.485809
H118	H	1.362446	-0.318095	0.628798
H119	H	1.344708	-0.493013	0.598422
H120	H	1.287863	-0.553583	0.425056
C121	C	1.007240	-0.415483	0.093951
C122	C	0.987283	-0.315296	0.084810
C123	C	0.886408	-0.282346	0.054137
C124	C	0.805489	-0.349583	0.032605
C125	C	0.825443	-0.449776	0.041745
C126	C	0.926318	-0.482727	0.072418
H127	H	1.047186	-0.265518	0.100750
H128	H	0.871637	-0.208176	0.047371
H129	H	0.730815	-0.325191	0.009899
H130	H	0.765540	-0.499555	0.025806
H131	H	0.941089	-0.556897	0.079184
H132	H	1.037515	-0.577272	0.097225
C133	C	1.173558	-0.413707	0.048481
C134	C	1.256388	-0.350470	0.077153
C135	C	1.321839	-0.315755	0.001008
C136	C	1.304460	-0.344278	-0.103810
C137	C	1.221626	-0.407519	-0.132487
C138	C	1.156175	-0.442233	-0.056342
H139	H	1.269256	-0.329352	0.154750
H140	H	1.383158	-0.268940	0.022237
H141	H	1.352911	-0.318580	-0.160178
H142	H	1.208758	-0.428636	-0.210084
H143	H	1.094856	-0.489049	-0.077571
H144	H	1.162815	-0.575612	0.070838
