data_functionalizedCrystal
_audit_creation_method	'MofGen! by Chris Wilmer'
_symmetry_space_group_name_H-M	'P1'
_symmetry_Int_Tables_number	1
_symmetry_cell_setting	triclinic
loop_
_symmetry_equiv_pos_as_xyz
  x,y,z
_cell_length_a	15.297327
_cell_length_b	12.759401
_cell_length_c	12.759393
_cell_angle_alpha	90.018205
_cell_angle_beta	99.641342
_cell_angle_gamma	80.295528
loop_
_atom_site_label
_atom_site_type_symbol
_atom_site_fract_x
_atom_site_fract_y
_atom_site_fract_z
Zn1	Zn	-0.359152	-1.533776	-0.666329
Zn2	Zn	-0.510039	-1.503229	-0.521034
Zn3	Zn	-0.359194	-1.358073	-0.490674
Zn4	Zn	-0.509963	-1.327637	-0.696657
O5	O	-0.434587	-1.430679	-0.593673
O6	O	-0.379182	-1.676742	-0.647068
O7	O	-0.490078	-1.483927	-0.369995
O8	O	-0.232944	-1.406902	-0.488577
O9	O	-0.490038	-1.654299	-0.540320
O10	O	-0.232914	-1.535990	-0.617629
O11	O	-0.379253	-1.377282	-0.347690
O12	O	-0.379179	-1.207017	-0.517985
O13	O	-0.489908	-1.355028	-0.839645
O14	O	-0.489949	-1.184656	-0.669320
O15	O	-0.379108	-1.506478	-0.817363
O16	O	-0.636273	-1.454414	-0.569729
O17	O	-0.636217	-1.325408	-0.698759
C18	C	-0.434561	-1.157716	-0.593650
C19	C	-0.434572	-1.040938	-0.593669
C20	C	-0.492340	-0.974441	-0.672376
C21	C	-0.492348	-0.864716	-0.672387
C22	C	-0.376817	-0.887993	-0.514976
C23	C	-0.376805	-0.997717	-0.514970
C24	C	-0.550107	-1.017662	-0.751075
C25	C	-0.607880	-0.951164	-0.829787
C26	C	-0.607888	-0.841438	-0.829799
C27	C	-0.550122	-0.798210	-0.751098
C28	C	-0.668979	-1.383322	-0.640852
C29	C	-0.769252	-1.363158	-0.661070
C30	C	-1.051898	-1.575222	-0.449528
C31	C	-0.957686	-1.594166	-0.430527
C32	C	-0.910573	-1.536416	-0.488161
C33	C	-0.957681	-1.459718	-0.564800
C34	C	-1.051903	-1.440767	-0.583797
C35	C	-0.910577	-1.401961	-0.622430
C36	C	-0.957686	-1.325263	-0.699069
C37	C	-1.051898	-1.306316	-0.718064
C38	C	-1.099011	-1.364065	-0.660429
C39	C	-0.816356	-1.420912	-0.603433
C40	C	-0.816361	-1.286457	-0.737702
C41	C	-0.910573	-1.267513	-0.756704
C42	C	-0.199280	-1.478249	-0.546333
C43	C	-0.099006	-1.498520	-0.526160
C44	C	-0.434495	-1.430765	-0.867688
C45	C	-0.434456	-1.430802	-0.984457
C46	C	-0.434605	-0.704708	-0.593692
C47	C	-0.434591	-0.821488	-0.593687
C48	C	-0.376739	-1.375303	-1.027709
C49	C	-0.376712	-1.375340	-1.137428
C50	C	-0.492122	-1.486385	-1.160634
C51	C	-0.492153	-1.486341	-1.050918
C52	C	-0.319042	-1.319764	-0.961248
C53	C	-0.261319	-1.264261	-1.004499
C54	C	-0.261292	-1.264298	-1.114218
C55	C	-0.318988	-1.319839	-1.180686
C56	C	-0.434613	-1.430666	-0.320711
C57	C	-0.434398	-1.430884	-0.203892
H58	H	-0.654905	-0.986369	-0.893868
H59	H	-0.919334	-1.656611	-0.368127
H60	H	-0.539093	-1.531606	-1.214760
H61	H	-0.654923	-0.787300	-0.893896
H62	H	-0.319055	-1.319730	-0.871908
H63	H	-0.539139	-1.531550	-1.015700
H64	H	-0.550125	-0.708865	-0.751121
H65	H	-0.329787	-0.852787	-0.450901
H66	H	-0.550108	-1.107004	-0.751073
C67	C	-0.806936	-1.557276	-0.467275
N68	N	-0.728874	-1.573001	-0.451549
H69	H	-1.175726	-1.348648	-0.675899
H70	H	-0.778009	-1.483360	-0.541033
C71	C	-1.103715	-1.221936	-0.802360
N72	N	-1.142741	-1.158381	-0.865852
H73	H	-0.329758	-1.051862	-0.450887
C74	C	-0.962404	-1.183139	-0.840996
N75	N	-1.001445	-1.119586	-0.904483
C76	C	-1.103728	-1.638726	-0.386128
N77	N	-1.142768	-1.686558	-0.338369
C78	C	-0.197797	-1.203245	-1.161790
N79	N	-0.149966	-1.157263	-1.197618
H80	H	-0.318964	-1.319861	-1.270026
H81	H	-0.778002	-1.239430	-0.784631
H82	H	-0.214350	-1.219036	-0.950375
