data_functionalizedCrystal
_audit_creation_method	'MofGen! by Chris Wilmer'
_symmetry_space_group_name_H-M	'P1'
_symmetry_Int_Tables_number	1
_symmetry_cell_setting	triclinic
loop_
_symmetry_equiv_pos_as_xyz
  x,y,z
_cell_length_a	17.038272
_cell_length_b	19.188930
_cell_length_c	15.500227
_cell_angle_alpha	92.813384
_cell_angle_beta	86.956295
_cell_angle_gamma	87.128169
loop_
_atom_site_label
_atom_site_type_symbol
_atom_site_fract_x
_atom_site_fract_y
_atom_site_fract_z
O1	O	1.040536	0.148564	-0.071852
O2	O	0.812914	0.146156	-0.071877
O3	O	0.933292	0.046114	-0.071847
O4	O	0.920157	0.248607	-0.071882
O5	O	0.925988	0.052159	0.072040
O6	O	0.805609	0.152202	0.072009
O7	O	1.033231	0.154610	0.072035
Cu8	Cu	0.918753	0.153958	0.085160
Cu9	Cu	0.927392	0.146808	-0.085003
O10	O	0.912852	0.254653	0.072004
C11	C	0.780140	0.146990	0.000063
C12	C	0.693368	0.140458	0.000054
C13	C	0.643067	0.200424	0.000044
C14	C	0.561535	0.194283	0.000057
C15	C	0.530306	0.128176	0.000074
C16	C	0.580613	0.068205	0.000086
C17	C	0.662143	0.074347	0.000080
C18	C	0.284614	0.106479	0.000101
C19	C	0.203078	0.100342	0.000105
C20	C	0.184005	0.226421	0.000078
C21	C	0.265538	0.232556	0.000066
C22	C	0.315838	0.172586	0.000083
C23	C	0.446967	0.121897	0.000085
C24	C	0.399174	0.178865	0.000078
C25	C	0.929214	0.023099	0.000099
C26	C	0.927937	-0.054485	0.000106
C27	C	0.998572	-0.095020	0.000118
C28	C	0.997373	-0.167919	0.000104
C29	C	0.925534	-0.200279	0.000095
C30	C	0.854890	-0.159734	0.000079
C31	C	0.856092	-0.086837	0.000084
N32	N	0.868136	-0.309638	0.049057
N33	N	0.866999	-0.378887	0.049053
C34	C	0.921909	-0.419913	0.000077
N35	N	0.978011	-0.389074	-0.048884
N36	N	0.979150	-0.319818	-0.048877
C37	C	0.924223	-0.279323	0.000089
C38	C	0.991249	-0.539494	0.000073
C39	C	0.990047	-0.612395	0.000054
C40	C	0.847562	-0.604208	0.000037
C41	C	0.848767	-0.531310	0.000048
C42	C	0.920612	-0.498957	0.000070
C43	C	1.066004	0.153776	0.000092
C44	C	1.152777	0.160308	0.000095
C45	C	0.916930	0.277667	0.000057
C46	C	0.918208	0.355250	0.000044
N47	N	0.912682	0.158986	0.204843
N48	N	0.933468	0.141775	-0.204686
C49	C	0.963709	0.116612	0.250133
C50	C	0.959125	0.120422	0.340705
C51	C	0.903518	0.166610	0.385985
C52	C	0.852486	0.208985	0.340689
C53	C	0.857067	0.205171	0.250119
C54	C	0.887017	0.180337	0.659448
C55	C	0.882442	0.184149	0.750024
C56	C	0.989080	0.095584	0.750033
C57	C	0.993659	0.091778	0.659461
C58	C	0.942624	0.134150	0.614174
C59	C	0.898833	0.170506	0.478564
C60	C	0.947306	0.130250	0.521596
H61	H	0.325559	0.057647	0.000115
H62	H	0.555180	0.014379	0.000112
H63	H	0.143042	0.275245	0.000066
C64	C	0.717475	0.008384	0.000082
H65	H	0.687201	-0.031868	0.000083
H66	H	0.747139	0.010265	0.050254
H67	H	0.752214	0.006053	-0.050105
H68	H	1.054894	-0.200929	0.000110
H69	H	0.845464	0.214840	0.622582
C70	C	1.045207	0.048970	0.799847
H71	H	1.078982	0.020919	0.759908
H72	H	1.015401	0.019716	0.835192
H73	H	1.075877	0.077520	0.835165
C74	C	0.837642	0.221287	0.528372
H75	H	0.807894	0.245970	0.488431
H76	H	0.863844	0.253523	0.563711
H77	H	0.803415	0.195680	0.563695
H78	H	1.038938	0.054168	0.622596
C79	C	0.778392	-0.042244	0.000073
H80	H	0.789398	0.005805	0.000073
H81	H	0.746372	-0.050409	0.050241
H82	H	0.751477	-0.054608	-0.050118
H83	H	0.815515	0.239676	0.213246
H84	H	0.837158	0.221763	0.786888
C85	C	1.067749	-0.656984	0.000068
H86	H	1.110706	-0.627272	0.000091
H87	H	1.072797	-0.687691	-0.050110
H88	H	1.067687	-0.683490	0.050249
H89	H	0.992579	0.092641	0.484726
C90	C	0.677412	0.273143	0.000026
H91	H	0.635773	0.307976	0.000030
H92	H	0.711360	0.276053	-0.050153
H93	H	0.706278	0.280268	0.050206
H94	H	0.424604	0.232690	0.000070
H95	H	1.049750	-0.513151	0.000087
H96	H	1.057074	-0.068683	0.000133
H97	H	0.421530	0.068073	0.000123
H98	H	0.807206	0.246590	0.377562
H99	H	0.796399	-0.186087	0.000070
H100	H	0.789070	-0.630555	0.000026
H101	H	0.791248	-0.498305	0.000043
H102	H	0.520582	0.243114	0.000048
H103	H	1.000674	0.085917	0.377579
C104	C	0.299883	0.305275	0.000060
H105	H	0.258247	0.340111	0.000066
H106	H	0.333834	0.308187	-0.050117
H107	H	0.328748	0.312395	0.050243
C108	C	0.168728	0.027621	0.000125
H109	H	0.210360	-0.007216	0.000141
H110	H	0.139862	0.020496	-0.050050
H111	H	0.134776	0.024718	0.050309
C112	C	1.024876	0.065804	0.200332
H113	H	1.054603	0.041109	0.240280
H114	H	1.059115	0.091374	0.164986
H115	H	0.998639	0.033571	0.165017
