data_functionalizedCrystal
_audit_creation_method	'MofGen! by Chris Wilmer'
_symmetry_space_group_name_H-M	'P1'
_symmetry_Int_Tables_number	1
_symmetry_cell_setting	triclinic
loop_
_symmetry_equiv_pos_as_xyz
  x,y,z
_cell_length_a	10.967874
_cell_length_b	11.026607
_cell_length_c	9.730223
_cell_angle_alpha	89.999947
_cell_angle_beta	77.871080
_cell_angle_gamma	96.380181
loop_
_atom_site_label
_atom_site_type_symbol
_atom_site_fract_x
_atom_site_fract_y
_atom_site_fract_z
O1	O	1.693981	0.170503	-0.515478
O2	O	1.334353	0.186827	-0.430308
O3	O	1.484361	0.001764	-0.465829
O4	O	1.543973	0.355566	-0.479957
O5	O	1.484360	0.001769	-0.237249
O6	O	1.334351	0.186832	-0.201728
O7	O	1.693980	0.170507	-0.286897
Zn8	Zn	1.514165	0.178670	-0.208021
Zn9	Zn	1.514167	0.178664	-0.509185
O10	O	1.543971	0.355571	-0.251376
C11	C	1.287596	0.185642	-0.304945
C12	C	1.148275	0.182090	-0.271950
C13	C	1.086162	0.180503	-0.375651
C14	C	0.942167	0.176831	-0.341552
C15	C	1.473363	-0.043536	-0.348936
C16	C	1.440580	-0.178523	-0.341177
C17	C	1.531100	-0.251575	-0.362617
C18	C	1.497219	-0.391092	-0.354598
C19	C	1.740736	0.171692	-0.412264
C20	C	1.880057	0.175245	-0.445268
C21	C	1.554969	0.400871	-0.368272
C22	C	1.587752	0.535857	-0.376040
N23	N	1.514173	0.178674	-0.002486
N24	N	1.514167	0.178651	-0.714721
C25	C	1.580625	0.096756	0.053705
C26	C	1.580619	0.096741	0.197589
C27	C	1.447707	0.260573	0.229080
C28	C	1.447707	0.260581	0.085200
C29	C	1.657365	0.002172	0.035524
C30	C	1.657358	0.002157	0.179408
H31	H	1.139590	0.181870	-0.489678
C32	C	1.374722	0.350790	0.023369
N33	N	1.319793	0.418778	-0.023213
C34	C	1.792962	0.030371	0.200055
N35	N	1.895092	0.051658	0.215607
C36	C	1.590657	-0.117127	0.255489
N37	N	1.540410	-0.206966	0.312797
H38	H	1.615904	-0.091272	0.006291
C39	C	0.952221	0.177082	-0.599326
N40	N	1.006576	0.178464	-0.715361
C41	C	1.374596	0.350664	0.325547
N42	N	1.319527	0.418523	0.398205
H43	H	0.888745	0.175478	-0.227517
C44	C	1.076104	0.180252	-0.117900
N45	N	1.021746	0.178867	-0.001867
H46	H	1.338000	-0.219267	-0.316892
C47	C	1.788389	0.042148	-0.055802
N48	N	1.887078	0.072258	-0.124590
C49	C	1.669685	-0.196538	-0.395427
N50	N	1.774070	-0.155085	-0.420136
H51	H	1.690340	-0.423406	-0.400439
C52	C	1.358628	-0.446124	-0.321774
N53	N	1.254243	-0.487576	-0.297047
