data_functionalizedCrystal
_audit_creation_method	'MofGen! by Chris Wilmer'
_symmetry_space_group_name_H-M	'P1'
_symmetry_Int_Tables_number	1
_symmetry_cell_setting	triclinic
loop_
_symmetry_equiv_pos_as_xyz
  x,y,z
_cell_length_a	18.101398
_cell_length_b	18.101397
_cell_length_c	16.625539
_cell_angle_alpha	89.968146
_cell_angle_beta	89.973613
_cell_angle_gamma	90.018196
loop_
_atom_site_label
_atom_site_type_symbol
_atom_site_fract_x
_atom_site_fract_y
_atom_site_fract_z
Zn1	Zn	1.132187	-0.294873	-0.456015
Zn2	Zn	1.465521	0.038460	-0.122681
Zn3	Zn	1.798854	0.371794	0.210652
Zn4	Zn	1.132103	-0.418722	-0.321173
Zn5	Zn	1.465436	-0.085389	0.012160
Zn6	Zn	1.798769	0.247945	0.345493
Zn7	Zn	1.008343	-0.294894	-0.321181
Zn8	Zn	1.341676	0.038439	0.012152
Zn9	Zn	1.675010	0.371773	0.345485
Zn10	Zn	1.008320	-0.418672	-0.455950
Zn11	Zn	1.341653	-0.085339	-0.122616
Zn12	Zn	1.674987	0.247994	0.210717
O13	O	1.070238	-0.356790	-0.388580
O14	O	1.403572	-0.023457	-0.055246
O15	O	1.736905	0.309876	0.278087
O16	O	1.235809	-0.311314	-0.438151
O17	O	1.569142	0.022019	-0.104818
O18	O	1.902476	0.355353	0.228515
O19	O	1.115660	-0.402326	-0.208342
O20	O	1.448993	-0.068992	0.124991
O21	O	1.782327	0.264341	0.458325
O22	O	1.024816	-0.191258	-0.339098
O23	O	1.358149	0.142075	-0.005765
O24	O	1.691483	0.475408	0.327569
O25	O	1.235747	-0.402305	-0.339084
O26	O	1.569080	-0.068972	-0.005751
O27	O	1.902414	0.264361	0.327582
O28	O	1.115804	-0.191243	-0.438159
O29	O	1.449137	0.142090	-0.104826
O30	O	1.782471	0.475424	0.228507
O31	O	1.024734	-0.311350	-0.208348
O32	O	1.358067	0.021984	0.124985
O33	O	1.691401	0.355317	0.458319
O34	O	0.904707	-0.311301	-0.339035
O35	O	1.238040	0.022032	-0.005702
O36	O	1.571374	0.355365	0.327632
O37	O	1.024777	-0.402221	-0.568791
O38	O	1.358110	-0.068887	-0.235457
O39	O	1.691444	0.264446	0.097876
O40	O	0.904690	-0.402241	-0.438049
O41	O	1.238024	-0.068908	-0.104715
O42	O	1.571357	0.264426	0.228618
O43	O	1.115782	-0.311266	-0.568838
O44	O	1.449115	0.022068	-0.235505
O45	O	1.782449	0.355401	0.097828
O46	O	1.115638	-0.522348	-0.339021
O47	O	1.448971	-0.189015	-0.005688
O48	O	1.782304	0.144318	0.327645
O49	O	1.024695	-0.522312	-0.438041
O50	O	1.358028	-0.188979	-0.104707
O51	O	1.691362	0.144355	0.228626
C52	C	0.877828	-0.356769	-0.388536
C53	C	1.211161	-0.023435	-0.055203
C54	C	1.544494	0.309898	0.278131
C55	C	0.795514	-0.356777	-0.388536
C56	C	1.128847	-0.023444	-0.055203
C57	C	1.462180	0.309890	0.278130
C58	C	0.644805	-0.356792	-0.388573
C59	C	0.978139	-0.023459	-0.055239
C60	C	1.311472	0.309874	0.278094
C61	C	0.613437	-0.299494	-0.326380
C62	C	0.946771	0.033840	0.006954
C63	C	1.280104	0.367173	0.340287
C64	C	0.527819	-0.299278	-0.326584
C65	C	0.861152	0.034055	0.006750
C66	C	1.194486	0.367389	0.340083
C67	C	0.496423	-0.356807	-0.388607
C68	C	0.829756	-0.023474	-0.055274
C69	C	1.163089	0.309860	0.278060
C70	C	0.527561	-0.335973	-0.473679
C71	C	0.860894	-0.002640	-0.140346
C72	C	1.194228	0.330693	0.192987
C73	C	0.613206	-0.335549	-0.473300
C74	C	0.946539	-0.002216	-0.139966
C75	C	1.279872	0.331118	0.193367
C76	C	0.613215	-0.435073	-0.366443
C77	C	0.946549	-0.101740	-0.033110
C78	C	1.279882	0.231594	0.300223
C79	C	0.527564	-0.434661	-0.364590
C80	C	0.860897	-0.101327	-0.031256
C81	C	1.194231	0.232006	0.302077
C82	C	0.412563	-0.356817	-0.388632
C83	C	0.745897	-0.023484	-0.055298
C84	C	1.079230	0.309850	0.278035
C85	C	0.728665	-0.356781	-0.388554
C86	C	1.061998	-0.023447	-0.055220
C87	C	1.395331	0.309886	0.278113
C88	C	1.070175	-0.549201	-0.388541
C89	C	1.403508	-0.215868	-0.055207
C90	C	1.736842	0.117466	0.278126
C91	C	1.070216	-0.631515	-0.388551
C92	C	1.403549	-0.298182	-0.055218
C93	C	1.736882	0.035152	0.278116
C94	C	1.070310	-0.930606	-0.388625
C95	C	1.403643	-0.597273	-0.055291
C96	C	1.736977	-0.263939	0.278042
C97	C	1.127369	-0.899273	-0.326157
C98	C	1.460702	-0.565940	0.007176
C99	C	1.794036	-0.232606	0.340509
C100	C	1.127567	-0.813654	-0.326319
C101	C	1.460900	-0.480321	0.007014
C102	C	1.794234	-0.146988	0.340348
C103	C	1.070263	-0.782223	-0.388587
C104	C	1.403597	-0.448890	-0.055254
C105	C	1.736930	-0.115557	0.278079
C106	C	1.091421	-0.813230	-0.473580
C107	C	1.424755	-0.479896	-0.140246
C108	C	1.758088	-0.146563	0.193087
C109	C	1.091863	-0.898875	-0.473240
C110	C	1.425196	-0.565541	-0.139906
C111	C	1.758530	-0.232208	0.193427
C112	C	0.991941	-0.899112	-0.366835
C113	C	1.325274	-0.565779	-0.033502
C114	C	1.658607	-0.232446	0.299832
C115	C	0.992328	-0.813463	-0.364938
C116	C	1.325661	-0.480130	-0.031605
C117	C	1.658994	-0.146796	0.301729
C118	C	1.070235	-0.698364	-0.388572
C119	C	1.403569	-0.365031	-0.055238
C120	C	1.736902	-0.031697	0.278095
C121	C	1.070340	-1.014465	-0.388646
C122	C	1.403673	-0.681132	-0.055313
C123	C	1.737006	-0.347799	0.278021
C124	C	1.263400	-0.356813	-0.388624
C125	C	1.596734	-0.023479	-0.055291
C126	C	1.930067	0.309854	0.278042
C127	C	1.345714	-0.356822	-0.388643
C128	C	1.679048	-0.023489	-0.055310
C129	C	2.012381	0.309844	0.278023
C130	C	1.070286	-0.356735	-0.598889
C131	C	1.403620	-0.023402	-0.265555
C132	C	1.736953	0.309931	0.067778
C133	C	1.070307	-0.356712	-0.688510
C134	C	1.403640	-0.023378	-0.355177
C135	C	1.736974	0.309955	-0.021843
C136	C	1.070322	-0.163628	-0.388637
C137	C	1.403655	0.169705	-0.055303
C138	C	1.736989	0.503038	0.278030
C139	C	1.070358	-0.081314	-0.388661
C140	C	1.403691	0.252019	-0.055328
C141	C	1.737024	0.585352	0.278006
C142	C	1.070341	-0.356629	-1.016686
C143	C	1.403674	-0.023295	-0.683353
C144	C	1.737008	0.310038	-0.350019
C145	C	1.070330	-0.356654	-0.925377
C146	C	1.403663	-0.023321	-0.592044
C147	C	1.736996	0.310012	-0.258711
C148	C	1.070324	-0.356671	-0.852601
C149	C	1.403658	-0.023337	-0.519267
C150	C	1.736991	0.309996	-0.185934
C151	C	1.070312	-0.356695	-0.761286
C152	C	1.403645	-0.023362	-0.427953
C153	C	1.736979	0.309972	-0.094620
C154	C	1.070233	-0.356792	-0.179089
C155	C	1.403566	-0.023459	0.154244
C156	C	1.736900	0.309875	0.487578
C157	C	1.070356	-0.356607	-0.089468
C158	C	1.403689	-0.023273	0.243865
C159	C	1.737023	0.310060	0.577198
H160	H	0.507229	-0.376436	-0.521301
H161	H	0.840562	-0.043102	-0.187968
H162	H	1.173895	0.290231	0.145366
F163	F	0.971470	-0.786981	-0.283186
F164	F	1.304804	-0.453648	0.050148
F165	F	1.638137	-0.120314	0.383481
H166	H	1.185104	-0.920743	-0.340409
H167	H	1.518437	-0.587410	-0.007076
H168	H	1.851770	-0.254076	0.326258
F169	F	0.500294	-0.316261	-0.244146
F170	F	0.833628	0.017073	0.089187
F171	F	1.166961	0.350406	0.422521
F172	F	1.039895	-0.925965	-0.536143
F173	F	1.373228	-0.592632	-0.202810
F174	F	1.706562	-0.259299	0.130523
F175	F	0.639342	-0.260770	-0.497748
F176	F	0.972676	0.072563	-0.164415
F177	F	1.306009	0.405897	0.168919
H178	H	1.149147	-0.918796	-0.491696
H179	H	1.482481	-0.585462	-0.158363
H180	H	1.815814	-0.252129	0.174971
F181	F	0.640310	-0.316270	-0.243672
F182	F	0.973643	0.017063	0.089661
F183	F	1.306976	0.350396	0.422995
H184	H	0.633499	-0.477759	-0.411742
H185	H	0.966832	-0.144426	-0.078408
H186	H	1.300165	0.188907	0.254925
H187	H	0.949427	-0.919375	-0.412332
H188	H	1.282761	-0.586042	-0.078999
H189	H	1.616094	-0.252709	0.254334
H190	H	1.114330	-0.792694	-0.263299
H191	H	1.447663	-0.459360	0.070035
H192	H	1.780996	-0.126027	0.403368
F193	F	0.501056	-0.223466	-0.345789
F194	F	0.834390	0.109867	-0.012456
F195	F	1.167723	0.443200	0.320877
H196	H	0.507209	-0.450376	-0.301980
H197	H	0.840543	-0.117043	0.031354
H198	H	1.173876	0.216291	0.364687
H199	H	0.634778	-0.454098	-0.305444
H200	H	0.968112	-0.120765	0.027889
H201	H	1.301445	0.212569	0.361223
H202	H	0.506185	-0.479615	-0.406555
H203	H	0.839519	-0.146282	-0.073221
H204	H	1.172852	0.187052	0.260112
H205	H	0.947527	-0.792075	-0.407103
H206	H	1.280861	-0.458742	-0.073770
H207	H	1.614194	-0.125408	0.259563
H208	H	0.972693	-0.920773	-0.305933
H209	H	1.306026	-0.587440	0.027401
H210	H	1.639359	-0.254107	0.360734
F211	F	0.641586	-0.224105	-0.345335
F212	F	0.974919	0.109228	-0.012002
F213	F	1.308252	0.442562	0.321331
F214	F	1.203444	-0.786802	-0.345168
F215	F	1.536777	-0.453468	-0.011834
F216	F	1.870110	-0.120135	0.321499
F217	F	0.640336	-0.387748	-0.535963
F218	F	0.973669	-0.054415	-0.202630
F219	F	1.307003	0.278919	0.130703
F220	F	1.110281	-0.926259	-0.243537
F221	F	1.443615	-0.592926	0.089797
F222	F	1.776948	-0.259593	0.423130
F223	F	1.038758	-0.786624	-0.536052
F224	F	1.372091	-0.453291	-0.202719
F225	F	1.705425	-0.119957	0.130614
H226	H	1.148064	-0.791724	-0.492348
H227	H	1.481398	-0.458391	-0.159015
H228	H	1.814731	-0.125057	0.174319
H229	H	0.506131	-0.279395	-0.492713
H230	H	0.839464	0.053938	-0.159380
H231	H	1.172797	0.387272	0.173953
