data_functionalizedCrystal
_audit_creation_method	'MofGen! by Chris Wilmer'
_symmetry_space_group_name_H-M	'P1'
_symmetry_Int_Tables_number	1
_symmetry_cell_setting	triclinic
loop_
_symmetry_equiv_pos_as_xyz
  x,y,z
_cell_length_a	19.851628
_cell_length_b	14.395555
_cell_length_c	14.395555
_cell_angle_alpha	60.000749
_cell_angle_beta	90.001047
_cell_angle_gamma	60.005729
loop_
_atom_site_label
_atom_site_type_symbol
_atom_site_fract_x
_atom_site_fract_y
_atom_site_fract_z
Zr1	Zr	0.648924	1.016892	-0.121968
O2	O	0.541375	1.210663	-0.270286
O3	O	0.681890	0.823103	-0.076498
O4	O	0.681896	1.016890	-0.270294
O5	O	0.541368	1.016883	0.076377
O6	O	0.792744	1.016908	-0.270303
O7	O	0.541369	1.016876	-0.076490
O8	O	0.792735	0.670258	0.076363
O9	O	0.541378	1.363533	-0.270289
O10	O	0.778679	0.902831	-0.057115
O11	O	0.695953	0.902822	0.056975
O12	O	0.695959	1.130982	-0.171195
O13	O	0.613234	1.130973	-0.057106
Zr14	Zr	0.825713	1.016931	0.121824
Zr15	Zr	0.825715	1.016920	-0.121981
Zr16	Zr	0.648922	1.016903	0.121838
Zr17	Zr	0.648929	1.260701	-0.121972
Zr18	Zr	0.825708	0.773122	0.121828
O19	O	0.792747	1.210720	0.076355
O20	O	0.792749	1.210704	-0.270306
O21	O	0.541373	1.210679	0.076374
O22	O	0.933263	0.823159	0.270142
O23	O	0.933264	0.823144	-0.076518
O24	O	0.681888	0.823119	0.270162
O25	O	0.933269	1.016940	-0.076521
O26	O	0.792741	1.016933	0.270150
O27	O	0.681893	1.016915	0.270159
O28	O	0.933268	1.016947	0.076347
O29	O	0.681903	1.363555	-0.270299
O30	O	0.792734	0.670267	0.270156
O31	O	0.933259	0.670290	0.270145
O32	O	0.933260	0.670281	0.076352
O33	O	0.541377	1.363541	-0.076496
O34	O	0.681902	1.363564	-0.076506
O35	O	0.778678	0.902841	0.171051
O36	O	0.861404	0.902849	0.056962
O37	O	0.778684	1.131000	-0.057118
O38	O	0.695958	1.130992	0.056971
C39	C	0.737312	0.711943	-0.000067
C40	C	0.737310	0.608440	-0.000066
C41	C	0.516180	1.016876	-0.000055
C42	C	0.441128	1.016863	-0.000049
C43	C	0.692207	0.547843	0.062144
C44	C	0.659518	0.562089	-0.045128
C45	C	0.769978	0.409798	0.107174
C46	C	0.704576	0.624112	-0.107401
C47	C	0.815079	0.471758	0.044978
C48	C	0.782410	0.486051	-0.062358
C49	C	0.304864	0.892495	0.062138
C50	C	0.237416	0.954681	0.107225
C51	C	0.303696	1.016897	-0.000064
C52	C	0.237409	0.954703	-0.045112
C53	C	0.170947	1.016921	-0.000077
C54	C	0.237237	1.079084	0.045086
C55	C	0.237240	1.079089	-0.107311
C56	C	0.169780	1.141365	-0.062250
C57	C	0.380171	1.016880	-0.000053
C58	C	0.094470	1.016948	-0.000086
C59	C	0.958457	1.016947	-0.000089
C60	C	1.033510	1.016959	-0.000095
C61	C	0.737320	1.016898	-0.305035
C62	C	0.737321	1.016893	-0.408537
C63	C	0.737325	1.321880	-0.000077
C64	C	0.737327	1.425383	-0.000078
C65	C	0.782427	0.892495	-0.406925
C66	C	0.704643	0.954673	-0.499941
C67	C	0.815086	0.954720	-0.499949
C68	C	0.659490	1.079071	-0.500191
C69	C	0.769990	1.079101	-0.500184
C70	C	0.692159	1.141370	-0.593218
C71	C	0.737317	1.016925	0.304892
C72	C	0.737316	1.016930	0.408393
C73	C	0.958450	0.711979	-0.000084
C74	C	1.033501	0.608488	-0.000088
C75	C	0.737310	0.711957	0.304896
C76	C	0.737307	0.608458	0.408400
C77	C	0.958449	0.711993	0.304879
C78	C	1.033498	0.608506	0.408377
C79	C	0.516188	1.321830	-0.305023
C80	C	0.441139	1.425316	-0.408521
C81	C	0.516187	1.321844	-0.000060
C82	C	0.441136	1.425335	-0.000055
C83	C	0.737327	1.321866	-0.305040
C84	C	0.737330	1.425364	-0.408543
C85	C	1.025564	0.559877	-0.059648
C86	C	1.096074	0.462650	-0.059674
C87	C	1.174522	0.414028	-0.000135
C88	C	1.182457	0.462648	0.059426
C89	C	1.111947	0.559880	0.059446
C90	C	1.111932	0.559912	0.397427
C91	C	1.182456	0.462689	0.494665
C92	C	1.174544	0.414055	0.602851
C93	C	1.096102	0.462659	0.613799
C94	C	1.025580	0.559887	0.516562
C95	C	0.362705	1.473922	-0.397571
C96	C	0.292181	1.571176	-0.494809
C97	C	0.300093	1.619815	-0.602995
C98	C	0.378535	1.571205	-0.613943
C99	C	0.449057	1.473960	-0.516706
C100	C	0.449073	1.473955	0.059494
C101	C	0.378563	1.571210	0.059493
C102	C	0.300116	1.619835	-0.000050
C103	C	0.292180	1.571211	-0.059606
C104	C	0.362690	1.473965	-0.059612
C105	C	0.692199	0.547866	0.406790
C106	C	0.769984	0.409782	0.499804
C107	C	0.659544	0.562096	0.499817
C108	C	0.815138	0.471674	0.500050
C109	C	0.704642	0.624063	0.500050
C110	C	0.782474	0.485988	0.593081
H111	H	0.654013	0.575065	0.114675
H112	H	0.228299	1.610817	-0.108084
Cl113	Cl	0.812688	1.160219	-0.498685
H114	H	0.356248	1.434326	-0.309489
Cl115	Cl	0.193579	1.632260	-0.481020
Cl116	Cl	0.841226	0.730095	-0.283785
H117	H	0.820551	0.459111	-0.115046
Cl118	Cl	0.080633	1.303896	-0.143454
H119	H	1.118421	0.599446	0.107952
Cl120	Cl	1.121900	0.621040	0.261433
H121	H	0.961719	0.599440	0.525494
H122	H	0.242662	1.698997	-0.682162
Cl123	Cl	0.633185	1.303904	-0.716160
H124	H	0.236748	0.902099	-0.083207
Cl125	Cl	0.812626	0.268375	0.247201
Cl126	Cl	0.557988	0.619478	-0.103967
Cl127	Cl	0.916625	0.873526	-0.501357
Cl128	Cl	0.916589	0.414397	0.103856
H129	H	0.384966	1.610819	-0.702040
H130	H	0.880936	0.434310	0.499221
H131	H	0.961694	0.599465	-0.108146
Cl132	Cl	0.661969	0.873494	-0.501378
Cl133	Cl	1.086171	0.401503	0.749814
H134	H	0.512919	1.434386	-0.525635
Cl135	Cl	1.281058	0.401602	0.480876
H136	H	0.512943	1.434372	0.107988
Cl137	Cl	0.388558	1.632312	0.134376
H138	H	0.362694	0.787307	0.114807
H139	H	0.356216	1.434381	-0.108100
H140	H	0.242708	1.699019	-0.000036
Cl141	Cl	0.661812	0.765465	-0.247497
Cl142	Cl	0.633396	0.589675	0.283653
Cl143	Cl	0.557902	1.160172	-0.498921
H144	H	0.237945	1.131618	-0.197984
H145	H	0.236743	0.902107	0.197918
Cl146	Cl	0.812651	0.268329	0.501242
Cl147	Cl	1.263210	0.291821	0.725082
H148	H	0.820677	0.458968	0.672706
H149	H	1.089597	0.423075	-0.108176
Cl150	Cl	0.238159	1.160206	0.104063
H151	H	0.676985	0.715712	0.499064
Cl152	Cl	1.281083	0.401503	0.134277
Cl153	Cl	1.263156	0.291788	-0.000168
Cl154	Cl	0.557998	0.619545	0.501206
