data_functionalizedCrystal
_audit_creation_method	'MofGen! by Chris Wilmer'
_symmetry_space_group_name_H-M	'P1'
_symmetry_Int_Tables_number	1
_symmetry_cell_setting	triclinic
loop_
_symmetry_equiv_pos_as_xyz
  x,y,z
_cell_length_a	18.215407
_cell_length_b	15.297327
_cell_length_c	18.215399
_cell_angle_alpha	99.648308
_cell_angle_beta	89.982632
_cell_angle_gamma	99.704016
loop_
_atom_site_label
_atom_site_type_symbol
_atom_site_fract_x
_atom_site_fract_y
_atom_site_fract_z
Zn1	Zn	1.074350	-0.359235	-0.466758
Zn2	Zn	1.574350	0.140765	0.033242
Zn3	Zn	1.052956	-0.510106	-0.364980
Zn4	Zn	1.552956	-0.010106	0.135020
Zn5	Zn	0.951279	-0.359257	-0.343713
Zn6	Zn	1.451279	0.140743	0.156287
Zn7	Zn	0.929954	-0.510048	-0.488002
Zn8	Zn	1.429954	-0.010048	0.011998
O9	O	1.002135	-0.434661	-0.415863
O10	O	1.502135	0.065339	0.084137
O11	O	1.174494	-0.379264	-0.453266
O12	O	1.674494	0.120736	0.046734
O13	O	1.039440	-0.490129	-0.259179
O14	O	1.539440	0.009871	0.240821
O15	O	0.985483	-0.233007	-0.342244
O16	O	1.485483	0.266993	0.157756
O17	O	1.158776	-0.490108	-0.378490
O18	O	1.658776	0.009892	0.121510
O19	O	1.075902	-0.232991	-0.432644
O20	O	1.575902	0.267009	0.067356
O21	O	0.964738	-0.379300	-0.243555
O22	O	1.464738	0.120700	0.256445
O23	O	0.845468	-0.379244	-0.362844
O24	O	1.345468	0.120756	0.137156
O25	O	0.949137	-0.490009	-0.588164
O26	O	1.449137	0.009991	-0.088164
O27	O	0.829801	-0.490030	-0.468853
O28	O	1.329801	0.009970	0.031147
O29	O	1.055224	-0.379207	-0.572555
O30	O	1.555224	0.120793	-0.072555
O31	O	1.018761	-0.636345	-0.399090
O32	O	1.518761	-0.136345	0.100910
O33	O	0.928393	-0.636302	-0.489474
O34	O	1.428393	-0.136302	0.010526
C35	C	0.810932	-0.434634	-0.415847
C36	C	1.310932	0.065366	0.084153
C37	C	0.729132	-0.434643	-0.415860
C38	C	1.229132	0.065357	0.084140
C39	C	0.549105	-0.377046	-0.454887
C40	C	1.049105	0.122954	0.045113
C41	C	0.472245	-0.377053	-0.454890
C42	C	0.972245	0.122947	0.045110
C43	C	0.455913	-0.492302	-0.376857
C44	C	0.955913	0.007698	0.123143
C45	C	0.532772	-0.492289	-0.376849
C46	C	1.032772	0.007711	0.123151
C47	C	0.579366	-0.434662	-0.415868
C48	C	1.079366	0.065338	0.084132
C49	C	0.425647	-0.434683	-0.415879
C50	C	0.925647	0.065317	0.084121
C51	C	0.342312	-0.434692	-0.415883
C52	C	0.842312	0.065308	0.084117
C53	C	0.662706	-0.434652	-0.415864
C54	C	1.162706	0.065348	0.084136
C55	C	0.968961	-0.669058	-0.448911
C56	C	1.468961	-0.169058	0.051089
C57	C	0.954837	-0.769333	-0.463074
C58	C	1.454837	-0.269333	0.036926
C59	C	1.103387	-1.051958	-0.314891
C60	C	1.603387	-0.551958	0.185109
C61	C	1.116657	-0.957744	-0.301581
C62	C	1.616657	-0.457744	0.198419
C63	C	1.076204	-0.910636	-0.341953
C64	C	1.576204	-0.410636	0.158047
C65	C	1.022477	-0.957753	-0.395638
C66	C	1.522477	-0.457753	0.104362
C67	C	1.009201	-1.051976	-0.408945
C68	C	1.509201	-0.551976	0.091055
C69	C	0.982018	-0.910655	-0.436007
C70	C	1.482018	-0.410655	0.063993
C71	C	0.928291	-0.957771	-0.489692
C72	C	1.428291	-0.457771	0.010308
C73	C	0.915019	-1.051985	-0.502997
C74	C	1.415019	-0.551985	-0.002997
C75	C	0.955472	-1.099092	-0.462625
C76	C	1.455472	-0.599092	0.037375
C77	C	0.995294	-0.816431	-0.422700
C78	C	1.495294	-0.316431	0.077300
C79	C	0.901108	-0.816450	-0.516754
C80	C	1.401108	-0.316450	-0.016754
C81	C	0.887838	-0.910664	-0.530064
C82	C	1.387838	-0.410664	-0.030064
C83	C	1.194084	-0.434690	-0.415881
C84	C	1.694084	0.065310	0.084119
C85	C	1.275881	-0.434702	-0.415888
C86	C	1.775881	0.065298	0.084112
C87	C	1.002188	-0.434599	-0.607808
C88	C	1.502188	0.065401	-0.107808
C89	C	1.002211	-0.434573	-0.689603
C90	C	1.502211	0.065427	-0.189603
C91	C	1.035458	-0.199350	-0.382702
C92	C	1.535458	0.300650	0.117298
C93	C	1.049658	-0.099074	-0.368571
C94	C	1.549658	0.400926	0.131429
C95	C	1.057475	-0.376824	-0.869663
C96	C	1.557475	0.123176	-0.369663
C97	C	1.057488	-0.376798	-0.946518
C98	C	1.557488	0.123202	-0.446518
C99	C	0.947019	-0.492181	-0.962761
C100	C	1.447019	0.007819	-0.462761
C101	C	0.947004	-0.492202	-0.885906
C102	C	1.447004	0.007798	-0.385906
C103	C	1.002236	-0.434525	-0.839360
C104	C	1.502236	0.065475	-0.339360
C105	C	1.002264	-0.434478	-0.993069
C106	C	1.502264	0.065522	-0.493069
C107	C	1.002277	-0.434450	-1.076399
C108	C	1.502277	0.065550	-0.576399
C109	C	1.002222	-0.434552	-0.756024
C110	C	1.502222	0.065448	-0.256024
C111	C	1.002133	-0.434658	-0.224657
C112	C	1.502133	0.065342	0.275343
C113	C	1.002289	-0.434430	-0.142826
C114	C	1.502289	0.065570	0.357174
H115	H	0.557411	-0.539209	-0.345072
H116	H	1.057411	-0.039209	0.154928
H117	H	0.447611	-0.330135	-0.486661
H118	H	0.947611	0.169865	0.013339
H119	H	0.902052	-0.539142	-1.000668
H120	H	1.402052	-0.039142	-0.500668
H121	H	1.087011	-0.833923	-0.331112
H122	H	1.587011	-0.333923	0.168888
H123	H	1.160400	-0.919385	-0.257871
H124	H	1.660400	-0.419385	0.242129
H125	H	0.417968	-0.539221	-0.345089
H126	H	0.917968	-0.039221	0.154911
H127	H	0.902017	-0.539189	-0.861233
H128	H	1.402017	-0.039189	-0.361233
H129	H	1.039038	-0.778078	-0.378989
H130	H	1.539038	-0.278078	0.121011
O131	O	0.594280	-0.321110	-0.492892
O132	O	1.094280	0.178890	0.007108
C133	C	0.624036	-0.277538	-0.611989
C134	C	1.124036	0.222462	-0.111989
C135	C	0.572813	-0.340931	-0.569037
C136	C	1.072813	0.159069	-0.069037
H137	H	0.606709	-0.293553	-0.673563
H138	H	1.106709	0.206447	-0.173563
H139	H	0.619197	-0.204761	-0.588960
H140	H	1.119197	0.295239	-0.088960
H141	H	0.684167	-0.287411	-0.605244
H142	H	1.184167	0.212589	-0.105244
H143	H	0.512662	-0.331138	-0.575765
H144	H	1.012662	0.168862	-0.075765
H145	H	0.577717	-0.413685	-0.592076
H146	H	1.077717	0.086315	-0.092076
O147	O	0.861898	-0.770561	-0.555934
O148	O	1.361898	-0.270561	-0.055934
C149	C	0.840578	-0.625417	-0.577084
C150	C	1.340578	-0.125417	-0.077084
C151	C	0.885046	-0.677280	-0.532679
C152	C	1.385046	-0.177280	-0.032679
H153	H	0.859266	-0.549991	-0.558289
H154	H	1.359266	-0.049991	-0.058289
H155	H	0.850877	-0.643815	-0.639052
H156	H	1.350877	-0.143815	-0.139052
H157	H	0.778625	-0.644059	-0.566751
H158	H	1.278625	-0.144059	-0.066751
H159	H	0.947013	-0.658666	-0.542950
H160	H	1.447013	-0.158666	-0.042950
H161	H	0.874685	-0.658877	-0.470726
H162	H	1.374685	-0.158877	0.029274
H163	H	0.871262	-1.090344	-0.546702
H164	H	1.371262	-0.590344	-0.046702
O165	O	1.142727	-1.097771	-0.275779
O166	O	1.642727	-0.597771	0.224221
C167	C	1.227029	-1.204158	-0.280946
C168	C	1.727029	-0.704158	0.219054
C169	C	1.182541	-1.152306	-0.325341
C170	C	1.682541	-0.652306	0.174659
H171	H	1.259218	-1.248276	-0.320999
H172	H	1.759218	-0.748276	0.179001
H173	H	1.267759	-1.154359	-0.240298
H174	H	1.767759	-0.654359	0.259702
H175	H	1.186998	-1.248273	-0.248669
H176	H	1.686998	-0.748273	0.251331
H177	H	1.222516	-1.108189	-0.357662
H178	H	1.722516	-0.608189	0.142338
H179	H	1.141802	-1.202153	-0.365944
H180	H	1.641802	-0.702153	0.134056
O181	O	0.942652	-1.190614	-0.475675
O182	O	1.442652	-0.690614	0.024325
C183	C	0.942456	-1.325739	-0.565347
C184	C	1.442456	-0.825739	-0.065347
C185	C	0.957012	-1.222091	-0.550667
C186	C	1.457012	-0.722091	-0.050667
H187	H	0.954044	-1.351220	-0.625981
H188	H	1.454044	-0.851220	-0.125981
H189	H	0.980622	-1.351355	-0.527324
H190	H	1.480622	-0.851355	-0.027324
H191	H	0.881866	-1.351377	-0.553610
H192	H	1.381866	-0.851377	-0.053610
H193	H	1.017581	-1.196377	-0.562412
H194	H	1.517581	-0.696377	-0.062412
H195	H	0.918797	-1.196537	-0.588684
H196	H	1.418797	-0.696537	-0.088684
O197	O	0.835650	-0.956576	-0.582158
O198	O	1.335650	-0.456576	-0.082158
C199	C	0.773498	-1.101736	-0.644369
C200	C	1.273498	-0.601736	-0.144369
C201	C	0.832608	-1.049853	-0.585340
C202	C	1.332608	-0.549853	-0.085340
H203	H	0.771030	-1.177159	-0.646971
H204	H	1.271030	-0.677159	-0.146971
H205	H	0.716736	-1.083349	-0.628798
H206	H	1.216736	-0.583349	-0.128798
H207	H	0.789005	-1.083100	-0.701082
H208	H	1.289005	-0.583100	-0.201082
H209	H	0.817171	-1.068461	-0.528605
H210	H	1.317171	-0.568461	-0.028605
H211	H	0.889353	-1.068244	-0.600975
H212	H	1.389353	-0.568244	-0.100975
H213	H	1.102447	-0.329857	-0.831766
H214	H	1.602447	0.170143	-0.331766
O215	O	1.111222	-0.320721	-0.975837
O216	O	1.611222	0.179279	-0.475837
C217	C	1.220766	-0.206244	-0.951606
C218	C	1.720766	0.293756	-0.451606
C219	C	1.159965	-0.269724	-0.918308
C220	C	1.659965	0.230276	-0.418308
H221	H	1.260182	-0.164983	-0.905108
H222	H	1.760182	0.335017	-0.405108
H223	H	1.253443	-0.247613	-0.993405
H224	H	1.753443	0.252387	-0.493405
H225	H	1.193649	-0.159093	-0.980958
H226	H	1.693649	0.340907	-0.480958
H227	H	1.187021	-0.316888	-0.888918
H228	H	1.687021	0.183112	-0.388918
H229	H	1.127294	-0.228298	-0.876548
H230	H	1.627294	0.271702	-0.376548
