data_functionalizedCrystal
_audit_creation_method	'MofGen! by Chris Wilmer'
_symmetry_space_group_name_H-M	'P1'
_symmetry_Int_Tables_number	1
_symmetry_cell_setting	triclinic
loop_
_symmetry_equiv_pos_as_xyz
  x,y,z
_cell_length_a	27.440280
_cell_length_b	27.440280
_cell_length_c	18.760492
_cell_angle_alpha	59.997090
_cell_angle_beta	90.001619
_cell_angle_gamma	60.004644
loop_
_atom_site_label
_atom_site_type_symbol
_atom_site_fract_x
_atom_site_fract_y
_atom_site_fract_z
Zr1	Zr	0.469573	0.533334	-0.093444
O2	O	0.391771	0.635005	-0.207273
O3	O	0.493415	0.431670	-0.058550
O4	O	0.493432	0.533331	-0.207256
O5	O	0.391750	0.533344	0.058735
O6	O	0.573635	0.533322	-0.207240
O7	O	0.391753	0.533343	-0.058568
O8	O	0.573604	0.351468	0.058766
O9	O	0.391781	0.715197	-0.207272
O10	O	0.563448	0.473477	-0.043656
O11	O	0.503591	0.473484	0.043875
O12	O	0.503612	0.593177	-0.131207
O13	O	0.443755	0.593184	-0.043676
Zr14	Zr	0.597482	0.533319	0.093665
Zr15	Zr	0.597487	0.533319	-0.093420
Zr16	Zr	0.469568	0.533334	0.093640
Zr17	Zr	0.469590	0.661232	-0.093442
Zr18	Zr	0.597465	0.405422	0.093662
O19	O	0.573640	0.634984	0.058771
O20	O	0.573648	0.634984	-0.207239
O21	O	0.391763	0.635005	0.058737
O22	O	0.675284	0.431649	0.207494
O23	O	0.675292	0.431648	-0.058516
O24	O	0.493407	0.431670	0.207459
O25	O	0.675305	0.533310	-0.058514
O26	O	0.573623	0.533322	0.207476
O27	O	0.493420	0.533332	0.207461
O28	O	0.675302	0.533310	0.058789
O29	O	0.493456	0.715185	-0.207252
O30	O	0.573599	0.351468	0.207473
O31	O	0.675274	0.351456	0.207493
O32	O	0.675278	0.351456	0.058786
O33	O	0.391777	0.715198	-0.058565
O34	O	0.493451	0.715186	-0.058545
O35	O	0.563443	0.473477	0.131428
O36	O	0.623300	0.473470	0.043897
O37	O	0.563464	0.593170	-0.043654
O38	O	0.503607	0.593177	0.043877
C39	C	0.533507	0.373346	0.000108
C40	C	0.533500	0.319050	0.000107
C41	C	0.564789	-0.017695	-0.045572
C42	C	0.564794	-0.068719	-0.045570
O43	O	0.591385	-0.095129	-0.084400
N44	N	0.533549	-0.094232	0.000119
C45	C	0.502301	-0.068722	0.045815
O46	O	0.475726	-0.095108	0.084677
C47	C	0.502300	-0.017703	0.045817
C48	C	0.533542	0.007812	0.000118
C49	C	0.596029	0.007819	-0.091266
C50	C	0.596023	0.058840	-0.091269
C51	C	0.564776	0.084347	-0.045579
C52	C	0.533536	0.058833	0.000115
C53	C	0.471056	0.007802	0.091517
C54	C	0.471057	0.058824	0.091516
C55	C	0.502300	0.084339	0.045818
C56	C	0.502282	0.135361	0.045802
N57	N	0.533527	0.160874	0.000114
C58	C	0.564774	0.135367	-0.045577
C59	C	0.502308	-0.175868	0.045808
C60	C	0.502305	-0.226883	0.045801
C61	C	0.564800	-0.226877	-0.045582
C62	C	0.564798	-0.175857	-0.045580
C63	C	0.533553	-0.150355	0.000120
C64	C	0.564758	0.242516	-0.045581
C65	C	0.564747	0.293543	-0.045584
C66	C	0.502255	0.293530	0.045803
C67	C	0.502264	0.242510	0.045802
C68	C	0.533520	0.217002	0.000108
O69	O	0.475707	0.161801	0.084616
O70	O	0.591352	0.161753	-0.084423
C71	C	0.373526	0.533346	0.000080
C72	C	0.319223	0.533352	0.000070
C73	C	0.053295	0.595821	-0.045590
C74	C	0.104314	0.595824	-0.045595
O75	O	0.104138	0.648963	-0.084439
N76	N	0.161064	0.533343	0.000099
C77	C	0.166796	0.470853	0.045809
O78	O	0.219752	0.417708	0.084676
C79	C	0.115778	0.470850	0.045819
C80	C	0.059028	0.533336	0.000115
C81	C	-0.003452	0.658301	-0.091290
C82	C	-0.054467	0.658297	-0.091286
C83	C	-0.048734	0.595812	-0.045581
C84	C	0.008013	0.533332	0.000119
C85	C	0.121510	0.408361	0.091534
C86	C	0.070486	0.408363	0.091540
C87	C	0.013736	0.470849	0.045836
C88	C	-0.037269	0.470843	0.045828
N89	N	-0.094019	0.533325	0.000133
C90	C	-0.099752	0.595809	-0.045571
C91	C	0.273935	0.470864	0.045785
C92	C	0.324952	0.470867	0.045771
C93	C	0.262466	0.595838	-0.045633
C94	C	0.211448	0.595835	-0.045622
C95	C	0.217184	0.533346	0.000091
C96	C	-0.206885	0.595796	-0.045559
C97	C	-0.257901	0.595786	-0.045553
C98	C	-0.195411	0.470815	0.045853
C99	C	-0.144399	0.470824	0.045844
C100	C	-0.150140	0.533320	0.000137
O101	O	-0.037139	0.417731	0.084654
O102	O	-0.152710	0.648946	-0.084422
C103	C	0.693529	0.533308	0.000141
C104	C	0.747832	0.533302	0.000151
C105	C	0.533534	0.533327	-0.233903
C106	C	0.533537	0.533327	-0.313326
C107	C	0.533548	0.693307	0.000113
C108	C	0.533555	0.747603	0.000114
C109	C	0.564755	0.470842	-0.603439
C110	C	0.502285	0.595811	-0.694839
C111	C	0.502289	0.595812	-0.620219
C112	C	0.533526	0.533327	-0.537204
C113	C	0.564759	0.470841	-0.528810
C114	C	0.471051	0.658297	-0.628606
C115	C	0.471054	0.658301	-0.553983
C116	C	0.502294	0.595815	-0.470966
C117	C	0.533529	0.533326	-0.462575
C118	C	0.564766	0.470841	-0.379561
C119	C	0.596005	0.408352	-0.371167
C120	C	0.596000	0.408355	-0.445793
C121	C	0.502300	0.595812	-0.396340
C122	C	0.564770	0.470840	-0.304932
C123	C	0.533521	0.533327	0.234124
C124	C	0.533518	0.533327	0.313546
C125	C	0.693508	0.373327	0.000138
C126	C	0.747804	0.319025	0.000147
C127	C	0.533500	0.373347	0.234122
C128	C	0.533491	0.319051	0.313543
C129	C	0.693501	0.373328	0.234152
C130	C	0.747795	0.319025	0.313583
C131	C	0.373554	0.693326	-0.233931
C132	C	0.319260	0.747628	-0.313363
C133	C	0.373547	0.693326	0.000083
C134	C	0.319251	0.747629	0.000073
C135	C	0.533555	0.693307	-0.233901
C136	C	0.533564	0.747603	-0.313322
C137	C	0.742060	0.293528	-0.045558
C138	C	0.793072	0.242512	-0.045567
C139	C	0.849827	0.216991	0.000136
C140	C	0.855570	0.242493	0.045842
C141	C	0.804559	0.293512	0.045845
C142	C	0.564728	0.293549	0.396549
C143	C	0.564717	0.242540	0.471181
C144	C	0.533472	0.217029	0.462805
C145	C	0.502230	0.242536	0.379789
C146	C	0.502238	0.293548	0.305159
C147	C	0.804542	0.293521	0.305195
C148	C	0.855561	0.242505	0.379823
C149	C	0.849832	0.216992	0.462837
C150	C	0.793079	0.242501	0.471223
C151	C	0.742061	0.293519	0.396597
C152	C	0.262513	0.773139	-0.304975
C153	C	0.211494	0.824171	-0.379602
C154	C	0.217223	0.849687	-0.462616
C155	C	0.273976	0.824174	-0.471003
C156	C	0.324994	0.773147	-0.396376
C157	C	0.324995	0.773131	0.045771
C158	C	0.273983	0.824161	0.045759
C159	C	0.217228	0.849684	0.000054
C160	C	0.211485	0.824179	-0.045649
C161	C	0.262496	0.773154	-0.045642
C162	C	0.564816	0.773097	-0.304917
C163	C	0.564836	0.824107	-0.379535
C164	C	0.533601	0.849625	-0.462556
C165	C	0.502349	0.824126	-0.470959
C166	C	0.502332	0.773113	-0.396343
H167	H	0.621465	0.079609	-0.128478
H168	H	0.476918	0.844911	-0.538565
C169	C	0.387414	0.745082	-0.405618
N170	N	0.434429	0.723945	-0.412585
C171	C	0.599215	0.852150	-0.370272
N172	N	0.625108	0.873272	-0.363292
C173	C	0.467865	0.214463	0.370589
N174	N	0.441986	0.193313	0.363663
H175	H	0.278633	0.844956	-0.538602
C176	C	0.599177	-0.254949	-0.095835
N177	N	0.625069	-0.276096	-0.133683
H178	H	0.476881	0.752362	-0.403198
H179	H	0.257811	0.752391	-0.082851
H180	H	0.695857	0.314279	0.403439
C181	C	0.183927	0.339621	0.141818
N182	N	0.230941	0.287841	0.179697
C183	C	0.599119	0.321604	-0.095854
N184	N	0.625010	0.342737	-0.133715
C185	C	0.810888	0.321546	0.096138
N186	N	0.815659	0.342659	0.134022
H187	H	-0.211568	0.646686	-0.082769
H188	H	0.165288	0.844935	-0.372756
C189	C	0.280253	0.402117	0.096061
N190	N	0.285015	0.350336	0.133927
H191	H	0.695851	0.314306	-0.082785
H192	H	0.533620	0.891163	-0.523307
H193	H	0.476803	0.314304	0.237574
C194	C	0.076802	0.339618	0.141826
N195	N	0.081561	0.287840	0.179698
C196	C	0.161119	0.905810	0.000059
N197	N	0.118860	0.948083	0.000070
C198	C	0.467949	-0.254956	0.096092
N199	N	0.442081	-0.276109	0.133987
C200	C	0.630398	-0.020222	-0.141546
N201	N	0.656279	-0.041332	-0.179430
C202	C	-0.081971	0.402087	0.096117
N203	N	-0.034954	0.350313	0.133991
H204	H	0.165268	0.844967	-0.082860
H205	H	0.590251	0.752328	-0.237324
C206	C	0.436692	0.727026	-0.719923
N207	N	0.410813	0.778795	-0.788708
C208	C	0.905936	0.160865	0.000130
N209	N	0.948195	0.118587	0.000127
C210	C	0.599136	0.214470	-0.095854
N211	N	0.625024	0.193350	-0.133727
C212	C	0.599171	-0.147801	-0.095844
N213	N	0.625065	-0.126673	-0.133703
H214	H	0.901787	0.221707	0.083051
C215	C	0.599100	0.321605	0.405785
N216	N	0.624986	0.342737	0.412749
H217	H	0.590160	0.221778	0.538769
H218	H	0.445615	-0.012964	0.128731
C219	C	0.467932	-0.147819	0.096083
N220	N	0.442043	-0.126697	0.133953
H221	H	0.445612	0.079586	0.128730
C222	C	0.467872	0.214467	0.096037
N223	N	0.441965	0.193351	0.133871
C224	C	0.533475	0.160907	0.544909
N225	N	0.533483	0.118633	0.606753
C226	C	0.630423	0.339620	-0.279843
N227	N	0.656369	0.287853	-0.211056
C228	C	0.436697	0.727040	-0.563223
N229	N	0.410822	0.778815	-0.570182
C230	C	0.467888	0.321595	0.096064
N231	N	0.442007	0.342731	0.133927
H232	H	0.901767	0.221740	0.372979
C233	C	-0.116888	0.727037	-0.141558
N234	N	-0.163903	0.778816	-0.179423
C235	C	0.786741	0.214463	-0.095840
N236	N	0.781971	0.193336	-0.133704
H237	H	0.809218	0.314286	0.237608
C238	C	-0.009772	0.727046	-0.141580
N239	N	-0.014538	0.778829	-0.179470
C240	C	0.905960	0.160865	0.544920
N241	N	0.948238	0.118587	0.606743
C242	C	0.280314	0.852201	0.096046
N243	N	0.285084	0.873318	0.133924
H244	H	0.257837	0.752367	-0.237387
C245	C	0.786788	0.214423	0.562548
N246	N	0.782051	0.193269	0.631336
H247	H	0.175675	0.891236	-0.523375
H248	H	-0.304110	0.646672	-0.082775
H249	H	0.165243	0.646717	-0.082839
H250	H	0.257806	0.646717	-0.082846
H251	H	0.371157	0.419985	0.082979
H252	H	-0.190753	0.419942	0.083063
C253	C	0.630352	0.339623	-0.436571
N254	N	0.656223	0.287855	-0.429628
H255	H	0.590209	0.419957	-0.237340
H256	H	0.590191	0.419965	-0.596610
H257	H	0.476861	0.646690	-0.403177
H258	H	0.476850	0.646684	-0.762432
H259	H	0.371204	0.752354	0.082995
