data_functionalizedCrystal
_audit_creation_method	'MofGen! by Chris Wilmer'
_symmetry_space_group_name_H-M	'P1'
_symmetry_Int_Tables_number	1
_symmetry_cell_setting	triclinic
loop_
_symmetry_equiv_pos_as_xyz
  x,y,z
_cell_length_a	16.120530
_cell_length_b	19.120786
_cell_length_c	16.120297
_cell_angle_alpha	90.306305
_cell_angle_beta	90.128140
_cell_angle_gamma	89.436752
loop_
_atom_site_label
_atom_site_type_symbol
_atom_site_fract_x
_atom_site_fract_y
_atom_site_fract_z
Zn1	Zn	1.230439	-0.354318	-0.515736
Zn2	Zn	1.563772	-0.020985	-0.182402
Zn3	Zn	1.897106	0.312349	0.150931
Zn4	Zn	1.232048	-0.465652	-0.370762
Zn5	Zn	1.565381	-0.132319	-0.037428
Zn6	Zn	1.898714	0.201015	0.295905
Zn7	Zn	1.098996	-0.342500	-0.370282
Zn8	Zn	1.432330	-0.009167	-0.036948
Zn9	Zn	1.765663	0.324167	0.296385
Zn10	Zn	1.086035	-0.465008	-0.502765
Zn11	Zn	1.419368	-0.131675	-0.169432
Zn12	Zn	1.752702	0.201659	0.163901
O13	O	1.161880	-0.406870	-0.439886
O14	O	1.495213	-0.073536	-0.106553
O15	O	1.828546	0.259797	0.226781
O16	O	1.346768	-0.374302	-0.502134
O17	O	1.680102	-0.040969	-0.168800
O18	O	2.013435	0.292364	0.164533
O19	O	1.220496	-0.444639	-0.254581
O20	O	1.553829	-0.111306	0.078752
O21	O	1.887162	0.222027	0.412086
O22	O	1.121184	-0.246204	-0.394804
O23	O	1.454517	0.087129	-0.061471
O24	O	1.787850	0.420463	0.271863
O25	O	1.347950	-0.456099	-0.395622
O26	O	1.681284	-0.122765	-0.062289
O27	O	2.014617	0.210568	0.271045
O28	O	1.217754	-0.254887	-0.501668
O29	O	1.551087	0.078447	-0.168335
O30	O	1.884421	0.411780	0.164998
O31	O	1.122744	-0.354160	-0.254229
O32	O	1.456077	-0.020827	0.079105
O33	O	1.789410	0.312507	0.412438
O34	O	0.981161	-0.353536	-0.382227
O35	O	1.314494	-0.020202	-0.048894
O36	O	1.647828	0.313131	0.284440
O37	O	1.099093	-0.455001	-0.620603
O38	O	1.432426	-0.121668	-0.287269
O39	O	1.765760	0.211666	0.046064
O40	O	0.971638	-0.443542	-0.479562
O41	O	1.304972	-0.110208	-0.146229
O42	O	1.638305	0.223125	0.187105
O43	O	1.205186	-0.373678	-0.630132
O44	O	1.538519	-0.040344	-0.296799
O45	O	1.871853	0.292989	0.036535
O46	O	1.207928	-0.563430	-0.383045
O47	O	1.541261	-0.230097	-0.049712
O48	O	1.874594	0.103236	0.283622
O49	O	1.100653	-0.562957	-0.480027
O50	O	1.433986	-0.229624	-0.146694
O51	O	1.767319	0.103710	0.186639
C52	C	0.946292	-0.397187	-0.429435
C53	C	1.279625	-0.063854	-0.096102
C54	C	1.612959	0.269480	0.237231
C55	C	0.854061	-0.393062	-0.424983
C56	C	1.187394	-0.059729	-0.091650
C57	C	1.520728	0.273604	0.241683
C58	C	0.685193	-0.385516	-0.416863
C59	C	1.018527	-0.052182	-0.083530
C60	C	1.351860	0.281151	0.249804
C61	C	0.639400	-0.428278	-0.462967
C62	C	0.972734	-0.094944	-0.129634
C63	C	1.306067	0.238389	0.203699
C64	C	0.545437	-0.424079	-0.458449
C65	C	0.878770	-0.090745	-0.125116
C66	C	1.212103	0.242588	0.208218
C67	C	0.779166	-0.389714	-0.421380
C68	C	1.112499	-0.056380	-0.088047
C69	C	1.445832	0.276953	0.245287
C70	C	1.153080	-0.588570	-0.430200
C71	C	1.486413	-0.255237	-0.096867
C72	C	1.819746	0.078096	0.236467
C73	C	1.149390	-0.666307	-0.426087
C74	C	1.482723	-0.332974	-0.092754
C75	C	1.816056	0.000359	0.240579
C76	C	1.197893	-0.707288	-0.479835
C77	C	1.531226	-0.373955	-0.146502
C78	C	1.864560	-0.040622	0.186831
C79	C	1.194422	-0.780330	-0.475973
C80	C	1.527756	-0.446997	-0.142639
C81	C	1.861089	-0.113664	0.190694
C82	C	1.142452	-0.812390	-0.418357
C83	C	1.475785	-0.479057	-0.085024
C84	C	1.809119	-0.145723	0.248309
C85	C	1.093943	-0.771403	-0.364607
C86	C	1.427276	-0.438070	-0.031274
C87	C	1.760610	-0.104737	0.302059
C88	C	1.097410	-0.698363	-0.368475
C89	C	1.430743	-0.365029	-0.035141
C90	C	1.764076	-0.031696	0.298192
C91	C	1.129467	-1.032702	-0.403899
C92	C	1.462800	-0.699369	-0.070565
C93	C	1.796134	-0.366035	0.262768
C94	C	1.126006	-1.105748	-0.400034
C95	C	1.459339	-0.772415	-0.066700
C96	C	1.792672	-0.439082	0.266633
C97	C	1.226484	-1.114670	-0.511400
C98	C	1.559818	-0.781337	-0.178067
C99	C	1.893151	-0.448004	0.155266
C100	C	1.229950	-1.041628	-0.515259
C101	C	1.563284	-0.708295	-0.181926
C102	C	1.896617	-0.374961	0.151407
C103	C	1.181438	-1.000648	-0.461512
C104	C	1.514771	-0.667314	-0.128179
C105	C	1.848105	-0.333981	0.205155
C106	C	1.138905	-0.887050	-0.414406
C107	C	1.472238	-0.553717	-0.081073
C108	C	1.805572	-0.220384	0.252261
C109	C	1.184981	-0.925989	-0.465468
C110	C	1.518314	-0.592655	-0.132135
C111	C	1.851648	-0.259322	0.201198
C112	C	1.378309	-0.416591	-0.450378
C113	C	1.711642	-0.083257	-0.117045
C114	C	2.044975	0.250076	0.216289
C115	C	1.470538	-0.420733	-0.454849
C116	C	1.803871	-0.087400	-0.121516
C117	C	2.137205	0.245934	0.211817
C118	C	1.150514	-0.415586	-0.656317
C119	C	1.483847	-0.082252	-0.322984
C120	C	1.817181	0.251081	0.010350
C121	C	1.145671	-0.419300	-0.748547
C122	C	1.479004	-0.085967	-0.415214
C123	C	1.812338	0.247367	-0.081880
C124	C	1.170735	-0.224461	-0.449629
C125	C	1.504069	0.108872	-0.116296
C126	C	1.837402	0.442206	0.217037
C127	C	1.174509	-0.146729	-0.453781
C128	C	1.507843	0.186604	-0.120448
C129	C	1.841176	0.519937	0.212885
C130	C	1.136799	-0.426065	-0.917412
C131	C	1.470132	-0.092731	-0.584079
C132	C	1.803465	0.240602	-0.250746
C133	C	1.187134	-0.387472	-0.963231
C134	C	1.520467	-0.054139	-0.629898
C135	C	1.853801	0.279194	-0.296564
C136	C	1.182197	-0.391236	-1.057193
C137	C	1.515531	-0.057903	-0.723860
C138	C	1.848864	0.275431	-0.390527
C139	C	1.141734	-0.422302	-0.823441
C140	C	1.475067	-0.088968	-0.490108
C141	C	1.808401	0.244365	-0.156775
C142	C	1.173251	-0.398139	-0.224302
C143	C	1.506584	-0.064806	0.109031
C144	C	1.839918	0.268528	0.442365
C145	C	1.178264	-0.394235	-0.132091
C146	C	1.511598	-0.060901	0.201242
C147	C	1.844931	0.272432	0.534576
H148	H	0.670765	-0.468040	-0.505833
H149	H	1.004098	-0.134706	-0.172499
H150	H	1.337431	0.198627	0.160834
H151	H	1.090002	-0.461929	-0.948752
H152	H	1.423335	-0.128596	-0.615418
H153	H	1.756669	0.204738	-0.282085
Br154	Br	0.632920	-0.319244	-0.345423
Br155	Br	0.966254	0.014089	-0.012090
Br156	Br	1.299587	0.347422	0.321244
H157	H	1.227292	-0.899884	-0.512382
H158	H	1.560626	-0.566550	-0.179048
H159	H	1.893959	-0.233217	0.154285
Br160	Br	1.068368	-0.930566	-0.336223
Br161	Br	1.401701	-0.597232	-0.002890
Br162	Br	1.735034	-0.263899	0.330444
Br163	Br	1.260237	-0.835945	-0.548933
Br164	Br	1.593570	-0.502612	-0.215600
Br165	Br	1.926903	-0.169279	0.117734
Br166	Br	1.268435	-0.663786	-0.558025
Br167	Br	1.601768	-0.330453	-0.224692
Br168	Br	1.935101	0.002880	0.108642
Br169	Br	1.292316	-1.170289	-0.584341
Br170	Br	1.625650	-0.836956	-0.251007
Br171	Br	1.958983	-0.503623	0.082326
Br172	Br	1.055475	-1.149257	-0.321831
Br173	Br	1.388809	-0.815924	0.011502
Br174	Br	1.722142	-0.482591	0.344835
Br175	Br	1.300485	-0.998124	-0.593453
Br176	Br	1.633819	-0.664790	-0.260120
Br177	Br	1.967152	-0.331457	0.073213
Br178	Br	1.023399	-0.814912	-0.286425
Br179	Br	1.356733	-0.481578	0.046909
Br180	Br	1.690066	-0.148245	0.380242
Br181	Br	1.265158	-0.327708	-0.910998
Br182	Br	1.598492	0.005625	-0.577665
Br183	Br	1.931825	0.338959	-0.244331
Br184	Br	1.031577	-0.642744	-0.295532
Br185	Br	1.364911	-0.309411	0.037802
Br186	Br	1.698244	0.023923	0.371135
H187	H	1.089968	-0.999342	-0.360134
H188	H	1.423301	-0.666008	-0.026801
H189	H	1.756635	-0.332675	0.306533
