data_functionalizedCrystal
_audit_creation_method	'MofGen! by Chris Wilmer'
_symmetry_space_group_name_H-M	'P1'
_symmetry_Int_Tables_number	1
_symmetry_cell_setting	triclinic
loop_
_symmetry_equiv_pos_as_xyz
  x,y,z
_cell_length_a	19.288840
_cell_length_b	12.811415
_cell_length_c	18.366186
_cell_angle_alpha	84.562925
_cell_angle_beta	89.983729
_cell_angle_gamma	83.586086
loop_
_atom_site_label
_atom_site_type_symbol
_atom_site_fract_x
_atom_site_fract_y
_atom_site_fract_z
O1	O	0.922014	0.130809	-0.069307
O2	O	1.422014	0.630809	0.430693
O3	O	0.719838	0.148499	-0.070450
O4	O	1.219838	0.648499	0.429550
O5	O	0.826011	-0.013164	-0.059786
O6	O	1.326011	0.486836	0.440214
O7	O	0.815841	0.292471	-0.079972
O8	O	1.315841	0.792471	0.420028
O9	O	0.825993	-0.013172	0.061314
O10	O	1.325993	0.486828	0.561314
O11	O	0.719820	0.148491	0.050650
O12	O	1.219820	0.648491	0.550650
O13	O	0.921996	0.130801	0.051793
O14	O	1.421996	0.630801	0.551793
Zn15	Zn	0.820905	0.139645	0.070448
Zn16	Zn	1.320905	0.639645	0.570448
Zn17	Zn	0.820929	0.139655	-0.089106
Zn18	Zn	1.320929	0.639655	0.410894
O19	O	0.815823	0.292463	0.041128
O20	O	1.315823	0.792463	0.541128
C21	C	0.693950	0.147930	-0.009860
C22	C	1.193950	0.647930	0.490140
C23	C	0.616837	0.146234	-0.009738
C24	C	1.116837	0.646234	0.490262
C25	C	0.580639	0.145424	-0.075697
C26	C	1.080639	0.645424	0.424303
C27	C	0.508184	0.143819	-0.075600
C28	C	1.008184	0.643819	0.424400
C29	C	0.471932	0.143004	-0.009539
C30	C	0.971932	0.643004	0.490461
C31	C	0.508138	0.143820	0.056429
C32	C	1.008138	0.643820	0.556429
C33	C	0.580590	0.145435	0.056330
C34	C	1.080590	0.645435	0.556330
C35	C	0.362278	0.078964	0.045252
C36	C	0.862278	0.578964	0.545252
C37	C	0.289828	0.077342	0.045350
C38	C	0.789828	0.577342	0.545350
C39	C	0.248463	0.138026	-0.009229
C40	C	0.748463	0.638026	0.490771
C41	C	0.279560	0.200319	-0.063916
C42	C	0.779560	0.700319	0.436084
C43	C	0.352012	0.201934	-0.064016
C44	C	0.852012	0.701934	0.435984
C45	C	0.393369	0.141253	-0.009423
C46	C	0.893369	0.641253	0.490577
C47	C	0.133702	0.135477	-0.075088
C48	C	0.633702	0.635477	0.424912
C49	C	0.061245	0.133879	-0.074988
C50	C	0.561245	0.633879	0.425012
C51	C	0.061200	0.133869	0.057044
C52	C	0.561200	0.633869	0.557044
C53	C	0.133655	0.135478	0.056942
C54	C	0.633655	0.635478	0.556942
C55	C	0.169902	0.136277	-0.009126
C56	C	0.669902	0.636277	0.490874
C57	C	0.825432	-0.052269	0.003346
C58	C	1.325432	0.447731	0.503346
C59	C	0.823724	-0.168780	0.011037
C60	C	1.323724	0.331220	0.511037
C61	C	0.820522	-0.387694	-0.106549
C62	C	1.320522	0.112306	0.393451
C63	C	0.818917	-0.497166	-0.099326
C64	C	1.318917	0.002834	0.400674
C65	C	0.818905	-0.497196	0.032706
C66	C	1.318905	0.002804	0.532706
C67	C	0.820510	-0.387724	0.025482
C68	C	1.320510	0.112276	0.525482
C69	C	0.821319	-0.332977	-0.044147
C70	C	1.321319	0.167023	0.455853
C71	C	0.822929	-0.223505	-0.051369
C72	C	1.322929	0.276495	0.448631
C73	C	0.822911	-0.223535	0.080661
C74	C	1.322911	0.276465	0.580661
C75	C	0.821307	-0.333007	0.087884
C76	C	1.321307	0.166993	0.587884
C77	C	0.947884	0.131369	-0.008800
C78	C	1.447884	0.631369	0.491200
C79	C	1.024997	0.133065	-0.008926
C80	C	1.524997	0.633065	0.491074
C81	C	0.816402	0.331569	-0.022005
C82	C	1.316402	0.831569	0.477995
C83	C	0.818110	0.448079	-0.029701
C84	C	1.318110	0.948079	0.470299
N85	N	0.820894	0.139637	0.179340
N86	N	1.320894	0.639637	0.679340
N87	N	0.820946	0.139654	-0.197997
N88	N	1.320946	0.639654	0.302003
C89	C	0.867923	0.068088	0.222160
C90	C	1.367923	0.568088	0.722160
C91	C	0.867927	0.068083	0.298389
C92	C	1.367927	0.568083	0.798389
C93	C	0.820909	0.139645	0.331792
C94	C	1.320909	0.639645	0.831792
C95	C	0.773871	0.211200	0.288962
C96	C	1.273871	0.711200	0.788962
C97	C	0.773864	0.211196	0.212736
C98	C	1.273864	0.711196	0.712736
C99	C	0.812086	0.235280	0.446237
C100	C	1.312086	0.735280	0.946237
C101	C	0.812099	0.235286	0.522461
C102	C	1.312099	0.735286	1.022461
C103	C	0.820929	0.139659	0.566899
C104	C	1.320929	0.639659	1.066899
C105	C	0.829762	0.044021	0.535103
C106	C	1.329762	0.544021	1.035103
C107	C	0.829754	0.044017	0.458877
C108	C	1.329754	0.544017	0.958877
C109	C	0.820912	0.139658	0.414446
C110	C	1.320912	0.639658	0.914446
C111	C	0.867965	0.068098	0.692375
C112	C	1.367965	0.568098	1.192375
C113	C	0.867965	0.068092	0.768605
C114	C	1.367965	0.568092	1.268605
C115	C	0.773912	0.211219	0.759176
C116	C	1.273912	0.711219	1.259176
C117	C	0.773910	0.211216	0.682949
C118	C	1.273910	0.711216	1.182949
C119	C	0.820940	0.139657	0.649553
C120	C	1.320940	0.639657	1.149553
H121	H	0.264515	0.026614	0.089876
H122	H	0.764515	0.526614	0.589876
Cl123	Cl	0.927041	-0.021875	0.180177
Cl124	Cl	1.427041	0.478125	0.680177
Cl125	Cl	0.015738	0.132869	-0.157918
Cl126	Cl	0.515738	0.632869	0.342082
Cl127	Cl	0.015632	0.132854	0.140094
Cl128	Cl	0.515632	0.632854	0.640094
Cl129	Cl	0.714788	0.301173	0.629112
Cl130	Cl	1.214788	0.801173	1.129112
Cl131	Cl	0.823921	-0.154743	0.159114
Cl132	Cl	1.323921	0.345257	0.659114
H133	H	0.820645	-0.377596	0.144574
H134	H	1.320645	0.122404	0.644574
H135	H	0.735566	0.269461	0.177871
H136	H	1.235566	0.769461	0.677871
Cl137	Cl	0.179164	0.136490	0.139868
Cl138	Cl	0.679164	0.636490	0.639868
H139	H	0.610147	0.146075	-0.129495
H140	H	1.110147	0.646075	0.370505
Cl141	Cl	0.714760	0.301161	0.330954
Cl142	Cl	1.214760	0.801161	0.830954
H143	H	0.821187	-0.343120	-0.163244
H144	H	1.321187	0.156880	0.336756
H145	H	0.823590	-0.178932	-0.108065
H146	H	1.323590	0.321068	0.391935
Cl147	Cl	0.227567	0.276618	-0.132532
Cl148	Cl	0.727567	0.776618	0.367468
H149	H	0.377328	0.252657	-0.108542
H150	H	0.877328	0.752657	0.391458
Cl151	Cl	0.817913	-0.565950	-0.177777
Cl152	Cl	1.317913	-0.065950	0.322223
H153	H	0.906225	0.009817	0.333259
H154	H	1.406225	0.509817	0.833259
Cl155	Cl	0.840849	-0.076206	0.418906
Cl156	Cl	1.340849	0.423794	0.918906
H157	H	0.478706	0.143161	-0.129314
H158	H	0.978706	0.643161	0.370686
H159	H	0.818240	-0.541788	0.089394
H160	H	1.318240	-0.041788	0.589394
Cl161	Cl	0.179271	0.136492	-0.158143
Cl162	Cl	0.679271	0.636492	0.341857
Cl163	Cl	0.801000	0.355514	0.562426
Cl164	Cl	1.301000	0.855514	1.062426
Cl165	Cl	0.462563	0.142801	0.139478
Cl166	Cl	0.962563	0.642801	0.639478
Cl167	Cl	0.840869	-0.076205	0.590959
Cl168	Cl	1.340869	0.423795	1.090959
H169	H	0.735627	0.269482	0.786373
H170	H	1.235627	0.769482	1.286373
Cl171	Cl	0.414272	0.002669	0.113873
Cl172	Cl	0.914272	0.502669	0.613873
Cl173	Cl	0.626098	0.146453	0.139258
Cl174	Cl	1.126098	0.646453	0.639258
Cl175	Cl	0.927085	-0.021866	0.650390
Cl176	Cl	1.427085	0.478134	1.150390
Cl177	Cl	0.927088	-0.021869	0.822440
Cl178	Cl	1.427088	0.478131	1.322440
Cl179	Cl	0.801049	0.355512	0.390380
Cl180	Cl	1.301049	0.855512	0.890380
