data_functionalizedCrystal
_audit_creation_method	'MofGen! by Chris Wilmer'
_symmetry_space_group_name_H-M	'P1'
_symmetry_Int_Tables_number	1
_symmetry_cell_setting	triclinic
loop_
_symmetry_equiv_pos_as_xyz
  x,y,z
_cell_length_a	19.288840
_cell_length_b	19.288865
_cell_length_c	17.766277
_cell_angle_alpha	90.006751
_cell_angle_beta	90.013814
_cell_angle_gamma	83.131131
loop_
_atom_site_label
_atom_site_type_symbol
_atom_site_fract_x
_atom_site_fract_y
_atom_site_fract_z
O1	O	-0.921362	-0.086561	-0.062728
O2	O	-0.588029	0.246772	0.270605
O3	O	-0.254695	0.580105	0.603938
O4	O	-0.719099	-0.098268	-0.062704
O5	O	-0.385765	0.235065	0.270630
O6	O	-0.052432	0.568398	0.603963
O7	O	-0.826075	0.008716	-0.062702
O8	O	-0.492741	0.342049	0.270631
O9	O	-0.159408	0.675383	0.603965
O10	O	-0.814386	-0.193546	-0.062730
O11	O	-0.481053	0.139788	0.270603
O12	O	-0.147719	0.473121	0.603936
O13	O	-0.826061	0.008712	0.062487
O14	O	-0.492727	0.342046	0.395820
O15	O	-0.159394	0.675379	0.729153
O16	O	-0.719085	-0.098272	0.062485
O17	O	-0.385751	0.235061	0.395818
O18	O	-0.052418	0.568395	0.729152
O19	O	-0.921348	-0.086565	0.062460
O20	O	-0.588014	0.246768	0.395793
O21	O	-0.254681	0.580102	0.729127
Cu22	Cu	-0.820215	-0.092419	0.073903
Cu23	Cu	-0.486881	0.240914	0.407237
Cu24	Cu	-0.153548	0.574248	0.740570
Cu25	Cu	-0.820232	-0.092414	-0.074147
Cu26	Cu	-0.486898	0.240919	0.259187
Cu27	Cu	-0.153565	0.574252	0.592520
O28	O	-0.814372	-0.193549	0.062458
O29	O	-0.481038	0.139784	0.395792
O30	O	-0.147705	0.473117	0.729125
C31	C	-0.693215	-0.097896	-0.000106
C32	C	-0.359882	0.235437	0.333227
C33	C	-0.026548	0.568770	0.666561
C34	C	-0.616110	-0.096774	-0.000096
C35	C	-0.282777	0.236559	0.333238
C36	C	0.050556	0.569892	0.666571
C37	C	-0.825692	0.034591	-0.000105
C38	C	-0.492358	0.367924	0.333228
C39	C	-0.159025	0.701257	0.666561
C40	C	-0.824563	0.111694	-0.000099
C41	C	-0.491229	0.445027	0.333235
C42	C	-0.157896	0.778361	0.666568
C43	C	-0.947232	-0.086937	-0.000139
C44	C	-0.613898	0.246396	0.333194
C45	C	-0.280565	0.579730	0.666527
C46	C	-1.024336	-0.088059	-0.000154
C47	C	-0.691003	0.245274	0.333179
C48	C	-0.357669	0.578608	0.666512
C49	C	-0.579915	-0.096233	-0.068338
C50	C	-0.246581	0.237100	0.264996
C51	C	0.086752	0.570434	0.598329
C52	C	-0.507468	-0.095171	-0.068347
C53	C	-0.174134	0.238162	0.264986
C54	C	0.159199	0.571496	0.598320
C55	C	-0.471221	-0.094636	-0.000110
C56	C	-0.137888	0.238697	0.333223
C57	C	0.195445	0.572030	0.666557
C58	C	-0.507425	-0.095181	0.068141
C59	C	-0.174092	0.238152	0.401474
C60	C	0.159241	0.571485	0.734808
C61	C	-0.579870	-0.096250	0.068148
C62	C	-0.246536	0.237083	0.401482
C63	C	0.086797	0.570416	0.734815
C64	C	-0.361888	-0.052260	0.052164
C65	C	-0.028554	0.281073	0.385498
C66	C	0.304779	0.614407	0.718831
C67	C	-0.289445	-0.051187	0.052155
C68	C	0.043888	0.282147	0.385488
C69	C	0.377222	0.615480	0.718821
C70	C	-0.247778	-0.091342	-0.000129
C71	C	0.085556	0.241991	0.333204
C72	C	0.418889	0.575325	0.666538
C73	C	-0.278563	-0.132562	-0.052416
C74	C	0.054770	0.200771	0.280918
C75	C	0.388104	0.534105	0.614251
C76	C	-0.351008	-0.133631	-0.052408
C77	C	-0.017674	0.199702	0.280925
C78	C	0.315659	0.533036	0.614258
C79	C	-0.392667	-0.093477	-0.000110
C80	C	-0.059334	0.239856	0.333223
C81	C	0.273999	0.573189	0.666557
C82	C	-0.133027	-0.089650	-0.068386
C83	C	0.200307	0.243683	0.264948
C84	C	0.533640	0.577016	0.598281
C85	C	-0.060578	-0.088593	-0.068392
C86	C	0.272756	0.244741	0.264941
C87	C	0.606089	0.578074	0.598275
C88	C	-0.060537	-0.088596	0.068098
C89	C	0.272796	0.244737	0.401431
C90	C	0.606129	0.578071	0.734765
C91	C	-0.132984	-0.089661	0.068102
C92	C	0.200349	0.243673	0.401436
C93	C	0.533683	0.577006	0.734769
C94	C	-0.169225	-0.090185	-0.000142
C95	C	0.164109	0.243149	0.333192
C96	C	0.497442	0.576482	0.666525
N97	N	-0.820208	-0.092422	0.178034
N98	N	-0.486875	0.240912	0.511367
N99	N	-0.153541	0.574245	0.844700
C100	C	-0.814755	-0.219424	-0.000140
C101	C	-0.481422	0.113909	0.333193
C102	C	-0.148088	0.447243	0.666527
C103	C	-0.815884	-0.296527	-0.000152
C104	C	-0.482551	0.036806	0.333182
C105	C	-0.149217	0.370139	0.666515
C106	C	-0.887331	0.156396	-0.000103
C107	C	-0.553998	0.489729	0.333231
C108	C	-0.220665	0.823063	0.666564
C109	C	-0.886270	0.228843	-0.000114
C110	C	-0.552937	0.562176	0.333219
C111	C	-0.219604	0.895510	0.666552
C112	C	-0.822438	0.256585	-0.000107
C113	C	-0.489104	0.589918	0.333226
C114	C	-0.155771	0.923251	0.666560
C115	C	-0.759661	0.211873	-0.000107
C116	C	-0.426327	0.545206	0.333226
C117	C	-0.092994	0.878540	0.666559
C118	C	-0.760723	0.139428	-0.000103
C119	C	-0.427390	0.472761	0.333230
C120	C	-0.094056	0.806094	0.666564
C121	C	-0.772252	0.364866	0.043750
C122	C	-0.438919	0.698200	0.377083
C123	C	-0.105586	1.031533	0.710417
C124	C	-0.771193	0.437311	0.043750
C125	C	-0.437859	0.770644	0.377084
C126	C	-0.104526	1.103977	0.710417
C127	C	-0.819158	0.480030	-0.000123
C128	C	-0.485825	0.813363	0.333210
C129	C	-0.152491	1.146697	0.666543
C130	C	-0.868195	0.450298	-0.043988
C131	C	-0.534862	0.783631	0.289345
C132	C	-0.201528	1.116964	0.622679
C133	C	-0.869257	0.377852	-0.043984
C134	C	-0.535924	0.711186	0.289350
C135	C	-0.202591	1.044519	0.622683
C136	C	-0.821278	0.335139	-0.000112
C137	C	-0.487945	0.668472	0.333221
C138	C	-0.154612	1.001805	0.666555
C139	C	-0.880781	0.603288	-0.000141
C140	C	-0.547447	0.936621	0.333192
C141	C	-0.214114	1.269955	0.666525
C142	C	-0.879717	0.675736	-0.000158
C143	C	-0.546384	1.009069	0.333176
C144	C	-0.213051	1.342403	0.666509
C145	C	-0.753106	0.658764	-0.000143
C146	C	-0.419772	0.992098	0.333190
C147	C	-0.086439	1.325431	0.666524
C148	C	-0.754171	0.586318	-0.000134
C149	C	-0.420838	0.919651	0.333199
C150	C	-0.087504	1.252985	0.666533
C151	C	-0.818010	0.558584	-0.000130
C152	C	-0.484677	0.891918	0.333204
C153	C	-0.151344	1.225251	0.666537
N154	N	-0.820244	-0.092406	-0.178277
N155	N	-0.486911	0.240927	0.155056
N156	N	-0.153577	0.574261	0.488390
C157	C	-0.862237	-0.134416	0.782310
C158	C	-0.528904	0.198917	1.115643
C159	C	-0.195571	0.532250	1.448976
C160	C	-0.862230	-0.134423	0.703508
C161	C	-0.528897	0.198910	1.036841
C162	C	-0.195564	0.532244	1.370175
C163	C	-0.820238	-0.092407	0.664122
C164	C	-0.486905	0.240927	0.997456
C165	C	-0.153572	0.574260	1.330789
C166	C	-0.778236	-0.050394	0.703545
C167	C	-0.444903	0.282939	1.036878
C168	C	-0.111570	0.616273	1.370212
C169	C	-0.778239	-0.050394	0.782345
C170	C	-0.444906	0.282940	1.115679
C171	C	-0.111573	0.616273	1.449012
C172	C	-0.818512	-0.029782	0.539288
C173	C	-0.485178	0.303551	0.872621
C174	C	-0.151845	0.636884	1.205954
C175	C	-0.818514	-0.029781	0.460489
C176	C	-0.485181	0.303552	0.793822
C177	C	-0.151847	0.636886	1.127156
C178	C	-0.820225	-0.092408	0.421076
C179	C	-0.486892	0.240925	0.754409
C180	C	-0.153559	0.574258	1.087743
C181	C	-0.821949	-0.155038	0.460472
C182	C	-0.488616	0.178296	0.793805
C183	C	-0.155283	0.511629	1.127138
C184	C	-0.821952	-0.155037	0.539272
C185	C	-0.488619	0.178296	0.872605
C186	C	-0.155285	0.511629	1.205939
C187	C	-0.820230	-0.092403	0.578677
C188	C	-0.486897	0.240931	0.912010
C189	C	-0.153563	0.574264	1.245343
C190	C	-0.862213	-0.134429	0.296217
C191	C	-0.528880	0.198904	0.629550
C192	C	-0.195547	0.532237	0.962884
C193	C	-0.862201	-0.134437	0.217414
C194	C	-0.528868	0.198896	0.550747
C195	C	-0.195535	0.532229	0.884080
C196	C	-0.778212	-0.050402	0.217452
C197	C	-0.444878	0.282931	0.550786
C198	C	-0.111545	0.616265	0.884119
C199	C	-0.778219	-0.050400	0.296254
C200	C	-0.444886	0.282933	0.629587
C201	C	-0.111553	0.616266	0.962921
C202	C	-0.820224	-0.092413	0.335632
C203	C	-0.486891	0.240921	0.668965
C204	C	-0.153557	0.574254	1.002298
H205	H	-0.609417	-0.096660	-0.123907
H206	H	-0.276084	0.236674	0.209426
H207	H	0.057249	0.570007	0.542759
H208	H	-0.162456	-0.090097	0.123672
H209	H	0.170878	0.243237	0.457006
H210	H	0.504211	0.576570	0.790339
Br211	Br	-0.458334	-0.094438	-0.160968
Br212	Br	-0.125000	0.238895	0.172366
Br213	Br	0.208333	0.572228	0.505699
Br214	Br	-0.222024	-0.187064	-0.123376
Br215	Br	0.111310	0.146269	0.209957
Br216	Br	0.444643	0.479602	0.543291
Br217	Br	-0.707151	0.306897	0.103299
Br218	Br	-0.373817	0.640230	0.436632
Br219	Br	-0.040484	0.973563	0.769966
Br220	Br	-0.919178	-0.191476	0.163922
Br221	Br	-0.585845	0.141858	0.497256
Br222	Br	-0.252512	0.475191	0.830589
H223	H	-0.932763	0.580706	-0.000141
H224	H	-0.599429	0.914040	0.333192
H225	H	-0.266096	1.247373	0.666525
Br226	Br	-0.182214	-0.090366	-0.161000
Br227	Br	0.151120	0.242967	0.172333
Br228	Br	0.484453	0.576300	0.505667
Br229	Br	-0.919239	-0.191437	0.835748
Br230	Br	-0.585905	0.141896	1.169081
Br231	Br	-0.252572	0.475229	1.502414
Br232	Br	-0.824288	-0.240030	0.592736
Br233	Br	-0.490954	0.093304	0.926069
Br234	Br	-0.157621	0.426637	1.259402
Br235	Br	-0.935801	0.337502	-0.103515
Br236	Br	-0.602467	0.670835	0.229819
Br237	Br	-0.269134	1.004169	0.563152
H238	H	-0.477908	-0.094748	0.123700
H239	H	-0.144575	0.238586	0.457033
H240	H	0.188758	0.571919	0.790367
Br241	Br	-0.721243	0.006624	0.835839
Br242	Br	-0.387909	0.339957	1.169172
Br243	Br	-0.054576	0.673290	1.502505
Br244	Br	-0.668980	0.525647	-0.000128
Br245	Br	-0.335647	0.858980	0.333205
Br246	Br	-0.002313	1.192313	0.666539
Br247	Br	-0.721213	0.006613	0.164009
Br248	Br	-0.387880	0.339947	0.497342
Br249	Br	-0.054546	0.673280	0.830676
H250	H	-0.744027	-0.016188	0.328345
H251	H	-0.410694	0.317146	0.661678
H252	H	-0.077360	0.650479	0.995011
Br253	Br	-0.816170	0.055213	0.407031
Br254	Br	-0.482837	0.388547	0.740365
Br255	Br	-0.149504	0.721880	1.073698
H256	H	-0.823343	-0.206035	0.428383
H257	H	-0.490010	0.127299	0.761717
H258	H	-0.156676	0.460632	1.095050
H259	H	-0.907253	0.485079	-0.079715
H260	H	-0.573919	0.818412	0.253619
H261	H	-0.240586	1.151745	0.586952
H262	H	-0.930833	0.712132	-0.000165
H263	H	-0.597500	1.045466	0.333168
H264	H	-0.264167	1.378799	0.666501
Br265	Br	-0.675530	0.078756	-0.000100
Br266	Br	-0.342197	0.412090	0.333234
Br267	Br	-0.008864	0.745423	0.666567
H268	H	-0.817112	0.021219	0.571371
H269	H	-0.483778	0.354552	0.904705
H270	H	-0.150445	0.687886	1.238038
Br271	Br	-0.666474	0.696406	-0.000141
Br272	Br	-0.333140	1.029739	0.333193
Br273	Br	0.000193	1.363072	0.666526
Br274	Br	-0.392787	-0.189571	-0.123362
Br275	Br	-0.059453	0.143762	0.209971
Br276	Br	0.273880	0.477096	0.543304
Br277	Br	-0.011452	-0.087867	-0.161015
Br278	Br	0.321881	0.245466	0.172318
Br279	Br	0.655215	0.578799	0.505652
H280	H	-0.731261	0.461512	0.079463
H281	H	-0.397927	0.794846	0.412797
H282	H	-0.064594	1.128179	0.746130
Br283	Br	-0.721241	0.006623	0.650096
Br284	Br	-0.387908	0.339956	0.983429
Br285	Br	-0.054574	0.673290	1.316762
Br286	Br	-0.418429	0.002239	0.123130
Br287	Br	-0.085096	0.335572	0.456464
Br288	Br	0.248238	0.668905	0.789797
Br289	Br	-0.011352	-0.087880	0.160707
Br290	Br	0.321981	0.245453	0.494041
Br291	Br	0.655314	0.578786	0.827374
H292	H	-0.707687	0.234465	-0.000103
H293	H	-0.374354	0.567798	0.333231
H294	H	-0.041021	0.901132	0.666564
Br295	Br	-0.247670	0.004736	0.123128
Br296	Br	0.085664	0.338070	0.456462
Br297	Br	0.418997	0.671403	0.789795
H298	H	-0.609340	-0.096692	0.123721
H299	H	-0.276007	0.236642	0.457054
H300	H	0.057327	0.569975	0.790388
Br301	Br	-0.919236	-0.191430	0.650007
Br302	Br	-0.585903	0.141903	0.983340
Br303	Br	-0.252569	0.475237	1.316673
Br304	Br	-0.973970	0.118761	-0.000118
Br305	Br	-0.640636	0.452094	0.333216
Br306	Br	-0.307303	0.785427	0.666549
H307	H	-0.937386	0.265246	-0.000121
H308	H	-0.604053	0.598580	0.333213
H309	H	-0.270719	0.931913	0.666546
Br310	Br	-0.919217	-0.191446	0.349663
Br311	Br	-0.585883	0.141887	0.682996
Br312	Br	-0.252550	0.475221	1.016329
