data_functionalizedCrystal
_audit_creation_method	'MofGen! by Chris Wilmer'
_symmetry_space_group_name_H-M	'P1'
_symmetry_Int_Tables_number	1
_symmetry_cell_setting	triclinic
loop_
_symmetry_equiv_pos_as_xyz
  x,y,z
_cell_length_a	23.532407
_cell_length_b	23.532407
_cell_length_c	9.016244
_cell_angle_alpha	89.993097
_cell_angle_beta	89.995357
_cell_angle_gamma	82.848712
loop_
_atom_site_label
_atom_site_type_symbol
_atom_site_fract_x
_atom_site_fract_y
_atom_site_fract_z
O1	O	0.755262	0.069133	-0.123262
O2	O	1.005262	0.319133	0.126738
O3	O	1.255262	0.569133	0.376738
O4	O	1.505262	0.819133	0.626738
O5	O	0.589399	0.079136	-0.123287
O6	O	0.839399	0.329136	0.126713
O7	O	1.089399	0.579136	0.376713
O8	O	1.339399	0.829136	0.626713
O9	O	0.677332	-0.008797	-0.123246
O10	O	0.927332	0.241203	0.126754
O11	O	1.177332	0.491203	0.376754
O12	O	1.427332	0.741203	0.626754
O13	O	0.667329	0.157066	-0.123302
O14	O	0.917329	0.407066	0.126698
O15	O	1.167329	0.657066	0.376698
O16	O	1.417329	0.907066	0.626698
O17	O	0.677319	-0.008795	0.123434
O18	O	0.927319	0.241205	0.373434
O19	O	1.177319	0.491205	0.623434
O20	O	1.427319	0.741205	0.873434
O21	O	0.589386	0.079138	0.123394
O22	O	0.839386	0.329138	0.373394
O23	O	1.089386	0.579138	0.623394
O24	O	1.339386	0.829138	0.873394
O25	O	0.755249	0.069135	0.123419
O26	O	1.005249	0.319135	0.373419
O27	O	1.255249	0.569135	0.623419
O28	O	1.505249	0.819135	0.873419
Cu29	Cu	0.672316	0.074137	0.145930
Cu30	Cu	0.922316	0.324137	0.395930
Cu31	Cu	1.172316	0.574137	0.645930
Cu32	Cu	1.422316	0.824137	0.895930
Cu33	Cu	0.672332	0.074134	-0.145798
Cu34	Cu	0.922332	0.324134	0.104202
Cu35	Cu	1.172332	0.574134	0.354202
Cu36	Cu	1.422332	0.824134	0.604202
O37	O	0.667316	0.157068	0.123378
O38	O	0.917316	0.407068	0.373378
O39	O	1.167316	0.657068	0.623378
O40	O	1.417316	0.907068	0.873378
C41	C	0.568176	0.078882	0.000050
C42	C	0.818176	0.328882	0.250050
C43	C	1.068176	0.578882	0.500050
C44	C	1.318176	0.828882	0.750050
C45	C	0.504959	0.078116	0.000042
C46	C	0.754959	0.328116	0.250042
C47	C	1.004959	0.578116	0.500042
C48	C	1.254959	0.828116	0.750042
C49	C	0.677071	-0.030012	0.000098
C50	C	0.927071	0.219988	0.250098
C51	C	1.177071	0.469988	0.500098
C52	C	1.427071	0.719988	0.750098
C53	C	0.676305	-0.093229	0.000109
C54	C	0.926305	0.156771	0.250109
C55	C	1.176305	0.406771	0.500109
C56	C	1.426305	0.656771	0.750109
C57	C	0.238792	0.022921	0.000101
C58	C	0.488792	0.272921	0.250101
C59	C	0.738792	0.522921	0.500101
C60	C	0.988792	0.772921	0.750101
C61	C	0.298192	0.023632	0.000100
C62	C	0.548192	0.273632	0.250100
C63	C	0.798192	0.523632	0.500100
C64	C	1.048192	0.773632	0.750100
O65	O	0.334937	-0.020153	0.000166
O66	O	0.584937	0.229847	0.250166
O67	O	0.834937	0.479847	0.500166
O68	O	1.084937	0.729847	0.750166
N69	N	0.320818	0.075909	0.000072
N70	N	0.570818	0.325909	0.250072
N71	N	0.820818	0.575909	0.500072
N72	N	1.070818	0.825909	0.750072
C73	C	0.284041	0.127477	0.000060
C74	C	0.534041	0.377477	0.250060
C75	C	0.784041	0.627477	0.500060
C76	C	1.034041	0.877477	0.750060
O77	O	0.308740	0.172007	0.000038
O78	O	0.558740	0.422007	0.250038
O79	O	0.808740	0.672007	0.500038
O80	O	1.058740	0.922007	0.750038
C81	C	0.224642	0.126765	0.000072
C82	C	0.474642	0.376765	0.250072
C83	C	0.724642	0.626765	0.500072
C84	C	0.974642	0.876765	0.750072
C85	C	0.202019	0.074485	0.000084
C86	C	0.452019	0.324485	0.250084
C87	C	0.702019	0.574485	0.500084
C88	C	0.952019	0.824485	0.750084
C89	C	0.216168	-0.029354	0.000115
C90	C	0.466168	0.220646	0.250115
C91	C	0.716168	0.470646	0.500115
C92	C	0.966168	0.720646	0.750115
C93	C	0.156772	-0.030066	0.000113
C94	C	0.406772	0.219934	0.250113
C95	C	0.656772	0.469934	0.500113
C96	C	0.906772	0.719934	0.750113
C97	C	0.119999	0.021499	0.000096
C98	C	0.369999	0.271499	0.250096
C99	C	0.619999	0.521499	0.500096
C100	C	0.869999	0.771499	0.750096
C101	C	0.142623	0.073774	0.000082
C102	C	0.392623	0.323774	0.250082
C103	C	0.642623	0.573774	0.500082
C104	C	0.892623	0.823774	0.750082
C105	C	0.187865	0.178333	0.000070
C106	C	0.437865	0.428333	0.250070
C107	C	0.687865	0.678333	0.500070
C108	C	0.937865	0.928333	0.750070
C109	C	0.128463	0.177616	0.000083
C110	C	0.378463	0.427616	0.250083
C111	C	0.628463	0.677616	0.500083
C112	C	0.878463	0.927616	0.750083
C113	C	0.105840	0.125336	0.000095
C114	C	0.355840	0.375336	0.250095
C115	C	0.605840	0.625336	0.500095
C116	C	0.855840	0.875336	0.750095
C117	C	0.046454	0.124627	0.000064
C118	C	0.296454	0.374627	0.250064
C119	C	0.546454	0.624627	0.500064
C120	C	0.796454	0.874627	0.750064
N121	N	0.023828	0.072351	0.000091
N122	N	0.273828	0.322351	0.250091
N123	N	0.523828	0.572351	0.500091
N124	N	0.773828	0.822351	0.750091
C125	C	0.060600	0.020787	0.000108
C126	C	0.310600	0.270787	0.250108
C127	C	0.560600	0.520787	0.500108
C128	C	0.810600	0.770787	0.750108
C129	C	0.408783	0.128968	0.000039
C130	C	0.658783	0.378968	0.250039
C131	C	0.908783	0.628968	0.500039
C132	C	1.158783	0.878968	0.750039
C133	C	0.468181	0.129681	0.000017
C134	C	0.718181	0.379681	0.250017
C135	C	0.968181	0.629681	0.500017
C136	C	1.218181	0.879681	0.750017
C137	C	0.482328	0.025836	0.000060
C138	C	0.732328	0.275836	0.250060
C139	C	0.982328	0.525836	0.500060
C140	C	1.232328	0.775836	0.750060
C141	C	0.422929	0.025124	0.000071
C142	C	0.672929	0.275124	0.250071
C143	C	0.922929	0.525124	0.500071
C144	C	1.172929	0.775124	0.750071
C145	C	0.386157	0.076692	0.000067
C146	C	0.636157	0.326692	0.250067
C147	C	0.886157	0.576692	0.500067
C148	C	1.136157	0.826692	0.750067
C149	C	-0.064136	0.019297	0.000102
C150	C	0.185864	0.269297	0.250102
C151	C	0.435864	0.519297	0.500102
C152	C	0.685864	0.769297	0.750102
C153	C	-0.123538	0.018590	0.000094
C154	C	0.126462	0.268590	0.250094
C155	C	0.376462	0.518590	0.500094
C156	C	0.626462	0.768590	0.750094
C157	C	-0.137680	0.122435	0.000059
C158	C	0.112320	0.372435	0.250059
C159	C	0.362320	0.622435	0.500059
C160	C	0.612320	0.872435	0.750059
C161	C	-0.078284	0.123142	0.000059
C162	C	0.171716	0.373142	0.250059
C163	C	0.421716	0.623142	0.500059
C164	C	0.671716	0.873142	0.750059
C165	C	-0.041512	0.071568	0.000086
C166	C	0.208488	0.321568	0.250086
C167	C	0.458488	0.571568	0.500086
C168	C	0.708488	0.821568	0.750086
O169	O	0.009675	0.168390	0.000003
O170	O	0.259675	0.418390	0.250003
O171	O	0.509675	0.668390	0.500003
O172	O	0.759675	0.918390	0.750003
O173	O	0.035892	-0.023737	0.000149
O174	O	0.285892	0.226263	0.250149
O175	O	0.535892	0.476263	0.500149
O176	O	0.785892	0.726263	0.750149
C177	C	0.723538	-0.492332	0.000035
C178	C	0.973538	-0.242332	0.250035
C179	C	1.223538	0.007668	0.500035
C180	C	1.473538	0.257668	0.750035
C181	C	0.722827	-0.551733	0.000024
C182	C	0.972827	-0.301733	0.250024
C183	C	1.222827	-0.051733	0.500024
C184	C	1.472827	0.198267	0.750024
O185	O	0.766613	-0.588477	-0.000024
O186	O	1.016613	-0.338477	0.249976
O187	O	1.266613	-0.088477	0.499976
O188	O	1.516613	0.161523	0.749976
N189	N	0.670551	-0.574359	0.000017
N190	N	0.920551	-0.324359	0.250017
N191	N	1.170551	-0.074359	0.500017
N192	N	1.420551	0.175641	0.750017
C193	C	0.618982	-0.537581	0.000006
C194	C	0.868982	-0.287581	0.250006
C195	C	1.118982	-0.037581	0.500006
C196	C	1.368982	0.212419	0.750006
O197	O	0.574452	-0.562281	-0.000003
O198	O	0.824452	-0.312281	0.249997
O199	O	1.074452	-0.062281	0.499997
O200	O	1.324452	0.187719	0.749997
C201	C	0.619695	-0.478182	0.000007
C202	C	0.869695	-0.228182	0.250007
C203	C	1.119695	0.021818	0.500007
C204	C	1.369695	0.271818	0.750007
C205	C	0.671974	-0.455559	0.000029
C206	C	0.921974	-0.205559	0.250029
C207	C	1.171974	0.044441	0.500029
C208	C	1.421974	0.294441	0.750029
C209	C	0.775814	-0.469709	0.000055
C210	C	1.025814	-0.219709	0.250055
C211	C	1.275814	0.030291	0.500055
C212	C	1.525814	0.280291	0.750055
C213	C	0.776525	-0.410313	0.000069
C214	C	1.026525	-0.160313	0.250069
C215	C	1.276525	0.089687	0.500069
C216	C	1.526525	0.339687	0.750069
C217	C	0.724961	-0.373540	0.000063
C218	C	0.974961	-0.123540	0.250063
C219	C	1.224961	0.126460	0.500063
C220	C	1.474961	0.376460	0.750063
C221	C	0.672685	-0.396163	0.000043
C222	C	0.922685	-0.146163	0.250043
C223	C	1.172685	0.103837	0.500043
C224	C	1.422685	0.353837	0.750043
C225	C	0.568127	-0.441406	-0.000015
C226	C	0.818127	-0.191406	0.249985
C227	C	1.068127	0.058594	0.499985
C228	C	1.318127	0.308594	0.749985
C229	C	0.568843	-0.382003	-0.000015
C230	C	0.818843	-0.132003	0.249985
C231	C	1.068843	0.117997	0.499985
C232	C	1.318843	0.367997	0.749985
C233	C	0.621123	-0.359381	0.000007
C234	C	0.871123	-0.109381	0.250007
C235	C	1.121123	0.140619	0.500007
C236	C	1.371123	0.390619	0.750007
C237	C	0.621832	-0.299994	0.000051
C238	C	0.871832	-0.049994	0.250051
C239	C	1.121832	0.200006	0.500051
C240	C	1.371832	0.450006	0.750051
N241	N	0.674109	-0.277368	0.000058
N242	N	0.924109	-0.027368	0.250058
N243	N	1.174109	0.222632	0.500058
N244	N	1.424109	0.472632	0.750058
C245	C	0.725673	-0.314141	0.000064
C246	C	0.975673	-0.064141	0.250064
C247	C	1.225673	0.185859	0.500064
C248	C	1.475673	0.435859	0.750064
C249	C	0.617491	-0.662324	0.000002
C250	C	0.867491	-0.412324	0.250002
C251	C	1.117491	-0.162324	0.500002
C252	C	1.367491	0.087676	0.750002
C253	C	0.616778	-0.721722	0.000012
C254	C	0.866778	-0.471722	0.250012
C255	C	1.116778	-0.221722	0.500012
C256	C	1.366778	0.028278	0.750012
C257	C	0.720623	-0.735869	0.000026
C258	C	0.970623	-0.485869	0.250026
C259	C	1.220623	-0.235869	0.500026
C260	C	1.470623	0.014131	0.750026
C261	C	0.721335	-0.676470	0.000027
C262	C	0.971335	-0.426470	0.250027
C263	C	1.221335	-0.176470	0.500027
C264	C	1.471335	0.073530	0.750027
C265	C	0.669767	-0.639698	0.000009
C266	C	0.919767	-0.389698	0.250009
C267	C	1.169767	-0.139698	0.500009
C268	C	1.419767	0.110302	0.750009
C269	C	0.727163	-0.189404	0.000095
C270	C	0.977163	0.060596	0.250095
C271	C	1.227163	0.310596	0.500095
C272	C	1.477163	0.560596	0.750095
C273	C	0.727869	-0.130002	0.000115
C274	C	0.977869	0.119998	0.250115
C275	C	1.227869	0.369998	0.500115
C276	C	1.477869	0.619998	0.750115
C277	C	0.624025	-0.115860	0.000092
C278	C	0.874025	0.134140	0.250092
C279	C	1.124025	0.384140	0.500092
C280	C	1.374025	0.634140	0.750092
C281	C	0.623318	-0.175257	0.000080
C282	C	0.873318	0.074743	0.250080
C283	C	1.123318	0.324743	0.500080
C284	C	1.373318	0.574743	0.750080
C285	C	0.674891	-0.212028	0.000076
C286	C	0.924891	0.037972	0.250076
C287	C	1.174891	0.287972	0.500076
C288	C	1.424891	0.537972	0.750076
O289	O	0.578069	-0.263215	0.000093
O290	O	0.828069	-0.013215	0.250093
O291	O	1.078069	0.236785	0.500093
O292	O	1.328069	0.486785	0.750093
O293	O	0.770196	-0.289433	0.000053
O294	O	1.020196	-0.039433	0.250053
O295	O	1.270196	0.210567	0.500053
O296	O	1.520196	0.460567	0.750053
C297	C	0.776472	0.069389	0.000078
C298	C	1.026472	0.319389	0.250078
C299	C	1.276472	0.569389	0.500078
C300	C	1.526472	0.819389	0.750078
C301	C	0.839689	0.070155	0.000077
C302	C	1.089689	0.320155	0.250077
C303	C	1.339689	0.570155	0.500077
C304	C	1.589689	0.820155	0.750077
C305	C	0.667577	0.178283	0.000031
C306	C	0.917577	0.428283	0.250031
C307	C	1.167577	0.678283	0.500031
C308	C	1.417577	0.928283	0.750031
C309	C	0.668343	0.241500	0.000010
C310	C	0.918343	0.491500	0.250010
C311	C	1.168343	0.741500	0.500010
C312	C	1.418343	0.991500	0.750010
N313	N	0.672310	0.074138	0.351116
N314	N	0.922310	0.324138	0.601116
N315	N	1.172310	0.574138	0.851116
N316	N	1.422310	0.824138	1.101116
N317	N	0.672343	0.074128	-0.350984
N318	N	0.922343	0.324128	-0.100984
N319	N	1.172343	0.574128	0.149016
N320	N	1.422343	0.824128	0.399016
C321	C	0.625131	0.121023	0.586127
C322	C	0.875131	0.371023	0.836127
C323	C	1.125131	0.621023	1.086127
C324	C	1.375131	0.871023	1.336127
C325	C	0.625232	0.121195	0.414236
C326	C	0.875232	0.371195	0.664236
C327	C	1.125232	0.621195	0.914236
C328	C	1.375232	0.871195	1.164236
C329	C	0.731662	0.086782	0.413459
C330	C	0.981662	0.336782	0.663459
C331	C	1.231662	0.586782	0.913459
C332	C	1.481662	0.836782	1.163459
C333	C	0.731404	0.087113	0.585403
C334	C	0.981404	0.337113	0.835403
C335	C	1.231404	0.587113	1.085403
C336	C	1.481404	0.837113	1.335403
C337	C	0.660730	0.014449	0.585678
C338	C	0.910730	0.264449	0.835678
C339	C	1.160730	0.514449	1.085678
C340	C	1.410730	0.764449	1.335678
C341	C	0.659357	0.014857	0.413724
C342	C	0.909357	0.264857	0.663724
C343	C	1.159357	0.514857	0.913724
C344	C	1.409357	0.764857	1.163724
H345	H	-0.141954	-0.023984	0.000100
H346	H	0.108046	0.226016	0.250100
H347	H	0.358046	0.476016	0.500100
H348	H	0.608046	0.726016	0.750100
H349	H	0.618411	0.002207	0.629124
H350	H	0.868411	0.252207	0.879124
H351	H	1.118411	0.502207	1.129124
H352	H	1.368411	0.752207	1.379124
H353	H	0.632609	0.165490	0.373076
H354	H	0.882609	0.415490	0.623076
H355	H	1.132609	0.665490	0.873076
H356	H	1.382609	0.915490	1.123076
H357	H	0.098525	0.219610	0.000086
H358	H	0.348525	0.469610	0.250086
H359	H	0.598525	0.719610	0.500086
H360	H	0.848525	0.969610	0.750086
H361	H	0.525555	-0.459814	-0.000042
H362	H	0.775555	-0.209814	0.249958
H363	H	1.025555	0.040186	0.499958
H364	H	1.275555	0.290186	0.749958
H365	H	-0.059864	0.165712	0.000047
H366	H	0.190136	0.415712	0.250047
H367	H	0.440136	0.665712	0.500047
H368	H	0.690136	0.915712	0.750047
H369	H	0.770443	-0.111587	0.000137
H370	H	1.020443	0.138413	0.250137
H371	H	1.270443	0.388413	0.500137
H372	H	1.520443	0.638413	0.750137
H373	H	0.695162	-0.020445	0.626346
H374	H	0.945162	0.229555	0.876346
H375	H	1.195162	0.479555	1.126346
H376	H	1.445162	0.729555	1.376346
H377	H	0.769159	-0.219337	0.000086
H378	H	1.019159	0.030663	0.250086
H379	H	1.269159	0.280663	0.500086
H380	H	1.519159	0.530663	0.750086
H381	H	0.819097	-0.391900	0.000081
H382	H	1.069097	-0.141900	0.250081
H383	H	1.319097	0.108100	0.500081
H384	H	1.569097	0.358100	0.750081
H385	H	0.138359	-0.072637	0.000129
H386	H	0.388359	0.177363	0.250129
H387	H	0.638359	0.427363	0.500129
H388	H	0.888359	0.677363	0.750129
H389	H	-0.167631	0.164417	0.000038
H390	H	0.082369	0.414417	0.250038
H391	H	0.332369	0.664417	0.500038
H392	H	0.582369	0.914417	0.750038
H393	H	0.763906	-0.658055	0.000044
H394	H	1.013906	-0.408055	0.250044
H395	H	1.263906	-0.158055	0.500044
H396	H	1.513906	0.091945	0.750044
H397	H	0.404515	-0.017447	0.000083
H398	H	0.654515	0.232553	0.250083
H399	H	0.904515	0.482553	0.500083
H400	H	1.154515	0.732553	0.750083
H401	H	0.817806	-0.499644	0.000055
H402	H	1.067806	-0.249644	0.250055
H403	H	1.317806	0.000356	0.500055
H404	H	1.567806	0.250356	0.750055
H405	H	0.512280	-0.016150	0.000074
H406	H	0.762280	0.233850	0.250074
H407	H	1.012280	0.483850	0.500074
H408	H	1.262280	0.733850	0.750074
H409	H	0.762610	-0.765821	0.000026
H410	H	1.012610	-0.515821	0.250026
H411	H	1.262610	-0.265821	0.500026
H412	H	1.512610	-0.015821	0.750026
H413	H	0.574207	-0.740135	0.000019
H414	H	0.824207	-0.490135	0.250019
H415	H	1.074207	-0.240135	0.500019
H416	H	1.324207	0.009865	0.750019
H417	H	0.486595	0.172252	-0.000014
H418	H	0.736595	0.422252	0.249986
H419	H	0.986595	0.672252	0.499986
H420	H	1.236595	0.922252	0.749986
H421	H	0.767614	0.054286	0.627001
H422	H	1.017614	0.304286	0.877001
H423	H	1.267614	0.554286	1.127001
H424	H	1.517614	0.804286	1.377001
H425	H	0.575496	-0.632386	-0.000001
H426	H	0.825496	-0.382386	0.249999
H427	H	1.075496	-0.132386	0.499999
H428	H	1.325496	0.117614	0.749999
H429	H	0.767616	0.053522	0.372570
H430	H	1.017616	0.303522	0.622570
H431	H	1.267616	0.553522	0.872570
H432	H	1.517616	0.803522	1.122570
H433	H	-0.034204	-0.022699	0.000123
H434	H	0.215796	0.227301	0.250123
H435	H	0.465796	0.477301	0.500123
H436	H	0.715796	0.727301	0.750123
H437	H	0.378846	0.170964	0.000025
H438	H	0.628846	0.420964	0.250025
H439	H	0.878846	0.670964	0.500025
H440	H	1.128846	0.920964	0.750025
H441	H	0.526850	-0.352065	-0.000032
H442	H	0.776850	-0.102065	0.249968
H443	H	1.026850	0.147935	0.499968
H444	H	1.276850	0.397935	0.749968
H445	H	0.580747	-0.193677	0.000103
H446	H	0.830747	0.056323	0.250103
H447	H	1.080747	0.306323	0.500103
H448	H	1.330747	0.556323	0.750103
H449	H	0.742198	0.129798	0.370368
H450	H	0.992198	0.379798	0.620368
H451	H	1.242198	0.629798	0.870368
H452	H	1.492198	0.879798	1.120368
H453	H	0.582043	-0.085909	0.000093
H454	H	0.832043	0.164091	0.250093
H455	H	1.082043	0.414091	0.500093
H456	H	1.332043	0.664091	0.750093
H457	H	0.246104	-0.071347	0.000133
H458	H	0.496104	0.178653	0.250133
H459	H	0.746104	0.428653	0.500133
H460	H	0.996104	0.678653	0.750133
H461	H	0.632408	0.165068	0.629307
H462	H	0.882408	0.415068	0.879307
H463	H	1.132408	0.665068	1.129307
H464	H	1.382408	0.915068	1.379307
H465	H	0.615699	0.005254	0.372979
H466	H	0.865699	0.255254	0.622979
H467	H	1.115699	0.505254	0.872979
H468	H	1.365699	0.755254	1.122979
H469	H	0.581103	0.113711	0.372088
H470	H	0.831103	0.363711	0.622088
H471	H	1.081103	0.613711	0.872088
H472	H	1.331103	0.863711	1.122088
H473	H	0.580863	0.113666	0.627517
H474	H	0.830863	0.363666	0.877517
H475	H	1.080863	0.613666	1.127517
H476	H	1.330863	0.863666	1.377517
H477	H	0.206274	0.220904	0.000053
H478	H	0.456274	0.470904	0.250053
H479	H	0.706274	0.720904	0.500053
H480	H	0.956274	0.970904	0.750053
H481	H	0.691533	-0.021648	0.370764
H482	H	0.941533	0.228352	0.620764
H483	H	1.191533	0.478352	0.870764
H484	H	1.441533	0.728352	1.120764
H485	H	0.741688	0.130627	0.625479
H486	H	0.991688	0.380627	0.875479
H487	H	1.241688	0.630627	1.125479
H488	H	1.491688	0.880627	1.375479
