data_functionalizedCrystal
_audit_creation_method	'MofGen! by Chris Wilmer'
_symmetry_space_group_name_H-M	'P1'
_symmetry_Int_Tables_number	1
_symmetry_cell_setting	triclinic
loop_
_symmetry_equiv_pos_as_xyz
  x,y,z
_cell_length_a	19.288864
_cell_length_b	9.730223
_cell_length_c	19.288865
_cell_angle_alpha	89.993453
_cell_angle_beta	96.863755
_cell_angle_gamma	90.014040
loop_
_atom_site_label
_atom_site_type_symbol
_atom_site_fract_x
_atom_site_fract_y
_atom_site_fract_z
O1	O	0.921344	0.114746	-0.086645
O2	O	0.719084	0.114654	-0.098333
O3	O	0.826058	0.114676	0.008641
O4	O	0.814370	0.114725	-0.193619
O5	O	0.826057	-0.113904	0.008639
O6	O	0.719082	-0.113926	-0.098336
O7	O	0.921343	-0.113834	-0.086647
Zn8	Zn	0.820213	-0.150172	-0.092492
Zn9	Zn	0.820214	0.150992	-0.092489
O10	O	0.814368	-0.113855	-0.193622
C11	C	0.693207	0.000352	-0.097959
C12	C	0.616103	0.000316	-0.096830
N13	N	0.820216	-0.355708	-0.092494
C14	C	0.571407	0.000353	-0.159598
C15	C	0.498960	0.000368	-0.158537
C16	C	0.471212	0.000373	-0.094705
C17	C	0.515918	0.000329	-0.031929
C18	C	0.588364	0.000300	-0.032991
C19	C	0.362951	0.080489	-0.044525
C20	C	0.290506	0.080526	-0.043465
C21	C	0.247767	0.000456	-0.091425
C22	C	0.277479	-0.079634	-0.140457
C23	C	0.349924	-0.079663	-0.141520
C24	C	0.392658	0.000404	-0.093546
C25	C	0.124514	0.000507	-0.153047
C26	C	0.052066	0.000513	-0.151984
C27	C	0.069026	0.000488	-0.025374
C28	C	0.141473	0.000468	-0.026439
C29	C	0.169212	0.000484	-0.090278
C30	C	0.867597	-0.427625	-0.045142
C31	C	0.867595	-0.571508	-0.045133
C32	C	0.772830	-0.571545	-0.139836
C33	C	0.772829	-0.427664	-0.139841
C34	C	0.914984	-0.355668	0.002205
C35	C	0.962369	-0.427585	0.049561
C36	C	0.962367	-0.571468	0.049569
C37	C	0.914980	-0.643434	0.002222
C38	C	0.947220	0.000471	-0.087022
C39	C	1.024324	0.000517	-0.088151
C40	C	0.825682	0.000382	0.034516
C41	C	0.824553	0.000369	0.111620
N42	N	0.820216	0.356529	-0.092481
C43	C	0.814745	0.000442	-0.219497
C44	C	0.815874	0.000464	-0.296601
C45	C	0.887321	0.000391	0.156316
C46	C	0.886260	0.000412	0.228763
C47	C	0.822428	0.000384	0.256511
C48	C	0.759652	0.000370	0.211805
C49	C	0.760714	0.000362	0.139359
C50	C	0.772248	-0.079706	0.364797
C51	C	0.771188	-0.079707	0.437242
C52	C	0.819148	0.000413	0.479956
C53	C	0.868180	0.080516	0.450219
C54	C	0.869242	0.080509	0.377774
C55	C	0.821269	0.000393	0.335065
C56	C	0.880770	0.000460	0.603209
C57	C	0.879707	0.000490	0.675657
C58	C	0.753097	0.000434	0.658697
C59	C	0.754162	0.000418	0.586250
C60	C	0.818000	0.000424	0.558511
H61	H	0.593987	0.000368	-0.211580
H62	H	0.731260	-0.144923	0.461447
C63	C	0.485399	0.000343	0.038285
H64	H	0.435851	0.000381	0.029928
H65	H	0.500735	-0.079377	0.064122
H66	H	0.500776	0.080055	0.064119
C67	C	0.914986	-0.197403	0.002194
H68	H	0.879984	-0.164877	-0.032793
H69	H	0.905629	-0.164849	0.046563
H70	H	0.959350	-0.164844	-0.007213
H71	H	0.734247	-0.369109	-0.178399
C72	C	0.449785	0.000429	-0.227584
H73	H	0.476682	0.000446	-0.265755
H74	H	0.421147	-0.079262	-0.229810
H75	H	0.421196	0.080170	-0.229788
C76	C	1.014492	-0.348429	0.101635
H77	H	1.007714	-0.252438	0.094844
H78	H	1.007104	-0.372007	0.147978
H79	H	1.060822	-0.371996	0.094200
H80	H	0.266320	0.145746	-0.003543
H81	H	1.000945	-0.630021	0.088132
H82	H	0.937375	0.000435	0.265162
C83	C	0.002899	0.000554	-0.221032
H84	H	0.029799	0.000572	-0.259201
H85	H	-0.025732	-0.079146	-0.223256
H86	H	-0.025696	0.080286	-0.223243
H87	H	0.914978	-0.760593	0.002237
H88	H	0.374113	-0.144879	-0.181441
C89	C	0.230475	-0.167708	-0.193220
H90	H	0.183074	-0.156233	-0.185563
H91	H	0.236199	-0.139538	-0.239347
H92	H	0.243145	-0.261693	-0.187291
H93	H	0.624756	0.000271	0.018124
C94	C	0.155031	0.000510	-0.223265
H95	H	0.118032	0.000515	-0.260497
H96	H	0.182955	0.080214	-0.226311
H97	H	0.182923	-0.079218	-0.226311
H98	H	0.734251	-0.630149	-0.178385
C99	C	0.957540	0.000422	0.125806
H100	H	0.994771	0.000452	0.162806
H101	H	0.960589	-0.079285	0.097901
H102	H	0.960585	0.080147	0.097895
H103	H	0.701123	0.000418	0.681288
H104	H	0.703049	0.000392	0.549857
C105	C	0.923166	0.168629	0.345064
H106	H	0.951576	0.216358	0.380874
H107	H	0.951625	0.110910	0.320561
H108	H	0.899557	0.233011	0.313583
C109	C	0.920935	0.168661	0.497195
H110	H	0.913276	0.157212	0.544599
H111	H	0.967066	0.140530	0.491484
H112	H	0.914998	0.262632	0.484491
H113	H	0.046435	0.000578	0.026600
H114	H	0.177866	0.000445	0.024674
C115	C	0.409957	0.168585	0.008230
H116	H	0.381886	0.216304	0.037574
H117	H	0.441966	0.110848	0.035864
H118	H	0.435010	0.232974	-0.016209
H119	H	0.733191	-0.144956	0.330024
C120	C	0.950988	0.000483	0.572692
H121	H	0.988220	0.000519	0.609691
H122	H	0.954035	-0.079232	0.544792
H123	H	0.954033	0.080199	0.544775
C124	C	0.948753	0.000530	0.724826
H125	H	0.938979	0.000554	0.771946
H126	H	0.974938	-0.079172	0.716450
H127	H	0.974936	0.080259	0.716425
H128	H	0.707679	0.000350	0.234401
H129	H	0.709599	0.000344	0.102967
