data_functionalizedCrystal
_audit_creation_method	'MofGen! by Chris Wilmer'
_symmetry_space_group_name_H-M	'P1'
_symmetry_Int_Tables_number	1
_symmetry_cell_setting	triclinic
loop_
_symmetry_equiv_pos_as_xyz
  x,y,z
_cell_length_a	12.759400
_cell_length_b	12.759401
_cell_length_c	12.759393
_cell_angle_alpha	90.019559
_cell_angle_beta	89.971073
_cell_angle_gamma	89.987567
loop_
_atom_site_label
_atom_site_type_symbol
_atom_site_fract_x
_atom_site_fract_y
_atom_site_fract_z
Zn1	Zn	-0.418256	-1.606258	-0.594030
Zn2	Zn	-0.593975	-1.606154	-0.418359
Zn3	Zn	-0.418305	-1.430560	-0.418367
Zn4	Zn	-0.593888	-1.430550	-0.593997
O5	O	-0.506106	-1.518381	-0.506188
O6	O	-0.441582	-1.753266	-0.570738
O7	O	-0.570729	-1.582822	-0.271338
O8	O	-0.271278	-1.453915	-0.441686
O9	O	-0.570682	-1.753189	-0.441673
O10	O	-0.271242	-1.583000	-0.570746
O11	O	-0.441665	-1.453814	-0.271344
O12	O	-0.441580	-1.283538	-0.441654
O13	O	-0.570533	-1.453898	-0.741022
O14	O	-0.570581	-1.283531	-0.570688
O15	O	-0.441497	-1.582990	-0.741047
O16	O	-0.740985	-1.582812	-0.441640
O17	O	-0.740921	-1.453797	-0.570681
C18	C	-0.506077	-1.245413	-0.506169
C19	C	-0.506090	-1.128637	-0.506185
C20	C	-0.573366	-1.073798	-0.573262
C21	C	-0.573375	-0.964074	-0.573271
C22	C	-0.438830	-0.964037	-0.439119
C23	C	-0.438816	-1.073759	-0.439116
C24	C	-0.651048	-1.073819	-0.650710
C25	C	-0.651057	-0.964095	-0.650720
C26	C	-0.779073	-1.518320	-0.506179
C27	C	-0.895850	-1.518391	-0.506210
C28	C	-0.950717	-1.451198	-0.573348
C29	C	-1.060441	-1.451254	-0.573358
C30	C	-1.060421	-1.585704	-0.439088
C31	C	-0.950699	-1.585642	-0.439074
C32	C	-0.950729	-1.373577	-0.650871
C33	C	-1.060453	-1.373633	-0.650881
C34	C	-0.232073	-1.518470	-0.506220
C35	C	-0.115296	-1.518508	-0.506234
C36	C	-0.506000	-1.518454	-0.780222
C37	C	-0.505955	-1.518486	-0.896998
C38	C	-0.506127	-0.792414	-0.506203
C39	C	-0.506113	-0.909191	-0.506198
C40	C	-0.438759	-1.585713	-0.951875
C41	C	-0.438722	-1.585738	-1.061599
C42	C	-0.573083	-1.451305	-1.061560
C43	C	-0.573115	-1.451276	-0.951838
C44	C	-0.361190	-1.663330	-0.951898
C45	C	-0.361152	-1.663355	-1.061622
C46	C	-0.506136	-1.518368	-0.233221
C47	C	-0.505885	-1.518540	-0.116445
H48	H	-0.728301	-1.107834	-0.621430
H49	H	-1.105093	-1.640457	-0.384429
H50	H	-0.906028	-1.640346	-0.384395
F51	F	-0.260150	-1.625183	-1.106126
F52	F	-0.254843	-1.634876	-0.912994
H53	H	-0.390361	-1.740602	-0.917865
F54	F	-0.389627	-1.769713	-1.100553
H55	H	-0.622012	-0.930097	-0.728070
F56	F	-0.367196	-1.132118	-0.367740
H57	H	-0.384057	-0.919342	-0.384514
F58	F	-0.911906	-1.267216	-0.622294
H59	H	-0.732406	-0.934300	-0.628791
H60	H	-0.916625	-1.402666	-0.728184
H61	H	-1.094561	-1.296370	-0.621672
H62	H	-0.629350	-1.103627	-0.732117
F63	F	-1.099292	-1.402111	-0.757257
H64	H	-0.627829	-1.396529	-0.907162
H65	H	-0.627761	-1.396583	-1.106224
