data_functionalizedCrystal
_audit_creation_method	'MofGen! by Chris Wilmer'
_symmetry_space_group_name_H-M	'P1'
_symmetry_Int_Tables_number	1
_symmetry_cell_setting	triclinic
loop_
_symmetry_equiv_pos_as_xyz
  x,y,z
_cell_length_a	19.805407
_cell_length_b	14.908520
_cell_length_c	19.805399
_cell_angle_alpha	86.729391
_cell_angle_beta	90.019573
_cell_angle_gamma	93.320773
loop_
_atom_site_label
_atom_site_type_symbol
_atom_site_fract_x
_atom_site_fract_y
_atom_site_fract_z
Zn1	Zn	1.019204	-0.359181	0.398269
Zn2	Zn	1.012594	-0.510047	0.291612
Zn3	Zn	0.906017	-0.359206	0.285095
Zn4	Zn	0.899460	-0.509999	0.404757
O5	O	0.959319	-0.434608	0.344934
O6	O	1.113043	-0.379203	0.384134
O7	O	0.998435	-0.490068	0.196033
O8	O	0.926542	-0.232958	0.294665
O9	O	1.108187	-0.490044	0.305773
O10	O	1.009699	-0.232939	0.377814
O11	O	0.920133	-0.379246	0.191244
O12	O	0.810431	-0.379199	0.300956
O13	O	0.915366	-0.489962	0.498612
O14	O	0.805614	-0.489986	0.388871
O15	O	1.003341	-0.379157	0.493845
O16	O	0.992077	-0.636286	0.312064
O17	O	0.908957	-0.636250	0.395191
C18	C	0.783463	-0.434591	0.344911
C19	C	0.708231	-0.434605	0.344918
C20	C	0.670392	-0.492379	0.390629
C21	C	0.599704	-0.492380	0.390639
C22	C	0.566855	-0.434612	0.344934
C23	C	0.604699	-0.376832	0.299220
C24	C	0.675386	-0.376827	0.299214
C25	C	0.319625	-0.376852	0.299244
C26	C	0.248932	-0.376864	0.299252
C27	C	0.243942	-0.492406	0.390668
C28	C	0.314629	-0.492400	0.390662
C29	C	0.352467	-0.434618	0.344952
C30	C	0.429116	-0.434615	0.344943
C31	C	0.490208	-0.434618	0.344939
C32	C	0.949107	-0.669002	0.355053
C33	C	0.944800	-0.769277	0.359405
C34	C	1.023348	-0.957679	0.281093
C35	C	1.019304	-1.051896	0.285180
C36	C	0.932671	-1.051929	0.371669
C37	C	0.936715	-0.957712	0.367582
C38	C	0.982055	-0.910590	0.322292
C39	C	0.986095	-0.816372	0.318202
C40	C	0.899466	-0.816407	0.404694
C41	C	0.895421	-0.910624	0.408781
C42	C	1.135861	-0.434626	0.344957
C43	C	1.211092	-0.434634	0.344967
C44	C	0.959359	-0.434551	0.521474
C45	C	0.959376	-0.434527	0.596705
C46	C	0.969589	-0.199299	0.334789
C47	C	0.973966	-0.099024	0.330466
C48	C	0.959320	-0.434600	0.169077
C49	C	0.959445	-0.434370	0.093836
C50	C	1.005186	-0.376828	0.629568
C51	C	1.005194	-0.376802	0.700255
C52	C	0.959395	-0.434480	0.738078
C53	C	0.913581	-0.492182	0.705210
C54	C	0.913570	-0.492203	0.634524
C55	C	0.913622	-0.492098	0.990280
C56	C	0.913638	-0.492074	1.060971
C57	C	1.005247	-0.376697	1.056011
C58	C	1.005236	-0.376718	0.985325
C59	C	0.959419	-0.434416	0.952463
C60	C	0.959410	-0.434442	0.875816
C61	C	0.959407	-0.434459	0.814725
H62	H	0.697132	-0.539423	0.427846
N63	N	0.854921	-0.765615	0.449129
H64	H	0.884084	-0.726464	0.478826
H65	H	0.825593	-0.809823	0.478394
N66	N	0.569268	-0.314542	0.249914
H67	H	0.541760	-0.272785	0.275662
H68	H	0.538376	-0.351238	0.220105
N69	N	1.054610	-0.314564	0.735688
H70	H	1.084382	-0.351216	0.766605
H71	H	1.028889	-0.272748	0.763166
N72	N	0.350062	-0.554701	0.439960
H73	H	0.377561	-0.596457	0.414203
H74	H	0.315327	-0.591241	0.468911
N75	N	0.203129	-0.554720	0.439979
H76	H	0.234666	-0.591317	0.468928
H77	H	0.171972	-0.596422	0.414178
H78	H	0.876288	-0.539141	0.736011
H79	H	0.895762	-1.090312	0.408547
N80	N	0.846522	-0.961450	0.457628
H81	H	0.850225	-1.028282	0.453967
H82	H	0.798894	-0.945047	0.446329
H83	H	0.350424	-0.329809	0.262018
N84	N	1.054663	-0.314453	1.091450
H85	H	1.084433	-0.351108	1.122366
H86	H	1.028940	-0.272639	1.118929
H87	H	1.060261	-0.919312	0.244211
N88	N	0.864155	-0.554426	0.599075
H89	H	0.835142	-0.590962	0.633760
H90	H	0.889874	-0.596190	0.571548
H91	H	1.052931	-1.090232	0.251633
H92	H	0.222189	-0.329817	0.262033
H93	H	1.042483	-0.329862	0.598777
H94	H	0.706194	-0.329777	0.261995
N95	N	1.034993	-0.765544	0.269356
H96	H	1.060541	-0.809674	0.243879
H97	H	1.067977	-0.726394	0.295242
N98	N	1.054636	-0.314513	0.944530
H99	H	1.083658	-0.277955	0.976076
H100	H	1.028902	-0.272770	0.913397
N101	N	0.864237	-0.554278	1.101775
H102	H	0.871925	-0.618745	1.092257
H103	H	0.816508	-0.540181	1.088848
N104	N	0.558890	-0.554706	0.439932
H105	H	0.590426	-0.591309	0.468879
H106	H	0.527739	-0.596401	0.414120
N107	N	0.864188	-0.554296	0.954840
H108	H	0.835172	-0.590822	0.989528
H109	H	0.889886	-0.596070	0.927302
