data_functionalizedCrystal
_audit_creation_method	'MofGen! by Chris Wilmer'
_symmetry_space_group_name_H-M	'P1'
_symmetry_Int_Tables_number	1
_symmetry_cell_setting	triclinic
loop_
_symmetry_equiv_pos_as_xyz
  x,y,z
_cell_length_a	15.944493
_cell_length_b	15.944551
_cell_length_c	11.892095
_cell_angle_alpha	86.111491
_cell_angle_beta	93.897855
_cell_angle_gamma	83.486891
loop_
_atom_site_label
_atom_site_type_symbol
_atom_site_fract_x
_atom_site_fract_y
_atom_site_fract_z
O1	O	1.119924	0.102730	0.093991
O2	O	1.619924	0.602730	0.593991
O3	O	0.875368	0.116137	0.093996
O4	O	1.375368	0.616137	0.593996
O5	O	1.004324	-0.012842	0.093983
O6	O	1.504324	0.487158	0.593983
O7	O	0.990969	0.231709	0.094004
O8	O	1.490969	0.731709	0.594004
O9	O	0.993572	-0.002105	-0.094023
O10	O	1.493572	0.497895	0.405977
O11	O	0.864616	0.126874	-0.094010
O12	O	1.364616	0.626874	0.405990
O13	O	1.109172	0.113468	-0.094016
O14	O	1.609172	0.613468	0.405984
Zn15	Zn	0.985187	0.121876	-0.123863
Zn16	Zn	1.485187	0.621876	0.376137
Zn17	Zn	0.999353	0.107729	0.123844
Zn18	Zn	1.499353	0.607729	0.623844
O19	O	0.980216	0.242447	-0.094003
O20	O	1.480216	0.742447	0.405997
C21	C	0.838697	0.120958	-0.000006
C22	C	1.338697	0.620958	0.499994
C23	C	0.745449	0.119315	-0.000004
C24	C	1.245449	0.619315	0.499996
C25	C	0.509690	0.195235	0.000003
C26	C	1.009690	0.695235	0.500003
C27	C	0.453829	0.159588	-0.092702
C28	C	0.953829	0.659588	0.407298
C29	C	0.574728	0.116271	-0.000007
C30	C	1.074728	0.616271	0.499993
C31	C	0.464435	0.148983	0.092657
C32	C	0.964435	0.648983	0.592657
C33	C	0.409818	0.113336	-0.000004
C34	C	0.909818	0.613336	0.499996
C35	C	0.520092	0.080650	-0.092788
C36	C	1.020092	0.580650	0.407212
C37	C	0.530705	0.070052	0.092654
C38	C	1.030705	0.570052	0.592654
C39	C	0.474876	0.034349	-0.000074
C40	C	0.974876	0.534349	0.499926
C41	C	0.669728	0.117964	-0.000009
C42	C	1.169728	0.617964	0.499991
C43	C	0.314821	0.111637	-0.000010
C44	C	0.814821	0.611637	0.499990
C45	C	0.998393	-0.038767	-0.000020
C46	C	1.498393	0.461233	0.499980
C47	C	0.996731	-0.132013	-0.000021
C48	C	1.496731	0.367987	0.499979
C49	C	0.912825	-0.346853	-0.000003
C50	C	1.412825	0.153147	0.499997
C51	C	0.946487	-0.402584	-0.092703
C52	C	1.446487	0.097416	0.407297
C53	C	0.993724	-0.302739	-0.000012
C54	C	1.493724	0.197261	0.499988
C55	C	0.957107	-0.413154	0.092657
C56	C	1.457107	0.086846	0.592657
C57	C	0.990814	-0.467651	0.000001
C58	C	1.490814	0.032349	0.500001
C59	C	1.027404	-0.357237	-0.092788
C60	C	1.527404	0.142763	0.407212
C61	C	1.038017	-0.367805	0.092655
C62	C	1.538017	0.132195	0.592655
C63	C	1.071737	-0.423518	-0.000067
C64	C	1.571737	0.076482	0.499933
C65	C	0.995398	-0.207736	-0.000021
C66	C	1.495398	0.292264	0.499979
C67	C	0.989146	-0.562652	0.000002
C68	C	1.489146	-0.062652	0.500002
C69	C	1.145843	0.108647	-0.000011
C70	C	1.645843	0.608647	0.499989
C71	C	1.239092	0.110289	-0.000005
C72	C	1.739092	0.610289	0.499995
C73	C	0.986147	0.268372	0.000003
C74	C	1.486147	0.768372	0.500003
C75	C	0.987810	0.361617	0.000011
C76	C	1.487810	0.861617	0.500011
N77	N	0.975525	0.131530	-0.292916
N78	N	1.475525	0.631530	0.207084
C79	C	1.076255	0.030839	-0.529574
C80	C	1.576255	0.530839	-0.029574
C81	C	1.069507	0.037594	-0.647915
C82	C	1.569507	0.537594	-0.147915
C83	C	0.955279	0.151789	-0.647942
C84	C	1.455279	0.651789	-0.147942
C85	C	0.962026	0.145035	-0.529601
C86	C	1.462026	0.645035	-0.029601
C87	C	1.022517	0.084558	-0.470421
C88	C	1.522517	0.584558	0.029579
C89	C	1.029268	0.077809	-0.352078
C90	C	1.529268	0.577809	0.147922
C91	C	0.915036	0.192000	-0.352106
C92	C	1.415036	0.692000	0.147894
C93	C	0.908289	0.198754	-0.470447
C94	C	1.408289	0.698754	0.029553
N95	N	1.009022	0.098068	0.292897
N96	N	1.509022	0.598068	0.792897
H97	H	0.564133	0.032253	0.171027
H98	H	1.064133	0.532253	0.671027
H99	H	0.907788	-0.418210	-0.171071
H100	H	1.407788	0.081790	0.328929
H101	H	1.076687	-0.352158	0.171027
H102	H	1.576687	0.147842	0.671027
F103	F	1.126700	-0.019584	-0.710867
F104	F	1.626700	0.480416	-0.210867
H105	H	0.459407	-0.033719	-0.000133
H106	H	0.959407	0.466281	0.499867
H107	H	0.906023	0.201022	-0.696141
H108	H	1.406023	0.701022	-0.196141
H109	H	0.439978	0.177872	0.171021
H110	H	0.939978	0.677872	0.671021
H111	H	0.859036	0.247991	-0.518645
H112	H	1.359036	0.747991	-0.018645
F113	F	0.551903	0.042946	-0.195334
F114	F	1.051903	0.542946	0.304666
F115	F	0.825049	-0.303294	-0.000116
F116	F	1.325049	0.196706	0.499884
H117	H	0.927362	-0.437700	0.171032
H118	H	1.427362	0.062300	0.671032
H119	H	1.057105	-0.332773	-0.171244
H120	H	1.557105	0.167227	0.328756
H121	H	0.871282	0.235744	-0.303930
H122	H	1.371282	0.735744	0.196070
F123	F	1.159579	-0.466875	-0.000134
F124	F	1.659579	0.033125	0.499866
H125	H	0.420410	0.197412	-0.171071
H126	H	0.920410	0.697412	0.328929
F127	F	1.093649	0.013447	-0.289097
F128	F	1.593649	0.513447	0.210903
H129	H	0.525309	0.263259	-0.000078
H130	H	1.025309	0.763259	0.499922
F131	F	1.140640	-0.033516	-0.466590
F132	F	1.640640	0.466484	0.033410
