data_functionalizedCrystal
_audit_creation_method	'MofGen! by Chris Wilmer'
_symmetry_space_group_name_H-M	'P1'
_symmetry_Int_Tables_number	1
_symmetry_cell_setting	triclinic
loop_
_symmetry_equiv_pos_as_xyz
  x,y,z
_cell_length_a	14.446369
_cell_length_b	23.196402
_cell_length_c	23.196402
_cell_angle_alpha	60.000268
_cell_angle_beta	89.999939
_cell_angle_gamma	60.004351
loop_
_atom_site_label
_atom_site_type_symbol
_atom_site_fract_x
_atom_site_fract_y
_atom_site_fract_z
Zr1	Zr	-0.121461	0.631002	0.555379
O2	O	-0.269249	0.751261	0.463332
O3	O	-0.076162	0.510739	0.583594
O4	O	-0.269264	0.630998	0.583598
O5	O	0.076182	0.631008	0.463329
O6	O	-0.269269	0.630999	0.678468
O7	O	-0.076147	0.631002	0.463329
O8	O	0.076155	0.415878	0.678461
O9	O	-0.269242	0.846128	0.463335
O10	O	-0.056839	0.560208	0.666431
O11	O	0.056846	0.560211	0.595630
O12	O	-0.170507	0.701800	0.595634
O13	O	-0.056822	0.701802	0.524834
Zr14	Zr	0.121477	0.631013	0.706686
Zr15	Zr	-0.121469	0.631005	0.706686
Zr16	Zr	0.121486	0.631011	0.555379
Zr17	Zr	-0.121451	0.782305	0.555383
Zr18	Zr	0.121467	0.479710	0.706681
O19	O	0.076178	0.751276	0.678471
O20	O	-0.269261	0.751264	0.678471
O21	O	0.076190	0.751273	0.463332
O22	O	0.269265	0.510754	0.798732
O23	O	-0.076174	0.510742	0.798733
O24	O	0.269277	0.510751	0.583594
O25	O	-0.076166	0.631008	0.798736
O26	O	0.269280	0.631017	0.678467
O27	O	0.269286	0.631016	0.583597
O28	O	0.076163	0.631013	0.798736
O29	O	-0.269249	0.846130	0.583604
O30	O	0.269265	0.415885	0.678461
O31	O	0.269259	0.415887	0.798730
O32	O	0.076148	0.415880	0.798730
O33	O	-0.076132	0.846135	0.463335
O34	O	-0.076139	0.846137	0.583603
O35	O	0.170523	0.560216	0.666431
O36	O	0.056838	0.560213	0.737231
O37	O	-0.056830	0.701805	0.666435
O38	O	0.056856	0.701807	0.595634
C39	C	-0.000005	0.441751	0.631027
C40	C	-0.000009	0.377519	0.631025
C41	C	-0.059356	0.347348	0.667978
C42	C	-0.059347	0.286987	0.667985
C43	C	-0.000006	0.256811	0.631025
C44	C	0.059354	0.286987	0.594071
C45	C	0.059352	0.347341	0.594072
C46	C	-0.008472	0.194781	0.569121
C47	C	-0.008478	0.134431	0.569119
C48	C	0.000005	0.070656	0.631026
C49	C	0.008472	0.067246	0.692935
C50	C	0.008471	0.127600	0.692935
C51	C	0.000003	0.191367	0.631022
C52	C	-0.059334	-0.024967	0.667989
C53	C	-0.059317	-0.085332	0.667998
C54	C	0.059376	-0.085325	0.594078
C55	C	0.059366	-0.024966	0.594076
C56	C	0.000005	0.005212	0.631030
C57	C	-0.303881	0.630997	0.631033
C58	C	-0.407018	0.630994	0.631033
C59	C	-0.482010	0.541701	0.675906
C60	C	-0.374681	0.541641	0.675712
C61	C	-0.481571	0.675350	0.554104
C62	C	-0.588430	0.674783	0.554350
C63	C	-0.590009	0.676624	0.662466
C64	C	-0.481338	0.674941	0.664023
C65	C	0.303898	0.631018	0.631032
C66	C	0.407035	0.631021	0.631032
C67	C	0.000019	0.631005	0.441771
C68	C	0.000022	0.631004	0.377537
C69	C	0.000021	0.820264	0.631038
C70	C	0.000026	0.884496	0.631039
C71	C	0.059345	0.557096	0.384317
C72	C	0.059349	0.557095	0.323963
C73	C	0.000010	0.631006	0.256829
C74	C	-0.059315	0.704923	0.250052
C75	C	-0.059309	0.704922	0.310406
C76	C	-0.099393	0.687629	0.132902
C77	C	-0.099402	0.687627	0.072550
C78	C	-0.000008	0.631012	0.070675
C79	C	0.099395	0.574385	0.129166
C80	C	0.099401	0.574384	0.189520
C81	C	-0.000003	0.631015	0.191381
C82	C	0.059325	0.557098	0.012014
C83	C	0.059333	0.557100	-0.048342
C84	C	-0.059343	0.704930	-0.122254
C85	C	-0.059340	0.704926	-0.061897
C86	C	-0.000009	0.631008	0.005235
C87	C	-0.000002	0.631010	0.820294
C88	C	-0.000006	0.631011	0.884527
C89	C	-0.000015	0.441754	0.820289
C90	C	-0.000023	0.377523	0.884521
C91	C	0.303885	0.441762	0.631027
C92	C	0.407017	0.377533	0.631025
C93	C	0.303874	0.441765	0.820288
C94	C	0.407003	0.377537	0.884520
C95	C	-0.303858	0.820251	0.441776
C96	C	-0.406987	0.884478	0.377545
C97	C	0.000032	0.820261	0.441776
C98	C	0.000040	0.884492	0.377544
C99	C	-0.303868	0.820253	0.631038
C100	C	-0.407001	0.884482	0.631040
C101	C	-0.059376	0.347357	0.877727
C102	C	-0.059406	0.287014	0.938074
C103	C	-0.000077	0.256834	1.005214
C104	C	0.059278	0.287006	1.012005
C105	C	0.059300	0.347352	0.951659
C106	C	0.514798	0.347374	0.667981
C107	C	0.611712	0.287033	0.667977
C108	C	0.600842	0.256849	0.631020
C109	C	0.493050	0.287014	0.594059
C110	C	0.396139	0.347358	0.594060
C111	C	0.396091	0.347374	0.951648
C112	C	0.492983	0.287034	1.012006
C113	C	0.600785	0.256854	1.005235
C114	C	0.611695	0.287024	0.938101
C115	C	0.514805	0.347367	0.877744
C116	C	-0.396075	0.914648	0.310417
C117	C	-0.492967	0.975007	0.250059
C118	C	-0.600769	1.005190	0.256830
C119	C	-0.611679	0.975017	0.323964
C120	C	-0.514788	0.914663	0.384321
C121	C	0.059382	0.914664	0.384337
C122	C	0.059386	0.975024	0.323991
C123	C	0.000053	1.005207	0.256851
C124	C	-0.059297	0.975032	0.250060
C125	C	-0.059306	0.914677	0.310406
C126	C	-0.396095	0.914647	0.668004
C127	C	-0.492990	0.974988	0.668019
C128	C	-0.600790	1.005167	0.631066
C129	C	-0.611694	0.974996	0.594101
C130	C	-0.514800	0.914652	0.594090
H131	H	0.107692	-0.109893	0.563985
H132	H	0.523670	0.371943	0.698076
H133	H	0.699481	0.262442	0.932599
H134	H	-0.107666	-0.000397	0.698082
H135	H	0.523705	0.371918	0.823088
H136	H	0.107581	0.262424	1.066678
H137	H	0.679763	0.207713	0.631025
H138	H	0.107650	0.496907	0.438975
H139	H	0.000070	1.054351	0.207719
H140	H	-0.107604	0.999615	0.195387
H141	H	0.699471	0.262479	0.698077
H142	H	-0.180343	0.733734	0.024931
H143	H	-0.523686	0.890099	0.438977
H144	H	0.484080	0.262476	1.066664
H145	H	0.107688	-0.000397	0.563983
H146	H	-0.000103	0.207695	1.054346
H147	H	-0.107627	0.890112	0.304865
H148	H	-0.308327	0.890084	0.698095
H149	H	0.107719	0.999582	0.329534
H150	H	-0.699477	0.999578	0.564015
H151	H	-0.015378	0.137217	0.518709
H152	H	-0.107688	0.371915	0.698070
H153	H	-0.667003	0.740316	0.519095
H154	H	-0.484090	0.999547	0.698120
H155	H	0.015394	0.015313	0.743347
H156	H	0.484216	0.262429	0.563970
H157	H	0.679671	0.207719	1.054387
H158	H	-0.308305	0.890077	0.304891
H159	H	0.107705	0.890094	0.439000
H160	H	-0.679678	1.054304	0.631081
H161	H	-0.107675	0.262416	0.698077
H162	H	0.015368	0.124819	0.743343
H163	H	-0.107639	-0.109902	0.698093
H164	H	-0.107703	0.371929	0.823065
H165	H	-0.015403	0.246716	0.518702
H166	H	0.107670	0.262414	0.563980
H167	H	0.308382	0.371906	0.563968
H168	H	-0.523696	0.890098	0.563987
H169	H	0.308322	0.371937	0.957174
H170	H	0.107658	0.496909	0.329484
H171	H	0.180340	0.528279	0.237140
H172	H	0.180324	0.528270	0.127650
H173	H	0.107679	0.371908	0.563979
H174	H	-0.699463	0.999600	0.329468
H175	H	-0.429969	0.644540	0.528761
H176	H	-0.484061	0.999564	0.195401
H177	H	-0.320413	0.506840	0.732360
H178	H	-0.180332	0.733745	0.134414
H179	H	-0.594131	0.648041	0.718260
H180	H	-0.480977	0.506818	0.654303
H181	H	-0.320896	0.506612	0.653911
H182	H	-0.479676	0.506645	0.732701
H183	H	-0.588161	0.643259	0.529185
H184	H	-0.508795	0.741048	0.519217
H185	H	-0.679654	1.054334	0.207677
H186	H	-0.506847	0.740128	0.634737
H187	H	-0.429926	0.642593	0.720701
H188	H	-0.107614	0.765108	0.304880
H189	H	-0.668202	0.742430	0.629925
H190	H	0.107660	0.496910	0.066676
H191	H	-0.107659	0.765109	-0.176914
H192	H	-0.107655	0.765109	-0.067421
H193	H	0.107648	0.496914	-0.042816
H194	H	-0.107629	0.765101	0.195387
H195	H	0.107639	0.371906	0.957200
H196	H	-0.107739	0.262455	0.932531
