data_functionalizedCrystal
_audit_creation_method	'MofGen! by Chris Wilmer'
_symmetry_space_group_name_H-M	'P1'
_symmetry_Int_Tables_number	1
_symmetry_cell_setting	triclinic
loop_
_symmetry_equiv_pos_as_xyz
  x,y,z
_cell_length_a	27.440280
_cell_length_b	17.917603
_cell_length_c	27.440280
_cell_angle_alpha	57.017445
_cell_angle_beta	90.008003
_cell_angle_gamma	63.032973
loop_
_atom_site_label
_atom_site_type_symbol
_atom_site_fract_x
_atom_site_fract_y
_atom_site_fract_z
Zr1	Zr	0.493823	0.818524	-0.088212
O2	O	0.420639	0.974549	-0.170668
O3	O	0.513043	0.662499	-0.059720
O4	O	0.517677	0.818506	-0.166018
O5	O	0.416007	0.818557	0.015823
O6	O	0.597879	0.818491	-0.166008
O7	O	0.416005	0.818542	-0.064369
O8	O	0.589590	0.539424	0.024140
O9	O	0.424296	1.097624	-0.174325
O10	O	0.584978	0.726663	-0.051445
O11	O	0.525125	0.726685	0.008394
O12	O	0.530582	0.910363	-0.116758
O13	O	0.470729	0.910385	-0.056919
Zr14	Zr	0.621739	0.818524	0.039703
Zr15	Zr	0.621737	0.818501	-0.088195
Zr16	Zr	0.493826	0.818547	0.039686
Zr17	Zr	0.499656	1.014815	-0.094045
Zr18	Zr	0.615906	0.622233	0.045536
O19	O	0.602519	0.974549	0.011211
O20	O	0.602516	0.974516	-0.170644
O21	O	0.420643	0.974582	0.011187
O22	O	0.694923	0.662499	0.122159
O23	O	0.694919	0.662466	-0.059696
O24	O	0.513046	0.662532	0.122135
O25	O	0.699556	0.818491	-0.064332
O26	O	0.597885	0.818542	0.117509
O27	O	0.517683	0.818557	0.117499
O28	O	0.699557	0.818506	0.015861
O29	O	0.525971	1.097606	-0.174312
O30	O	0.589592	0.539442	0.125803
O31	O	0.691266	0.539424	0.125816
O32	O	0.691264	0.539405	0.024154
O33	O	0.424298	1.097643	-0.072663
O34	O	0.525973	1.097624	-0.072649
O35	O	0.584981	0.726685	0.068249
O36	O	0.644833	0.726663	0.008410
O37	O	0.590437	0.910363	-0.056903
O38	O	0.530584	0.910385	0.002936
C39	C	0.550485	0.572994	-0.016959
C40	C	0.548009	0.489663	-0.014483
C41	C	0.543485	0.337095	-0.009961
C42	C	0.572076	0.299948	-0.038546
C43	C	0.569559	0.215054	-0.036030
C44	C	0.546001	0.421997	-0.012476
C45	C	0.397781	0.818553	-0.024275
C46	C	0.343478	0.818563	-0.024282
C47	C	0.035173	0.722617	0.009855
C48	C	-0.015845	0.722611	0.009861
O49	O	-0.018085	0.641061	0.038874
N50	N	-0.069757	0.818500	-0.024233
C51	C	-0.072648	0.914400	-0.058329
O52	O	-0.123189	0.995960	-0.087327
C53	C	-0.021630	0.914405	-0.058330
C54	C	0.032280	0.818510	-0.024240
C55	C	0.089081	0.626731	0.043944
C56	C	0.140096	0.626737	0.043937
C57	C	0.137203	0.722630	0.009842
C58	C	0.083295	0.818516	-0.024246
C59	C	-0.024523	1.010304	-0.092423
C60	C	0.026501	1.010300	-0.092421
C61	C	0.080412	0.914406	-0.058330
C62	C	0.131417	0.914416	-0.058348
N63	N	0.185328	0.818527	-0.024254
C64	C	0.188221	0.722635	0.009841
C65	C	-0.179787	0.914383	-0.058322
C66	C	-0.230805	0.914379	-0.058324
C67	C	-0.173998	0.722590	0.009866
C68	C	-0.122980	0.722595	0.009865
C69	C	-0.125876	0.818494	-0.024229
C70	C	0.295354	0.722655	0.009824
C71	C	0.346371	0.722670	0.009813
C72	C	0.289560	0.914458	-0.058375
C73	C	0.238548	0.914444	-0.058367
C74	C	0.241448	0.818534	-0.024262
O75	O	0.133701	0.995924	-0.087344
O76	O	0.238764	0.641088	0.038840
C77	C	0.717781	0.818495	-0.024234
C78	C	0.772084	0.818485	-0.024226
C79	C	0.557778	0.818495	-0.184236
C80	C	0.557777	0.818485	-0.238532
C81	C	0.565077	1.064054	-0.031550
C82	C	0.567553	1.147385	-0.034026
C83	C	0.529392	0.914431	-0.609361
C84	C	0.529394	0.914437	-0.660383
O85	O	0.505264	0.995987	-0.715766
N86	N	0.557788	0.818548	-0.651808
C87	C	0.586186	0.722648	-0.592205
O88	O	0.610337	0.641088	-0.589596
C89	C	0.586187	0.722643	-0.541184
C90	C	0.557787	0.818538	-0.549764
C91	C	0.500995	1.010317	-0.617939
C92	C	0.500992	1.010311	-0.566919
C93	C	0.529387	0.914418	-0.507323
C94	C	0.557784	0.818532	-0.498745
C95	C	0.614589	0.626744	-0.481583
C96	C	0.614588	0.626748	-0.430561
C97	C	0.586188	0.722642	-0.439141
C98	C	0.586176	0.722632	-0.388130
N99	N	0.557783	0.818521	-0.396705
C100	C	0.529388	0.914413	-0.456302
C101	C	0.586182	0.722665	-0.699356
C102	C	0.586178	0.722669	-0.750375
C103	C	0.529387	0.914458	-0.818550
C104	C	0.529388	0.914453	-0.767529
C105	C	0.557789	0.818554	-0.707931
C106	C	0.529384	0.914393	-0.349155
C107	C	0.529382	0.914378	-0.298129
C108	C	0.586175	0.722590	-0.229959
C109	C	0.586175	0.722604	-0.280981
C110	C	0.557779	0.818514	-0.340581
O111	O	0.610296	0.641124	-0.332730
O112	O	0.505247	0.995960	-0.458900
C113	C	0.557784	0.818553	0.135727
C114	C	0.557785	0.818563	0.190023
C115	C	0.710485	0.572965	-0.016938
C116	C	0.762312	0.489625	-0.014455
C117	C	0.550488	0.573023	0.143023
C118	C	0.548013	0.489702	0.199795
C119	C	0.710489	0.572994	0.143044
C120	C	0.762316	0.489663	0.199823
C121	C	0.405074	1.064054	-0.191553
C122	C	0.353246	1.147385	-0.248332
C123	C	0.405077	1.064083	-0.031571
C124	C	0.353250	1.147423	-0.034054
C125	C	0.565074	1.064025	-0.191532
C126	C	0.567549	1.147346	-0.248304
C127	C	0.755406	0.450487	-0.044538
C128	C	0.804098	0.372191	-0.042217
C129	C	0.859695	0.333028	-0.009809
C130	C	0.866600	0.372173	0.020275
C131	C	0.817908	0.450474	0.017950
C132	C	0.578095	0.450573	0.257705
C133	C	0.575767	0.372296	0.311053
C134	C	0.543361	0.333142	0.306490
C135	C	0.513276	0.372278	0.248574
C136	C	0.515600	0.450560	0.195227
C137	C	0.817903	0.450519	0.195252
C138	C	0.866605	0.372232	0.248597
C139	C	0.859720	0.333085	0.306513
C140	C	0.804128	0.372237	0.311083
C141	C	0.755426	0.450528	0.257738
C142	C	0.297660	1.186538	-0.243761
C143	C	0.248958	1.264850	-0.297107
C144	C	0.255843	1.304001	-0.355023
C145	C	0.311436	1.264844	-0.359592
C146	C	0.360136	1.186539	-0.306247
C147	C	0.360156	1.186569	-0.003977
C148	C	0.311465	1.264887	-0.006312
C149	C	0.255868	1.304052	-0.038722
C150	C	0.248963	1.264903	-0.068803
C151	C	0.297654	1.186592	-0.066471
C152	C	0.599960	1.186475	-0.243721
C153	C	0.602297	1.264753	-0.297060
C154	C	0.572219	1.303907	-0.354980
C155	C	0.539807	1.264771	-0.359562
C156	C	0.537473	1.186488	-0.306224
H157	H	0.390267	0.644577	0.037575
H158	H	0.486891	0.340388	0.244868
C159	C	0.540816	0.247019	0.365180
N160	N	0.538904	0.182147	0.409388
H161	H	0.216226	1.367818	-0.040616
H162	H	0.203690	1.296804	-0.095191
C163	C	0.645832	0.521251	-0.472129
N164	N	0.669366	0.441786	-0.465006
H165	H	0.317035	1.296731	-0.406754
H166	H	0.292023	1.154722	-0.090962
C167	C	0.421280	1.143466	-0.311286
N168	N	0.467334	1.111026	-0.315085
H169	H	0.216183	1.367761	-0.398455
H170	H	0.598444	0.331904	-0.064909
C171	C	-0.063682	0.617105	0.047371
N172	N	-0.019019	0.537645	0.075625
H173	H	0.574124	1.367650	-0.398407
H174	H	0.624454	1.154608	-0.196564
H175	H	0.604483	0.482443	0.261432
H176	H	0.899338	0.269270	-0.007920
H177	H	0.517118	0.305143	0.016398
H178	H	0.491106	0.482408	0.148076
H179	H	0.292042	1.154666	-0.196608
C180	C	0.637951	1.307794	-0.292006
N181	N	0.664805	1.340210	-0.288199
C182	C	0.469743	1.115817	-0.683493
N183	N	0.446194	1.195286	-0.732867
C184	C	0.796563	0.329155	0.374796
N185	N	0.790867	0.296698	0.422788
C186	C	0.617412	0.617178	-0.740929
N187	N	0.640942	0.537718	-0.733810
H188	H	0.511078	1.154638	-0.309964
H189	H	0.091447	0.548639	0.071711
H190	H	0.823520	0.482381	0.148099
C191	C	0.506747	1.307814	-0.423280
N192	N	0.481853	1.340226	-0.471273
C193	C	0.023309	1.115800	-0.129930
N194	N	0.020904	1.195263	-0.158184
C195	C	-0.083816	1.115797	-0.129924
N196	N	-0.128476	1.195262	-0.158171
C197	C	0.298554	0.617149	0.047336
N198	N	0.300964	0.537682	0.075586
H199	H	0.911873	0.340276	0.046660
H200	H	0.911867	0.340362	0.244865
C201	C	0.694254	0.493557	-0.080195
N202	N	0.648195	0.525998	-0.107057
C203	C	0.199394	0.521244	0.081446
N204	N	0.244055	0.441782	0.109702
H205	H	-0.171650	0.644509	0.037626
H206	H	-0.274697	0.992466	-0.086092
C207	C	0.617415	0.617116	-0.271542
N208	N	0.640952	0.537660	-0.264428
C209	C	-0.182982	1.019887	-0.095840
N210	N	-0.185391	1.099352	-0.124100
C211	C	0.179244	1.019932	-0.095870
N212	N	0.134580	1.099388	-0.124113
C213	C	0.319073	1.307928	0.026787
N214	N	0.324805	1.340342	0.051719
C215	C	0.286389	1.019935	-0.095877
N216	N	0.284002	1.099381	-0.124120
C217	C	0.825514	0.493506	0.051053
N218	N	0.831247	0.525913	0.075989
C219	C	0.608871	0.329250	0.374755
N220	N	0.633808	0.296828	0.422734
H221	H	0.506253	0.992471	-0.305123
H222	H	0.506262	0.992492	-0.397679
C223	C	0.187811	1.307906	-0.292066
N224	N	0.141757	1.340334	-0.288268
H225	H	0.477869	1.088398	-0.573914
H226	H	0.899381	0.269335	0.349944
C227	C	0.421309	1.143507	0.031675
N228	N	0.467368	1.111082	0.058526
H229	H	0.506262	0.992539	-0.774522
H230	H	0.710167	0.482389	0.261469
H231	H	0.506265	0.992539	-0.867085
H232	H	0.609306	0.644568	-0.650828
H233	H	0.637716	0.548653	-0.382034
H234	H	0.609292	0.644517	-0.181427
H235	H	0.798465	0.340328	-0.066715
