data_functionalizedCrystal
_audit_creation_method	'MofGen! by Chris Wilmer'
_symmetry_space_group_name_H-M	'P1'
_symmetry_Int_Tables_number	1
_symmetry_cell_setting	triclinic
loop_
_symmetry_equiv_pos_as_xyz
  x,y,z
_cell_length_a	17.640112
_cell_length_b	25.639239
_cell_length_c	17.640968
_cell_angle_alpha	78.768889
_cell_angle_beta	92.139080
_cell_angle_gamma	101.263838
loop_
_atom_site_label
_atom_site_type_symbol
_atom_site_fract_x
_atom_site_fract_y
_atom_site_fract_z
Zn1	Zn	1.247772	-0.015023	-0.195080
Zn2	Zn	1.747772	0.484977	0.304920
Zn3	Zn	1.221957	-0.122899	-0.068099
Zn4	Zn	1.721957	0.377101	0.431901
Zn5	Zn	1.095090	-0.049036	-0.093726
Zn6	Zn	1.595090	0.450964	0.406274
Zn7	Zn	1.120701	-0.116017	-0.220680
Zn8	Zn	1.620701	0.383983	0.279320
O9	O	1.171380	-0.075744	-0.144396
O10	O	1.671380	0.424256	0.355604
O11	O	1.350622	-0.017980	-0.156797
O12	O	1.850622	0.482020	0.343203
O13	O	1.183606	-0.130216	0.034775
O14	O	1.683606	0.369784	0.534775
O15	O	1.115429	0.028654	-0.107183
O16	O	1.615429	0.528654	0.392817
O17	O	1.331655	-0.097236	-0.063504
O18	O	1.831655	0.402764	0.436496
O19	O	1.227604	0.053643	-0.181647
O20	O	1.727604	0.553643	0.318353
O21	O	1.090397	-0.075949	0.015946
O22	O	1.590397	0.424051	0.515946
O23	O	0.992213	-0.069275	-0.132006
O24	O	1.492213	0.430725	0.367994
O25	O	1.159079	-0.085505	-0.323557
O26	O	1.659079	0.414495	0.176443
O27	O	1.011029	-0.118485	-0.225279
O28	O	1.511029	0.381515	0.274721
O29	O	1.252438	-0.011306	-0.304749
O30	O	1.752438	0.488694	0.195251
O31	O	1.208439	-0.195165	-0.088327
O32	O	1.708439	0.304835	0.411673
O33	O	1.134047	-0.190108	-0.200429
O34	O	1.634047	0.309892	0.299571
C35	C	0.974065	-0.096824	-0.184202
C36	C	1.474065	0.403176	0.315798
C37	C	0.889657	-0.105852	-0.201249
C38	C	1.389657	0.394148	0.298751
C39	C	0.563036	-0.007149	-0.014898
C40	C	1.063036	0.492851	0.485102
C41	C	0.483724	-0.015641	-0.030927
C42	C	0.983724	0.484359	0.469073
C43	C	0.503337	-0.067003	-0.127884
C44	C	1.003337	0.432997	0.372116
C45	C	0.582654	-0.058513	-0.111866
C46	C	1.082654	0.441487	0.388134
C47	C	0.612496	-0.028586	-0.055372
C48	C	1.112496	0.471414	0.444628
C49	C	0.632114	-0.079950	-0.152340
C50	C	1.132114	0.420050	0.347660
C51	C	0.711422	-0.071463	-0.136320
C52	C	1.211422	0.428537	0.363680
C53	C	0.741271	-0.041538	-0.079827
C54	C	1.241271	0.458462	0.420173
C55	C	0.691805	-0.020099	-0.039352
C56	C	1.191805	0.479901	0.460648
C57	C	0.602269	-0.109880	-0.208830
C58	C	1.102269	0.390120	0.291170
C59	C	0.651729	-0.131317	-0.249304
C60	C	1.151729	0.368683	0.250696
C61	C	0.731040	-0.122827	-0.233288
C62	C	1.231040	0.377173	0.266712
C63	C	0.760888	-0.092902	-0.176795
C64	C	1.260888	0.407098	0.323205
C65	C	0.780506	-0.144266	-0.273763
C66	C	1.280506	0.355734	0.226237
C67	C	0.859815	-0.135779	-0.257743
C68	C	1.359815	0.364221	0.242257
C69	C	0.840197	-0.084415	-0.160775
C70	C	1.340197	0.415585	0.339225
C71	C	1.171245	-0.211606	-0.144387
C72	C	1.671245	0.288394	0.355613
C73	C	1.171262	-0.269716	-0.144395
C74	C	1.671262	0.230284	0.355605
C75	C	1.210259	-0.632657	-0.086082
C76	C	1.710259	-0.132657	0.413918
C77	C	1.210291	-0.687257	-0.086087
C78	C	1.710291	-0.187257	0.413913
O79	O	1.243308	-0.717705	-0.036496
O80	O	1.743308	-0.217705	0.463504
N81	N	1.171523	-0.711960	-0.144420
N82	N	1.671523	-0.211960	0.355580
C83	C	1.132728	-0.682060	-0.202757
C84	C	1.632728	-0.182060	0.297243
O85	O	1.099757	-0.708086	-0.252374
O86	O	1.599757	-0.208086	0.247626
C87	C	1.132702	-0.627461	-0.202755
C88	C	1.632702	-0.127461	0.297245
C89	C	1.171465	-0.602761	-0.144414
C90	C	1.671465	-0.102761	0.355586
C91	C	1.249020	-0.607957	-0.027746
C92	C	1.749020	-0.107957	0.472254
C93	C	1.248988	-0.553362	-0.027742
C94	C	1.748988	-0.053362	0.472258
C95	C	1.210194	-0.523466	-0.086073
C96	C	1.710194	-0.023466	0.413927
C97	C	1.171433	-0.548166	-0.144409
C98	C	1.671433	-0.048166	0.355591
C99	C	1.093912	-0.597561	-0.261094
C100	C	1.593912	-0.097561	0.238906
C101	C	1.093890	-0.542958	-0.261088
C102	C	1.593890	-0.042958	0.238912
C103	C	1.132653	-0.518258	-0.202747
C104	C	1.632653	-0.018258	0.297253
C105	C	1.132606	-0.463675	-0.202735
C106	C	1.632606	0.036325	0.297265
N107	N	1.171373	-0.438971	-0.144402
N108	N	1.671373	0.061029	0.355598
C109	C	1.210167	-0.468867	-0.086071
C110	C	1.710167	0.031133	0.413929
C111	C	1.132788	-0.796723	-0.202757
C112	C	1.632788	-0.296723	0.297243
C113	C	1.132809	-0.851323	-0.202756
C114	C	1.632809	-0.351323	0.297244
C115	C	1.210373	-0.856515	-0.086087
C116	C	1.710373	-0.356515	0.413913
C117	C	1.210347	-0.801915	-0.086085
C118	C	1.710347	-0.301915	0.413915
C119	C	1.171556	-0.772019	-0.144424
C120	C	1.671556	-0.272019	0.355576
C121	C	1.210095	-0.354212	-0.086065
C122	C	1.710095	0.145788	0.413935
C123	C	1.210056	-0.299612	-0.086064
C124	C	1.710056	0.200388	0.413936
C125	C	1.132496	-0.294424	-0.202735
C126	C	1.632496	0.205576	0.297265
C127	C	1.132531	-0.349020	-0.202735
C128	C	1.632531	0.150980	0.297265
C129	C	1.171336	-0.378912	-0.144396
C130	C	1.671336	0.121088	0.355604
O131	O	1.099609	-0.433192	-0.252303
O132	O	1.599609	0.066808	0.247697
O133	O	1.243141	-0.442832	-0.036467
O134	O	1.743141	0.057168	0.463533
C135	C	1.369465	-0.054581	-0.104436
C136	C	1.869465	0.445419	0.395564
C137	C	1.453877	-0.045563	-0.087407
C138	C	1.953877	0.454437	0.412593
C139	C	1.211495	-0.043844	-0.342479
C140	C	1.711495	0.456156	0.157521
C141	C	1.228589	-0.030250	-0.426890
C142	C	1.728589	0.469750	0.073110
C143	C	1.171539	0.060653	-0.144418
C144	C	1.671539	0.560653	0.355582
C145	C	1.171607	0.118778	-0.144427
C146	C	1.671607	0.618778	0.355573
C147	C	1.041806	-0.178700	-0.753464
C148	C	1.541806	0.321300	-0.253464
C149	C	1.057885	-0.165918	-0.832778
C150	C	1.557885	0.334082	-0.332778
C151	C	1.155091	-0.088661	-0.813184
C152	C	1.655091	0.411339	-0.313184
C153	C	1.139017	-0.101435	-0.733867
C154	C	1.639017	0.398565	-0.233867
C155	C	1.082375	-0.146456	-0.704014
C156	C	1.582375	0.353544	-0.204014
C157	C	1.179586	-0.069190	-0.684417
C158	C	1.679586	0.430810	-0.184417
C159	C	1.163517	-0.081965	-0.605107
C160	C	1.663517	0.418035	-0.105107
C161	C	1.106878	-0.126985	-0.575247
C162	C	1.606878	0.373015	-0.075247
C163	C	1.066305	-0.159230	-0.624704
C164	C	1.566305	0.340770	-0.124704
C165	C	1.236233	-0.024172	-0.714271
C166	C	1.736233	0.475828	-0.214271
C167	C	1.276802	0.008072	-0.664821
C168	C	1.776802	0.508072	-0.164821
C169	C	1.260728	-0.004700	-0.585510
C170	C	1.760728	0.495300	-0.085510
C171	C	1.204090	-0.049719	-0.555650
C172	C	1.704090	0.450281	-0.055650
C173	C	1.301302	0.027546	-0.536054
C174	C	1.801302	0.527546	-0.036054
C175	C	1.285232	0.014771	-0.456743
C176	C	1.785232	0.514771	0.043257
C177	C	1.188020	-0.062494	-0.476340
C178	C	1.688020	0.437506	0.023660
C179	C	1.131465	-0.107478	0.052925
C180	C	1.631465	0.392522	0.552925
C181	C	1.114517	-0.120908	0.137365
C182	C	1.614517	0.379092	0.637365
H183	H	0.587337	0.017230	0.031094
H184	H	1.087337	0.517230	0.531094
H185	H	1.024844	-0.192179	-0.873039
H186	H	1.524844	0.307821	-0.373039
H187	H	1.101193	-0.772385	-0.250263
H188	H	1.601193	-0.272385	0.249737
H189	H	1.201211	-0.052007	-0.837501
H190	H	1.701211	0.447993	-0.337501
H191	H	0.864498	-0.060036	-0.114783
H192	H	1.364498	0.439964	0.385217
H193	H	1.318266	0.041029	-0.416480
H194	H	1.818266	0.541029	0.083520
H195	H	0.805849	-0.034630	-0.066783
H196	H	1.305849	0.465370	0.433217
H197	H	0.537690	-0.116789	-0.221871
H198	H	1.037690	0.383211	0.278129
N199	N	1.054259	-0.512415	-0.320670
N200	N	1.554259	-0.012415	0.179330
N201	N	1.054230	-0.463667	-0.320662
N202	N	1.554230	0.036333	0.179338
H203	H	1.026239	-0.442097	-0.362740
H204	H	1.526239	0.057903	0.137260
N205	N	1.093202	-0.876561	-0.262335
N206	N	1.593202	-0.376561	0.237665
N207	N	1.039427	-0.916548	-0.245338
N208	N	1.539427	-0.416548	0.254662
H209	H	1.011455	-0.934371	-0.287418
H210	H	1.511455	-0.434371	0.212582
H211	H	1.062342	-0.617662	-0.308599
H212	H	1.562342	-0.117662	0.191401
N213	N	1.252664	-0.011127	-0.795282
N214	N	1.752664	0.488873	-0.295282
N215	N	1.275663	-0.044522	-0.827471
N216	N	1.775663	0.455478	-0.327471
H217	H	1.287270	-0.035309	-0.884684
H218	H	1.787270	0.464691	-0.384684
H219	H	1.100970	-0.369130	-0.250243
H220	H	1.600970	0.130870	0.249757
N221	N	1.130157	-0.108476	-0.445824
N222	N	1.630157	0.391524	0.054176
N223	N	1.072825	-0.102371	-0.411331
N224	N	1.572825	0.397629	0.088669
H225	H	1.031962	-0.134844	-0.389776
H226	H	1.531962	0.365156	0.110224
H227	H	1.322922	0.044727	-0.689139
H228	H	1.822922	0.544727	-0.189139
H229	H	0.900087	-0.153235	-0.290702
H230	H	1.400087	0.346765	0.209298
N231	N	1.092867	-0.263875	-0.262305
N232	N	1.592867	0.236125	0.237695
N233	N	1.092848	-0.215127	-0.262286
N234	N	1.592848	0.284873	0.237714
H235	H	1.064862	-0.193549	-0.304359
H236	H	1.564862	0.306451	0.195641
N237	N	1.359165	0.073523	-0.566564
N238	N	1.859165	0.573523	-0.066564
N239	N	1.373512	0.084920	-0.637376
N240	N	1.873512	0.584920	-0.137376
H241	H	1.414380	0.117391	-0.658925
H242	H	1.914380	0.617391	-0.158925
H243	H	1.280555	-0.533254	0.019763
H244	H	1.780555	-0.033254	0.519763
N245	N	0.433211	0.006262	0.010428
N246	N	0.933211	0.506262	0.510428
N247	N	0.459870	0.032979	0.060866
N248	N	0.959870	0.532979	0.560866
H249	H	0.424195	0.048447	0.090074
H250	H	0.924195	0.548447	0.590074
N251	N	1.090444	-0.140040	-0.494237
N252	N	1.590444	0.359960	0.005763
N253	N	1.039867	-0.180236	-0.467594
N254	N	1.539867	0.319764	0.032406
H255	H	1.028259	-0.189457	-0.410381
H256	H	1.528259	0.310543	0.089619
N257	N	1.008455	-0.205225	-0.594203
N258	N	1.508455	0.294775	-0.094203
N259	N	1.026174	-0.242822	-0.544554
N260	N	1.526174	0.257178	-0.044554
H261	H	0.985321	-0.275305	-0.523012
H262	H	1.485321	0.224695	-0.023012
H263	H	0.716106	0.004281	0.006640
H264	H	1.216106	0.504281	0.506640
H265	H	0.756195	-0.168637	-0.319755
H266	H	1.256195	0.331363	0.180245
N267	N	0.472837	-0.097573	-0.185583
N268	N	0.972837	0.402427	0.314417
N269	N	0.402025	-0.105149	-0.199878
N270	N	0.902025	0.394851	0.300122
H271	H	0.380484	-0.126739	-0.240630
H272	H	0.880484	0.373261	0.259370
N273	N	0.621228	-0.161887	-0.307003
N274	N	1.121228	0.338113	0.192997
N275	N	0.550416	-0.169464	-0.321298
N276	N	1.050416	0.330536	0.178702
H277	H	0.528876	-0.191053	-0.362050
H278	H	1.028876	0.308947	0.137950
N279	N	1.249641	-0.274389	-0.026455
N280	N	1.749641	0.225611	0.473545
N281	N	1.230466	-0.292334	0.042617
N282	N	1.730466	0.207666	0.542617
H283	H	1.258422	-0.274523	0.084716
H284	H	1.758422	0.225477	0.584716
N285	N	1.249735	-0.384734	-0.026468
N286	N	1.749735	0.115266	0.473532
N287	N	1.284334	-0.362665	0.025611
N288	N	1.784334	0.137335	0.525611
H289	H	1.312325	-0.384221	0.067706
H290	H	1.812325	0.115779	0.567706
H291	H	1.280615	-0.632292	0.019755
H292	H	1.780615	-0.132292	0.519755
H293	H	1.241964	-0.880865	-0.038592
H294	H	1.741964	-0.380865	0.461408
N295	N	1.249944	-0.776697	-0.026484
N296	N	1.749944	-0.276697	0.473516
N297	N	1.284572	-0.803403	0.025593
N298	N	1.784572	-0.303403	0.525593
H299	H	1.312540	-0.785595	0.067689
H300	H	1.812540	-0.285595	0.567689
N301	N	0.983933	-0.224684	-0.722977
N302	N	1.483933	0.275316	-0.222977
N303	N	0.947706	-0.253468	-0.767137
N304	N	1.447706	0.246532	-0.267137
H305	H	0.906834	-0.285942	-0.745606
H306	H	1.406834	0.214058	-0.245606
