data_functionalizedCrystal
_audit_creation_method	'MofGen! by Chris Wilmer'
_symmetry_space_group_name_H-M	'P1'
_symmetry_Int_Tables_number	1
_symmetry_cell_setting	triclinic
loop_
_symmetry_equiv_pos_as_xyz
  x,y,z
_cell_length_a	13.262390
_cell_length_b	14.519731
_cell_length_c	12.376457
_cell_angle_alpha	101.297478
_cell_angle_beta	63.168449
_cell_angle_gamma	84.075143
loop_
_atom_site_label
_atom_site_type_symbol
_atom_site_fract_x
_atom_site_fract_y
_atom_site_fract_z
O1	O	1.512443	0.019563	-0.559020
O2	O	1.185385	0.051894	-0.458466
O3	O	1.357570	-0.098985	-0.511394
O4	O	1.340257	0.170443	-0.506092
O5	O	1.314539	-0.061315	-0.310155
O6	O	1.142353	0.089565	-0.257226
O7	O	1.469412	0.057234	-0.357781
Zn8	Zn	1.299050	0.079381	-0.275552
Zn9	Zn	1.355746	0.029748	-0.540694
O10	O	1.297226	0.208114	-0.304852
C11	C	1.122012	0.072382	-0.344977
C12	C	0.997290	0.077294	-0.306631
C13	C	0.739559	0.008987	-0.637342
C14	C	0.856742	0.004367	-0.673372
C15	C	0.891885	0.022599	-0.581690
C16	C	0.809833	0.045451	-0.453971
C17	C	0.692639	0.050064	-0.417938
C18	C	0.844966	0.063675	-0.362286
C19	C	0.762913	0.086528	-0.234568
C20	C	0.645732	0.091141	-0.198541
C21	C	0.610589	0.072909	-0.290223
C22	C	0.962159	0.059062	-0.398319
C23	C	0.915240	0.100139	-0.178916
C24	C	0.798057	0.104759	-0.142886
C25	C	1.335243	-0.114465	-0.410525
C26	C	1.332811	-0.216710	-0.409776
C27	C	1.330836	-0.299745	-0.409172
C28	C	1.328369	-0.403919	-0.408422
C29	C	1.326412	-0.486951	-0.407827
C30	C	1.323945	-0.591132	-0.407075
C31	C	1.532785	0.036746	-0.471272
C32	C	1.657508	0.031832	-0.509626
C33	C	1.319554	0.223592	-0.405725
C34	C	1.321987	0.325836	-0.406481
N35	N	1.260365	0.113253	-0.094603
N36	N	1.394440	-0.004132	-0.721647
C37	C	1.484240	-0.082779	0.191565
C38	C	1.511309	-0.106486	0.064905
C39	C	1.448575	-0.051553	0.025021
C40	C	1.358768	0.027091	0.111812
C41	C	1.331702	0.050804	0.238483
C42	C	1.296037	0.082030	0.071939
C43	C	1.206230	0.160674	0.158729
C44	C	1.179168	0.184383	0.285388
C45	C	1.241902	0.129451	0.325271
C46	C	1.323103	0.058316	-0.054732
C47	C	1.170565	0.191899	-0.007815
C48	C	1.143496	0.215606	0.118846
H49	H	0.731234	0.123365	-0.038895
H50	H	0.710934	-0.005863	-0.711975
H51	H	0.943851	0.114983	-0.104260
C52	C	1.101551	0.252328	-0.051679
N53	N	1.049575	0.297839	-0.084727
H54	H	0.987302	0.018837	-0.611033
H55	H	1.396225	-0.005716	-0.125387
C56	C	1.610088	-0.192995	-0.030553
N57	N	1.684491	-0.258161	-0.102453
H58	H	1.028955	0.040458	-0.502308
H59	H	1.470619	-0.070859	-0.078112
C60	C	1.044707	0.302112	0.214331
N61	N	0.970298	0.367267	0.286252
H62	H	1.535315	-0.127493	0.224047
H63	H	1.106050	0.248426	0.356051
H64	H	0.923541	-0.014244	-0.777360
H65	H	1.219859	0.148750	0.428409
H66	H	0.515170	0.076673	-0.260893
H67	H	0.578929	0.109731	-0.094545
