data_functionalizedCrystal
_audit_creation_method	'MofGen! by Chris Wilmer'
_symmetry_space_group_name_H-M	'P1'
_symmetry_Int_Tables_number	1
_symmetry_cell_setting	triclinic
loop_
_symmetry_equiv_pos_as_xyz
  x,y,z
_cell_length_a	6.817900
_cell_length_b	15.300992
_cell_length_c	19.551833
_cell_angle_alpha	95.690861
_cell_angle_beta	101.663477
_cell_angle_gamma	104.175078
loop_
_atom_site_label
_atom_site_type_symbol
_atom_site_fract_x
_atom_site_fract_y
_atom_site_fract_z
V1	V	-4.009808	-0.125704	-0.218070
O2	O	-3.994104	0.005068	-0.213702
O3	O	-3.964845	-0.248315	-0.216787
O4	O	-3.952460	-0.124198	-0.313083
O5	O	-4.006575	-0.119909	-0.116740
V6	V	-4.494150	-0.110012	-0.205925
O7	O	-4.269270	-0.160127	-0.244712
O8	O	-4.684885	-0.075590	-0.179283
O9	O	-4.315906	0.012599	-0.207208
O10	O	-4.627251	-0.240784	-0.210292
O11	O	-4.614779	-0.115808	-0.307255
O12	O	-4.328291	-0.111519	-0.110912
C13	C	-3.810972	-0.278192	-0.213400
C14	C	-3.855437	-0.378430	-0.212985
C15	C	-3.841714	-0.412367	-0.148780
C16	C	-3.883513	-0.506553	-0.148391
C17	C	-3.939020	-0.566800	-0.212208
C18	C	-3.952749	-0.532857	-0.276418
C19	C	-3.910965	-0.438673	-0.276806
C20	C	-4.039834	-0.729165	-0.275605
C21	C	-4.081618	-0.823355	-0.275218
C22	C	-4.012382	-0.797044	-0.147191
C23	C	-3.970597	-0.702861	-0.147578
C24	C	-3.984326	-0.668924	-0.211788
C25	C	-3.795172	-0.119866	-0.336235
C26	C	-3.829590	-0.119446	-0.413909
C27	C	-4.027660	-0.123774	-0.453964
C28	C	-4.060000	-0.123379	-0.526948
C29	C	-3.894267	-0.118673	-0.559876
C30	C	-3.696167	-0.114339	-0.519812
C31	C	-3.663828	-0.114725	-0.446828
C32	C	-3.832839	-0.167702	-0.679271
C33	C	-3.865188	-0.167322	-0.752254
C34	C	-3.994001	-0.117478	-0.784981
C35	C	-4.090501	-0.068027	-0.744719
C36	C	-4.058163	-0.068413	-0.671735
C37	C	-3.929313	-0.118254	-0.639014
C38	C	-4.227150	-0.121377	-0.904173
C39	C	-4.259480	-0.120976	-0.977158
C40	C	-3.895645	-0.111945	-0.970021
C41	C	-3.863316	-0.112337	-0.897037
C42	C	-4.029078	-0.117058	-0.864118
C43	C	-4.133122	0.042470	-0.210592
C44	C	-4.067895	0.142708	-0.211013
C45	C	-4.148922	-0.115853	-0.087756
C46	C	-4.093742	-0.116269	-0.010081
H47	H	-3.997961	-0.581918	-0.328379
C48	C	-4.054934	-0.691838	-0.346240
N49	N	-4.066295	-0.663722	-0.399441
C50	C	-4.142701	-0.889625	-0.345420
N51	N	-4.188717	-0.939541	-0.398298
H52	H	-4.420772	-0.124495	-1.009769
H53	H	-4.195397	-0.027442	-0.771363
H54	H	-3.922163	-0.411045	-0.329089
C55	C	-4.409482	-0.126558	-0.867959
N56	N	-4.546817	-0.130458	-0.840684
H57	H	-4.162638	-0.127614	-0.427166
C58	C	-3.759026	-0.221716	-0.796535
N59	N	-3.679055	-0.262684	-0.829886
H60	H	-4.221300	-0.126909	-0.559567
C61	C	-4.164286	-0.014007	-0.627447
N62	N	-4.244210	0.026977	-0.594089
C63	C	-3.868403	-0.543878	-0.077761
N64	N	-3.857019	-0.571991	-0.024559
H65	H	-3.760697	-0.108106	-0.996830
C66	C	-3.691147	-0.222545	-0.643280
N67	N	-3.584433	-0.263854	-0.616173
H68	H	-3.702032	-0.108822	-0.864425
H69	H	-3.561227	-0.110505	-0.546626
H70	H	-3.796500	-0.363319	-0.096812
C71	C	-3.997265	-0.834375	-0.076558
N72	N	-3.985866	-0.862497	-0.023360
C73	C	-3.445932	-0.109974	-0.402768
N74	N	-3.281812	-0.106399	-0.369581
H75	H	-3.925389	-0.653809	-0.095613
