data_functionalizedCrystal
_audit_creation_method	'MofGen! by Chris Wilmer'
_symmetry_space_group_name_H-M	'P1'
_symmetry_Int_Tables_number	1
_symmetry_cell_setting	triclinic
loop_
_symmetry_equiv_pos_as_xyz
  x,y,z
_cell_length_a	17.038272
_cell_length_b	17.019372
_cell_length_c	10.268362
_cell_angle_alpha	86.128188
_cell_angle_beta	90.005029
_cell_angle_gamma	92.757580
loop_
_atom_site_label
_atom_site_type_symbol
_atom_site_fract_x
_atom_site_fract_y
_atom_site_fract_z
O1	O	-0.099574	1.053348	-0.009747
O2	O	0.400426	1.553348	0.490253
O3	O	-0.112280	0.824539	0.015892
O4	O	0.387720	1.324539	0.515892
O5	O	0.007888	0.937584	0.003236
O6	O	0.507888	1.437584	0.503236
O7	O	-0.219741	0.940304	0.002908
O8	O	0.280259	1.440304	0.502908
O9	O	0.007883	0.937572	-0.213363
O10	O	0.507883	1.437572	0.286637
O11	O	-0.112284	0.824528	-0.200708
O12	O	0.387716	1.324528	0.299292
O13	O	-0.099578	1.053337	-0.226347
O14	O	0.400422	1.553337	0.273653
Cu15	Cu	-0.105931	0.938931	-0.233304
Cu16	Cu	0.394069	1.438931	0.266696
Cu17	Cu	-0.105926	0.938945	0.022849
Cu18	Cu	0.394074	1.438945	0.522849
O19	O	-0.219745	0.940292	-0.213691
O20	O	0.280255	1.440292	0.286309
C21	C	-0.111801	0.795112	-0.089111
C22	C	0.388199	1.295112	0.410889
C23	C	-0.110358	0.707446	-0.079287
C24	C	0.389642	1.207446	0.420713
C25	C	-0.102174	0.211628	-0.017713
C26	C	0.397826	0.711628	0.482287
C27	C	-0.103530	0.293999	-0.026961
C28	C	0.396470	0.793999	0.473039
C29	C	-0.104215	0.335170	-0.149655
C30	C	0.395785	0.835170	0.350345
C31	C	-0.103538	0.293967	-0.263107
C32	C	0.396462	0.793967	0.236893
C33	C	-0.102177	0.211597	-0.253858
C34	C	0.397823	0.711597	0.246142
C35	C	-0.108320	0.583873	-0.183490
C36	C	0.391680	1.083873	0.316510
C37	C	-0.109683	0.666248	-0.192731
C38	C	0.390317	1.166248	0.307269
C39	C	-0.109673	0.666275	0.043417
C40	C	0.390327	1.166275	0.543417
C41	C	-0.108317	0.583904	0.052655
C42	C	0.391683	1.083904	0.552655
C43	C	-0.107635	0.542707	-0.060797
C44	C	0.392365	1.042707	0.439203
C45	C	-0.105603	0.419367	-0.159111
C46	C	0.394397	0.919367	0.340889
C47	C	-0.106242	0.458513	-0.051340
C48	C	0.393758	0.958513	0.448660
C49	C	-0.248869	0.942772	-0.105671
C50	C	0.251131	1.442772	0.394329
C51	C	-0.335655	0.950152	-0.106507
C52	C	0.164345	1.450152	0.393493
C53	C	-0.385829	0.882393	-0.098913
C54	C	0.114171	1.382393	0.401087
C55	C	-0.467374	0.889332	-0.099675
C56	C	0.032626	1.389332	0.400325
C57	C	-0.498743	0.964031	-0.108039
C58	C	0.001257	1.464031	0.391961
C59	C	-0.448562	1.031795	-0.115628
C60	C	0.051438	1.531795	0.384372
C61	C	-0.367019	1.024855	-0.114858
C62	C	0.132981	1.524855	0.385142
C63	C	-0.744479	0.988548	-0.110756
C64	C	-0.244479	1.488548	0.389244
C65	C	-0.826028	0.995483	-0.111530
C66	C	-0.326028	1.495483	0.388470
C67	C	-0.844834	0.853019	-0.095574
C68	C	-0.344834	1.353019	0.404426
C69	C	-0.763289	0.846086	-0.094812
C70	C	-0.263289	1.346086	0.405188
C71	C	-0.713115	0.913850	-0.102395
C72	C	-0.213115	1.413850	0.397605
C73	C	-0.582094	0.971126	-0.108821
C74	C	-0.082094	1.471126	0.391179
C75	C	-0.629766	0.906755	-0.101603
C76	C	-0.129766	1.406755	0.398397
C77	C	0.037012	0.935104	-0.104781
C78	C	0.537012	1.435104	0.395219
C79	C	0.123798	0.927724	-0.103937
C80	C	0.623798	1.427724	0.396063
C81	C	-0.100057	1.082764	-0.121341
C82	C	0.399943	1.582764	0.378659
C83	C	-0.101499	1.170430	-0.131157
C84	C	0.398501	1.670430	0.368843
N85	N	-0.105934	0.938928	-0.413470
N86	N	0.394066	1.438928	0.086530
C87	C	-0.105934	0.938933	-0.531313
C88	C	0.394066	1.438933	-0.031313
C89	C	-0.105927	0.938943	-0.679152
C90	C	0.394073	1.438943	-0.179152
N91	N	-0.105917	0.938954	0.203014
N92	N	0.394083	1.438954	0.703014
H93	H	-0.105681	0.424988	0.048557
H94	H	0.394319	0.924988	0.548557
H95	H	-0.508222	0.834155	-0.093487
H96	H	-0.008222	1.334155	0.406513
N97	N	-0.312907	1.097943	-0.123059
N98	N	0.187093	1.597943	0.376941
H99	H	-0.278661	1.098235	-0.203388
H100	H	0.221339	1.598235	0.296612
H101	H	-0.278700	1.098203	-0.042743
H102	H	0.221300	1.598203	0.457257
H103	H	-0.737754	0.785258	-0.087986
H104	H	-0.237754	1.285258	0.412014
H105	H	-0.101621	0.178112	0.082198
H106	H	0.398379	0.678112	0.582198
H107	H	-0.107758	0.550388	0.152566
H108	H	0.392242	1.050388	0.652566
N109	N	-0.482393	1.112364	-0.124659
N110	N	0.017607	1.612364	0.375341
H111	H	-0.464091	1.142289	-0.208308
H112	H	0.035909	1.642289	0.291692
H113	H	-0.464076	1.142239	-0.047662
H114	H	0.035924	1.642239	0.452338
H115	H	-0.885693	0.797850	-0.089399
H116	H	-0.385693	1.297850	0.410601
H117	H	-0.607644	1.031946	-0.115675
H118	H	-0.107644	1.531946	0.384325
N119	N	-0.351998	0.801824	-0.089908
N120	N	0.148002	1.301824	0.410092
H121	H	-0.396160	0.759953	-0.085213
H122	H	0.103840	1.259953	0.414787
H123	H	-0.318567	0.795842	-0.008947
H124	H	0.181433	1.295842	0.491053
H125	H	-0.110228	0.699826	0.135783
H126	H	0.389772	1.199826	0.635783
H127	H	-0.604222	0.845935	-0.094786
H128	H	-0.104222	1.345935	0.405214
N129	N	-0.104248	0.338436	0.095395
N130	N	0.395752	0.838436	0.595395
H131	H	-0.103609	0.299856	0.174524
H132	H	0.396391	0.799856	0.674524
H133	H	-0.153250	0.369472	0.097059
H134	H	0.346750	0.869472	0.597059
N135	N	-0.110424	0.710657	-0.325070
N136	N	0.389576	1.210657	0.174930
H137	H	-0.109784	0.672061	-0.395540
H138	H	0.390216	1.172061	0.104460
H139	H	-0.062549	0.747982	-0.334394
H140	H	0.437451	1.247982	0.165606
N141	N	-0.107586	0.539445	-0.305850
N142	N	0.392414	1.039445	0.194150
H143	H	-0.108231	0.578028	-0.384976
H144	H	0.391769	1.078028	0.115024
H145	H	-0.155462	0.502121	-0.306807
H146	H	0.344538	1.002121	0.193193
N147	N	-0.104283	0.338366	-0.395445
N148	N	0.395717	0.838366	0.104555
H149	H	-0.055609	0.327174	-0.445810
H150	H	0.444391	0.827174	0.054190
H151	H	-0.105282	0.396782	-0.383985
H152	H	0.394718	0.896782	0.116015
N153	N	-0.101443	0.167160	-0.376216
N154	N	0.398557	0.667160	0.123784
H155	H	-0.101529	0.205775	-0.455346
H156	H	0.398471	0.705775	0.044654
H157	H	-0.149602	0.130236	-0.377622
H158	H	0.350398	0.630236	0.122378
N159	N	-0.859864	1.076055	-0.120556
N160	N	-0.359864	1.576055	0.379444
H161	H	-0.815707	1.117931	-0.125241
H162	H	-0.315707	1.617931	0.374759
H163	H	-0.893285	1.082036	-0.040931
H164	H	-0.393285	1.582036	0.459069
N165	N	-0.106354	0.463778	-0.291439
N166	N	0.393646	0.963778	0.208561
H167	H	-0.154562	0.446292	-0.341091
H168	H	0.345438	0.946292	0.158909
H169	H	-0.057650	0.452571	-0.341707
H170	H	0.442350	0.952571	0.158293
N171	N	-0.690370	1.061634	-0.118950
N172	N	-0.190370	1.561634	0.381050
H173	H	-0.722618	1.110006	-0.124376
H174	H	-0.222618	1.610006	0.375624
H175	H	-0.656136	1.061850	-0.199276
H176	H	-0.156136	1.561850	0.300724
