data_functionalizedCrystal
_audit_creation_method	'MofGen! by Chris Wilmer'
_symmetry_space_group_name_H-M	'P1'
_symmetry_Int_Tables_number	1
_symmetry_cell_setting	triclinic
loop_
_symmetry_equiv_pos_as_xyz
  x,y,z
_cell_length_a	16.956995
_cell_length_b	23.532357
_cell_length_c	16.053802
_cell_angle_alpha	92.543277
_cell_angle_beta	87.607939
_cell_angle_gamma	79.441381
loop_
_atom_site_label
_atom_site_type_symbol
_atom_site_fract_x
_atom_site_fract_y
_atom_site_fract_z
O1	O	1.061232	0.021053	-0.069490
O2	O	1.311232	0.271053	0.180510
O3	O	1.561232	0.521053	0.430510
O4	O	1.811232	0.771053	0.680510
O5	O	0.828911	0.041055	-0.069482
O6	O	1.078911	0.291055	0.180518
O7	O	1.328911	0.541055	0.430518
O8	O	1.578911	0.791055	0.680518
O9	O	0.952097	-0.052181	-0.069469
O10	O	1.202097	0.197819	0.180531
O11	O	1.452097	0.447819	0.430531
O12	O	1.702097	0.697819	0.680531
O13	O	0.938046	0.114290	-0.069503
O14	O	1.188046	0.364290	0.180497
O15	O	1.438046	0.614290	0.430497
O16	O	1.688046	0.864290	0.680497
O17	O	0.945317	-0.047069	0.069389
O18	O	1.195317	0.202931	0.319389
O19	O	1.445317	0.452931	0.569389
O20	O	1.695317	0.702931	0.819389
O21	O	0.822131	0.046167	0.069377
O22	O	1.072131	0.296167	0.319377
O23	O	1.322131	0.546167	0.569377
O24	O	1.572131	0.796167	0.819377
O25	O	1.054452	0.026165	0.069368
O26	O	1.304452	0.276165	0.319368
O27	O	1.554452	0.526165	0.569368
O28	O	1.804452	0.776165	0.819368
Zn29	Zn	0.937214	0.036978	0.091419
Zn30	Zn	1.187214	0.286978	0.341419
Zn31	Zn	1.437214	0.536978	0.591419
Zn32	Zn	1.687214	0.786978	0.841419
Zn33	Zn	0.946148	0.030242	-0.091532
Zn34	Zn	1.196148	0.280242	0.158468
Zn35	Zn	1.446148	0.530242	0.408468
Zn36	Zn	1.696148	0.780242	0.658468
O37	O	0.931265	0.119402	0.069356
O38	O	1.181265	0.369402	0.319356
O39	O	1.431265	0.619402	0.569356
O40	O	1.681265	0.869402	0.819356
C41	C	0.795804	0.044635	-0.000051
C42	C	1.045804	0.294635	0.249949
C43	C	1.295804	0.544635	0.499949
C44	C	1.545804	0.794635	0.749949
C45	C	0.707259	0.047680	-0.000047
C46	C	0.957259	0.297680	0.249953
C47	C	1.207259	0.547680	0.499953
C48	C	1.457259	0.797680	0.749953
C49	C	0.207774	0.070456	-0.000083
C50	C	0.457774	0.320456	0.249917
C51	C	0.707774	0.570456	0.499917
C52	C	0.957774	0.820456	0.749917
C53	C	0.290973	0.067591	-0.000082
C54	C	0.540973	0.317591	0.249918
C55	C	0.790973	0.567591	0.499918
C56	C	1.040973	0.817591	0.749918
C57	C	0.342499	0.013810	-0.000065
C58	C	0.592499	0.263810	0.249935
C59	C	0.842499	0.513810	0.499935
C60	C	1.092499	0.763810	0.749935
C61	C	0.310825	-0.037110	-0.000057
C62	C	0.560825	0.212890	0.249943
C63	C	0.810825	0.462890	0.499943
C64	C	1.060825	0.712890	0.749943
C65	C	0.227628	-0.034244	-0.000064
C66	C	0.477628	0.215756	0.249936
C67	C	0.727628	0.465756	0.499936
C68	C	0.977628	0.715756	0.749936
C69	C	0.592387	-0.000374	-0.000047
C70	C	0.842387	0.249626	0.249953
C71	C	1.092387	0.499626	0.499953
C72	C	1.342387	0.749626	0.749953
C73	C	0.675589	-0.003236	-0.000037
C74	C	0.925589	0.246764	0.249963
C75	C	1.175589	0.496764	0.499963
C76	C	1.425589	0.746764	0.749963
C77	C	0.655731	0.101465	-0.000064
C78	C	0.905731	0.351465	0.249936
C79	C	1.155731	0.601465	0.499936
C80	C	1.405731	0.851465	0.749936
C81	C	0.572533	0.104326	-0.000066
C82	C	0.822533	0.354326	0.249934
C83	C	1.072533	0.604326	0.499934
C84	C	1.322533	0.854326	0.749934
C85	C	0.540866	0.053407	-0.000063
C86	C	0.790866	0.303407	0.249937
C87	C	1.040866	0.553407	0.499937
C88	C	1.290866	0.803407	0.749937
N89	N	0.427542	0.010880	-0.000061
N90	N	0.677542	0.260880	0.249939
N91	N	0.927542	0.510880	0.499939
N92	N	1.177542	0.760880	0.749939
N93	N	0.455825	0.056337	-0.000073
N94	N	0.705825	0.306337	0.249927
N95	N	0.955825	0.556337	0.499927
N96	N	1.205825	0.806337	0.749927
C97	C	0.948355	-0.070827	-0.000037
C98	C	1.198355	0.179173	0.249963
C99	C	1.448355	0.429173	0.499963
C100	C	1.698355	0.679173	0.749963
C101	C	0.947298	-0.133999	-0.000029
C102	C	1.197298	0.116001	0.249971
C103	C	1.447298	0.366001	0.499971
C104	C	1.697298	0.616001	0.749971
C105	C	0.944362	-0.528514	-0.075766
C106	C	1.194362	-0.278514	0.174234
C107	C	1.444362	-0.028514	0.424234
C108	C	1.694362	0.221486	0.674234
C109	C	0.943357	-0.587870	-0.075770
C110	C	1.193357	-0.337870	0.174230
C111	C	1.443357	-0.087870	0.424230
C112	C	1.693357	0.162130	0.674230
O113	O	0.945954	-0.620933	-0.140143
O114	O	1.195954	-0.370933	0.109857
O115	O	1.445954	-0.120933	0.359857
O116	O	1.695954	0.129067	0.609857
N117	N	0.939163	-0.614773	-0.000080
N118	N	1.189163	-0.364773	0.249920
N119	N	1.439163	-0.114773	0.499920
N120	N	1.689163	0.135227	0.749920
C121	C	0.935965	-0.582315	0.075621
C122	C	1.185965	-0.332315	0.325621
C123	C	1.435965	-0.082315	0.575621
C124	C	1.685965	0.167685	0.825621
O125	O	0.932305	-0.610649	0.140001
O126	O	1.182305	-0.360649	0.390001
O127	O	1.432305	-0.110649	0.640001
O128	O	1.682305	0.139351	0.890001
C129	C	0.936964	-0.522959	0.075624
C130	C	1.186964	-0.272959	0.325624
C131	C	1.436964	-0.022959	0.575624
C132	C	1.686964	0.227041	0.825624
C133	C	0.941166	-0.496061	-0.000071
C134	C	1.191166	-0.246061	0.249929
C135	C	1.441166	0.003939	0.499929
C136	C	1.691166	0.253939	0.749929
C137	C	0.948563	-0.501614	-0.151455
C138	C	1.198563	-0.251614	0.098545
C139	C	1.448563	-0.001614	0.348545
C140	C	1.698563	0.248386	0.598545
C141	C	0.949569	-0.442262	-0.151450
C142	C	1.199569	-0.192262	0.098550
C143	C	1.449569	0.057738	0.348550
C144	C	1.699569	0.307738	0.598550
C145	C	0.946373	-0.409809	-0.075756
C146	C	1.196373	-0.159809	0.174244
C147	C	1.446373	0.090191	0.424244
C148	C	1.696373	0.340191	0.674244
C149	C	0.942172	-0.436709	-0.000066
C150	C	1.192172	-0.186709	0.249934
C151	C	1.442172	0.063291	0.499934
C152	C	1.692172	0.313291	0.749934
C153	C	0.933760	-0.490502	0.151324
C154	C	1.183760	-0.240502	0.401324
C155	C	1.433760	0.009498	0.651324
C156	C	1.683760	0.259498	0.901324
C157	C	0.934758	-0.431142	0.151321
C158	C	1.184758	-0.181142	0.401321
C159	C	1.434758	0.068858	0.651321
C160	C	1.684758	0.318858	0.901321
C161	C	0.938961	-0.404243	0.075626
C162	C	1.188961	-0.154243	0.325626
C163	C	1.438961	0.095757	0.575626
C164	C	1.688961	0.345757	0.825626
C165	C	0.939982	-0.344904	0.075633
C166	C	1.189982	-0.094904	0.325633
C167	C	1.439982	0.155096	0.575633
C168	C	1.689982	0.405096	0.825633
N169	N	0.944176	-0.318000	-0.000057
N170	N	1.194176	-0.068000	0.249943
N171	N	1.444176	0.182000	0.499943
N172	N	1.694176	0.432000	0.749943
C173	C	0.947372	-0.350453	-0.075752
C174	C	1.197372	-0.100453	0.174248
C175	C	1.447372	0.149547	0.424248
C176	C	1.697372	0.399547	0.674248
C177	C	0.933867	-0.706967	0.075607
C178	C	1.183867	-0.456967	0.325607
C179	C	1.433867	-0.206967	0.575607
C180	C	1.683867	0.043033	0.825607
C181	C	0.932874	-0.766323	0.075604
C182	C	1.182874	-0.516323	0.325604
C183	C	1.432874	-0.266323	0.575604
C184	C	1.682874	-0.016323	0.825604
C185	C	0.940264	-0.771873	-0.075788
C186	C	1.190264	-0.521873	0.174212
C187	C	1.440264	-0.271873	0.424212
C188	C	1.690264	-0.021873	0.674212
C189	C	0.941263	-0.712517	-0.075784
C190	C	1.191263	-0.462517	0.174216
C191	C	1.441263	-0.212517	0.424216
C192	C	1.691263	0.037483	0.674216
C193	C	0.938061	-0.680064	-0.000084
C194	C	1.188061	-0.430064	0.249916
C195	C	1.438061	-0.180064	0.499916
C196	C	1.688061	0.069936	0.749916
C197	C	0.949484	-0.225809	-0.075735
C198	C	1.199484	0.024191	0.174265
C199	C	1.449484	0.274191	0.424265
C200	C	1.699484	0.524191	0.674265
C201	C	0.950493	-0.166452	-0.075724
C202	C	1.200493	0.083548	0.174276
C203	C	1.450493	0.333548	0.424276
C204	C	1.700493	0.583548	0.674276
C205	C	0.943098	-0.160907	0.075667
C206	C	1.193098	0.089093	0.325667
C207	C	1.443098	0.339093	0.575667
C208	C	1.693098	0.589093	0.825667
C209	C	0.942094	-0.220259	0.075656
C210	C	1.192094	0.029741	0.325656
C211	C	1.442094	0.279741	0.575656
C212	C	1.692094	0.529741	0.825656
C213	C	0.945284	-0.252709	-0.000052
C214	C	1.195284	-0.002709	0.249948
C215	C	1.445284	0.247291	0.499948
C216	C	1.695284	0.497291	0.749948
O217	O	0.937385	-0.311804	0.139973
O218	O	1.187385	-0.061804	0.389973
O219	O	1.437385	0.188196	0.639973
O220	O	1.687385	0.438196	0.889973
O221	O	0.951021	-0.322111	-0.140121
O222	O	1.201021	-0.072111	0.109879
O223	O	1.451021	0.177889	0.359879
O224	O	1.701021	0.427889	0.609879
C225	C	1.087558	0.022585	-0.000064
C226	C	1.337558	0.272585	0.249936
C227	C	1.587558	0.522585	0.499936
C228	C	1.837558	0.772585	0.749936
C229	C	1.176104	0.019540	-0.000073
C230	C	1.426104	0.269540	0.249927
C231	C	1.676104	0.519540	0.499927
C232	C	1.926104	0.769540	0.749927
C233	C	0.935007	0.138047	-0.000078
C234	C	1.185007	0.388047	0.249922
C235	C	1.435007	0.638047	0.499922
C236	C	1.685007	0.888047	0.749922
C237	C	0.936065	0.201220	-0.000091
C238	C	1.186065	0.451220	0.249909
C239	C	1.436065	0.701220	0.499909
C240	C	1.686065	0.951220	0.749909
N241	N	0.931124	0.041574	0.216279
N242	N	1.181124	0.291574	0.466279
N243	N	1.431124	0.541574	0.716279
N244	N	1.681124	0.791574	0.966279
N245	N	0.952245	0.025641	-0.216392
N246	N	1.202245	0.275641	0.033608
N247	N	1.452245	0.525641	0.283608
N248	N	1.702245	0.775641	0.533608
C249	C	0.983558	0.001914	0.259978
C250	C	1.233558	0.251914	0.509978
C251	C	1.483558	0.501914	0.759978
C252	C	1.733558	0.751914	1.009978
C253	C	0.979305	0.005134	0.347385
C254	C	1.229305	0.255134	0.597385
C255	C	1.479305	0.505134	0.847385
C256	C	1.729305	0.755134	1.097385
C257	C	0.922620	0.048017	0.391090
C258	C	1.172620	0.298017	0.641090
C259	C	1.422620	0.548017	0.891090
C260	C	1.672620	0.798017	1.141090
C261	C	0.870180	0.087679	0.347384
C262	C	1.120180	0.337679	0.597384
C263	C	1.370180	0.587679	0.847384
C264	C	1.620180	0.837679	1.097384
C265	C	0.874430	0.084456	0.259980
C266	C	1.124430	0.334456	0.509980
C267	C	1.374430	0.584456	0.759980
C268	C	1.624430	0.834456	1.009980
C269	C	0.904055	0.062080	0.652498
C270	C	1.154055	0.312080	0.902498
C271	C	1.404055	0.562080	1.152498
C272	C	1.654055	0.812080	1.402498
C273	C	0.899810	0.065301	0.739909
C274	C	1.149810	0.315301	0.989909
C275	C	1.399810	0.565301	1.239909
C276	C	1.649810	0.815301	1.489909
C277	C	1.008935	-0.017244	0.739903
C278	C	1.258935	0.232756	0.989903
C279	C	1.508935	0.482756	1.239903
C280	C	1.758935	0.732756	1.489903
C281	C	1.013183	-0.020462	0.652496
C282	C	1.263183	0.229538	0.902496
C283	C	1.513183	0.479538	1.152496
C284	C	1.763183	0.729538	1.402496
C285	C	0.960740	0.019198	0.608798
C286	C	1.210740	0.269198	0.858798
C287	C	1.460740	0.519198	1.108798
C288	C	1.710740	0.769198	1.358798
N289	N	0.918273	0.051311	0.480433
N290	N	1.168273	0.301311	0.730433
N291	N	1.418273	0.551311	0.980433
N292	N	1.668273	0.801311	1.230433
N293	N	0.965084	0.015902	0.519457
N294	N	1.215084	0.265902	0.769457
N295	N	1.465084	0.515902	1.019457
N296	N	1.715084	0.765902	1.269457
H297	H	0.316754	0.109051	-0.000098
H298	H	0.566754	0.359051	0.249902
H299	H	0.816754	0.609051	0.499902
H300	H	1.066754	0.859051	0.749902
F301	F	0.517700	0.161567	-0.000089
F302	F	0.767700	0.411567	0.249911
F303	F	1.017700	0.661567	0.499911
F304	F	1.267700	0.911567	0.749911
H305	H	0.824022	0.122594	0.382974
H306	H	1.074022	0.372594	0.632974
H307	H	1.324022	0.622594	0.882974
H308	H	1.574022	0.872594	1.132974
F309	F	0.931349	-0.396606	0.231894
F310	F	1.181349	-0.146606	0.481894
F311	F	1.431349	0.103394	0.731894
F312	F	1.681349	0.353394	0.981894
F313	F	1.035111	-0.037077	0.393893
F314	F	1.285111	0.212923	0.643893
F315	F	1.535111	0.462923	0.893893
F316	F	1.785111	0.712923	1.143893
H317	H	0.201844	-0.075705	-0.000058
H318	H	0.451844	0.174295	0.249942
H319	H	0.701844	0.424295	0.499942
H320	H	0.951844	0.674295	0.749942
H321	H	0.831731	0.116750	0.224400
H322	H	1.081731	0.366750	0.474400
H323	H	1.331731	0.616750	0.724400
H324	H	1.581731	0.866750	0.974400
H325	H	0.681524	0.142921	-0.000067
H326	H	0.931524	0.392921	0.249933
H327	H	1.181524	0.642921	0.499933
H328	H	1.431524	0.892921	0.749933
F329	F	1.064743	-0.059452	0.786414
F330	F	1.314743	0.190548	1.036414
F331	F	1.564743	0.440548	1.286414
F332	F	1.814743	0.690548	1.536414
F333	F	0.928415	-0.794946	0.156169
F334	F	1.178415	-0.544946	0.406169
F335	F	1.428415	-0.294946	0.656169
F336	F	1.678415	-0.044946	0.906169
H337	H	0.717542	-0.047033	-0.000027
H338	H	0.967542	0.202967	0.249973
H339	H	1.217542	0.452967	0.499973
H340	H	1.467542	0.702967	0.749973
H341	H	0.953917	-0.144555	-0.137367
H342	H	1.203917	0.105445	0.112633
H343	H	1.453917	0.355445	0.362633
H344	H	1.703917	0.605445	0.612633
H345	H	0.952079	-0.252223	-0.137384
H346	H	1.202079	-0.002223	0.112616
H347	H	1.452079	0.247777	0.362616
H348	H	1.702079	0.497777	0.612616
F349	F	0.951964	-0.536145	-0.232027
F350	F	1.201964	-0.286145	0.017973
F351	F	1.451964	-0.036145	0.267973
F352	F	1.701964	0.213855	0.517973
H353	H	0.165825	0.114250	-0.000091
H354	H	0.415825	0.364250	0.249909
H355	H	0.665825	0.614250	0.499909
H356	H	0.915825	0.864250	0.749909
F357	F	0.945734	-0.683895	-0.156348
F358	F	1.195734	-0.433895	0.093652
F359	F	1.445734	-0.183895	0.343652
F360	F	1.695734	0.066105	0.593652
H361	H	0.566614	-0.041836	-0.000042
H362	H	0.816614	0.208164	0.249958
H363	H	1.066614	0.458164	0.499958
H364	H	1.316614	0.708164	0.749958
F365	F	0.839476	0.110947	0.786418
F366	F	1.089476	0.360947	1.036418
F367	F	1.339476	0.610947	1.286418
F368	F	1.589476	0.860947	1.536418
H369	H	0.861355	0.094374	0.616926
H370	H	1.111355	0.344374	0.866926
H371	H	1.361355	0.594374	1.116926
H372	H	1.611355	0.844374	1.366926
F373	F	0.937636	-0.248890	0.156219
F374	F	1.187636	0.001110	0.406219
F375	F	1.437636	0.251110	0.656219
F376	F	1.687636	0.501110	0.906219
F377	F	0.954036	-0.413641	-0.232016
F378	F	1.204036	-0.163641	0.017984
F379	F	1.454036	0.086359	0.267984
F380	F	1.704036	0.336359	0.517984
F381	F	0.365666	-0.094348	-0.000042
F382	F	0.615666	0.155652	0.249958
F383	F	0.865666	0.405652	0.499958
F384	F	1.115666	0.655652	0.749958
H385	H	1.059341	-0.055380	0.616913
H386	H	1.309341	0.194620	0.866913
H387	H	1.559341	0.444620	1.116913
H388	H	1.809341	0.694620	1.366913
H389	H	0.942864	-0.798307	-0.137422
H390	H	1.192864	-0.548307	0.112578
H391	H	1.442864	-0.298307	0.362578
H392	H	1.692864	-0.048307	0.612578
H393	H	1.029720	-0.033003	0.224399
H394	H	1.279720	0.216997	0.474399
H395	H	1.529720	0.466997	0.724399
H396	H	1.779720	0.716997	0.974399
F397	F	0.930464	-0.672434	0.156182
F398	F	1.180464	-0.422434	0.406182
F399	F	1.430464	-0.172434	0.656182
F400	F	1.680464	0.077566	0.906182
H401	H	0.940500	-0.134474	0.137296
H402	H	1.190500	0.115526	0.387296
H403	H	1.440500	0.365526	0.637296
H404	H	1.690500	0.615526	0.887296
H405	H	0.930339	-0.512393	0.212963
H406	H	1.180339	-0.262393	0.462963
H407	H	1.430339	-0.012393	0.712963
H408	H	1.680339	0.237607	0.962963
