data_functionalizedCrystal
_audit_creation_method	'MofGen! by Chris Wilmer'
_symmetry_space_group_name_H-M	'P1'
_symmetry_Int_Tables_number	1
_symmetry_cell_setting	triclinic
loop_
_symmetry_equiv_pos_as_xyz
  x,y,z
_cell_length_a	19.188933
_cell_length_b	11.026607
_cell_length_c	10.065875
_cell_angle_alpha	79.268236
_cell_angle_beta	81.284263
_cell_angle_gamma	84.134207
loop_
_atom_site_label
_atom_site_type_symbol
_atom_site_fract_x
_atom_site_fract_y
_atom_site_fract_z
O1	O	0.953405	-0.133540	-0.113443
O2	O	1.453405	0.366460	0.386557
O3	O	0.752692	-0.153917	-0.113455
O4	O	1.252692	0.346083	0.386545
O5	O	0.836413	0.032836	-0.113445
O6	O	1.336413	0.532836	0.386555
O7	O	0.869684	-0.320293	-0.113453
O8	O	1.369684	0.179707	0.386547
O9	O	0.820467	-0.002918	0.113541
O10	O	1.320467	0.497082	0.613541
O11	O	0.736745	-0.189671	0.113531
O12	O	1.236745	0.310329	0.613531
O13	O	0.937459	-0.169294	0.113544
O14	O	1.437459	0.330706	0.613544
Zn15	Zn	0.834570	-0.185159	0.149577
Zn16	Zn	1.334570	0.314841	0.649577
Zn17	Zn	0.855581	-0.138052	-0.149488
Zn18	Zn	1.355581	0.361948	0.350512
O19	O	0.853737	-0.356047	0.113534
O20	O	1.353737	0.143953	0.613534
C21	C	0.718624	-0.171133	0.000036
C22	C	1.218624	0.328867	0.500036
C23	C	0.640867	-0.169150	0.000032
C24	C	1.140867	0.330850	0.500032
C25	C	0.094500	-0.135516	-0.123684
C26	C	0.594500	0.364484	0.376316
C27	C	0.167561	-0.137370	-0.123689
C28	C	0.667561	0.362630	0.376311
C29	C	0.195405	-0.157793	0.000041
C30	C	0.695405	0.342207	0.500041
C31	C	0.150179	-0.176331	0.123786
C32	C	0.650179	0.323669	0.623786
C33	C	0.077119	-0.174464	0.123787
C34	C	0.577119	0.325536	0.623787
N35	N	0.307123	-0.244239	0.092137
N36	N	0.807123	0.255761	0.592137
N37	N	0.376527	-0.246014	0.092127
N38	N	0.876527	0.253986	0.592127
C39	C	0.415530	-0.163417	0.000043
C40	C	0.915530	0.336583	0.500043
N41	N	0.382508	-0.078990	-0.092051
N42	N	0.882508	0.421010	0.407949
N43	N	0.313097	-0.077220	-0.092045
N44	N	0.813097	0.422780	0.407955
C45	C	0.274625	-0.159819	0.000053
C46	C	0.774625	0.340181	0.500053
C47	C	0.539967	-0.146882	-0.123699
C48	C	1.039967	0.353118	0.376301
C49	C	0.613029	-0.148730	-0.123700
C50	C	1.113029	0.351270	0.376300
C51	C	0.595645	-0.187703	0.123779
C52	C	1.095645	0.312297	0.623779
C53	C	0.522585	-0.185843	0.123775
C54	C	1.022585	0.314157	0.623775
C55	C	0.494751	-0.165437	0.000032
C56	C	0.994751	0.334563	0.500032
C57	C	0.822303	0.060138	0.000046
C58	C	1.322303	0.560138	0.500046
C59	C	0.804006	0.194756	0.000040
C60	C	1.304006	0.694756	0.500040
C61	C	0.971527	-0.152077	0.000049
C62	C	1.471527	0.347923	0.500049
C63	C	1.049285	-0.154059	0.000044
C64	C	1.549285	0.345941	0.500044
C65	C	0.867848	-0.383348	0.000039
C66	C	1.367848	0.116652	0.500039
C67	C	0.886145	-0.517965	0.000036
C68	C	1.386145	-0.017965	0.500036
N69	N	0.820236	-0.217307	0.353680
N70	N	1.320236	0.282693	0.853680
C71	C	0.854527	0.268829	0.000041
C72	C	1.354527	0.768829	0.500041
C73	C	0.835618	0.407964	0.000035
C74	C	1.335618	0.907964	0.500035
N75	N	0.869919	-0.105894	-0.353592
N76	N	1.369919	0.394106	0.146408
C77	C	0.850588	-0.149230	0.421463
C78	C	1.350588	0.350770	0.921463
C79	C	0.839563	-0.173981	0.578629
C80	C	1.339563	0.326019	1.078629
H81	H	0.040304	-0.189569	0.224545
H82	H	0.540304	0.310431	0.724545
C83	C	0.509346	-0.124421	-0.259818
C84	C	1.009346	0.375579	0.240182
N85	N	0.486285	-0.107500	-0.362343
N86	N	0.986285	0.392500	0.137657
C87	C	0.896706	-0.045713	0.342677
C88	C	1.396706	0.454287	0.842677
N89	N	0.931440	0.032265	0.283337
N90	N	1.431440	0.532265	0.783337
C91	C	0.662766	-0.128315	-0.259818
C92	C	1.162766	0.371685	0.240182
N93	N	0.700229	-0.112937	-0.362345
N94	N	1.200229	0.387063	0.137655
C95	C	0.726660	0.248232	0.000037
C96	C	1.226660	0.748232	0.500037
N97	N	0.668401	0.288507	0.000039
N98	N	1.168401	0.788507	0.500039
C99	C	0.793424	-0.277479	0.657409
C100	C	1.293424	0.222521	1.157409
N101	N	0.758674	-0.355432	0.716749
N102	N	1.258674	0.144568	1.216749
H103	H	0.618314	-0.204327	0.224522
H104	H	1.118314	0.295673	0.724522
C105	C	0.931872	0.215351	0.000056
C106	C	1.431872	0.715351	0.500056
N107	N	0.990129	0.175073	0.000072
N108	N	1.490129	0.675073	0.500072
H109	H	0.485769	-0.200947	0.224528
H110	H	0.985769	0.299053	0.724528
C111	C	0.758268	0.461434	0.000032
C112	C	1.258268	0.961434	0.500032
N113	N	0.700009	0.501709	0.000034
N114	N	1.200009	1.001709	0.500034
C115	C	0.180810	-0.198830	0.259889
C116	C	0.680810	0.301170	0.759889
N117	N	0.203881	-0.215785	0.362406
N118	N	0.703881	0.284215	0.862406
C119	C	0.063886	-0.113045	-0.259805
C120	C	0.563886	0.386955	0.240195
N121	N	0.040826	-0.096111	-0.362333
N122	N	0.540826	0.403889	0.137667
C123	C	0.916058	-0.002397	0.567630
C124	C	1.416058	0.497603	1.067630
N125	N	0.950812	0.075553	0.508294
N126	N	1.450812	0.575553	1.008294
H127	H	0.786085	-0.293912	0.412002
H128	H	1.286085	0.206088	0.912002
C129	C	0.217308	-0.116985	-0.259805
C130	C	0.717308	0.383015	0.240195
N131	N	0.254776	-0.101636	-0.362328
N132	N	0.754776	0.398364	0.137672
C133	C	0.963495	0.428567	0.000042
C134	C	1.463495	0.928567	0.500042
N135	N	1.021754	0.388294	0.000049
N136	N	1.521754	0.888294	0.500049
