data_functionalizedCrystal
_audit_creation_method	'MofGen! by Chris Wilmer'
_symmetry_space_group_name_H-M	'P1'
_symmetry_Int_Tables_number	1
_symmetry_cell_setting	triclinic
loop_
_symmetry_equiv_pos_as_xyz
  x,y,z
_cell_length_a	18.215407
_cell_length_b	13.031981
_cell_length_c	18.215399
_cell_angle_alpha	82.788957
_cell_angle_beta	89.980167
_cell_angle_gamma	97.192004
loop_
_atom_site_label
_atom_site_type_symbol
_atom_site_fract_x
_atom_site_fract_y
_atom_site_fract_z
Zn1	Zn	1.087918	-0.416110	-0.378877
Zn2	Zn	1.421251	-0.082776	-0.045544
Zn3	Zn	1.754585	0.250557	0.287789
Zn4	Zn	1.072220	-0.590902	-0.240168
Zn5	Zn	1.405553	-0.257568	0.093165
Zn6	Zn	1.738886	0.075765	0.426498
Zn7	Zn	0.964848	-0.416144	-0.255822
Zn8	Zn	1.298181	-0.082810	0.077512
Zn9	Zn	1.631514	0.250523	0.410845
Zn10	Zn	0.949215	-0.590844	-0.363199
Zn11	Zn	1.282548	-0.257510	-0.029865
Zn12	Zn	1.615881	0.075823	0.303468
O13	O	1.018550	-0.503500	-0.309516
O14	O	1.351883	-0.170166	0.023817
O15	O	1.685217	0.163167	0.357150
O16	O	1.188819	-0.439306	-0.360488
O17	O	1.522152	-0.105973	-0.027155
O18	O	1.855486	0.227361	0.306179
O19	O	1.057949	-0.567758	-0.139257
O20	O	1.391282	-0.234425	0.194076
O21	O	1.724616	0.098908	0.527410
O22	O	0.994285	-0.269876	-0.285258
O23	O	1.327619	0.063458	0.048076
O24	O	1.660952	0.396791	0.381409
O25	O	1.177285	-0.567725	-0.258579
O26	O	1.510619	-0.234392	0.074754
O27	O	1.843952	0.098941	0.408088
O28	O	1.084705	-0.269851	-0.375666
O29	O	1.418038	0.063483	-0.042333
O30	O	1.751371	0.396816	0.291001
O31	O	0.979063	-0.439364	-0.150757
O32	O	1.312397	-0.106031	0.182576
O33	O	1.645730	0.227302	0.515909
O34	O	0.859791	-0.439308	-0.270055
O35	O	1.193124	-0.105975	0.063279
O36	O	1.526457	0.227359	0.396612
O37	O	0.967642	-0.567626	-0.468266
O38	O	1.300975	-0.234293	-0.134933
O39	O	1.634308	0.099041	0.198401
O40	O	0.848305	-0.567659	-0.348944
O41	O	1.181638	-0.234326	-0.015611
O42	O	1.514972	0.099007	0.317723
O43	O	1.069546	-0.439250	-0.479785
O44	O	1.402880	-0.105916	-0.146452
O45	O	1.736213	0.227417	0.186881
O46	O	1.042790	-0.737158	-0.243376
O47	O	1.376124	-0.403824	0.089957
O48	O	1.709457	-0.070491	0.423291
O49	O	0.952419	-0.737115	-0.333766
O50	O	1.285753	-0.403781	-0.000432
O51	O	1.619086	-0.070448	0.332901
C52	C	0.827345	-0.503482	-0.309497
C53	C	1.160679	-0.170148	0.023836
C54	C	1.494012	0.163185	0.357170
C55	C	0.745545	-0.503499	-0.309504
C56	C	1.078878	-0.170166	0.023830
C57	C	1.412212	0.163167	0.357163
C58	C	0.551380	-0.570437	-0.350513
C59	C	0.884714	-0.237103	-0.017180
C60	C	1.218047	0.096230	0.316154
C61	C	0.474521	-0.570440	-0.350522
C62	C	0.807855	-0.237107	-0.017189
C63	C	1.141188	0.096227	0.316145
C64	C	0.486470	-0.436581	-0.268534
C65	C	0.819803	-0.103248	0.064799
C66	C	1.153137	0.230085	0.398132
C67	C	0.563328	-0.436574	-0.268530
C68	C	0.896661	-0.103240	0.064803
C69	C	1.229995	0.230093	0.398137
C70	C	0.595781	-0.503507	-0.309518
C71	C	0.929114	-0.170174	0.023816
C72	C	1.262447	0.163159	0.357149
C73	C	0.442064	-0.503518	-0.309531
C74	C	0.775397	-0.170185	0.023802
C75	C	1.108730	0.163148	0.357136
C76	C	0.358730	-0.503521	-0.309540
C77	C	0.692063	-0.170188	0.023793
C78	C	1.025396	0.163145	0.357126
C79	C	0.679120	-0.503503	-0.309510
C80	C	1.012453	-0.170170	0.023824
C81	C	1.345787	0.163164	0.357157
C82	C	0.994225	-0.775061	-0.285187
C83	C	1.327558	-0.441727	0.048146
C84	C	1.660892	-0.108394	0.381480
C85	C	0.983886	-0.891236	-0.274803
C86	C	1.317219	-0.557902	0.058530
C87	C	1.650553	-0.224569	0.391863
C88	C	1.023985	-0.942934	-0.314950
C89	C	1.357318	-0.609601	0.018383
C90	C	1.690652	-0.276268	0.351716
C91	C	1.013300	-1.063007	-0.304219
C92	C	1.346634	-0.729674	0.029114
C93	C	1.679967	-0.396341	0.362447
C94	C	1.210501	-0.503518	-0.309536
C95	C	1.543835	-0.170185	0.023797
C96	C	1.877168	0.163148	0.357130
C97	C	1.292299	-0.503526	-0.309545
C98	C	1.625633	-0.170193	0.023788
C99	C	1.958966	0.163140	0.357122
C100	C	1.018601	-0.503428	-0.501476
C101	C	1.351935	-0.170094	-0.168143
C102	C	1.685268	0.163239	0.165191
C103	C	1.018623	-0.503397	-0.583278
C104	C	1.351956	-0.170064	-0.249944
C105	C	1.685290	0.163270	0.083389
C106	C	1.042990	-0.230878	-0.333957
C107	C	1.376323	0.102455	-0.000624
C108	C	1.709657	0.435788	0.332710
C109	C	1.053405	-0.114703	-0.344372
C110	C	1.386738	0.218630	-0.011039
C111	C	1.720072	0.551964	0.322295
C112	C	1.071707	-0.436489	-0.777476
C113	C	1.405041	-0.103155	-0.444143
C114	C	1.738374	0.230178	-0.110810
C115	C	1.071719	-0.436458	-0.854338
C116	C	1.405052	-0.103125	-0.521005
C117	C	1.738386	0.230208	-0.187671
C118	C	0.965605	-0.570143	-0.842331
C119	C	1.298939	-0.236810	-0.508998
C120	C	1.632272	0.096523	-0.175665
C121	C	0.965591	-0.570168	-0.765472
C122	C	1.298925	-0.236834	-0.432138
C123	C	1.632258	0.096499	-0.098805
C124	C	1.018646	-0.503342	-0.733046
C125	C	1.351980	-0.170009	-0.399713
C126	C	1.685313	0.163325	-0.066379
C127	C	1.018672	-0.503287	-0.886767
C128	C	1.352005	-0.169954	-0.553434
C129	C	1.685339	0.163380	-0.220100
C130	C	1.018684	-0.503255	-0.970104
C131	C	1.352017	-0.169921	-0.636770
C132	C	1.685351	0.163412	-0.303437
C133	C	1.018634	-0.503373	-0.649704
C134	C	1.351967	-0.170040	-0.316371
C135	C	1.685300	0.163294	0.016962
C136	C	1.018548	-0.503496	-0.118311
C137	C	1.351881	-0.170163	0.215023
C138	C	1.685215	0.163171	0.548356
C139	C	1.018695	-0.503232	-0.036536
C140	C	1.352028	-0.169899	0.296798
C141	C	1.685362	0.163434	0.630131
H142	H	1.066223	-0.898304	-0.357269
H143	H	1.399557	-0.564971	-0.023936
H144	H	1.732890	-0.231638	0.309397
O145	O	0.962801	-1.116191	-0.253815
O146	O	1.296134	-0.782858	0.079518
O147	O	1.629467	-0.449525	0.412851
C148	C	0.891790	-1.089644	-0.272174
C149	C	1.225123	-0.756311	0.061160
C150	C	1.558457	-0.422978	0.394493
H151	H	0.890703	-1.059515	-0.333635
H152	H	1.224036	-0.726182	-0.000302
H153	H	1.557369	-0.392849	0.333031
H154	H	0.849083	-1.161535	-0.259422
H155	H	1.182416	-0.828201	0.073912
H156	H	1.515749	-0.494868	0.407245
H157	H	0.878164	-1.026420	-0.238309
H158	H	1.211497	-0.693086	0.095024
H159	H	1.544830	-0.359753	0.428357
H160	H	0.599481	-0.382065	-0.235147
H161	H	0.932814	-0.048732	0.098186
H162	H	1.266147	0.284602	0.431519
O163	O	0.914078	-0.635016	-0.722202
O164	O	1.247411	-0.301683	-0.388868
O165	O	1.580744	0.031650	-0.055535
C166	C	0.925454	-0.620722	-0.647410
C167	C	1.258787	-0.287388	-0.314076
C168	C	1.592120	0.045945	0.019257
H169	H	0.956784	-0.540064	-0.644154
H170	H	1.290117	-0.206730	-0.310821
H171	H	1.623450	0.126603	0.022512
H172	H	0.869690	-0.627815	-0.617551
H173	H	1.203023	-0.294482	-0.284218
H174	H	1.536356	0.038851	0.049116
H175	H	0.959084	-0.682726	-0.620045
H176	H	1.292417	-0.349393	-0.286712
H177	H	1.625751	-0.016059	0.046622
H178	H	1.114907	-0.382072	-0.751078
H179	H	1.448240	-0.048739	-0.417745
H180	H	1.781573	0.284594	-0.084412
H181	H	0.577801	-0.624936	-0.383890
H182	H	0.911134	-0.291603	-0.050557
H183	H	1.244468	0.041731	0.282777
H184	H	1.114926	-0.382018	-0.890510
H185	H	1.448259	-0.048685	-0.557177
H186	H	1.781592	0.284649	-0.223844
O187	O	0.431496	-0.635556	-0.390358
O188	O	0.764829	-0.302223	-0.057024
O189	O	1.098163	0.031110	0.276309
C190	C	0.476626	-0.694607	-0.426547
C191	C	0.809960	-0.361274	-0.093213
C192	C	1.143293	-0.027940	0.240120
H193	H	0.531080	-0.698167	-0.396074
H194	H	0.864413	-0.364834	-0.062741
H195	H	1.197747	-0.031500	0.270593
H196	H	0.447046	-0.776974	-0.426926
H197	H	0.780380	-0.443641	-0.093593
H198	H	1.113713	-0.110307	0.239740
H199	H	0.488245	-0.656432	-0.485902
H200	H	0.821578	-0.323099	-0.152569
H201	H	1.154912	0.010234	0.180764
H202	H	1.095646	-1.070076	-0.386694
H203	H	1.428979	-0.736743	-0.053360
H204	H	1.762313	-0.403409	0.279973
O205	O	0.933389	-0.944424	-0.224402
O206	O	1.266723	-0.611090	0.108931
O207	O	1.600056	-0.277757	0.442264
C208	C	0.862379	-0.917877	-0.242761
C209	C	1.195712	-0.584544	0.090573
C210	C	1.529045	-0.251210	0.423906
H211	H	0.861291	-0.887748	-0.304222
H212	H	1.194625	-0.554414	0.029111
H213	H	1.527958	-0.221081	0.362444
H214	H	0.819671	-0.989767	-0.230009
H215	H	1.153005	-0.656434	0.103325
H216	H	1.486338	-0.323100	0.436658
H217	H	0.848752	-0.854652	-0.208896
H218	H	1.182086	-0.521319	0.124437
H219	H	1.515419	-0.187986	0.457770
O220	O	0.914146	-0.635026	-0.873948
O221	O	1.247479	-0.301692	-0.540614
O222	O	1.580812	0.031641	-0.207281
C223	C	0.925524	-0.620653	-0.951315
C224	C	1.258857	-0.287320	-0.617982
C225	C	1.592191	0.046013	-0.284648
H226	H	0.985388	-0.586422	-0.964893
H227	H	1.318722	-0.253089	-0.631560
H228	H	1.652055	0.080244	-0.298226
H229	H	0.913521	-0.698935	-0.973503
H230	H	1.246854	-0.365602	-0.640170
H231	H	1.580187	-0.032268	-0.306837
H232	H	0.886865	-0.564984	-0.978110
H233	H	1.220199	-0.231651	-0.644777
H234	H	1.553532	0.101683	-0.311444
H235	H	0.460037	-0.382088	-0.235162
H236	H	0.793371	-0.048755	0.098171
H237	H	1.126704	0.284579	0.431504
