data_functionalizedCrystal
_audit_creation_method	'MofGen! by Chris Wilmer'
_symmetry_space_group_name_H-M	'P1'
_symmetry_Int_Tables_number	1
_symmetry_cell_setting	triclinic
loop_
_symmetry_equiv_pos_as_xyz
  x,y,z
_cell_length_a	9.065218
_cell_length_b	27.732048
_cell_length_c	8.140239
_cell_angle_alpha	89.991555
_cell_angle_beta	89.997198
_cell_angle_gamma	83.829270
loop_
_atom_site_label
_atom_site_type_symbol
_atom_site_fract_x
_atom_site_fract_y
_atom_site_fract_z
O1	O	1.955891	0.070866	-0.136639
O2	O	1.526237	0.076679	-0.136643
O3	O	1.754408	0.003467	-0.136609
O4	O	1.727720	0.144079	-0.136672
O5	O	1.754396	0.003466	0.136618
O6	O	1.526224	0.076678	0.136584
O7	O	1.955879	0.070866	0.136588
Zn8	Zn	1.741050	0.073772	0.179967
Zn9	Zn	1.741066	0.073773	-0.180021
O10	O	1.727708	0.144078	0.136555
C11	C	1.471280	0.076120	-0.000029
C12	C	1.307543	0.074450	-0.000029
C13	C	1.753842	-0.014544	0.000009
C14	C	1.752155	-0.068210	0.000022
C15	C	1.876369	-0.406178	-0.000061
C16	C	1.870110	-0.607880	-0.000084
O17	O	1.983695	-0.638360	-0.000155
N18	N	1.734814	-0.627927	-0.000083
C19	C	1.601073	-0.597545	-0.000088
O20	O	1.485852	-0.619225	-0.000105
C21	C	1.607334	-0.395844	-0.000077
C22	C	1.742639	-0.375800	-0.000061
C23	C	2.011663	-0.386133	-0.000046
C24	C	2.013226	-0.335710	-0.000032
C25	C	1.879496	-0.305332	-0.000031
C26	C	1.744202	-0.325377	-0.000046
C27	C	1.473594	-0.365463	-0.000094
C28	C	1.475171	-0.315035	-0.000095
C29	C	1.610476	-0.294991	-0.000079
C30	C	1.612034	-0.244577	-0.000031
N31	N	1.747331	-0.224529	-0.000031
C32	C	1.881061	-0.254907	-0.000032
C33	C	1.597796	-0.703442	-0.000091
C34	C	1.596230	-0.753867	-0.000091
C35	C	1.865268	-0.764198	-0.000089
C36	C	1.866832	-0.713772	-0.000078
C37	C	1.733092	-0.683395	-0.000091
C38	C	1.884334	-0.149016	0.000001
C39	C	1.885886	-0.098588	0.000022
C40	C	1.616849	-0.088262	0.000012
C41	C	1.615296	-0.138685	-0.000001
C42	C	1.749051	-0.169061	-0.000012
O43	O	1.498510	-0.214067	0.000021
O44	O	1.996266	-0.233218	-0.000051
C45	C	1.874806	-0.456600	-0.000076
C46	C	1.739512	-0.476645	-0.000090
C47	C	1.605781	-0.446267	-0.000090
C48	C	1.737946	-0.527070	-0.000090
C49	C	1.871677	-0.557448	-0.000090
C50	C	2.006973	-0.537401	-0.000090
C51	C	2.008537	-0.486978	-0.000076
C52	C	1.470485	-0.466314	-0.000090
C53	C	1.468933	-0.516737	-0.000102
C54	C	1.602663	-0.547115	-0.000103
C55	C	2.010836	0.071425	-0.000029
C56	C	2.174573	0.073095	-0.000039
C57	C	1.728274	0.162089	-0.000067
C58	C	1.729961	0.215755	-0.000091
N59	N	1.741049	0.073771	0.425650
N60	N	1.741078	0.073770	-0.425704
H61	H	1.996072	-0.082271	0.000040
H62	H	1.507969	-0.063519	0.000018
C63	C	1.316136	-0.403610	-0.140533
C64	C	1.323472	-0.432929	-0.000086
H65	H	1.225364	-0.383004	-0.140526
H66	H	1.396913	-0.384451	-0.140516
H67	H	1.321131	-0.423495	-0.235808
H68	H	1.318489	-0.413044	0.095191
H69	H	1.242674	-0.452090	-0.000088
H70	H	1.977009	-0.697456	-0.000066
C71	C	2.124006	-0.619290	-0.000123
C72	C	2.153973	-0.570799	-0.000102
H73	H	2.214754	-0.639909	-0.000149
H74	H	2.068491	-0.625432	0.095153
H75	H	2.068470	-0.625415	-0.095408
H76	H	2.209501	-0.564673	0.095189
H77	H	2.209513	-0.564654	-0.095389
H78	H	2.118716	-0.470663	-0.000063
C79	C	2.038669	-0.211720	0.140445
C80	C	2.031356	-0.182402	-0.000002
H81	H	2.129430	-0.232332	0.140442
H82	H	2.033674	-0.191838	0.235711
H83	H	1.957872	-0.230877	0.140416
H84	H	2.112147	-0.163241	0.000034
H85	H	2.036365	-0.202285	-0.095292
H86	H	2.120569	-0.410862	-0.000052
C87	C	1.349522	-0.123405	-0.000018
C88	C	1.466569	-0.160720	-0.000021
H89	H	1.257705	-0.137008	-0.000056
H90	H	1.355714	-0.103964	0.095273
H91	H	1.355755	-0.103942	-0.095289
H92	H	1.460342	-0.180181	0.095257
H93	H	1.460374	-0.180170	-0.095321
C94	C	1.982304	-0.846087	-0.000127
C95	C	2.012269	-0.797596	-0.000113
H96	H	2.073052	-0.866706	-0.000163
H97	H	1.926799	-0.852229	0.095158
H98	H	1.926757	-0.852212	-0.095404
H99	H	2.067806	-0.791469	0.095170
H100	H	2.067797	-0.791451	-0.095408
H101	H	2.123406	-0.319395	-0.000025
C102	C	1.443452	-0.640748	0.140358
C103	C	1.450779	-0.670052	-0.000094
H104	H	1.352694	-0.620135	0.140351
H105	H	1.448433	-0.660639	0.235620
H106	H	1.524252	-0.621591	0.140338
H107	H	1.369985	-0.689212	-0.000068
H108	H	1.445783	-0.650160	-0.095381
C109	C	1.330461	-0.738578	-0.000106
C110	C	1.447499	-0.775896	-0.000095
H111	H	1.238639	-0.752177	-0.000127
H112	H	1.336664	-0.719132	0.095172
H113	H	1.336694	-0.719120	-0.095390
H114	H	1.441271	-0.795352	0.095195
H115	H	1.441293	-0.795350	-0.095383
C116	C	1.246341	-0.290700	-0.140567
C117	C	1.328155	-0.281645	-0.000105
H118	H	1.155578	-0.270089	-0.140563
H119	H	1.301875	-0.284549	-0.235823
H120	H	1.226066	-0.323602	-0.140558
H121	H	1.348439	-0.248744	-0.000121
H122	H	1.272610	-0.287792	0.095175
H123	H	1.363415	-0.381774	-0.000117
H124	H	1.358743	-0.533052	-0.000101
