data_functionalizedCrystal
_audit_creation_method	'MofGen! by Chris Wilmer'
_symmetry_space_group_name_H-M	'P1'
_symmetry_Int_Tables_number	1
_symmetry_cell_setting	triclinic
loop_
_symmetry_equiv_pos_as_xyz
  x,y,z
_cell_length_a	13.635800
_cell_length_b	11.164123
_cell_length_c	11.102288
_cell_angle_alpha	88.373674
_cell_angle_beta	71.394311
_cell_angle_gamma	109.526648
loop_
_atom_site_label
_atom_site_type_symbol
_atom_site_fract_x
_atom_site_fract_y
_atom_site_fract_z
V1	V	2.061266	0.396257	-0.175839
O2	O	2.040678	0.388714	0.008450
O3	O	2.049617	0.393547	-0.348659
O4	O	2.052056	0.569079	-0.173134
O5	O	2.038222	0.211967	-0.168290
V6	V	2.299512	0.374215	-0.153796
O7	O	2.199609	0.444609	-0.224193
O8	O	2.386268	0.325863	-0.105443
O9	O	2.199558	0.376925	0.019024
O10	O	2.378799	0.381758	-0.338085
O11	O	2.381254	0.558504	-0.161345
O12	O	2.197119	0.201393	-0.156501
V13	V	2.561266	0.396257	-0.175839
O14	O	2.540678	0.388714	0.008450
O15	O	2.549617	0.393547	-0.348659
O16	O	2.552056	0.569079	-0.173134
O17	O	2.538222	0.211967	-0.168290
V18	V	2.799512	0.374215	-0.153796
O19	O	2.699609	0.444609	-0.224193
O20	O	2.886268	0.325863	-0.105443
O21	O	2.699558	0.376925	0.019024
O22	O	2.878799	0.381758	-0.338085
O23	O	2.881254	0.558504	-0.161345
O24	O	2.697119	0.201393	-0.156501
C25	C	1.974686	0.387296	-0.390789
C26	C	2.005905	0.386232	-0.532072
C27	C	2.112663	0.392073	-0.604920
C28	C	2.141994	0.391084	-0.737672
C29	C	1.957795	0.378407	-0.724714
C30	C	1.928468	0.379406	-0.591966
C31	C	1.977796	0.611202	-0.166888
C32	C	2.010991	0.752485	-0.165820
C33	C	2.149863	0.958090	-0.170652
C34	C	2.118683	0.825342	-0.171663
C35	C	1.934478	0.812384	-0.158978
C36	C	1.965661	0.945131	-0.157976
C37	C	2.106160	0.383172	0.061147
C38	C	2.064561	0.384244	0.202429
C39	C	2.106537	1.159263	-0.162750
C40	C	2.073354	1.017980	-0.163806
C41	C	2.474686	0.387296	-0.390789
C42	C	2.505905	0.386232	-0.532072
C43	C	2.477796	0.611202	-0.166888
C44	C	2.510991	0.752485	-0.165820
C45	C	2.606160	0.383172	0.061147
C46	C	2.564561	0.384244	0.202429
C47	C	2.603049	0.159263	-0.162751
C48	C	2.559474	0.017979	-0.163813
C49	C	2.612663	0.392073	-0.604920
C50	C	2.641994	0.391084	-0.737672
C51	C	2.457795	0.378407	-0.724714
C52	C	2.428468	0.379406	-0.591966
C53	C	2.618681	0.825334	-0.171666
C54	C	2.649864	0.958082	-0.170658
C55	C	2.465656	0.945122	-0.157964
C56	C	2.434473	0.812374	-0.158963
H57	H	2.175719	0.397630	-0.556159
Cl58	Cl	2.710016	0.400667	-0.529631
H59	H	2.728925	0.395842	-0.796980
Cl60	Cl	2.299079	0.720785	-0.151610
H61	H	2.394752	0.372846	-0.773495
Cl62	Cl	2.714874	0.750047	-0.180279
H63	H	2.341531	0.374654	-0.532651
Cl64	Cl	2.785250	1.049659	-0.178008
H65	H	2.403363	0.993901	-0.152384
H66	H	1.903353	0.993895	-0.152405
Cl67	Cl	2.276209	0.398430	-0.829248
H68	H	1.841531	0.374654	-0.532651
Cl69	Cl	1.860452	0.369816	-0.800017
Cl70	Cl	1.799096	0.720793	-0.151643
Cl71	Cl	2.285248	1.049667	-0.177986
H72	H	2.180987	0.776586	-0.177240
