data_functionalizedCrystal
_audit_creation_method	'MofGen! by Chris Wilmer'
_symmetry_space_group_name_H-M	'P1'
_symmetry_Int_Tables_number	1
_symmetry_cell_setting	triclinic
loop_
_symmetry_equiv_pos_as_xyz
  x,y,z
_cell_length_a	30.700809
_cell_length_b	30.711276
_cell_length_c	30.700862
_cell_angle_alpha	59.998386
_cell_angle_beta	89.999414
_cell_angle_gamma	60.000191
loop_
_atom_site_label
_atom_site_type_symbol
_atom_site_fract_x
_atom_site_fract_y
_atom_site_fract_z
O1	O	-0.371254	-0.311651	0.012944
O2	O	-0.307913	-0.222487	-0.012907
O3	O	-0.307911	-0.311650	0.076286
O4	O	-0.371257	-0.222488	-0.076249
O5	O	-0.235466	-0.384070	0.076286
O6	O	-0.235468	-0.294907	-0.012907
O7	O	-0.298809	-0.384071	0.012944
Zn8	Zn	-0.255636	-0.350987	0.000018
Zn9	Zn	-0.351086	-0.255571	0.000019
O10	O	-0.298812	-0.294908	-0.076249
C11	C	-0.234796	-0.137097	-0.018777
C12	C	-0.261674	-0.083360	-0.015076
C13	C	-0.182374	-0.163176	-0.019143
C14	C	-0.234798	-0.215942	-0.018783
C15	C	-0.261678	-0.246507	-0.015089
C16	C	-0.182376	-0.241901	-0.019150
C17	C	-0.155920	-0.215947	-0.018777
C18	C	-0.098463	-0.246515	-0.015075
C19	C	-0.261132	-0.163172	-0.019150
C20	C	-0.574961	-0.535511	0.039265
C21	C	-0.548506	-0.588283	0.039634
C22	C	-0.496086	-0.535509	0.039262
C23	C	-0.469751	-0.588281	0.039632
C24	C	-0.496085	-0.614360	0.039265
C25	C	-0.548507	-0.509552	0.039632
C26	C	-0.765169	-0.393516	0.024987
C27	C	-0.819034	-0.364488	0.020950
C28	C	-0.846055	-0.389406	0.018925
C29	C	-0.904462	-0.357927	0.014538
C30	C	-0.819206	-0.443357	0.020941
C31	C	-0.765344	-0.472385	0.024984
C32	C	-0.738325	-0.447463	0.027007
C33	C	-0.447920	-0.790230	0.024988
C34	C	-0.423094	-0.840041	0.020951
C35	C	-0.371150	-0.865027	0.018921
C36	C	-0.344230	-0.919028	0.014536
C37	C	-0.344030	-0.840201	0.020935
C38	C	-0.368852	-0.790399	0.024981
C39	C	-0.420803	-0.765414	0.027004
C40	C	-0.447922	-0.393510	0.024977
C41	C	-0.423099	-0.364475	0.020931
C42	C	-0.371152	-0.389391	0.018903
C43	C	-0.344235	-0.357911	0.014513
C44	C	-0.344034	-0.443338	0.020916
C45	C	-0.368860	-0.472368	0.024960
C46	C	-0.420804	-0.447452	0.026995
C47	C	-0.679920	-0.478941	0.031387
C48	C	-0.633366	-0.504032	0.034880
C49	C	-0.469171	-0.504029	0.034875
C50	C	-0.447717	-0.478936	0.031380
C51	C	-0.469170	-0.668361	0.034880
C52	C	-0.447716	-0.711408	0.031386
C53	C	-0.496432	-0.071057	-0.503890
C54	C	-0.548853	-0.018285	-0.530226
C55	C	-0.496432	-0.071056	-0.425015
C56	C	-0.548854	-0.018284	-0.451470
C57	C	-0.575308	0.007793	-0.503892
C58	C	-0.470097	-0.097014	-0.451469
C59	C	-0.368666	-0.213054	-0.552051
C60	C	-0.343664	-0.242084	-0.576877
C61	C	-0.370616	-0.217167	-0.628824
C62	C	-0.343513	-0.248647	-0.655741
C63	C	-0.422570	-0.163216	-0.655945
C64	C	-0.447565	-0.134187	-0.631122
C65	C	-0.420611	-0.159108	-0.579173
C66	C	-0.765518	0.183662	-0.631659
C67	C	-0.819384	0.233473	-0.656662
C68	C	-0.846408	0.258459	-0.629712
C69	C	-0.904813	0.312461	-0.656813
C70	C	-0.819559	0.233635	-0.577758
C71	C	-0.765694	0.183833	-0.552761
C72	C	-0.738677	0.158847	-0.579717
C73	C	-0.368668	-0.213052	-0.234803
C74	C	-0.343669	-0.242086	-0.180935
C75	C	-0.370621	-0.217169	-0.153914
C76	C	-0.343519	-0.248648	-0.095506
C77	C	-0.422573	-0.163222	-0.180762
C78	C	-0.447570	-0.134193	-0.234627
C79	C	-0.420610	-0.159111	-0.261646
C80	C	-0.447720	-0.127629	-0.552258
C81	C	-0.469327	-0.102536	-0.530805
C82	C	-0.469328	-0.102535	-0.366609
C83	C	-0.447721	-0.127627	-0.320054
C84	C	-0.633714	0.061794	-0.530997
C85	C	-0.680269	0.104841	-0.552605
O86	O	0.076277	-0.384081	0.012960
O87	O	-0.076257	-0.294916	-0.012894
O88	O	0.012931	-0.384083	0.076300
O89	O	-0.012910	-0.294914	-0.076234
O90	O	0.012933	-0.311666	0.076306
O91	O	-0.076254	-0.222499	-0.012888
O92	O	0.076280	-0.311664	0.012966
Zn93	Zn	0.000013	-0.255584	0.000040
Zn94	Zn	0.000010	-0.350996	0.000032
O95	O	-0.012908	-0.222497	-0.076228
O96	O	-0.298805	0.063292	0.012964
O97	O	-0.235462	-0.063346	-0.012888
O98	O	-0.235465	-0.063353	0.076305
O99	O	-0.298803	0.063300	-0.076229
O100	O	-0.307912	-0.063350	0.076299
O101	O	-0.307909	-0.063342	-0.012895
O102	O	-0.371252	0.063295	0.012958
Zn103	Zn	-0.351083	-0.000023	0.000031
Zn104	Zn	-0.255631	-0.000027	0.000039
O105	O	-0.371250	0.063303	-0.076236
O106	O	-1.076607	0.456783	-0.692421
O107	O	-0.924074	0.330140	-0.629074
O108	O	-1.013262	0.330138	-0.629073
O109	O	-0.987418	0.456785	-0.692422
O110	O	-1.013261	0.330136	-0.701518
O111	O	-0.924072	0.330138	-0.701518
O112	O	-1.076605	0.456781	-0.764865
Zn113	Zn	-1.000338	0.393459	-0.744694
Zn114	Zn	-1.000340	0.393461	-0.649245
O115	O	-0.987417	0.456783	-0.764866
O116	O	-0.307911	-0.311650	-0.764507
O117	O	-0.371254	-0.222491	-0.701165
O118	O	-0.371252	-0.311652	-0.701162
O119	O	-0.307912	-0.222489	-0.764510
O120	O	-0.298806	-0.384074	-0.628716
O121	O	-0.298807	-0.294912	-0.628719
O122	O	-0.235464	-0.384072	-0.692061
Zn123	Zn	-0.255634	-0.350991	-0.648887
Zn124	Zn	-0.351085	-0.255572	-0.744338
O125	O	-0.235466	-0.294910	-0.692064
C126	C	-0.155920	-0.469469	0.234827
C127	C	-0.098464	-0.523208	0.261706
C128	C	-0.182375	-0.443392	0.261162
C129	C	-0.234797	-0.390619	0.155950
C130	C	-0.261676	-0.360052	0.098494
C131	C	-0.261132	-0.364662	0.182405
C132	C	-0.234797	-0.390620	0.234826
C133	C	-0.261675	-0.360052	0.261704
C134	C	-0.182375	-0.443391	0.182406
C135	C	0.018810	-0.390643	0.234846
C136	C	0.015111	-0.360079	0.261727
C137	C	0.019176	-0.443414	0.261179
C138	C	0.018812	-0.390637	0.155967
C139	C	0.015115	-0.360067	0.098511
C140	C	0.019178	-0.443408	0.182420
C141	C	0.018807	-0.469488	0.234841
C142	C	0.015106	-0.523226	0.261717
C143	C	0.019180	-0.364683	0.182425
C144	C	-0.234799	-0.215977	0.234834
C145	C	-0.261678	-0.246545	0.261708
C146	C	-0.182376	-0.241940	0.261172
C147	C	-0.234798	-0.137119	0.155964
C148	C	-0.261676	-0.083372	0.098509
C149	C	-0.182375	-0.163202	0.182421
C150	C	-0.155921	-0.215981	0.234841
C151	C	-0.098464	-0.246554	0.261721
C152	C	-0.261134	-0.163198	0.182415
C153	C	-0.039199	0.007461	-0.503869
C154	C	-0.039568	-0.018614	-0.530207
C155	C	-0.039203	-0.071390	-0.424995
C156	C	-0.039572	-0.097344	-0.451452
C157	C	-0.039201	-0.071385	-0.503874
C158	C	-0.039570	-0.018618	-0.451448
C159	C	-0.024912	0.183325	-0.552025
C160	C	-0.020873	0.233135	-0.576849
C161	C	-0.018844	0.258123	-0.628796
C162	C	-0.014454	0.312124	-0.655711
C163	C	-0.020859	0.233301	-0.655918
C164	C	-0.024906	0.183500	-0.631097
C165	C	-0.026932	0.158512	-0.579148
C166	C	-0.024920	-0.133799	-0.631644
C167	C	-0.020882	-0.162650	-0.656647
C168	C	-0.018855	-0.216605	-0.629699
C169	C	-0.014470	-0.247897	-0.656801
C170	C	-0.020872	-0.241704	-0.577746
C171	C	-0.024919	-0.212847	-0.552747
C172	C	-0.026939	-0.158893	-0.579702
C173	C	-0.024929	-0.133823	-0.234783
C174	C	-0.020887	-0.162684	-0.180915
C175	C	-0.018862	-0.216639	-0.153896
C176	C	-0.014477	-0.247936	-0.095488
C177	C	-0.020875	-0.241733	-0.180745
C178	C	-0.024915	-0.212872	-0.234610
C179	C	-0.026947	-0.158912	-0.261627
C180	C	-0.031316	0.104507	-0.552235
C181	C	-0.034811	0.061462	-0.530782
C182	C	-0.034820	-0.102682	-0.366590
C183	C	-0.031328	-0.127624	-0.320035
C184	C	-0.034816	-0.102672	-0.530980
C185	C	-0.031322	-0.127610	-0.552588
O186	O	-0.012940	-0.294936	0.371303
O187	O	0.012923	-0.384099	0.307961
O188	O	-0.076273	-0.294935	0.307950
O189	O	0.076257	-0.384100	0.371315
O190	O	-0.076265	-0.222515	0.235508
O191	O	0.012932	-0.311679	0.235520
O192	O	-0.012931	-0.222517	0.298862
Zn193	Zn	0.000002	-0.255600	0.255689
Zn194	Zn	-0.000010	-0.351016	0.351134
O195	O	0.076266	-0.311681	0.298873
C196	C	-0.574962	0.464558	-0.503864
C197	C	-0.548506	0.490518	-0.530195
C198	C	-0.496085	0.385697	-0.424987
C199	C	-0.469749	0.411776	-0.451438
C200	C	-0.496084	0.464555	-0.503857
C201	C	-0.548507	0.411779	-0.451444
C202	C	-0.765173	0.526994	-0.552039
C203	C	-0.819039	0.555852	-0.576867
C204	C	-0.846061	0.609814	-0.628812
C205	C	-0.904469	0.641114	-0.655732
C206	C	-0.819211	0.634913	-0.655928
C207	C	-0.765348	0.606050	-0.631102
C208	C	-0.738329	0.552088	-0.579155
C209	C	-0.447916	0.606561	-0.631604
C210	C	-0.423088	0.635592	-0.656601
C211	C	-0.371143	0.610674	-0.629648
C212	C	-0.344222	0.642150	-0.656742
C213	C	-0.344023	0.556716	-0.577696
C214	C	-0.368845	0.527681	-0.552704
C215	C	-0.420798	0.552613	-0.579664
C216	C	-0.447920	0.209802	-0.234786
C217	C	-0.423096	0.159988	-0.180919
C218	C	-0.371148	0.134996	-0.153895
C219	C	-0.344230	0.080987	-0.095489
C220	C	-0.344029	0.159823	-0.180737
C221	C	-0.368856	0.209637	-0.234602
C222	C	-0.420801	0.234620	-0.261624
C223	C	-0.679923	0.520797	-0.552238
C224	C	-0.633367	0.495853	-0.530781
C225	C	-0.469169	0.331687	-0.366583
C226	C	-0.447714	0.288634	-0.320030
C227	C	-0.469167	0.496035	-0.530956
C228	C	-0.447712	0.521128	-0.552558
H229	H	-0.161137	-0.141349	-0.019737
C230	C	-0.287603	-0.867451	0.018815
C231	C	-0.254312	-0.929510	0.062016
C232	C	-0.202330	-0.954634	0.060074
H233	H	-0.274932	-0.845611	0.020617
H234	H	-0.287595	-0.864245	-0.013609
H235	H	-0.254318	-0.932712	0.094431
H236	H	-0.266966	-0.951366	0.060222
H237	H	-0.202322	-0.951428	0.027650
H238	H	-0.189664	-0.932790	0.061875
H239	H	-0.179737	-0.996745	0.089382
C240	C	-0.154119	-0.472555	0.318633
C241	C	-0.182499	-0.490071	0.350781
C242	C	-0.156484	-0.516951	0.403727
H243	H	-0.152288	-0.443666	0.320757
H244	H	-0.119051	-0.507806	0.330622
H245	H	-0.217558	-0.454824	0.338796
H246	H	-0.184332	-0.518966	0.348673
H247	H	-0.121415	-0.552203	0.415716
H248	H	-0.154654	-0.488059	0.405845
H249	H	-0.175733	-0.528845	0.425546
C250	C	-0.153989	-0.298594	-0.019834
C251	C	-0.108349	-0.346831	0.025574
C252	C	-0.082188	-0.399065	0.024964
H253	H	-0.143956	-0.289472	-0.050905
H254	H	-0.177235	-0.310434	-0.019969
H255	H	-0.085107	-0.334993	0.025704
H256	H	-0.118366	-0.355972	0.056651
H257	H	-0.105434	-0.410905	0.024829
H258	H	-0.072159	-0.389937	-0.006108
H259	H	-0.051221	-0.431802	0.055775
H260	H	-0.841216	0.678847	-0.698222
H261	H	-0.304201	-0.322192	0.161160
C262	C	-0.339332	-0.763513	0.027132
C263	C	-0.288532	-0.796041	0.024478
C264	C	-0.261327	-0.771285	0.026449
H265	H	-0.335973	-0.766754	0.059560
H266	H	-0.358693	-0.721411	-0.002167
H267	H	-0.269175	-0.838133	0.053774
H268	H	-0.291875	-0.792803	-0.007947
H269	H	-0.280688	-0.729183	-0.002850
H270	H	-0.257972	-0.774527	0.058877
H271	H	-0.226858	-0.793347	0.024643
H272	H	-0.346761	0.483749	-0.510407
H273	H	-0.301736	-0.463624	0.019263
C274	C	-0.318601	-0.133973	-0.020059
C275	C	-0.350753	-0.073457	-0.065949
C276	C	-0.403695	-0.046545	-0.066810
H277	H	-0.320716	-0.133697	0.010680
H278	H	-0.330591	-0.157040	-0.020261
H279	H	-0.338767	-0.050395	-0.065742
H280	H	-0.348654	-0.073715	-0.096695
H281	H	-0.415685	-0.069612	-0.067013
H282	H	-0.405805	-0.046273	-0.036070
H283	H	-0.425518	-0.005484	-0.097949
C284	C	-0.848618	0.260523	-0.713069
C285	C	-0.901571	0.309497	-0.729197
C286	C	-0.928516	0.334434	-0.781158
H287	H	-0.847989	0.229711	-0.713898
H288	H	-0.831609	0.275042	-0.736551
H289	H	-0.918576	0.294977	-0.705721
H290	H	-0.902216	0.340322	-0.728380
H291	H	-0.911506	0.348953	-0.804640
H292	H	-0.927882	0.303617	-0.781982
H293	H	-0.964445	0.367669	-0.792109
H294	H	-0.161136	-0.141377	0.161182
C295	C	-0.153971	-0.472459	0.154091
C296	C	-0.108338	-0.472675	0.151486
C297	C	-0.082159	-0.499433	0.125400
H298	H	-0.177194	-0.449375	0.119001
H299	H	-0.143934	-0.513557	0.173261
H300	H	-0.118376	-0.431584	0.132315
H301	H	-0.085102	-0.495761	0.186569
H302	H	-0.072123	-0.540531	0.144570
H303	H	-0.105387	-0.476347	0.090312
H304	H	-0.051193	-0.499588	0.123634
H305	H	0.019779	-0.465234	0.161179
H306	H	-0.161141	-0.284407	0.304244
C307	C	-0.318600	-0.134040	0.154149
C308	C	-0.350760	-0.116540	0.182527
C309	C	-0.403699	-0.089669	0.156500
H310	H	-0.320712	-0.162930	0.152308
H311	H	-0.330588	-0.098783	0.119084
H312	H	-0.338776	-0.151792	0.217583
H313	H	-0.348664	-0.087643	0.184370
H314	H	-0.415686	-0.054411	0.121434
H315	H	-0.405805	-0.118562	0.154660
H316	H	-0.425526	-0.077786	0.175747
H317	H	-0.040166	-0.139808	-0.430213
H318	H	-0.426680	-0.610102	0.040221
C319	C	-0.040287	0.010532	-0.587615
C320	C	-0.040487	0.062397	-0.605105
C321	C	-0.041123	0.089241	-0.657975
H322	H	-0.071371	0.022511	-0.609601
H323	H	-0.009488	-0.018420	-0.589626
H324	H	-0.071282	0.091343	-0.603098
H325	H	-0.009406	0.050434	-0.583133
H326	H	-0.010325	0.060289	-0.659986
H327	H	-0.072208	0.101216	-0.679957
H328	H	-0.041254	0.124430	-0.669847
H329	H	-0.490215	0.626864	-0.653559
H330	H	0.019760	-0.465234	0.304248
C331	C	-0.576916	-0.617291	0.040419
C332	C	-0.628588	-0.583133	0.040650
C333	C	-0.654772	-0.609838	0.041374
H334	H	-0.557783	-0.658357	0.071523
H335	H	-0.578769	-0.617501	0.009640
H336	H	-0.626732	-0.582931	0.071426
H337	H	-0.647735	-0.542068	0.009549
H338	H	-0.656624	-0.610048	0.010596
H339	H	-0.635634	-0.650903	0.072479
H340	H	-0.689835	-0.586663	0.041526
C341	C	-0.040394	0.010590	-0.423225
C342	C	-0.040642	0.062487	-0.457631
C343	C	-0.041411	0.089413	-0.431654
H344	H	-0.009635	-0.018291	-0.392232
H345	H	-0.071515	0.022542	-0.413267
H346	H	-0.009524	0.050534	-0.467582
H347	H	-0.071399	0.091381	-0.488625
H348	H	-0.072532	0.101366	-0.421696
H349	H	-0.010651	0.060529	-0.400662
H350	H	-0.041584	0.124632	-0.454996
C351	C	-0.452436	0.694161	-0.713005
C352	C	-0.419571	0.714243	-0.729127
C353	C	-0.446586	0.768191	-0.781086
H354	H	-0.484087	0.725172	-0.713833
H355	H	-0.461395	0.686119	-0.736492
H356	H	-0.410619	0.722288	-0.705648
H357	H	-0.387920	0.683248	-0.728313
H358	H	-0.455546	0.760149	-0.804573
H359	H	-0.478237	0.799197	-0.781909
H360	H	-0.424290	0.781820	-0.792034
H361	H	-0.019235	-0.142256	-0.159055
C362	C	-0.027097	-0.075263	-0.264016
C363	C	-0.024451	-0.059475	-0.228971
C364	C	-0.026438	-0.005540	-0.255881
H365	H	-0.059526	-0.042792	-0.293207
H366	H	0.002199	-0.081863	-0.276843
H367	H	-0.053744	-0.052871	-0.216152
H368	H	0.007976	-0.091931	-0.199779
H369	H	0.002857	-0.012140	-0.268709
H370	H	-0.058868	0.026927	-0.285072
H371	H	-0.024638	0.005176	-0.232107
H372	H	-0.444508	-0.142931	-0.698242
H373	H	-0.569749	-0.467085	0.040220
H374	H	-0.445184	-0.320548	0.019287
H375	H	-0.490220	-0.373215	0.026628
C376	C	0.019888	-0.308005	0.154138
C377	C	-0.025513	-0.259771	0.151534
C378	C	-0.024878	-0.207554	0.125484
H379	H	0.020031	-0.296133	0.119048
H380	H	0.050972	-0.317174	0.173332
H381	H	-0.056590	-0.250602	0.132339
H382	H	-0.025666	-0.271623	0.186616
H383	H	0.006207	-0.216723	0.144679
H384	H	-0.024733	-0.195688	0.090397
H385	H	-0.055679	-0.174823	0.123718
H386	H	-0.445183	0.139782	-0.159066
H387	H	-0.026563	0.162985	-0.509727
C388	C	-0.018659	0.259972	-0.547303
C389	C	-0.021285	0.227418	-0.496493
C390	C	-0.019238	0.252116	-0.469256
H391	H	-0.047932	0.302071	-0.566620
H392	H	0.013791	0.256697	-0.543969
H393	H	-0.053731	0.230699	-0.499829
H394	H	0.007986	0.185319	-0.477161
H395	H	0.013212	0.248841	-0.465922
H396	H	-0.048512	0.294215	-0.488578
H397	H	-0.021015	0.230029	-0.434777
H398	H	-0.301723	0.536422	-0.555753
H399	H	-0.019210	0.253653	-0.698214
H400	H	-0.019237	-0.142213	-0.698946
H401	H	-0.427024	-0.139478	-0.430231
H402	H	-0.743175	-0.373219	0.026636
H403	H	-0.026547	0.163294	-0.653183
C404	C	-0.027140	-0.075205	-0.661008
C405	C	-0.024526	-0.059391	-0.711859
C406	C	-0.026577	-0.005416	-0.738924
H407	H	0.002134	-0.081749	-0.641617
H408	H	-0.059589	-0.042768	-0.664271
H409	H	0.007919	-0.091820	-0.708594
H410	H	-0.053798	-0.052835	-0.731264
H411	H	-0.059025	0.027021	-0.742187
H412	H	0.002699	-0.011966	-0.719528
H413	H	-0.024808	0.005324	-0.773431
C414	C	-0.287620	0.132588	-0.151314
C415	C	-0.271675	0.083640	-0.098401
C416	C	-0.219715	0.058533	-0.071284
H417	H	-0.286724	0.163327	-0.151865
H418	H	-0.264083	0.118009	-0.168258
H419	H	-0.295205	0.098219	-0.081461
H420	H	-0.272559	0.052887	-0.097834
H421	H	-0.196178	0.043954	-0.088228
H422	H	-0.218823	0.089277	-0.071839
H423	H	-0.208887	0.025315	-0.035381
C424	C	-0.018643	-0.300300	-0.548564
C425	C	-0.014657	-0.320210	-0.581569
C426	C	-0.012592	-0.374194	-0.554702
H427	H	-0.050151	-0.292370	-0.539596
H428	H	0.011570	-0.331352	-0.516919
H429	H	-0.044867	-0.289165	-0.613204
H430	H	0.016850	-0.328153	-0.590539
H431	H	0.017621	-0.405245	-0.523057
H432	H	-0.044101	-0.366258	-0.545735
H433	H	-0.009882	-0.387712	-0.577090
C434	C	-0.577076	0.010747	-0.423073
C435	C	-0.542670	-0.023400	-0.371406
C436	C	-0.568647	0.003330	-0.345236
H437	H	-0.608067	0.010975	-0.421201
H438	H	-0.587040	0.051815	-0.442236
H439	H	-0.532714	-0.064458	-0.352248
H440	H	-0.511679	-0.023631	-0.373262
H441	H	-0.578611	0.044398	-0.364399
H442	H	-0.599637	0.003556	-0.343368
H443	H	-0.545305	-0.019832	-0.310179
C444	C	-0.504310	-0.763216	0.027213
C445	C	-0.522740	-0.795628	0.024602
C446	C	-0.574680	-0.770763	0.026657
H447	H	-0.527042	-0.721110	-0.002062
H448	H	-0.504308	-0.766480	0.059662
H449	H	-0.522746	-0.792358	-0.007843
H450	H	-0.500023	-0.837733	0.053875
H451	H	-0.574678	-0.774026	0.059106
H452	H	-0.597407	-0.728657	-0.002619
H453	H	-0.587189	-0.792753	0.024891
C454	C	-0.577178	0.010944	-0.587696
C455	C	-0.591809	0.071454	-0.619829
C456	C	-0.617903	0.098407	-0.672773
H457	H	-0.608201	0.011235	-0.589805
H458	H	-0.553924	-0.012108	-0.599710
H459	H	-0.615062	0.094500	-0.607819
H460	H	-0.560796	0.071180	-0.617737
H461	H	-0.594648	0.075355	-0.684787
H462	H	-0.648924	0.098695	-0.674876
H463	H	-0.627828	0.139464	-0.694583
H464	H	-0.840890	-0.320560	0.019306
C465	C	-0.027075	-0.240207	-0.496333
C466	C	-0.024423	-0.293642	-0.478075
C467	C	-0.026398	-0.318868	-0.426105
H468	H	-0.059502	-0.211147	-0.496218
H469	H	0.002223	-0.250144	-0.473575
H470	H	-0.053718	-0.283703	-0.500826
H471	H	0.008002	-0.322716	-0.478176
H472	H	0.002900	-0.328805	-0.403347
H473	H	-0.058826	-0.289803	-0.425995
H474	H	-0.024594	-0.355129	-0.413708
H475	H	-0.346770	0.229846	-0.256454
C476	C	-0.848641	-0.470297	0.018710
C477	C	-0.901563	-0.433321	0.014725
C478	C	-0.928695	-0.458117	0.012662
H479	H	-0.831738	-0.510761	0.050219
H480	H	-0.848059	-0.471726	-0.011504
H481	H	-0.902143	-0.431899	0.044936
H482	H	-0.918481	-0.392857	-0.016782
H483	H	-0.928112	-0.459546	-0.017552
H484	H	-0.911788	-0.498581	0.044171
H485	H	-0.964607	-0.433030	0.009953
H486	H	-0.026556	-0.233307	-0.256467
C487	C	-0.018709	-0.300293	-0.151330
C488	C	-0.014759	-0.320188	-0.098416
C489	C	-0.012773	-0.374122	-0.071308
H490	H	0.011484	-0.331381	-0.151883
H491	H	-0.050243	-0.292290	-0.168279
H492	H	0.016772	-0.328194	-0.081471
H493	H	-0.044949	-0.289116	-0.097847
H494	H	-0.044308	-0.366119	-0.088257
H495	H	0.017420	-0.405205	-0.071865
H496	H	-0.010098	-0.387625	-0.035404
C497	C	-0.287253	-0.300633	-0.151888
C498	C	-0.268992	-0.316230	-0.187083
C499	C	-0.217021	-0.370153	-0.160347
H500	H	-0.287136	-0.333168	-0.122703
H501	H	-0.264500	-0.294091	-0.139070
H502	H	-0.291739	-0.322775	-0.199893
H503	H	-0.269097	-0.283710	-0.216269
H504	H	-0.194268	-0.363611	-0.147529
H505	H	-0.216908	-0.402683	-0.131163
H506	H	-0.204622	-0.380739	-0.184225
C507	C	-0.412310	0.382566	-0.423035
C508	C	-0.394804	0.330665	-0.371371
C509	C	-0.341895	0.303741	-0.345195
H510	H	-0.410213	0.411446	-0.421159
H511	H	-0.390389	0.370618	-0.442197
H512	H	-0.416719	0.342615	-0.352213
H513	H	-0.396888	0.301772	-0.373231
H514	H	-0.319974	0.291792	-0.364357
H515	H	-0.339803	0.332625	-0.343323
H516	H	-0.330009	0.268520	-0.310140
H517	H	-0.569746	0.532985	-0.573266
C518	C	-0.576909	0.382751	-0.423225
C519	C	-0.628576	0.416906	-0.457632
C520	C	-0.654752	0.390182	-0.431656
H521	H	-0.578776	0.382519	-0.392233
H522	H	-0.557751	0.341685	-0.413264
H523	H	-0.647729	0.457962	-0.467585
H524	H	-0.626724	0.417141	-0.488625
H525	H	-0.635594	0.349115	-0.421696
H526	H	-0.656615	0.389951	-0.400665
H527	H	-0.689809	0.413348	-0.454999
C528	C	-0.504333	0.236866	-0.264023
C529	C	-0.522777	0.204479	-0.228984
C530	C	-0.574744	0.229402	-0.255897
H531	H	-0.504387	0.233637	-0.293218
H532	H	-0.527022	0.278974	-0.276845
H533	H	-0.500093	0.162382	-0.216169
H534	H	-0.522735	0.207706	-0.199788
H535	H	-0.597434	0.271509	-0.268720
H536	H	-0.574794	0.226171	-0.285092
H537	H	-0.587267	0.207435	-0.232126
C538	C	-0.735925	0.468391	-0.495651
C539	C	-0.770960	0.452579	-0.477225
C540	C	-0.744032	0.398595	-0.425287
H541	H	-0.723079	0.474925	-0.472914
H542	H	-0.706742	0.435959	-0.495656
H543	H	-0.800133	0.485004	-0.477216
H544	H	-0.783808	0.446032	-0.499947
H545	H	-0.714849	0.366162	-0.425292
H546	H	-0.731186	0.405135	-0.402555
H547	H	-0.767797	0.387856	-0.412780
C548	C	-0.848275	0.528688	-0.547524
C549	C	-0.901228	0.565506	-0.580389
C550	C	-0.928174	0.540497	-0.553377
H551	H	-0.847645	0.527222	-0.515868
H552	H	-0.831267	0.488213	-0.538571
H553	H	-0.918231	0.605970	-0.589334
H554	H	-0.901874	0.566975	-0.612044
H555	H	-0.911166	0.500022	-0.544424
H556	H	-0.927540	0.539033	-0.521722
H557	H	-0.964104	0.565471	-0.575673
H558	H	-0.743487	-0.516312	0.026628
C559	C	-0.452471	-0.867096	0.018867
C560	C	-0.423802	-0.929138	0.062082
C561	C	-0.450851	-0.954078	0.060183
H562	H	-0.455779	-0.863908	-0.013538
H563	H	-0.486958	-0.845120	0.020679
H564	H	-0.389324	-0.951108	0.060266
H565	H	-0.420493	-0.932343	0.094493
H566	H	-0.485339	-0.932102	0.061995
H567	H	-0.454158	-0.950886	0.027777
H568	H	-0.431406	-0.996174	0.089506
C569	C	-0.339317	-0.530953	0.027174
C570	C	-0.288507	-0.546571	0.024549
C571	C	-0.261273	-0.600542	0.026594
H572	H	-0.358635	-0.524477	-0.002100
H573	H	-0.335984	-0.563451	0.059624
H574	H	-0.291842	-0.514081	-0.007898
H575	H	-0.269175	-0.553060	0.053820
H576	H	-0.257940	-0.633040	0.059044
H577	H	-0.280595	-0.594060	-0.002680
H578	H	-0.226794	-0.611148	0.024818
H579	H	-0.743490	0.626486	-0.653184
H580	H	-0.346709	-0.233340	-0.256801
H581	H	-0.346713	-0.233351	-0.509753
H582	H	-0.301364	-0.286010	-0.554791
H583	H	-0.743523	0.163324	-0.653612
C584	C	-0.503978	-0.075635	-0.660646
C585	C	-0.522237	-0.060032	-0.711447
C586	C	-0.574204	-0.006103	-0.738657
H587	H	-0.504089	-0.043105	-0.664003
H588	H	-0.526736	-0.082171	-0.641288
H589	H	-0.499485	-0.053493	-0.730801
H590	H	-0.522138	-0.092547	-0.708105
H591	H	-0.596962	-0.012639	-0.719299
H592	H	-0.574311	0.026423	-0.742011
H593	H	-0.586601	0.004488	-0.773127
C594	C	-0.848993	0.260830	-0.548576
C595	C	-0.901915	0.309750	-0.581581
C596	C	-0.929047	0.334810	-0.554713
H597	H	-0.832090	0.275430	-0.539608
H598	H	-0.848409	0.230042	-0.516931
H599	H	-0.902496	0.340531	-0.613216
H600	H	-0.918832	0.295165	-0.590550
H601	H	-0.928464	0.304023	-0.523068
H602	H	-0.912141	0.349407	-0.545747
H603	H	-0.964959	0.368001	-0.577101
H604	H	-0.743837	0.163627	-0.510462
H605	H	-0.489870	-0.090268	-0.256484
H606	H	-0.444519	-0.142934	-0.158758
