data_functionalizedCrystal
_audit_creation_method	'MofGen! by Chris Wilmer'
_symmetry_space_group_name_H-M	'P1'
_symmetry_Int_Tables_number	1
_symmetry_cell_setting	triclinic
loop_
_symmetry_equiv_pos_as_xyz
  x,y,z
_cell_length_a	11.792241
_cell_length_b	11.792253
_cell_length_c	11.295443
_cell_angle_alpha	85.417735
_cell_angle_beta	94.569101
_cell_angle_gamma	95.803993
loop_
_atom_site_label
_atom_site_type_symbol
_atom_site_fract_x
_atom_site_fract_y
_atom_site_fract_z
O1	O	1.513770	-0.162427	0.098927
O2	O	1.847104	0.170906	0.432260
O3	O	2.180437	0.504239	0.765594
O4	O	1.183432	-0.178462	0.098956
O5	O	1.516765	0.154871	0.432290
O6	O	1.850099	0.488205	0.765623
O7	O	1.356608	-0.005273	0.098916
O8	O	1.689942	0.328060	0.432250
O9	O	2.023275	0.661393	0.765583
O10	O	1.340594	-0.335616	0.098967
O11	O	1.673927	-0.002283	0.432300
O12	O	2.007261	0.331051	0.765634
O13	O	1.342871	0.008467	-0.099137
O14	O	1.676204	0.341800	0.234196
O15	O	2.009537	0.675133	0.567529
O16	O	1.169694	-0.164722	-0.099097
O17	O	1.503028	0.168611	0.234236
O18	O	1.836361	0.501944	0.567570
O19	O	1.500032	-0.148687	-0.099127
O20	O	1.833366	0.184646	0.234207
O21	O	2.166699	0.517979	0.567540
Cu22	Cu	1.333609	-0.155450	-0.117196
Cu23	Cu	1.666942	0.177883	0.216138
Cu24	Cu	2.000276	0.511216	0.549471
Cu25	Cu	1.349855	-0.171699	0.117025
Cu26	Cu	1.683189	0.161634	0.450359
Cu27	Cu	2.016522	0.494968	0.783692
O28	O	1.326856	-0.321876	-0.099086
O29	O	1.660189	0.011457	0.234247
O30	O	1.993523	0.344790	0.567580
C31	C	1.134272	-0.170585	-0.000067
C32	C	1.467606	0.162748	0.333266
C33	C	1.800939	0.496081	0.666600
C34	C	1.008259	-0.167572	-0.000057
C35	C	1.341592	0.165762	0.333276
C36	C	1.674926	0.499095	0.666610
C37	C	1.348730	0.043888	-0.000114
C38	C	1.682063	0.377221	0.333219
C39	C	2.015397	0.710554	0.666552
C40	C	1.345709	0.169901	-0.000125
C41	C	1.679043	0.503235	0.333208
C42	C	2.012376	0.836568	0.666541
N43	N	1.322190	-0.144021	-0.281934
N44	N	1.655524	0.189312	0.051399
N45	N	1.988857	0.522646	0.384733
C46	C	0.777544	-0.162026	-0.000092
C47	C	1.110878	0.171307	0.333241
C48	C	1.444211	0.504640	0.666575
C49	C	0.905931	-0.165107	-0.000073
C50	C	1.239264	0.168226	0.333261
C51	C	1.572598	0.501559	0.666594
C52	C	1.549192	-0.156564	-0.000101
C53	C	1.882526	0.176769	0.333233
C54	C	2.215859	0.510102	0.666566
C55	C	1.675206	-0.159579	-0.000103
C56	C	2.008539	0.173755	0.333230
C57	C	2.341873	0.507088	0.666564
C58	C	1.343255	0.272238	-0.000131
C59	C	1.676588	0.605572	0.333202
C60	C	2.009922	0.938905	0.666536
C61	C	1.340186	0.400625	-0.000132
C62	C	1.673520	0.733958	0.333201
C63	C	2.006853	1.067292	0.666534
C64	C	1.334733	0.628965	-0.000078
C65	C	1.668066	0.962298	0.333255
C66	C	2.001399	1.295631	0.666589
C67	C	1.337749	0.502955	-0.000133
C68	C	1.671082	0.836289	0.333200
C69	C	2.004416	1.169622	0.666534
C70	C	1.240002	-0.061763	-0.468970
C71	C	1.573335	0.271570	-0.135637
C72	C	1.906668	0.604903	0.197697
C73	C	1.248621	-0.070397	-0.344305
C74	C	1.581955	0.262936	-0.010971
C75	C	1.915288	0.596270	0.322362
C76	C	1.387147	-0.209014	-0.344238
C77	C	1.720481	0.124320	-0.010904
C78	C	2.053814	0.457653	0.322429
C79	C	1.378528	-0.200380	-0.468903
C80	C	1.711861	0.132953	-0.135570
C81	C	2.045194	0.466287	0.197764
C82	C	1.304951	-0.126754	-0.531265
C83	C	1.638284	0.206580	-0.197931
C84	C	1.971618	0.539913	0.135402
C85	C	1.296326	-0.118127	-0.655932
C86	C	1.629659	0.215206	-0.322599
C87	C	1.962993	0.548540	0.010734
C88	C	1.434858	-0.256737	-0.655863
C89	C	1.768191	0.076597	-0.322530
C90	C	2.101524	0.409930	0.010803
C91	C	1.443477	-0.265370	-0.531198
C92	C	1.776811	0.067963	-0.197865
C93	C	2.110144	0.401296	0.135469
N94	N	1.361283	-0.183119	0.281764
N95	N	1.694616	0.150214	0.615097
N96	N	2.027950	0.483547	0.948431
H97	H	1.180083	-0.001824	-0.519746
H98	H	1.513416	0.331510	-0.186412
H99	H	1.846750	0.664843	0.146921
Br100	Br	1.196469	-0.018213	-0.740566
Br101	Br	1.529802	0.315121	-0.407233
Br102	Br	1.863136	0.648454	-0.073899
Br103	Br	1.160477	0.017813	-0.259764
Br104	Br	1.493810	0.351146	0.073570
Br105	Br	1.827143	0.684480	0.406903
H106	H	1.447060	-0.268946	-0.293441
H107	H	1.780394	0.064387	0.039892
H108	H	2.113727	0.397720	0.373225
H109	H	1.503385	-0.325312	-0.480406
H110	H	1.836718	0.008022	-0.147073
H111	H	2.170051	0.341355	0.186261
Br112	Br	1.523004	-0.344949	-0.740412
Br113	Br	1.856337	-0.011616	-0.407079
Br114	Br	2.189671	0.321718	-0.073746
