data_functionalizedCrystal
_audit_creation_method	'MofGen! by Chris Wilmer'
_symmetry_space_group_name_H-M	'P1'
_symmetry_Int_Tables_number	1
_symmetry_cell_setting	triclinic
loop_
_symmetry_equiv_pos_as_xyz
  x,y,z
_cell_length_a	23.532407
_cell_length_b	23.532407
_cell_length_c	12.996460
_cell_angle_alpha	89.985369
_cell_angle_beta	89.999749
_cell_angle_gamma	82.848713
loop_
_atom_site_label
_atom_site_type_symbol
_atom_site_fract_x
_atom_site_fract_y
_atom_site_fract_z
O1	O	0.755260	0.069136	-0.085457
O2	O	0.589397	0.079139	-0.085490
O3	O	0.677330	-0.008794	-0.085444
O4	O	0.667327	0.157069	-0.085503
O5	O	0.677321	-0.008799	0.085690
O6	O	0.589388	0.079134	0.085644
O7	O	0.755251	0.069131	0.085677
Cu8	Cu	0.672319	0.074132	0.101286
Cu9	Cu	0.672329	0.074138	-0.101099
O10	O	0.667318	0.157064	0.085630
C11	C	0.568176	0.078882	0.000073
C12	C	0.504959	0.078116	0.000062
C13	C	0.677071	-0.030013	0.000128
C14	C	0.676305	-0.093230	0.000144
C15	C	0.105856	0.125350	0.000092
C16	C	0.046456	0.124638	0.000098
O17	O	0.009711	0.168424	0.000120
N18	N	0.023830	0.072362	0.000115
C19	C	0.060607	0.020794	0.000136
O20	O	0.035908	-0.023737	0.000152
C21	C	0.120006	0.021506	0.000137
C22	C	0.142629	0.073785	0.000109
C23	C	0.128480	0.177625	0.000065
C24	C	0.187876	0.178336	0.000057
C25	C	0.224649	0.126772	0.000075
C26	C	0.202025	0.074496	0.000101
C27	C	0.156783	-0.030062	0.000165
C28	C	0.216185	-0.029345	0.000167
C29	C	0.238808	0.022934	0.000139
C30	C	0.298194	0.023643	0.000110
N31	N	0.320821	0.075920	0.000093
C32	C	0.284048	0.127484	0.000075
C33	C	-0.064135	0.019302	0.000136
C34	C	-0.123533	0.018589	0.000128
C35	C	-0.137680	0.122434	0.000092
C36	C	-0.078281	0.123146	0.000093
C37	C	-0.041509	0.071578	0.000119
C38	C	0.408784	0.128974	0.000057
C39	C	0.468186	0.129680	0.000044
C40	C	0.482329	0.025836	0.000086
C41	C	0.422932	0.025129	0.000093
C42	C	0.386160	0.076702	0.000082
O43	O	0.334974	-0.020119	0.000093
O44	O	0.308756	0.172007	0.000073
C45	C	0.621110	-0.359397	0.000069
C46	C	0.621821	-0.299997	0.000077
O47	O	0.578035	-0.263252	0.000035
N48	N	0.674097	-0.277371	0.000099
C49	C	0.725666	-0.314148	0.000103
O50	O	0.770196	-0.289449	0.000121
C51	C	0.724954	-0.373547	0.000087
C52	C	0.672674	-0.396170	0.000075
C53	C	0.568834	-0.382020	0.000056
C54	C	0.568123	-0.441417	0.000050
C55	C	0.619687	-0.478189	0.000056
C56	C	0.671963	-0.455566	0.000069
C57	C	0.776521	-0.410324	0.000083
C58	C	0.775805	-0.469726	0.000067
C59	C	0.723525	-0.492349	0.000056
C60	C	0.722816	-0.551735	0.000070
N61	N	0.670539	-0.574361	0.000048
C62	C	0.618975	-0.537589	0.000041
C63	C	0.727157	-0.189406	0.000133
C64	C	0.727870	-0.130008	0.000156
C65	C	0.624025	-0.115861	0.000128
C66	C	0.623313	-0.175260	0.000113
C67	C	0.674881	-0.212032	0.000111
C68	C	0.617486	-0.662325	0.000029
C69	C	0.616779	-0.721727	0.000027
C70	C	0.720623	-0.735869	0.000049
C71	C	0.721330	-0.676473	0.000057
C72	C	0.669757	-0.639701	0.000043
O73	O	0.766579	-0.588514	0.000107
O74	O	0.574452	-0.562296	0.000009
C75	C	0.776472	0.069388	0.000111
C76	C	0.839689	0.070154	0.000116
C77	C	0.667577	0.178283	0.000056
C78	C	0.668343	0.241500	0.000034
N79	N	0.672315	0.074128	0.243633
N80	N	0.672337	0.074138	-0.243447
C81	C	0.672329	0.074138	0.663447
C82	C	0.672323	0.074137	0.546642
C83	C	0.672322	0.074134	0.453544
C84	C	0.672316	0.074132	0.336731
H85	H	0.378852	0.170970	0.000051
H86	H	-0.167632	0.164421	0.000082
O87	O	0.827357	-0.388452	0.000046
C88	C	0.872708	-0.433657	0.000068
H89	H	0.856970	-0.473914	-0.032338
H90	H	0.888595	-0.442168	0.082170
C91	C	0.941374	-0.367714	-0.027237
C92	C	0.922046	-0.417157	-0.067046
H93	H	0.971810	-0.357536	-0.068632
H94	H	0.910821	-0.337258	-0.027248
H95	H	0.954610	-0.374813	0.041181
H96	H	0.908805	-0.410055	-0.135457
H97	H	0.952599	-0.447611	-0.067048
O98	O	-0.056239	0.173894	0.000207
C99	C	-0.022318	0.177422	0.088851
H100	H	-0.007273	0.132450	0.118422
H101	H	-0.048704	0.202769	0.150902
C102	C	0.011579	0.263024	0.025597
C103	C	0.030062	0.207788	0.061911
H104	H	0.043888	0.281757	0.008981
H105	H	-0.011276	0.260648	-0.034123
H106	H	-0.010410	0.284139	0.077311
H107	H	0.052044	0.186672	0.010192
H108	H	0.052922	0.210161	0.121622
H109	H	0.098544	0.219617	0.000054
H110	H	0.817799	-0.499664	0.000060
H111	H	0.763901	-0.658053	0.000081
H112	H	0.246123	-0.071339	0.000189
H113	H	-0.141947	-0.023982	0.000134
H114	H	0.769152	-0.219343	0.000139
H115	H	0.404512	-0.017441	0.000100
H116	H	0.512280	-0.016146	0.000096
O117	O	0.134747	-0.080811	0.000333
C118	C	0.100827	-0.084338	0.088983
H119	H	0.085779	-0.039366	0.118508
H120	H	0.127215	-0.109681	0.151058
C121	C	0.066936	-0.169945	0.025819
C122	C	0.048450	-0.114709	0.062077
H123	H	0.034629	-0.188682	0.009225
H124	H	0.089791	-0.167570	-0.033904
H125	H	0.088927	-0.191057	0.077555
H126	H	0.026466	-0.093596	0.010337
H127	H	0.025591	-0.117081	0.121792
H128	H	0.206289	0.220908	0.000034
H129	H	0.486602	0.172255	0.000021
H130	H	-0.034198	-0.022693	0.000149
H131	H	0.762606	-0.765820	0.000060
H132	H	0.574205	-0.740143	0.000022
H133	H	0.575489	-0.632392	0.000017
H134	H	0.525552	-0.459830	0.000031
O135	O	0.518688	-0.346385	0.000098
C136	C	0.472403	-0.379103	0.000056
H137	H	0.487127	-0.423525	0.032441
H138	H	0.456365	-0.383228	-0.082049
C139	C	0.405537	-0.294703	0.027397
C140	C	0.423620	-0.349262	0.067182
H141	H	0.375444	-0.276295	0.068799
H142	H	0.436720	-0.272660	0.027422
H143	H	0.392176	-0.298148	-0.041023
H144	H	0.436987	-0.345815	0.135595
H145	H	0.392438	-0.371304	0.067170
H146	H	0.580742	-0.193674	0.000107
H147	H	0.582038	-0.085909	0.000123
H148	H	0.770441	-0.111594	0.000182
