data_functionalizedCrystal
_audit_creation_method	'MofGen! by Chris Wilmer'
_symmetry_space_group_name_H-M	'P1'
_symmetry_Int_Tables_number	1
_symmetry_cell_setting	triclinic
loop_
_symmetry_equiv_pos_as_xyz
  x,y,z
_cell_length_a	12.594517
_cell_length_b	12.594516
_cell_length_c	12.594509
_cell_angle_alpha	90.027875
_cell_angle_beta	90.011478
_cell_angle_gamma	90.007702
loop_
_atom_site_label
_atom_site_type_symbol
_atom_site_fract_x
_atom_site_fract_y
_atom_site_fract_z
Zn1	Zn	1.627298	-0.423827	0.601583
Zn2	Zn	1.627202	-0.601837	0.423606
Zn3	Zn	1.449302	-0.423860	0.423642
Zn4	Zn	1.449297	-0.601751	0.601566
O5	O	1.538275	-0.512819	0.512599
O6	O	1.776231	-0.447463	0.577965
O7	O	1.603565	-0.578278	0.274665
O8	O	1.472956	-0.274910	0.447269
O9	O	1.776161	-0.578246	0.447206
O10	O	1.603729	-0.274886	0.578001
O11	O	1.472863	-0.447519	0.274692
O12	O	1.300356	-0.447436	0.447253
O13	O	1.472948	-0.578099	0.750514
O14	O	1.300352	-0.578131	0.577973
O15	O	1.603724	-0.447379	0.750527
O16	O	1.603561	-0.750772	0.447190
O17	O	1.472855	-0.750708	0.577937
C18	C	1.261734	-0.512779	0.512615
C19	C	1.143429	-0.512787	0.512648
C20	C	1.074204	-0.584011	0.583609
C21	C	1.003389	-0.486966	0.609786
C22	C	1.003445	-0.609913	0.486446
C23	C	1.074171	-0.415689	0.538876
C24	C	1.074234	-0.538702	0.415491
C25	C	1.003450	-0.441589	0.441632
C26	C	1.538226	-0.789360	0.512581
C27	C	1.538302	-0.907665	0.512608
C28	C	1.609475	-0.976914	0.441571
C29	C	1.635486	-1.047613	0.538716
C30	C	1.512424	-1.047766	0.415525
C31	C	1.564362	-0.976805	0.609804
C32	C	1.441256	-0.976952	0.486548
C33	C	1.467229	-1.047619	0.583760
C34	C	1.815896	-0.512860	0.512584
C35	C	1.934201	-0.512878	0.512577
C36	C	1.538346	-0.512726	0.790220
C37	C	1.538377	-0.512686	0.908526
C38	C	1.538354	-0.235198	0.512641
C39	C	1.538387	-0.116893	0.512659
C40	C	1.538265	-0.512835	0.236058
C41	C	1.538441	-0.512575	0.117753
C42	C	1.467270	-0.583744	0.977772
C43	C	1.564392	-0.609757	1.048546
C44	C	1.441330	-0.486608	1.048551
C45	C	1.635550	-0.538750	0.977741
C46	C	1.512422	-0.415556	0.977740
C47	C	1.609612	-0.441532	1.048482
H48	H	1.105274	-0.644128	0.643695
H49	H	1.490502	-1.078934	0.333402
H50	H	1.105376	-0.560619	0.333382
H51	H	0.972579	-0.381327	0.381592
O52	O	1.387544	-1.088492	0.663444
H53	H	1.409310	-1.059914	0.743938
H54	H	0.972270	-0.465078	0.691919
H55	H	1.717593	-1.078653	0.560787
O56	O	0.962318	-0.718665	0.457098
H57	H	0.990678	-0.777598	0.516142
H58	H	1.407184	-0.643929	0.946725
O59	O	1.593541	-0.935709	0.718618
H60	H	1.593319	-0.847585	0.717731
H61	H	1.717672	-0.560853	0.946768
O62	O	1.332533	-0.935784	0.457279
H63	H	1.311194	-0.964151	0.376596
O64	O	1.593520	-0.718490	1.089762
H65	H	1.534356	-0.777381	1.061454
O66	O	1.689217	-0.935795	0.362068
H67	H	1.668433	-0.965455	0.281705
O68	O	1.332581	-0.457445	1.089742
H69	H	1.333787	-0.456930	1.177862
H70	H	1.490406	-0.333487	0.946615
O71	O	1.115136	-0.306905	0.568329
H72	H	1.203261	-0.307733	0.568170
O73	O	1.689382	-0.361869	1.089364
H74	H	1.769852	-0.383720	1.060850
