data_functionalizedCrystal
_audit_creation_method	'MofGen! by Chris Wilmer'
_symmetry_space_group_name_H-M	'P1'
_symmetry_Int_Tables_number	1
_symmetry_cell_setting	triclinic
loop_
_symmetry_equiv_pos_as_xyz
  x,y,z
_cell_length_a	21.295417
_cell_length_b	10.685661
_cell_length_c	10.686551
_cell_angle_alpha	80.927378
_cell_angle_beta	85.587790
_cell_angle_gamma	85.651295
loop_
_atom_site_label
_atom_site_type_symbol
_atom_site_fract_x
_atom_site_fract_y
_atom_site_fract_z
Zn1	Zn	-0.293819	1.995552	-0.866085
Zn2	Zn	-0.406600	1.979066	-0.653791
Zn3	Zn	-0.293848	1.766987	-0.637610
Zn4	Zn	-0.391549	1.783205	-0.849758
O5	O	-0.346454	1.881202	-0.751811
O6	O	-0.315066	2.170989	-0.851528
O7	O	-0.397954	1.937246	-0.474014
O8	O	-0.205756	1.797419	-0.667978
O9	O	-0.397926	2.158876	-0.695557
O10	O	-0.205735	1.965344	-0.835838
O11	O	-0.315115	1.781433	-0.462126
O12	O	-0.300521	1.591514	-0.652147
O13	O	-0.372274	1.825060	-1.029554
O14	O	-0.372302	1.603430	-0.808011
O15	O	-0.300472	1.981070	-1.041549
O16	O	-0.492691	1.952972	-0.679725
O17	O	-0.481633	1.809074	-0.823701
C18	C	-0.334782	1.551416	-0.726552
C19	C	-0.329803	1.410335	-0.715776
C20	C	-0.510002	1.881030	-0.751728
C21	C	-0.579971	1.881076	-0.751743
C22	C	-0.618574	1.956083	-0.676864
C23	C	-0.684318	1.956144	-0.676897
C24	C	-0.711456	1.881176	-0.751794
C25	C	-0.672844	1.806165	-0.826689
C26	C	-0.607102	1.806115	-0.826664
N27	N	-0.810453	1.770881	-0.752967
N28	N	-0.872906	1.770932	-0.752984
C29	C	-0.909533	1.881324	-0.751878
N30	N	-0.881349	1.991664	-0.750730
N31	N	-0.818891	1.991612	-0.750706
C32	C	-0.782741	1.881222	-0.751831
C33	C	-1.019423	1.956404	-0.677031
C34	C	-1.085168	1.956468	-0.677073
C35	C	-1.073692	1.806477	-0.826858
C36	C	-1.007949	1.806424	-0.826823
C37	C	-0.980819	1.881385	-0.751903
C38	C	-0.182267	1.881411	-0.751924
C39	C	-0.112301	1.881501	-0.751973
C40	C	-0.334691	1.906713	-1.082897
C41	C	-0.329679	1.917584	-1.223986
C42	C	-0.358172	2.212276	-0.777169
C43	C	-0.363165	2.353360	-0.787975
C44	C	-0.358128	1.855864	-0.422018
C45	C	-0.362972	1.845239	-0.280948
H46	H	-0.596487	2.017124	-0.615863
O47	O	-1.122577	2.029366	-0.604215
C48	C	-1.084530	2.095535	-0.538111
H49	H	-1.036011	2.043167	-0.529674
H50	H	-1.107578	2.101458	-0.439161
H51	H	-1.079235	2.195485	-0.592042
H52	H	-0.297427	1.351175	-0.645719
O53	O	-0.291104	2.001300	-1.294758
C54	C	-0.294524	1.993902	-1.424601
H55	H	-0.311044	1.897292	-1.435067
H56	H	-0.245905	2.006411	-1.475762
H57	H	-0.329387	2.072020	-1.467968
H58	H	-0.694944	1.745128	-0.887674
O59	O	-1.100149	1.733688	-0.899503
C60	C	-1.166453	1.749845	-0.883502
H61	H	-1.180389	1.783952	-0.788767
H62	H	-1.187815	1.655442	-0.884771
H63	H	-1.184769	1.823205	-0.964028
O64	O	-0.721735	2.029035	-0.604033
C65	C	-0.683691	2.095212	-0.537930
H66	H	-0.635169	2.042855	-0.529498
H67	H	-0.706738	2.101126	-0.438978
H68	H	-0.678403	2.195164	-0.591858
H69	H	-0.395533	1.412514	-0.858038
O70	O	-0.569691	1.733130	-0.899433
C71	C	-0.607737	1.667001	-0.965580
H72	H	-0.656309	1.658678	-0.913275
H73	H	-0.584769	1.568005	-0.971373
H74	H	-0.612897	1.720845	-1.065580
O75	O	-0.993032	2.029034	-0.604120
C76	C	-0.955408	1.950484	-0.516549
H77	H	-0.972017	1.849928	-0.500974
H78	H	-0.959758	1.988951	-0.422423
H79	H	-0.904026	1.949057	-0.555434
H80	H	-0.395312	1.774987	-1.221779
O81	O	-0.970355	1.733667	-0.899519
C82	C	-0.906510	1.749672	-0.883411
H83	H	-0.902436	1.844459	-0.849421
H84	H	-0.877821	1.748290	-0.977808
H85	H	-0.887648	1.669211	-0.809982
