data_functionalizedCrystal
_audit_creation_method	'MofGen! by Chris Wilmer'
_symmetry_space_group_name_H-M	'P1'
_symmetry_Int_Tables_number	1
_symmetry_cell_setting	triclinic
loop_
_symmetry_equiv_pos_as_xyz
  x,y,z
_cell_length_a	16.625546
_cell_length_b	14.908941
_cell_length_c	14.908308
_cell_angle_alpha	96.369340
_cell_angle_beta	86.735930
_cell_angle_gamma	86.677812
loop_
_atom_site_label
_atom_site_type_symbol
_atom_site_fract_x
_atom_site_fract_y
_atom_site_fract_z
Zn1	Zn	-0.273410	-1.354226	0.432069
Zn2	Zn	0.226590	-0.854226	0.932069
Zn3	Zn	-0.400005	-1.362859	0.280711
Zn4	Zn	0.099995	-0.862859	0.780711
Zn5	Zn	-0.273444	-1.211600	0.289444
Zn6	Zn	0.226556	-0.711600	0.789444
Zn7	Zn	-0.416462	-1.202830	0.440736
Zn8	Zn	0.083538	-0.702830	0.940736
O9	O	-0.340830	-1.282879	0.360740
O10	O	0.159170	-0.782879	0.860740
O11	O	-0.283302	-1.482034	0.404709
O12	O	0.216698	-0.982034	0.904709
O13	O	-0.376344	-1.350077	0.155209
O14	O	0.123656	-0.850077	0.655209
O15	O	-0.160605	-1.230577	0.308391
O16	O	0.339395	-0.730577	0.808391
O17	O	-0.376311	-1.488376	0.293507
O18	O	0.123689	-0.988376	0.793507
O19	O	-0.160581	-1.335364	0.413177
O20	O	0.339419	-0.835364	0.913177
O21	O	-0.283360	-1.238948	0.161625
O22	O	0.216640	-0.738948	0.661625
O23	O	-0.299317	-1.083774	0.316795
O24	O	0.200683	-0.583774	0.816795
O25	O	-0.404359	-1.215629	0.566247
O26	O	0.095641	-0.715629	1.066247
O27	O	-0.404391	-1.077331	0.427949
O28	O	0.095609	-0.577331	0.927949
O29	O	-0.299259	-1.326860	0.559879
O30	O	0.200741	-0.826860	1.059879
O31	O	-0.515022	-1.341573	0.301911
O32	O	-0.015022	-0.841573	0.801911
O33	O	-0.527113	-1.224000	0.419481
O34	O	-0.027113	-0.724000	0.919481
C35	C	-0.353644	-1.047710	0.374261
C36	C	0.146356	-0.547710	0.874261
C37	C	-0.359146	-0.947103	0.380067
C38	C	0.140854	-0.447103	0.880067
C39	C	-0.259926	-0.764699	0.275393
C40	C	0.240074	-0.264699	0.775393
C41	C	-0.265093	-0.670170	0.280845
C42	C	0.234907	-0.170170	0.780845
C43	C	-0.374651	-0.663513	0.396417
C44	C	0.125349	-0.163513	0.896417
C45	C	-0.369484	-0.758042	0.390965
C46	C	0.130516	-0.258042	0.890965
C47	C	-0.312118	-0.808632	0.330452
C48	C	0.187882	-0.308632	0.830452
C49	C	-0.306948	-0.903163	0.325005
C50	C	0.193052	-0.403163	0.825005
C51	C	-0.416510	-0.896505	0.440572
C52	C	0.083490	-0.396505	0.940572
C53	C	-0.421677	-0.801975	0.446024
C54	C	0.078323	-0.301975	0.946024
C55	C	-0.550324	-1.282795	0.360707
C56	C	-0.050324	-0.782795	0.860707
C57	C	-0.639943	-1.282841	0.360718
C58	C	-0.139943	-0.782841	0.860718
C59	C	-0.968115	-1.282993	0.360804
C60	C	-0.468115	-0.782993	0.860804
C61	C	-0.876808	-1.282948	0.360783
C62	C	-0.376808	-0.782948	0.860783
C63	C	-0.804032	-1.282916	0.360761
C64	C	-0.304032	-0.782916	0.860761
C65	C	-0.712719	-1.282872	0.360740
C66	C	-0.212719	-0.782872	0.860740
C67	C	-0.130518	-1.282986	0.360791
C68	C	0.369482	-0.782986	0.860791
C69	C	-0.040896	-1.283032	0.360813
C70	C	0.459104	-0.783032	0.860813
C71	C	-0.353641	-1.269303	0.596823
C72	C	0.146359	-0.769303	1.096823
C73	C	-0.359100	-1.263519	0.697428
C74	C	0.140900	-0.763519	1.197428
C75	C	-0.327959	-0.518966	0.347160
C76	C	0.172041	-0.018966	0.847160
C77	C	-0.322453	-0.619573	0.341356
C78	C	0.177547	-0.119573	0.841356
C79	C	-0.328008	-1.296453	0.125572
C80	C	0.171992	-0.796453	0.625572
C81	C	-0.322313	-1.302414	0.024958
C82	C	0.177687	-0.802414	0.524958
C83	C	-0.259900	-1.368470	0.879846
C84	C	0.240100	-0.868470	1.379846
C85	C	-0.265026	-1.363037	0.974373
C86	C	0.234974	-0.863037	1.474373
C87	C	-0.374475	-1.247217	0.981010
C88	C	0.125525	-0.747217	1.481010
C89	C	-0.369349	-1.252649	0.886484
C90	C	0.130651	-0.752649	1.386484
C91	C	-0.312060	-1.313279	0.835904
C92	C	0.187940	-0.813279	1.335904
C93	C	-0.306938	-1.318715	0.741376
C94	C	0.193062	-0.818715	1.241376
C95	C	-0.416382	-1.202891	0.748015
C96	C	0.083618	-0.702891	1.248015
C97	C	-0.421509	-1.197458	0.842542
C98	C	0.078491	-0.697458	1.342542
H99	H	-0.213207	-0.805890	0.226132
H100	H	0.286793	-0.305890	0.726132
H101	H	-0.222591	-0.634403	0.236011
H102	H	0.277409	-0.134403	0.736011
H103	H	-0.421362	-0.622307	0.445676
H104	H	0.078638	-0.122307	0.945676
Br105	Br	-0.452210	-1.164932	1.049669
Br106	Br	0.047790	-0.664932	1.549669
Br107	Br	-0.499538	-0.733311	0.528131
Br108	Br	0.000462	-0.233311	1.028131
H109	H	-0.459005	-0.932285	0.485411
H110	H	0.040995	-0.432285	0.985411
Br111	Br	-0.229194	-1.401001	0.672732
Br112	Br	0.270806	-0.901001	1.172732
H113	H	-0.260233	-0.944352	0.275738
H114	H	0.239767	-0.444352	0.775738
Br115	Br	-0.487187	-1.127997	0.688375
Br116	Br	0.012813	-0.627997	1.188375
H117	H	-0.213257	-1.417841	0.838663
H118	H	0.286743	-0.917841	1.338663
H119	H	-0.222550	-1.407977	1.010146
H120	H	0.277450	-0.907977	1.510146
H121	H	-0.468150	-1.148094	0.883736
H122	H	0.031850	-0.648094	1.383736
