data_functionalizedCrystal
_audit_creation_method	'MofGen! by Chris Wilmer'
_symmetry_space_group_name_H-M	'P1'
_symmetry_Int_Tables_number	1
_symmetry_cell_setting	triclinic
loop_
_symmetry_equiv_pos_as_xyz
  x,y,z
_cell_length_a	14.971486
_cell_length_b	23.532407
_cell_length_c	13.448316
_cell_angle_alpha	89.988737
_cell_angle_beta	89.998199
_cell_angle_gamma	83.231404
loop_
_atom_site_label
_atom_site_type_symbol
_atom_site_fract_x
_atom_site_fract_y
_atom_site_fract_z
O1	O	1.186163	0.074216	-0.082588
O2	O	0.925669	0.083104	-0.082616
O3	O	1.063771	-0.004238	-0.082583
O4	O	1.048061	0.161558	-0.082621
O5	O	1.063754	-0.004243	0.082801
O6	O	0.925652	0.083099	0.082767
O7	O	1.186146	0.074211	0.082796
Cu8	Cu	1.055897	0.078654	0.097882
Cu9	Cu	1.055918	0.078661	-0.097703
O10	O	1.048044	0.161553	0.082763
C11	C	0.892340	0.082704	0.000072
C12	C	0.793056	0.081513	0.000062
C13	C	1.063363	-0.025458	0.000111
C14	C	1.062160	-0.088680	0.000119
C15	C	0.735288	0.132824	0.000052
C16	C	0.642001	0.131701	0.000067
C17	C	0.606482	0.079267	0.000085
C18	C	0.664257	0.027952	0.000099
C19	C	0.757543	0.029075	0.000091
C20	C	0.469819	0.025615	0.000113
C21	C	0.376527	0.024491	0.000119
C22	C	0.354277	0.128241	0.000089
C23	C	0.447563	0.129364	0.000081
C24	C	0.505331	0.078049	0.000093
C25	C	1.136342	-0.487466	0.000072
C26	C	1.135224	-0.546871	0.000065
O27	O	1.203992	-0.583321	0.000035
N28	N	1.053123	-0.569849	0.000056
C29	C	0.972133	-0.533418	0.000046
O30	O	0.902196	-0.558417	0.000037
C31	C	0.973251	-0.474014	0.000046
C32	C	1.055358	-0.451040	0.000065
C33	C	1.218442	-0.464491	0.000090
C34	C	1.219559	-0.405090	0.000099
C35	C	1.138576	-0.368664	0.000091
C36	C	1.056475	-0.391639	0.000074
C37	C	0.892263	-0.437584	0.000029
C38	C	0.893388	-0.378177	0.000028
C39	C	0.975495	-0.355203	0.000047
C40	C	0.976609	-0.295812	0.000076
N41	N	1.058711	-0.272834	0.000084
C42	C	1.139694	-0.309260	0.000092
C43	C	0.969791	-0.658170	0.000043
C44	C	0.968671	-0.717573	0.000049
C45	C	1.131763	-0.731022	0.000066
C46	C	1.132882	-0.671618	0.000067
C47	C	1.051892	-0.635193	0.000051
C48	C	1.142034	-0.184513	0.000113
C49	C	1.143143	-0.125106	0.000126
C50	C	0.980052	-0.111663	0.000104
C51	C	0.978942	-0.171064	0.000096
C52	C	1.059940	-0.207489	0.000097
O53	O	0.907878	-0.259327	0.000101
O54	O	1.209619	-0.284253	0.000087
C55	C	1.219475	0.074611	0.000105
C56	C	1.318760	0.075802	0.000109
C57	C	1.048453	0.182773	0.000066
C58	C	1.049655	0.245996	0.000052
N59	N	1.055890	0.078650	0.235447
N60	N	1.055933	0.078661	-0.235267
C61	C	1.117060	0.039991	0.287502
C62	C	1.117066	0.039990	0.391605
C63	C	1.055904	0.078652	0.443651
C64	C	0.994728	0.117313	0.391589
C65	C	0.994718	0.117310	0.287488
C66	C	0.994752	0.117317	0.608569
C67	C	0.994762	0.117320	0.712678
C68	C	1.117100	0.039997	0.712686
C69	C	1.117090	0.039994	0.608585
C70	C	1.055914	0.078656	0.556530
H71	H	0.594969	0.173484	0.000057
C72	C	0.587638	-0.033322	0.085137
C73	C	0.533318	-0.030793	0.000124
H74	H	0.626834	-0.068147	0.085141
H75	H	0.622139	-0.001938	0.085121
H76	H	0.550778	-0.031606	0.142807
H77	H	0.570178	-0.032504	-0.057546
H78	H	0.498814	-0.062185	0.000131
H79	H	0.944933	0.148797	0.566189
H80	H	0.347612	-0.018205	0.000135
C81	C	0.539592	0.190808	0.085043
C82	C	0.486619	0.186996	0.000041
H83	H	0.563710	0.226386	0.085009
H84	H	0.503667	0.188228	0.142714
H85	H	0.587336	0.160401	0.085042
H86	H	0.438871	0.217401	0.000045
H87	H	0.522546	0.189582	-0.057645
H88	H	0.944924	0.148790	0.433971
C89	C	0.770172	-0.073588	0.000104
C90	C	0.821045	-0.027327	0.000093
H91	H	0.809377	-0.108409	0.000101
H92	H	0.733330	-0.071872	0.057776
H93	H	0.733318	-0.071862	-0.057570
H94	H	0.857894	-0.029052	0.057771
H95	H	0.857902	-0.029045	-0.057586
C96	C	1.228767	-0.612613	-0.084940
C97	C	1.223133	-0.646365	0.000077
H98	H	1.284485	-0.597023	-0.084931
H99	H	1.224948	-0.635503	-0.142601
H100	H	1.180696	-0.582415	-0.084937
H101	H	1.271201	-0.676565	0.000070
H102	H	1.226961	-0.623474	0.057753
H103	H	0.307237	0.170023	0.000084
H104	H	0.635331	-0.014741	0.000128
C105	C	0.703915	0.235261	0.000034
C106	C	0.774325	0.190462	0.000034
H107	H	0.728015	0.270845	0.000031
H108	H	0.667994	0.232668	-0.057632
H109	H	0.667995	0.232658	0.057714
H110	H	0.810242	0.193063	-0.057650
H111	H	0.810262	0.193056	0.057706
C112	C	1.304244	-0.144376	0.000135
C113	C	1.233402	-0.099855	0.000138
H114	H	1.359963	-0.128787	0.000134
H115	H	1.300411	-0.167273	0.057801
H116	H	1.300410	-0.167258	-0.057545
H117	H	1.237232	-0.076975	0.057822
H118	H	1.237237	-0.076949	-0.057534
C119	C	1.235431	-0.259099	-0.084903
C120	C	1.231068	-0.224545	0.000118
H121	H	1.290399	-0.283809	-0.084896
H122	H	1.186388	-0.281289	-0.084908
H123	H	1.232479	-0.235631	-0.142567
H124	H	1.234013	-0.248012	0.057783
H125	H	1.280124	-0.202353	0.000132
C126	C	1.380650	-0.424368	0.000105
C127	C	1.309815	-0.379842	0.000106
H128	H	1.436372	-0.408783	0.000101
H129	H	1.376814	-0.447262	0.057774
H130	H	1.376811	-0.447252	-0.057572
H131	H	1.313650	-0.356961	0.057787
H132	H	1.313653	-0.356939	-0.057569
H133	H	1.284392	-0.494144	0.000092
H134	H	1.197704	-0.760691	0.000069
H135	H	0.914118	-0.081994	0.000101
C136	C	0.808468	-0.650853	0.000042
C137	C	0.880759	-0.618134	0.000045
H138	H	0.753505	-0.626137	0.000049
H139	H	0.811431	-0.674293	-0.057629
H140	H	0.811434	-0.674312	0.057718
H141	H	0.877796	-0.594677	-0.057635
H142	H	0.877794	-0.594684	0.057722
C143	C	1.238012	-0.036424	0.381157
C144	C	1.184320	-0.002497	0.448824
H145	H	1.279539	-0.062650	0.416484
H146	H	1.200969	-0.056957	0.340576
H147	H	1.269951	-0.012673	0.340533
H148	H	1.152375	-0.026247	0.489444
H149	H	1.221367	0.018038	0.489423
H150	H	0.901812	-0.736273	0.000052
C151	C	0.731173	-0.418299	-0.000018
C152	C	0.802006	-0.462827	-0.000001
H153	H	0.675450	-0.433883	-0.000044
H154	H	0.734995	-0.395420	0.057656
H155	H	0.735030	-0.395401	-0.057690
H156	H	0.798153	-0.485722	0.057676
H157	H	0.798183	-0.485715	-0.057681
H158	H	0.827435	-0.348522	0.000014
C159	C	0.883084	-0.230055	-0.084942
C160	C	0.888693	-0.196325	0.000085
H161	H	0.827370	-0.245650	-0.084950
H162	H	0.886911	-0.207148	-0.142596
H163	H	0.931161	-0.260249	-0.084932
H164	H	0.840620	-0.166129	0.000072
H165	H	0.884858	-0.219234	0.057754
C166	C	1.170533	-0.058542	0.744751
C167	C	1.184349	-0.002503	0.769895
H168	H	1.212056	-0.084776	0.780067
H169	H	1.110909	-0.064792	0.761832
H170	H	1.179279	-0.064066	0.675301
H171	H	1.175597	0.003022	0.839344
H172	H	1.243988	0.003749	0.752821
C173	C	0.873806	0.193733	0.702218
C174	C	0.927517	0.159807	0.769889
H175	H	0.832285	0.219957	0.737541
H176	H	0.910836	0.214267	0.661608
H177	H	0.841859	0.169980	0.661622
H178	H	0.959469	0.183559	0.810480
H179	H	0.890482	0.139270	0.810517
C180	C	0.873803	0.193746	0.297928
C181	C	0.927482	0.159808	0.230265
H182	H	0.832296	0.219984	0.262600
H183	H	0.841849	0.170007	0.338545
H184	H	0.910863	0.214271	0.338519
H185	H	0.890423	0.139280	0.189679
H186	H	0.959439	0.183550	0.189631
H187	H	1.166868	0.008510	0.245133
H188	H	1.166897	0.008515	0.566209
