data_functionalizedCrystal
_audit_creation_method	'MofGen! by Chris Wilmer'
_symmetry_space_group_name_H-M	'P1'
_symmetry_Int_Tables_number	1
_symmetry_cell_setting	triclinic
loop_
_symmetry_equiv_pos_as_xyz
  x,y,z
_cell_length_a	23.532355
_cell_length_b	23.532357
_cell_length_c	22.610064
_cell_angle_alpha	90.005049
_cell_angle_beta	90.004126
_cell_angle_gamma	82.827896
loop_
_atom_site_label
_atom_site_type_symbol
_atom_site_fract_x
_atom_site_fract_y
_atom_site_fract_z
O1	O	0.755266	0.068983	-0.049111
O2	O	0.589396	0.079018	-0.049131
O3	O	0.677347	-0.008934	-0.049108
O4	O	0.667314	0.156935	-0.049134
O5	O	0.677341	-0.008912	0.049261
O6	O	0.589390	0.079040	0.049238
O7	O	0.755260	0.069006	0.049258
Zn8	Zn	0.672324	0.074026	0.064866
Zn9	Zn	0.672332	0.073997	-0.064739
O10	O	0.667308	0.156958	0.049235
C11	C	0.568177	0.078778	0.000051
C12	C	0.504958	0.078024	0.000044
C13	C	0.112942	0.073298	0.053691
C14	C	0.053543	0.072580	0.053693
O15	O	0.022821	0.072200	0.099295
N16	N	0.023837	0.072212	0.000072
C17	C	0.053535	0.072556	-0.053554
O18	O	0.022815	0.072177	-0.099163
C19	C	0.112934	0.073270	-0.053556
C20	C	0.142636	0.073643	0.000068
C21	C	0.142643	0.073671	0.107311
C22	C	0.202038	0.074390	0.107308
C23	C	0.231732	0.074735	0.053686
C24	C	0.202031	0.074362	0.000066
C25	C	0.142632	0.073609	-0.107182
C26	C	0.202035	0.074322	-0.107179
C27	C	0.231736	0.074696	-0.053555
C28	C	0.291119	0.075426	-0.053560
N29	N	0.320824	0.075794	0.000061
C30	C	0.291131	0.075448	0.053684
C31	C	-0.071206	0.071057	-0.053546
C32	C	-0.130604	0.070348	-0.053545
C33	C	-0.130593	0.070371	0.053702
C34	C	-0.071194	0.071084	0.053701
C35	C	-0.041501	0.071425	0.000074
C36	C	0.415865	0.076958	0.053674
C37	C	0.475264	0.077679	0.053667
C38	C	0.475248	0.077652	-0.053581
C39	C	0.415853	0.076934	-0.053574
C40	C	0.386163	0.076585	0.000059
O41	O	0.321879	0.075804	-0.099138
O42	O	0.321860	0.075820	0.099285
C43	C	0.677094	-0.030140	0.000078
C44	C	0.676339	-0.093358	0.000084
C45	C	0.671605	-0.485381	-0.053570
C46	C	0.670888	-0.544780	-0.053573
O47	O	0.670501	-0.575507	-0.099176
N48	N	0.670529	-0.574479	0.000047
C49	C	0.670882	-0.544775	0.053674
O50	O	0.670510	-0.575490	0.099282
C51	C	0.671595	-0.485376	0.053677
C52	C	0.671960	-0.455681	0.000053
C53	C	0.671970	-0.455685	-0.107189
C54	C	0.672688	-0.396290	-0.107186
C55	C	0.673042	-0.366590	-0.053563
C56	C	0.672678	-0.396286	0.000057
C57	C	0.671943	-0.455672	0.107303
C58	C	0.672656	-0.396269	0.107302
C59	C	0.673021	-0.366574	0.053678
C60	C	0.673750	-0.307191	0.053684
N61	N	0.674109	-0.277492	0.000063
C62	C	0.673755	-0.307192	-0.053560
C63	C	0.669383	-0.669516	0.053664
C64	C	0.668674	-0.728914	0.053662
C65	C	0.668679	-0.728915	-0.053586
C66	C	0.669393	-0.669516	-0.053583
C67	C	0.669742	-0.639817	0.000044
C68	C	0.675264	-0.182458	-0.053548
C69	C	0.675985	-0.123058	-0.053540
C70	C	0.675976	-0.123061	0.053708
C71	C	0.675259	-0.182457	0.053700
C72	C	0.674901	-0.212153	0.000067
O73	O	0.674136	-0.276426	0.099263
O74	O	0.674119	-0.276468	-0.099160
C75	C	0.776479	0.069245	0.000074
C76	C	0.839698	0.069999	0.000078
C77	C	0.667562	0.178163	0.000048
C78	C	0.668317	0.241381	0.000038
N79	N	0.672323	0.074046	0.153319
N80	N	0.672338	0.073973	-0.153192
C81	C	0.633365	0.112944	0.438157
C82	C	0.633364	0.112950	0.376237
O83	O	0.600223	0.146047	0.344210
N84	N	0.672319	0.074023	0.345271
C85	C	0.711274	0.035085	0.376228
O86	O	0.744408	0.001975	0.344204
C87	C	0.711272	0.035077	0.438147
C88	C	0.672319	0.074010	0.469110
C89	C	0.594414	0.151873	0.469120
C90	C	0.594417	0.151868	0.531035
C91	C	0.633370	0.112934	0.561988
C92	C	0.672321	0.074005	0.531025
C93	C	0.750224	-0.003863	0.469103
C94	C	0.750219	-0.003868	0.531026
C95	C	0.711265	0.035065	0.561989
C96	C	0.711277	0.035066	0.623894
N97	N	0.672322	0.073992	0.654860
C98	C	0.633368	0.112927	0.623907
C99	C	0.711273	0.035104	0.246195
C100	C	0.711278	0.035114	0.184277
C101	C	0.633367	0.112978	0.184290
C102	C	0.633366	0.112970	0.246209
C103	C	0.672319	0.074030	0.277161
C104	C	0.633377	0.112914	0.753934
C105	C	0.633384	0.112907	0.815855
C106	C	0.711293	0.035041	0.815837
C107	C	0.711288	0.035049	0.753921
C108	C	0.672325	0.073988	0.722971
O109	O	0.744399	0.001984	0.655961
O110	O	0.600235	0.146026	0.655939
H111	H	-0.047034	0.071340	-0.097218
O112	O	-0.159362	0.069968	-0.105689
C113	C	-0.120411	0.070443	-0.153014
H114	H	-0.075605	0.052924	-0.137287
H115	H	-0.120341	0.116213	-0.169507
C116	C	-0.193515	0.054314	-0.222988
C117	C	-0.138484	0.032793	-0.203674
H118	H	-0.204664	0.031092	-0.254239
H119	H	-0.219758	0.053996	-0.191105
H120	H	-0.193450	0.092455	-0.236729
H121	H	-0.138552	-0.005345	-0.189927
H122	H	-0.112241	0.033103	-0.235556
H123	H	0.118459	0.073304	-0.150849
H124	H	0.601649	0.144620	0.728742
O125	O	0.595619	0.150782	0.845958
C126	C	0.625908	0.185750	0.881794
H127	H	0.670815	0.186478	0.863139
H128	H	0.628997	0.167907	0.928719
C129	C	0.539002	0.246170	0.905662
C130	C	0.594157	0.247068	0.882747
H131	H	0.519416	0.283993	0.906253
H132	H	0.518595	0.222610	0.881521
H133	H	0.541585	0.231298	0.944764
H134	H	0.591574	0.261933	0.843643
H135	H	0.614563	0.270632	0.906882
H136	H	0.601646	0.144672	0.271415
O137	O	0.230786	0.074681	-0.159327
C138	C	0.191830	0.074185	-0.206651
H139	H	0.147025	0.091708	-0.190928
H140	H	0.191760	0.028407	-0.223131
C141	C	0.264926	0.090286	-0.276631
C142	C	0.209896	0.111813	-0.257322
H143	H	0.276070	0.113495	-0.307889
H144	H	0.291172	0.090618	-0.244749
H145	H	0.264860	0.052138	-0.290361
H146	H	0.209964	0.149957	-0.243587
H147	H	0.183651	0.111488	-0.289203
H148	H	0.672983	-0.372118	-0.150852
O149	O	0.556519	0.189707	0.561016
C150	C	0.522151	0.224076	0.520408
H151	H	0.521653	0.200728	0.476268
H152	H	0.540392	0.266290	0.513831
C153	C	0.461253	0.264812	0.598775
C154	C	0.460638	0.236133	0.544562
H155	H	0.423310	0.272252	0.613675
H156	H	0.484409	0.241658	0.626134
H157	H	0.476457	0.299986	0.593287
H158	H	0.445441	0.200956	0.550052
H159	H	0.437478	0.259281	0.517205
H160	H	0.671647	-0.479840	0.150970
H161	H	0.499435	0.077936	-0.097239
H162	H	0.671679	-0.479860	-0.150858
O163	O	0.595547	0.150744	0.154124
C164	C	0.603915	0.142407	0.092835
H165	H	0.625468	0.097014	0.084377
H166	H	0.632291	0.174494	0.075273
C167	C	0.519139	0.207026	0.071424
C168	C	0.545606	0.151272	0.061035
H169	H	0.483172	0.212497	0.051807
H170	H	0.513502	0.212645	0.112715
H171	H	0.542791	0.233759	0.056789
H172	H	0.521958	0.124540	0.075676
H173	H	0.551238	0.145649	0.019745
O174	O	0.668358	-0.757687	-0.105730
C175	C	0.668814	-0.718742	-0.153062
H176	H	0.687358	-0.678863	-0.137345
H177	H	0.623193	-0.706181	-0.169555
C178	C	0.683114	-0.796019	-0.223024
C179	C	0.705895	-0.747041	-0.203720
H180	H	0.705985	-0.813475	-0.254273
H181	H	0.682805	-0.822257	-0.191136
H182	H	0.645097	-0.785544	-0.236763
H183	H	0.743908	-0.757517	-0.189974
H184	H	0.706212	-0.720806	-0.235607
O185	O	-0.159452	0.069926	0.105779
C186	C	-0.187074	0.020184	0.108980
H187	H	-0.164459	-0.014082	0.078552
H188	H	-0.233616	0.030791	0.094572
C189	C	-0.212704	0.039896	0.210417
C190	C	-0.184924	-0.002192	0.173049
H191	H	-0.211380	0.026094	0.249937
H192	H	-0.194096	0.073409	0.208260
H193	H	-0.251486	0.048731	0.198403
H194	H	-0.146141	-0.011020	0.185059
H195	H	-0.203525	-0.035707	0.175209
O196	O	0.673072	-0.367371	0.159361
C197	C	0.722825	-0.339768	0.162595
H198	H	0.739387	-0.333113	0.116044
H199	H	0.757089	-0.367385	0.189060
C200	C	0.688174	-0.289474	0.250437
C201	C	0.708513	-0.281296	0.193262
H202	H	0.679347	-0.253407	0.269356
H203	H	0.654656	-0.308072	0.248260
H204	H	0.716731	-0.312490	0.272484
H205	H	0.679953	-0.258287	0.171214
H206	H	0.742026	-0.262693	0.195436
H207	H	0.669689	-0.645343	-0.097248
H208	H	0.668386	-0.753088	0.097328
H209	H	0.499444	0.077985	0.097336
O210	O	0.113795	0.073233	0.159390
C211	C	0.086166	0.023497	0.162613
H212	H	0.108768	-0.010777	0.132185
H213	H	0.039620	0.034107	0.148219
C214	C	0.060571	0.043231	0.264055
C215	C	0.088334	0.001133	0.226686
H216	H	0.061906	0.029436	0.303578
H217	H	0.079183	0.076740	0.261883
H218	H	0.021785	0.052068	0.252053
H219	H	0.127120	-0.007699	0.238684
H220	H	0.069728	-0.032379	0.228862
H221	H	0.674967	-0.206636	0.097365
O222	O	0.676311	-0.094297	-0.105685
C223	C	0.675857	-0.133255	-0.153013
H224	H	0.657311	-0.173128	-0.137294
H225	H	0.721478	-0.145822	-0.169495
C226	C	0.661563	-0.055997	-0.222986
C227	C	0.638780	-0.104969	-0.203681
H228	H	0.638695	-0.038549	-0.254241
H229	H	0.661872	-0.029750	-0.191101
H230	H	0.699581	-0.066477	-0.236717
H231	H	0.600766	-0.094488	-0.189943
H232	H	0.638465	-0.131213	-0.235565
H233	H	0.669669	-0.645338	0.097336
H234	H	-0.047015	0.071389	0.097366
H235	H	0.676267	-0.098869	0.097366
O236	O	0.556652	0.189724	0.438994
C237	C	0.586946	0.224719	0.403205
H238	H	0.631640	0.201798	0.393918
H239	H	0.590576	0.266782	0.427089
C240	C	0.499865	0.265238	0.355801
C241	C	0.554758	0.237084	0.344390
H242	H	0.480010	0.272868	0.319522
H243	H	0.479455	0.241663	0.379914
H244	H	0.502898	0.300287	0.375705
H245	H	0.551725	0.202033	0.324493
H246	H	0.575167	0.260653	0.320273
O247	O	0.749066	-0.002813	0.154270
C248	C	0.740105	-0.059118	0.169462
H249	H	0.694496	-0.059112	0.186451
H250	H	0.771737	-0.075990	0.205442
C251	C	0.805218	-0.097848	0.093635
C252	C	0.749198	-0.097841	0.114498
H253	H	0.810829	-0.121736	0.059732
H254	H	0.811257	-0.059915	0.083401
H255	H	0.831571	-0.111907	0.123624
H256	H	0.722846	-0.083776	0.084512
H257	H	0.743155	-0.135774	0.124725
H258	H	0.742998	0.003396	0.271393
H259	H	0.391668	0.076639	-0.097239
H260	H	0.781939	-0.035579	0.556224
H261	H	0.743010	0.003343	0.841049
H262	H	0.781943	-0.035566	0.443902
H263	H	0.674970	-0.206629	-0.097221
H264	H	0.743013	0.003352	0.728711
H265	H	0.391697	0.076678	0.097347
O266	O	0.230900	0.074845	0.159383
C267	C	0.258531	0.124582	0.162589
H268	H	0.235922	0.158845	0.132157
H269	H	0.305073	0.113966	0.148187
C270	C	0.284155	0.104883	0.264029
C271	C	0.256382	0.146968	0.226657
H272	H	0.282832	0.118692	0.303550
H273	H	0.265541	0.071374	0.261869
H274	H	0.322937	0.096041	0.252021
H275	H	0.217599	0.155805	0.238661
H276	H	0.274990	0.180480	0.228820
