data_functionalizedCrystal
_audit_creation_method	'MofGen! by Chris Wilmer'
_symmetry_space_group_name_H-M	'P1'
_symmetry_Int_Tables_number	1
_symmetry_cell_setting	triclinic
loop_
_symmetry_equiv_pos_as_xyz
  x,y,z
_cell_length_a	6.817900
_cell_length_b	11.168129
_cell_length_c	16.015572
_cell_angle_alpha	76.766063
_cell_angle_beta	104.485554
_cell_angle_gamma	108.508637
loop_
_atom_site_label
_atom_site_type_symbol
_atom_site_fract_x
_atom_site_fract_y
_atom_site_fract_z
V1	V	-3.999072	-0.050929	-0.269395
O2	O	-3.960768	0.129811	-0.264259
O3	O	-3.976116	-0.223478	-0.267560
O4	O	-3.927036	0.005739	-0.386884
O5	O	-4.010188	-0.100993	-0.144109
V6	V	-4.482466	-0.035914	-0.254409
O7	O	-4.260614	-0.083867	-0.302268
O8	O	-4.671122	-0.002977	-0.221536
O9	O	-4.282216	0.136634	-0.256244
O10	O	-4.638167	-0.216654	-0.259545
O11	O	-4.588747	0.014149	-0.379695
O12	O	-4.331296	-0.092582	-0.136920
C13	C	-3.828071	-0.267288	-0.263312
C14	C	-3.890431	-0.407989	-0.262595
C15	C	-3.892349	-0.488130	-0.187081
C16	C	-3.956800	-0.633552	-0.186338
C17	C	-3.765464	0.025102	-0.415521
C18	C	-3.788018	0.070293	-0.511569
C19	C	-4.135799	-0.330821	-0.889219
C20	C	-4.156991	-0.288316	-0.979467
C21	C	-4.047576	-0.068411	-0.954750
C22	C	-4.026365	-0.110897	-0.864499
C23	C	-4.070483	-0.242103	-0.831741
C24	C	-3.961048	-0.022180	-0.807020
C25	C	-3.939850	-0.064663	-0.716777
C26	C	-3.983968	-0.195864	-0.684012
C27	C	-4.049284	-0.284587	-0.741497
C28	C	-3.916946	0.109026	-0.839780
C29	C	-3.851629	0.197743	-0.782302
C30	C	-3.830415	0.155261	-0.692056
C31	C	-3.874533	0.024060	-0.659291
C32	C	-3.765099	0.243983	-0.634570
C33	C	-3.743900	0.201500	-0.544327
C34	C	-3.853335	-0.018424	-0.569047
C35	C	-4.093604	0.180437	-0.260490
C36	C	-4.010482	0.321139	-0.261212
C37	C	-4.156212	-0.111952	-0.108279
C38	C	-4.112895	-0.157137	-0.012230
H39	H	-3.958535	-0.702404	-0.121686
O40	O	-3.837182	-0.441711	-0.110541
C41	C	-3.661737	-0.480822	-0.058117
H42	H	-3.654277	-0.570245	-0.078676
H43	H	-3.511349	-0.400917	-0.066653
C44	C	-3.692483	-0.400858	0.063704
C45	C	-3.683330	-0.510695	0.038457
H46	H	-3.705794	-0.419279	0.123276
H47	H	-3.810678	-0.374503	0.028384
H48	H	-3.567155	-0.334281	0.056583
H49	H	-3.808666	-0.577264	0.045568
H50	H	-3.565155	-0.537061	0.073781
O51	O	-3.895591	-0.145822	-0.537062
C52	C	-3.713344	-0.172630	-0.481411
H53	H	-3.567883	-0.094534	-0.498798
H54	H	-3.721596	-0.176017	-0.410654
C55	C	-3.878269	-0.398749	-0.471362
C56	C	-3.699611	-0.302836	-0.492721
H57	H	-3.869800	-0.479068	-0.478334
H58	H	-4.001057	-0.380689	-0.508852
H59	H	-3.885126	-0.401556	-0.412398
H60	H	-3.692771	-0.300020	-0.551686
H61	H	-3.576821	-0.320898	-0.455240
O62	O	-4.177939	-0.458259	-0.857375
C63	C	-4.042930	-0.510431	-0.882748
H64	H	-3.985533	-0.447016	-0.943470
H65	H	-3.901944	-0.515832	-0.827387
C66	C	-4.233936	-0.723677	-0.828641
C67	C	-4.163453	-0.645794	-0.903226
H68	H	-4.308274	-0.807177	-0.841270
H69	H	-4.324889	-0.688529	-0.811544
H70	H	-4.116432	-0.728163	-0.782514
H71	H	-4.280958	-0.641297	-0.949348
H72	H	-4.072522	-0.680945	-0.920332
H73	H	-4.008728	-0.610016	-0.325867
O74	O	-4.220497	-0.374335	-1.035426
C75	C	-4.229696	-0.308707	-1.122102
H76	H	-4.248838	-0.209890	-1.125332
H77	H	-4.077978	-0.298095	-1.144429
C78	C	-4.395322	-0.506207	-1.178290
C79	C	-4.418851	-0.384842	-1.182259
H80	H	-4.511995	-0.553172	-1.215400
H81	H	-4.389118	-0.550423	-1.119895
H82	H	-4.268883	-0.497346	-1.196895
H83	H	-4.545273	-0.393704	-1.163644
H84	H	-4.425080	-0.340629	-1.240652
H85	H	-3.936510	-0.447037	-0.326695
O86	O	-4.091424	-0.412026	-0.709653
C87	C	-3.956415	-0.464197	-0.735026
H88	H	-3.899018	-0.400782	-0.795748
H89	H	-3.815428	-0.469598	-0.679665
C90	C	-4.147420	-0.677443	-0.680919
C91	C	-4.076938	-0.599561	-0.755504
H92	H	-4.221759	-0.760944	-0.693548
H93	H	-4.238374	-0.642295	-0.663822
H94	H	-4.029916	-0.681929	-0.634792
H95	H	-4.194442	-0.595063	-0.801626
H96	H	-3.986007	-0.634711	-0.772610
O97	O	-3.963568	-0.236992	-0.596339
C98	C	-4.099589	-0.194970	-0.563582
H99	H	-4.137559	-0.107634	-0.609758
H100	H	-4.251610	-0.274867	-0.558309
C101	C	-3.944889	-0.266384	-0.415835
C102	C	-3.991510	-0.159109	-0.472545
H103	H	-3.878228	-0.244269	-0.359678
H104	H	-3.853254	-0.294700	-0.437903
H105	H	-4.071585	-0.332955	-0.411451
H106	H	-3.864814	-0.092547	-0.476937
H107	H	-4.083122	-0.130781	-0.450476
O108	O	-3.937879	0.150141	-0.927466
C109	C	-4.148058	0.099972	-0.968571
H110	H	-4.225489	0.009921	-0.925178
H111	H	-4.238437	0.174165	-0.979689
C112	C	-4.055858	0.177196	-1.110364
C113	C	-4.150955	0.066587	-1.057071
H114	H	-4.057649	0.156607	-1.164957
H115	H	-3.914258	0.211001	-1.082672
H116	H	-4.131187	0.239013	-1.119620
H117	H	-4.075611	0.004779	-1.047807
H118	H	-4.292543	0.032771	-1.084764
O119	O	-3.721941	0.371470	-0.666285
C120	C	-3.510386	0.432062	-0.632566
H121	H	-3.452821	0.371310	-0.569170
H122	H	-3.408718	0.443590	-0.682155
C123	C	-3.565091	0.639357	-0.692250
C124	C	-3.494396	0.564746	-0.614382
H125	H	-3.555223	0.721206	-0.681037
H126	H	-3.707619	0.598537	-0.714971
H127	H	-3.480360	0.648950	-0.733566
H128	H	-3.579143	0.555141	-0.573071
H129	H	-3.351882	0.605569	-0.591654
O130	O	-3.680546	0.287502	-0.488367
C131	C	-3.671247	0.221868	-0.401691
H132	H	-3.778654	0.120080	-0.401517
H133	H	-3.502316	0.218783	-0.371632
C134	C	-3.612281	0.416855	-0.348064
C135	C	-3.744213	0.291841	-0.347850
H136	H	-3.657279	0.460019	-0.314850
H137	H	-3.618537	0.461076	-0.406458
H138	H	-3.471515	0.414267	-0.323016
H139	H	-3.884970	0.294431	-0.372907
H140	H	-3.737982	0.247622	-0.289458
H141	H	-4.011669	0.038418	-0.981435
H142	H	-3.815721	0.304572	-0.808986
