data_functionalizedCrystal
_audit_creation_method	'MofGen! by Chris Wilmer'
_symmetry_space_group_name_H-M	'P1'
_symmetry_Int_Tables_number	1
_symmetry_cell_setting	triclinic
loop_
_symmetry_equiv_pos_as_xyz
  x,y,z
_cell_length_a	27.732048
_cell_length_b	27.732048
_cell_length_c	26.210047
_cell_angle_alpha	90.011237
_cell_angle_beta	90.018945
_cell_angle_gamma	82.642655
loop_
_atom_site_label
_atom_site_type_symbol
_atom_site_fract_x
_atom_site_fract_y
_atom_site_fract_z
O1	O	0.640941	0.057516	0.042369
O2	O	0.500148	0.066262	0.042385
O3	O	0.574917	-0.008508	0.042367
O4	O	0.566172	0.132286	0.042387
O5	O	0.574883	-0.008509	-0.042491
O6	O	0.500113	0.066261	-0.042473
O7	O	0.640907	0.057515	-0.042489
Cu8	Cu	0.570507	0.061888	-0.050229
Cu9	Cu	0.570548	0.061889	0.050125
O10	O	0.566137	0.132285	-0.042471
C11	C	0.482124	0.066078	-0.000042
C12	C	0.428469	0.065525	-0.000036
C13	C	0.574716	-0.026515	-0.000064
C14	C	0.574164	-0.080170	-0.000068
C15	C	0.089654	0.106229	-0.000053
C16	C	-0.112006	0.104178	-0.000057
O17	O	-0.143262	0.141398	-0.000074
N18	N	-0.131130	0.059843	-0.000063
C19	C	-0.099835	0.016017	-0.000071
O20	O	-0.120728	-0.021740	-0.000081
C21	C	0.101824	0.018068	-0.000069
C22	C	0.120944	0.062407	-0.000059
C23	C	0.108775	0.150563	-0.000043
C24	C	0.159187	0.151075	-0.000039
C25	C	0.190477	0.107253	-0.000045
C26	C	0.171356	0.062919	-0.000055
C27	C	0.133117	-0.025757	-0.000081
C28	C	0.183534	-0.025240	-0.000082
C29	C	0.202655	0.019098	-0.000071
C30	C	0.253059	0.019609	-0.000057
N31	N	0.272183	0.063944	-0.000051
C32	C	0.240892	0.107766	-0.000045
C33	C	-0.205709	0.014943	-0.000070
C34	C	-0.256124	0.014430	-0.000070
C35	C	-0.268291	0.102591	-0.000057
C36	C	-0.217876	0.103104	-0.000054
C37	C	-0.186585	0.059278	-0.000065
C38	C	0.346761	0.108839	-0.000036
C39	C	0.397178	0.109347	-0.000030
C40	C	0.409341	0.021186	-0.000045
C41	C	0.358929	0.020678	-0.000049
C42	C	0.327639	0.064508	-0.000046
O43	O	0.284343	-0.017592	-0.000046
O44	O	0.261794	0.145518	-0.000047
C45	C	0.039242	0.105716	-0.000057
C46	C	0.020120	0.061382	-0.000067
C47	C	0.051411	0.017560	-0.000073
C48	C	-0.030294	0.060869	-0.000066
C49	C	-0.061585	0.104691	-0.000060
C50	C	-0.042461	0.149026	-0.000054
C51	C	0.007951	0.149539	-0.000050
C52	C	0.032287	-0.026775	-0.000078
C53	C	-0.018125	-0.027284	-0.000082
C54	C	-0.049416	0.016538	-0.000076
C55	C	0.614867	-0.418985	-0.000046
C56	C	0.612816	-0.620645	-0.000039
O57	O	0.650037	-0.651900	-0.000021
N58	N	0.568481	-0.639768	-0.000034
C59	C	0.524656	-0.608474	-0.000028
O60	O	0.486899	-0.629367	-0.000019
C61	C	0.526707	-0.406815	-0.000032
C62	C	0.571045	-0.387694	-0.000042
C63	C	0.659202	-0.399864	-0.000056
C64	C	0.659714	-0.349452	-0.000060
C65	C	0.615892	-0.318161	-0.000056
C66	C	0.571557	-0.337282	-0.000046
C67	C	0.482882	-0.375521	-0.000022
C68	C	0.483399	-0.325104	-0.000022
C69	C	0.527737	-0.305983	-0.000032
C70	C	0.528247	-0.255580	-0.000046
N71	N	0.572583	-0.236456	-0.000051
C72	C	0.616405	-0.267747	-0.000056
C73	C	0.523582	-0.714348	-0.000027
C74	C	0.523069	-0.764762	-0.000027
C75	C	0.611230	-0.776930	-0.000037
C76	C	0.611742	-0.726514	-0.000041
C77	C	0.567917	-0.695224	-0.000032
C78	C	0.617477	-0.161878	-0.000066
C79	C	0.617986	-0.111461	-0.000073
C80	C	0.529825	-0.099298	-0.000060
C81	C	0.529316	-0.149710	-0.000056
C82	C	0.573146	-0.180999	-0.000057
O83	O	0.491047	-0.224296	-0.000059
O84	O	0.654156	-0.246844	-0.000054
C85	C	0.614355	-0.469397	-0.000042
C86	C	0.570021	-0.488518	-0.000033
C87	C	0.526198	-0.457228	-0.000028
C88	C	0.569508	-0.538933	-0.000033
C89	C	0.613330	-0.570223	-0.000037
C90	C	0.657665	-0.551100	-0.000042
C91	C	0.658177	-0.500688	-0.000046
C92	C	0.481863	-0.476351	-0.000023
C93	C	0.481355	-0.526764	-0.000019
C94	C	0.525177	-0.558054	-0.000024
C95	C	0.658931	0.057699	-0.000061
C96	C	0.712586	0.058252	-0.000064
C97	C	0.566338	0.150292	-0.000040
C98	C	0.566891	0.203947	-0.000032
N99	N	0.570482	0.061887	-0.120813
C100	C	0.537408	0.094981	-0.526773
C101	C	0.537385	0.094982	-0.313114
O102	O	0.509207	0.123115	-0.285489
N103	N	0.570497	0.061885	-0.286397
C104	C	0.603615	0.028785	-0.313098
O105	O	0.631775	0.000631	-0.285471
C106	C	0.603636	0.028783	-0.526756
C107	C	0.570525	0.061884	-0.553470
C108	C	0.504299	0.128080	-0.553487
C109	C	0.504307	0.128081	-0.606898
C110	C	0.537424	0.094984	-0.633596
C111	C	0.570533	0.061886	-0.606881
C112	C	0.636752	-0.004320	-0.553456
C113	C	0.636753	-0.004319	-0.606873
C114	C	0.603642	0.028783	-0.633588
C115	C	0.603657	0.028790	-0.686990
N116	N	0.570545	0.061886	-0.713707
C117	C	0.537428	0.094983	-0.687010
C118	C	0.603603	0.028789	-0.200925
C119	C	0.603598	0.028790	-0.147511
C120	C	0.537367	0.094986	-0.147530
C121	C	0.537374	0.094987	-0.200945
C122	C	0.570491	0.061885	-0.227642
C123	C	0.537448	0.094984	-0.799178
C124	C	0.537460	0.094983	-0.852594
C125	C	0.603689	0.028786	-0.852569
C126	C	0.603679	0.028787	-0.799158
C127	C	0.570554	0.061888	-0.772463
O128	O	0.631817	0.000667	-0.714649
O129	O	0.509265	0.123125	-0.714646
C130	C	0.537400	0.094980	-0.473361
C131	C	0.570509	0.061881	-0.446647
C132	C	0.603626	0.028784	-0.473344
C133	C	0.570504	0.061883	-0.393233
C134	C	0.537388	0.094980	-0.366536
C135	C	0.504276	0.128076	-0.393253
C136	C	0.504283	0.128077	-0.446664
C137	C	0.636738	-0.004312	-0.446627
C138	C	0.636728	-0.004310	-0.393216
C139	C	0.603611	0.028787	-0.366519
N140	N	0.570577	0.061886	0.120709
H141	H	0.412743	0.145454	-0.000021
Cl142	Cl	0.462662	0.169694	-0.519934
Cl143	Cl	-0.193844	0.158845	-0.000043
Cl144	Cl	0.428300	-0.285770	-0.000010
Cl145	Cl	0.462677	0.169693	-0.640476
H146	H	0.510403	0.121936	-0.125785
Cl147	Cl	0.672579	-0.201205	-0.000068
H148	H	-0.180236	-0.020747	-0.000079
H149	H	0.695819	-0.333889	-0.000066
H150	H	0.209009	-0.060929	-0.000091
H151	H	0.630646	0.001838	-0.777407
Cl152	Cl	0.334890	-0.035062	-0.000065
H153	H	0.510412	0.121941	-0.222693
Cl154	Cl	0.678359	-0.045926	-0.359638
Cl155	Cl	0.069446	0.205662	-0.000033
Cl156	Cl	0.426766	-0.437021	-0.000017
H157	H	0.487892	-0.688875	-0.000020
Cl158	Cl	-0.042156	-0.083029	-0.000089
H159	H	0.646911	-0.802415	-0.000041
Cl160	Cl	0.645232	-0.012819	-0.113933
Cl161	Cl	0.473577	-0.173748	-0.000053
H162	H	0.477321	0.155032	-0.468411
Cl163	Cl	0.467327	-0.788793	-0.000025
Cl164	Cl	0.462645	0.169685	-0.359680
H165	H	0.174750	0.187180	-0.000030
Cl166	Cl	0.714300	-0.439193	-0.000062
H167	H	0.023514	0.185643	-0.000042
Cl168	Cl	0.678375	-0.045923	-0.480183
Cl169	Cl	-0.081807	0.204116	-0.000045
Cl170	Cl	0.071617	-0.081872	-0.000086
H171	H	0.434827	-0.014492	-0.000048
H172	H	0.510497	0.121940	-0.874343
H173	H	0.654093	-0.095896	-0.000082
H174	H	0.117558	-0.061861	-0.000090
H175	H	0.630571	0.001832	-0.222657
H176	H	0.630654	0.001839	-0.874315
H177	H	0.663713	-0.031275	-0.531712
Cl178	Cl	0.474737	-0.059952	-0.000053
Cl179	Cl	0.667483	-0.702482	-0.000053
H180	H	0.446777	-0.391080	-0.000011
H181	H	0.663720	-0.031276	-0.628607
H182	H	0.321291	0.144530	-0.000036
H183	H	0.510474	0.121937	-0.777449
Cl184	Cl	0.712755	-0.590446	-0.000050
Cl185	Cl	-0.307637	0.157681	-0.000052
H186	H	0.694282	-0.485125	-0.000054
Cl187	Cl	-0.280155	-0.041312	-0.000070
H188	H	0.445246	-0.542327	-0.000016
