data_functionalizedCrystal
_audit_creation_method	'MofGen! by Chris Wilmer'
_symmetry_space_group_name_H-M	'P1'
_symmetry_Int_Tables_number	1
_symmetry_cell_setting	triclinic
loop_
_symmetry_equiv_pos_as_xyz
  x,y,z
_cell_length_a	20.016444
_cell_length_b	14.560438
_cell_length_c	14.560438
_cell_angle_alpha	59.996693
_cell_angle_beta	90.002268
_cell_angle_gamma	60.003759
loop_
_atom_site_label
_atom_site_type_symbol
_atom_site_fract_x
_atom_site_fract_y
_atom_site_fract_z
Zr1	Zr	0.643583	1.005358	-0.120592
O2	O	0.536909	1.196962	-0.267253
O3	O	0.676284	0.813751	-0.075624
O4	O	0.676281	1.005363	-0.267241
O5	O	0.536915	1.005348	0.075505
O6	O	0.786221	1.005370	-0.267241
O7	O	0.536912	1.005350	-0.075636
O8	O	0.786226	0.662612	0.075526
O9	O	0.536910	1.348106	-0.267262
O10	O	0.772278	0.892569	-0.056456
O11	O	0.690233	0.892561	0.056339
O12	O	0.690230	1.118159	-0.169265
O13	O	0.608186	1.118152	-0.056470
Zr14	Zr	0.818929	1.005366	0.120460
Zr15	Zr	0.818925	1.005370	-0.120592
Zr16	Zr	0.643588	1.005354	0.120460
Zr17	Zr	0.643585	1.246415	-0.120607
Zr18	Zr	0.818928	0.764309	0.120475
O19	O	0.786229	1.196972	0.075492
O20	O	0.786222	1.196978	-0.267253
O21	O	0.536916	1.196956	0.075492
O22	O	0.925603	0.813762	0.267121
O23	O	0.925597	0.813768	-0.075624
O24	O	0.676290	0.813746	0.267121
O25	O	0.925598	1.005376	-0.075637
O26	O	0.786231	1.005361	0.267109
O27	O	0.676291	1.005354	0.267109
O28	O	0.925601	1.005373	0.075504
O29	O	0.676283	1.348115	-0.267263
O30	O	0.786229	0.662609	0.267131
O31	O	0.925602	0.662618	0.267130
O32	O	0.925599	0.662621	0.075526
O33	O	0.536914	1.348102	-0.075658
O34	O	0.676287	1.348111	-0.075658
O35	O	0.772282	0.892565	0.169133
O36	O	0.854327	0.892572	0.056338
O37	O	0.772279	1.118162	-0.056471
O38	O	0.690235	1.118155	0.056324
C39	C	0.731255	0.703836	-0.000047
C40	C	0.731254	0.601501	-0.000040
C41	C	0.670684	0.636713	-0.083322
C42	C	0.670688	0.540573	-0.083351
C43	C	0.791834	0.374011	0.083195
C44	C	0.791834	0.470150	0.083218
C45	C	0.511931	1.005347	-0.000066
C46	C	0.437494	1.005343	-0.000065
C47	C	0.309055	0.887602	0.058822
C48	C	0.239110	0.887607	0.058825
C49	C	0.153459	1.123131	-0.058956
C50	C	0.223404	1.123124	-0.058951
C51	C	0.301201	1.005356	-0.000065
C52	C	0.161312	1.005368	-0.000067
C53	C	0.085474	1.005375	-0.000064
C54	C	0.377044	1.005348	-0.000066
C55	C	0.950582	1.005376	-0.000066
C56	C	1.025019	1.005381	-0.000066
C57	C	0.731251	1.005367	-0.301585
C58	C	0.731249	1.005369	-0.403918
C59	C	0.731258	1.306887	-0.000085
C60	C	0.731259	1.409222	-0.000092
C61	C	0.688422	1.123122	-0.510880
C62	C	0.688431	1.123116	-0.607029
C63	C	0.774096	0.887592	-0.489241
C64	C	0.774091	0.887600	-0.393094
C65	C	0.731262	1.005357	0.301454
C66	C	0.731264	1.005355	0.403786
C67	C	0.950580	0.703851	-0.000047
C68	C	1.025017	0.601521	-0.000041
C69	C	0.731260	0.703831	0.301473
C70	C	0.731262	0.601495	0.403812
C71	C	0.950586	0.703846	0.301473
C72	C	1.025024	0.601514	0.403812
C73	C	0.511927	1.306878	-0.301604
C74	C	0.437489	1.409210	-0.403944
C75	C	0.511933	1.306873	-0.000085
C76	C	0.437496	1.409203	-0.000091
C77	C	0.731252	1.306892	-0.301605
C78	C	0.731251	1.409229	-0.403944
C79	C	1.017144	0.553463	-0.058925
C80	C	1.087078	0.457327	-0.058942
C81	C	1.164884	0.409242	-0.000066
C82	C	1.172755	0.457309	0.058820
C83	C	1.102822	0.553451	0.058829
C84	C	1.102815	0.553462	0.392994
C85	C	1.172764	0.457323	0.489143
C86	C	1.164921	0.409233	0.596110
C87	C	1.087122	0.457294	0.606926
C88	C	1.017174	0.553437	0.510777
C89	C	0.359698	1.457274	-0.393126
C90	C	0.289748	1.553442	-0.489275
C91	C	0.297592	1.601538	-0.596242
C92	C	0.375391	1.553470	-0.607058
C93	C	0.445338	1.457310	-0.510909
C94	C	0.445369	1.457270	0.058783
C95	C	0.375434	1.553433	0.058773
C96	C	0.297628	1.601521	-0.000106
C97	C	0.289757	1.553450	-0.058988
C98	C	0.359691	1.457295	-0.058983
C99	C	0.774090	0.553416	0.510769
C100	C	0.774082	0.457269	0.606924
C101	C	0.688416	0.457283	0.489152
C102	C	0.688420	0.553435	0.392999
H103	H	0.621367	0.569255	-0.151169
N104	N	0.820282	0.760585	-0.277720
H105	H	0.813780	0.778463	-0.218456
H106	H	0.880177	0.709166	-0.268806
N107	N	0.392961	0.760581	0.122337
H108	H	0.399510	0.709103	0.204706
H109	H	0.436032	0.778543	0.113317
N110	N	0.933232	0.605308	-0.122429
H111	H	0.902299	0.701829	-0.181680
H112	H	0.902376	0.588470	-0.068347
N113	N	0.205835	1.605302	-0.122467
H114	H	0.174899	1.701824	-0.181718
H115	H	0.174997	1.588463	-0.068358
N116	N	0.351216	1.405429	-0.277768
H117	H	0.378331	1.422156	-0.235250
H118	H	0.378305	1.308927	-0.235331
N119	N	1.078672	0.405401	0.722302
H120	H	1.018779	0.450422	0.714578
H121	H	1.105829	0.422132	0.764759
H122	H	0.508677	1.418177	-0.519731
N123	N	0.247574	0.760606	0.122333
H124	H	0.278473	0.709119	0.204704
H125	H	0.278441	0.709228	0.091362
H126	H	0.653537	1.219017	-0.519699
N127	N	0.383930	1.605288	0.122268
H128	H	0.356816	1.588579	0.181516
H129	H	0.356840	1.701787	0.068170
N130	N	0.857161	0.432183	0.173050
H131	H	0.888982	0.468378	0.136724
H132	H	0.895480	0.334381	0.225769
H133	H	0.953836	0.592549	0.519601
N134	N	0.222144	1.705252	-0.699940
H135	H	0.171676	1.728392	-0.676845
H136	H	0.222176	1.671720	-0.746177
N137	N	1.111322	0.605277	0.122344
H138	H	1.055219	0.673485	0.113420
H139	H	1.142252	0.645095	0.091412
H140	H	0.381767	1.592642	-0.694161
H141	H	0.090110	1.219014	-0.106900
H142	H	0.653539	0.592584	0.305904
N143	N	0.214937	1.250136	-0.122470
H144	H	0.155040	1.324743	-0.159784
H145	H	0.242094	1.255253	-0.181656
H146	H	0.240691	1.679817	-0.000100
N147	N	1.240305	0.305547	-0.000086
H148	H	1.240326	0.225768	0.033421
H149	H	1.290753	0.282477	0.046126
N150	N	0.351194	1.405455	-0.122487
H151	H	0.291291	1.450515	-0.159781
H152	H	0.378338	1.308935	-0.068420
N153	N	0.642262	1.250121	-0.722395
H154	H	0.615130	1.324723	-0.714656
H155	H	0.599207	1.255270	-0.764882
H156	H	0.808976	0.791709	-0.480442
N157	N	0.857166	0.232340	0.172987
H158	H	0.830743	0.188723	0.216733
H159	H	0.895521	0.224728	0.225674
N160	N	1.111286	0.605308	0.277631
H161	H	1.171186	0.560268	0.285384
H162	H	1.084130	0.701832	0.235158
H163	H	0.226408	1.592563	-0.480447
H164	H	1.080654	0.418203	-0.106894
N165	N	1.256677	0.405442	0.122318
H166	H	1.299778	0.337242	0.113373
H167	H	1.263163	0.365604	0.204663
H168	H	0.808972	0.592548	0.519580
H169	H	0.508716	1.418124	0.106737
H170	H	0.808956	0.418130	0.694010
N171	N	1.256669	0.405495	0.477463
H172	H	1.251017	0.450544	0.395109
H173	H	1.287559	0.308972	0.514801
N174	N	0.642215	0.405439	0.477492
H175	H	0.648714	0.337227	0.554633
H176	H	0.664705	0.365624	0.434973
H177	H	0.621352	0.743661	-0.151110
H178	H	1.221884	0.330947	0.674391
