data_functionalizedCrystal
_audit_creation_method	'MofGen! by Chris Wilmer'
_symmetry_space_group_name_H-M	'P1'
_symmetry_Int_Tables_number	1
_symmetry_cell_setting	triclinic
loop_
_symmetry_equiv_pos_as_xyz
  x,y,z
_cell_length_a	14.044220
_cell_length_b	16.992701
_cell_length_c	16.053802
_cell_angle_alpha	87.243340
_cell_angle_beta	87.198230
_cell_angle_gamma	88.071976
loop_
_atom_site_label
_atom_site_type_symbol
_atom_site_fract_x
_atom_site_fract_y
_atom_site_fract_z
O1	O	-0.198288	1.057568	-0.069433
O2	O	-0.196074	0.829128	-0.069433
O3	O	-0.058937	0.939919	-0.069429
O4	O	-0.335425	0.946777	-0.069437
O5	O	-0.066452	0.933819	0.069429
O6	O	-0.203589	0.823028	0.069426
O7	O	-0.205803	1.051468	0.069426
Zn8	Zn	-0.205889	0.936279	0.091473
Zn9	Zn	-0.195988	0.944317	-0.091480
O10	O	-0.342940	0.940677	0.069422
C11	C	-0.196980	0.796666	-0.000004
C12	C	-0.188472	0.709027	-0.000004
C13	C	-0.131308	0.216069	-0.000006
C14	C	-0.139310	0.298415	-0.000001
C15	C	-0.229408	0.336260	-0.000007
C16	C	-0.311510	0.291755	-0.000009
C17	C	-0.303508	0.209410	-0.000008
C18	C	-0.262572	0.582177	-0.000005
C19	C	-0.270568	0.664527	-0.000009
C20	C	-0.098367	0.671182	0.000001
C21	C	-0.090373	0.588836	-0.000003
C22	C	-0.172475	0.544337	-0.000001
N23	N	-0.237589	0.420431	-0.000005
N24	N	-0.164294	0.460168	0.000003
C25	C	-0.374724	0.946729	-0.000008
C26	C	-0.480628	0.955683	-0.000011
C27	C	-0.674530	0.972053	-0.000008
C28	C	-0.727353	0.908547	-0.000007
C29	C	-0.835246	0.917655	-0.000005
C30	C	-0.566626	0.962946	-0.000010
C31	C	-0.027153	0.933867	-0.000001
C32	C	0.078752	0.924913	-0.000003
C33	C	-0.204897	1.083930	-0.000005
C34	C	-0.213404	1.171570	-0.000011
N35	N	-0.212647	0.930799	0.216333
N36	N	-0.189223	0.949802	-0.216340
C37	C	-0.154318	0.977961	0.260028
C38	C	-0.159055	0.974136	0.347435
C39	C	-0.222125	0.923152	0.391144
C40	C	-0.280456	0.875985	0.347443
C41	C	-0.275714	0.879807	0.260038
C42	C	-0.242812	0.906457	0.652553
C43	C	-0.247552	0.902640	0.739964
C44	C	-0.126149	1.000791	0.739951
C45	C	-0.121416	1.004611	0.652544
C46	C	-0.179743	0.957441	0.608850
N47	N	-0.226970	0.919243	0.480488
N48	N	-0.174893	0.961347	0.519508
H49	H	-0.329426	0.545956	-0.000008
H50	H	-0.057941	0.185262	-0.000006
H51	H	-0.691546	0.847337	-0.000007
H52	H	-0.710335	1.033258	-0.000004
H53	H	-0.323210	0.841401	0.224461
H54	H	-0.070059	1.046126	0.616957
H55	H	-0.072458	0.334643	0.000007
N56	N	-0.086298	1.032956	0.212887
H57	H	-0.050065	1.062251	0.253835
H58	H	-0.039895	1.001420	0.176634
H59	H	-0.017006	0.558028	0.000002
H60	H	-0.384870	0.322575	-0.000009
N61	N	-0.392063	0.161420	-0.000000
H62	H	-0.428315	0.176553	-0.051474
H63	H	-0.373258	0.103527	0.000040
N64	N	-0.009818	0.719175	0.000004
H65	H	-0.028555	0.777083	0.000003
H66	H	0.026385	0.703972	0.051485
H67	H	-0.111559	1.012539	0.383011
H68	H	-0.078660	1.039194	0.775534
H69	H	-0.298915	0.861121	0.775549
N70	N	-0.348475	0.820992	0.394588
H71	H	-0.394939	0.852479	0.430838
H72	H	-0.384640	0.791703	0.353592
N73	N	-0.305714	0.855578	0.605432
H74	H	-0.346387	0.822703	0.646388
H75	H	-0.348184	0.890279	0.569149
H76	H	-0.343941	0.695338	-0.000002
