data_functionalizedCrystal
_audit_creation_method	'MofGen! by Chris Wilmer'
_symmetry_space_group_name_H-M	'P1'
_symmetry_Int_Tables_number	1
_symmetry_cell_setting	triclinic
loop_
_symmetry_equiv_pos_as_xyz
  x,y,z
_cell_length_a	30.711293
_cell_length_b	30.706025
_cell_length_c	30.706014
_cell_angle_alpha	120.008669
_cell_angle_beta	90.007496
_cell_angle_gamma	120.016721
loop_
_atom_site_label
_atom_site_type_symbol
_atom_site_fract_x
_atom_site_fract_y
_atom_site_fract_z
O1	O	0.298555	-0.384235	-0.012980
O2	O	0.235278	-0.295025	0.012880
O3	O	0.235214	-0.384258	-0.076324
O4	O	0.298620	-0.295002	0.076224
O5	O	0.307663	-0.311807	-0.076315
O6	O	0.307727	-0.222574	0.012889
O7	O	0.371004	-0.311784	-0.012971
Cu8	Cu	0.345981	-0.260564	-0.000040
Cu9	Cu	0.260302	-0.346246	-0.000051
O10	O	0.371068	-0.222551	0.076233
C11	C	0.110254	0.007444	0.039178
C12	C	0.136572	-0.018640	0.039548
C13	C	0.031380	-0.071430	0.039180
C14	C	0.057817	-0.097395	0.039551
C15	C	0.110229	-0.071429	0.039182
C16	C	0.057842	-0.018641	0.039546
C17	C	0.158453	0.183359	0.024887
C18	C	0.183285	0.233183	0.020847
C19	C	0.235222	0.258176	0.018820
C20	C	0.262146	0.312191	0.014429
C21	C	0.262326	0.233345	0.020837
C22	C	0.237496	0.183530	0.024884
C23	C	0.185557	0.158537	0.026909
C24	C	0.237925	-0.133878	0.024906
C25	C	0.262907	-0.162743	0.020870
C26	C	0.235948	-0.216716	0.018843
C27	C	0.263027	-0.248023	0.014459
C28	C	0.184005	-0.241820	0.020859
C29	C	0.159027	-0.212950	0.024904
C30	C	0.185993	-0.158977	0.026924
C31	C	-0.158792	-0.133884	0.024897
C32	C	-0.212653	-0.162755	0.020852
C33	C	-0.239683	-0.216728	0.018828
C34	C	-0.298083	-0.248036	0.014440
C35	C	-0.212853	-0.241831	0.020843
C36	C	-0.158994	-0.212960	0.024885
C37	C	-0.131966	-0.158982	0.026917
C38	C	0.158636	0.104517	0.031293
C39	C	0.137176	0.061460	0.034789
C40	C	-0.027018	-0.102733	0.034794
C41	C	-0.073567	-0.127684	0.031300
C42	C	0.137313	-0.102730	0.034798
C43	C	0.158903	-0.127680	0.031306
C44	C	0.110237	-0.535521	-0.425104
C45	C	0.136564	-0.509562	-0.451555
C46	C	0.031329	-0.614426	-0.503989
C47	C	0.057776	-0.588347	-0.530320
C48	C	0.110209	-0.535546	-0.503979
C49	C	0.057803	-0.588322	-0.451565
C50	C	0.158478	-0.473011	-0.234888
C51	C	0.183327	-0.444128	-0.181019
C52	C	0.235287	-0.390142	-0.153991
C53	C	0.262229	-0.358816	-0.095580
C54	C	0.262399	-0.365045	-0.180837
C55	C	0.237553	-0.393932	-0.234703
C56	C	0.185590	-0.447918	-0.261729
C57	C	0.237971	-0.393507	-0.552125
C58	C	0.262967	-0.364474	-0.576947
C59	C	0.235998	-0.389413	-0.628893
C60	C	0.263092	-0.357934	-0.655809
C61	C	0.184031	-0.443393	-0.656020
C62	C	0.159039	-0.472431	-0.631203
C63	C	0.186015	-0.447479	-0.579249
C64	C	-0.158902	-0.790379	-0.552172
C65	C	-0.212780	-0.840212	-0.577002
C66	C	-0.239820	-0.865224	-0.628950
C67	C	-0.298238	-0.919254	-0.655874
C68	C	-0.212982	-0.840398	-0.656066
C69	C	-0.159107	-0.790565	-0.631234
C70	C	-0.132069	-0.765562	-0.579287
C71	C	0.158650	-0.479235	-0.320138
C72	C	0.137177	-0.504200	-0.366695
C73	C	-0.027087	-0.668457	-0.530910
C74	C	-0.073651	-0.711527	-0.552369
C75	C	0.137308	-0.504063	-0.530890
C76	C	0.158910	-0.478967	-0.552341
O77	O	-0.469848	-0.311794	-0.012980
O78	O	-0.317326	-0.222588	0.012869
O79	O	-0.406553	-0.311831	-0.076330
O80	O	-0.380621	-0.222550	0.076220
O81	O	-0.406575	-0.384274	-0.076326
O82	O	-0.317349	-0.295030	0.012873
O83	O	-0.469870	-0.384236	-0.012976
Cu84	Cu	-0.393612	-0.346248	-0.000051
Cu85	Cu	-0.393585	-0.260576	-0.000056
O86	O	-0.380644	-0.294993	0.076224
C87	C	0.371607	-0.469674	-0.018876
C88	C	0.344717	-0.523435	-0.015184
C89	C	0.424020	-0.443587	-0.019241
C90	C	0.371638	-0.390790	-0.018865
C91	C	0.344783	-0.360207	-0.015161
C92	C	0.424051	-0.364823	-0.019230
C93	C	0.450486	-0.390792	-0.018866
C94	C	0.507936	-0.360212	-0.015163
C95	C	0.345291	-0.443585	-0.019240
O96	O	0.370912	0.456541	-0.013002
O97	O	0.307560	0.329874	0.012854
O98	O	0.307522	0.329819	-0.076349
O99	O	0.370949	0.456596	0.076200
O100	O	0.235101	0.329818	-0.076350
O101	O	0.235139	0.329873	0.012852
O102	O	0.298491	0.456540	-0.013004
Cu103	Cu	0.260202	0.393207	-0.000076
Cu104	Cu	0.345848	0.393207	-0.000074
O105	O	0.298528	0.456595	0.076198
O106	O	-0.470037	-1.063644	-0.692208
O107	O	-0.317485	-0.936935	-0.628856
O108	O	-0.406639	-0.936923	-0.628844
O109	O	-0.380884	-1.063656	-0.692221
O110	O	-0.406666	-0.936947	-0.701289
O111	O	-0.317512	-0.936959	-0.701302
O112	O	-0.470065	-1.063669	-0.764653
Cu113	Cu	-0.393791	-1.000316	-0.739593
Cu114	Cu	-0.393759	-1.000287	-0.653917
O115	O	-0.380911	-1.063681	-0.764666
O116	O	0.298675	-0.294932	-0.764561
O117	O	0.235335	-0.384113	-0.701236
O118	O	0.235378	-0.294905	-0.701212
O119	O	0.298632	-0.384140	-0.764585
O120	O	0.307853	-0.222434	-0.628758
O121	O	0.307810	-0.311642	-0.628782
O122	O	0.371149	-0.222461	-0.692107
Cu123	Cu	0.346097	-0.260434	-0.653829
Cu124	Cu	0.260388	-0.346140	-0.739514
O125	O	0.371106	-0.311669	-0.692131
C126	C	0.450672	-0.137055	0.234786
C127	C	0.508138	-0.083283	0.261671
C128	C	0.424226	-0.163132	0.261120
C129	C	0.371766	-0.215968	0.155900
C130	C	0.344865	-0.246571	0.098438
C131	C	0.345439	-0.241925	0.182353
C132	C	0.371793	-0.215936	0.234778
C133	C	0.344922	-0.246504	0.261655
C134	C	0.424198	-0.163164	0.182361
C135	C	-0.374689	-0.215913	0.234776
C136	C	-0.378388	-0.246475	0.261659
C137	C	-0.374296	-0.163111	0.261111
C138	C	-0.374714	-0.215956	0.155892
C139	C	-0.378439	-0.246564	0.098431
C140	C	-0.374320	-0.163154	0.182347
C141	C	-0.374664	-0.137041	0.234772
C142	C	-0.378337	-0.083272	0.261650
C143	C	-0.374345	-0.241907	0.182351
C144	C	0.371737	0.609347	0.234755
C145	C	0.344890	0.639941	0.261636
C146	C	0.424160	0.635328	0.261092
C147	C	0.371676	0.530424	0.155871
C148	C	0.344764	0.476633	0.098409
C149	C	0.424099	0.556525	0.182328
C150	C	0.450585	0.609346	0.234755
C151	C	0.508044	0.639938	0.261636
C152	C	0.345370	0.556526	0.182329
C153	C	-0.433082	-0.614517	-0.504000
C154	C	-0.433450	-0.588446	-0.530339
C155	C	-0.433032	-0.535602	-0.425120
C156	C	-0.433400	-0.509650	-0.451579
C157	C	-0.433057	-0.535644	-0.504004
C158	C	-0.433425	-0.588404	-0.451575
C159	C	-0.418877	-0.790464	-0.552158
C160	C	-0.414864	-0.840303	-0.576984
C161	C	-0.412862	-0.865325	-0.628934
C162	C	-0.408501	-0.919357	-0.655851
C163	C	-0.414877	-0.840508	-0.656059
C164	C	-0.418897	-0.790678	-0.631236
C165	C	-0.420896	-0.765656	-0.579283
C166	C	-0.418801	-0.473270	-0.631783
C167	C	-0.414763	-0.444420	-0.656788
C168	C	-0.412709	-0.390434	-0.629838
C169	C	-0.408324	-0.359144	-0.656941
C170	C	-0.414700	-0.365302	-0.577880
C171	C	-0.418747	-0.394156	-0.552880
C172	C	-0.420794	-0.448142	-0.579837
C173	C	-0.418677	-0.473055	-0.234893
C174	C	-0.414608	-0.444158	-0.181021
C175	C	-0.412556	-0.390171	-0.153999
C176	C	-0.408141	-0.358835	-0.095587
C177	C	-0.414569	-0.365082	-0.180850
C178	C	-0.418636	-0.393979	-0.234720
C179	C	-0.420694	-0.447970	-0.261739
C180	C	-0.425250	-0.711620	-0.552368
C181	C	-0.428723	-0.668549	-0.530915
C182	C	-0.428620	-0.504270	-0.366710
C183	C	-0.425104	-0.479297	-0.320151
C184	C	-0.428671	-0.504359	-0.531112
C185	C	-0.425177	-0.479423	-0.552722
O186	O	-0.406395	-0.311575	0.371250
O187	O	-0.380548	-0.222424	0.307896
O188	O	-0.469740	-0.311617	0.307890
O189	O	-0.317203	-0.222381	0.371256
O190	O	-0.469785	-0.384100	0.235442
O191	O	-0.380594	-0.294906	0.235448
O192	O	-0.406440	-0.384058	0.298802
Cu193	Cu	-0.393521	-0.346100	0.260510
Cu194	Cu	-0.393467	-0.260381	0.346188
O195	O	-0.317249	-0.294864	0.298808
C196	C	0.031144	-0.071765	-0.504031
C197	C	0.057570	-0.097747	-0.530368
C198	C	0.110053	0.007157	-0.425147
C199	C	0.136359	-0.018945	-0.451604
C200	C	0.109993	-0.071765	-0.504031
C201	C	0.057630	-0.018944	-0.451605
C202	C	-0.159041	-0.134237	-0.552201
C203	C	-0.212908	-0.163116	-0.577030
C204	C	-0.239961	-0.217120	-0.628982
C205	C	-0.298370	-0.248441	-0.655902
C206	C	-0.213141	-0.242241	-0.656105
C207	C	-0.159276	-0.213358	-0.631278
C208	C	-0.132226	-0.159354	-0.579324
C209	C	0.158039	-0.213885	-0.631806
C210	C	0.182837	-0.242938	-0.656809
C211	C	0.234783	-0.218002	-0.629856
C212	C	0.261672	-0.249503	-0.656958
C213	C	0.261935	-0.164002	-0.577897
C214	C	0.237142	-0.134944	-0.552899
C215	C	0.185188	-0.159894	-0.579859
C216	C	0.158341	0.183199	-0.234919
C217	C	0.183197	0.233054	-0.181046
C218	C	0.235145	0.258064	-0.154022
C219	C	0.262097	0.312119	-0.095609
C220	C	0.262234	0.233215	-0.180871
C221	C	0.237377	0.183360	-0.234741
C222	C	0.185430	0.158359	-0.261763
C223	C	-0.073819	-0.128042	-0.552406
C224	C	-0.027263	-0.103081	-0.530949
C225	C	0.137002	0.061211	-0.366736
C226	C	0.158483	0.104300	-0.320177
C227	C	0.136877	-0.103271	-0.531137
C228	C	0.158306	-0.128384	-0.552745
H229	H	0.179639	0.003199	0.040149
C230	C	-0.373469	-0.133588	0.319302
N231	N	-0.372848	-0.111353	0.363129
C232	C	-0.412639	-0.867591	-0.547142
N233	N	-0.410960	-0.888142	-0.524663
H234	H	0.445299	-0.322338	-0.019815
H235	H	-0.373729	-0.141338	0.161101
H236	H	0.445423	0.677832	0.304169
C237	C	0.029118	-0.154774	0.040361
N238	N	0.007504	-0.197989	0.040975
C239	C	0.101892	-0.240567	0.027119
N240	N	0.058856	-0.261370	0.028784
C241	C	-0.412671	-0.868030	-0.713201
N242	N	-0.411006	-0.888758	-0.756241
H243	H	0.445480	-0.141272	0.304198
H244	H	0.445313	0.534678	0.161085
H245	H	0.162074	-0.463704	-0.698320
H246	H	0.445433	-0.141336	0.161125
H247	H	-0.373785	-0.284405	0.161109
H248	H	0.302227	-0.465418	-0.019832
C249	C	-0.242162	-0.135139	0.018636
N250	N	-0.264387	-0.114334	0.016970
C251	C	0.287240	-0.299326	0.153653
N252	N	0.243406	-0.342558	0.132038
C253	C	0.287180	0.527014	0.153634
N254	N	0.243352	0.504783	0.132023
H255	H	0.304537	0.253584	-0.158865
C256	C	-0.434175	-0.452252	-0.422883
N257	N	-0.434759	-0.409021	-0.401269
C258	C	0.153467	0.260487	0.018622
N259	N	0.131006	0.281051	0.016945
C260	C	0.100897	-0.241324	-0.661466
N261	N	0.057858	-0.261989	-0.683805
C262	C	0.152967	-0.302338	-0.713957
N263	N	0.130466	-0.347080	-0.757002
C264	C	0.101196	0.155693	-0.264640
N265	N	0.058154	0.134971	-0.287026
C266	C	-0.242900	-0.301642	-0.713250
N267	N	-0.265315	-0.346386	-0.756294
H268	H	0.161249	-0.464564	-0.159166
H269	H	-0.434069	-0.610307	-0.573416
H270	H	-0.434016	-0.610224	-0.430333
H271	H	-0.412966	-0.464588	-0.159162
C272	C	-0.420936	-0.532442	-0.264611
N273	N	-0.422636	-0.577171	-0.286996
H274	H	0.036411	0.002897	-0.430365
H275	H	-0.420540	-0.770477	-0.653325
C276	C	0.029169	0.010852	0.040345
N277	N	0.007572	0.033065	0.040947
H278	H	-0.137021	-0.090265	-0.509899
C279	C	-0.421081	-0.762949	-0.495013
N280	N	-0.422741	-0.742223	-0.451971
C281	C	0.319079	-0.136565	-0.548249
N282	N	0.362120	-0.115902	-0.525918
C283	C	0.452697	-0.473072	-0.020026
N284	N	0.474300	-0.495272	-0.020608
H285	H	-0.235003	-0.860763	-0.698365
H286	H	-0.420471	-0.517228	-0.653736
C287	C	-0.412565	-0.472061	-0.713934
N288	N	-0.410905	-0.492880	-0.756975
C289	C	-0.412477	-0.305939	-0.548246
N290	N	-0.410810	-0.261231	-0.525929
H291	H	-0.420368	-0.373691	-0.510578
H292	H	-0.420272	-0.373545	-0.256578
C293	C	0.267593	-0.074501	0.027142
N294	N	0.289938	-0.029778	0.028828
H295	H	-0.412895	-0.321120	-0.158845
H296	H	0.179435	0.002907	-0.430363
H297	H	0.162056	-0.285762	0.019216
C298	C	0.028841	-0.155170	-0.588561
N299	N	0.007203	-0.198420	-0.632389
C300	C	0.319552	-0.305662	-0.151104
N301	N	0.362602	-0.260931	-0.128709
C302	C	0.153396	0.260385	-0.151517
N303	N	0.130949	0.280973	-0.129276
C304	C	-0.242406	-0.135485	-0.547191
N305	N	-0.264624	-0.114673	-0.524714
C306	C	-0.129780	-0.240992	-0.661114
N307	N	-0.107563	-0.261809	-0.683586
H308	H	0.259252	-0.090977	-0.510596
H309	H	0.259438	0.163131	-0.256598
H310	H	0.116163	0.163015	0.026537
C311	C	0.319454	0.260840	0.018607
N312	N	0.362485	0.281547	0.016926
C313	C	0.267311	0.156220	0.027102
N314	N	0.289768	0.135648	0.028770
C315	C	0.320039	-0.135131	0.018646
N316	N	0.363070	-0.114335	0.016969
C317	C	-0.129065	-0.074513	0.027124
N318	N	-0.106673	-0.029797	0.028798
H319	H	-0.137152	-0.233401	0.026529
H320	H	0.036515	-0.610192	-0.573392
C321	C	-0.242586	-0.301202	0.018619
N322	N	-0.264979	-0.345917	0.016946
H323	H	0.179646	-0.467076	-0.430310
H324	H	0.259630	-0.373496	-0.256557
H325	H	-0.234629	-0.860418	-0.554918
C326	C	0.029118	-0.617807	-0.422875
N327	N	0.007512	-0.640015	-0.401267
H328	H	-0.136891	-0.770021	-0.509874
C329	C	0.267648	-0.366065	-0.494981
N330	N	0.289999	-0.345397	-0.451941
C331	C	0.101331	-0.532413	-0.264619
N332	N	0.058291	-0.577160	-0.287016
H333	H	0.305277	-0.320523	-0.554856
H334	H	0.116730	-0.516383	-0.653293
H335	H	-0.137259	-0.770355	-0.653316
