data_functionalizedCrystal
_audit_creation_method	'MofGen! by Chris Wilmer'
_symmetry_space_group_name_H-M	'P1'
_symmetry_Int_Tables_number	1
_symmetry_cell_setting	triclinic
loop_
_symmetry_equiv_pos_as_xyz
  x,y,z
_cell_length_a	19.077105
_cell_length_b	21.295418
_cell_length_c	19.076919
_cell_angle_alpha	92.268432
_cell_angle_beta	90.076224
_cell_angle_gamma	87.723635
loop_
_atom_site_label
_atom_site_type_symbol
_atom_site_fract_x
_atom_site_fract_y
_atom_site_fract_z
Zn1	Zn	1.058254	-0.304535	-0.440398
Zn2	Zn	1.558254	0.195465	0.059602
Zn3	Zn	1.062888	-0.405749	-0.322885
Zn4	Zn	1.562888	0.094251	0.177115
Zn5	Zn	0.945472	-0.296103	-0.318192
Zn6	Zn	1.445472	0.203897	0.181808
Zn7	Zn	0.940710	-0.405369	-0.435637
Zn8	Zn	1.440710	0.094631	0.064363
O9	O	1.001831	-0.352939	-0.379278
O10	O	1.501831	0.147061	0.120722
O11	O	1.157200	-0.321650	-0.428766
O12	O	1.657200	0.178350	0.071234
O13	O	1.051245	-0.387834	-0.223931
O14	O	1.551245	0.112166	0.276069
O15	O	0.960486	-0.209135	-0.334431
O16	O	1.460486	0.290865	0.165569
O17	O	1.160605	-0.396011	-0.342429
O18	O	1.660605	0.103989	0.157571
O19	O	1.043346	-0.215330	-0.424216
O20	O	1.543346	0.284670	0.075784
O21	O	0.964980	-0.307277	-0.220483
O22	O	1.464980	0.192723	0.279517
O23	O	0.846509	-0.306909	-0.329815
O24	O	1.346509	0.193091	0.170185
O25	O	0.952370	-0.395364	-0.534600
O26	O	1.452370	0.104636	-0.034600
O27	O	0.843010	-0.387187	-0.416101
O28	O	1.343010	0.112813	0.083899
O29	O	1.038729	-0.321282	-0.538097
O30	O	1.538729	0.178718	-0.038097
O31	O	1.046627	-0.493785	-0.337813
O32	O	1.546627	0.006215	0.162187
O33	O	0.956863	-0.493506	-0.420652
O34	O	1.456863	0.006494	0.079348
C35	C	0.819263	-0.346092	-0.371933
C36	C	1.319263	0.153908	0.128067
C37	C	0.741159	-0.343179	-0.368807
C38	C	1.241159	0.156821	0.131193
C39	C	0.702665	-0.383665	-0.412193
C40	C	1.202665	0.116335	0.087807
C41	C	0.629278	-0.380919	-0.409259
C42	C	1.129278	0.119081	0.090741
C43	C	0.594386	-0.337690	-0.362936
C44	C	1.094386	0.162310	0.137064
C45	C	0.632885	-0.297200	-0.319549
C46	C	1.132885	0.202800	0.180451
C47	C	0.706271	-0.299943	-0.322486
C48	C	1.206271	0.200057	0.177514
C49	C	0.375100	-0.324995	-0.349344
C50	C	0.875100	0.175005	0.150656
C51	C	0.301709	-0.322257	-0.346409
C52	C	0.801709	0.177743	0.153591
C53	C	0.298107	-0.405975	-0.436121
C54	C	0.798107	0.094025	0.063879
C55	C	0.371494	-0.408717	-0.439051
C56	C	0.871494	0.091283	0.060949
C57	C	0.409986	-0.368225	-0.395666
C58	C	0.909986	0.131775	0.104334
N59	N	0.519373	-0.334884	-0.359935
N60	N	1.019373	0.165116	0.140065
N61	N	0.484998	-0.371028	-0.398671
N62	N	0.984998	0.128972	0.101329
C63	C	1.001750	-0.516486	-0.379241
C64	C	1.501750	-0.016486	0.120759
C65	C	1.001779	-0.586456	-0.379251
C66	C	1.501779	-0.086456	0.120749
C67	C	1.048735	-1.086051	-0.336264
C68	C	1.548735	-0.586051	0.163736
C69	C	1.048709	-1.020307	-0.336246
C70	C	1.548709	-0.520307	0.163754
C71	C	1.001928	-0.987304	-0.379331
C72	C	1.501928	-0.487304	0.120669
C73	C	0.955157	-1.020049	-0.422424
C74	C	1.455157	-0.520049	0.077576
C75	C	0.955180	-1.085791	-0.422435
C76	C	1.455180	-0.585791	0.077565
N77	N	0.993992	-0.885967	-0.440598
N78	N	1.493992	-0.385967	0.059402
N79	N	0.993974	-0.823515	-0.440586
N80	N	1.493974	-0.323515	0.059414
C81	C	1.001856	-0.789225	-0.379299
C82	C	1.501856	-0.289225	0.120701
N83	N	1.009769	-0.819748	-0.318024
N84	N	1.509769	-0.319748	0.181976
N85	N	1.009790	-0.882206	-0.318037
N86	N	1.509790	-0.382206	0.181963
C87	C	1.001898	-0.916017	-0.379323
C88	C	1.501898	-0.416017	0.120677
C89	C	1.048592	-0.685201	-0.336186
C90	C	1.548592	-0.185201	0.163814
C91	C	1.048561	-0.619455	-0.336167
C92	C	1.548561	-0.119455	0.163833
C93	C	0.955013	-0.619198	-0.422351
C94	C	1.455013	-0.119198	0.077649
C95	C	0.955040	-0.684942	-0.422364
C96	C	1.455040	-0.184942	0.077636
C97	C	1.001834	-0.717939	-0.379282
C98	C	1.501834	-0.217939	0.120718
C99	C	1.185112	-0.359813	-0.386652
C100	C	1.685112	0.140187	0.113348
C101	C	1.263215	-0.362742	-0.389794
C102	C	1.763215	0.137258	0.110206
C103	C	0.994501	-0.359221	-0.562558
C104	C	1.494501	0.140779	-0.062558
C105	C	0.991377	-0.361898	-0.640661
C106	C	1.491377	0.138102	-0.140661
C107	C	1.001931	-0.188754	-0.379331
C108	C	1.501931	0.311246	0.120669
C109	C	1.001973	-0.118788	-0.379354
C110	C	1.501973	0.381212	0.120646
C111	C	1.034870	-0.324587	-0.679176
C112	C	1.534870	0.175413	-0.179176
C113	C	1.031927	-0.327099	-0.752561
C114	C	1.531927	0.172901	-0.252561
C115	C	0.985494	-0.366927	-0.787431
C116	C	1.485494	0.133073	-0.287431
C117	C	0.941996	-0.404239	-0.748910
C118	C	1.441996	0.095761	-0.248910
C119	C	0.944937	-0.401723	-0.675526
C120	C	1.444937	0.098277	-0.175526
C121	C	0.971875	-0.378585	-1.006711
C122	C	1.471875	0.121415	-0.506711
C123	C	0.968939	-0.381100	-1.080101
C124	C	1.468939	0.118900	-0.580101
C125	C	1.058870	-0.303959	-1.083747
C126	C	1.558870	0.196041	-0.583747
C127	C	1.061809	-0.301449	-1.010361
C128	C	1.561809	0.198551	-0.510361
C129	C	1.018309	-0.338759	-0.971847
C130	C	1.518309	0.161241	-0.471847
N131	N	0.982485	-0.369497	-0.862443
N132	N	1.482485	0.130503	-0.362443
N133	N	1.021314	-0.336184	-0.896836
N134	N	1.521314	0.163816	-0.396836
C135	C	1.009173	-0.346638	-0.196713
C136	C	1.509173	0.153362	0.303287
C137	C	1.012432	-0.343789	-0.118616
C138	C	1.512432	0.156211	0.381384
H139	H	0.731069	-0.418868	-0.449912
H140	H	1.231069	0.081132	0.050088
Cl141	Cl	0.589021	-0.242851	-0.261318
Cl142	Cl	1.089021	0.257149	0.238682
Cl143	Cl	1.113549	-0.257055	-1.132168
Cl144	Cl	1.613549	0.242945	-0.632168
Cl145	Cl	0.910558	-0.431169	-1.123935
Cl146	Cl	1.410558	0.068831	-0.623935
H147	H	0.909513	-0.432099	-0.644167
H148	H	1.409513	0.067901	-0.144167
H149	H	1.086836	-1.112913	-0.301181
H150	H	1.586836	-0.612913	0.198819
H151	H	0.916920	-0.592327	-0.457429
H152	H	1.416920	-0.092327	0.042571
Cl153	Cl	0.917189	-0.425490	-0.958303
Cl154	Cl	1.417189	0.074510	-0.458303
Cl155	Cl	0.423481	-0.274089	-0.294805
Cl156	Cl	0.923481	0.225911	0.205195
H157	H	0.904187	-0.436665	-0.777307
H158	H	1.404187	0.063335	-0.277307
H159	H	0.737612	-0.266972	-0.287161
H160	H	1.237612	0.233028	0.212839
H161	H	1.086789	-0.993647	-0.301156
H162	H	1.586789	-0.493647	0.198844
H163	H	0.597939	-0.413887	-0.444588
H164	H	1.097939	0.086113	0.055412
Cl165	Cl	0.896390	-1.126949	-0.476612
Cl166	Cl	1.396390	-0.626949	0.023388
Cl167	Cl	0.415353	-0.463065	-0.497287
Cl168	Cl	0.915353	0.036935	0.002713
Cl169	Cl	0.249712	-0.456877	-0.490657
Cl170	Cl	0.749712	0.043123	0.009343
Cl171	Cl	0.896345	-0.978559	-0.476586
Cl172	Cl	1.396345	-0.478559	0.023414
H173	H	1.086693	-0.712068	-0.301105
H174	H	1.586693	-0.212068	0.198895
H175	H	0.273302	-0.287047	-0.308691
H176	H	0.773302	0.212953	0.191309
Cl177	Cl	0.896257	-0.726100	-0.476545
Cl178	Cl	1.396257	-0.226100	0.023455
Cl179	Cl	1.107353	-0.578299	-0.281991
Cl180	Cl	1.607353	-0.078299	0.218009
Cl181	Cl	1.093250	-0.274518	-0.635347
Cl182	Cl	1.593250	0.225482	-0.135347
Cl183	Cl	1.120185	-0.251378	-0.966530
Cl184	Cl	1.620185	0.248622	-0.466530
Cl185	Cl	1.086637	-0.280220	-0.800978
Cl186	Cl	1.586637	0.219780	-0.300978
