data_functionalizedCrystal
_audit_creation_method	'MofGen! by Chris Wilmer'
_symmetry_space_group_name_H-M	'P1'
_symmetry_Int_Tables_number	1
_symmetry_cell_setting	triclinic
loop_
_symmetry_equiv_pos_as_xyz
  x,y,z
_cell_length_a	16.120484
_cell_length_b	16.625547
_cell_length_c	16.625548
_cell_angle_alpha	89.985274
_cell_angle_beta	87.115040
_cell_angle_gamma	87.074925
loop_
_atom_site_label
_atom_site_type_symbol
_atom_site_fract_x
_atom_site_fract_y
_atom_site_fract_z
Zn1	Zn	-0.332069	-1.216277	0.472313
Zn2	Zn	0.167931	-0.716277	0.972313
Zn3	Zn	-0.471454	-1.209365	0.344308
Zn4	Zn	0.028546	-0.709365	0.844308
Zn5	Zn	-0.332054	-1.081469	0.337478
Zn6	Zn	0.167946	-0.581469	0.837478
Zn7	Zn	-0.471442	-1.074566	0.479082
Zn8	Zn	0.028558	-0.574566	0.979082
O9	O	-0.401755	-1.145419	0.408295
O10	O	0.098245	-0.645419	0.908295
O11	O	-0.350569	-1.328192	0.455359
O12	O	0.149431	-0.828192	0.955359
O13	O	-0.452961	-1.192396	0.230569
O14	O	0.047039	-0.692396	0.730569
O15	O	-0.215389	-1.105133	0.349673
O16	O	0.284611	-0.605133	0.849673
O17	O	-0.452974	-1.323114	0.361314
O18	O	0.047026	-0.823114	0.861314
O19	O	-0.215399	-1.204176	0.448736
O20	O	0.284601	-0.704176	0.948736
O21	O	-0.350545	-1.098431	0.225552
O22	O	0.149455	-0.598431	0.725552
O23	O	-0.350534	-0.967721	0.356236
O24	O	0.149466	-0.467721	0.856236
O25	O	-0.452955	-1.093368	0.591016
O26	O	0.047045	-0.593368	1.091016
O27	O	-0.452942	-0.962650	0.460272
O28	O	0.047058	-0.462650	0.960272
O29	O	-0.350558	-1.197483	0.586044
O30	O	0.149442	-0.697483	1.086044
O31	O	-0.588119	-1.185703	0.367877
O32	O	-0.088119	-0.685703	0.867877
O33	O	-0.588111	-1.086666	0.466895
O34	O	-0.088111	-0.586666	0.966895
C35	C	-0.401736	-0.935929	0.408248
C36	C	0.098264	-0.435929	0.908248
C37	C	-0.401748	-0.846308	0.408248
C38	C	0.098252	-0.346308	0.908248
C39	C	-0.401748	-0.773525	0.408255
C40	C	0.098252	-0.273525	0.908255
C41	C	-0.401751	-0.682217	0.408272
C42	C	0.098249	-0.182217	0.908272
C43	C	-0.401758	-0.609440	0.408290
C44	C	0.098242	-0.109440	0.908290
C45	C	-0.401763	-0.518125	0.408306
C46	C	0.098237	-0.018125	0.908306
C47	C	-0.618366	-1.134707	0.418879
C48	C	-0.118366	-0.634707	0.918879
C49	C	-0.711033	-1.130198	0.423433
C50	C	-0.211033	-0.630198	0.923433
C51	C	-0.880697	-1.121970	0.431766
C52	C	-0.380697	-0.621970	0.931766
C53	C	-0.921972	-1.169013	0.384838
C54	C	-0.421972	-0.669013	0.884838
C55	C	-1.016379	-1.164435	0.389474
C56	C	-0.516379	-0.664435	0.889474
C57	C	-0.786282	-1.126547	0.427131
C58	C	-0.286282	-0.626547	0.927131
C59	C	-0.184298	-1.156195	0.397688
C60	C	0.315702	-0.656195	0.897688
C61	C	-0.091630	-1.160787	0.393168
C62	C	0.408370	-0.660787	0.893168
C63	C	-0.401757	-1.145426	0.618604
C64	C	0.098243	-0.645426	1.118604
C65	C	-0.401758	-1.145429	0.708225
C66	C	0.098242	-0.645429	1.208225
C67	C	-0.401771	-0.355727	0.408333
C68	C	0.098229	0.144273	0.908333
C69	C	-0.401769	-0.445349	0.408324
C70	C	0.098231	0.054651	0.908324
C71	C	-0.401765	-1.145395	1.036401
C72	C	0.098235	-0.645395	1.536401
C73	C	-0.401766	-1.145403	0.945093
C74	C	0.098234	-0.645403	1.445093
C75	C	-0.401762	-1.145413	0.872316
C76	C	0.098238	-0.645413	1.372316
C77	C	-0.401762	-1.145419	0.781002
C78	C	0.098238	-0.645419	1.281002
C79	C	-0.401769	-1.145404	1.198805
C80	C	0.098231	-0.645404	1.698805
C81	C	-0.401763	-1.145396	1.109184
C82	C	0.098237	-0.645396	1.609184
H83	H	-0.886406	-1.212724	0.341180
H84	H	-0.386406	-0.712724	0.841180
H85	H	-0.916261	-1.078261	0.475419
H86	H	-0.416261	-0.578261	0.975419
