data_functionalizedCrystal
_audit_creation_method	'MofGen! by Chris Wilmer'
_symmetry_space_group_name_H-M	'P1'
_symmetry_Int_Tables_number	1
_symmetry_cell_setting	triclinic
loop_
_symmetry_equiv_pos_as_xyz
  x,y,z
_cell_length_a	10.654562
_cell_length_b	10.654550
_cell_length_c	16.098678
_cell_angle_alpha	92.757034
_cell_angle_beta	92.746892
_cell_angle_gamma	95.512497
loop_
_atom_site_label
_atom_site_type_symbol
_atom_site_fract_x
_atom_site_fract_y
_atom_site_fract_z
O1	O	1.662265	-0.182040	-0.069307
O2	O	1.296790	-0.198829	-0.069297
O3	O	1.487931	-0.007695	-0.069299
O4	O	1.471124	-0.373174	-0.069305
O5	O	1.499039	0.003433	0.069211
O6	O	1.307898	-0.187700	0.069213
O7	O	1.673373	-0.170912	0.069203
Zn8	Zn	1.492399	-0.177539	0.091199
Zn9	Zn	1.477764	-0.192201	-0.091294
O10	O	1.482232	-0.362045	0.069205
C11	C	1.255546	-0.192028	-0.000041
C12	C	1.116104	-0.188330	-0.000037
C13	C	1.056628	-0.180539	0.075459
C14	C	0.925604	-0.177075	0.075445
C15	C	0.913544	-0.189199	-0.075566
C16	C	1.044566	-0.192653	-0.075552
C17	C	1.128166	-0.176215	0.150974
C18	C	1.068690	-0.168426	0.226475
C19	C	0.937666	-0.164962	0.226461
C20	C	0.866119	-0.169288	0.150946
C21	C	1.492251	0.044667	-0.000045
C22	C	1.488559	0.184110	-0.000048
C23	C	1.714617	-0.177712	-0.000056
C24	C	1.854059	-0.181411	-0.000065
N25	N	1.502397	-0.167532	0.215746
C26	C	1.477912	-0.414407	-0.000051
C27	C	1.481604	-0.553851	-0.000054
C28	C	1.601099	0.263591	-0.000049
C29	C	1.597622	0.394611	-0.000055
C30	C	1.369054	0.366658	-0.000055
C31	C	1.372532	0.235640	-0.000056
C32	C	1.717126	0.212061	-0.000041
C33	C	1.829676	0.291543	-0.000041
C34	C	1.826199	0.422563	-0.000047
C35	C	1.710172	0.474102	-0.000053
N36	N	1.467776	-0.202199	-0.215840
C37	C	1.421253	-0.248626	0.259352
C38	C	1.428283	-0.241620	0.346539
C39	C	1.516452	-0.153514	0.390118
C40	C	1.597605	-0.072416	0.346506
C41	C	1.590580	-0.079428	0.259320
C42	C	1.541904	-0.128113	0.653362
C43	C	1.548920	-0.121104	0.740553
C44	C	1.379599	-0.290312	0.740581
C45	C	1.372577	-0.297311	0.653394
C46	C	1.453734	-0.216218	0.609789
C47	C	1.523637	-0.146348	0.479238
C48	C	1.446554	-0.223390	0.520671
H49	H	1.719970	0.105379	-0.000034
H50	H	1.595424	-0.074607	0.514727
H51	H	1.707349	0.580788	-0.000066
H52	H	0.889246	-0.158609	0.287938
H53	H	1.917842	0.487274	-0.000055
H54	H	0.759432	-0.166464	0.150941
H55	H	1.234852	-0.179039	0.150994
H56	H	1.280891	0.170924	-0.000054
H57	H	1.126953	-0.164894	0.287957
H58	H	1.274590	0.408632	-0.000059
H59	H	0.855280	-0.192724	-0.137047
H60	H	1.092992	-0.199003	-0.137026
H61	H	1.349451	-0.320367	0.223876
H62	H	1.620722	-0.049352	0.776031
H63	H	1.924140	0.249569	-0.000057
H64	H	1.362210	-0.307655	0.382044
H65	H	1.607983	-0.062082	0.617865
H66	H	1.669400	-0.000681	0.381993
H67	H	1.656657	-0.013394	0.223817
H68	H	1.374771	-0.295132	0.485187
H69	H	1.300783	-0.369055	0.617914
H70	H	1.313526	-0.356335	0.776092
