data_functionalizedCrystal
_audit_creation_method	'MofGen! by Chris Wilmer'
_symmetry_space_group_name_H-M	'P1'
_symmetry_Int_Tables_number	1
_symmetry_cell_setting	triclinic
loop_
_symmetry_equiv_pos_as_xyz
  x,y,z
_cell_length_a	12.759400
_cell_length_b	14.908571
_cell_length_c	14.908662
_cell_angle_alpha	83.592432
_cell_angle_beta	93.271373
_cell_angle_gamma	86.710990
loop_
_atom_site_label
_atom_site_type_symbol
_atom_site_fract_x
_atom_site_fract_y
_atom_site_fract_z
Zn1	Zn	-0.553133	1.413390	-0.591527
Zn2	Zn	-0.718072	1.404572	-0.440167
Zn3	Zn	-0.531641	1.253290	-0.431461
Zn4	Zn	-0.717993	1.262004	-0.582766
O5	O	-0.630210	1.333314	-0.511480
O6	O	-0.584040	1.538888	-0.578759
O7	O	-0.684380	1.377167	-0.312346
O8	O	-0.387475	1.274571	-0.452718
O9	O	-0.705220	1.532410	-0.467555
O10	O	-0.403266	1.392196	-0.570317
O11	O	-0.547409	1.266021	-0.305950
O12	O	-0.547333	1.127778	-0.444222
O13	O	-0.705086	1.289423	-0.710594
O14	O	-0.684245	1.134181	-0.555385
O15	O	-0.583964	1.400646	-0.717031
O16	O	-0.865078	1.385617	-0.459060
O17	O	-0.865020	1.280873	-0.563827
C18	C	-0.613449	1.098136	-0.497909
C19	C	-0.606306	0.997527	-0.492124
C20	C	-0.903172	1.333259	-0.511458
C21	C	-1.019954	1.333320	-0.511484
C22	C	-0.735647	0.815178	-0.596853
C23	C	-0.728939	0.720647	-0.591421
C24	C	-0.586177	0.713933	-0.475833
C25	C	-0.592885	0.808463	-0.481265
C26	C	-0.667624	0.859083	-0.541776
C27	C	-0.674336	0.953615	-0.547203
C28	C	-0.531570	0.946899	-0.431621
C29	C	-0.524862	0.852369	-0.426189
C30	C	-1.074821	1.387929	-0.457000
C31	C	-1.184551	1.387986	-0.457031
C32	C	-1.184538	1.278819	-0.566033
C33	C	-1.074811	1.278767	-0.566006
C34	C	-1.019965	1.442482	-0.402478
C35	C	-1.074831	1.497094	-0.347989
C36	C	-1.184561	1.497151	-0.348020
C37	C	-1.239424	1.442596	-0.402540
C38	C	-0.356185	1.333395	-0.511524
C39	C	-0.239412	1.333429	-0.511542
C40	C	-0.646914	1.346990	-0.747574
C41	C	-0.654032	1.352818	-0.848183
C42	C	-0.647036	1.569411	-0.525106
C43	C	-0.654207	1.670021	-0.530912
C44	C	-0.735369	1.418889	-0.993320
C45	C	-0.728687	1.413420	-0.898789
C46	C	-0.586056	1.297679	-0.892115
C47	C	-0.592738	1.303149	-0.986646
C48	C	-0.667396	1.363756	-1.037245
C49	C	-0.674073	1.369230	-1.131778
C50	C	-0.531448	1.253485	-1.125102
C51	C	-0.524765	1.248016	-1.030571
C52	C	-0.613499	1.319743	-0.276308
C53	C	-0.606097	1.314091	-0.175709
H54	H	-0.735194	0.994829	-0.596472
H55	H	-0.476182	0.982657	-0.386771
H56	H	-0.796151	1.468245	-1.034519
H57	H	-1.030138	1.234301	-0.610373
H58	H	-0.525322	0.672702	-0.426574
F59	F	-0.753526	1.433736	-1.185629
H60	H	-1.030156	1.541516	-0.303605
F61	F	-0.801035	1.472098	-0.852044
F62	F	-0.506577	1.233209	-0.838250
F63	F	-0.445302	1.183527	-0.976711
F64	F	-0.815197	0.869052	-0.661243
F65	F	-0.459096	1.194810	-1.171857
H66	H	-0.784328	0.684904	-0.636271
F67	F	-0.903209	1.442635	-0.402651
H68	H	-0.464009	0.811141	-0.376925
H69	H	-1.229231	1.541625	-0.303659
H70	H	-1.328775	1.442655	-0.402569
F71	F	-1.242931	1.220761	-0.624051
