data_functionalizedCrystal
_audit_creation_method	'MofGen! by Chris Wilmer'
_symmetry_space_group_name_H-M	'P1'
_symmetry_Int_Tables_number	1
_symmetry_cell_setting	triclinic
loop_
_symmetry_equiv_pos_as_xyz
  x,y,z
_cell_length_a	10.723022
_cell_length_b	10.489741
_cell_length_c	8.965430
_cell_angle_alpha	89.992235
_cell_angle_beta	89.997159
_cell_angle_gamma	84.503200
loop_
_atom_site_label
_atom_site_type_symbol
_atom_site_fract_x
_atom_site_fract_y
_atom_site_fract_z
O1	O	1.657296	0.178906	-0.124029
O2	O	1.294154	0.196033	-0.124034
O3	O	1.483988	0.001866	-0.124022
O4	O	1.467462	0.373072	-0.124040
O5	O	1.483978	0.001847	0.124057
O6	O	1.294143	0.196014	0.124045
O7	O	1.657286	0.178887	0.124050
Cu8	Cu	1.475713	0.187449	0.146699
Cu9	Cu	1.475726	0.187471	-0.146683
O10	O	1.467451	0.373053	0.124039
C11	C	1.247648	0.194777	0.000005
C12	C	1.109092	0.191050	0.000003
C13	C	1.060462	0.079080	0.000008
C14	C	0.917257	0.075225	0.000006
C15	C	1.482735	-0.045674	0.000016
C16	C	1.479000	-0.187301	0.000013
C17	C	1.358214	-0.255364	0.000001
C18	C	1.415267	-0.347532	0.122317
C19	C	1.415306	-0.347488	-0.122269
C20	C	1.536103	-0.277605	0.122431
C21	C	1.536125	-0.277551	-0.122265
C22	C	1.593266	-0.369692	0.000081
C23	C	1.703791	0.180142	0.000008
C24	C	1.842348	0.183870	-0.000000
C25	C	1.468705	0.420594	-0.000003
C26	C	1.472439	0.562221	-0.000010
N27	N	1.475714	0.187432	0.353048
C28	C	1.562818	0.096929	0.549724
C29	C	1.589069	0.212060	0.450241
C30	C	1.449518	0.072311	0.450323
C31	C	1.502044	0.302664	0.549674
C32	C	1.362443	0.162839	0.549765
C33	C	1.388647	0.278054	0.450327
N34	N	1.475736	0.187475	0.646968
H35	H	1.124848	-0.013926	0.000006
O36	O	0.867111	-0.039041	-0.000057
C37	C	0.735292	-0.017452	-0.000020
H38	H	0.705746	0.081857	-0.046988
H39	H	0.694551	-0.092846	-0.072042
H40	H	0.698988	-0.023912	0.118996
H41	H	1.524314	0.400063	0.593134
O42	O	1.354158	-0.384225	-0.245595
C43	C	1.230262	-0.325480	-0.245106
H44	H	1.225084	-0.235334	-0.173495
H45	H	1.200595	-0.298836	-0.364061
H46	H	1.164924	-0.394766	-0.197371
H47	H	0.884210	0.279742	0.000004
H48	H	1.314992	0.354691	0.406960
O49	O	1.239721	-0.196102	0.000401
C50	C	1.176490	-0.231584	0.129591
H51	H	1.247826	-0.264364	0.219282
H52	H	1.113068	-0.145910	0.172278
H53	H	1.117447	-0.313167	0.101680
O54	O	1.248237	0.137728	0.601900
C55	C	1.220957	0.016194	0.551339
H56	H	1.311985	-0.044308	0.523415
H57	H	1.169068	-0.033214	0.642387
H58	H	1.159758	0.027828	0.447333
O59	O	1.032165	0.301928	-0.000204
C60	C	0.956066	0.306771	-0.128709
H61	H	0.948704	0.205447	-0.171539
H62	H	0.858616	0.353309	-0.099819
H63	H	0.999340	0.365475	-0.218678
O64	O	1.422910	-0.043745	0.398080
C65	C	1.312639	-0.028515	0.311655
H66	H	1.297645	0.074116	0.268748
H67	H	1.321848	-0.097442	0.213108
H68	H	1.229260	-0.049903	0.383219
O69	O	1.703264	0.237124	0.397997
C70	C	1.690320	0.349852	0.311450
H71	H	1.601091	0.410792	0.345395
H72	H	1.774623	0.406285	0.330589
H73	H	1.684781	0.323637	0.188386
O74	O	1.354177	-0.384648	0.245525
C75	C	1.249561	-0.447377	0.201616
H76	H	1.264909	-0.486551	0.083759
H77	H	1.237187	-0.529702	0.281620
H78	H	1.161995	-0.376606	0.203963
O79	O	1.650831	0.005686	0.601553
C80	C	1.713215	-0.057573	0.480131
H81	H	1.704335	0.007054	0.377693
H82	H	1.816452	-0.080815	0.508866
H83	H	1.669303	-0.150107	0.455649
O84	O	1.597215	-0.240969	0.245832
C85	C	1.720724	-0.300728	0.246135
H86	H	1.749632	-0.328689	0.127314
H87	H	1.786895	-0.231629	0.292410
H88	H	1.725520	-0.390186	0.318925
O89	O	1.711931	-0.428522	0.000238
C90	C	1.798288	-0.335274	0.001490
H91	H	1.751313	-0.241942	0.049040
H92	H	1.882253	-0.370093	0.073653
H93	H	1.831129	-0.318385	-0.117206
O94	O	1.596868	-0.240569	-0.245784
C95	C	1.532888	-0.275820	-0.374501
H96	H	1.431054	-0.286980	-0.345197
H97	H	1.536632	-0.198449	-0.463260
H98	H	1.579240	-0.370533	-0.419130
