data_functionalizedCrystal
_audit_creation_method	'MofGen! by Chris Wilmer'
_symmetry_space_group_name_H-M	'P1'
_symmetry_Int_Tables_number	1
_symmetry_cell_setting	triclinic
loop_
_symmetry_equiv_pos_as_xyz
  x,y,z
_cell_length_a	23.532407
_cell_length_b	23.532407
_cell_length_c	22.010155
_cell_angle_alpha	90.009202
_cell_angle_beta	90.010358
_cell_angle_gamma	82.848678
loop_
_atom_site_label
_atom_site_type_symbol
_atom_site_fract_x
_atom_site_fract_y
_atom_site_fract_z
O1	O	0.755269	0.069133	0.050455
O2	O	0.589406	0.079137	0.050474
O3	O	0.677339	-0.008797	0.050453
O4	O	0.667336	0.157067	0.050476
O5	O	0.677312	-0.008797	-0.050597
O6	O	0.589379	0.079137	-0.050576
O7	O	0.755243	0.069133	-0.050595
Cu8	Cu	0.672308	0.074135	-0.059812
Cu9	Cu	0.672340	0.074135	0.059691
O10	O	0.667309	0.157067	-0.050574
C11	C	0.568176	0.078882	-0.000049
C12	C	0.504959	0.078116	-0.000042
C13	C	0.677071	-0.030013	-0.000074
C14	C	0.676305	-0.093230	-0.000078
C15	C	0.723539	-0.492333	-0.000050
C16	C	0.722827	-0.551733	-0.000046
O17	O	0.766613	-0.588478	-0.000028
N18	N	0.670551	-0.574359	-0.000040
C19	C	0.618983	-0.537582	-0.000033
O20	O	0.574452	-0.562281	-0.000027
C21	C	0.619695	-0.478182	-0.000033
C22	C	0.671974	-0.455560	-0.000045
C23	C	0.775814	-0.469710	-0.000061
C24	C	0.776525	-0.410313	-0.000067
C25	C	0.724961	-0.373540	-0.000062
C26	C	0.672685	-0.396164	-0.000051
C27	C	0.568127	-0.441406	-0.000022
C28	C	0.568844	-0.382004	-0.000022
C29	C	0.621123	-0.359381	-0.000034
C30	C	0.621832	-0.299995	-0.000052
N31	N	0.674109	-0.277368	-0.000057
C32	C	0.725673	-0.314141	-0.000062
C33	C	0.617491	-0.662324	-0.000031
C34	C	0.616778	-0.721722	-0.000035
C35	C	0.720623	-0.735869	-0.000047
C36	C	0.721335	-0.676470	-0.000047
C37	C	0.669767	-0.639698	-0.000037
C38	C	0.727163	-0.189405	-0.000075
C39	C	0.727869	-0.130003	-0.000083
C40	C	0.624025	-0.115860	-0.000069
C41	C	0.623318	-0.175257	-0.000064
C42	C	0.674891	-0.212029	-0.000065
O43	O	0.578070	-0.263215	-0.000067
O44	O	0.770196	-0.289433	-0.000060
C45	C	0.105856	0.125350	-0.000063
C46	C	0.046456	0.124638	-0.000067
O47	O	0.009711	0.168424	-0.000083
N48	N	0.023830	0.072362	-0.000073
C49	C	0.060607	0.020794	-0.000082
O50	O	0.035908	-0.023737	-0.000088
C51	C	0.120006	0.021506	-0.000082
C52	C	0.142629	0.073785	-0.000070
C53	C	0.128479	0.177625	-0.000051
C54	C	0.187876	0.178336	-0.000046
C55	C	0.224649	0.126772	-0.000053
C56	C	0.202025	0.074497	-0.000065
C57	C	0.156783	-0.030062	-0.000096
C58	C	0.216185	-0.029345	-0.000097
C59	C	0.238808	0.022934	-0.000084
C60	C	0.298194	0.023643	-0.000067
N61	N	0.320820	0.075920	-0.000061
C62	C	0.284048	0.127484	-0.000054
C63	C	-0.064135	0.019302	-0.000082
C64	C	-0.123533	0.018589	-0.000077
C65	C	-0.137680	0.122434	-0.000063
C66	C	-0.078281	0.123146	-0.000064
C67	C	-0.041509	0.071578	-0.000076
C68	C	0.408784	0.128974	-0.000043
C69	C	0.468186	0.129680	-0.000035
C70	C	0.482329	0.025836	-0.000052
C71	C	0.422932	0.025129	-0.000057
C72	C	0.386160	0.076702	-0.000054
O73	O	0.334974	-0.020119	-0.000054
O74	O	0.308755	0.172007	-0.000055
C75	C	0.776472	0.069388	-0.000071
C76	C	0.839689	0.070154	-0.000073
C77	C	0.667577	0.178283	-0.000046
C78	C	0.668343	0.241500	-0.000037
N79	N	0.672291	0.074135	-0.143865
C80	C	0.706685	0.108496	-0.563643
C81	C	0.706692	0.108494	-0.627251
O82	O	0.735915	0.137705	-0.660141
N83	N	0.672351	0.074128	-0.659072
C84	C	0.638005	0.039758	-0.627282
O85	O	0.608796	0.010527	-0.660189
C86	C	0.638002	0.039757	-0.563676
C87	C	0.672341	0.074129	-0.531858
C88	C	0.741022	0.142864	-0.531825
C89	C	0.741014	0.142867	-0.468222
C90	C	0.706670	0.108500	-0.436437
C91	C	0.672333	0.074131	-0.468255
C92	C	0.603660	0.005383	-0.531887
C93	C	0.603660	0.005384	-0.468276
C94	C	0.637999	0.039757	-0.436458
C95	C	0.637981	0.039766	-0.372866
N96	N	0.672322	0.074132	-0.341045
C97	C	0.706667	0.108498	-0.372830
C98	C	0.638015	0.039762	-0.760860
C99	C	0.638015	0.039766	-0.824465
C100	C	0.706703	0.108502	-0.824429
C101	C	0.706700	0.108501	-0.760823
C102	C	0.672356	0.074128	-0.729039
C103	C	0.706648	0.108501	-0.239259
C104	C	0.706635	0.108502	-0.175650
C105	C	0.637950	0.039764	-0.175691
C106	C	0.637960	0.039765	-0.239295
C107	C	0.672313	0.074135	-0.271077
O108	O	0.608775	0.010568	-0.339935
O109	O	0.735876	0.137719	-0.339916
N110	N	0.672362	0.074131	0.143744
H111	H	0.770443	-0.111587	-0.000094
H112	H	0.098544	0.219617	-0.000048
C113	C	0.783139	-0.229349	0.000045
C114	C	0.785794	-0.263846	0.052043
C115	C	0.837353	-0.300644	0.052174
H116	H	0.785067	-0.252875	-0.035151
H117	H	0.814386	-0.207382	0.000070
H118	H	0.754555	-0.285812	0.052013
H119	H	0.783875	-0.240336	0.087247
H120	H	0.868601	-0.278676	0.052198
H121	H	0.839277	-0.324166	0.016975
H122	H	0.839164	-0.324050	0.087456
C123	C	0.744024	0.145721	-0.726203
C124	C	0.782779	0.110996	-0.689673
C125	C	0.817168	0.145265	-0.657770
H126	H	0.764529	0.166198	-0.754178
H127	H	0.720553	0.172041	-0.701355
H128	H	0.806247	0.084687	-0.714519
H129	H	0.762289	0.090519	-0.661687
H130	H	0.793698	0.171585	-0.632922
H131	H	0.837670	0.165741	-0.685750
H132	H	0.843464	0.121710	-0.632977
C133	C	0.568024	-0.075957	-0.000184
C134	C	0.536510	-0.086128	-0.052171
C135	C	0.484923	-0.049375	-0.052295
H136	H	0.546519	-0.082746	0.035020
H137	H	0.575915	-0.037334	-0.000218
H138	H	0.528618	-0.124743	-0.052131
H139	H	0.557998	-0.079336	-0.087382
H140	H	0.492813	-0.010751	-0.052329
H141	H	0.463423	-0.056166	-0.017089
H142	H	0.463536	-0.056267	-0.087570
H143	H	0.819097	-0.391900	-0.000074
H144	H	0.768979	0.170854	-0.442322
H145	H	0.817806	-0.499645	-0.000063
H146	H	0.575496	-0.632386	-0.000028
C147	C	0.744092	0.145773	-0.858868
C148	C	0.801566	0.129778	-0.843372
C149	C	0.836022	0.164102	-0.875080
H150	H	0.739252	0.140879	-0.901315
H151	H	0.733324	0.184804	-0.848431
H152	H	0.812330	0.090757	-0.853814
H153	H	0.806424	0.134675	-0.800931
H154	H	0.825254	0.203133	-0.864642
H155	H	0.831177	0.159206	-0.917525
H156	H	0.875021	0.153258	-0.864566
C157	C	-0.053833	0.179966	-0.000086
C158	C	-0.098758	0.224967	-0.000093
C159	C	-0.076262	0.277319	-0.000123
H160	H	-0.030958	0.182486	0.035142
H161	H	-0.030981	0.182436	-0.035340
H162	H	-0.121601	0.222498	0.035157
H163	H	-0.121637	0.222465	-0.035318
H164	H	-0.053409	0.279789	-0.035377
H165	H	-0.053386	0.279834	0.035106
H166	H	-0.106739	0.307859	-0.000133
H167	H	0.734622	0.136488	-0.265129
C168	C	0.566399	-0.031879	-0.566532
C169	C	0.573736	-0.024521	-0.629042
C170	C	0.539414	-0.058835	-0.660975
H171	H	0.577173	-0.070919	-0.556179
H172	H	0.527359	-0.021097	-0.556150
H173	H	0.612767	-0.035307	-0.639419
H174	H	0.562958	0.014511	-0.639412
H175	H	0.500375	-0.048054	-0.650593
H176	H	0.550192	-0.097874	-0.650617
H177	H	0.544384	-0.053844	-0.703391
H178	H	0.574207	-0.740136	-0.000036
C179	C	-0.147980	-0.038231	-0.000114
C180	C	-0.103055	-0.083232	-0.000133
C181	C	-0.125551	-0.135584	-0.000179
H182	H	-0.170844	-0.040751	0.035113
H183	H	-0.170844	-0.040701	-0.035369
H184	H	-0.080201	-0.080763	0.035118
H185	H	-0.080187	-0.080730	-0.035357
H186	H	-0.148415	-0.138054	-0.035434
H187	H	-0.148415	-0.138099	0.035048
H188	H	-0.095074	-0.166124	-0.000198
H189	H	0.734598	0.136494	-0.149747
C190	C	0.778329	0.180245	-0.566218
C191	C	0.808383	0.210349	-0.524727
C192	C	0.842749	0.244801	-0.556383
H193	H	0.804725	0.156841	-0.591033
H194	H	0.754854	0.206607	-0.591016
H195	H	0.831857	0.183989	-0.499940
H196	H	0.782003	0.233763	-0.499911
H197	H	0.819274	0.271163	-0.581180
H198	H	0.869141	0.221393	-0.581196
H199	H	0.863141	0.265234	-0.528236
C200	C	0.778054	-0.651832	0.000041
C201	C	0.781507	-0.618130	0.052023
C202	C	0.833747	-0.595421	0.052123
H203	H	0.808709	-0.682186	0.000068
H204	H	0.780490	-0.628926	-0.035178
H205	H	0.779078	-0.641035	0.087233
H206	H	0.750865	-0.587768	0.052007
H207	H	0.836182	-0.572515	0.016903
H208	H	0.864397	-0.625778	0.052148
H209	H	0.836094	-0.572548	0.087388
C210	C	-0.024146	-0.036647	0.000011
C211	C	0.010385	-0.039267	0.051993
C212	C	0.047232	-0.090795	0.052095
H213	H	-0.046061	-0.067927	0.000040
H214	H	-0.000651	-0.038539	-0.035208
H215	H	-0.013107	-0.037381	0.087203
H216	H	0.032313	-0.008000	0.051975
H217	H	0.070727	-0.092686	0.016875
H218	H	0.025312	-0.122070	0.052122
H219	H	0.070669	-0.092577	0.087360
H220	H	0.609986	0.011785	-0.149800
C221	C	0.368962	0.185028	-0.000003
C222	C	0.401498	0.230955	0.000026
C223	C	0.364834	0.282601	0.000075
H224	H	0.345476	0.186999	-0.035232
H225	H	0.345510	0.186941	0.035250
H226	H	0.424940	0.229044	-0.035224
H227	H	0.424982	0.229004	0.035252
H228	H	0.341382	0.284513	0.035328
H229	H	0.341350	0.284565	-0.035154
H230	H	0.386904	0.313768	0.000100
C231	C	0.600710	0.002391	-0.858898
C232	C	0.570643	-0.027713	-0.817441
C233	C	0.536280	-0.062158	-0.849136
H234	H	0.574322	0.025800	-0.883718
H235	H	0.624188	-0.023970	-0.883693
H236	H	0.547167	-0.001355	-0.792655
H237	H	0.597017	-0.051133	-0.792619
H238	H	0.559758	-0.088520	-0.873931
H239	H	0.509895	-0.038745	-0.873955
H240	H	0.515879	-0.082592	-0.821012
H241	H	0.610043	0.011774	-0.734985
H242	H	0.525555	-0.459814	-0.000009
C243	C	0.566308	-0.031952	-0.433878
C244	C	0.536229	-0.062039	-0.475363
C245	C	0.501809	-0.096431	-0.443699
H246	H	0.589731	-0.058328	-0.409060
H247	H	0.539931	-0.008492	-0.409084
H248	H	0.562604	-0.085497	-0.500147
H249	H	0.512796	-0.035678	-0.500183
H250	H	0.475432	-0.072971	-0.418905
H251	H	0.525237	-0.122804	-0.418882
H252	H	0.481393	-0.116845	-0.471841
H253	H	0.206289	0.220908	-0.000036
H254	H	0.762610	-0.765821	-0.000048
C255	C	0.600768	0.002412	-0.273919
C256	C	0.635521	-0.036328	-0.310437
C257	C	0.601282	-0.070747	-0.342341
H258	H	0.580302	-0.018106	-0.245944
H259	H	0.574438	0.025864	-0.298774
H260	H	0.661840	-0.059777	-0.285583
H261	H	0.655986	-0.015826	-0.338423
H262	H	0.574952	-0.047295	-0.367196
H263	H	0.580818	-0.091261	-0.314362
H264	H	0.624856	-0.097032	-0.367126
H265	H	-0.167632	0.164421	-0.000060
C266	C	0.512792	-0.342174	-0.000042
C267	C	0.466861	-0.374706	-0.000046
C268	C	0.415219	-0.338036	-0.000074
H269	H	0.510840	-0.318689	0.035185
H270	H	0.510866	-0.318723	-0.035296
H271	H	0.468786	-0.398147	0.035204
H272	H	0.468795	-0.398189	-0.035271
H273	H	0.413293	-0.314585	-0.035328
H274	H	0.413272	-0.314553	0.035154
H275	H	0.384049	-0.360103	-0.000083
H276	H	0.580748	-0.193677	-0.000071
C277	C	0.132343	-0.086883	-0.000147
C278	C	0.177271	-0.131881	-0.000174
C279	C	0.154780	-0.184236	-0.000232
H280	H	0.109478	-0.089412	0.035079
H281	H	0.109479	-0.089349	-0.035403
H282	H	0.200124	-0.129416	0.035078
H283	H	0.200139	-0.129370	-0.035397
H284	H	0.131917	-0.186701	-0.035488
H285	H	0.131916	-0.186759	0.034994
H286	H	0.185260	-0.214773	-0.000257
H287	H	0.246123	-0.071339	-0.000107
H288	H	0.486602	0.172255	-0.000025
H289	H	0.404512	-0.017441	-0.000058
H290	H	0.512280	-0.016146	-0.000056
