data_functionalizedCrystal
_audit_creation_method	'MofGen! by Chris Wilmer'
_symmetry_space_group_name_H-M	'P1'
_symmetry_Int_Tables_number	1
_symmetry_cell_setting	triclinic
loop_
_symmetry_equiv_pos_as_xyz
  x,y,z
_cell_length_a	16.625546
_cell_length_b	21.395362
_cell_length_c	21.395355
_cell_angle_alpha	90.048039
_cell_angle_beta	89.981524
_cell_angle_gamma	89.959270
loop_
_atom_site_label
_atom_site_type_symbol
_atom_site_fract_x
_atom_site_fract_y
_atom_site_fract_z
Zn1	Zn	-0.320702	-0.957895	-0.354654
Zn2	Zn	0.179298	-0.457895	0.145346
Zn3	Zn	-0.455517	-0.957813	-0.249877
Zn4	Zn	0.044483	-0.457813	0.250123
Zn5	Zn	-0.320745	-0.853110	-0.249848
Zn6	Zn	0.179255	-0.353110	0.250152
Zn7	Zn	-0.455539	-0.853095	-0.354574
Zn8	Zn	0.044461	-0.353095	0.145426
O9	O	-0.388126	-0.905478	-0.302238
O10	O	0.111874	-0.405478	0.197762
O11	O	-0.338558	-1.045562	-0.340801
O12	O	0.161442	-0.545562	0.159199
O13	O	-0.437648	-0.943896	-0.162195
O14	O	0.062352	-0.443896	0.337805
O15	O	-0.207907	-0.867051	-0.263772
O16	O	0.292093	-0.367051	0.236228
O17	O	-0.437606	-1.045502	-0.263821
O18	O	0.062394	-0.545502	0.236179
O19	O	-0.207875	-0.944037	-0.340773
O20	O	0.292125	-0.444037	0.159227
O21	O	-0.338632	-0.866971	-0.162174
O22	O	0.161368	-0.366971	0.337826
O23	O	-0.338653	-0.765430	-0.263695
O24	O	0.161347	-0.265430	0.236305
O25	O	-0.437644	-0.867025	-0.442263
O26	O	0.062356	-0.367025	0.057737
O27	O	-0.437686	-0.765419	-0.340636
O28	O	0.062314	-0.265419	0.159364
O29	O	-0.338580	-0.944021	-0.442322
O30	O	0.161420	-0.444021	0.057678
O31	O	-0.568352	-0.943881	-0.263744
O32	O	-0.068352	-0.443881	0.236256
O33	O	-0.568369	-0.866945	-0.340664
O34	O	-0.068369	-0.366945	0.159336
C35	C	-0.388177	-0.742691	-0.302154
C36	C	0.111823	-0.242691	0.197846
C37	C	-0.388219	-0.673049	-0.302133
C38	C	0.111781	-0.173049	0.197867
C39	C	-0.439855	-0.640347	-0.342134
C40	C	0.060145	-0.140347	0.157866
C41	C	-0.439839	-0.574911	-0.342157
C42	C	0.060161	-0.074911	0.157843
C43	C	-0.388195	-0.542181	-0.302168
C44	C	0.111805	-0.042181	0.197832
C45	C	-0.336548	-0.574892	-0.262164
C46	C	0.163452	-0.074892	0.237836
C47	C	-0.336560	-0.640326	-0.262146
C48	C	0.163440	-0.140326	0.237854
C49	C	-0.381705	-0.438456	-0.245755
C50	C	0.118295	0.061544	0.254245
C51	C	-0.381698	-0.373023	-0.245772
C52	C	0.118302	0.126977	0.254228
C53	C	-0.388153	-0.340360	-0.302223
C54	C	0.111847	0.159640	0.197777
C55	C	-0.394631	-0.373139	-0.358659
C56	C	0.105369	0.126861	0.141341
C57	C	-0.394643	-0.438573	-0.358641
C58	C	0.105357	0.061427	0.141359
C59	C	-0.388175	-0.471229	-0.302183
C60	C	0.111825	0.028771	0.197817
C61	C	-0.439774	-0.236705	-0.342253
C62	C	0.060226	0.263295	0.157747
C63	C	-0.439752	-0.171269	-0.342277
C64	C	0.060248	0.328731	0.157723
C65	C	-0.336466	-0.171250	-0.262278
C66	C	0.163534	0.328750	0.237722
C67	C	-0.336484	-0.236686	-0.262259
C68	C	0.163516	0.263314	0.237741
C69	C	-0.388142	-0.269409	-0.302246
C70	C	0.111858	0.230591	0.197754
C71	C	-0.597617	-0.905419	-0.302212
C72	C	-0.097617	-0.405419	0.197788
C73	C	-0.687238	-0.905451	-0.302222
C74	C	-0.187238	-0.405451	0.197778
C75	C	-1.015413	-0.905560	-0.302287
C76	C	-0.515413	-0.405560	0.197713
C77	C	-0.924105	-0.905528	-0.302271
C78	C	-0.424105	-0.405528	0.197729
C79	C	-0.851328	-0.905505	-0.302254
C80	C	-0.351328	-0.405505	0.197746
C81	C	-0.760014	-0.905474	-0.302238
C82	C	-0.260014	-0.405474	0.197762
C83	C	-0.177817	-0.905555	-0.302278
C84	C	0.322183	-0.405555	0.197722
C85	C	-0.088196	-0.905588	-0.302296
C86	C	0.411804	-0.405588	0.197704
C87	C	-0.388110	-0.905530	-0.465662
C88	C	0.111890	-0.405530	0.034338
C89	C	-0.388103	-0.905553	-0.535303
C90	C	0.111897	-0.405553	-0.035303
C91	C	-0.388088	-0.068902	-0.302305
C92	C	0.111912	0.431098	0.197695
C93	C	-0.388107	-0.138543	-0.302288
C94	C	0.111893	0.361457	0.197712
C95	C	-0.336518	-0.945643	-0.568048
C96	C	0.163482	-0.445643	-0.068048
C97	C	-0.336483	-0.945642	-0.633483
C98	C	0.163517	-0.445642	-0.133483
C99	C	-0.388048	-0.905557	-0.666171
C100	C	0.111952	-0.405557	-0.166171
C101	C	-0.439636	-0.865459	-0.633419
C102	C	0.060364	-0.365459	-0.133419
C103	C	-0.439664	-0.865457	-0.567985
C104	C	0.060336	-0.365457	-0.067985
C105	C	-0.460650	-0.900590	-0.769835
C106	C	0.039350	-0.400590	-0.269835
C107	C	-0.460624	-0.900596	-0.835268
C108	C	0.039376	-0.400596	-0.335268
C109	C	-0.387962	-0.905561	-0.867992
C110	C	0.112038	-0.405561	-0.367992
C111	C	-0.315324	-0.910532	-0.835276
C112	C	0.184676	-0.410532	-0.335276
C113	C	-0.315352	-0.910530	-0.769841
C114	C	0.184648	-0.410530	-0.269841
C115	C	-0.388023	-0.905555	-0.737124
C116	C	0.111977	-0.405555	-0.237124
C117	C	-0.336335	-0.945653	-0.971690
C118	C	0.163665	-0.445653	-0.471690
C119	C	-0.336299	-0.945648	-1.037126
C120	C	0.163701	-0.445648	-0.537126
C121	C	-0.439460	-0.865468	-1.037061
C122	C	0.060540	-0.365468	-0.537061
C123	C	-0.439489	-0.865470	-0.971625
C124	C	0.060511	-0.365470	-0.471625
C125	C	-0.387928	-0.905566	-0.938944
C126	C	0.112072	-0.405566	-0.438944
C127	C	-0.388084	-0.905463	-0.139451
C128	C	0.111916	-0.405463	0.360549
C129	C	-0.387864	-0.905562	-0.069810
C130	C	0.112136	-0.405562	0.430190
H131	H	-0.481918	-0.666986	-0.374695
H132	H	0.018082	-0.166986	0.125305
H133	H	-0.294347	-0.978298	-0.945079
H134	H	0.205653	-0.478298	-0.445079
Br135	Br	-0.266368	-0.126838	-0.208012
Br136	Br	0.233632	0.373162	0.291988
Br137	Br	-0.509920	-0.530519	-0.396450
Br138	Br	-0.009920	-0.030519	0.103550
Br139	Br	-0.403389	-0.328821	-0.435277
Br140	Br	0.096611	0.171179	0.064723
Br141	Br	-0.509877	-0.281119	-0.396521
Br142	Br	-0.009877	0.218881	0.103479
H143	H	-0.294509	-0.666952	-0.229572
H144	H	0.205491	-0.166952	0.270428
H145	H	-0.481618	-0.832820	-0.660038
H146	H	0.018382	-0.332820	-0.160038
Br147	Br	-0.403430	-0.483057	-0.435228
Br148	Br	0.096570	0.016943	0.064772
H149	H	-0.481799	-0.144643	-0.374855
H150	H	0.018201	0.355357	0.125145
H151	H	-0.376445	-0.465044	-0.199783
H152	H	0.123555	0.034956	0.300217
H153	H	-0.294440	-0.263313	-0.229683
H154	H	0.205560	0.236687	0.270317
H155	H	-0.519770	-0.896552	-0.861901
H156	H	-0.019770	-0.396552	-0.361901
H157	H	-0.481500	-0.832828	-0.944964
H158	H	0.018500	-0.332828	-0.444964
H159	H	-0.376428	-0.346339	-0.199818
H160	H	0.123572	0.153661	0.300182
H161	H	-0.294498	-0.548239	-0.229606
H162	H	0.205502	-0.048239	0.270394
H163	H	-0.294531	-0.978291	-0.541443
H164	H	0.205469	-0.478291	-0.041443
H165	H	-0.294472	-0.978287	-0.660149
H166	H	0.205528	-0.478287	-0.160149
Br167	Br	-0.216777	-0.917273	-0.725442
Br168	Br	0.283223	-0.417273	-0.225442
H169	H	-0.481437	-0.832824	-1.063675
H170	H	0.018563	-0.332824	-0.563675
H171	H	-0.256156	-0.914576	-0.861918
H172	H	0.243844	-0.414576	-0.361918
Br173	Br	-0.266297	-1.000071	-1.081567
Br174	Br	0.233703	-0.500071	-0.581567
Br175	Br	-0.559274	-0.893870	-0.725430
Br176	Br	-0.059274	-0.393870	-0.225430
Br177	Br	-0.509676	-0.811043	-0.523542
Br178	Br	-0.009676	-0.311043	-0.023542
