data_functionalizedCrystal
_audit_creation_method	'MofGen! by Chris Wilmer'
_symmetry_space_group_name_H-M	'P1'
_symmetry_Int_Tables_number	1
_symmetry_cell_setting	triclinic
loop_
_symmetry_equiv_pos_as_xyz
  x,y,z
_cell_length_a	19.077105
_cell_length_b	17.640280
_cell_length_c	19.077174
_cell_angle_alpha	80.587117
_cell_angle_beta	85.483752
_cell_angle_gamma	76.093206
loop_
_atom_site_label
_atom_site_type_symbol
_atom_site_fract_x
_atom_site_fract_y
_atom_site_fract_z
Zn1	Zn	1.160252	-0.384045	-0.375464
Zn2	Zn	1.177382	-0.510689	-0.235687
Zn3	Zn	1.035723	-0.372996	-0.254771
Zn4	Zn	1.064267	-0.510637	-0.348814
O5	O	1.109406	-0.444592	-0.303684
O6	O	1.261980	-0.405490	-0.360089
O7	O	1.153814	-0.487822	-0.140364
O8	O	1.033127	-0.263858	-0.289922
O9	O	1.274565	-0.498535	-0.257395
O10	O	1.124619	-0.271975	-0.378594
O11	O	1.049737	-0.386659	-0.154385
O12	O	0.940054	-0.386609	-0.264080
O13	O	1.081777	-0.498447	-0.450203
O14	O	0.961025	-0.487733	-0.333172
O15	O	1.152297	-0.405440	-0.469783
O16	O	1.181492	-0.621287	-0.231553
O17	O	1.098386	-0.621249	-0.314667
C18	C	0.924752	-0.435967	-0.297805
C19	C	0.845761	-0.432297	-0.295304
C20	C	0.819597	-0.483296	-0.330018
C21	C	0.745374	-0.479838	-0.327672
C22	C	0.697317	-0.425383	-0.290609
C23	C	0.723485	-0.374379	-0.255894
C24	C	0.797706	-0.377834	-0.258244
C25	C	0.474165	-0.409392	-0.279736
C26	C	0.399940	-0.405942	-0.277387
C27	C	0.421835	-0.511400	-0.349167
C28	C	0.496057	-0.514854	-0.351510
C29	C	0.522218	-0.463847	-0.316798
N30	N	0.621450	-0.421849	-0.288208
N31	N	0.598083	-0.467378	-0.319203
C32	C	1.144915	-0.649948	-0.268163
C33	C	1.160172	-0.737804	-0.252992
C34	C	0.993803	-1.026769	-0.419197
C35	C	1.008140	-1.109322	-0.404919
C36	C	1.094738	-1.109303	-0.318465
C37	C	1.080411	-1.026749	-0.332738
C38	C	1.029942	-0.985488	-0.383104
C39	C	1.116551	-0.985468	-0.296645
C40	C	1.102222	-0.902920	-0.310914
C41	C	1.051754	-0.861653	-0.361275
C42	C	1.015614	-0.902940	-0.397372
C43	C	1.167015	-1.026729	-0.246275
C44	C	1.203155	-0.985448	-0.210182
C45	C	1.188830	-0.902899	-0.224455
C46	C	1.138362	-0.861633	-0.274817
C47	C	1.224970	-0.861612	-0.188358
C48	C	1.210641	-0.779065	-0.202627
C49	C	1.124033	-0.779085	-0.289086
C50	C	1.294781	-0.453251	-0.309586
C51	C	1.373777	-0.456941	-0.312101
C52	C	1.118310	-0.453170	-0.486075
C53	C	1.122104	-0.456826	-0.563799
C54	C	1.073778	-0.238436	-0.339360
C55	C	1.058596	-0.150585	-0.354562
C56	C	1.069702	-0.405875	-0.607614
C57	C	1.073266	-0.409316	-0.680643
C58	C	1.129235	-0.463705	-0.709857
C59	C	1.181640	-0.514662	-0.666036
C60	C	1.178073	-0.511224	-0.593008
C61	C	1.145711	-0.479639	-0.927484
C62	C	1.149275	-0.483071	-1.000518
C63	C	1.040900	-0.377726	-1.015120
C64	C	1.037340	-0.374289	-0.942090
C65	C	1.089743	-0.425249	-0.898275
N66	N	1.132880	-0.467222	-0.784504
N67	N	1.086094	-0.421735	-0.823628
C68	C	1.100568	-0.435992	-0.122014
C69	C	1.096873	-0.432120	-0.044333
H70	H	0.819006	-0.336302	-0.229980
H71	H	1.266056	-0.895219	-0.147345
C72	C	1.235722	-0.567271	-0.544812
N73	N	1.279145	-0.609489	-0.508512
C74	C	0.968383	-1.154729	-0.444633
N75	N	0.938439	-1.188929	-0.474544
C76	C	1.035992	-0.770848	-0.376972
N77	N	1.024122	-0.702453	-0.388796
C78	C	1.203388	-0.535654	-0.879306
N79	N	1.246845	-0.577833	-0.843019
C80	C	0.960085	-0.857548	-0.452768
N81	N	0.918257	-0.823358	-0.494484
C82	C	1.150249	-1.154699	-0.263061
N83	N	1.192062	-1.188891	-0.221331
H84	H	1.240069	-0.745453	-0.173235
H85	H	0.684350	-0.330038	-0.225719
C86	C	0.347077	-0.346035	-0.236613
N87	N	0.307261	-0.300916	-0.205902
C88	C	1.210846	-0.542910	-1.032650
N89	N	1.257219	-0.587977	-1.056853
H90	H	0.952712	-0.993173	-0.460215
C91	C	1.008131	-0.346042	-0.575486
N92	N	0.961751	-0.300976	-0.551289
H93	H	1.178682	-1.093945	-0.234661
C94	C	1.258666	-1.030844	-0.154779
N95	N	1.300478	-1.065036	-0.113048
H96	H	1.030592	-0.367829	-0.716313
H97	H	1.082942	-0.745489	-0.330104
C98	C	0.975768	-0.314458	-0.909960
N99	N	0.929392	-0.269392	-0.885761
C100	C	0.983257	-0.321679	-1.063320
N101	N	0.939836	-0.279464	-1.099625
C102	C	1.243076	-0.574662	-0.698137
N103	N	1.289306	-0.619916	-0.722303
H104	H	0.724076	-0.521367	-0.355940
C105	C	0.872454	-0.543201	-0.370791
N106	N	0.912264	-0.588321	-0.401505
C107	C	0.548915	-0.574761	-0.392279
N108	N	0.588729	-0.619888	-0.422984
H109	H	0.400526	-0.552926	-0.377428
H110	H	0.495457	-0.367864	-0.251465
