data_functionalizedCrystal
_audit_creation_method	'MofGen! by Chris Wilmer'
_symmetry_space_group_name_H-M	'P1'
_symmetry_Int_Tables_number	1
_symmetry_cell_setting	triclinic
loop_
_symmetry_equiv_pos_as_xyz
  x,y,z
_cell_length_a	15.298068
_cell_length_b	16.120444
_cell_length_c	15.298259
_cell_angle_alpha	82.663646
_cell_angle_beta	91.587309
_cell_angle_gamma	103.030534
loop_
_atom_site_label
_atom_site_type_symbol
_atom_site_fract_x
_atom_site_fract_y
_atom_site_fract_z
Zn1	Zn	1.252523	-0.015347	-0.728111
Zn2	Zn	1.267798	-0.174649	-0.588631
Zn3	Zn	1.128437	-0.062361	-0.558327
Zn4	Zn	1.095542	-0.182690	-0.710020
O5	O	1.186075	-0.108762	-0.646272
O6	O	1.378570	-0.013438	-0.729862
O7	O	1.269471	-0.176064	-0.462754
O8	O	1.152272	0.060902	-0.575739
O9	O	1.389792	-0.130476	-0.627386
O10	O	1.243438	0.095443	-0.700478
O11	O	1.167083	-0.093567	-0.440491
O12	O	1.000053	-0.101364	-0.558197
O13	O	1.096206	-0.144182	-0.834276
O14	O	0.975885	-0.189770	-0.669644
O15	O	1.211540	-0.021235	-0.847568
O16	O	1.237573	-0.292742	-0.609844
O17	O	1.111017	-0.298650	-0.699028
C18	C	0.955812	-0.151542	-0.608669
C19	C	0.857299	-0.169861	-0.592604
C20	C	0.556162	0.021956	-0.761103
C21	C	0.648718	0.039166	-0.776202
C22	C	0.700868	-0.013089	-0.730303
C23	C	0.660452	-0.082557	-0.669304
C24	C	0.567886	-0.099773	-0.654209
C25	C	0.712592	-0.134818	-0.623409
C26	C	0.672177	-0.204286	-0.562410
C27	C	0.579619	-0.221498	-0.547317
C28	C	0.527469	-0.169243	-0.593215
C29	C	0.805159	-0.117602	-0.638505
C30	C	0.816883	-0.239331	-0.531611
C31	C	0.724327	-0.256541	-0.516512
C32	C	1.172404	-0.326033	-0.655784
C33	C	1.166632	-0.418963	-0.659896
C34	C	1.216205	-0.627543	-0.625166
C35	C	1.156108	-0.589098	-0.667414
C36	C	1.161965	-0.494426	-0.663230
C37	C	1.210349	-0.722223	-0.629349
C38	C	1.417237	-0.065815	-0.684022
C39	C	1.515745	-0.047514	-0.700109
C40	C	1.148500	-0.078361	-0.873401
C41	C	1.132488	-0.065406	-0.970190
C42	C	1.199820	0.109364	-0.636746
C43	C	1.205678	0.202317	-0.632687
C44	C	1.300587	-0.200703	-1.289382
C45	C	1.315626	-0.212881	-1.198443
C46	C	1.269843	-0.176013	-1.141376
C47	C	1.209017	-0.126966	-1.175256
C48	C	1.193971	-0.114792	-1.266202
C49	C	1.163228	-0.090102	-1.118196
C50	C	1.102402	-0.041055	-1.152076
C51	C	1.087359	-0.028883	-1.243014
C52	C	1.133142	-0.065751	-1.300082
C53	C	1.178274	-0.102276	-1.027249
C54	C	1.071659	-0.016365	-1.004070
C55	C	1.056619	-0.004187	-1.095008
C56	C	1.223559	-0.138974	-0.420032
C57	C	1.239757	-0.151662	-0.323261
H58	H	0.452101	-0.183256	-0.580931
N59	N	1.117788	-0.053357	-1.392980
N60	N	1.133705	0.020723	-1.433815
H61	H	1.122868	0.029455	-1.499428
N62	N	1.086037	-0.637013	-0.716714
N63	N	1.031710	-0.700417	-0.678915
H64	H	0.982221	-0.734262	-0.713728
N65	N	1.285212	-0.188462	-1.048487
N66	N	1.339522	-0.232254	-1.018248
H67	H	1.350381	-0.241046	-0.952642
H68	H	1.337850	-0.230723	-1.335853
H69	H	1.272050	-0.589360	-0.585855
H70	H	0.681617	0.095725	-0.825870
H71	H	1.227804	-0.142205	-0.999675
N72	N	0.795413	0.004475	-0.745713
N73	N	0.829646	-0.050679	-0.773388
H74	H	0.896423	-0.038272	-0.784270
H75	H	1.365141	-0.252825	-1.170864
H76	H	1.034378	0.013655	-0.957605
N77	N	1.025213	0.021205	-1.277607
N78	N	0.984337	0.054116	-1.226649
H79	H	0.940444	0.089490	-1.251078
H80	H	1.007094	0.035748	-1.122606
N81	N	0.846424	-0.046634	-0.700801
N82	N	0.841856	0.027856	-0.690088
H83	H	0.870998	0.077984	-0.734086
N84	N	0.502879	0.075303	-0.807996
N85	N	0.440222	0.043590	-0.856298
H86	H	0.402584	0.081264	-0.889422
N87	N	0.538353	-0.292460	-0.485003
N88	N	0.562324	-0.295623	-0.406097
H89	H	0.533183	-0.345741	-0.362086
N90	N	0.683025	-0.327493	-0.454205
N91	N	0.600381	-0.342847	-0.440736
H92	H	0.571210	-0.392957	-0.396731
H93	H	0.859343	-0.281885	-0.494241
