data_functionalizedCrystal
_audit_creation_method	'MofGen! by Chris Wilmer'
_symmetry_space_group_name_H-M	'P1'
_symmetry_Int_Tables_number	1
_symmetry_cell_setting	triclinic
loop_
_symmetry_equiv_pos_as_xyz
  x,y,z
_cell_length_a	15.625950
_cell_length_b	17.019250
_cell_length_c	14.185568
_cell_angle_alpha	99.357795
_cell_angle_beta	85.728946
_cell_angle_gamma	94.955515
loop_
_atom_site_label
_atom_site_type_symbol
_atom_site_fract_x
_atom_site_fract_y
_atom_site_fract_z
O1	O	1.119963	-0.169178	-0.309210
O2	O	0.878901	-0.162806	-0.222102
O3	O	1.003972	-0.053598	-0.277029
O4	O	0.994891	-0.278387	-0.254283
O5	O	0.966966	-0.085796	-0.427621
O6	O	0.841895	-0.195004	-0.372695
O7	O	1.082957	-0.201377	-0.459803
Cu8	Cu	0.959047	-0.201131	-0.429999
Cu9	Cu	1.002811	-0.163052	-0.251906
O10	O	0.957885	-0.310585	-0.404876
C11	C	0.829512	-0.175999	-0.286418
C12	C	0.737483	-0.167332	-0.253702
C13	C	0.333884	-0.226602	-0.556430
C14	C	0.247417	-0.218464	-0.525645
C15	C	0.287802	-0.183367	-0.361490
C16	C	0.374274	-0.191506	-0.392261
C17	C	0.397308	-0.213123	-0.489732
C18	C	0.437698	-0.178026	-0.325563
C19	C	0.524163	-0.186160	-0.356333
C20	C	0.547204	-0.207774	-0.453800
C21	C	0.483772	-0.221257	-0.520502
C22	C	0.414663	-0.156404	-0.228093
C23	C	0.478087	-0.142924	-0.161395
C24	C	0.564553	-0.151064	-0.192163
C25	C	0.587594	-0.172678	-0.289631
C26	C	0.627984	-0.137581	-0.125462
C27	C	0.714449	-0.145715	-0.156231
C28	C	0.674059	-0.180812	-0.320400
C29	C	0.984398	-0.040758	-0.354437
C30	C	0.981197	0.045471	-0.360725
C31	C	1.132346	-0.188183	-0.395484
C32	C	1.224377	-0.196849	-0.428194
N33	N	1.033592	-0.136264	-0.126645
C34	C	0.962015	0.532292	-0.400341
C35	C	0.965030	0.451270	-0.394440
C36	C	0.986716	0.428302	-0.309401
C37	C	1.005380	0.486361	-0.230256
C38	C	1.002360	0.567382	-0.236156
C39	C	0.996841	0.184551	-0.287479
C40	C	0.999862	0.103524	-0.281586
C41	C	0.959510	0.068437	-0.445770
C42	C	0.956496	0.149461	-0.451664
C43	C	0.975156	0.207513	-0.372517
C44	C	0.989801	0.345485	-0.303368
C45	C	0.972066	0.290328	-0.378549
C46	C	0.977464	0.676575	-0.327474
C47	C	0.980681	0.590344	-0.321202
N48	N	0.928272	-0.227913	-0.555262
C49	C	0.837795	-0.306543	0.326932
C50	C	0.861134	-0.286273	0.421714
C51	C	0.972100	-0.189802	0.372979
C52	C	0.948773	-0.210067	0.278191
C53	C	0.881620	-0.268437	0.255176
C54	C	0.992598	-0.171960	0.206434
C55	C	0.969270	-0.192220	0.111655
C56	C	0.902118	-0.250587	0.088632
C57	C	0.858292	-0.288697	0.160397
C58	C	1.059747	-0.113586	0.229452
C59	C	1.103572	-0.075480	0.157696
C60	C	1.080248	-0.095744	0.062913
C61	C	1.013096	-0.154110	0.039891
C62	C	1.124074	-0.057634	-0.008851
C63	C	1.100746	-0.077894	-0.103630
C64	C	0.989768	-0.174370	-0.054889
H65	H	0.502525	-0.238871	-0.599871
H66	H	0.692812	-0.198426	-0.399770
H67	H	1.158247	-0.027952	0.176446
F68	F	0.322640	-0.147727	-0.195350
F69	F	1.022946	0.079084	-0.191073
F70	F	1.147388	-0.037334	-0.180000
F71	F	0.453565	-0.119897	-0.057665
F72	F	0.603461	-0.114549	-0.021733
F73	F	0.358401	-0.249619	-0.660170
H74	H	0.944317	0.021163	-0.510207
H75	H	1.007462	0.326776	-0.234131
H76	H	0.935090	-0.221907	-0.073628
F77	F	1.043767	-0.127882	0.397429
H78	H	1.023033	0.467655	-0.161014
H79	H	1.017554	0.614649	-0.171711
H80	H	0.195775	-0.229461	-0.579963
F81	F	0.945149	0.389487	-0.478665
H82	H	0.825440	-0.317309	0.480138
H83	H	0.617610	-0.214396	-0.478851
H84	H	1.078735	-0.097090	0.306630
H85	H	0.944359	0.550984	-0.469590
H86	H	0.954404	0.309032	-0.447785
H87	H	0.883122	-0.267079	0.011457
H88	H	0.269036	-0.165763	-0.282129
F89	F	0.781953	-0.131367	-0.085244
H90	H	1.012042	0.231809	-0.223034
F91	F	0.786826	-0.350830	0.135900
H92	H	0.783118	-0.354080	0.308193
F93	F	0.933413	0.173897	-0.542173
F94	F	1.195725	0.004302	0.015605
