data_functionalizedCrystal
_audit_creation_method	'MofGen! by Chris Wilmer'
_symmetry_space_group_name_H-M	'P1'
_symmetry_Int_Tables_number	1
_symmetry_cell_setting	triclinic
loop_
_symmetry_equiv_pos_as_xyz
  x,y,z
_cell_length_a	12.759401
_cell_length_b	12.759399
_cell_length_c	12.759393
_cell_angle_alpha	89.968090
_cell_angle_beta	90.020473
_cell_angle_gamma	89.974838
loop_
_atom_site_label
_atom_site_type_symbol
_atom_site_fract_x
_atom_site_fract_y
_atom_site_fract_z
Zn1	Zn	1.606196	0.418167	0.594014
Zn2	Zn	1.606061	0.593884	0.418331
Zn3	Zn	1.430496	0.418225	0.418349
Zn4	Zn	1.430460	0.593809	0.593969
O5	O	1.518303	0.506021	0.506166
O6	O	1.753199	0.441484	0.570721
O7	O	1.582731	0.570638	0.271313
O8	O	1.453875	0.271196	0.441678
O9	O	1.753100	0.570582	0.441648
O10	O	1.582961	0.271154	0.570738
O11	O	1.453745	0.441582	0.271326
O12	O	1.283471	0.441509	0.441634
O13	O	1.453812	0.570454	0.740996
O14	O	1.283443	0.570510	0.570661
O15	O	1.582925	0.441411	0.741029
O16	O	1.582696	0.740895	0.441604
O17	O	1.453682	0.740840	0.570644
C18	C	1.245336	0.506008	0.506145
C19	C	1.128559	0.506028	0.506161
C20	C	1.518198	0.778989	0.506140
C21	C	1.518250	0.895765	0.506164
C22	C	1.073711	0.573301	0.573239
C23	C	0.963987	0.573305	0.573260
C24	C	0.963970	0.438760	0.439115
C25	C	1.073692	0.438752	0.439100
C26	C	1.585427	0.950515	0.573421
C27	C	1.585469	1.060239	0.573447
C28	C	1.451153	1.060454	0.438948
C29	C	1.451107	0.950732	0.438929
C30	C	1.792337	0.506035	0.506187
C31	C	1.909113	0.506041	0.506196
C32	C	1.518380	0.505918	0.780199
C33	C	1.518412	0.505874	0.896976
C34	C	1.518398	1.231988	0.506208
C35	C	1.518338	1.115211	0.506209
C36	C	1.518288	0.506049	0.233198
C37	C	1.518459	0.505797	0.116422
C38	C	1.585668	0.438630	1.061588
C39	C	1.585648	0.438671	0.951864
C40	C	1.451200	0.573048	0.951818
C41	C	1.451226	0.573011	1.061540
H42	H	0.919334	0.628084	0.627884
H43	H	1.396495	0.627712	1.106187
C44	C	1.636951	0.260718	1.095407
C45	C	1.659578	0.364756	1.121913
H46	H	1.682588	0.215114	1.132643
H47	H	1.566383	0.245336	1.113391
H48	H	1.646555	0.251144	1.022210
H49	H	1.649967	0.374332	1.195110
H50	H	1.730163	0.380143	1.103936
H51	H	1.118351	0.383963	0.384477
H52	H	1.396398	0.906151	0.384160
C53	C	1.600263	0.297381	0.828519
C54	C	1.659514	0.364822	0.891596
H55	H	1.645868	0.251790	0.791311
H56	H	1.554518	0.257195	0.871331
H57	H	1.560232	0.337424	0.780126
H58	H	1.699540	0.324779	0.939995
H59	H	1.705278	0.405012	0.848781
H60	H	1.396460	0.627770	0.907119
H61	H	1.396490	1.105221	0.384206
H62	H	0.919283	0.383988	0.384515
C63	C	1.062703	0.706281	0.705849
C64	C	1.134023	0.647239	0.646963
H65	H	1.099937	0.751921	0.751370
H66	H	1.019875	0.746419	0.660011
H67	H	1.019940	0.660543	0.746115
H68	H	1.176780	0.692977	0.606691
H69	H	1.176869	0.607098	0.692806
H70	H	1.640097	0.905764	0.628169
H71	H	1.640169	1.104812	0.628217
