data_functionalizedCrystal
_audit_creation_method	'MofGen! by Chris Wilmer'
_symmetry_space_group_name_H-M	'P1'
_symmetry_Int_Tables_number	1
_symmetry_cell_setting	triclinic
loop_
_symmetry_equiv_pos_as_xyz
  x,y,z
_cell_length_a	17.699077
_cell_length_b	14.853567
_cell_length_c	16.176319
_cell_angle_alpha	89.996997
_cell_angle_beta	89.993140
_cell_angle_gamma	83.457753
loop_
_atom_site_label
_atom_site_type_symbol
_atom_site_fract_x
_atom_site_fract_y
_atom_site_fract_z
O1	O	1.004377	0.113983	-0.068729
O2	O	1.504377	0.613983	0.431271
O3	O	0.784037	0.128821	-0.068732
O4	O	1.284037	0.628821	0.431268
O5	O	0.900093	-0.009850	-0.068733
O6	O	1.400093	0.490150	0.431267
O7	O	0.888322	0.252653	-0.068728
O8	O	1.388322	0.752653	0.431272
O9	O	0.900077	-0.009859	0.068761
O10	O	1.400077	0.490141	0.568761
O11	O	0.784021	0.128812	0.068761
O12	O	1.284021	0.628812	0.568761
O13	O	1.004361	0.113974	0.068765
O14	O	1.504361	0.613974	0.568765
Cu15	Cu	0.894190	0.121392	0.081317
Cu16	Cu	1.394190	0.621392	0.581317
Cu17	Cu	0.894209	0.121403	-0.081284
Cu18	Cu	1.394209	0.621403	0.418716
O19	O	0.888306	0.252645	0.068765
O20	O	1.388306	0.752645	0.568765
C21	C	0.755830	0.128286	0.000014
C22	C	1.255830	0.628286	0.500014
C23	C	0.671808	0.126694	0.000013
C24	C	1.171808	0.626694	0.500013
C25	C	0.632330	0.125938	0.074961
C26	C	1.132330	0.625938	0.574961
C27	C	0.553384	0.124428	0.074962
C28	C	1.053384	0.624428	0.574962
C29	C	0.513916	0.123679	0.000014
C30	C	1.013916	0.623679	0.500014
C31	C	0.553400	0.124431	-0.074941
C32	C	1.053400	0.624431	0.425059
C33	C	0.632345	0.125935	-0.074941
C34	C	1.132345	0.625935	0.425059
C35	C	0.235021	0.118364	-0.074942
C36	C	0.735021	0.618364	0.425058
C37	C	0.156069	0.116863	-0.074937
C38	C	0.656069	0.616863	0.425063
C39	C	0.156059	0.116857	0.074960
C40	C	0.656059	0.616857	0.574960
C41	C	0.235004	0.118361	0.074960
C42	C	0.735004	0.618361	0.574960
C43	C	0.274482	0.119108	0.000007
C44	C	0.774482	0.619108	0.500007
C45	C	0.360085	0.120745	0.000007
C46	C	0.860085	0.620745	0.500007
C47	C	0.428314	0.122049	0.000013
C48	C	0.928314	0.622049	0.500013
C49	C	0.899551	-0.043441	0.000012
C50	C	1.399551	0.456559	0.500012
C51	C	0.897953	-0.143519	0.000004
C52	C	1.397953	0.356481	0.500004
C53	C	0.822257	-0.555772	0.000019
C54	C	1.322257	-0.055772	0.500019
C55	C	0.960134	-0.577564	0.000021
C56	C	1.460134	-0.077564	0.500021
C57	C	0.961637	-0.483536	0.000016
C58	C	1.461637	0.016464	0.500016
C59	C	0.893449	-0.425621	0.000014
C60	C	1.393449	0.074379	0.500014
C61	C	0.823758	-0.461735	0.000017
C62	C	1.323758	0.038265	0.500017
C63	C	1.031327	-0.447415	0.000022
C64	C	1.531327	0.052585	0.500022
C65	C	1.032832	-0.353382	0.000018
C66	C	1.532832	0.146618	0.500018
C67	C	0.964643	-0.295465	0.000010
C68	C	1.464643	0.204535	0.500010
C69	C	0.894950	-0.331584	0.000012
C70	C	1.394950	0.168416	0.500012
C71	C	0.826761	-0.273669	0.000009
C72	C	1.326761	0.226331	0.500009
C73	C	0.757067	-0.309786	0.000005
C74	C	1.257067	0.190214	0.500005
C75	C	0.755569	-0.403818	0.000009
C76	C	1.255569	0.096182	0.500009
C77	C	0.966141	-0.201433	0.000006
C78	C	1.466141	0.298567	0.500006
C79	C	0.828262	-0.179632	0.000007
C80	C	1.328262	0.320368	0.500007
C81	C	1.032568	0.114509	0.000017
C82	C	1.532568	0.614509	0.500017
C83	C	1.116590	0.116101	0.000013
C84	C	1.616590	0.616101	0.500013
C85	C	0.888847	0.286236	0.000019
C86	C	1.388847	0.786236	0.500019
C87	C	0.890445	0.386313	0.000021
C88	C	1.390445	0.886313	0.500021
N89	N	0.894182	0.121384	0.195682
N90	N	1.394182	0.621384	0.695682
N91	N	0.894222	0.121403	-0.195650
N92	N	1.394222	0.621403	0.304350
C93	C	0.945587	0.060006	0.238946
C94	C	1.445587	0.560006	0.738946
C95	C	0.945591	0.060005	0.325493
C96	C	1.445591	0.560005	0.825493
C97	C	0.894193	0.121387	0.368775
C98	C	1.394193	0.621387	0.868775
C99	C	0.842782	0.182769	0.325505
C100	C	1.342782	0.682769	0.825505
C101	C	0.842775	0.182765	0.238960
C102	C	1.342775	0.682765	0.738960
C103	C	0.842808	0.182786	0.674533
C104	C	1.342808	0.682786	1.174533
C105	C	0.842820	0.182787	0.761085
C106	C	1.342820	0.682787	1.261085
C107	C	0.945624	0.060026	0.761067
C108	C	1.445624	0.560026	1.261067
C109	C	0.945617	0.060022	0.674522
C110	C	1.445617	0.560022	1.174522
C111	C	0.894204	0.121400	0.631259
C112	C	1.394204	0.621400	1.131259
C113	C	0.894199	0.121399	0.537415
C114	C	1.394199	0.621399	1.037415
C115	C	0.894200	0.121393	0.462618
C116	C	1.394200	0.621393	0.962618
H117	H	0.267154	0.118970	-0.135974
H118	H	0.767154	0.618970	0.364026
C119	C	0.164007	0.117000	-0.223117
C120	C	0.664007	0.617000	0.276883
C121	C	0.112685	0.116031	-0.157326
C122	C	0.612685	0.616031	0.342674
H123	H	0.137222	0.116482	-0.273976
H124	H	0.637222	0.616482	0.226024
H125	H	0.189079	0.170134	-0.220006
H126	H	0.689079	0.670134	0.279994
H127	H	0.200519	0.065029	-0.219991
H128	H	0.700519	0.565029	0.280009
H129	H	0.076177	0.168006	-0.160448
H130	H	0.576177	0.668006	0.339552
H131	H	0.087601	0.062891	-0.160438
H132	H	0.587601	0.562891	0.339562
H133	H	0.664487	0.126552	-0.135971
H134	H	1.164487	0.626552	0.364029
H135	H	0.664458	0.126556	0.135993
H136	H	1.164458	0.626556	0.635993
C137	C	0.561301	0.124593	0.223132
C138	C	1.061301	0.624593	0.723132
C139	C	0.509988	0.123607	0.157348
C140	C	1.009988	0.623607	0.657348
H141	H	0.534508	0.124092	0.273995
H142	H	1.034508	0.624092	0.773995
H143	H	0.597810	0.072631	0.220018
H144	H	1.097810	0.572631	0.720018
H145	H	0.586373	0.177736	0.220002
H146	H	1.086373	0.677736	0.720002
H147	H	0.484919	0.070460	0.160474
H148	H	0.984919	0.570460	0.660474
H149	H	0.473465	0.175574	0.160463
H150	H	0.973465	0.675574	0.660463
H151	H	0.765513	-0.585183	0.000012
H152	H	1.265513	-0.085183	0.500012
C153	C	0.227064	0.118192	0.223133
C154	C	0.727064	0.618192	0.723133
C155	C	0.278387	0.119180	0.157346
C156	C	0.778387	0.619180	0.657346
H157	H	0.253848	0.118689	0.273994
H158	H	0.753848	0.618689	0.773994
H159	H	0.190556	0.170157	0.220020
H160	H	0.690556	0.670157	0.720020
H161	H	0.201989	0.065051	0.220006
H162	H	0.701989	0.565051	0.720006
H163	H	0.303457	0.172325	0.160469
H164	H	0.803457	0.672325	0.660469
H165	H	0.314908	0.067210	0.160460
H166	H	0.814908	0.567210	0.660460
H167	H	0.800915	0.232744	0.203735
H168	H	1.300915	0.732744	0.703735
C169	C	1.084129	-0.191055	-0.070671
C170	C	1.584129	0.308945	0.429329
C171	C	1.042739	-0.161728	0.000006
C172	C	1.542739	0.338272	0.500006
H173	H	1.131417	-0.166537	-0.070674
H174	H	1.631417	0.333463	0.429326
H175	H	1.092995	-0.255337	-0.070659
H176	H	1.592995	0.244663	0.429341
H177	H	1.056046	-0.171166	-0.118615
H178	H	1.556046	0.328834	0.381385
H179	H	1.070819	-0.181623	0.047950
H180	H	1.570819	0.318377	0.547950
H181	H	1.033876	-0.097432	0.000001
H182	H	1.533876	0.402568	0.500001
C183	C	1.048469	0.040092	0.576993
C184	C	1.548469	0.540092	1.076993
C185	C	1.001982	-0.007533	0.626866
C186	C	1.501982	0.492467	1.126866
H187	H	1.083228	-0.001642	0.547553
H188	H	1.583228	0.498358	1.047553
H189	H	1.017846	0.076721	0.538909
H190	H	1.517846	0.576721	1.038909
H191	H	1.075870	0.077484	0.610697
H192	H	1.575870	0.577484	1.110697
H193	H	0.974576	-0.044920	0.593161
H194	H	1.474576	0.455080	1.093161
H195	H	1.032609	-0.044178	0.664954
H196	H	1.532609	0.455822	1.164954
C197	C	0.691822	-0.167537	0.000004
C198	C	1.191822	0.332463	0.500004
C199	C	0.753306	-0.115975	0.000006
C200	C	1.253306	0.384025	0.500006
H201	H	0.645548	-0.128236	0.000008
H202	H	1.145548	0.371764	0.500008
H203	H	0.694112	-0.204660	-0.047941
H204	H	1.194112	0.295340	0.452059
H205	H	0.694104	-0.204672	0.047953
H206	H	1.194104	0.295328	0.547953
H207	H	0.751027	-0.078844	-0.047947
H208	H	1.251027	0.421156	0.452053
H209	H	0.751015	-0.078836	0.047956
H210	H	1.251015	0.421164	0.547956
H211	H	0.800947	0.232763	0.639316
H212	H	1.300947	0.732763	1.139316
H213	H	0.987444	0.010025	0.203712
H214	H	1.487444	0.510025	0.703712
H215	H	1.015650	-0.624723	0.000029
H216	H	1.515650	-0.124723	0.500029
H217	H	0.701548	-0.262620	0.000009
H218	H	1.201548	0.237380	0.500009
H219	H	0.987448	0.010026	0.360718
H220	H	1.487448	0.510026	0.860718
H221	H	0.800963	0.232773	0.796323
H222	H	1.300963	0.732773	1.296323
C223	C	0.989916	-0.096120	0.787708
C224	C	1.489916	0.403880	1.287708
C225	C	1.002131	-0.007455	0.808624
C226	C	1.502131	0.492545	1.308624
H227	H	1.024803	-0.137776	0.817063
H228	H	1.524803	0.362224	1.317063
H229	H	0.939403	-0.105828	0.801906
H230	H	1.439403	0.394172	1.301906
H231	H	0.997270	-0.104892	0.729969
H232	H	1.497270	0.395108	1.229969
H233	H	0.994771	0.001319	0.866362
H234	H	1.494771	0.501319	1.366362
H235	H	1.052656	0.002257	0.794431
H236	H	1.552656	0.502257	1.294431
C237	C	0.456199	0.200220	-0.161901
C238	C	0.956199	0.700220	0.338099
C239	C	0.510018	0.123612	-0.157326
C240	C	1.010018	0.623612	0.342674
H241	H	0.429422	0.199718	-0.212766
H242	H	0.929422	0.699718	0.287234
H243	H	0.421393	0.199548	-0.117269
H244	H	0.921393	0.699548	0.382731
H245	H	0.481288	0.253351	-0.158783
H246	H	0.981288	0.753351	0.341217
H247	H	0.484928	0.070481	-0.160438
H248	H	0.984928	0.570481	0.339562
H249	H	0.544829	0.124275	-0.201970
H250	H	1.044829	0.624275	0.298030
C251	C	0.692051	-0.538285	0.000028
C252	C	1.192051	-0.038285	0.500028
C253	C	0.678966	-0.443520	0.000016
C254	C	1.178966	0.056480	0.500016
H255	H	0.644759	-0.562795	0.000041
H256	H	1.144759	-0.062795	0.500041
H257	H	0.720128	-0.558168	-0.047916
H258	H	1.220128	-0.058168	0.452084
H259	H	0.720131	-0.558158	0.047978
H260	H	1.220131	-0.058158	0.547978
H261	H	0.650891	-0.423647	-0.047937
H262	H	1.150891	0.076353	0.452063
H263	H	0.650877	-0.423628	0.047966
H264	H	1.150877	0.076372	0.547966
C265	C	1.090238	-0.601235	0.000024
C266	C	1.590238	-0.101235	0.500024
C267	C	1.106275	-0.511074	0.000029
C268	C	1.606275	-0.011074	0.500029
H269	H	1.136511	-0.640537	0.000024
H270	H	1.636511	-0.140537	0.500024
H271	H	1.061662	-0.612162	0.047965
H272	H	1.561662	-0.112162	0.547965
H273	H	1.061675	-0.612154	-0.047929
H274	H	1.561675	-0.112154	0.452071
H275	H	1.134834	-0.500153	0.047985
H276	H	1.634834	-0.000153	0.547985
H277	H	1.134863	-0.500143	-0.047917
H278	H	1.634863	-0.000143	0.452083
H279	H	0.800929	0.232745	0.360750
H280	H	1.300929	0.732745	0.860750
C281	C	0.035037	0.114532	0.141533
C282	C	0.535037	0.614532	0.641533
C283	C	0.112664	0.116019	0.157353
C284	C	0.612664	0.616019	0.657353
H285	H	0.008251	0.114011	0.192398
H286	H	0.508251	0.614011	0.692398
H287	H	0.016383	0.166836	0.110745
H288	H	0.516383	0.666836	0.610745
H289	H	0.027832	0.061731	0.110736
H290	H	0.527832	0.561731	0.610736
H291	H	0.119870	0.168825	0.188145
H292	H	0.619870	0.668825	0.688145
H293	H	0.131324	0.063711	0.188155
H294	H	0.631324	0.563711	0.688155
C295	C	1.150821	-0.343016	-0.070668
C296	C	1.650821	0.156984	0.429332
C297	C	1.109438	-0.313685	0.000012
C298	C	1.609438	0.186315	0.500012
H299	H	1.198112	-0.318503	-0.070674
H300	H	1.698112	0.181497	0.429326
H301	H	1.159683	-0.407298	-0.070656
H302	H	1.659683	0.092702	0.429344
H303	H	1.122737	-0.323124	-0.118609
H304	H	1.622737	0.176876	0.381391
H305	H	1.137519	-0.333583	0.047954
H306	H	1.637519	0.166417	0.547954
H307	H	1.100578	-0.249389	0.000008
H308	H	1.600578	0.250611	0.500008
