data_functionalizedCrystal
_audit_creation_method	'MofGen! by Chris Wilmer'
_symmetry_space_group_name_H-M	'P1'
_symmetry_Int_Tables_number	1
_symmetry_cell_setting	triclinic
loop_
_symmetry_equiv_pos_as_xyz
  x,y,z
_cell_length_a	14.519709
_cell_length_b	13.339070
_cell_length_c	11.804365
_cell_angle_alpha	105.124870
_cell_angle_beta	101.851959
_cell_angle_gamma	80.345281
loop_
_atom_site_label
_atom_site_type_symbol
_atom_site_fract_x
_atom_site_fract_y
_atom_site_fract_z
O1	O	0.449147	-1.363544	-0.099080
O2	O	0.949147	-0.863544	0.400920
O3	O	0.388436	-1.068905	-0.099072
O4	O	0.888436	-0.568905	0.400928
O5	O	0.286542	-1.224034	-0.099066
O6	O	0.786542	-0.724034	0.400934
O7	O	0.551041	-1.208414	-0.099087
O8	O	1.051041	-0.708414	0.400913
O9	O	0.313329	-1.183194	0.098989
O10	O	0.813329	-0.683194	0.598989
O11	O	0.415223	-1.028065	0.098982
O12	O	0.915223	-0.528065	0.598982
O13	O	0.475934	-1.322704	0.098974
O14	O	0.975934	-0.822704	0.598974
Cu15	Cu	0.448024	-1.171656	0.117062
Cu16	Cu	0.948024	-0.671656	0.617062
Cu17	Cu	0.416345	-1.219953	-0.117160
Cu18	Cu	0.916345	-0.719953	0.382840
O19	O	0.577828	-1.167575	0.098968
O20	O	1.077828	-0.667575	0.598968
C21	C	0.265390	-1.202886	-0.000038
C22	C	0.765390	-0.702886	0.499962
C23	C	0.162454	-1.200704	-0.000038
C24	C	0.662454	-0.700704	0.499962
C25	C	0.391574	-1.010777	-0.000044
C26	C	0.891574	-0.510777	0.499956
C27	C	0.361005	-0.898419	-0.000040
C28	C	0.861005	-0.398419	0.499960
N29	N	0.470307	-1.137693	0.281801
N30	N	0.970307	-0.637693	0.781801
C31	C	-0.214489	-1.192677	-0.000068
C32	C	0.285511	-0.692677	0.499932
C33	C	-0.109613	-1.194906	-0.000059
C34	C	0.390387	-0.694906	0.499941
C35	C	-0.026021	-1.196690	-0.000052
C36	C	0.473979	-0.696690	0.499948
C37	C	0.078862	-1.198920	-0.000045
C38	C	0.578862	-0.698920	0.499955
C39	C	0.598979	-1.188723	-0.000062
C40	C	1.098979	-0.688723	0.499938
C41	C	0.701915	-1.190907	-0.000071
C42	C	1.201915	-0.690907	0.499929
C43	C	0.472796	-1.380832	-0.000057
C44	C	0.972796	-0.880832	0.499943
C45	C	0.503364	-1.493192	-0.000068
C46	C	1.003364	-0.993192	0.499932
C47	C	0.598691	-0.534064	-0.000078
C48	C	1.098691	-0.034064	0.499922
C49	C	0.627415	-0.639630	-0.000085
C50	C	1.127415	-0.139630	0.499915
C51	C	0.560815	-0.704332	-0.000073
C52	C	1.060815	-0.204332	0.499927
C53	C	0.465486	-0.663459	-0.000055
C54	C	0.965486	-0.163459	0.499945
C55	C	0.436759	-0.557884	-0.000058
C56	C	0.936759	-0.057884	0.499942
C57	C	0.398882	-0.728152	-0.000053
C58	C	0.898882	-0.228152	0.499947
C59	C	0.303554	-0.687279	-0.000035
C60	C	0.803554	-0.187279	0.499965
C61	C	0.274831	-0.581714	-0.000037
C62	C	0.774831	-0.081714	0.499963
C63	C	0.341431	-0.517012	-0.000048
C64	C	0.841431	-0.017012	0.499952
C65	C	0.427610	-0.833727	-0.000051
C66	C	0.927610	-0.333727	0.499949
C67	C	0.265677	-0.857547	-0.000031
C68	C	0.765677	-0.357547	0.499969
C69	C	0.236954	-0.751981	-0.000024
C70	C	0.736954	-0.251981	0.499976
N71	N	0.394058	-1.253924	-0.281899
N72	N	0.894058	-0.753924	0.218101
C73	C	0.340531	-1.335480	0.655758
C74	C	0.840531	-0.835480	1.155758
C75	C	0.323670	-1.361172	0.531097
C76	C	0.823670	-0.861172	1.031097
C77	C	0.360328	-1.305304	0.468767
C78	C	0.860328	-0.805304	0.968767
C79	C	0.413850	-1.223741	0.531110
C80	C	0.913850	-0.723741	1.031110
C81	C	0.430719	-1.198052	0.655783
C82	C	0.930719	-0.698052	1.155783
C83	C	0.450515	-1.167876	0.468792
C84	C	0.950515	-0.667876	0.968792
C85	C	0.504037	-1.086313	0.531135
C86	C	1.004037	-0.586313	1.031135
C87	C	0.520903	-1.060628	0.655795
C88	C	1.020903	-0.560628	1.155795
C89	C	0.484245	-1.116496	0.718126
C90	C	0.984245	-0.616496	1.218126
C91	C	0.433646	-1.193565	0.344119
C92	C	0.933646	-0.693565	0.844119
C93	C	0.523834	-1.056137	0.344144
C94	C	1.023834	-0.556137	0.844144
C95	C	0.540695	-1.030445	0.468805
C96	C	1.040695	-0.530445	0.968805
H97	H	0.505227	-0.866995	-0.000061
H98	H	1.005227	-0.366995	0.499939
H99	H	0.318049	-0.431050	-0.000042
H100	H	0.818049	0.068950	0.499958
H101	H	0.584274	-0.964035	0.519580
H102	H	1.084274	-0.464035	1.019580
N103	N	0.670510	-0.464279	-0.000100
N104	N	1.170510	0.035721	0.499900
H105	H	0.720842	-0.462294	0.073311
H106	H	1.220842	0.037706	0.573311
H107	H	0.700898	-0.492632	-0.073575
H108	H	1.200898	0.007368	0.426425
H109	H	0.564492	-0.994223	0.706555
H110	H	1.064492	-0.494223	1.206555
N111	N	0.563381	-0.995875	0.276933
N112	N	1.063381	-0.495875	0.776933
H113	H	0.544572	-1.024522	0.188499
H114	H	1.044572	-0.524522	0.688499
H115	H	0.537265	-0.919568	0.298743
H116	H	1.037265	-0.419568	0.798743
H117	H	0.197207	-0.548441	-0.000035
H118	H	0.697207	-0.048441	0.499965
N119	N	0.502432	-1.088791	0.852585
N120	N	1.002432	-0.588791	1.352585
H121	H	0.572956	-1.097437	0.882607
H122	H	1.072956	-0.597437	1.382607
H123	H	0.475388	-1.013823	0.882535
H124	H	0.975388	-0.513823	1.382535
N125	N	0.591791	-0.818192	-0.000073
N126	N	1.091791	-0.318192	0.499927
H127	H	0.662286	-0.834267	-0.000082
H128	H	1.162286	-0.334267	0.499918
H129	H	0.576793	-0.833072	0.073359
H130	H	1.076793	-0.333072	0.573359
H131	H	0.705029	-0.672904	-0.000109
H132	H	1.205029	-0.172904	0.499891
N133	N	0.134139	-0.707889	0.000004
N134	N	0.634139	-0.207889	0.500004
H135	H	0.126053	-0.631195	0.000005
H136	H	0.626053	-0.131195	0.500005
H137	H	0.093865	-0.746680	-0.073410
H138	H	0.593865	-0.246680	0.426590
H139	H	0.211445	-0.910229	-0.000026
H140	H	0.711445	-0.410229	0.499974
H141	H	0.390069	-1.259973	0.293371
H142	H	0.890069	-0.759973	0.793371
H143	H	0.310695	-1.380966	0.706515
H144	H	0.810695	-0.880966	1.206515
N145	N	0.342143	-1.333009	0.334312
N146	N	0.842143	-0.833009	0.834312
H147	H	0.302674	-1.393153	0.304276
H148	H	0.802674	-0.893153	0.804276
H149	H	0.307057	-1.270353	0.304400
H150	H	0.807057	-0.770353	0.804400
N151	N	0.265949	-1.449137	0.463858
N152	N	0.765949	-0.949137	0.963858
H153	H	0.245284	-1.480630	0.522257
H154	H	0.745284	-0.980630	1.022257
H155	H	0.208228	-1.420979	0.412146
H156	H	0.708228	-0.920979	0.912146
