data_functionalizedCrystal
_audit_creation_method	'MofGen! by Chris Wilmer'
_symmetry_space_group_name_H-M	'P1'
_symmetry_Int_Tables_number	1
_symmetry_cell_setting	triclinic
loop_
_symmetry_equiv_pos_as_xyz
  x,y,z
_cell_length_a	10.654562
_cell_length_b	16.109304
_cell_length_c	9.730223
_cell_angle_alpha	90.001479
_cell_angle_beta	89.996961
_cell_angle_gamma	83.976371
loop_
_atom_site_label
_atom_site_type_symbol
_atom_site_fract_x
_atom_site_fract_y
_atom_site_fract_z
O1	O	1.666242	0.116820	-0.114371
O2	O	1.300615	0.127935	-0.114353
O3	O	1.493470	0.001407	-0.114363
O4	O	1.473386	0.243348	-0.114361
O5	O	1.493468	0.001410	0.114217
O6	O	1.300612	0.127938	0.114227
O7	O	1.666239	0.116824	0.114209
Zn8	Zn	1.483426	0.122381	0.150510
Zn9	Zn	1.483429	0.122377	-0.150654
O10	O	1.473384	0.243352	0.114219
C11	C	1.253827	0.127118	-0.000061
C12	C	1.114418	0.124670	-0.000054
C13	C	1.048901	0.123530	0.124534
C14	C	0.917910	0.121236	0.124511
C15	C	0.917963	0.121226	-0.124699
C16	C	1.048953	0.123514	-0.124675
C17	C	1.048869	0.123539	0.268414
C18	C	0.917878	0.121245	0.268391
C19	C	1.492655	-0.029571	-0.000076
C20	C	1.490214	-0.121881	-0.000085
C21	C	1.484576	-0.334254	-0.124679
C22	C	1.482271	-0.420988	-0.124678
C23	C	1.482275	-0.420981	0.124533
C24	C	1.484571	-0.334248	0.124530
C25	C	1.485728	-0.290887	-0.000080
C26	C	1.481126	-0.464354	-0.000076
C27	C	1.478627	-0.558395	-0.000073
C28	C	1.488225	-0.196840	-0.000083
C29	C	1.713027	0.117640	-0.000086
C30	C	1.852436	0.120088	-0.000102
C31	C	1.474199	0.274330	-0.000071
C32	C	1.476640	0.366639	-0.000070
N33	N	1.483433	0.122384	0.356046
N34	N	1.483431	0.122368	-0.356190
C35	C	1.568851	0.066376	0.427968
C36	C	1.568848	0.066366	0.571851
C37	C	1.398004	0.178378	0.571878
C38	C	1.398002	0.178384	0.427998
C39	C	1.667490	0.001709	0.427953
C40	C	1.667487	0.001699	0.571836
H41	H	1.095907	0.066083	0.323666
H42	H	1.758399	0.021961	0.383323
H43	H	1.637792	-0.058690	0.616453
C44	C	1.797595	0.020949	0.624595
H45	H	1.851101	0.028881	0.548655
H46	H	1.833948	-0.024383	0.678820
H47	H	1.787997	0.070239	0.678843
H48	H	1.102294	0.124430	-0.226127
H49	H	1.485514	-0.298952	-0.226145
C50	C	1.481007	-0.468692	-0.261733
H51	H	1.479460	-0.526556	-0.243890
H52	H	1.554572	-0.460397	-0.312936
H53	H	1.408185	-0.448558	-0.312922
C54	C	1.087723	0.205443	0.328741
H55	H	1.014382	0.240332	0.355596
H56	H	1.132441	0.233212	0.261307
H57	H	1.140303	0.193312	0.406563
C58	C	0.854281	0.198864	0.342996
H59	H	0.765394	0.197299	0.342990
H60	H	0.874317	0.247785	0.296986
H61	H	0.883887	0.199382	0.435053
C62	C	1.481020	-0.468682	0.261592
H63	H	1.479502	-0.526550	0.243751
H64	H	1.408212	-0.448553	0.312802
H65	H	1.554599	-0.460381	0.312774
H66	H	1.485501	-0.298938	0.226000
H67	H	1.328437	0.223982	0.369441
C68	C	1.304046	0.239978	0.651029
H69	H	1.316283	0.231957	0.747020
H70	H	1.220242	0.230432	0.627450
H71	H	1.317665	0.295555	0.627459
C72	C	1.639657	-0.084605	0.375178
H73	H	1.639660	-0.084597	0.277540
H74	H	1.559398	-0.096476	0.407722
H75	H	1.702753	-0.125991	0.407696
H76	H	0.889111	0.060612	0.313036
H77	H	0.864645	0.120285	-0.226161
