data_functionalizedCrystal
_audit_creation_method	'MofGen! by Chris Wilmer'
_symmetry_space_group_name_H-M	'P1'
_symmetry_Int_Tables_number	1
_symmetry_cell_setting	triclinic
loop_
_symmetry_equiv_pos_as_xyz
  x,y,z
_cell_length_a	10.540535
_cell_length_b	10.540539
_cell_length_c	9.130313
_cell_angle_alpha	90.000859
_cell_angle_beta	90.002127
_cell_angle_gamma	84.524567
loop_
_atom_site_label
_atom_site_type_symbol
_atom_site_fract_x
_atom_site_fract_y
_atom_site_fract_z
O1	O	1.685883	0.178867	-0.121712
O2	O	1.316470	0.195729	-0.121731
O3	O	1.509604	0.002592	-0.121719
O4	O	1.492749	0.372005	-0.121724
O5	O	1.509602	0.002597	0.121880
O6	O	1.316467	0.195735	0.121867
O7	O	1.685881	0.178873	0.121887
Cu8	Cu	1.501174	0.187304	0.144120
Cu9	Cu	1.501177	0.187298	-0.143964
O10	O	1.492746	0.372010	0.121875
C11	C	1.269165	0.194469	0.000065
C12	C	1.128217	0.190689	0.000058
C13	C	1.091546	0.049675	0.000065
C14	C	0.944946	0.045698	0.000633
C15	C	0.918880	0.255062	0.138910
C16	C	1.065645	0.258063	0.139013
C17	C	1.065532	0.260109	-0.138015
C18	C	0.919185	0.253587	-0.139825
C19	C	1.508339	-0.044709	0.000077
C20	C	1.504557	-0.185657	0.000069
C21	C	1.359640	-0.369081	-0.000485
C22	C	1.363474	-0.222463	0.000063
C23	C	1.572452	-0.247312	0.139180
C24	C	1.567637	-0.393857	0.139297
C25	C	1.570509	-0.394381	-0.137720
C26	C	1.571808	-0.247399	-0.139560
C27	C	1.733185	0.180133	0.000087
C28	C	1.874134	0.183913	0.000085
C29	C	1.494011	0.419311	0.000075
C30	C	1.497793	0.560259	0.000074
N31	N	1.501181	0.187308	0.346742
N32	N	1.501179	0.187284	-0.346587
C33	C	1.586723	0.101816	0.423400
C34	C	1.586720	0.101800	0.576737
C35	C	1.415628	0.272780	0.576745
C36	C	1.415626	0.272788	0.423411
C37	C	1.685506	0.003105	0.423396
C38	C	1.685502	0.003090	0.576733
H39	H	0.916492	-0.009669	0.100738
H40	H	1.676059	-0.224960	0.144357
H41	H	0.915609	-0.009946	-0.098863
H42	H	1.088676	0.361437	0.144943
H43	H	1.663797	-0.094475	0.381776
C44	C	1.119921	0.193144	0.279727
H45	H	1.052243	0.165184	0.336288
H46	H	1.162956	0.252166	0.335115
H47	H	1.178031	0.122005	0.254584
C48	C	1.284340	-0.407710	-0.135245
H49	H	1.201239	-0.364022	-0.133537
H50	H	1.278216	-0.497026	-0.133404
H51	H	1.327104	-0.385890	-0.221944
C52	C	1.150239	-0.022254	0.134360
H53	H	1.196990	0.033281	0.190427
H54	H	1.205695	-0.093275	0.102656
H55	H	1.084228	-0.051122	0.192867
C56	C	1.504800	-0.192098	-0.278590
H57	H	1.436129	-0.131627	-0.251671
H58	H	1.473017	-0.258940	-0.333213
H59	H	1.563917	-0.151578	-0.336647
H60	H	1.310051	-0.179861	-0.099657
C61	C	1.321503	0.366784	0.661078
H62	H	1.270544	0.417688	0.593459
H63	H	1.367612	0.420076	0.720923
H64	H	1.268256	0.320567	0.720865
C65	C	0.854903	0.392535	0.145371
H66	H	0.800198	0.407794	0.063268
H67	H	0.918474	0.450622	0.143852
H68	H	0.806540	0.403990	0.232976
C69	C	0.852966	0.389875	-0.151713
H70	H	0.796733	0.406144	-0.071139
H71	H	0.805980	0.398328	-0.240529
H72	H	0.915344	0.449245	-0.150766
H73	H	0.887977	0.206252	0.242624
H74	H	1.304134	-0.399286	0.098709
C75	C	1.122878	0.200659	-0.280215
H76	H	1.185593	0.132936	-0.256703
H77	H	1.161029	0.263693	-0.334781
H78	H	1.057386	0.168638	-0.336874
H79	H	1.345960	0.342392	0.360998
H80	H	1.654628	-0.089127	0.624279
H81	H	1.777684	0.034055	0.375842
C82	C	1.148273	-0.023500	-0.134378
H83	H	1.194834	0.031287	-0.191720
H84	H	1.081393	-0.052282	-0.191562
H85	H	1.203627	-0.094645	-0.102784
H86	H	0.890584	0.201809	-0.242530
C87	C	1.095514	0.400260	-0.139849
H88	H	1.145983	0.416441	-0.056927
H89	H	1.018181	0.454435	-0.137010
H90	H	1.140907	0.416355	-0.226731
H91	H	1.309674	-0.180704	0.099944
H92	H	1.517458	-0.422053	0.243279
C93	C	1.704699	-0.458667	0.147858
H94	H	1.763073	-0.395400	0.151261
H95	H	1.721740	-0.510845	0.063981
H96	H	1.713844	-0.509721	0.233645
C97	C	1.817288	0.032521	0.632971
H98	H	1.871485	0.044648	0.552047
H99	H	1.853388	-0.036685	0.690764
H100	H	1.808289	0.107779	0.690782
H101	H	1.525287	-0.204710	0.242696
C102	C	1.708169	-0.458178	-0.138993
H103	H	1.751630	-0.430390	-0.222498
H104	H	1.706875	-0.548114	-0.142565
H105	H	1.750937	-0.435369	-0.052695
C106	C	1.710767	-0.214693	-0.150903
H107	H	1.729675	-0.162730	-0.070266
H108	H	1.721926	-0.170107	-0.239687
H109	H	1.766438	-0.291075	-0.149718
C110	C	1.508824	-0.436996	-0.280157
H111	H	1.438137	-0.482855	-0.256917
H112	H	1.569586	-0.490227	-0.334471
H113	H	1.480660	-0.364183	-0.336944
