data_functionalizedCrystal
_audit_creation_method	'MofGen! by Chris Wilmer'
_symmetry_space_group_name_H-M	'P1'
_symmetry_Int_Tables_number	1
_symmetry_cell_setting	triclinic
loop_
_symmetry_equiv_pos_as_xyz
  x,y,z
_cell_length_a	19.121102
_cell_length_b	19.120904
_cell_length_c	18.050589
_cell_angle_alpha	87.583023
_cell_angle_beta	92.417299
_cell_angle_gamma	90.088173
loop_
_atom_site_label
_atom_site_type_symbol
_atom_site_fract_x
_atom_site_fract_y
_atom_site_fract_z
Zn1	Zn	1.054826	-0.442083	0.363276
Zn2	Zn	1.059739	-0.324854	0.482403
Zn3	Zn	0.942595	-0.319867	0.352713
Zn4	Zn	0.937550	-0.437056	0.481904
O5	O	0.998678	-0.380965	0.420074
O6	O	1.153583	-0.430724	0.383708
O7	O	1.048367	-0.226087	0.460987
O8	O	0.957538	-0.336096	0.250193
O9	O	1.157192	-0.344595	0.471230
O10	O	1.039993	-0.425888	0.257954
O11	O	0.962302	-0.222423	0.365705
O12	O	0.843821	-0.331221	0.365221
O13	O	0.948940	-0.535828	0.470379
O14	O	0.840114	-0.417319	0.460137
O15	O	1.035101	-0.539522	0.383224
O16	O	1.043475	-0.339721	0.586258
O17	O	0.953704	-0.422155	0.585891
C18	C	0.816530	-0.373184	0.411479
C19	C	0.738606	-0.369872	0.407821
C20	C	0.700088	-0.413072	0.455588
C21	C	0.626870	-0.409963	0.452141
C22	C	0.592171	-0.363650	0.400930
C23	C	0.630694	-0.320448	0.353157
C24	C	0.703910	-0.323561	0.356601
C25	C	0.371199	-0.352016	0.388052
C26	C	0.297977	-0.348905	0.384613
C27	C	0.294159	-0.438422	0.483596
C28	C	0.367377	-0.441527	0.487039
C29	C	0.405893	-0.398328	0.439264
C30	C	0.517330	-0.360470	0.397407
C31	C	0.480733	-0.401512	0.442784
C32	C	0.990910	-0.563824	0.427924
C33	C	0.987600	-0.641747	0.431270
C34	C	1.030902	-0.680280	0.387466
C35	C	1.027783	-0.753497	0.390607
C36	C	0.981365	-0.788180	0.437554
C37	C	0.938058	-0.749642	0.481359
C38	C	0.941174	-0.676426	0.478215
C39	C	0.969710	-1.009148	0.449315
C40	C	0.966599	-1.082369	0.452458
C41	C	1.056324	-1.086219	0.361704
C42	C	1.059438	-1.013002	0.358567
C43	C	1.016129	-0.974470	0.402369
C44	C	0.978178	-0.863020	0.440767
C45	C	1.019313	-0.899632	0.399152
C46	C	1.181536	-0.388777	0.428703
C47	C	1.259460	-0.392106	0.432380
C48	C	0.998593	-0.380950	0.613022
C49	C	0.998621	-0.380969	0.695570
C50	C	1.006455	-0.198819	0.412203
C51	C	1.009901	-0.120902	0.408654
C52	C	0.998780	-0.380996	0.226374
C53	C	0.998824	-0.381010	0.143831
C54	C	0.949850	-0.425783	0.894849
C55	C	0.935492	-0.361083	0.940721
C56	C	0.998689	-0.380981	0.846704
C57	C	1.013081	-0.445690	0.947915
C58	C	0.998754	-0.380999	0.992692
C59	C	0.984300	-0.316246	0.891485
C60	C	1.061916	-0.400898	0.898678
C61	C	1.047585	-0.336155	0.944527
C62	C	0.998650	-0.380972	0.762603
C63	C	0.998793	-0.381000	1.076791
H64	H	0.262791	-0.473593	0.522491
H65	H	1.025228	-0.500407	0.972584
O66	O	0.483698	-0.315388	0.347701
C67	C	0.504510	-0.246243	0.361665
H68	H	0.557726	-0.246992	0.392638
H69	H	0.464287	-0.220826	0.396858
C70	C	0.444334	-0.203116	0.249494
C71	C	0.509697	-0.204035	0.287531
H72	H	0.447530	-0.177079	0.203766
H73	H	0.430309	-0.249700	0.240087
H74	H	0.410821	-0.181937	0.278830
H75	H	0.543206	-0.225223	0.258199
H76	H	0.523727	-0.157454	0.296931
H77	H	1.115341	-0.417759	0.880074
O78	O	0.927740	-0.971659	0.491906
C79	C	0.969419	-0.931017	0.539956
H80	H	1.023028	-0.922311	0.515804
H81	H	0.975896	-0.959559	0.596561
C82	C	0.867938	-0.870519	0.578267
C83	C	0.933780	-0.859821	0.548600
H84	H	0.845953	-0.826604	0.583602
H85	H	0.839857	-0.897902	0.545897
H86	H	0.873345	-0.894307	0.625435
H87	H	0.928372	-0.836042	0.501428
H88	H	0.961859	-0.832433	0.580962
O89	O	0.741408	-0.281563	0.310308
C90	C	0.785648	-0.238004	0.352560
H91	H	0.795550	-0.263104	0.410454
H92	H	0.759627	-0.184835	0.357074
C93	C	0.843587	-0.197507	0.243302
C94	C	0.855753	-0.228339	0.314407
H95	H	0.886830	-0.191543	0.219768
H96	H	0.813780	-0.226852	0.214836
H97	H	0.821900	-0.153204	0.247074
H98	H	0.877431	-0.272645	0.310634
H99	H	0.885565	-0.199002	0.342872
O100	O	0.871791	-0.340972	0.963030
C101	C	0.872903	-0.340666	1.041166
H102	H	0.929172	-0.334939	1.063553
H103	H	0.850119	-0.391881	1.064087
C104	C	0.759777	-0.285917	1.037822
C105	C	0.828887	-0.278877	1.065316
H106	H	0.732623	-0.247805	1.052720
H107	H	0.759026	-0.286125	0.985179
H108	H	0.740800	-0.328599	1.056925
H109	H	0.847865	-0.236200	1.046206
H110	H	0.829640	-0.278660	1.117956
O111	O	0.899092	-0.639101	0.520849
C112	C	0.857446	-0.685411	0.562952
H113	H	0.883935	-0.738832	0.569111
H114	H	0.803879	-0.690918	0.533587
C115	C	0.815995	-0.590781	0.632725
C116	C	0.848533	-0.656392	0.640296
H117	H	0.810494	-0.572881	0.680433
H118	H	0.844050	-0.559580	0.604358
H119	H	0.771360	-0.595379	0.608252
H120	H	0.893170	-0.651792	0.664760
H121	H	0.820484	-0.687592	0.668669
H122	H	0.940387	-0.891267	0.478995
O123	O	0.597068	-0.275367	0.303446
C124	C	0.617894	-0.206225	0.317410
H125	H	0.671107	-0.206985	0.348389
H126	H	0.577673	-0.180799	0.352598
C127	C	0.557736	-0.163089	0.205232
C128	C	0.623096	-0.164021	0.243276
H129	H	0.560941	-0.137054	0.159504
H130	H	0.543702	-0.209671	0.195825
H131	H	0.524225	-0.141902	0.234564
H132	H	0.656603	-0.185216	0.213948
H133	H	0.637135	-0.117443	0.252676
H134	H	1.068703	-0.652046	0.349239
H135	H	1.097239	-0.984768	0.320339
H136	H	0.402550	-0.316835	0.349155
H137	H	0.508988	-0.439223	0.484477
O138	O	0.969710	-0.250996	0.862042
C139	C	0.969840	-0.251777	0.783976
H140	H	0.959616	-0.307300	0.765553
H141	H	1.022909	-0.233224	0.764349
C142	C	0.924661	-0.134496	0.772730
C143	C	0.912098	-0.202689	0.750102
H144	H	0.889046	-0.104214	0.751834
H145	H	0.924576	-0.133968	0.825324
H146	H	0.968887	-0.119045	0.756373
H147	H	0.867877	-0.218142	0.766468
H148	H	0.912174	-0.203219	0.697510
H149	H	0.908492	-0.463611	0.873037
H150	H	1.091583	-1.117599	0.326042
O151	O	0.589563	-0.451947	0.498627
C152	C	0.635889	-0.493497	0.544560
H153	H	0.689294	-0.466996	0.548295
H154	H	0.641431	-0.547123	0.520120
C155	C	0.541272	-0.534788	0.618115
C156	C	0.606863	-0.502237	0.622708
H157	H	0.523367	-0.540182	0.666320
H158	H	0.510060	-0.506797	0.587168
H159	H	0.545899	-0.579473	0.597745
H160	H	0.602234	-0.457549	0.643069
H161	H	0.638074	-0.530220	0.653661
O162	O	0.400971	-0.486578	0.536807
C163	C	0.351274	-0.524029	0.578243
H164	H	0.298990	-0.524292	0.545481
H165	H	0.344552	-0.497931	0.633128
C166	C	0.440910	-0.599518	0.633861
C167	C	0.376695	-0.599845	0.593619
H168	H	0.456592	-0.646284	0.643349
H169	H	0.474393	-0.574285	0.605947
H170	H	0.435300	-0.577766	0.679594
H171	H	0.382308	-0.621589	0.547883
H172	H	0.343214	-0.625083	0.621526
O173	O	1.069921	-0.790822	0.348034
C174	C	1.111550	-0.744509	0.305914
H175	H	1.116179	-0.692418	0.334207
H176	H	1.086243	-0.735632	0.247964
C177	C	1.179268	-0.840258	0.265215
C178	C	1.184959	-0.776280	0.299968
H179	H	1.224550	-0.859857	0.261544
H180	H	1.151221	-0.871461	0.293590
H181	H	1.158177	-0.832852	0.216927
H182	H	1.206042	-0.783689	0.348258
H183	H	1.213013	-0.745080	0.271601
O184	O	0.264378	-0.303898	0.334795
C185	C	0.314073	-0.266424	0.293378
H186	H	0.365052	-0.297362	0.294538
H187	H	0.324104	-0.213464	0.318560
C188	C	0.223331	-0.217239	0.211128
C189	C	0.285943	-0.255240	0.212547
H190	H	0.205979	-0.210337	0.161269
H191	H	0.189850	-0.242483	0.239033
H192	H	0.231698	-0.173110	0.232117
H193	H	0.277573	-0.299371	0.191568
H194	H	0.319422	-0.230002	0.184637
O195	O	1.096806	-0.290866	0.970470
C196	C	1.064321	-0.239227	1.010679
H197	H	1.012346	-0.260068	1.031096
H198	H	1.054525	-0.190439	0.973198
C199	C	1.176112	-0.194975	1.052577
C200	C	1.112279	-0.220575	1.077659
H201	H	1.205695	-0.183466	1.093891
H202	H	1.197999	-0.229763	1.025485
H203	H	1.167940	-0.154321	1.021342
H204	H	1.120451	-0.261232	1.108885
H205	H	1.090394	-0.185793	1.104758
H206	H	0.728335	-0.450783	0.497292
H207	H	0.900261	-0.777887	0.519582
O208	O	0.921541	-1.115989	0.498162
C209	C	0.937585	-1.098759	0.572137
H210	H	0.966789	-1.046748	0.572673
H211	H	0.971866	-1.141500	0.600620
C212	C	0.833487	-1.156338	0.613085
C213	C	0.869350	-1.092454	0.613743
H214	H	0.791397	-1.152452	0.638751
H215	H	0.822679	-1.167949	0.563247
H216	H	0.862062	-1.191950	0.636819
H217	H	0.840778	-1.056846	0.590001
H218	H	0.880152	-1.080837	0.663578
H219	H	1.057104	-0.871389	0.360924
