data_functionalizedCrystal
_audit_creation_method	'MofGen! by Chris Wilmer'
_symmetry_space_group_name_H-M	'P1'
_symmetry_Int_Tables_number	1
_symmetry_cell_setting	triclinic
loop_
_symmetry_equiv_pos_as_xyz
  x,y,z
_cell_length_a	16.625548
_cell_length_b	18.050590
_cell_length_c	18.050582
_cell_angle_alpha	89.976663
_cell_angle_beta	89.985107
_cell_angle_gamma	90.019620
loop_
_atom_site_label
_atom_site_type_symbol
_atom_site_fract_x
_atom_site_fract_y
_atom_site_fract_z
Zn1	Zn	1.232657	-0.295685	-0.419908
Zn2	Zn	1.232583	-0.419869	-0.295716
Zn3	Zn	1.097832	-0.295699	-0.295732
Zn4	Zn	1.097799	-0.419840	-0.419865
O5	O	1.165218	-0.357774	-0.357805
O6	O	1.345480	-0.312165	-0.403445
O7	O	1.214691	-0.403415	-0.191794
O8	O	1.115762	-0.191773	-0.312229
O9	O	1.345425	-0.403402	-0.312202
O10	O	1.214818	-0.191763	-0.403461
O11	O	1.115690	-0.312188	-0.191805
O12	O	0.984996	-0.312161	-0.312187
O13	O	1.115705	-0.403353	-0.523795
O14	O	0.984971	-0.403367	-0.403387
O15	O	1.214785	-0.312137	-0.523827
O16	O	1.214658	-0.523790	-0.312160
O17	O	1.115633	-0.523769	-0.403372
C18	C	0.955727	-0.357763	-0.357785
C19	C	0.866106	-0.357776	-0.357793
C20	C	0.537930	-0.357781	-0.357825
C21	C	0.629239	-0.357778	-0.357814
C22	C	0.702015	-0.357779	-0.357809
C23	C	0.793329	-0.357775	-0.357799
C24	C	1.165156	-0.550726	-0.357776
C25	C	1.165203	-0.633271	-0.357788
C26	C	1.219165	-0.832706	-0.308256
C27	C	1.238855	-0.882045	-0.376037
C28	C	1.165249	-0.784402	-0.357818
C29	C	1.145641	-0.882145	-0.290068
C30	C	1.165295	-0.930387	-0.357840
C31	C	1.184977	-0.832653	-0.425633
C32	C	1.091728	-0.832749	-0.339619
C33	C	1.111390	-0.882065	-0.407446
C34	C	1.165225	-0.700303	-0.357804
C35	C	1.165319	-1.014483	-0.357862
C36	C	1.375527	-0.357785	-0.357827
C37	C	1.465148	-0.357789	-0.357836
C38	C	1.165249	-0.357741	-0.551511
C39	C	1.165263	-0.357727	-0.634057
C40	C	1.165302	-0.164068	-0.357851
C41	C	1.165338	-0.081522	-0.357871
C42	C	1.111424	-0.407262	-0.833490
C43	C	1.184991	-0.425414	-0.882882
C44	C	1.165303	-0.357670	-0.785187
C45	C	1.091777	-0.339497	-0.882878
C46	C	1.165335	-0.357617	-0.931173
C47	C	1.238907	-0.375858	-0.833491
C48	C	1.145644	-0.289909	-0.833483
C49	C	1.219261	-0.308035	-0.882852
C50	C	1.165283	-0.357702	-0.701089
C51	C	1.165362	-0.357584	-1.015269
C52	C	1.165233	-0.357753	-0.164853
C53	C	1.165376	-0.357558	-0.082308
H54	H	1.264776	-0.811033	-0.266387
H55	H	1.029584	-0.324149	-0.904572
H56	H	1.301050	-0.903700	-0.391444
H57	H	1.065904	-0.449256	-0.811817
N58	N	1.123568	-0.214059	-0.804707
H59	H	1.067974	-0.200396	-0.822637
H60	H	1.124288	-0.214591	-0.748762
H61	H	1.201518	-0.811005	-0.482987
H62	H	1.301119	-0.391271	-0.811888
N63	N	1.279696	-0.252456	-0.911395
H64	H	1.279041	-0.252438	-0.967346
H65	H	1.265298	-0.201470	-0.892580
N66	N	1.009373	-0.804034	-0.319178
H67	H	1.009848	-0.748085	-0.319800
H68	H	0.968545	-0.822822	-0.356093
N69	N	1.051007	-0.910583	-0.463031
H70	H	1.065935	-0.892476	-0.514170
H71	H	1.051034	-0.966531	-0.462377
N72	N	1.123643	-0.910945	-0.214166
H73	H	1.164393	-0.892990	-0.176765
H74	H	1.068474	-0.892237	-0.200091
N75	N	1.207049	-0.501286	-0.911625
H76	H	1.166308	-0.538734	-0.893674
H77	H	1.207424	-0.500514	-0.967571
