data_functionalizedCrystal
_audit_creation_method	'MofGen! by Chris Wilmer'
_symmetry_space_group_name_H-M	'P1'
_symmetry_Int_Tables_number	1
_symmetry_cell_setting	triclinic
loop_
_symmetry_equiv_pos_as_xyz
  x,y,z
_cell_length_a	10.489716
_cell_length_b	10.489741
_cell_length_c	13.596369
_cell_angle_alpha	89.994306
_cell_angle_beta	89.995062
_cell_angle_gamma	84.534155
loop_
_atom_site_label
_atom_site_type_symbol
_atom_site_fract_x
_atom_site_fract_y
_atom_site_fract_z
O1	O	1.694073	0.179821	-0.081783
O2	O	1.322873	0.196747	-0.081787
O3	O	1.516920	0.002685	-0.081779
O4	O	1.500027	0.373882	-0.081791
O5	O	1.516900	0.002675	0.081804
O6	O	1.322854	0.196736	0.081796
O7	O	1.694054	0.179811	0.081800
Zn8	Zn	1.508451	0.188272	0.107770
Zn9	Zn	1.508476	0.188285	-0.107757
O10	O	1.500007	0.373872	0.081792
C11	C	1.275332	0.195470	0.000004
C12	C	1.133701	0.191665	0.000003
C13	C	1.036027	0.310669	-0.000003
C14	C	0.958671	0.247780	0.080658
C15	C	0.958697	0.247762	-0.080622
C16	C	1.058210	0.128825	0.080731
C17	C	1.058242	0.128825	-0.080621
C18	C	0.980935	0.065848	0.000060
C19	C	1.515634	-0.044852	0.000012
C20	C	1.511817	-0.186481	0.000010
C21	C	1.388351	-0.254610	0.000002
C22	C	1.446665	-0.346743	0.080657
C23	C	1.446714	-0.346707	-0.080623
C24	C	1.570182	-0.276748	0.080732
C25	C	1.570214	-0.276703	-0.080620
C26	C	1.628618	-0.368808	0.000055
C27	C	1.741596	0.181087	0.000007
C28	C	1.883227	0.184892	0.000002
C29	C	1.501293	0.421409	-0.000001
C30	C	1.505110	0.563038	-0.000005
N31	N	1.508442	0.188261	0.254862
N32	N	1.508495	0.188286	-0.254849
C33	C	1.508475	0.188287	0.656153
C34	C	1.508462	0.188284	0.544502
C35	C	1.508459	0.188275	0.455511
C36	C	1.508445	0.188270	0.343853
H37	H	1.101518	0.078613	0.148991
Br38	Br	0.886232	0.331537	-0.194263
Br39	Br	1.359620	-0.398340	-0.194266
Br40	Br	1.657173	-0.225386	0.194509
H41	H	1.101746	0.078631	-0.148813
H42	H	1.730222	-0.418241	0.000101
Br43	Br	1.219157	-0.171842	0.000126
Br44	Br	1.077159	0.483196	0.000115
H45	H	1.394416	-0.377754	0.148845
Br46	Br	1.657230	-0.224957	-0.194277
Br47	Br	0.940202	-0.106807	0.000140
H48	H	0.915180	0.298012	0.148847
