data_functionalizedCrystal
_audit_creation_method	'MofGen! by Chris Wilmer'
_symmetry_space_group_name_H-M	'P1'
_symmetry_Int_Tables_number	1
_symmetry_cell_setting	triclinic
loop_
_symmetry_equiv_pos_as_xyz
  x,y,z
_cell_length_a	12.759401
_cell_length_b	21.295417
_cell_length_c	12.759393
_cell_angle_alpha	90.038095
_cell_angle_beta	90.020938
_cell_angle_gamma	90.032032
loop_
_atom_site_label
_atom_site_type_symbol
_atom_site_fract_x
_atom_site_fract_y
_atom_site_fract_z
Zn1	Zn	1.606151	-0.250553	0.593965
Zn2	Zn	2.106151	0.249447	1.093965
Zn3	Zn	1.605994	-0.355835	0.418261
Zn4	Zn	2.105994	0.144165	0.918261
Zn5	Zn	1.430450	-0.250587	0.418300
Zn6	Zn	1.930450	0.249413	0.918300
Zn7	Zn	1.430393	-0.355791	0.593899
Zn8	Zn	1.930393	0.144209	1.093899
O9	O	1.518247	-0.303192	0.506106
O10	O	2.018247	0.196808	1.006106
O11	O	1.753151	-0.264523	0.570669
O12	O	2.253151	0.235477	1.070669
O13	O	1.582665	-0.341906	0.271245
O14	O	2.082665	0.158094	0.771245
O15	O	1.453846	-0.162493	0.441646
O16	O	1.953846	0.337507	0.941646
O17	O	1.753035	-0.341874	0.441580
O18	O	2.253035	0.158126	0.941580
O19	O	1.582933	-0.162468	0.570706
O20	O	2.082933	0.337532	1.070706
O21	O	1.453694	-0.264581	0.271274
O22	O	1.953694	0.235419	0.771274
O23	O	1.283421	-0.264538	0.441582
O24	O	1.783421	0.235462	0.941582
O25	O	1.453750	-0.341799	0.740929
O26	O	1.953750	0.158201	1.240929
O27	O	1.283380	-0.341831	0.570594
O28	O	1.783380	0.158169	1.070594
O29	O	1.582879	-0.264481	0.740977
O30	O	2.082879	0.235519	1.240977
O31	O	1.582610	-0.443919	0.441516
O32	O	2.082610	0.056081	0.941516
O33	O	1.453597	-0.443886	0.570556
O34	O	1.953597	0.056114	1.070556
C35	C	1.245279	-0.303184	0.506085
C36	C	1.745279	0.196816	1.006085
C37	C	1.128503	-0.303196	0.506101
C38	C	1.628503	0.196804	1.006101
C39	C	1.518109	-0.466743	0.506048
C40	C	2.018109	0.033257	1.006048
C41	C	1.518146	-0.536711	0.506058
C42	C	2.018146	-0.036711	1.006058
C43	C	1.073647	-0.343504	0.573172
C44	C	1.573647	0.156496	1.073172
C45	C	0.963923	-0.343506	0.573193
C46	C	1.463923	0.156494	1.073193
C47	C	0.963921	-0.262891	0.439063
C48	C	1.463921	0.237109	0.939063
C49	C	1.073643	-0.262886	0.439048
C50	C	1.573643	0.237114	0.939048
C51	C	1.585383	-0.569574	0.438936
C52	C	2.085383	-0.069574	0.938936
C53	C	1.585432	-0.635316	0.438960
C54	C	2.085432	-0.135316	0.938960
C55	C	1.518226	-0.668194	0.506094
C56	C	2.018226	-0.168194	1.006094
C57	C	1.450985	-0.635323	0.573230
C58	C	1.950985	-0.135323	1.073230
C59	C	1.450945	-0.569582	0.573212
C60	C	1.950945	-0.069582	1.073212
N61	N	1.426319	-0.771460	0.514097
N62	N	1.926319	-0.271460	1.014097
N63	N	1.426360	-0.833912	0.514108
N64	N	1.926360	-0.333912	1.014108
C65	C	1.518344	-0.866268	0.506155
C66	C	2.018344	-0.366268	1.006155
N67	N	1.610287	-0.833814	0.498169
N68	N	2.110287	-0.333814	0.998169
N69	N	1.610245	-0.771357	0.498153
N70	N	2.110245	-0.271357	0.998153
C71	C	1.518262	-0.739479	0.506122
C72	C	2.018262	-0.239479	1.006122
C73	C	1.585640	-0.970417	0.439054
C74	C	2.085640	-0.470417	0.939054
C75	C	1.585691	-1.036160	0.439085
C76	C	2.085691	-0.536160	0.939085
C77	C	1.451233	-1.036166	0.573350
C78	C	1.951233	-0.536166	1.073350
C79	C	1.451192	-0.970423	0.573325
C80	C	1.951192	-0.470423	1.073325
C81	C	1.518393	-0.937553	0.506171
C82	C	2.018393	-0.437553	1.006171
C83	C	1.792280	-0.303200	0.506128
C84	C	2.292280	0.196800	1.006128
C85	C	1.909057	-0.303203	0.506137
C86	C	2.409057	0.196797	1.006137
C87	C	1.518325	-0.303131	0.780140
C88	C	2.018325	0.196869	1.280140
C89	C	1.518359	-0.303105	0.896916
C90	C	2.018359	0.196895	1.396916
C91	C	1.518414	-0.139001	0.506188
C92	C	2.018414	0.360999	1.006188
C93	C	1.518485	-0.069033	0.506222
C94	C	2.018485	0.430967	1.006222
C95	C	1.518229	-0.303206	0.233139
C96	C	2.018229	0.196794	0.733139
C97	C	1.518399	-0.303055	0.116363
C98	C	2.018399	0.196945	0.616363
C99	C	1.585601	-0.262839	0.951805
C100	C	2.085601	0.237161	1.451805
C101	C	1.585619	-0.262812	1.061529
C102	C	2.085619	0.237188	1.561529
C103	C	1.451149	-0.343322	1.061466
C104	C	1.951149	0.156678	1.561466
C105	C	1.451127	-0.343346	0.951744
C106	C	1.951127	0.156654	1.451744
H107	H	1.118311	-0.376325	0.627773
H108	H	1.618311	0.123675	1.127773
H109	H	1.640188	-0.662078	0.384301
H110	H	2.140188	-0.162078	0.884301
C111	C	1.377307	-1.072327	0.647202
C112	C	1.877307	-0.572327	1.147202
N113	N	1.321626	-1.099567	0.702830
N114	N	1.821626	-0.599567	1.202830
C115	C	1.377246	-0.934273	0.647187
C116	C	1.877246	-0.434273	1.147187
N117	N	1.321559	-0.907045	0.702835
N118	N	1.821559	-0.407045	1.202835
C119	C	0.903586	-0.387854	0.646966
C120	C	1.403586	0.112146	1.146966
N121	N	0.858141	-0.421260	0.702533
N122	N	1.358141	0.078740	1.202533
C123	C	1.377196	-0.387583	1.121787
C124	C	1.877196	0.112417	1.621787
N125	N	1.321493	-0.420922	1.167219
N126	N	1.821493	0.079078	1.667219
C127	C	1.377148	-0.387642	0.891363
C128	C	1.877148	0.112358	1.391363
N129	N	1.321427	-0.421003	0.845883
N130	N	1.821427	0.078997	1.345883
C131	C	1.377054	-0.671490	0.647074
C132	C	1.877054	-0.171490	1.147074
N133	N	1.321368	-0.698730	0.702698
N134	N	1.821368	-0.198730	1.202698
C135	C	1.659577	-0.934256	0.365201
C136	C	2.159577	-0.434256	0.865201
N137	N	1.715272	-0.907022	0.309577
N138	N	2.215272	-0.407022	0.809577
C139	C	1.659549	-0.218568	0.891499
C140	C	2.159549	0.281432	1.391499
N141	N	1.715245	-0.185219	0.846079
N142	N	2.215245	0.314781	1.346079
C143	C	1.659659	-1.072309	0.365241
C144	C	2.159659	-0.572309	0.865241
N145	N	1.715372	-1.099537	0.309617
N146	N	2.215372	-0.599537	0.809617
C147	C	0.903564	-0.218556	0.365303
C148	C	1.403564	0.281444	0.865303
N149	N	0.858104	-0.185163	0.309744
N150	N	1.358104	0.314837	0.809744
H151	H	1.396192	-0.542825	0.627872
H152	H	1.896192	-0.042825	1.127872
C153	C	1.659593	-0.218518	1.121902
C154	C	2.159593	0.281482	1.621902
N155	N	1.715314	-0.185154	1.167374
N156	N	2.215314	0.314846	1.667374
H157	H	1.118308	-0.230058	0.384431
H158	H	1.618308	0.269942	0.884431
H159	H	1.640105	-0.542812	0.384258
H160	H	2.140105	-0.042812	0.884258
