data_functionalizedCrystal
_audit_creation_method	'MofGen! by Chris Wilmer'
_symmetry_space_group_name_H-M	'P1'
_symmetry_Int_Tables_number	1
_symmetry_cell_setting	triclinic
loop_
_symmetry_equiv_pos_as_xyz
  x,y,z
_cell_length_a	6.817900
_cell_length_b	15.185311
_cell_length_c	10.943624
_cell_angle_alpha	93.493280
_cell_angle_beta	108.838799
_cell_angle_gamma	104.261569
loop_
_atom_site_label
_atom_site_type_symbol
_atom_site_fract_x
_atom_site_fract_y
_atom_site_fract_z
V1	V	-4.092126	-0.125732	-0.402930
O2	O	-4.074332	0.006066	-0.394870
O3	O	-4.047105	-0.249328	-0.400549
O4	O	-4.070450	-0.123787	-0.578490
O5	O	-4.050824	-0.120344	-0.215697
V6	V	-4.571854	-0.109968	-0.380490
O7	O	-4.361711	-0.160310	-0.452154
O8	O	-4.752467	-0.075390	-0.331265
O9	O	-4.393669	0.013628	-0.382871
O10	O	-4.707045	-0.241766	-0.388550
O11	O	-4.730553	-0.115356	-0.567723
O12	O	-4.370323	-0.111913	-0.204929
C13	C	-3.892063	-0.279459	-0.394289
C14	C	-3.936717	-0.380501	-0.393513
C15	C	-3.921841	-0.119317	-0.621270
C16	C	-3.985425	-0.118545	-0.764794
C17	C	-4.066954	-0.794768	-0.271993
C18	C	-4.184337	-0.820698	-0.508549
C19	C	-4.142352	-0.725763	-0.509271
C20	C	-4.062669	-0.665325	-0.391353
C21	C	-4.024970	-0.699823	-0.272712
C22	C	-4.180067	-0.691258	-0.627911
C23	C	-4.138085	-0.596317	-0.628638
C24	C	-4.058386	-0.535877	-0.510717
C25	C	-4.020685	-0.570381	-0.392072
C26	C	-3.941002	-0.509943	-0.274153
C27	C	-3.903286	-0.544444	-0.155505
C28	C	-3.945272	-0.639384	-0.154791
C29	C	-4.016400	-0.440938	-0.511431
C30	C	-3.899018	-0.414999	-0.274872
C31	C	-3.831221	-0.113345	-0.841926
C32	C	-4.006233	-0.190534	-0.948148
C33	C	-3.923732	-0.039988	-0.914308
C34	C	-4.159634	-0.195807	-0.869140
C35	C	-4.077065	-0.045193	-0.835276
C36	C	-4.252210	-0.122404	-0.941469
C37	C	-4.212052	0.043754	-0.389127
C38	C	-4.146637	0.144795	-0.389912
C39	C	-4.182274	-0.116386	-0.162143
C40	C	-4.097928	-0.117153	-0.018618
H41	H	-3.834121	-0.365795	-0.178846
H42	H	-4.047145	-0.412852	-0.608034
N43	N	-3.821916	-0.482693	-0.035070
N44	N	-3.784469	-0.397930	-0.035743
H45	H	-3.727004	-0.354314	0.049311
H46	H	-4.106264	0.016255	-0.786107
N47	N	-3.906756	-0.674641	-0.033617
N48	N	-3.944256	-0.759410	-0.032997
H49	H	-3.917060	-0.784316	0.052580
N50	N	-4.261489	-0.753003	-0.748343
N51	N	-4.298960	-0.837767	-0.747678
H52	H	-4.356470	-0.881381	-0.832737
H53	H	-4.036241	-0.822863	-0.175393
N54	N	-3.969562	-0.267624	-1.009808
N55	N	-4.062963	-0.347489	-1.000585
H56	H	-4.037058	-0.401933	-1.044129
H57	H	-4.258763	-0.261732	-0.848794
N58	N	-4.476262	-0.127236	-0.995723
N59	N	-4.615624	-0.194964	-0.986637
H60	H	-4.773863	-0.198381	-1.024955
H61	H	-3.652713	-0.109617	-0.798466
N62	N	-3.799381	0.042602	-0.940098
N63	N	-3.598293	0.060325	-0.903110
H64	H	-3.510458	0.118643	-0.921341
H65	H	-4.249233	-0.869912	-0.604554
N66	N	-4.176628	-0.561094	-0.749838
N67	N	-4.247781	-0.615067	-0.855111
H68	H	-4.275000	-0.590191	-0.940712
