data_functionalizedCrystal
_audit_creation_method	'MofGen! by Chris Wilmer'
_symmetry_space_group_name_H-M	'P1'
_symmetry_Int_Tables_number	1
_symmetry_cell_setting	triclinic
loop_
_symmetry_equiv_pos_as_xyz
  x,y,z
_cell_length_a	23.532407
_cell_length_b	23.532357
_cell_length_c	22.010155
_cell_angle_alpha	89.998697
_cell_angle_beta	89.996931
_cell_angle_gamma	82.838485
loop_
_atom_site_label
_atom_site_type_symbol
_atom_site_fract_x
_atom_site_fract_y
_atom_site_fract_z
O1	O	0.755251	0.069129	-0.050457
O2	O	1.088585	0.402462	0.282877
O3	O	1.421918	0.735795	0.616210
O4	O	0.589386	0.079132	-0.050475
O5	O	0.922719	0.412465	0.282858
O6	O	1.256053	0.745799	0.616191
O7	O	0.677335	-0.008803	-0.050453
O8	O	1.010669	0.324530	0.282880
O9	O	1.344002	0.657863	0.616214
O10	O	0.667302	0.157064	-0.050479
O11	O	1.000636	0.490397	0.282854
O12	O	1.333969	0.823731	0.616188
O13	O	0.677319	-0.008790	0.050597
O14	O	1.010653	0.324543	0.383931
O15	O	1.343986	0.657876	0.717264
O16	O	0.589370	0.079145	0.050575
O17	O	0.922704	0.412479	0.383908
O18	O	1.256037	0.745812	0.717242
O19	O	0.755235	0.069142	0.050594
O20	O	1.088569	0.402475	0.383927
O21	O	1.421902	0.735808	0.717260
Cu22	Cu	0.672301	0.074145	0.059811
Cu23	Cu	1.005635	0.407478	0.393144
Cu24	Cu	1.338968	0.740811	0.726478
Cu25	Cu	0.672320	0.074129	-0.059693
Cu26	Cu	1.005654	0.407462	0.273641
Cu27	Cu	1.338987	0.740796	0.606974
O28	O	0.667286	0.157077	0.050571
O29	O	1.000620	0.490411	0.383905
O30	O	1.333953	0.823744	0.717238
C31	C	0.568162	0.078884	0.000048
C32	C	0.901496	0.412217	0.333381
C33	C	1.234829	0.745551	0.666714
C34	C	0.504945	0.078118	0.000041
C35	C	0.838279	0.411451	0.333374
C36	C	1.171612	0.744785	0.666708
C37	C	0.677076	-0.030013	0.000074
C38	C	1.010410	0.303320	0.333407
C39	C	1.343743	0.636653	0.666741
C40	C	0.676322	-0.093232	0.000080
C41	C	1.009655	0.240101	0.333413
C42	C	1.342988	0.573435	0.666746
C43	C	0.105834	0.125353	0.000061
C44	C	0.439167	0.458686	0.333394
C45	C	0.772500	0.792019	0.666728
C46	C	0.046434	0.124641	0.000065
C47	C	0.379767	0.457974	0.333398
C48	C	0.713100	0.791308	0.666731
O49	O	0.009681	0.168428	0.000080
O50	O	0.343015	0.501761	0.333413
O51	O	0.676348	0.835095	0.666747
N52	N	0.023817	0.072364	0.000072
N53	N	0.357150	0.405697	0.333405
N54	N	0.690483	0.739030	0.666739
C55	C	0.060604	0.020794	0.000082
C56	C	0.393937	0.354127	0.333415
C57	C	0.727270	0.687461	0.666748
O58	O	0.035912	-0.023737	0.000089
O59	O	0.369245	0.309596	0.333422
O60	O	0.702579	0.642929	0.666755
C61	C	0.120003	0.021506	0.000082
C62	C	0.453336	0.354839	0.333415
C63	C	0.786669	0.688173	0.666749
C64	C	0.142616	0.073787	0.000069
C65	C	0.475949	0.407120	0.333402
C66	C	0.809283	0.740454	0.666735
C67	C	0.128448	0.177629	0.000048
C68	C	0.461781	0.510963	0.333382
C69	C	0.795114	0.844296	0.666715
C70	C	0.187844	0.178341	0.000043
C71	C	0.521177	0.511674	0.333377
C72	C	0.854510	0.845007	0.666710
C73	C	0.224626	0.126775	0.000051
C74	C	0.557959	0.460108	0.333384
C75	C	0.891292	0.793442	0.666718
C76	C	0.202012	0.074498	0.000064
C77	C	0.535345	0.407832	0.333397
C78	C	0.868679	0.741165	0.666730
C79	C	0.156788	-0.030063	0.000096
C80	C	0.490122	0.303271	0.333429
C81	C	0.823455	0.636604	0.666763
C82	C	0.216191	-0.029346	0.000097
C83	C	0.549524	0.303987	0.333430
C84	C	0.882857	0.637321	0.666764
C85	C	0.238804	0.022935	0.000084
C86	C	0.572137	0.356268	0.333417
C87	C	0.905471	0.689601	0.666750
C88	C	0.298190	0.023644	0.000067
C89	C	0.631523	0.356977	0.333400
C90	C	0.964857	0.690311	0.666733
N91	N	0.320807	0.075922	0.000059
N92	N	0.654140	0.409255	0.333393
N93	N	0.987474	0.742588	0.666726
C94	C	0.284025	0.127487	0.000052
C95	C	0.617358	0.460820	0.333385
C96	C	0.950691	0.794154	0.666718
C97	C	-0.064139	0.019303	0.000082
C98	C	0.269195	0.352636	0.333415
C99	C	0.602528	0.685969	0.666748
C100	C	-0.123536	0.018590	0.000077
C101	C	0.209797	0.351923	0.333410
C102	C	0.543130	0.685257	0.666743
C103	C	-0.137702	0.122437	0.000061
C104	C	0.195631	0.455771	0.333394
C105	C	0.528964	0.789104	0.666728
C106	C	-0.078303	0.123149	0.000062
C107	C	0.255030	0.456483	0.333395
C108	C	0.588363	0.789816	0.666728
C109	C	-0.041522	0.071580	0.000074
C110	C	0.291812	0.404914	0.333408
C111	C	0.625145	0.738247	0.666741
C112	C	0.408761	0.128977	0.000041
C113	C	0.742095	0.462310	0.333374
C114	C	1.075428	0.795644	0.666707
C115	C	0.468163	0.129684	0.000033
C116	C	0.801496	0.463017	0.333366
C117	C	1.134830	0.796350	0.666700
C118	C	0.482324	0.025837	0.000052
C119	C	0.815657	0.359170	0.333385
C120	C	1.148991	0.692503	0.666719
C121	C	0.422927	0.025130	0.000056
C122	C	0.756261	0.358463	0.333390
C123	C	1.089594	0.691796	0.666723
C124	C	0.386147	0.076704	0.000053
C125	C	0.719480	0.410038	0.333386
C126	C	1.052813	0.743371	0.666719
O127	O	0.334977	-0.020120	0.000054
O128	O	0.668310	0.313213	0.333387
O129	O	1.001644	0.646547	0.666721
O130	O	0.308725	0.172011	0.000052
O131	O	0.642058	0.505345	0.333386
O132	O	0.975391	0.838678	0.666719
C133	C	0.671594	-0.485250	-0.055036
C134	C	1.004927	-0.151917	0.278297
C135	C	1.338260	0.181416	0.611631
C136	C	0.670877	-0.544650	-0.055040
C137	C	1.004210	-0.211317	0.278294
C138	C	1.337543	0.122017	0.611627
O139	O	0.670494	-0.575372	-0.101885
O140	O	1.003827	-0.242039	0.231448
O141	O	1.337160	0.091294	0.564781
N142	N	0.670512	-0.574354	0.000042
N143	N	1.003845	-0.241021	0.333375
N144	N	1.337179	0.092313	0.666709
C145	C	0.670859	-0.544655	0.055131
C146	C	1.004193	-0.211321	0.388464
C147	C	1.337526	0.122012	0.721798
O148	O	0.670483	-0.575374	0.101982
O149	O	1.003816	-0.242041	0.435315
O150	O	1.337150	0.091292	0.768649
C151	C	0.671572	-0.485256	0.055134
C152	C	1.004906	-0.151922	0.388467
C153	C	1.338239	0.181411	0.721801
C154	C	0.671943	-0.455556	0.000048
C155	C	1.005276	-0.122222	0.333382
C156	C	1.338609	0.211111	0.666715
C157	C	0.671963	-0.455550	-0.110117
C158	C	1.005297	-0.122217	0.223216
C159	C	1.338630	0.211116	0.556550
C160	C	0.672682	-0.396155	-0.110113
C161	C	1.006015	-0.062822	0.223220
C162	C	1.339348	0.270512	0.556553
C163	C	0.673030	-0.366460	-0.055029
C164	C	1.006364	-0.033127	0.278305
C165	C	1.339697	0.300207	0.611638
C166	C	0.672661	-0.396160	0.000052
C167	C	1.005994	-0.062827	0.333386
C168	C	1.339327	0.270506	0.666719
C169	C	0.671915	-0.455557	0.110222
C170	C	1.005249	-0.122224	0.443555
C171	C	1.338582	0.211110	0.776889
C172	C	0.672628	-0.396154	0.110220
C173	C	1.005961	-0.062821	0.443554
C174	C	1.339295	0.270513	0.776887
C175	C	0.672998	-0.366454	0.055135
C176	C	1.006332	-0.033120	0.388468
C177	C	1.339665	0.300213	0.721802
C178	C	0.673728	-0.307070	0.055141
C179	C	1.007061	0.026263	0.388474
C180	C	1.340394	0.359596	0.721807
N181	N	0.674092	-0.277366	0.000059
N182	N	1.007426	0.055967	0.333392
N183	N	1.340759	0.389300	0.666726
C184	C	0.673743	-0.307061	-0.055026
C185	C	1.007077	0.026272	0.278308
C186	C	1.340410	0.359606	0.611641
C187	C	0.669361	-0.669396	0.055121
C188	C	1.002694	-0.336063	0.388454
C189	C	1.336027	-0.002730	0.721787
C190	C	0.668652	-0.728795	0.055118
C191	C	1.001985	-0.395461	0.388452
C192	C	1.335318	-0.062128	0.721785
C193	C	0.668668	-0.728786	-0.055053
C194	C	1.002001	-0.395452	0.278281
C195	C	1.335334	-0.062119	0.611614
C196	C	0.669381	-0.669387	-0.055050
C197	C	1.002714	-0.336053	0.278284
C198	C	1.336048	-0.002720	0.611617
C199	C	0.669725	-0.639692	0.000039
C200	C	1.003058	-0.306359	0.333372
C201	C	1.336392	0.026974	0.666706
C202	C	0.675252	-0.182327	-0.055014
C203	C	1.008586	0.151006	0.278320
C204	C	1.341919	0.484340	0.611653
C205	C	0.675973	-0.122927	-0.055005
C206	C	1.009306	0.210406	0.278328
C207	C	1.342640	0.543740	0.611662
C208	C	0.675954	-0.122941	0.055166
C209	C	1.009287	0.210393	0.388499
C210	C	1.342620	0.543726	0.721832
C211	C	0.675236	-0.182336	0.055157
C212	C	1.008569	0.150997	0.388491
C213	C	1.341903	0.484331	0.721824
C214	C	0.674883	-0.212027	0.000063
C215	C	1.008217	0.121306	0.333396
C216	C	1.341550	0.454639	0.666729
O217	O	0.674109	-0.276310	0.101962
O218	O	1.007442	0.057024	0.435296
O219	O	1.340775	0.390357	0.768629
O220	O	0.674112	-0.276333	-0.101869
O221	O	1.007446	0.057000	0.231465
O222	O	1.340779	0.390334	0.564798
C223	C	0.776459	0.069390	0.000070
C224	C	1.109793	0.402723	0.333403
C225	C	1.443126	0.736057	0.666736
C226	C	0.839676	0.070156	0.000072
C227	C	1.173010	0.403489	0.333405
C228	C	1.506343	0.736822	0.666739
C229	C	0.667545	0.178287	0.000043
C230	C	1.000879	0.511620	0.333376
C231	C	1.334212	0.844954	0.666710
C232	C	0.668300	0.241506	0.000033
C233	C	1.001633	0.574839	0.333367
C234	C	1.334966	0.908172	0.666700
N235	N	0.672292	0.074155	0.143864
N236	N	1.005626	0.407489	0.477197
N237	N	1.338959	0.740822	0.810530
N238	N	0.672334	0.074114	-0.143745
N239	N	1.005667	0.407447	0.189588
N240	N	1.339001	0.740781	0.522921
C241	C	0.711266	0.035197	0.563653
C242	C	1.044600	0.368530	0.896986
C243	C	1.377933	0.701863	1.230320
C244	C	0.711269	0.035193	0.627260
C245	C	1.044602	0.368526	0.960594
C246	C	1.377936	0.701860	1.293927
O247	O	0.744383	0.002076	0.660160
O248	O	1.077716	0.335410	0.993494
O249	O	1.411050	0.668743	1.326827
N250	N	0.672320	0.074117	0.659071
N251	N	1.005653	0.407451	0.992404
N252	N	1.338987	0.740784	1.325737
C253	C	0.633362	0.113044	0.627270
C254	C	0.966695	0.446377	0.960603
C255	C	1.300029	0.779711	1.293937
O256	O	0.600233	0.146152	0.660168
O257	O	0.933566	0.479485	0.993501
O258	O	1.266899	0.812818	1.326834
C259	C	0.633357	0.113045	0.563663
C260	C	0.966690	0.446378	0.896997
C261	C	1.300024	0.779712	1.230330
C262	C	0.672312	0.074122	0.531857
C263	C	1.005646	0.407455	0.865190
C264	C	1.338979	0.740788	1.198523
C265	C	0.750218	-0.003724	0.531846
C266	C	1.083551	0.329610	0.865179
C267	C	1.416885	0.662943	1.198513
C268	C	0.750216	-0.003719	0.468243
C269	C	1.083549	0.329615	0.801576
C270	C	1.416883	0.662948	1.134909
C271	C	0.711262	0.035206	0.436446
C272	C	1.044595	0.368540	0.769780
C273	C	1.377929	0.701873	1.103113
C274	C	0.672310	0.074127	0.468253
C275	C	1.005644	0.407460	0.801587
C276	C	1.338977	0.740793	1.134920
C277	C	0.594397	0.151969	0.531864
C278	C	0.927730	0.485302	0.865197
C279	C	1.261063	0.818635	1.198531
C280	C	0.594395	0.151966	0.468253
C281	C	0.927728	0.485299	0.801586
C282	C	1.261061	0.818632	1.134920
C283	C	0.633350	0.113043	0.436446
C284	C	0.966684	0.446376	0.769780
C285	C	1.300017	0.779709	1.103113
C286	C	0.633354	0.113056	0.372854
C287	C	0.966688	0.446390	0.706187
C288	C	1.300021	0.779723	1.039521
N289	N	0.672303	0.074132	0.341044
N290	N	1.005637	0.407465	0.674377
N291	N	1.338970	0.740799	1.007710
C292	C	0.711257	0.035207	0.372840
C293	C	1.044590	0.368540	0.706173
C294	C	1.377924	0.701874	1.039507
C295	C	0.633374	0.113039	0.760848
C296	C	0.966708	0.446372	1.094181
C297	C	1.300041	0.779706	1.427514
C298	C	0.633382	0.113041	0.824453
C299	C	0.966715	0.446375	1.157786
C300	C	1.300048	0.779708	1.491120
C301	C	0.711288	0.035189	0.824439
C302	C	1.044621	0.368523	1.157773
C303	C	1.377955	0.701856	1.491106
C304	C	0.711283	0.035190	0.760833
C305	C	1.044617	0.368523	1.094166
C306	C	1.377950	0.701857	1.427499
C307	C	0.672323	0.074115	0.729038
C308	C	1.005657	0.407448	1.062371
C309	C	1.338990	0.740781	1.395704
C310	C	0.711250	0.035220	0.239269
C311	C	1.044583	0.368554	0.572602
C312	C	1.377917	0.701887	0.905935
C313	C	0.711246	0.035230	0.175660
C314	C	1.044579	0.368564	0.508993
C315	C	1.377913	0.701897	0.842326
C316	C	0.633338	0.113080	0.175679
C317	C	0.966671	0.446413	0.509013
C318	C	1.300005	0.779747	0.842346
C319	C	0.633344	0.113073	0.239282
C320	C	0.966677	0.446406	0.572616
C321	C	1.300010	0.779739	0.905949
C322	C	0.672302	0.074138	0.271076
C323	C	1.005635	0.407471	0.604409
C324	C	1.338969	0.740805	0.937742
O325	O	0.600255	0.146155	0.339914
O326	O	0.933589	0.479488	0.673247
O327	O	1.266922	0.812821	1.006580
O328	O	0.744376	0.002100	0.339935
O329	O	1.077709	0.335434	0.673268
O330	O	1.411043	0.668767	1.006601
H331	H	0.486571	0.172259	0.000022
H332	H	0.819904	0.505592	0.333355
H333	H	1.153238	0.838925	0.666689
Cl334	Cl	0.668224	-0.766127	-0.124303
Cl335	Cl	1.001558	-0.432794	0.209031
Cl336	Cl	1.334891	-0.099460	0.542364
H337	H	0.672981	-0.371978	-0.154969
H338	H	1.006314	-0.038645	0.178364
H339	H	1.339647	0.294689	0.511697
Cl340	Cl	0.528575	-0.038985	0.000065
Cl341	Cl	0.861908	0.294348	0.333398
Cl342	Cl	1.195242	0.627682	0.666731
Cl343	Cl	0.668197	-0.766126	0.124372
Cl344	Cl	1.001531	-0.432793	0.457705
Cl345	Cl	1.334864	-0.099459	0.791038
H346	H	0.669642	-0.645223	0.099983
H347	H	1.002976	-0.311889	0.433316
H348	H	1.336309	0.021444	0.766650
H349	H	0.098505	0.219623	0.000044
H350	H	0.431838	0.552956	0.333377
H351	H	0.765171	0.886289	0.666711
Cl352	Cl	0.676392	-0.085599	0.124411
Cl353	Cl	1.009725	0.247735	0.457744
Cl354	Cl	1.343059	0.581068	0.791078
Cl355	Cl	0.674782	-0.219676	0.124408
Cl356	Cl	1.008115	0.113658	0.457741
Cl357	Cl	1.341448	0.446991	0.791075
Cl358	Cl	0.673061	-0.358827	0.179479
Cl359	Cl	1.006394	-0.025494	0.512812
Cl360	Cl	1.339728	0.307839	0.846146
Cl361	Cl	0.671526	-0.492870	-0.179376
Cl362	Cl	1.004859	-0.159537	0.153957
Cl363	Cl	1.338192	0.173796	0.487291
H364	H	0.743004	0.003495	0.734939
H365	H	1.076337	0.336829	1.068273
H366	H	1.409670	0.670162	1.401606
H367	H	0.742970	0.003534	0.149765
H368	H	1.076304	0.336868	0.483098
H369	H	1.409637	0.670201	0.816431
Cl370	Cl	-0.049882	0.188876	0.000047
Cl371	Cl	0.283451	0.522209	0.333380
Cl372	Cl	0.616785	0.855543	0.666714
H373	H	0.206249	0.220913	0.000032
H374	H	0.539583	0.554246	0.333366
H375	H	0.872916	0.887580	0.666699
Cl376	Cl	0.760258	-0.013747	0.864425
Cl377	Cl	1.093591	0.319587	1.197758
Cl378	Cl	1.426924	0.652920	1.531091
Cl379	Cl	0.394498	-0.040596	0.000076
Cl380	Cl	0.727832	0.292738	0.333409
Cl381	Cl	1.061165	0.626071	0.666743
H382	H	0.742973	0.003516	0.265148
H383	H	1.076306	0.336849	0.598481
H384	H	1.409640	0.670182	0.931814
Cl385	Cl	0.674810	-0.219644	-0.124276
Cl386	Cl	1.008144	0.113689	0.209057
Cl387	Cl	1.341477	0.447022	0.542390
H388	H	0.669681	-0.645209	-0.099905
H389	H	1.003015	-0.311875	0.233428
H390	H	1.336348	0.021458	0.566762
H391	H	0.671615	-0.479729	0.155079
H392	H	1.004948	-0.146395	0.488412
H393	H	1.338282	0.186938	0.821745
Cl394	Cl	0.799187	-0.052656	0.428264
Cl395	Cl	1.132520	0.280677	0.761597
Cl396	Cl	1.465853	0.614011	1.094931
H397	H	0.781939	-0.035424	0.557729
H398	H	1.115272	0.297910	0.891062
H399	H	1.448606	0.631243	1.224396
H400	H	0.601667	0.144742	0.850346
H401	H	0.935000	0.478075	1.183679
H402	H	1.268333	0.811409	1.517012
Cl403	Cl	-0.017904	-0.045534	0.000091
Cl404	Cl	0.315429	0.287799	0.333424
Cl405	Cl	0.648763	0.621133	0.666757
Cl406	Cl	-0.183954	0.187263	0.000055
Cl407	Cl	0.149379	0.520596	0.333388
Cl408	Cl	0.482713	0.853930	0.666721
Cl409	Cl	0.545412	0.200902	0.428287
Cl410	Cl	0.878746	0.534236	0.761620
Cl411	Cl	1.212079	0.867569	1.094953
H412	H	0.601650	0.144741	0.734963
H413	H	0.934983	0.478074	1.068296
H414	H	1.268317	0.811407	1.401630
Cl415	Cl	-0.151957	-0.047137	0.000078
Cl416	Cl	0.181377	0.286196	0.333412
Cl417	Cl	0.514710	0.619529	0.666745
H418	H	0.562675	0.183663	0.557752
H419	H	0.896009	0.516996	0.891086
H420	H	1.229342	0.850330	1.224419
Cl421	Cl	0.584375	0.162012	0.279266
Cl422	Cl	0.917709	0.495345	0.612600
Cl423	Cl	1.251042	0.828679	0.945933
H424	H	0.601624	0.144774	0.149781
H425	H	0.934957	0.478107	0.483114
H426	H	1.268290	0.811441	0.816447
H427	H	0.138388	-0.072635	0.000107
H428	H	0.471721	0.260698	0.333441
H429	H	0.805054	0.594031	0.666774
Cl430	Cl	0.362532	0.193815	0.000035
Cl431	Cl	0.695865	0.527148	0.333369
Cl432	Cl	1.029199	0.860481	0.666702
H433	H	0.676276	-0.098748	-0.099864
H434	H	1.009609	0.234585	0.233469
H435	H	1.342942	0.567919	0.566803
Cl436	Cl	0.262427	-0.094180	0.000114
Cl437	Cl	0.595761	0.239153	0.333447
Cl438	Cl	0.929094	0.572486	0.666781
