data_functionalizedCrystal
_audit_creation_method	'MofGen! by Chris Wilmer'
_symmetry_space_group_name_H-M	'P1'
_symmetry_Int_Tables_number	1
_symmetry_cell_setting	triclinic
loop_
_symmetry_equiv_pos_as_xyz
  x,y,z
_cell_length_a	17.699083
_cell_length_b	23.532407
_cell_length_c	16.176319
_cell_angle_alpha	89.988536
_cell_angle_beta	89.998611
_cell_angle_gamma	83.065847
loop_
_atom_site_label
_atom_site_type_symbol
_atom_site_fract_x
_atom_site_fract_y
_atom_site_fract_z
O1	O	1.003713	0.072020	-0.068639
O2	O	1.503713	0.572020	0.431361
O3	O	0.783287	0.081390	-0.068667
O4	O	1.283287	0.581390	0.431333
O5	O	0.900147	-0.006208	-0.068637
O6	O	1.400147	0.493792	0.431363
O7	O	0.886853	0.159618	-0.068669
O8	O	1.386853	0.659618	0.431331
O9	O	0.900131	-0.006213	0.068856
O10	O	1.400131	0.493787	0.568856
O11	O	0.783271	0.081384	0.068826
O12	O	1.283271	0.581384	0.568826
O13	O	1.003697	0.072014	0.068854
O14	O	1.503697	0.572014	0.568854
Cu15	Cu	0.893483	0.076699	0.081394
Cu16	Cu	1.393483	0.576699	0.581394
Cu17	Cu	0.893502	0.076705	-0.081207
Cu18	Cu	1.393502	0.576705	0.418793
O19	O	0.886837	0.159612	0.068824
O20	O	1.386837	0.659612	0.568824
C21	C	0.755084	0.081051	0.000076
C22	C	1.255084	0.581051	0.500076
C23	C	0.671071	0.080044	0.000066
C24	C	1.171071	0.580044	0.500066
C25	C	0.622189	0.131462	0.000056
C26	C	1.122189	0.631462	0.500056
C27	C	0.543251	0.130512	0.000067
C28	C	1.043251	0.630512	0.500067
C29	C	0.513196	0.078144	0.000082
C30	C	1.013196	0.578144	0.500082
C31	C	0.562084	0.026722	0.000094
C32	C	1.062084	0.526722	0.500094
C33	C	0.641021	0.027672	0.000089
C34	C	1.141021	0.527672	0.500089
C35	C	0.243740	0.022888	0.000115
C36	C	0.743740	0.522888	0.500115
C37	C	0.164797	0.021942	0.000117
C38	C	0.664797	0.521942	0.500117
C39	C	0.145970	0.125728	0.000093
C40	C	0.645970	0.625728	0.500093
C41	C	0.224907	0.126678	0.000088
C42	C	0.724907	0.626678	0.500088
C43	C	0.273788	0.075257	0.000105
C44	C	0.773788	0.575257	0.500105
C45	C	0.359382	0.076287	0.000094
C46	C	0.859382	0.576287	0.500094
C47	C	0.427603	0.077113	0.000086
C48	C	0.927603	0.577113	0.500086
C49	C	0.899801	-0.027427	0.000111
C50	C	1.399801	0.472573	0.500111
C51	C	0.898783	-0.090647	0.000118
C52	C	1.398783	0.409353	0.500118
C53	C	0.961554	-0.489570	0.000080
C54	C	1.461554	0.010430	0.500080
C55	C	0.960609	-0.548973	0.000074
C56	C	1.460609	-0.048973	0.500074
O57	O	1.018799	-0.585550	0.000051
O58	O	1.518799	-0.085550	0.500051
N59	N	0.891136	-0.571799	0.000066
N60	N	1.391136	-0.071799	0.500066
C61	C	0.822604	-0.535218	0.000055
C62	C	1.322604	-0.035218	0.500055
O63	O	0.763424	-0.560088	0.000047
O64	O	1.263424	-0.060088	0.500047
C65	C	0.823550	-0.475816	0.000056
C66	C	1.323550	0.024184	0.500056
C67	C	0.893028	-0.452994	0.000073
C68	C	1.393028	0.047006	0.500073
C69	C	1.031026	-0.466747	0.000096
C70	C	1.531026	0.033253	0.500096
C71	C	1.031972	-0.407348	0.000104
C72	C	1.531972	0.092652	0.500104
C73	C	0.963445	-0.370772	0.000096
C74	C	1.463445	0.129228	0.500096
C75	C	0.893973	-0.393595	0.000080
C76	C	1.393973	0.106405	0.500080
C77	C	0.755019	-0.439237	0.000040
C78	C	1.255019	0.060763	0.500040
C79	C	0.755971	-0.379832	0.000039
C80	C	1.255971	0.120168	0.500039
C81	C	0.825448	-0.357009	0.000056
C82	C	1.325448	0.142991	0.500056
C83	C	0.826391	-0.297620	0.000081
C84	C	1.326391	0.202380	0.500081
N85	N	0.895864	-0.274795	0.000089
N86	N	1.395864	0.225205	0.500089
C87	C	0.964391	-0.311371	0.000097
C88	C	1.464391	0.188629	0.500097
C89	C	0.820622	-0.659966	0.000053
C90	C	1.320622	-0.159966	0.500053
C91	C	0.819674	-0.719367	0.000058
C92	C	1.319674	-0.219367	0.500058
C93	C	0.957680	-0.733118	0.000075
C94	C	1.457680	-0.233118	0.500075
C95	C	0.958626	-0.673716	0.000076
C96	C	1.458626	-0.173716	0.500076
C97	C	0.890095	-0.637141	0.000061
C98	C	1.390095	-0.137141	0.500061
C99	C	0.966371	-0.186628	0.000114
C100	C	1.466371	0.313372	0.500114
C101	C	0.967310	-0.127223	0.000125
C102	C	1.467310	0.372777	0.500125
C103	C	0.829305	-0.113478	0.000104
C104	C	1.329305	0.386522	0.500104
C105	C	0.828365	-0.172877	0.000097
C106	C	1.328365	0.327123	0.500097
C107	C	0.896904	-0.209452	0.000099
C108	C	1.396904	0.290548	0.500099
O109	O	0.768232	-0.261008	0.000100
O110	O	1.268232	0.238992	0.500100
O111	O	1.023560	-0.286493	0.000094
O112	O	1.523560	0.213507	0.500094
C113	C	1.031901	0.072353	0.000109
C114	C	1.531901	0.572353	0.500109
C115	C	1.115914	0.073360	0.000114
C116	C	1.615914	0.573360	0.500114
C117	C	0.887184	0.180832	0.000073
C118	C	1.387184	0.680832	0.500073
C119	C	0.888202	0.244052	0.000062
C120	C	1.388202	0.744052	0.500062
N121	N	0.893475	0.076694	0.195759
N122	N	1.393475	0.576694	0.695759
N123	N	0.893516	0.076706	-0.195573
N124	N	1.393516	0.576706	0.304427
C125	C	0.945236	0.037921	0.239037
C126	C	1.445236	0.537921	0.739037
C127	C	0.945240	0.037921	0.325584
C128	C	1.445240	0.537921	0.825584
C129	C	0.893486	0.076696	0.368852
C130	C	1.393486	0.576696	0.868852
C131	C	0.841719	0.115470	0.325568
C132	C	1.341719	0.615470	0.825568
C133	C	0.841713	0.115467	0.239023
C134	C	1.341713	0.615467	0.739023
C135	C	0.841745	0.115481	0.674597
C136	C	1.341745	0.615481	1.174597
C137	C	0.841758	0.115481	0.761148
C138	C	1.341758	0.615481	1.261148
C139	C	0.945273	0.037934	0.761158
C140	C	1.445273	0.537934	1.261158
C141	C	0.945266	0.037932	0.674612
C142	C	1.445266	0.537932	1.174612
C143	C	0.893497	0.076704	0.631336
C144	C	1.393497	0.576704	1.131336
C145	C	0.893493	0.076703	0.537492
C146	C	1.393493	0.576703	1.037492
C147	C	0.893493	0.076700	0.462695
C148	C	1.393493	0.576700	0.962695
H149	H	0.503454	0.172382	0.000058
H150	H	1.003454	0.672382	0.500058
H151	H	0.283530	-0.018983	0.000129
H152	H	0.783530	0.481017	0.500129
H153	H	0.537607	-0.015917	0.000117
H154	H	1.037607	0.484083	0.500117
H155	H	0.680820	-0.014197	0.000096
H156	H	1.180820	0.485803	0.500096
O157	O	0.762671	-0.078023	0.000127
O158	O	1.262671	0.421977	0.500127
C159	C	0.701142	-0.110900	0.000086
C160	C	1.201142	0.389100	0.500086
H161	H	0.720681	-0.155263	0.026125
H162	H	1.220681	0.344737	0.526125
H163	H	0.653148	-0.088926	0.039987
H164	H	1.153148	0.411074	0.539987
H165	H	0.679843	-0.115094	-0.065883
H166	H	1.179843	0.384906	0.434117
H167	H	0.987383	0.006349	0.203814
H168	H	1.487383	0.506349	0.703814
H169	H	0.987387	0.006349	0.360820
H170	H	1.487387	0.506349	0.860820
H171	H	1.013478	-0.762909	0.000079
H172	H	1.513478	-0.262909	0.500079
H173	H	0.249373	0.169322	0.000072
H174	H	0.749373	0.669322	0.500072
O175	O	0.651255	0.182383	0.000077
O176	O	1.151255	0.682383	0.500077
C177	C	0.591179	0.227562	0.000052
C178	C	1.091179	0.727562	0.500052
H179	H	0.537673	0.211669	0.026089
H180	H	1.037673	0.711669	0.526089
H181	H	0.607402	0.264130	0.039961
H182	H	1.107402	0.764130	0.539961
H183	H	0.579886	0.243420	-0.065913
H184	H	1.079886	0.743420	0.434087
H185	H	1.023889	-0.108645	0.000141
H186	H	1.523889	0.391355	0.500141
O187	O	0.687460	-0.461302	-0.000017
O188	O	1.187460	0.038698	0.499983
C189	C	0.627190	-0.416271	-0.000009
C190	C	1.127190	0.083729	0.499991
H191	H	0.648111	-0.375943	-0.026029
H192	H	1.148111	0.124057	0.473971
H193	H	0.578662	-0.428609	-0.039942
H194	H	1.078662	0.071391	0.460058
H195	H	0.606061	-0.407847	0.065949
H196	H	1.106061	0.092153	0.565949
H197	H	1.015201	-0.655139	0.000089
H198	H	1.515201	-0.155139	0.500089
O199	O	1.033018	-0.222070	0.000156
O200	O	1.533018	0.277930	0.500156
C201	C	1.094531	-0.189177	0.000151
C202	C	1.594531	0.310823	0.500151
H203	H	1.074962	-0.144823	0.026181
H204	H	1.574962	0.355177	0.526181
H205	H	1.142514	-0.211150	0.040078
H206	H	1.642514	0.288850	0.540078
H207	H	1.115858	-0.184961	-0.065806
H208	H	1.615858	0.315039	0.434194
H209	H	0.106161	0.167598	0.000084
H210	H	0.606161	0.667598	0.500084
O211	O	0.135475	-0.028882	0.000100
O212	O	0.635475	0.471118	0.500100
C213	C	0.055321	-0.018691	0.000118
C214	C	0.555321	0.481309	0.500118
H215	H	0.036453	0.025777	-0.025927
H216	H	0.536453	0.525777	0.474073
H217	H	0.031331	-0.052194	-0.039788
H218	H	0.531331	0.447806	0.460212
H219	H	0.033365	-0.021418	0.066082
H220	H	0.533365	0.478582	0.566082
O221	O	0.995568	0.000210	0.632711
O222	O	1.495568	0.500210	1.132711
C223	C	1.041268	-0.034004	0.689468
C224	C	1.541268	0.465996	1.189468
H225	H	1.010250	-0.034616	0.751166
H226	H	1.510250	0.465384	1.251166
H227	H	1.053155	-0.079497	0.664477
H228	H	1.553155	0.420503	1.164477
H229	H	1.097351	-0.015565	0.698657
H230	H	1.597351	0.484435	1.198657
H231	H	0.987424	0.006362	0.796402
H232	H	1.487424	0.506362	1.296402
H233	H	0.799576	0.147040	0.360802
H234	H	1.299576	0.647040	0.860802
H235	H	0.799610	0.147058	0.796376
H236	H	1.299610	0.647058	1.296376
O237	O	1.099529	-0.385278	0.000077
O238	O	1.599529	0.114722	0.500077
C239	C	1.159801	-0.430308	0.000102
C240	C	1.659801	0.069692	0.500102
H241	H	1.138890	-0.470628	-0.025932
H242	H	1.638890	0.029372	0.474068
H243	H	1.208341	-0.417956	-0.039812
H244	H	1.708341	0.082044	0.460188
H245	H	1.180911	-0.438752	0.066066
H246	H	1.680911	0.061248	0.566066
O247	O	1.097580	-0.502295	-0.000041
O248	O	1.597580	-0.002295	0.499959
C249	C	1.101179	-0.537070	-0.071237
C250	C	1.601179	-0.037070	0.428763
H251	H	1.062310	-0.515268	-0.121018
H252	H	1.562310	-0.015268	0.378982
H253	H	1.162201	-0.543813	-0.095126
H254	H	1.662201	-0.043813	0.404874
H255	H	1.081936	-0.580249	-0.055140
H256	H	1.581936	-0.080249	0.444860
O257	O	0.752117	-0.741438	0.000015
O258	O	1.252117	-0.241438	0.500015
C259	C	0.691842	-0.696411	0.000032
C260	C	1.191842	-0.196411	0.500032
H261	H	0.712755	-0.656080	-0.025990
H262	H	1.212755	-0.156080	0.474010
H263	H	0.643311	-0.708752	-0.039895
H264	H	1.143311	-0.208752	0.460105
H265	H	0.670720	-0.687989	0.065992
H266	H	1.170720	-0.187989	0.565992
H267	H	0.764811	-0.630189	0.000048
H268	H	1.264811	-0.130189	0.500048
H269	H	0.700163	-0.350054	0.000026
H270	H	1.200163	0.149946	0.500026
H271	H	0.771791	-0.191460	0.000106
H272	H	1.271791	0.308540	0.500106
H273	H	0.799563	0.147039	0.203787
H274	H	1.299563	0.647039	0.703787
H275	H	0.799595	0.147051	0.639368
H276	H	1.299595	0.647051	1.139368
