data_functionalizedCrystal
_audit_creation_method	'MofGen! by Chris Wilmer'
_symmetry_space_group_name_H-M	'P1'
_symmetry_Int_Tables_number	1
_symmetry_cell_setting	triclinic
loop_
_symmetry_equiv_pos_as_xyz
  x,y,z
_cell_length_a	13.339070
_cell_length_b	10.540539
_cell_length_c	11.804365
_cell_angle_alpha	101.953828
_cell_angle_beta	74.875130
_cell_angle_gamma	100.077393
loop_
_atom_site_label
_atom_site_type_symbol
_atom_site_fract_x
_atom_site_fract_y
_atom_site_fract_z
O1	O	1.367200	0.619505	-0.099049
O2	O	1.072067	0.535766	-0.099045
O3	O	1.226367	0.395225	-0.099046
O4	O	1.212901	0.760047	-0.099049
O5	O	1.185745	0.432172	0.099010
O6	O	1.031446	0.572714	0.099011
O7	O	1.326579	0.656453	0.099007
Cu8	Cu	1.175303	0.617957	0.117093
Cu9	Cu	1.223343	0.574262	-0.117131
O10	O	1.172279	0.796994	0.099007
C11	C	1.013965	0.540095	-0.000017
C12	C	0.901358	0.497931	-0.000015
C13	C	1.205047	0.366051	-0.000020
C14	C	1.202026	0.224072	-0.000026
C15	C	0.538938	0.825770	-0.000037
C16	C	0.644738	0.865388	-0.000042
C17	C	0.708898	0.773527	-0.000035
C18	C	0.667248	0.642042	-0.000023
C19	C	0.561440	0.602418	-0.000028
C20	C	0.731400	0.550175	-0.000026
C21	C	0.689750	0.418690	-0.000014
C22	C	0.583951	0.379073	-0.000018
C23	C	0.519791	0.470934	-0.000025
C24	C	0.837208	0.589799	-0.000021
C25	C	0.859710	0.366447	-0.000012
C26	C	0.753910	0.326829	-0.000007
C27	C	1.086340	0.001099	-0.000469
C28	C	1.089311	0.148845	-0.000023
C29	C	1.233073	0.202001	0.113073
C30	C	1.229207	0.054163	0.113168
C31	C	1.277693	0.012410	-0.112059
C32	C	1.279038	0.159467	-0.113554
C33	C	1.384682	0.652124	-0.000024
C34	C	1.497290	0.694286	-0.000034
C35	C	1.193600	0.826168	-0.000021
C36	C	1.196622	0.968145	-0.000023
N37	N	1.141522	0.648691	0.281834
N38	N	1.257132	0.543521	-0.281872
C39	C	1.338253	0.469692	0.655781
C40	C	1.363807	0.446436	0.531120
C41	C	1.308237	0.496997	0.468792
C42	C	1.227110	0.570820	0.531138
C43	C	1.201559	0.594087	0.655812
C44	C	1.171544	0.621392	0.468823
C45	C	1.090417	0.695214	0.531169
C46	C	1.064869	0.718477	0.655831
C47	C	1.120438	0.667916	0.718159
C48	C	1.197095	0.598125	0.344149
C49	C	1.060402	0.722520	0.344180
C50	C	1.034847	0.745776	0.468842
H51	H	0.795045	0.805792	-0.000042
H52	H	1.314985	0.253353	0.117277
O53	O	0.405672	0.428200	-0.000009
H54	H	0.389468	0.450894	-0.080734
O55	O	1.335176	0.028477	0.119992
H56	H	1.388952	0.121608	0.123219
O57	O	0.689658	1.007198	-0.000027
H58	H	0.627268	1.064422	-0.000014
O59	O	0.539022	0.237260	-0.000002
H60	H	0.601404	0.180040	0.000019
H61	H	0.486693	0.900547	-0.000052
H62	H	0.998818	0.778600	0.706594
H63	H	0.719985	0.219769	-0.000008
O64	O	1.398180	0.415173	0.723011
H65	H	1.482260	0.454838	0.699072
O66	O	0.928894	0.267354	0.000006
H67	H	1.009458	0.316998	0.000024
O68	O	0.947356	0.825413	0.536089
H69	H	0.938936	0.833102	0.633246
O70	O	1.054779	0.165990	-0.107396
H71	H	1.035798	0.068585	-0.160107
H72	H	1.058450	-0.057807	-0.081574
H73	H	1.263149	0.538019	0.293398
H74	H	1.025454	-0.029177	0.080183
H75	H	1.015154	0.763695	0.293434
H76	H	0.871108	0.696856	-0.000026
H77	H	1.429860	0.386332	0.480362
O78	O	1.092880	0.693016	0.852621
H79	H	1.145154	0.645458	0.885480
H80	H	1.029674	0.191100	0.081187
H81	H	1.171778	0.028072	0.197713
H82	H	1.178130	0.247459	0.197238
H83	H	1.258795	-0.047568	-0.197781
O84	O	1.249282	0.175121	-0.224395
H85	H	1.179938	0.228695	-0.198749
O86	O	1.389754	0.226948	-0.122612
H87	H	1.391630	0.307943	-0.045992
O88	O	1.385743	-0.013584	-0.113088
H89	H	1.381784	-0.057815	-0.034238
O90	O	1.335780	0.471897	0.334335
H91	H	1.401518	0.412056	0.301452
