data_functionalizedCrystal
_audit_creation_method	'MofGen! by Chris Wilmer'
_symmetry_space_group_name_H-M	'P1'
_symmetry_Int_Tables_number	1
_symmetry_cell_setting	triclinic
loop_
_symmetry_equiv_pos_as_xyz
  x,y,z
_cell_length_a	12.811438
_cell_length_b	12.837942
_cell_length_c	9.482900
_cell_angle_alpha	100.328050
_cell_angle_beta	75.327127
_cell_angle_gamma	89.411773
loop_
_atom_site_label
_atom_site_type_symbol
_atom_site_fract_x
_atom_site_fract_y
_atom_site_fract_z
O1	O	1.444615	0.098053	-0.311340
O2	O	1.135581	0.118689	-0.270603
O3	O	1.283244	-0.042439	-0.290059
O4	O	1.296951	0.259181	-0.291884
O5	O	1.253264	-0.009581	-0.044316
O6	O	1.105601	0.151547	-0.024860
O7	O	1.414634	0.130911	-0.065598
Cu8	Cu	1.257380	0.144229	-0.022791
Cu9	Cu	1.292835	0.105370	-0.313410
O10	O	1.266971	0.292039	-0.046141
C11	C	1.080761	0.134969	-0.142481
C12	C	0.962080	0.134512	-0.126836
C13	C	0.778464	0.151778	0.029161
C14	C	0.889974	0.152209	0.014468
C15	C	0.922669	0.116386	-0.253456
C16	C	0.811159	0.115955	-0.238763
C17	C	0.739059	0.133650	-0.097450
C18	C	0.627547	0.133212	-0.082758
C19	C	0.660244	0.097397	-0.350680
C20	C	0.771754	0.097827	-0.365373
C21	C	1.263624	-0.064569	-0.166578
C22	C	1.249817	-0.179461	-0.164761
C23	C	1.415819	-0.422645	-0.186674
C24	C	1.402850	-0.530598	-0.184967
C25	C	1.210913	-0.503323	-0.159650
C26	C	1.223881	-0.395370	-0.161357
C27	C	1.326337	-0.355036	-0.174867
C28	C	1.339304	-0.247079	-0.176564
C29	C	1.147369	-0.219808	-0.151258
C30	C	1.134400	-0.327760	-0.149550
C31	C	1.469454	0.114631	-0.193723
C32	C	1.588136	0.115086	-0.209377
C33	C	1.286591	0.314168	-0.169625
C34	C	1.300400	0.429059	-0.171453
N35	N	1.232450	0.171559	0.181614
N36	N	1.317773	0.078032	-0.517816
C37	C	1.285474	0.113426	0.246827
C38	C	1.264741	0.136174	0.416976
H39	H	0.568845	0.147628	0.032306
Cl40	Cl	0.687822	0.174000	0.206805
Cl41	Cl	1.411816	-0.024600	0.373889
Cl42	Cl	1.170942	0.239017	0.525244
H43	H	0.830472	0.083424	-0.480426
H44	H	0.922051	0.166974	0.117567
H45	H	1.171700	0.238166	0.251749
H46	H	0.981390	0.101988	-0.368506
H47	H	0.628150	0.082639	-0.453776
Cl48	Cl	1.544612	-0.371930	-0.203621
H49	H	1.346216	0.046812	0.176696
H50	H	1.475716	-0.585644	-0.194586
Cl51	Cl	1.082127	-0.554054	-0.142711
Cl52	Cl	1.468103	-0.196373	-0.193538
Cl53	Cl	1.034869	-0.134803	-0.136395
Cl54	Cl	1.005607	-0.378479	-0.132580
