data_functionalizedCrystal
_audit_creation_method	'MofGen! by Chris Wilmer'
_symmetry_space_group_name_H-M	'P1'
_symmetry_Int_Tables_number	1
_symmetry_cell_setting	triclinic
loop_
_symmetry_equiv_pos_as_xyz
  x,y,z
_cell_length_a	11.169416
_cell_length_b	11.169417
_cell_length_c	11.169409
_cell_angle_alpha	89.978351
_cell_angle_beta	90.030874
_cell_angle_gamma	89.991438
loop_
_atom_site_label
_atom_site_type_symbol
_atom_site_fract_x
_atom_site_fract_y
_atom_site_fract_z
Zn1	Zn	-0.477767	-1.834962	0.678613
Zn2	Zn	0.022233	-1.334962	1.178613
Zn3	Zn	-0.678507	-1.834852	0.477935
Zn4	Zn	-0.178507	-1.334852	0.977935
Zn5	Zn	-0.477831	-1.634248	0.477941
Zn6	Zn	0.022169	-1.134248	0.977941
Zn7	Zn	-0.678400	-1.634256	0.678574
Zn8	Zn	-0.178400	-1.134256	1.178574
O9	O	-0.578126	-1.734579	0.578266
O10	O	-0.078126	-1.234579	1.078266
O11	O	-0.504414	-2.002897	0.652007
O12	O	-0.004414	-1.502897	1.152007
O13	O	-0.651959	-1.808192	0.309986
O14	O	-0.151959	-1.308192	0.809986
O15	O	-0.309873	-1.660917	0.504580
O16	O	0.190127	-1.160917	1.004580
O17	O	-0.651897	-2.002816	0.504570
O18	O	-0.151897	-1.502816	1.004570
O19	O	-0.309826	-1.808380	0.652013
O20	O	0.190174	-1.308380	1.152013
O21	O	-0.504522	-1.660809	0.309991
O22	O	-0.004522	-1.160809	0.809991
O23	O	-0.504419	-1.466300	0.504542
O24	O	-0.004419	-0.966300	1.004542
O25	O	-0.651714	-1.660929	0.846529
O26	O	-0.151714	-1.160929	1.346529
O27	O	-0.651776	-1.466305	0.651945
O28	O	-0.151776	-0.966305	1.151945
O29	O	-0.504310	-1.808388	0.846558
O30	O	-0.004310	-1.308388	1.346558
O31	O	-0.846443	-1.808199	0.504531
O32	O	-0.346443	-1.308199	1.004531
O33	O	-0.846364	-1.660822	0.651940
O34	O	-0.346364	-1.160822	1.151940
C35	C	-0.578094	-1.422755	0.578241
C36	C	-0.078094	-0.922755	1.078241
C37	C	-0.578109	-1.289355	0.578258
C38	C	-0.078109	-0.789355	1.078258
C39	C	-0.889951	-1.734532	0.578257
C40	C	-0.389951	-1.234532	1.078257
C41	C	-1.023351	-1.734621	0.578293
C42	C	-0.523351	-1.234621	1.078293
C43	C	-0.265084	-1.734660	0.578301
C44	C	0.234916	-1.234660	1.078301
C45	C	-0.131684	-1.734694	0.578316
C46	C	0.368316	-1.234694	1.078316
C47	C	-0.577993	-1.734672	0.891309
C48	C	-0.077993	-1.234672	1.391309
C49	C	-0.577936	-1.734711	1.024709
C50	C	-0.077936	-1.234711	1.524709
C51	C	-0.578148	-1.047622	0.578284
C52	C	-0.078148	-0.547622	1.078284
C53	C	-0.578128	-1.181022	0.578271
C54	C	-0.078128	-0.681022	1.078271
C55	C	-0.578172	-1.734557	0.266441
C56	C	-0.078172	-1.234557	0.766441
C57	C	-0.577891	-1.734750	0.133042
C58	C	-0.077891	-1.234750	0.633042
