data_functionalizedCrystal
_audit_creation_method	'MofGen! by Chris Wilmer'
_symmetry_space_group_name_H-M	'P1'
_symmetry_Int_Tables_number	1
_symmetry_cell_setting	triclinic
loop_
_symmetry_equiv_pos_as_xyz
  x,y,z
_cell_length_a	12.759401
_cell_length_b	18.101395
_cell_length_c	12.759393
_cell_angle_alpha	89.968250
_cell_angle_beta	89.980732
_cell_angle_gamma	90.032629
loop_
_atom_site_label
_atom_site_type_symbol
_atom_site_fract_x
_atom_site_fract_y
_atom_site_fract_z
Zn1	Zn	1.606129	-0.294768	-0.594006
Zn2	Zn	2.106129	0.205232	-0.094006
Zn3	Zn	1.605975	-0.418626	-0.418321
Zn4	Zn	2.105975	0.081374	0.081679
Zn5	Zn	1.430433	-0.294806	-0.418342
Zn6	Zn	1.930433	0.205194	0.081658
Zn7	Zn	1.430370	-0.418576	-0.593958
Zn8	Zn	1.930370	0.081424	-0.093958
O9	O	1.518227	-0.356694	-0.506157
O10	O	2.018227	0.143306	-0.006157
O11	O	1.753130	-0.311203	-0.570713
O12	O	2.253130	0.188797	-0.070713
O13	O	1.582651	-0.402238	-0.271302
O14	O	2.082651	0.097762	0.228698
O15	O	1.453831	-0.191168	-0.441673
O16	O	1.953831	0.308832	0.058327
O17	O	1.753017	-0.402201	-0.441637
O18	O	2.253017	0.097799	0.058363
O19	O	1.582914	-0.191140	-0.570733
O20	O	2.082914	0.308860	-0.070733
O21	O	1.453681	-0.311268	-0.271318
O22	O	1.953681	0.188732	0.228682
O23	O	1.283404	-0.311219	-0.441626
O24	O	1.783404	0.188781	0.058374
O25	O	1.453722	-0.402115	-0.740986
O26	O	1.953722	0.097885	-0.240986
O27	O	1.283357	-0.402152	-0.570651
O28	O	1.783357	0.097848	-0.070651
O29	O	1.582852	-0.311155	-0.741021
O30	O	2.082852	0.188845	-0.241021
O31	O	1.582590	-0.522252	-0.441590
O32	O	2.082590	-0.022252	0.058410
O33	O	1.453573	-0.522215	-0.570630
O34	O	1.953573	-0.022215	-0.070630
C35	C	1.245259	-0.356685	-0.506136
C36	C	1.745259	0.143315	-0.006136
C37	C	1.128483	-0.356699	-0.506152
C38	C	1.628483	0.143301	-0.006152
C39	C	1.073624	-0.404120	-0.573229
C40	C	1.573624	0.095880	-0.073229
C41	C	0.963900	-0.404123	-0.573250
C42	C	1.463900	0.095877	-0.073250
C43	C	0.963903	-0.309282	-0.439107
C44	C	1.463903	0.190718	0.060893
C45	C	1.073625	-0.309276	-0.439092
C46	C	1.573625	0.190724	0.060908
C47	C	0.813990	-0.430697	-0.697109
C48	C	1.313990	0.069303	-0.197109
C49	C	0.759127	-0.478129	-0.764177
C50	C	1.259127	0.021871	-0.264177
C51	C	0.794695	-0.550402	-0.780122
C52	C	1.294695	-0.050402	-0.280122
C53	C	0.885124	-0.575257	-0.728983
C54	C	1.385124	-0.075257	-0.228983
C55	C	0.939981	-0.527828	-0.661907
C56	C	1.439981	-0.027828	-0.161907
C57	C	0.904414	-0.455545	-0.645982
C58	C	1.404414	0.044455	-0.145982
C59	C	1.223538	-0.282709	-0.315232
C60	C	1.723538	0.217291	0.184768
C61	C	1.278396	-0.235284	-0.248150
C62	C	1.778396	0.264716	0.251850
C63	C	1.242831	-0.163010	-0.232194
C64	C	1.742831	0.336990	0.267806
C65	C	1.152399	-0.138158	-0.283315
C66	C	1.652399	0.361842	0.216685
C67	C	1.097540	-0.185583	-0.350397
C68	C	1.597540	0.314417	0.149603
C69	C	1.133113	-0.257856	-0.366354
C70	C	1.633113	0.242144	0.133646
C71	C	1.518086	-0.549105	-0.506126
C72	C	2.018086	-0.049105	-0.006126
C73	C	1.518122	-0.631419	-0.506148
C74	C	2.018122	-0.131419	-0.006148
C75	C	1.518353	-0.930510	-0.506204
C76	C	2.018353	-0.430510	-0.006204
C77	C	1.437367	-0.899192	-0.587594
C78	C	1.937367	-0.399192	-0.087594
C79	C	1.436982	-0.813574	-0.587340
C80	C	1.936982	-0.313574	-0.087340
C81	C	1.518238	-0.782127	-0.506177
C82	C	2.018238	-0.282127	-0.006177
C83	C	1.488259	-0.813285	-0.395451
C84	C	1.988259	-0.313285	0.104549
C85	C	1.487737	-0.898930	-0.395938
C86	C	1.987737	-0.398930	0.104062
C87	C	1.629495	-0.898850	-0.534565
C88	C	2.129495	-0.398850	-0.034565
C89	C	1.628841	-0.813198	-0.536994
C90	C	2.128841	-0.313198	-0.036994
C91	C	1.518176	-0.698268	-0.506155
C92	C	2.018176	-0.198268	-0.006155
C93	C	1.518413	-1.014369	-0.506219
C94	C	2.018413	-0.514369	-0.006219
C95	C	1.792260	-0.356704	-0.506178
C96	C	2.292260	0.143296	-0.006178
C97	C	1.909037	-0.356708	-0.506187
C98	C	2.409037	0.143292	-0.006187
C99	C	1.518297	-0.356625	-0.780190
C100	C	2.018297	0.143375	-0.280190
C101	C	1.518328	-0.356596	-0.896967
C102	C	2.018328	0.143404	-0.396967
C103	C	1.518397	-0.163532	-0.506211
C104	C	2.018397	0.336468	-0.006211
C105	C	1.518469	-0.081218	-0.506234
C106	C	2.018469	0.418782	-0.006234
C107	C	1.451145	-0.403905	-1.061543
C108	C	1.951145	0.096095	-0.561543
C109	C	1.451110	-0.403936	-0.951819
C110	C	1.951110	0.096064	-0.451819
C111	C	1.585576	-0.309216	-0.951844
C112	C	2.085576	0.190784	-0.451844
C113	C	1.585604	-0.309182	-1.061567
C114	C	2.085604	0.190818	-0.561567
C115	C	1.327142	-0.430437	-0.801855
C116	C	1.827142	0.069563	-0.301855
C117	C	1.259906	-0.477823	-0.746981
C118	C	1.759906	0.022177	-0.246981
C119	C	1.243720	-0.550072	-0.782580
C120	C	1.743720	-0.050072	-0.282580
C121	C	1.294785	-0.574950	-0.873050
C122	C	1.794785	-0.074950	-0.373050
C123	C	1.362030	-0.527568	-0.927918
C124	C	1.862030	-0.027568	-0.427918
C125	C	1.378196	-0.455308	-0.892321
C126	C	1.878196	0.044692	-0.392321
C127	C	1.709574	-0.282688	-1.211533
C128	C	2.209574	0.217312	-0.711533
C129	C	1.776824	-0.235309	-1.266403
C130	C	2.276824	0.264691	-0.766403
C131	C	1.793021	-0.163059	-1.230807
C132	C	2.293021	0.336941	-0.730807
C133	C	1.741974	-0.138184	-1.140333
C134	C	2.241974	0.361816	-0.640333
C135	C	1.674724	-0.185563	-1.085463
C136	C	2.174724	0.314437	-0.585463
C137	C	1.658525	-0.257812	-1.121067
C138	C	2.158525	0.242188	-0.621067
C139	C	1.518217	-0.356709	-0.233189
C140	C	2.018217	0.143291	0.266811
C141	C	1.518390	-0.356530	-0.116413
C142	C	2.018390	0.143470	0.383587
H143	H	0.750019	-0.589021	-0.834732
H144	H	1.250019	-0.089021	-0.334732
H145	H	1.354601	-0.793153	-0.568554
H146	H	1.854601	-0.293153	-0.068554
H147	H	1.544164	-0.919650	-0.333229
H148	H	2.044164	-0.419650	0.166771
Cl149	Cl	1.392074	-0.266533	-0.183867
Cl150	Cl	1.892074	0.233467	0.316133
H151	H	1.689832	-0.919102	-0.475286
H152	H	2.189832	-0.419102	0.024714
H153	H	1.287502	-0.124400	-0.177561
H154	H	1.787502	0.375600	0.322439
Cl155	Cl	1.274449	-0.665787	-0.917786
Cl156	Cl	1.774449	-0.165787	-0.417786
H157	H	1.355487	-0.920781	-0.569045
H158	H	1.855487	-0.420781	-0.069045
H159	H	1.396413	-0.442458	-1.106196
H160	H	1.896413	0.057542	-0.606196
H161	H	1.403608	-0.547823	-1.001576
H162	H	1.903608	-0.047823	-0.501576
H163	H	1.118286	-0.442733	-0.627836
H164	H	1.618286	0.057267	-0.127836
H165	H	1.013605	-0.548065	-0.620270
H166	H	1.513605	-0.048065	-0.120270
Cl167	Cl	1.877577	-0.103500	-1.299781
Cl168	Cl	2.377577	0.396500	-0.799781
H169	H	1.651449	-0.792831	-0.618482
H170	H	2.151449	-0.292831	-0.118482
H171	H	1.218328	-0.457561	-0.673320
H172	H	1.718328	0.042439	-0.173320
H173	H	0.685500	-0.457885	-0.805816
H174	H	1.185500	0.042115	-0.305816
H175	H	1.252511	-0.341559	-0.328226
H176	H	1.752511	0.158441	0.171774
H177	H	1.123428	-0.079311	-0.270307
H178	H	1.623428	0.420689	0.229693
Cl179	Cl	1.576460	-0.781841	-0.299267
Cl180	Cl	2.076460	-0.281841	0.200733
Cl181	Cl	1.689204	-0.373518	-1.256298
Cl182	Cl	2.189204	0.126482	-0.756298
H183	H	1.407875	-0.791903	-0.370996
H184	H	1.907875	-0.291903	0.129004
H185	H	1.023910	-0.165340	-0.392029
H186	H	1.523910	0.334660	0.107971
Cl187	Cl	1.347462	-0.339599	-0.757112
Cl188	Cl	1.847462	0.160401	-0.257112
H189	H	0.785029	-0.371844	-0.684144
H190	H	1.285029	0.128156	-0.184144
H191	H	1.455739	-0.792505	-0.669442
H192	H	1.955739	-0.292505	-0.169442
Cl193	Cl	1.466031	-0.930911	-0.714768
Cl194	Cl	1.966031	-0.430911	-0.214768
H195	H	1.692372	-0.791788	-0.482034
H196	H	2.192372	-0.291788	0.017966
Cl197	Cl	1.159194	-0.609641	-0.713593
Cl198	Cl	1.659194	-0.109641	-0.213593
Cl199	Cl	1.762340	-0.047354	-1.095574
Cl200	Cl	2.262340	0.452646	-0.595574
Cl201	Cl	1.670053	-0.249684	-0.882887
Cl202	Cl	2.170053	0.250316	-0.382887
Cl203	Cl	1.362302	-0.929883	-0.358848
Cl204	Cl	1.862302	-0.429883	0.141152
Cl205	Cl	1.671693	-0.932108	-0.657100
Cl206	Cl	2.171693	-0.432108	-0.157100
H207	H	0.919225	-0.270673	-0.384508
H208	H	1.419225	0.229327	0.115492
Cl209	Cl	1.610550	-0.154291	-0.971722
Cl210	Cl	2.110550	0.345709	-0.471722
Cl211	Cl	1.841007	-0.266584	-1.380137
Cl212	Cl	2.341007	0.233416	-0.880137
H213	H	0.914069	-0.634111	-0.741962
H214	H	1.414069	-0.134111	-0.241962
