data_functionalizedCrystal
_audit_creation_method	'MofGen! by Chris Wilmer'
_symmetry_space_group_name_H-M	'P1'
_symmetry_Int_Tables_number	1
_symmetry_cell_setting	triclinic
loop_
_symmetry_equiv_pos_as_xyz
  x,y,z
_cell_length_a	17.019282
_cell_length_b	23.532407
_cell_length_c	22.610064
_cell_angle_alpha	90.000603
_cell_angle_beta	86.126997
_cell_angle_gamma	83.119776
loop_
_atom_site_label
_atom_site_type_symbol
_atom_site_fract_x
_atom_site_fract_y
_atom_site_fract_z
O1	O	1.046112	0.072516	-0.004110
O2	O	0.816375	0.081775	0.007597
O3	O	0.938172	-0.005764	0.001380
O4	O	0.924316	0.160055	0.002108
O5	O	0.938150	-0.005751	-0.096988
O6	O	0.816354	0.081788	-0.090771
O7	O	1.046091	0.072529	-0.102478
Zn8	Zn	0.931219	0.077160	-0.112242
Zn9	Zn	0.931247	0.077143	0.017362
O10	O	0.924295	0.160067	-0.096261
C11	C	0.786978	0.081431	-0.040089
C12	C	0.699417	0.080382	-0.035628
C13	C	0.658273	0.079894	-0.087153
C14	C	0.576002	0.078899	-0.082963
C15	C	0.534874	0.078396	-0.027246
C16	C	0.576024	0.078881	0.024283
C17	C	0.658295	0.079873	0.020092
C18	C	0.286470	0.075399	-0.011909
C19	C	0.204193	0.074409	-0.007722
C20	C	0.204176	0.074426	-0.114969
C21	C	0.286448	0.075421	-0.119155
C22	C	0.327591	0.075903	-0.067626
C23	C	0.450779	0.077380	-0.022962
C24	C	0.411686	0.076915	-0.071911
C25	C	0.937808	-0.026975	-0.047788
C26	C	0.936747	-0.090195	-0.047738
C27	C	1.002170	-0.489086	-0.051040
C28	C	1.001185	-0.548490	-0.050985
O29	O	1.061832	-0.585038	-0.054054
N30	N	0.928777	-0.571350	-0.047296
C31	C	0.857350	-0.534804	-0.043655
O32	O	0.795671	-0.559704	-0.040511
C33	C	0.858336	-0.475402	-0.043705
C34	C	0.930749	-0.452545	-0.047401
C35	C	1.074576	-0.466228	-0.054735
C36	C	1.075562	-0.406829	-0.054790
C37	C	1.004140	-0.370287	-0.051151
C38	C	0.931734	-0.393145	-0.047457
C39	C	0.786910	-0.438857	-0.040060
C40	C	0.787903	-0.379451	-0.040110
C41	C	0.860315	-0.356594	-0.043806
C42	C	0.861297	-0.297204	-0.043874
N43	N	0.933705	-0.274344	-0.047563
C44	C	1.005126	-0.310885	-0.051202
C45	C	0.855284	-0.659553	-0.043548
C46	C	0.854297	-0.718954	-0.043501
C47	C	0.998132	-0.732636	-0.050831
C48	C	0.999118	-0.673234	-0.050881
C49	C	0.927692	-0.636693	-0.047237
C50	C	1.007190	-0.186142	-0.051319
C51	C	1.008169	-0.126737	-0.051377
C52	C	0.864334	-0.113060	-0.044045
C53	C	0.863355	-0.172460	-0.043990
C54	C	0.934789	-0.209000	-0.047626
O55	O	0.800682	-0.260622	-0.040804
O56	O	1.066795	-0.285978	-0.054337
C57	C	1.075488	0.072872	-0.054790
C58	C	1.163049	0.073922	-0.059248
C59	C	0.924658	0.181278	-0.047092
C60	C	0.925719	0.244499	-0.047137
N61	N	0.931205	0.077171	-0.200694
C62	C	0.985181	0.038387	-0.612091
C63	C	0.985185	0.038383	-0.674011
O64	O	1.031043	0.005416	-0.708371
N65	N	0.931247	0.077132	-0.702234
C66	C	0.877295	0.115883	-0.668532
O67	O	0.831417	0.148841	-0.698223
C68	C	0.877288	0.115884	-0.606613
C69	C	0.931235	0.077137	-0.578394
C70	C	1.039123	-0.000357	-0.583872
C71	C	1.039120	-0.000352	-0.521956
C72	C	0.985174	0.038397	-0.488259
C73	C	0.931232	0.077142	-0.516478
C74	C	0.823334	0.154632	-0.572913
C75	C	0.823331	0.154629	-0.510989
C76	C	0.877278	0.115882	-0.482771
C77	C	0.877283	0.115896	-0.420866
N78	N	0.931222	0.077148	-0.392643
C79	C	0.985167	0.038398	-0.426340
C80	C	0.877314	0.115877	-0.798567
C81	C	0.877324	0.115880	-0.860485
C82	C	0.985213	0.038379	-0.865960
C83	C	0.985206	0.038380	-0.804040
C84	C	0.931252	0.077129	-0.770344
C85	C	0.985157	0.038412	-0.296312
C86	C	0.985151	0.038422	-0.234391
C87	C	0.877260	0.115920	-0.228922
C88	C	0.877268	0.115913	-0.290838
C89	C	0.931219	0.077154	-0.324532
O90	O	0.831446	0.148845	-0.386468
O91	O	1.031031	0.005441	-0.396641
N92	N	0.931267	0.077128	0.105813
H93	H	0.542532	0.078467	0.069649
H94	H	0.804391	-0.191071	-0.040997
C95	C	1.155222	-0.381695	-0.058850
N96	N	1.215226	-0.362767	-0.061905
H97	H	1.029088	0.006850	-0.323739
H98	H	0.417284	0.076970	0.022403
C99	C	1.076697	-0.772843	-0.054828
N100	N	1.135869	-0.803129	-0.057837
C101	C	0.763984	0.197263	-0.473928
N102	N	0.719289	0.229378	-0.446014
H103	H	0.691793	0.080271	0.062050
C104	C	0.709326	-0.339259	-0.036104
N105	N	0.650141	-0.308987	-0.033088
H106	H	0.806185	-0.083298	-0.041084
H107	H	1.067138	-0.108130	-0.054388
C108	C	0.817928	0.158540	-0.321879
N109	N	0.773227	0.190643	-0.345256
H110	H	1.083052	-0.031914	-0.611303
H111	H	0.727944	-0.457456	-0.037047
C112	C	1.044496	-0.004207	-0.203354
N113	N	1.089193	-0.036315	-0.179979
C114	C	1.098458	-0.042984	-0.490924
N115	N	1.143151	-0.075099	-0.467554
C116	C	1.085771	-0.226327	-0.055324
N117	N	1.144959	-0.256595	-0.058345
H118	H	0.795332	-0.737559	-0.040502
H119	H	1.029133	0.006828	-0.781069
H120	H	1.029137	0.006826	-0.893407
C121	C	0.817983	0.158508	-0.891518
N122	N	0.773282	0.190615	-0.914891
H123	H	0.833380	0.147436	-0.771134
C124	C	1.153153	-0.506416	-0.058744
N125	N	1.212342	-0.536682	-0.061771
H126	H	0.170669	0.074032	-0.156921
C127	C	0.763981	0.197253	-0.603939
N128	N	0.719269	0.229357	-0.627306
C129	C	1.078777	-0.648097	-0.054942
N130	N	1.138779	-0.629167	-0.057998
C131	C	0.776704	-0.619363	-0.039546
N132	N	0.717517	-0.589094	-0.036532
C133	C	0.817920	0.158541	-0.191843
N134	N	0.773220	0.190640	-0.163914
H135	H	0.691752	0.080309	-0.132524
H136	H	0.170709	0.074001	0.037651
C137	C	0.331683	0.075972	-0.180448
N138	N	0.365754	0.076387	-0.226615
C139	C	0.530745	0.078376	-0.139646
N140	N	0.496657	0.077986	-0.182342
H141	H	0.319959	0.075790	0.030050
H142	H	0.445176	0.077322	-0.117275
