data_functionalizedCrystal
_audit_creation_method	'MofGen! by Chris Wilmer'
_symmetry_space_group_name_H-M	'P1'
_symmetry_Int_Tables_number	1
_symmetry_cell_setting	triclinic
loop_
_symmetry_equiv_pos_as_xyz
  x,y,z
_cell_length_a	6.394989
_cell_length_b	8.559649
_cell_length_c	7.681481
_cell_angle_alpha	85.086760
_cell_angle_beta	95.906187
_cell_angle_gamma	78.138188
loop_
_atom_site_label
_atom_site_type_symbol
_atom_site_fract_x
_atom_site_fract_y
_atom_site_fract_z
O1	O	0.048509	-2.104046	-0.146402
O2	O	0.548509	-1.604046	0.353598
O3	O	-0.059017	-1.641007	-0.146408
O4	O	0.440983	-1.141007	0.353592
O5	O	0.299864	-1.879099	-0.146406
O6	O	0.799864	-1.379099	0.353594
O7	O	-0.310373	-1.865954	-0.146404
O8	O	0.189627	-1.365954	0.353596
O9	O	0.344125	-1.908402	0.146452
O10	O	0.844125	-1.408402	0.646452
O11	O	-0.014756	-1.670310	0.146450
O12	O	0.485244	-1.170310	0.646450
O13	O	0.092770	-2.133349	0.146456
O14	O	0.592770	-1.633349	0.646456
Zn15	Zn	0.046035	-1.906482	0.192951
Zn16	Zn	0.546035	-1.406482	0.692951
Zn17	Zn	-0.012282	-1.867874	-0.192902
Zn18	Zn	0.487718	-1.367874	0.307098
O19	O	-0.266111	-1.895257	0.146454
O20	O	0.233889	-1.395257	0.646454
C21	C	-0.045035	-1.596293	0.000021
C22	C	0.454965	-1.096293	0.500021
C23	C	-0.069291	-1.419401	0.000018
C24	C	0.430709	-0.919401	0.500018
C25	C	0.078787	-2.178063	0.000024
C26	C	0.578787	-1.678063	0.500024
C27	C	0.103041	-2.354954	0.000015
C28	C	0.603041	-1.854954	0.500015
N29	N	0.085837	-1.932843	0.456285
N30	N	0.585837	-1.432843	0.956285
C31	C	0.399398	-1.891151	0.000016
C32	C	0.899398	-1.391151	0.500016
C33	C	0.634359	-1.883208	0.000015
C34	C	1.134359	-1.383208	0.500015
N35	N	-0.052066	-1.841525	-0.456237
N36	N	0.447934	-1.341525	0.043763
H37	H	0.269137	-1.435105	0.000005
H38	H	0.769137	-0.935105	0.500005
H39	H	0.226592	-2.026079	0.531491
H40	H	0.726592	-1.526079	1.031491
H41	H	-0.192824	-1.748308	0.468566
H42	H	0.307176	-1.248308	0.968566
H43	H	-0.235400	-1.339239	0.000009
H44	H	0.264600	-0.839239	0.500009
