data_functionalizedCrystal
_audit_creation_method	'MofGen! by Chris Wilmer'
_symmetry_space_group_name_H-M	'P1'
_symmetry_Int_Tables_number	1
_symmetry_cell_setting	triclinic
loop_
_symmetry_equiv_pos_as_xyz
  x,y,z
_cell_length_a	18.215407
_cell_length_b	12.594516
_cell_length_c	18.215399
_cell_angle_alpha	90.032468
_cell_angle_beta	90.014769
_cell_angle_gamma	90.013216
loop_
_atom_site_label
_atom_site_type_symbol
_atom_site_fract_x
_atom_site_fract_y
_atom_site_fract_z
Zn1	Zn	-1.125087	0.423852	-0.416065
Zn2	Zn	-1.125018	0.601857	-0.292994
Zn3	Zn	-1.002026	0.423879	-0.293016
Zn4	Zn	-1.002001	0.601775	-0.416023
O5	O	-1.063533	0.512841	-0.354525
O6	O	-1.228062	0.447488	-0.399747
O7	O	-1.108684	0.578294	-0.190013
O8	O	-1.018390	0.274930	-0.309366
O9	O	-1.228011	0.578267	-0.309327
O10	O	-1.108803	0.274910	-0.399769
O11	O	-1.018323	0.447534	-0.190029
O12	O	-0.899039	0.447455	-0.309326
O13	O	-1.018348	0.578128	-0.519013
O14	O	-0.899021	0.578154	-0.399698
O15	O	-1.108778	0.447408	-0.519043
O16	O	-1.108660	0.750792	-0.309287
O17	O	-1.018280	0.750732	-0.399676
C18	C	-0.872327	0.512800	-0.354510
C19	C	-0.790528	0.512807	-0.354522
C20	C	-0.602360	0.444842	-0.401676
C21	C	-0.525501	0.444848	-0.401678
C22	C	-0.525459	0.580824	-0.307379
C23	C	-0.602316	0.580812	-0.307374
C24	C	-0.640765	0.512823	-0.354527
C25	C	-0.487049	0.512840	-0.354534
C26	C	-0.403715	0.512847	-0.354535
C27	C	-0.724104	0.512815	-0.354524
C28	C	-1.063480	0.789382	-0.354491
C29	C	-1.063524	0.907687	-0.354501
C30	C	-1.063568	0.512756	-0.546478
C31	C	-1.063583	0.512720	-0.628276
C32	C	-0.255486	0.512872	-0.354537
C33	C	-0.337285	0.512856	-0.354538
C34	C	-1.112734	0.976935	-0.305385
C35	C	-1.130708	1.047636	-0.372551
C36	C	-1.045627	1.047785	-0.287363
C37	C	-1.081533	0.976831	-0.421701
C38	C	-0.996421	0.976973	-0.336468
C39	C	-1.014370	1.047643	-0.403680
C40	C	-1.063589	1.235220	-0.354556
C41	C	-1.063569	1.116915	-0.354520
C42	C	-1.016571	0.444587	-0.816480
C43	C	-1.016584	0.444566	-0.893339
C44	C	-1.110682	0.580725	-0.893311
C45	C	-1.110665	0.580751	-0.816453
C46	C	-1.063611	0.512676	-0.778040
C47	C	-1.063641	0.512629	-0.931756
C48	C	-1.063655	0.512606	-1.015090
C49	C	-1.063595	0.512700	-0.694701
C50	C	-1.063541	0.512849	-0.163318
C51	C	-1.063669	0.512585	-0.081520
H52	H	-0.633662	0.389477	-0.440069
H53	H	-0.494235	0.389489	-0.440071
C54	C	-1.168300	0.935733	-0.250051
C55	C	-1.203338	1.021649	-0.216105
C56	C	-1.254537	0.983735	-0.165139
H57	H	-1.143843	0.894304	-0.214000
H58	H	-1.203730	0.893174	-0.274564
H59	H	-1.167913	1.064191	-0.191593
H60	H	-1.227809	1.063086	-0.252137
H61	H	-1.289967	0.941175	-0.189651
H62	H	-1.230074	0.942306	-0.129092
H63	H	-1.278321	1.042022	-0.142104
C64	C	-0.644058	0.654449	-0.256090
C65	C	-0.688157	0.594089	-0.208981
C66	C	-0.726612	0.661880	-0.161723
H67	H	-0.674106	0.700888	-0.284098
H68	H	-0.610176	0.694930	-0.227969
H69	H	-0.722034	0.553627	-0.237099
H70	H	-0.658127	0.547653	-0.180956
H71	H	-0.692731	0.702360	-0.133602
H72	H	-0.756656	0.708315	-0.189737
H73	H	-0.756533	0.620935	-0.129749
C74	C	-0.483580	0.654605	-0.256272
C75	C	-0.408051	0.640089	-0.266382
C76	C	-0.369452	0.708052	-0.219322
H77	H	-0.496071	0.639009	-0.206813
H78	H	-0.496132	0.726159	-0.266962
H79	H	-0.395504	0.568551	-0.255686
H80	H	-0.395538	0.655693	-0.315831
H81	H	-0.382004	0.779606	-0.230013
H82	H	-0.381949	0.692450	-0.169866
H83	H	-0.318202	0.698219	-0.226180
C84	C	-1.206462	1.088816	-0.392879
C85	C	-1.253750	1.002879	-0.404873
C86	C	-1.323546	1.040762	-0.423584
H87	H	-1.203221	1.130247	-0.436317
H88	H	-1.224978	1.131366	-0.353987
H89	H	-1.235239	0.960346	-0.443763
H90	H	-1.257014	0.961440	-0.361445
H91	H	-1.342062	1.083313	-0.384692
H92	H	-1.320297	1.082193	-0.467021
H93	H	-1.355641	0.982461	-0.431718
H94	H	-1.030472	1.078951	-0.230577
H95	H	-1.096632	0.945796	-0.478536
H96	H	-0.972774	1.078494	-0.445271
H97	H	-1.148993	0.636149	-0.924596
C98	C	-0.920777	0.935599	-0.315939
C99	C	-0.902298	0.971468	-0.245551
C100	C	-0.832625	0.933361	-0.226602
H101	H	-0.885638	0.960838	-0.350277
H102	H	-0.921194	0.860171	-0.316482
H103	H	-0.901875	1.046880	-0.245013
H104	H	-0.937418	0.946232	-0.211197
H105	H	-0.833041	0.857933	-0.227145
H106	H	-0.797492	0.958602	-0.260944
H107	H	-0.820080	0.957684	-0.178840
C108	C	-0.965630	0.370583	-0.935171
C109	C	-1.007320	0.302375	-0.979333
C110	C	-0.960402	0.234219	-1.017887
H111	H	-0.937586	0.329945	-0.901370
H112	H	-0.933573	0.411261	-0.965181
H113	H	-1.039364	0.261701	-0.949325
H114	H	-1.035363	0.342983	-1.013147
H115	H	-0.928346	0.274898	-1.047897
H116	H	-0.932361	0.193589	-0.984081
H117	H	-0.988682	0.187939	-1.047860
H118	H	-0.978257	0.389157	-0.785206
H119	H	-1.148972	0.636202	-0.785155
