data_functionalizedCrystal
_audit_creation_method	'MofGen! by Chris Wilmer'
_symmetry_space_group_name_H-M	'P1'
_symmetry_Int_Tables_number	1
_symmetry_cell_setting	triclinic
loop_
_symmetry_equiv_pos_as_xyz
  x,y,z
_cell_length_a	14.519709
_cell_length_b	10.723022
_cell_length_c	9.198806
_cell_angle_alpha	89.997988
_cell_angle_beta	90.001670
_cell_angle_gamma	84.073686
loop_
_atom_site_label
_atom_site_type_symbol
_atom_site_fract_x
_atom_site_fract_y
_atom_site_fract_z
O1	O	1.224702	0.163572	-0.120699
O2	O	1.724702	0.663572	0.379301
O3	O	0.956323	0.182835	-0.120743
O4	O	1.456323	0.682835	0.379257
O5	O	1.096704	-0.008431	-0.120715
O6	O	1.596704	0.491569	0.379285
O7	O	1.084321	0.354837	-0.120728
O8	O	1.584321	0.854837	0.379272
O9	O	1.096693	-0.008431	0.121070
O10	O	1.596693	0.491569	0.621070
O11	O	0.956312	0.182834	0.121042
O12	O	1.456312	0.682834	0.621042
O13	O	1.224691	0.163571	0.121086
O14	O	1.724691	0.663571	0.621086
Cu15	Cu	1.090500	0.173203	0.143141
Cu16	Cu	1.590500	0.673203	0.643141
Cu17	Cu	1.090513	0.173203	-0.142798
Cu18	Cu	1.590513	0.673203	0.357202
O19	O	1.084310	0.354837	0.121057
O20	O	1.584310	0.854837	0.621057
C21	C	0.921953	0.181937	0.000144
C22	C	1.421953	0.681937	0.500144
C23	C	0.819558	0.179247	0.000127
C24	C	1.319558	0.679247	0.500127
C25	C	0.444612	0.169343	0.000193
C26	C	0.944612	0.669343	0.500193
C27	C	0.548934	0.172093	0.000174
C28	C	1.048934	0.672093	0.500174
C29	C	0.632082	0.174294	0.000159
C30	C	1.132082	0.674294	0.500159
C31	C	0.736410	0.177045	0.000143
C32	C	1.236410	0.677045	0.500143
C33	C	1.095797	-0.054922	0.000176
C34	C	1.595797	0.445078	0.500176
C35	C	1.093102	-0.193452	0.000170
C36	C	1.593102	0.306548	0.500170
C37	C	1.259061	0.164469	0.000196
C38	C	1.759061	0.664469	0.500196
C39	C	1.361456	0.167159	0.000203
C40	C	1.861456	0.667159	0.500203
C41	C	1.012150	-0.241256	0.000154
C42	C	1.512150	0.258744	0.500154
C43	C	1.009362	-0.384432	0.000149
C44	C	1.509362	0.115568	0.500149
C45	C	1.085216	0.401328	0.000164
C46	C	1.585216	0.901328	0.500164
C47	C	1.087912	0.539858	0.000160
C48	C	1.587912	1.039858	0.500160
N49	N	1.090498	0.173202	0.344255
N50	N	1.590498	0.673202	0.844255
N51	N	1.090523	0.173195	-0.343912
N52	N	1.590523	0.673195	0.156088
C53	C	1.149439	0.092543	0.416464
C54	C	1.649439	0.592543	0.916464
C55	C	1.149454	0.092538	0.583876
C56	C	1.649454	0.592538	1.083876
H57	H	0.944907	-0.176184	0.000152
H58	H	1.444907	0.323816	0.500152
O59	O	1.170551	-0.410907	-0.000020
O60	O	1.670551	0.089093	0.499980
C61	C	1.176982	-0.336496	-0.125259
C62	C	1.676982	0.163504	0.374741
H63	H	1.104479	-0.304366	-0.167019
H64	H	1.604479	0.195634	0.332981
H65	H	1.214194	-0.251108	-0.097089
H66	H	1.714194	0.248892	0.402911
H67	H	1.217473	-0.393842	-0.212938
H68	H	1.717473	0.106158	0.287062
O69	O	0.926749	-0.433736	0.000194
O70	O	1.426749	0.066264	0.500194
C71	C	0.942357	-0.565714	0.000151
C72	C	1.442357	-0.065714	0.500151
H73	H	1.014151	-0.595997	0.045938
H74	H	1.514151	-0.095997	0.545938
H75	H	0.887839	-0.605907	0.070334
H76	H	1.387839	-0.105907	0.570334
H77	H	0.937702	-0.601958	-0.115849
H78	H	1.437702	-0.101958	0.384151
H79	H	1.160345	-0.258523	0.000186
H80	H	1.660345	0.241477	0.500186
O81	O	1.209523	0.010157	0.342178
O82	O	1.709523	0.510157	0.842178
C83	C	1.159450	-0.066719	0.254128
C84	C	1.659450	0.433281	0.754128
H85	H	1.087648	-0.017005	0.231517
H86	H	1.587648	0.482995	0.731517
H87	H	1.197716	-0.086315	0.147016
H88	H	1.697716	0.413685	0.647016
H89	H	1.152498	-0.158998	0.312648
H90	H	1.652498	0.341002	0.812648
O91	O	1.209616	0.009979	0.657788
O92	O	1.709616	0.509979	1.157788
C93	C	1.193588	-0.113527	0.620735
C94	C	1.693588	0.386473	1.120735
H95	H	1.158090	-0.113433	0.510190
H96	H	1.658090	0.386567	1.010190
H97	H	1.262414	-0.175024	0.615677
H98	H	1.762414	0.324976	1.115677
H99	H	1.147301	-0.151995	0.706375
H100	H	1.647301	0.348005	1.206375
O101	O	1.030444	0.255639	0.581869
O102	O	1.530444	0.755639	1.081869
C103	C	1.080536	0.332513	0.493847
C104	C	1.580536	0.832513	0.993847
H105	H	1.152316	0.282755	0.471182
H106	H	1.652316	0.782755	0.971182
H107	H	1.042254	0.352196	0.386759
H108	H	1.542254	0.852196	0.886759
H109	H	1.087544	0.424750	0.552418
H110	H	1.587544	0.924750	1.052418
H111	H	1.040042	0.242249	0.406373
H112	H	1.540042	0.742249	0.906373
