data_functionalizedCrystal
_audit_creation_method	'MofGen! by Chris Wilmer'
_symmetry_space_group_name_H-M	'P1'
_symmetry_Int_Tables_number	1
_symmetry_cell_setting	triclinic
loop_
_symmetry_equiv_pos_as_xyz
  x,y,z
_cell_length_a	18.215407
_cell_length_b	14.908520
_cell_length_c	18.215399
_cell_angle_alpha	93.269364
_cell_angle_beta	89.982632
_cell_angle_gamma	93.318033
loop_
_atom_site_label
_atom_site_type_symbol
_atom_site_fract_x
_atom_site_fract_y
_atom_site_fract_z
Zn1	Zn	1.108174	-0.359230	-0.432973
Zn2	Zn	1.100986	-0.510098	-0.317007
Zn3	Zn	0.985106	-0.359251	-0.309927
Zn4	Zn	0.977979	-0.510040	-0.440034
O5	O	1.043061	-0.434655	-0.374985
O6	O	1.210204	-0.379258	-0.417598
O7	O	1.085589	-0.490121	-0.213085
O8	O	1.007422	-0.233004	-0.320331
O9	O	1.204923	-0.490100	-0.332398
O10	O	1.097840	-0.232988	-0.410732
O11	O	1.000452	-0.379295	-0.207883
O12	O	0.881177	-0.379238	-0.327178
O13	O	0.995275	-0.490001	-0.542080
O14	O	0.875941	-0.490022	-0.422767
O15	O	1.090929	-0.379202	-0.536892
O16	O	1.078678	-0.636335	-0.339245
O17	O	0.988305	-0.636292	-0.429632
C18	C	0.851856	-0.434627	-0.374971
C19	C	0.770057	-0.434637	-0.374983
C20	C	0.584606	-0.377040	-0.419427
C21	C	0.507747	-0.377048	-0.419430
C22	C	0.502267	-0.492295	-0.330557
C23	C	0.579125	-0.492282	-0.330551
C24	C	0.620292	-0.434656	-0.374990
C25	C	0.466575	-0.434677	-0.374999
C26	C	0.383241	-0.434685	-0.375002
C27	C	0.703632	-0.434646	-0.374987
C28	C	1.031958	-0.669048	-0.385989
C29	C	1.027275	-0.769322	-0.390721
C30	C	1.112678	-0.957731	-0.305568
C31	C	1.108281	-1.051948	-0.310012
C32	C	1.014088	-1.051973	-0.404056
C33	C	1.018485	-0.957757	-0.399612
C34	C	1.067781	-0.910639	-0.350366
C35	C	1.072174	-0.816421	-0.345919
C36	C	0.977985	-0.816448	-0.439966
C37	C	0.973588	-0.910665	-0.444410
C38	C	1.235013	-0.434683	-0.375000
C39	C	1.316811	-0.434695	-0.375006
C40	C	1.043109	-0.434593	-0.566935
C41	C	1.043129	-0.434566	-0.648733
C42	C	1.054228	-0.199347	-0.363954
C43	C	1.058986	-0.099072	-0.359254
C44	C	1.092956	-0.376819	-0.834224
C45	C	1.092966	-0.376792	-0.911082
C46	C	0.993361	-0.492174	-0.916473
C47	C	0.993348	-0.492195	-0.839616
C48	C	1.043150	-0.434519	-0.798494
C49	C	1.043173	-0.434471	-0.952208
C50	C	1.043183	-0.434443	-1.035541
C51	C	1.043139	-0.434545	-0.715156
C52	C	1.043059	-0.434652	-0.183779
C53	C	1.043193	-0.434424	-0.101969
H54	H	0.478695	-0.330130	-0.455613
O55	O	0.939622	-0.554432	-0.801076
H56	H	0.947975	-0.544747	-0.740725
O57	O	1.146668	-0.314613	-0.789870
H58	H	1.115902	-0.268725	-0.752692
H59	H	1.152812	-0.919367	-0.265465
H60	H	0.618123	-0.330114	-0.455609
O61	O	0.457866	-0.554452	-0.282631
H62	H	0.398426	-0.544788	-0.290105
H63	H	0.973958	-1.090353	-0.444155
O64	O	0.920419	-0.961484	-0.497524
H65	H	0.863512	-0.943461	-0.483995
O66	O	0.617624	-0.554424	-0.282618
H67	H	0.576086	-0.594506	-0.251725
O68	O	1.156703	-1.102753	-0.261700
H69	H	1.144959	-1.084738	-0.203078
H70	H	1.112311	-0.778058	-0.305818
O71	O	0.929557	-0.765658	-0.488291
H72	H	0.940897	-0.692227	-0.476932
O73	O	1.146689	-0.314565	-0.949622
H74	H	1.181318	-0.274470	-0.908113
O75	O	0.939648	-0.554379	-0.960827
H76	H	0.970413	-0.600279	-0.997995
