data_functionalizedCrystal
_audit_creation_method	'MofGen! by Chris Wilmer'
_symmetry_space_group_name_H-M	'P1'
_symmetry_Int_Tables_number	1
_symmetry_cell_setting	triclinic
loop_
_symmetry_equiv_pos_as_xyz
  x,y,z
_cell_length_a	25.639239
_cell_length_b	25.639242
_cell_length_c	10.686551
_cell_angle_alpha	94.407626
_cell_angle_beta	85.590528
_cell_angle_gamma	89.966288
loop_
_atom_site_label
_atom_site_type_symbol
_atom_site_fract_x
_atom_site_fract_y
_atom_site_fract_z
Zn1	Zn	-0.185492	-0.821982	-0.713827
Zn2	Zn	-0.279649	-0.815178	-0.502800
Zn3	Zn	-0.192222	-0.727831	-0.502794
Zn4	Zn	-0.272895	-0.734500	-0.713711
O5	O	-0.232564	-0.774873	-0.608283
O6	O	-0.197993	-0.894246	-0.685885
O7	O	-0.273694	-0.797952	-0.326213
O8	O	-0.118162	-0.740376	-0.530834
O9	O	-0.267169	-0.889247	-0.530844
O10	O	-0.113218	-0.809549	-0.685879
O11	O	-0.209462	-0.733779	-0.326209
O12	O	-0.202913	-0.655548	-0.530721
O13	O	-0.255657	-0.751743	-0.890312
O14	O	-0.262183	-0.660448	-0.685682
O15	O	-0.191443	-0.816016	-0.890397
O16	O	-0.351920	-0.804419	-0.530731
O17	O	-0.346957	-0.745145	-0.685687
C18	C	-0.232546	-0.639027	-0.608189
C19	C	-0.232549	-0.580913	-0.608179
C20	C	-0.263481	-0.223110	-0.688861
C21	C	-0.263483	-0.168506	-0.688877
O22	O	-0.289761	-0.142444	-0.757420
N23	N	-0.232572	-0.138635	-0.608327
C24	C	-0.201652	-0.163371	-0.527763
O25	O	-0.175360	-0.132949	-0.459251
C26	C	-0.201648	-0.217974	-0.527754
C27	C	-0.232565	-0.247842	-0.608301
C28	C	-0.294395	-0.252978	-0.769402
C29	C	-0.294393	-0.307577	-0.769383
C30	C	-0.263478	-0.332310	-0.688824
C31	C	-0.232563	-0.302442	-0.608282
C32	C	-0.170726	-0.242709	-0.447198
C33	C	-0.170724	-0.297316	-0.447196
C34	C	-0.201641	-0.327184	-0.527743
C35	C	-0.201646	-0.381774	-0.527704
N36	N	-0.232557	-0.411645	-0.608254
C37	C	-0.263473	-0.386913	-0.688814
C38	C	-0.201664	-0.048701	-0.527791
C39	C	-0.201671	0.005901	-0.527793
C40	C	-0.263501	0.000762	-0.688909
C41	C	-0.263496	-0.053841	-0.688899
C42	C	-0.232575	-0.078572	-0.608341
C43	C	-0.263468	-0.501576	-0.688768
C44	C	-0.263465	-0.556181	-0.688739
C45	C	-0.201633	-0.551037	-0.527628
C46	C	-0.201638	-0.496437	-0.527652
C47	C	-0.232556	-0.471708	-0.608233
O48	O	-0.175380	-0.407871	-0.459200
O49	O	-0.289756	-0.417341	-0.757327
C50	C	-0.368409	-0.774783	-0.608225
C51	C	-0.426522	-0.774794	-0.608243
C52	C	-0.789451	-0.805828	-0.527735
C53	C	-0.844055	-0.805849	-0.527752
O54	O	-0.874475	-0.832142	-0.459238
N55	N	-0.868801	-0.774967	-0.608367
C56	C	-0.838940	-0.744067	-0.688979
O57	O	-0.865002	-0.717802	-0.757550
C58	C	-0.784337	-0.744049	-0.688967
C59	C	-0.759594	-0.774929	-0.608338
C60	C	-0.764708	-0.836706	-0.447113
C61	C	-0.710108	-0.836684	-0.447095
C62	C	-0.680251	-0.805785	-0.527698
C63	C	-0.704994	-0.774907	-0.608320
C64	C	-0.754476	-0.713152	-0.769585
C65	C	-0.699870	-0.713137	-0.769567
C66	C	-0.675127	-0.744017	-0.688938
C67	C	-0.620537	-0.743986	-0.688905
N68	N	-0.595791	-0.774868	-0.608290
C69	C	-0.625648	-0.805767	-0.527687
C70	C	-0.953610	-0.744107	-0.688998
C71	C	-1.008212	-0.744121	-0.689004
C72	C	-1.013323	-0.805904	-0.527779
C73	C	-0.958720	-0.805887	-0.527767
C74	C	-0.928864	-0.774988	-0.608383
C75	C	-0.510984	-0.805719	-0.527654
C76	C	-0.456379	-0.805693	-0.527639
C77	C	-0.451273	-0.743912	-0.688869
C78	C	-0.505873	-0.743936	-0.688880
C79	C	-0.535727	-0.774843	-0.608268
O80	O	-0.590083	-0.717708	-0.757388
O81	O	-0.599578	-0.832033	-0.459139
C82	C	-0.096189	-0.774978	-0.608369
C83	C	-0.038073	-0.775023	-0.608405
C84	C	-0.222046	-0.785383	-0.937421
C85	C	-0.217564	-0.789861	-1.077681
C86	C	-0.232582	0.088752	-0.608363
C87	C	-0.232585	0.030638	-0.608358
C88	C	-0.243004	-0.764434	-0.280425
C89	C	-0.247339	-0.760056	-0.140166
H90	H	-0.319568	-0.331892	-0.834976
H91	H	-0.145551	-0.218399	-0.381605
C92	C	-0.533096	-0.709967	-0.777561
C93	C	-0.525987	-0.650195	-0.767109
C94	C	-0.553206	-0.616231	-0.855802
C95	C	-0.587535	-0.642038	-0.954946
C96	C	-0.594646	-0.701812	-0.965403
C97	C	-0.567426	-0.735777	-0.876710
H98	H	-0.500573	-0.631089	-0.693713
H99	H	-0.547942	-0.571981	-0.848061
H100	H	-0.607685	-0.616895	-1.020602
H101	H	-0.620059	-0.720919	-1.038799
H102	H	-0.572690	-0.780026	-0.884451
H103	H	-0.319570	-0.232847	-0.835010
C104	C	-0.418422	-0.709926	-0.777532
C105	C	-0.382677	-0.667137	-0.722734
C106	C	-0.349823	-0.633154	-0.811404
C107	C	-0.352715	-0.641961	-0.954872
C108	C	-0.388461	-0.684752	-1.009677
C109	C	-0.421315	-0.718735	-0.921007
H110	H	-0.380535	-0.660616	-0.616524
H111	H	-0.323362	-0.601478	-0.770833
H112	H	-0.328395	-0.616805	-1.020511
H113	H	-0.390603	-0.691273	-1.115887
H114	H	-0.447776	-0.750411	-0.961578
C115	C	-0.178491	-0.828967	-1.150365
C116	C	-0.144000	-0.863493	-1.078090
C117	C	-0.104928	-0.902597	-1.150774
C118	C	-0.100346	-0.907176	-1.295733
C119	C	-0.134838	-0.872649	-1.368016
C120	C	-0.173911	-0.833544	-1.295332
H121	H	-0.147390	-0.860104	-0.970775
H122	H	-0.079394	-0.928156	-1.097264
H123	H	-0.071423	-0.936124	-1.349538
H124	H	-0.131448	-0.876038	-1.475331
H125	H	-0.199444	-0.807985	-1.348842
H126	H	-0.145540	-0.317449	-0.381602
H127	H	-0.288643	-0.580497	-0.754331
C128	C	-0.682898	-0.870659	-0.358411
C129	C	-0.695024	-0.861867	-0.214950
C130	C	-0.667819	-0.895846	-0.126263
C131	C	-0.628488	-0.938617	-0.181038
C132	C	-0.616359	-0.947411	-0.324506
C133	C	-0.643564	-0.913432	-0.413193
H134	H	-0.724141	-0.830204	-0.174395
H135	H	-0.676797	-0.889337	-0.020058
H136	H	-0.608349	-0.963771	-0.115387
H137	H	-0.587242	-0.979074	-0.365060
H138	H	-0.634586	-0.919942	-0.519398
C139	C	-0.167628	-0.463575	-0.439063
C140	C	-0.107860	-0.471459	-0.449643
C141	C	-0.073844	-0.438600	-0.361071
C142	C	-0.099595	-0.397857	-0.261918
C143	C	-0.159366	-0.389971	-0.251334
C144	C	-0.193383	-0.422830	-0.339907
H145	H	-0.088795	-0.501622	-0.523045
H146	H	-0.029597	-0.444438	-0.368906
H147	H	-0.074414	-0.373533	-0.196352
H148	H	-0.178431	-0.359809	-0.177932
H149	H	-0.237629	-0.416992	-0.332071
H150	H	-0.176501	0.030216	-0.462191
H151	H	-0.288671	-0.078156	-0.754490
H152	H	-0.276261	-0.731114	-1.086360
H153	H	-0.288643	-0.481449	-0.754387
C154	C	-0.931506	-0.839859	-0.439083
C155	C	-0.892175	-0.882629	-0.493860
C156	C	-0.864964	-0.916604	-0.405175
C157	C	-0.877084	-0.907808	-0.261713
C158	C	-0.916417	-0.865036	-0.206928
C159	C	-0.943628	-0.831061	-0.295614
H160	H	-0.883201	-0.889142	-0.600066
H161	H	-0.835847	-0.948268	-0.445731
H162	H	-0.856940	-0.932959	-0.196063
H163	H	-0.925390	-0.858523	-0.100722
H164	H	-0.972744	-0.799397	-0.255058
H165	H	-0.288672	0.020909	-0.754509
H166	H	-0.929303	-0.718941	-0.754642
C167	C	-0.167655	-0.075901	-0.439151
C168	C	-0.107888	-0.068757	-0.449696
C169	C	-0.073880	-0.095953	-0.361057
C170	C	-0.099639	-0.130295	-0.261873
C171	C	-0.159409	-0.137441	-0.251324
C172	C	-0.193417	-0.110245	-0.339963
H173	H	-0.088817	-0.043333	-0.523121
H174	H	-0.029634	-0.090663	-0.368867
H175	H	-0.074464	-0.150428	-0.196258
H176	H	-0.178480	-0.162864	-0.177899
H177	H	-0.237663	-0.115535	-0.332153
H178	H	-0.176464	-0.571184	-0.462034
C179	C	-1.035425	-0.710148	-0.777688
C180	C	-1.002576	-0.676161	-0.866345
C181	C	-1.029787	-0.642190	-0.955038
C182	C	-1.089848	-0.642206	-0.955074
C183	C	-1.122700	-0.676194	-0.866414
C184	C	-1.095489	-0.710165	-0.777721
H185	H	-0.958113	-0.676148	-0.866321
H186	H	-1.005467	-0.617030	-1.020670
H187	H	-1.109991	-0.617059	-1.020730
H188	H	-1.167164	-0.676207	-0.866437
H189	H	-1.119809	-0.735326	-0.712088
C190	C	-0.781681	-0.679183	-0.858284
C191	C	-0.821012	-0.636407	-0.803533
C192	C	-0.848214	-0.602435	-0.892239
C193	C	-0.836086	-0.611239	-1.035698
C194	C	-0.796753	-0.654016	-1.090457
C195	C	-0.769551	-0.687988	-1.001750
H196	H	-0.829992	-0.629889	-0.697330
H197	H	-0.877331	-0.570769	-0.851702
H198	H	-0.856222	-0.586091	-1.101363
H199	H	-0.787773	-0.660534	-1.196660
H200	H	-0.740434	-0.719654	-1.042287
C201	C	-0.429163	-0.839665	-0.438945
C202	C	-0.441287	-0.830870	-0.295484
C203	C	-0.414074	-0.864841	-0.206795
C204	C	-0.374737	-0.907607	-0.261567
C205	C	-0.362611	-0.916403	-0.405036
C206	C	-0.389824	-0.882432	-0.493725
H207	H	-0.470409	-0.799210	-0.254932
H208	H	-0.423051	-0.858329	-0.100590
H209	H	-0.354592	-0.932754	-0.195915
H210	H	-0.333489	-0.948063	-0.445588
H211	H	-0.380847	-0.888944	-0.599930
H212	H	-0.535285	-0.830888	-0.462015
H213	H	-1.037642	-0.831066	-0.462151
H214	H	-0.675563	-0.687977	-0.835219
H215	H	-0.789012	-0.861871	-0.381476
