data_functionalizedCrystal
_audit_creation_method	'MofGen! by Chris Wilmer'
_symmetry_space_group_name_H-M	'P1'
_symmetry_Int_Tables_number	1
_symmetry_cell_setting	triclinic
loop_
_symmetry_equiv_pos_as_xyz
  x,y,z
_cell_length_a	27.732048
_cell_length_b	27.731996
_cell_length_c	10.868271
_cell_angle_alpha	89.988908
_cell_angle_beta	90.001179
_cell_angle_gamma	82.632022
loop_
_atom_site_label
_atom_site_type_symbol
_atom_site_fract_x
_atom_site_fract_y
_atom_site_fract_z
O1	O	0.640916	0.057519	-0.102179
O2	O	0.500121	0.066264	-0.102219
O3	O	0.574905	-0.008507	-0.102171
O4	O	0.566133	0.132290	-0.102227
O5	O	0.574899	-0.008510	0.102473
O6	O	0.500115	0.066262	0.102426
O7	O	0.640910	0.057516	0.102465
Zn8	Zn	0.570512	0.061888	0.134937
Zn9	Zn	0.570520	0.061892	-0.134691
O10	O	0.566127	0.132287	0.102418
C11	C	0.482111	0.066079	0.000099
C12	C	0.428456	0.065527	0.000085
C13	C	0.089634	0.106231	0.000122
C14	C	-0.112026	0.104180	0.000134
O15	O	-0.143288	0.141402	0.000172
N16	N	-0.131141	0.059844	0.000149
C17	C	-0.099838	0.016017	0.000170
O18	O	-0.120724	-0.021740	0.000196
C19	C	0.101820	0.018069	0.000167
C20	C	0.120933	0.062408	0.000139
C21	C	0.108747	0.150567	0.000096
C22	C	0.159159	0.151079	0.000086
C23	C	0.190457	0.107256	0.000103
C24	C	0.171344	0.062920	0.000129
C25	C	0.133122	-0.025757	0.000196
C26	C	0.183539	-0.025240	0.000198
C27	C	0.202652	0.019099	0.000171
C28	C	0.253055	0.019609	0.000136
N29	N	0.272171	0.063946	0.000121
C30	C	0.240872	0.107769	0.000104
C31	C	-0.205712	0.014943	0.000169
C32	C	-0.256126	0.014430	0.000167
C33	C	-0.268310	0.102594	0.000134
C34	C	-0.217895	0.103106	0.000127
C35	C	-0.186597	0.059280	0.000154
C36	C	0.346741	0.108842	0.000083
C37	C	0.397158	0.109350	0.000068
C38	C	0.409337	0.021187	0.000108
C39	C	0.358925	0.020678	0.000116
C40	C	0.327627	0.064510	0.000108
O41	O	0.284346	-0.017592	0.000112
O42	O	0.261767	0.145521	0.000106
C43	C	0.039222	0.105719	0.000132
C44	C	0.020109	0.061384	0.000158
C45	C	0.051408	0.017560	0.000175
C46	C	-0.030305	0.060871	0.000157
C47	C	-0.061604	0.104694	0.000140
C48	C	-0.042489	0.149030	0.000125
C49	C	0.007923	0.149543	0.000115
C50	C	0.032292	-0.026776	0.000190
C51	C	-0.018120	-0.027285	0.000199
C52	C	-0.049419	0.016539	0.000182
C53	C	0.574721	-0.026516	0.000155
C54	C	0.574179	-0.080172	0.000168
C55	C	0.570767	-0.412887	-0.111445
C56	C	0.568706	-0.614545	-0.111468
O57	O	0.568422	-0.640614	-0.206339
N58	N	0.568447	-0.639764	0.000083
C59	C	0.568700	-0.614564	0.111647
O60	O	0.568427	-0.640641	0.206527
C61	C	0.570757	-0.412906	0.111668
C62	C	0.571021	-0.387691	0.000110
C63	C	0.571031	-0.387671	-0.222994
C64	C	0.571549	-0.337260	-0.222988
C65	C	0.571803	-0.312064	-0.111432
C66	C	0.571539	-0.337280	0.000117
C67	C	0.571007	-0.387707	0.223231
C68	C	0.571520	-0.337290	0.223226
C69	C	0.571784	-0.312074	0.111668
C70	C	0.572311	-0.261673	0.111679
N71	N	0.572571	-0.236454	0.000129
C72	C	0.572316	-0.261650	-0.111427
C73	C	0.567620	-0.720438	0.111628
C74	C	0.567107	-0.770852	0.111624
C75	C	0.567112	-0.770829	-0.111492
C76	C	0.567629	-0.720414	-0.111486
C77	C	0.567880	-0.695219	0.000078
C78	C	0.573404	-0.155783	-0.111405
C79	C	0.573924	-0.105368	-0.111388
C80	C	0.573916	-0.105395	0.111727
C81	C	0.573399	-0.155806	0.111711
C82	C	0.573141	-0.180999	0.000135
O83	O	0.572591	-0.235572	0.206501
O84	O	0.572579	-0.235563	-0.206293
C85	C	0.570249	-0.463298	-0.111452
C86	C	0.569986	-0.488513	0.000097
C87	C	0.570240	-0.463318	0.111652
C88	C	0.569472	-0.538928	0.000092
C89	C	0.569218	-0.564123	-0.111464
C90	C	0.569477	-0.538905	-0.223014
C91	C	0.569995	-0.488494	-0.223008
C92	C	0.569981	-0.488536	0.223203
C93	C	0.569463	-0.538948	0.223187
C94	C	0.569209	-0.564143	0.111632
C95	C	0.658920	0.057701	0.000145
C96	C	0.712575	0.058254	0.000151
C97	C	0.566310	0.150296	0.000088
C98	C	0.566853	0.203952	0.000068
N99	N	0.570510	0.061885	0.318951
N100	N	0.570525	0.061891	-0.318705
C101	C	0.570517	0.061891	0.569957
C102	C	0.570511	0.061889	0.430280
H103	H	-0.180232	-0.020747	0.000191
Br104	Br	0.107197	-0.085936	0.000207
H105	H	0.174715	0.187185	0.000063
Br106	Br	0.567988	-0.686199	-0.262890
Br107	Br	0.570354	-0.454281	-0.374416
Br108	Br	0.033853	0.209720	0.000075
H109	H	0.570188	-0.468027	0.314047
H110	H	0.573192	-0.176289	-0.202260
Br111	Br	0.569136	-0.573109	-0.374410
H112	H	0.570792	-0.408229	0.314074
H113	H	-0.293803	0.138276	0.000121
Br114	Br	0.226013	-0.084723	0.000241
H115	H	0.083267	0.186255	0.000086
H116	H	0.571762	-0.316734	-0.313830
Br117	Br	0.423092	0.169529	0.000022
Br118	Br	-0.084976	0.208504	0.000093
H119	H	0.343363	-0.015426	0.000121
Br120	Br	-0.282058	-0.045747	0.000168
H121	H	0.434830	-0.014493	0.000117
Br122	Br	0.304273	0.168327	0.000073
H123	H	0.574141	-0.084840	-0.202236
H124	H	-0.202337	0.139211	0.000111
H125	H	-0.033676	-0.063394	0.000211
Br126	Br	0.571858	-0.303099	0.374643
Br127	Br	0.566766	-0.805032	-0.262888
H128	H	0.057772	-0.062463	0.000207
H129	H	0.570822	-0.408180	-0.313841
H130	H	0.566899	-0.791379	0.202465
H131	H	0.567826	-0.699928	0.202482
Br132	Br	0.573052	-0.190030	0.263111
Br133	Br	0.574263	-0.071191	0.263116
H134	H	0.569252	-0.559474	0.314038
