data_functionalizedCrystal
_audit_creation_method	'MofGen! by Chris Wilmer'
_symmetry_space_group_name_H-M	'P1'
_symmetry_Int_Tables_number	1
_symmetry_cell_setting	triclinic
loop_
_symmetry_equiv_pos_as_xyz
  x,y,z
_cell_length_a	15.944499
_cell_length_b	15.944551
_cell_length_c	13.101039
_cell_angle_alpha	93.361595
_cell_angle_beta	86.640221
_cell_angle_gamma	83.488174
loop_
_atom_site_label
_atom_site_type_symbol
_atom_site_fract_x
_atom_site_fract_y
_atom_site_fract_z
O1	O	1.119175	0.103485	-0.085278
O2	O	0.874619	0.116887	-0.085267
O3	O	1.003575	-0.012089	-0.085264
O4	O	0.990219	0.232462	-0.085282
O5	O	0.994323	-0.002820	0.085166
O6	O	0.865367	0.126157	0.085162
O7	O	1.109923	0.112754	0.085151
Zn8	Zn	0.986176	0.120927	0.112216
Zn9	Zn	0.998366	0.108715	-0.112332
O10	O	0.980967	0.241731	0.085148
C11	C	0.838698	0.120973	-0.000051
C12	C	0.745450	0.119329	-0.000046
C13	C	0.453915	0.194260	-0.000067
C14	C	0.519506	0.150738	-0.084097
C15	C	0.409814	0.113351	-0.000070
C16	C	0.510369	0.159855	0.083933
C17	C	0.574722	0.116293	-0.000056
C18	C	0.474181	0.069803	-0.084169
C19	C	0.465034	0.078936	0.083937
C20	C	0.530609	0.035354	-0.000113
C21	C	0.314815	0.111659	-0.000078
C22	C	0.669721	0.117978	-0.000055
C23	C	0.998394	-0.038749	-0.000049
C24	C	0.996732	-0.131994	-0.000048
C25	C	0.912826	-0.346836	-0.000058
C26	C	0.947228	-0.403290	0.083972
C27	C	0.993725	-0.302720	-0.000056
C28	C	0.956369	-0.412412	-0.084058
C29	C	0.990815	-0.467633	-0.000068
C30	C	1.028145	-0.357942	0.084044
C31	C	1.037279	-0.367062	-0.084062
C32	C	1.071738	-0.423498	-0.000011
C33	C	0.995399	-0.207718	-0.000048
C34	C	0.989147	-0.562634	-0.000068
C35	C	1.145844	0.108668	-0.000067
C36	C	1.239093	0.110313	-0.000079
C37	C	0.986148	0.268390	-0.000069
C38	C	0.987811	0.361636	-0.000077
N39	N	0.977862	0.129261	0.265464
N40	N	1.006686	0.100374	-0.265580
C41	C	0.966551	0.140608	0.474507
C42	C	1.017995	0.089030	0.525384
C43	C	1.011701	0.095343	0.641702
C44	C	0.972844	0.134296	0.358178
H45	H	0.563788	-0.031855	-0.000153
C46	C	0.432647	0.037956	0.179914
C47	C	0.444387	0.077756	0.287335
C48	C	0.412001	0.036782	0.383322
C49	C	0.367875	-0.043991	0.371889
C50	C	0.356132	-0.083795	0.264464
C51	C	0.388519	-0.042822	0.168476
H52	H	0.477054	0.137554	0.295803
H53	H	0.420694	0.066249	0.462845
H54	H	0.343900	-0.074322	0.442944
H55	H	0.323465	-0.143593	0.255996
H56	H	0.379826	-0.072288	0.088953
C57	C	0.532281	0.211317	0.179904
C58	C	0.625220	0.221690	0.197967
C59	C	0.647128	0.273159	0.293931
C60	C	0.576097	0.314255	0.371831
C61	C	0.483152	0.303883	0.353770
C62	C	0.461244	0.252414	0.257806
H63	H	0.677807	0.191267	0.140299
H64	H	0.715933	0.280837	0.307300
H65	H	0.592315	0.352356	0.442869
H66	H	0.430565	0.334306	0.411439
H67	H	0.392439	0.244737	0.244437
C68	C	0.915343	-0.444762	-0.180030
C69	C	0.835460	-0.490269	-0.168545
C70	C	0.794428	-0.522614	-0.264512
C71	C	0.833279	-0.509452	-0.371963
C72	C	0.913166	-0.463943	-0.383453
C73	C	0.954198	-0.431597	-0.287486
H74	H	0.806696	-0.500014	-0.088999
H75	H	0.735289	-0.556303	-0.256006
H76	H	0.802904	-0.533396	-0.443003
H77	H	0.941930	-0.454197	-0.462999
H78	H	1.013337	-0.397908	-0.295992
C79	C	0.900676	0.206672	0.533668
C80	C	0.893844	0.212426	0.651665
C81	C	0.827972	0.278492	0.710839
C82	C	0.768932	0.338803	0.652017
C83	C	0.775762	0.333051	0.534014
C84	C	0.841634	0.266985	0.474839
H85	H	0.937550	0.167778	0.695214
H86	H	0.822916	0.282750	0.798193
H87	H	0.720170	0.387709	0.695822
H88	H	0.732056	0.377699	0.490464
H89	H	0.846690	0.262728	0.387485
C90	C	1.088675	-0.345087	-0.180040
C91	C	1.128448	-0.415943	-0.258966
C92	C	1.179837	-0.393965	-0.354954
C93	C	1.191452	-0.301131	-0.372016
C94	C	1.151677	-0.230268	-0.293087
C95	C	1.100289	-0.252246	-0.197099
H96	H	1.119851	-0.484670	-0.246339
H97	H	1.209280	-0.446423	-0.413383
H98	H	1.229493	-0.284861	-0.443072
H99	H	1.160274	-0.161541	-0.305714
H100	H	1.070845	-0.199788	-0.138670
C101	C	1.069115	-0.325728	0.180124
C102	C	1.100976	-0.388287	0.258421
C103	C	1.141942	-0.356071	0.354501
C104	C	1.151047	-0.261295	0.372284
C105	C	1.119185	-0.198730	0.293985
C106	C	1.078219	-0.230946	0.197905
H107	H	1.094236	-0.458451	0.245260
H108	H	1.165528	-0.402386	0.412463
H109	H	1.181373	-0.237447	0.443408
H110	H	1.125925	-0.128566	0.307146
H111	H	1.054633	-0.184631	0.139943
H112	H	0.543461	0.181098	-0.155138
C113	C	1.083885	0.022974	0.466218
C114	C	1.090129	0.016631	0.348218
C115	C	1.156019	-0.049418	0.289046
C116	C	1.215665	-0.109125	0.347876
C117	C	1.209424	-0.102784	0.465883
C118	C	1.143534	-0.036734	0.525055
H119	H	1.045973	0.060831	0.304663
H120	H	1.160639	-0.054112	0.201689
H121	H	1.264441	-0.158019	0.304074
H122	H	1.253580	-0.146984	0.509438
H123	H	1.138914	-0.032041	0.612412
C124	C	0.452414	0.018391	-0.180251
C125	C	0.476669	0.046113	-0.287616
C126	C	0.454899	-0.005294	-0.383699
C127	C	0.408875	-0.084424	-0.372415
C128	C	0.384617	-0.112150	-0.265046
C129	C	0.406387	-0.060743	-0.168963
H130	H	0.510741	0.104694	-0.295973
H131	H	0.472856	0.015232	-0.463181
H132	H	0.392759	-0.122478	-0.443541
H133	H	0.350545	-0.170730	-0.256689
H134	H	0.388430	-0.081268	-0.089481
C135	C	0.408883	0.284958	-0.000180
C136	C	0.427936	0.340304	-0.089208
C137	C	0.382903	0.430998	-0.089326
C138	C	0.318818	0.466347	-0.000417
C139	C	0.299763	0.411000	0.088617
C140	C	0.344795	0.320306	0.088736
H141	H	0.475378	0.314137	-0.155029
H142	H	0.397009	0.471969	-0.155236
H143	H	0.285482	0.533484	-0.000505
H144	H	0.252320	0.437167	0.154439
H145	H	0.330689	0.279335	0.154646
H146	H	0.845671	-0.313511	0.000028
H147	H	0.909153	-0.419528	0.155016
H148	H	1.138944	-0.456667	0.000033
