data_functionalizedCrystal
_audit_creation_method	'MofGen! by Chris Wilmer'
_symmetry_space_group_name_H-M	'P1'
_symmetry_Int_Tables_number	1
_symmetry_cell_setting	triclinic
loop_
_symmetry_equiv_pos_as_xyz
  x,y,z
_cell_length_a	27.731994
_cell_length_b	11.792254
_cell_length_c	10.868271
_cell_angle_alpha	89.994692
_cell_angle_beta	90.001770
_cell_angle_gamma	83.409566
loop_
_atom_site_label
_atom_site_type_symbol
_atom_site_fract_x
_atom_site_fract_y
_atom_site_fract_z
O1	O	0.641729	0.134747	-0.102148
O2	O	0.501051	0.155344	-0.102189
O3	O	0.574801	-0.020235	-0.102158
O4	O	0.567979	0.310326	-0.102178
O5	O	0.574795	-0.020242	0.102486
O6	O	0.501045	0.155337	0.102456
O7	O	0.641723	0.134740	0.102497
Zn8	Zn	0.571383	0.145038	0.134968
Zn9	Zn	0.571391	0.145046	-0.134660
O10	O	0.567973	0.310319	0.102467
C11	C	0.574368	-0.062515	0.000163
C12	C	0.573082	-0.188486	0.000162
C13	C	0.483038	0.154918	0.000129
C14	C	0.429375	0.153645	0.000113
C15	C	0.572037	-0.290789	0.000157
C16	C	0.570730	-0.419133	0.000146
C17	C	0.096606	0.145621	0.111713
C18	C	-0.105080	0.140781	0.111727
O19	O	-0.131159	0.140103	0.206597
N20	N	-0.130295	0.140184	0.000176
C21	C	-0.105085	0.140789	-0.111388
O22	O	-0.131159	0.140158	-0.206269
C23	C	0.096601	0.145621	-0.111401
C24	C	0.121813	0.146230	0.000158
C25	C	0.121818	0.146229	0.223263
C26	C	0.172236	0.147445	0.223258
C27	C	0.197443	0.148054	0.111704
C28	C	0.172231	0.147446	0.000154
C29	C	0.121810	0.146218	-0.222963
C30	C	0.172235	0.147423	-0.222956
C31	C	0.197447	0.148032	-0.111397
C32	C	0.247855	0.149271	-0.111406
N33	N	0.273070	0.149868	0.000146
C34	C	0.247864	0.149260	0.111701
C35	C	-0.210973	0.138254	-0.111373
C36	C	-0.261394	0.137048	-0.111370
C37	C	-0.261386	0.137038	0.111745
C38	C	-0.210964	0.138252	0.111741
C39	C	-0.185758	0.138852	0.000179
C40	C	0.353746	0.151815	0.111682
C41	C	0.404168	0.153036	0.111668
C42	C	0.404156	0.153040	-0.111447
C43	C	0.353737	0.151825	-0.111433
C44	C	0.328534	0.151208	0.000142
O45	O	0.273966	0.149936	-0.206226
O46	O	0.273948	0.149866	0.206568
C47	C	0.046188	0.144405	0.111718
C48	C	0.020976	0.143797	0.000168
C49	C	0.046182	0.144406	-0.111387
C50	C	-0.029445	0.142591	0.000171
C51	C	-0.054652	0.141983	0.111725
C52	C	-0.029437	0.142580	0.223277
C53	C	0.020982	0.143797	0.223272
C54	C	0.020967	0.143808	-0.222939
C55	C	-0.029451	0.142593	-0.222925
C56	C	-0.054657	0.141985	-0.111370
C57	C	0.659735	0.135166	0.000177
C58	C	0.713399	0.136440	0.000184
C59	C	0.568406	0.352599	0.000142
C60	C	0.569692	0.478570	0.000136
N61	N	0.571381	0.145031	0.318982
N62	N	0.571397	0.145044	-0.318674
C63	C	0.571388	0.145044	0.569988
C64	C	0.571383	0.145040	0.430311
H65	H	0.424693	0.153536	0.202516
H66	H	0.192760	0.147934	0.314101
H67	H	-0.049975	0.142107	-0.313776
H68	H	0.101301	0.145731	0.314109
H69	H	-0.281919	0.136570	-0.202213
H70	H	0.333231	0.151323	0.202537
H71	H	-0.190440	0.138750	0.202582
H72	H	-0.281918	0.136545	0.202577
H73	H	-0.190455	0.138741	-0.202226
H74	H	0.333208	0.151347	-0.202273
H75	H	0.101292	0.145720	-0.313806
H76	H	0.192755	0.147911	-0.313806
H77	H	0.424688	0.153540	-0.202272
H78	H	0.041505	0.144293	0.314115
H79	H	0.041486	0.144300	-0.313782
H80	H	-0.049969	0.142091	0.314109
