data_functionalizedCrystal
_audit_creation_method	'MofGen! by Chris Wilmer'
_symmetry_space_group_name_H-M	'P1'
_symmetry_Int_Tables_number	1
_symmetry_cell_setting	triclinic
loop_
_symmetry_equiv_pos_as_xyz
  x,y,z
_cell_length_a	14.519709
_cell_length_b	14.519731
_cell_length_c	13.930277
_cell_angle_alpha	89.994465
_cell_angle_beta	89.998398
_cell_angle_gamma	83.684499
loop_
_atom_site_label
_atom_site_type_symbol
_atom_site_fract_x
_atom_site_fract_y
_atom_site_fract_z
O1	O	1.223880	0.120889	-0.079708
O2	O	1.557214	0.454223	0.253625
O3	O	1.890547	0.787556	0.586959
O4	O	0.955405	0.135126	-0.079738
O5	O	1.288738	0.468459	0.253596
O6	O	1.622071	0.801792	0.586929
O7	O	1.096751	-0.006230	-0.079713
O8	O	1.430084	0.327104	0.253620
O9	O	1.763417	0.660437	0.586953
O10	O	1.082535	0.262245	-0.079732
O11	O	1.415868	0.595578	0.253601
O12	O	1.749201	0.928911	0.586934
O13	O	1.096731	-0.006233	0.079949
O14	O	1.430064	0.327101	0.413282
O15	O	1.763398	0.660434	0.746615
O16	O	0.955385	0.135123	0.079924
O17	O	1.288718	0.468456	0.413258
O18	O	1.622052	0.801789	0.746591
O19	O	1.223861	0.120886	0.079954
O20	O	1.557194	0.454220	0.413287
O21	O	1.890527	0.787553	0.746620
Zn22	Zn	1.089620	0.128004	0.105289
Zn23	Zn	1.422953	0.461337	0.438622
Zn24	Zn	1.756286	0.794671	0.771955
Zn25	Zn	1.089646	0.128008	-0.105073
Zn26	Zn	1.422979	0.461341	0.228261
Zn27	Zn	1.756312	0.794675	0.561594
O28	O	1.082515	0.262242	0.079929
O29	O	1.415848	0.595575	0.413263
O30	O	1.749182	0.928908	0.746596
C31	C	0.921035	0.134461	0.000090
C32	C	1.254368	0.467794	0.333423
C33	C	1.587702	0.801127	0.666756
C34	C	0.818654	0.132473	0.000079
C35	C	1.151987	0.465806	0.333412
C36	C	1.485320	0.799139	0.666745
C37	C	0.443757	0.125153	0.000123
C38	C	0.777091	0.458486	0.333456
C39	C	1.110424	0.791820	0.666789
C40	C	0.548065	0.127186	0.000110
C41	C	0.881399	0.460519	0.333443
C42	C	1.214732	0.793852	0.666777
C43	C	0.631202	0.128813	0.000100
C44	C	0.964535	0.462146	0.333433
C45	C	1.297869	0.795479	0.666766
C46	C	0.735517	0.130846	0.000089
C47	C	1.068850	0.464179	0.333422
C48	C	1.402183	0.797512	0.666756
C49	C	1.096075	-0.040591	0.000118
C50	C	1.429408	0.292743	0.333451
C51	C	1.762741	0.626076	0.666784
C52	C	1.094079	-0.142971	0.000118
C53	C	1.427412	0.190363	0.333451
C54	C	1.760745	0.523696	0.666785
C55	C	1.092457	-0.226115	0.000116
C56	C	1.425790	0.107218	0.333449
C57	C	1.759123	0.440552	0.666782
C58	C	1.090430	-0.330424	0.000108
C59	C	1.423763	0.002910	0.333441
C60	C	1.757097	0.336243	0.666775
C61	C	1.088822	-0.413563	0.000102
C62	C	1.422155	-0.080229	0.333435
C63	C	1.755488	0.253104	0.666768
C64	C	1.086795	-0.517878	0.000096
C65	C	1.420129	-0.184545	0.333429
C66	C	1.753462	0.148789	0.666763
C67	C	1.258230	0.121551	0.000124
C68	C	1.591564	0.454885	0.333458
C69	C	1.924897	0.788218	0.666791
C70	C	1.360612	0.123539	0.000129
C71	C	1.693945	0.456873	0.333463
C72	C	2.027279	0.790206	0.666796
C73	C	1.083191	0.296603	0.000096
C74	C	1.416524	0.629936	0.333430
C75	C	1.749858	0.963269	0.666763
C76	C	1.085187	0.398983	0.000090
C77	C	1.418520	0.732316	0.333423
C78	C	1.751854	1.065649	0.666756
N79	N	1.089609	0.128001	0.248855
N80	N	1.422942	0.461334	0.582188
N81	N	1.756275	0.794667	0.915521
N82	N	1.089664	0.128004	-0.248639
N83	N	1.422997	0.461337	0.084695
N84	N	1.756331	0.794671	0.418028
C85	C	1.027055	0.190576	0.701113
C86	C	1.360389	0.523909	1.034447
C87	C	1.693722	0.857242	1.367780
C88	C	1.152261	0.065433	0.701104
C89	C	1.485595	0.398767	1.034438
C90	C	1.818928	0.732100	1.367771
C91	C	1.152251	0.065430	0.600609
C92	C	1.485584	0.398764	0.933942
C93	C	1.818917	0.732097	1.267275
C94	C	1.089642	0.128002	0.550361
C95	C	1.422975	0.461335	0.883694
C96	C	1.756309	0.794669	1.217027
C97	C	1.027044	0.190576	0.600608
C98	C	1.360378	0.523910	0.933942
C99	C	1.693711	0.857243	1.267275
C100	C	1.214853	0.002863	0.550353
C101	C	1.548187	0.336197	0.883687
C102	C	1.881520	0.669530	1.217020
C103	C	1.214846	0.002859	0.449851
C104	C	1.548179	0.336192	0.783185
C105	C	1.881512	0.669525	1.116518
C106	C	1.152232	0.065427	0.399602
C107	C	1.485565	0.398760	0.732935
C108	C	1.818898	0.732093	1.066268
C109	C	1.089631	0.128003	0.449856
C110	C	1.422964	0.461336	0.783189
C111	C	1.756297	0.794669	1.116522
C112	C	1.027022	0.190574	0.399608
C113	C	1.360356	0.523908	0.732941
C114	C	1.693689	0.857241	1.066274
C115	C	0.964416	0.253147	0.449860
C116	C	1.297749	0.586480	0.783193
C117	C	1.631083	0.919814	1.116526
C118	C	0.964430	0.253144	0.550359
C119	C	1.297764	0.586478	0.883692
C120	C	1.631097	0.919811	1.217025
C121	C	1.152217	0.065429	0.299103
C122	C	1.485551	0.398763	0.632436
C123	C	1.818884	0.732096	0.965769
C124	C	1.027011	0.190575	0.299103
C125	C	1.360344	0.523909	0.632436
C126	C	1.693678	0.857242	0.965769
H127	H	0.976024	0.241526	0.258197
H128	H	1.309357	0.574859	0.591530
H129	H	1.642691	0.908192	0.924863
Cl130	Cl	0.885717	0.331811	0.386680
Cl131	Cl	1.219050	0.665145	0.720013
Cl132	Cl	1.552384	0.998478	1.053347
H133	H	0.913460	0.304089	0.591280
H134	H	1.246793	0.637423	0.924613
H135	H	1.580126	0.970756	1.257947
Cl136	Cl	1.293564	-0.075789	0.613519
Cl137	Cl	1.626898	0.257544	0.946853
Cl138	Cl	1.960231	0.590878	1.280186
Cl139	Cl	0.948350	0.269232	0.764282
Cl140	Cl	1.281684	0.602565	1.097615
Cl141	Cl	1.615017	0.935898	1.430949
Cl142	Cl	1.230972	-0.013219	0.764270
Cl143	Cl	1.564306	0.320114	1.097604
Cl144	Cl	1.897639	0.653448	1.430937
Cl145	Cl	1.230922	-0.013222	0.235935
Cl146	Cl	1.564255	0.320111	0.569269
Cl147	Cl	1.897588	0.653445	0.902602
H148	H	1.265821	-0.048092	0.408942
H149	H	1.599155	0.285242	0.742276
H150	H	1.932488	0.618575	1.075609
