data_functionalizedCrystal
_audit_creation_method	'MofGen! by Chris Wilmer'
_symmetry_space_group_name_H-M	'P1'
_symmetry_Int_Tables_number	1
_symmetry_cell_setting	triclinic
loop_
_symmetry_equiv_pos_as_xyz
  x,y,z
_cell_length_a	13.032831
_cell_length_b	13.031981
_cell_length_c	13.032268
_cell_angle_alpha	89.068348
_cell_angle_beta	90.886977
_cell_angle_gamma	89.102241
loop_
_atom_site_label
_atom_site_type_symbol
_atom_site_fract_x
_atom_site_fract_y
_atom_site_fract_z
Zn1	Zn	1.423902	-0.684142	-0.684409
Zn2	Zn	1.429191	-0.835076	-0.491156
Zn3	Zn	1.278373	-0.641823	-0.496615
Zn4	Zn	1.236036	-0.829599	-0.642053
O5	O	1.341876	-0.747660	-0.578558
O6	O	1.566344	-0.724167	-0.674215
O7	O	1.429117	-0.794022	-0.350137
O8	O	1.313183	-0.505686	-0.541537
O9	O	1.570230	-0.835057	-0.532233
O10	O	1.420102	-0.536778	-0.679509
O11	O	1.318311	-0.652040	-0.354147
O12	O	1.131017	-0.646729	-0.500466
O13	O	1.241025	-0.825722	-0.789415
O14	O	1.099912	-0.784687	-0.607319
O15	O	1.379049	-0.718856	-0.820534
O16	O	1.388064	-0.976100	-0.491162
O17	O	1.246154	-0.972076	-0.602026
C18	C	1.078713	-0.710522	-0.549889
C19	C	0.966125	-0.694662	-0.537645
C20	C	0.900569	-0.755938	-0.584949
C21	C	0.784203	-0.739547	-0.572295
C22	C	1.313113	-1.010849	-0.541431
C23	C	1.300896	-1.123459	-0.525591
C24	C	1.348303	-1.188965	-0.586851
C25	C	1.335677	-1.305354	-0.570482
C26	C	1.606066	-0.784944	-0.607340
C27	C	1.718648	-0.800832	-0.619605
C28	C	1.304725	-0.776399	-0.842755
C29	C	1.288893	-0.788645	-0.955340
C30	C	1.370775	-0.483450	-0.615856
C31	C	1.383090	-0.370859	-0.631750
C32	C	1.350126	-0.741230	-1.020931
C33	C	1.333765	-0.753886	-1.137293
C34	C	1.378948	-0.718969	-0.315406
C35	C	1.395007	-0.706464	-0.202883
H36	H	0.748666	-0.865427	-0.669482
C37	C	1.449524	-1.330821	-0.717998
C38	C	1.410520	-1.364232	-0.812207
C39	C	1.471683	-1.327359	-0.891679
H40	H	1.517833	-1.356035	-0.708381
H41	H	1.449145	-1.257921	-0.717630
H42	H	1.410910	-1.437117	-0.812574
H43	H	1.342219	-1.339020	-0.821857
H44	H	1.471304	-1.254459	-0.891311
H45	H	1.539989	-1.352575	-0.882052
H46	H	1.445223	-1.350014	-0.955609
C47	C	1.234131	-1.163495	-0.439611
C48	C	1.133557	-1.126171	-0.454252
C49	C	1.072019	-1.163038	-0.375074
H50	H	1.260305	-1.140932	-0.375542
H51	H	1.234422	-1.236393	-0.440051
H52	H	1.133270	-1.053289	-0.453802
H53	H	1.107352	-1.148731	-0.518305
H54	H	1.072310	-1.235935	-0.375514
H55	H	1.098202	-1.140473	-0.311011
H56	H	1.003771	-1.137727	-0.385002
H57	H	1.224351	-0.838601	-0.985332
H58	H	1.414660	-0.691262	-0.990939
C59	C	1.414883	-1.148664	-0.672857
C60	C	1.414197	-1.041236	-0.671972
C61	C	1.475531	-1.004079	-0.751178
H62	H	1.388648	-1.171141	-0.736933
H63	H	1.483201	-1.173844	-0.663096
H64	H	1.345892	-1.016067	-0.681741
H65	H	1.440440	-1.018732	-0.607914
H66	H	1.543849	-1.029259	-0.741418
H67	H	1.449291	-1.026563	-0.815249
H68	H	1.475081	-0.931187	-0.750583
C69	C	1.247797	-0.820516	-1.177467
C70	C	1.248684	-0.819854	-1.284893
C71	C	1.169519	-0.881232	-1.321938
H72	H	1.183709	-0.794298	-1.154963
H73	H	1.257596	-0.888830	-1.152239
H74	H	1.238878	-0.751553	-1.310112
H75	H	1.312754	-0.846081	-1.307424
H76	H	1.179317	-0.949547	-1.296709
H77	H	1.105436	-0.855009	-1.299427
H78	H	1.170116	-0.880799	-1.394829
C79	C	0.925903	-0.608627	-0.471139
C80	C	0.818482	-0.609503	-0.471773
C81	C	0.781398	-0.530275	-0.410501
H82	H	0.948413	-0.544558	-0.497453
H83	H	0.951094	-0.618371	-0.402820
H84	H	0.793301	-0.599750	-0.540079
H85	H	0.795944	-0.673554	-0.445451
H86	H	0.806589	-0.540019	-0.342182
H87	H	0.803915	-0.466211	-0.436821
H88	H	0.708510	-0.530864	-0.410916
H89	H	1.285735	-1.335432	-0.505916
C90	C	1.481025	-0.639898	-1.162710
C91	C	1.480165	-0.640588	-1.055283
C92	C	1.559388	-0.579281	-1.018240
H93	H	1.471297	-0.571573	-1.187895
H94	H	1.545085	-0.666182	-1.185258
H95	H	1.416121	-0.614299	-1.032745
H96	H	1.489906	-0.708897	-1.030071
H97	H	1.623447	-0.605565	-1.040788
H98	H	1.549653	-0.510960	-1.043432
H99	H	1.558820	-0.579748	-0.945348
H100	H	0.754183	-0.674943	-0.522429
C101	C	0.940732	-0.841933	-0.651538
C102	C	0.998628	-0.800246	-0.731175
C103	C	1.035651	-0.879436	-0.792530
H104	H	0.884615	-0.878304	-0.679682
H105	H	0.982710	-0.887552	-0.610992
H106	H	0.956652	-0.754645	-0.771715
H107	H	1.054760	-0.763883	-0.703061
H108	H	1.077629	-0.925056	-0.751984
H109	H	0.979527	-0.915802	-0.820666
H110	H	1.074945	-0.851164	-0.846565
