data_functionalizedCrystal
_audit_creation_method	'MofGen! by Chris Wilmer'
_symmetry_space_group_name_H-M	'P1'
_symmetry_Int_Tables_number	1
_symmetry_cell_setting	triclinic
loop_
_symmetry_equiv_pos_as_xyz
  x,y,z
_cell_length_a	10.654550
_cell_length_b	17.038272
_cell_length_c	9.130313
_cell_angle_alpha	89.998262
_cell_angle_beta	89.996220
_cell_angle_gamma	87.798229
loop_
_atom_site_label
_atom_site_type_symbol
_atom_site_fract_x
_atom_site_fract_y
_atom_site_fract_z
O1	O	1.678036	0.109874	-0.121922
O2	O	1.313530	0.120343	-0.121899
O3	O	1.493617	0.001281	-0.121899
O4	O	1.497950	0.228936	-0.121923
O5	O	1.493615	0.001284	0.121700
O6	O	1.313528	0.120346	0.121700
O7	O	1.678034	0.109878	0.121676
Cu8	Cu	1.495781	0.115112	0.143931
Cu9	Cu	1.495783	0.115108	-0.144153
O10	O	1.497948	0.228939	0.121676
C11	C	1.266660	0.119576	-0.000097
C12	C	1.127003	0.117276	-0.000087
C13	C	1.054026	0.187378	-0.000116
C14	C	0.922804	0.185212	-0.000141
C15	C	0.937548	0.042837	-0.000115
C16	C	1.068767	0.045004	-0.000080
C17	C	1.045513	0.269577	-0.000137
C18	C	0.914292	0.267411	-0.000162
C19	C	1.489675	-0.027867	-0.000100
C20	C	1.477918	-0.114726	-0.000099
C21	C	1.585862	-0.164237	-0.000105
C22	C	1.574808	-0.245850	-0.000118
C23	C	1.455808	-0.277949	-0.000115
C24	C	1.347856	-0.228431	-0.000114
C25	C	1.358911	-0.146821	-0.000111
C26	C	1.416750	-0.523925	-0.000133
C27	C	1.405702	-0.605542	-0.000131
C28	C	1.632656	-0.622955	-0.000137
C29	C	1.643701	-0.541342	-0.000126
C30	C	1.535749	-0.491831	-0.000133
C31	C	1.444505	-0.361370	-0.000124
C32	C	1.547052	-0.408412	-0.000134
C33	C	1.724905	0.110645	-0.000129
C34	C	1.864562	0.112944	-0.000148
C35	C	1.501889	0.258088	-0.000126
C36	C	1.513646	0.344947	-0.000136
N37	N	1.495788	0.115114	0.346553
N38	N	1.495785	0.115100	-0.346776
C39	C	1.575554	0.062412	0.423205
C40	C	1.575550	0.062403	0.576542
C41	C	1.416010	0.167805	0.576561
C42	C	1.416009	0.167810	0.423227
C43	C	1.667667	0.001561	0.423195
C44	C	1.667663	0.001552	0.576532
H45	H	1.083600	0.295749	-0.105312
C46	C	1.631123	-0.079656	0.366962
H47	H	1.631128	-0.079648	0.262909
H48	H	1.549666	-0.090823	0.401647
H49	H	1.690043	-0.118600	0.401620
C50	C	0.855698	0.300971	0.141897
H51	H	0.920406	0.317420	0.205175
H52	H	0.809562	0.261614	0.189104
H53	H	0.800989	0.344596	0.119048
C54	C	1.149037	-0.032108	-0.000032
H55	H	1.095558	-0.075458	-0.000044
H56	H	1.200510	-0.034215	0.084931
H57	H	1.200554	-0.034229	-0.084976
C58	C	0.861785	0.309240	-0.137892
H59	H	0.772739	0.307776	-0.137894
H60	H	0.894194	0.283439	-0.222840
H61	H	0.886015	0.362320	-0.137891
C62	C	1.716763	-0.128935	-0.000108
H63	H	1.779466	-0.170114	-0.000126
H64	H	1.725796	-0.097463	0.084840
H65	H	1.725793	-0.097460	-0.085067
H66	H	1.328847	-0.483623	-0.000138
H67	H	0.890116	-0.016005	-0.000131
C68	C	1.619339	-0.075211	0.640787
H69	H	1.597826	-0.109391	0.563296
H70	H	1.547267	-0.063723	0.699359
H71	H	1.683131	-0.099884	0.699332
H72	H	1.720544	-0.663275	-0.000135
C73	C	1.328268	0.225770	0.660907
H74	H	1.339697	0.218222	0.763206
H75	H	1.243502	0.216790	0.635782
H76	H	1.347497	0.278064	0.635782
C77	C	1.089178	0.313014	0.137569
H78	H	1.018091	0.329401	0.194188
H79	H	1.134107	0.357651	0.109244
H80	H	1.142262	0.278781	0.194241
H81	H	1.740603	-0.515213	-0.000128
C82	C	1.240177	-0.092355	-0.000106
H83	H	1.263803	-0.039154	-0.000121
H84	H	1.191733	-0.102151	0.084841
H85	H	1.191749	-0.102152	-0.085067
H86	H	1.760620	0.020614	0.375629
C87	C	1.693547	-0.300309	-0.000109
H88	H	1.766001	-0.269503	-0.000089
H89	H	1.693965	-0.332506	-0.085057
H90	H	1.693940	-0.332507	0.084851
C91	C	1.274797	-0.640850	-0.000153
H92	H	1.212087	-0.599676	-0.000175
H93	H	1.265753	-0.672328	0.084791
H94	H	1.265789	-0.672321	-0.085116
C95	C	1.799714	0.019661	0.632753
H96	H	1.854021	0.027123	0.551822
H97	H	1.831492	-0.022995	0.690546
H98	H	1.795091	0.066041	0.690561
H99	H	1.250963	-0.254573	-0.000121
H100	H	1.643941	-0.382273	-0.000169
H101	H	1.347615	-0.387514	-0.000119
C102	C	1.328259	0.225778	0.338914
H103	H	1.280757	0.257163	0.406543
H104	H	1.272955	0.197331	0.279100
H105	H	1.376937	0.258614	0.279100
