data_functionalizedCrystal
_audit_creation_method	'MofGen! by Chris Wilmer'
_symmetry_space_group_name_H-M	'P1'
_symmetry_Int_Tables_number	1
_symmetry_cell_setting	triclinic
loop_
_symmetry_equiv_pos_as_xyz
  x,y,z
_cell_length_a	10.723022
_cell_length_b	9.798715
_cell_length_c	10.723024
_cell_angle_alpha	89.998022
_cell_angle_beta	95.532452
_cell_angle_gamma	90.003391
loop_
_atom_site_label
_atom_site_type_symbol
_atom_site_fract_x
_atom_site_fract_y
_atom_site_fract_z
O1	O	1.657188	0.113478	-0.175015
O2	O	1.294036	0.113483	-0.191770
O3	O	1.483989	0.113475	-0.001817
O4	O	1.467236	0.113486	-0.364969
O5	O	1.483975	-0.113507	-0.001816
O6	O	1.294022	-0.113499	-0.191770
O7	O	1.657174	-0.113504	-0.175015
Zn8	Zn	1.475596	-0.149540	-0.183392
Zn9	Zn	1.475614	0.149519	-0.183393
O10	O	1.467221	-0.113496	-0.364969
C11	C	1.247529	-0.000008	-0.190551
C12	C	1.108975	-0.000006	-0.186904
N13	N	1.475592	-0.353640	-0.183391
C14	C	0.890796	-0.000001	-0.289421
C15	C	1.033999	-0.000002	-0.293192
C16	C	1.555348	-0.421420	-0.103283
C17	C	1.555368	-0.578582	-0.103279
C18	C	1.703681	-0.000010	-0.176234
C19	C	1.842235	-0.000003	-0.179881
C20	C	1.482763	-0.000014	0.044683
C21	C	1.479115	-0.000009	0.183238
N22	N	1.475628	0.353619	-0.183384
C23	C	1.468448	-0.000004	-0.411468
C24	C	1.472095	0.000000	-0.550023
C25	C	1.585403	-0.000009	0.258221
C26	C	1.581635	-0.000004	0.401424
H27	H	0.826354	0.000011	-0.380409
H28	H	1.381100	-0.000010	0.385552
H29	H	1.679188	-0.000018	0.216399
C30	C	1.352409	-0.000010	0.239730
N31	N	1.256971	-0.000014	0.282278
H32	H	1.075811	-0.000008	-0.386980
H33	H	1.067171	0.000028	-0.093113
H34	H	0.906678	0.000002	-0.088892
C35	C	1.647556	-0.342634	-0.010610
N36	N	1.717004	-0.283295	0.059201
H37	H	1.407346	-0.588102	-0.251976
C38	C	1.647617	-0.657324	-0.010622
N39	N	1.717100	-0.716636	0.059172
H40	H	1.407320	-0.411961	-0.251967
H41	H	1.672625	-0.000009	0.465857
