data_functionalizedCrystal
_audit_creation_method	'MofGen! by Chris Wilmer'
_symmetry_space_group_name_H-M	'P1'
_symmetry_Int_Tables_number	1
_symmetry_cell_setting	triclinic
loop_
_symmetry_equiv_pos_as_xyz
  x,y,z
_cell_length_a	16.120676
_cell_length_b	16.120484
_cell_length_c	16.120297
_cell_angle_alpha	95.614431
_cell_angle_beta	84.076049
_cell_angle_gamma	90.116649
loop_
_atom_site_label
_atom_site_type_symbol
_atom_site_fract_x
_atom_site_fract_y
_atom_site_fract_z
Zn1	Zn	1.231585	0.416123	0.429839
Zn2	Zn	1.231479	0.548807	0.297155
Zn3	Zn	1.099617	0.402697	0.296473
Zn4	Zn	1.084690	0.548772	0.443983
O5	O	1.161843	0.479100	0.366863
O6	O	1.348231	0.439357	0.406605
O7	O	1.220190	0.523821	0.179802
O8	O	1.123413	0.287816	0.307960
O9	O	1.348154	0.536840	0.309122
O10	O	1.220369	0.297680	0.405944
O11	O	1.123312	0.416474	0.179302
O12	O	0.980976	0.416440	0.321674
O13	O	1.097973	0.536780	0.559369
O14	O	0.970010	0.523761	0.430049
O15	O	1.205896	0.439323	0.548978
O16	O	1.205717	0.665465	0.322836
O17	O	1.097871	0.665438	0.430710
C18	C	0.945244	0.468640	0.377323
C19	C	0.852580	0.464187	0.381819
C20	C	1.150185	0.695703	0.378399
C21	C	1.145272	0.788371	0.383359
C22	C	1.150281	0.489545	0.585428
C23	C	1.145355	0.493996	0.678568
C24	C	1.379287	0.489600	0.356362
C25	C	1.471949	0.494075	0.351887
C26	C	1.682927	0.456008	0.389979
C27	C	1.641597	0.502252	0.343730
C28	C	1.547196	0.497701	0.348270
C29	C	1.777336	0.460558	0.385440
C30	C	1.173568	0.261653	0.355298
C31	C	1.178565	0.168990	0.350370
C32	C	1.136307	0.958039	0.392431
C33	C	1.187527	0.999327	0.341301
C34	C	1.182539	1.093736	0.346349
C35	C	1.141294	0.863622	0.387384
C36	C	1.173410	0.468637	0.149142
C37	C	1.178511	0.463959	0.055982
C38	C	1.136330	0.502103	0.849095
C39	C	1.187533	0.455854	0.885461
C40	C	1.182512	0.460365	0.980348
C41	C	1.141350	0.497593	0.754199
H42	H	1.677111	0.545263	0.300728
H43	H	1.647415	0.413002	0.432979
O44	O	1.244234	0.956785	0.284573
C45	C	1.301016	0.822535	0.227809
C46	C	1.236752	0.870614	0.292079
H47	H	1.295001	0.752859	0.233868
H48	H	1.289113	0.835647	0.161811
H49	H	1.366558	0.843521	0.240208
H50	H	1.171186	0.849657	0.279758
H51	H	1.248728	0.857500	0.358056
O52	O	1.079545	1.000574	0.449094
C53	C	1.022817	1.134835	0.505895
C54	C	1.087126	1.086754	0.441677
H55	H	1.028936	1.204520	0.499932
H56	H	0.957248	1.113957	0.493476
H57	H	1.034697	1.121617	0.571868
H58	H	1.075324	1.099948	0.375680
H59	H	1.152674	1.107638	0.454169
O60	O	1.244298	0.404636	0.837471
C61	C	1.301048	0.353311	0.697767
C62	C	1.236746	0.411368	0.752019
H63	H	1.294952	0.358720	0.628669
H64	H	1.366618	0.371984	0.712385
H65	H	1.289137	0.286196	0.712093
H66	H	1.248579	0.478500	0.737724
H67	H	1.171197	0.392624	0.737393
H68	H	1.088726	0.545082	0.889220
