data_functionalizedCrystal
_audit_creation_method	'MofGen! by Chris Wilmer'
_symmetry_space_group_name_H-M	'P1'
_symmetry_Int_Tables_number	1
_symmetry_cell_setting	triclinic
loop_
_symmetry_equiv_pos_as_xyz
  x,y,z
_cell_length_a	10.967926
_cell_length_b	10.967819
_cell_length_c	15.186229
_cell_angle_alpha	77.867327
_cell_angle_beta	102.130615
_cell_angle_gamma	97.833052
loop_
_atom_site_label
_atom_site_type_symbol
_atom_site_fract_x
_atom_site_fract_y
_atom_site_fract_z
O1	O	-0.175053	1.657215	-0.351275
O2	O	0.324947	2.157215	0.148725
O3	O	-0.191800	1.294057	-0.298708
O4	O	0.308200	1.794057	0.201292
O5	O	-0.001851	1.484011	-0.298707
O6	O	0.498149	1.984011	0.201293
O7	O	-0.365003	1.467261	-0.351276
O8	O	0.134997	1.967261	0.148724
O9	O	-0.001848	1.483998	-0.152247
O10	O	0.498152	1.983998	0.347753
O11	O	-0.191798	1.294044	-0.152248
O12	O	0.308202	1.794044	0.347752
O13	O	-0.175050	1.657202	-0.204815
O14	O	0.324950	2.157202	0.295185
Zn15	Zn	-0.183424	1.475621	-0.155278
Zn16	Zn	0.316576	1.975621	0.344722
Zn17	Zn	-0.183427	1.475638	-0.348245
Zn18	Zn	0.316573	1.975638	0.151755
O19	O	-0.365000	1.467248	-0.204816
O20	O	0.135000	1.967248	0.295184
C21	C	-0.190579	1.247550	-0.218236
C22	C	0.309421	1.747550	0.281764
C23	C	-0.186929	1.108993	-0.196657
C24	C	0.313071	1.608993	0.303343
C25	C	-0.181544	0.904028	-0.240622
C26	C	0.318456	1.404028	0.259378
C27	C	-0.185307	1.047234	-0.262919
C28	C	0.314693	1.547234	0.237081
C29	C	-0.411501	1.468474	-0.285288
C30	C	0.088499	1.968474	0.214712
C31	C	-0.550055	1.472123	-0.306868
C32	C	-0.050055	1.972123	0.193132
C33	C	-0.611826	1.473744	-0.240619
C34	C	-0.111826	1.973744	0.259381
C35	C	-0.755028	1.477515	-0.262921
C36	C	-0.255028	1.977515	0.237079
C37	C	0.044650	1.482785	-0.218237
C38	C	0.544650	1.982785	0.281763
C39	C	0.183204	1.479135	-0.196663
C40	C	0.683204	1.979135	0.303337
C41	C	-0.176272	1.703709	-0.285289
C42	C	0.323728	2.203709	0.214711
C43	C	-0.179922	1.842265	-0.306874
C44	C	0.320078	2.342265	0.193126
N45	N	-0.183420	1.475618	-0.023584
N46	N	0.316580	1.975618	0.476416
N47	N	-0.183421	1.475650	-0.479938
N48	N	0.316579	1.975650	0.020062
C49	C	-0.099340	1.559759	0.202130
C50	C	0.400660	2.059759	0.702130
C51	C	-0.099337	1.559763	0.294319
C52	C	0.400663	2.059763	0.794319
C53	C	-0.267505	1.391500	0.294342
C54	C	0.232495	1.891500	0.794342
C55	C	-0.267501	1.391491	0.202156
C56	C	0.232499	1.891491	0.702156
C57	C	-0.183420	1.475628	0.156051
C58	C	0.316580	1.975628	0.656051
C59	C	-0.183421	1.475641	0.340426
C60	C	0.316579	1.975641	0.840426
C61	C	-0.183419	1.475644	0.440382
C62	C	0.316581	1.975644	0.940382
C63	C	-0.183420	1.475623	0.056089
C64	C	0.316580	1.975623	0.556089
H65	H	-0.185539	1.055856	-0.123424
H66	H	0.314461	1.555856	0.376576
C67	C	-0.826798	1.479416	-0.361859
C68	C	-0.326798	1.979416	0.138141
N69	N	-0.880856	1.480852	-0.436378
N70	N	-0.380856	1.980852	0.063622
H71	H	-0.558693	1.472332	-0.167388
H72	H	-0.058693	1.972332	0.332612
H73	H	-0.186712	1.100371	-0.336153
H74	H	0.313288	1.600371	0.163847
C75	C	-0.360058	1.298993	0.151448
C76	C	0.139942	1.798993	0.651448
N77	N	-0.429788	1.229344	0.113250
N78	N	0.070212	1.729344	0.613250
C79	C	-0.621829	1.474024	-0.405801
C80	C	-0.121829	1.974024	0.094199
N81	N	-0.675888	1.475460	-0.480320
N82	N	-0.175888	1.975460	0.019680
H83	H	-0.181327	0.895407	-0.380103
H84	H	0.318673	1.395407	0.119897
H85	H	-0.030874	1.628266	0.164594
H86	H	0.469126	2.128266	0.664594
H87	H	-0.763670	1.477721	-0.123427
H88	H	-0.263670	1.977721	0.376573
H89	H	-0.030869	1.628269	0.331835
H90	H	0.469131	2.128269	0.831835
C91	C	-0.359988	1.298953	0.345066
C92	C	0.140012	1.798953	0.845066
N93	N	-0.429647	1.229243	0.383271
N94	N	0.070353	1.729243	0.883271
H95	H	-0.180153	0.850884	-0.167394
H96	H	0.319847	1.350884	0.332606
