data_functionalizedCrystal
_audit_creation_method	'MofGen! by Chris Wilmer'
_symmetry_space_group_name_H-M	'P1'
_symmetry_Int_Tables_number	1
_symmetry_cell_setting	triclinic
loop_
_symmetry_equiv_pos_as_xyz
  x,y,z
_cell_length_a	19.288859
_cell_length_b	10.723022
_cell_length_c	18.366186
_cell_angle_alpha	89.994974
_cell_angle_beta	89.990083
_cell_angle_gamma	83.800476
loop_
_atom_site_label
_atom_site_type_symbol
_atom_site_fract_x
_atom_site_fract_y
_atom_site_fract_z
O1	O	0.922368	0.155622	-0.060562
O2	O	0.720243	0.176628	-0.060560
O3	O	0.825968	-0.015549	-0.060559
O4	O	0.816642	0.347800	-0.060564
O5	O	0.825950	-0.015559	0.060541
O6	O	0.720225	0.176619	0.060539
O7	O	0.922349	0.155613	0.060537
Zn8	Zn	0.821284	0.166114	0.079765
Zn9	Zn	0.821308	0.166127	-0.079788
O10	O	0.816624	0.347790	0.060535
C11	C	0.694353	0.175949	-0.000010
C12	C	0.617236	0.173924	-0.000010
C13	C	0.053839	0.272985	-0.000012
C14	C	0.126298	0.274899	-0.000016
C15	C	0.170272	0.162138	-0.000013
C16	C	0.141781	0.047455	-0.000025
C17	C	0.069323	0.045544	-0.000028
C18	C	0.290989	0.078038	0.042417
C19	C	0.363445	0.079953	0.042425
C20	C	0.393756	0.168026	-0.000006
C21	C	0.351601	0.254204	-0.042435
C22	C	0.279143	0.252294	-0.042439
C23	C	0.248841	0.164197	-0.000010
C24	C	0.500807	0.284777	-0.000003
C25	C	0.573267	0.286686	-0.000011
C26	C	0.588749	0.059238	-0.000013
C27	C	0.516289	0.057333	-0.000012
C28	C	0.472323	0.170106	-0.000003
C29	C	0.825281	-0.062039	-0.000010
C30	C	0.823251	-0.200551	-0.000012
C31	C	0.762283	-0.247829	-0.000013
C32	C	0.760183	-0.390988	-0.000016
C33	C	0.948239	0.156292	-0.000014
C34	C	1.025356	0.158317	-0.000020
C35	C	0.817312	0.394280	-0.000015
C36	C	0.819341	0.532792	-0.000017
N37	N	0.821273	0.166105	0.188656
N38	N	0.821325	0.166126	-0.188680
C39	C	0.868104	0.081051	0.226758
C40	C	0.868108	0.081045	0.302985
C41	C	0.821288	0.166115	0.341109
C42	C	0.774449	0.251176	0.302999
C43	C	0.774441	0.251171	0.226772
C44	C	0.812730	0.279808	0.461868
C45	C	0.812742	0.279815	0.538093
C46	C	0.821308	0.166131	0.576217
C47	C	0.829876	0.052435	0.538106
C48	C	0.829869	0.052430	0.461880
C49	C	0.821291	0.166130	0.423764
C50	C	0.868146	0.081063	0.696973
C51	C	0.868146	0.081056	0.773202
C52	C	0.774490	0.251198	0.773214
C53	C	0.774487	0.251195	0.696986
C54	C	0.821319	0.166129	0.658870
H55	H	0.596456	0.380066	-0.000011
H56	H	0.711640	-0.182321	-0.000008
O57	O	0.691035	-0.444912	-0.000012
H58	H	0.661082	-0.412695	-0.049371
H59	H	0.836843	-0.040145	0.430853
O60	O	0.890336	-0.287316	-0.000013
H61	H	0.921015	-0.269728	0.049350
H62	H	0.906235	0.011782	0.195726
H63	H	0.177589	-0.044356	-0.000024
H64	H	0.906245	0.011781	0.334013
O65	O	0.888497	-0.413308	-0.000021
H66	H	0.892346	-0.354742	0.049340
O67	O	0.723962	0.342950	0.344117
H68	H	0.691396	0.402097	0.304813
H69	H	0.906278	0.011793	0.665937
O70	O	0.723993	0.342980	0.814311
H71	H	0.689985	0.290636	0.849061
H72	H	0.836851	-0.040138	0.569145
O73	O	0.723984	0.342947	0.655883
H74	H	0.691432	0.402110	0.695197
O75	O	0.258303	-0.016948	0.088198
H76	H	0.200837	-0.003803	0.081067
H77	H	0.906279	0.011788	0.804225
H78	H	0.805770	0.372393	0.569117
H79	H	0.805742	0.372390	0.430834
O80	O	0.723932	0.342910	0.185666
H81	H	0.733243	0.440147	0.200278
O82	O	0.006418	0.394614	-0.000006
H83	H	0.016619	0.449518	-0.049364
O84	O	0.157033	0.398580	0.000003
H85	H	0.114287	0.476676	0.000014
H86	H	0.244823	0.322461	-0.076987
H87	H	0.465007	0.376603	0.000002
O88	O	0.384280	0.349200	-0.088211
H89	H	0.441746	0.336042	-0.081092
H90	H	0.046134	-0.047835	-0.000035
H91	H	0.624551	-0.032574	-0.000016
H92	H	0.397762	0.009788	0.076978
O93	O	0.485561	-0.066346	-0.000003
H94	H	0.528309	-0.144437	0.000007
