data_functionalizedCrystal
_audit_creation_method	'MofGen! by Chris Wilmer'
_symmetry_space_group_name_H-M	'P1'
_symmetry_Int_Tables_number	1
_symmetry_cell_setting	triclinic
loop_
_symmetry_equiv_pos_as_xyz
  x,y,z
_cell_length_a	19.288864
_cell_length_b	19.288865
_cell_length_c	18.366186
_cell_angle_alpha	89.993214
_cell_angle_beta	89.979786
_cell_angle_gamma	83.136245
loop_
_atom_site_label
_atom_site_type_symbol
_atom_site_fract_x
_atom_site_fract_y
_atom_site_fract_z
O1	O	-0.921351	-0.086644	0.060791
O2	O	-0.588017	0.246689	0.394125
O3	O	-0.254684	0.580022	0.727458
O4	O	-0.719090	-0.098333	0.060743
O5	O	-0.385757	0.235000	0.394076
O6	O	-0.052423	0.568334	0.727409
O7	O	-0.826065	0.008642	0.060754
O8	O	-0.492731	0.341975	0.394087
O9	O	-0.159398	0.675308	0.727421
O10	O	-0.814376	-0.193619	0.060780
O11	O	-0.481043	0.139714	0.394113
O12	O	-0.147709	0.473048	0.727447
O13	O	-0.826051	0.008638	-0.060345
O14	O	-0.492718	0.341971	0.272988
O15	O	-0.159384	0.675305	0.606321
O16	O	-0.719076	-0.098337	-0.060357
O17	O	-0.385743	0.234997	0.272977
O18	O	-0.052409	0.568330	0.606310
O19	O	-0.921337	-0.086648	-0.060308
O20	O	-0.588003	0.246685	0.273025
O21	O	-0.254670	0.580019	0.606359
Zn22	Zn	-0.820204	-0.092493	-0.079559
Zn23	Zn	-0.486871	0.240840	0.253774
Zn24	Zn	-0.153538	0.574174	0.587107
Zn25	Zn	-0.820222	-0.092488	0.079994
Zn26	Zn	-0.486889	0.240845	0.413328
Zn27	Zn	-0.153556	0.574179	0.746661
O28	O	-0.814362	-0.193623	-0.060319
O29	O	-0.481029	0.139711	0.273014
O30	O	-0.147695	0.473044	0.606347
C31	C	-0.825682	0.034516	0.000202
C32	C	-0.492348	0.367850	0.333535
C33	C	-0.159015	0.701183	0.666869
C34	C	-0.824553	0.111620	0.000195
C35	C	-0.491219	0.444953	0.333529
C36	C	-0.157886	0.778287	0.666862
C37	C	-0.693207	-0.097959	0.000187
C38	C	-0.359873	0.235375	0.333520
C39	C	-0.026540	0.568708	0.666853
C40	C	-0.616103	-0.096830	0.000167
C41	C	-0.282770	0.236504	0.333501
C42	C	0.050564	0.569837	0.666834
C43	C	-0.947220	-0.087022	0.000250
C44	C	-0.613887	0.246311	0.333583
C45	C	-0.280553	0.579645	0.666916
C46	C	-1.024324	-0.088151	0.000274
C47	C	-0.690990	0.245182	0.333607
C48	C	-0.357657	0.578516	0.666940
C49	C	-0.571407	-0.159598	0.000187
C50	C	-0.238073	0.173736	0.333520
C51	C	0.095260	0.507069	0.666854
C52	C	-0.498960	-0.158537	0.000195
C53	C	-0.165626	0.174796	0.333528
C54	C	0.167707	0.508130	0.666862
C55	C	-0.471212	-0.094705	0.000198
C56	C	-0.137879	0.238629	0.333531
C57	C	0.195455	0.571962	0.666865
C58	C	-0.515918	-0.031929	0.000174
C59	C	-0.182585	0.301405	0.333508
C60	C	0.150748	0.634738	0.666841
C61	C	-0.588364	-0.032991	0.000159
C62	C	-0.255030	0.300342	0.333492
C63	C	0.078303	0.633676	0.666826
C64	C	-0.362955	-0.044524	0.042642
C65	C	-0.029622	0.288809	0.375976
C66	C	0.303712	0.622142	0.709309
C67	C	-0.290510	-0.043464	0.042662
C68	C	0.042823	0.289869	0.375995
C69	C	0.376156	0.623202	0.709329
C70	C	-0.247767	-0.091425	0.000241
C71	C	0.085567	0.241908	0.333575
C72	C	0.418900	0.575242	0.666908
C73	C	-0.277474	-0.140457	-0.042189
C74	C	0.055859	0.192876	0.291144
C75	C	0.389192	0.526209	0.624477
C76	C	-0.349920	-0.141520	-0.042205
C77	C	-0.016587	0.191813	0.291129
C78	C	0.316747	0.525147	0.624462
C79	C	-0.392658	-0.093546	0.000214
C80	C	-0.059325	0.239788	0.333547
C81	C	0.274009	0.573121	0.666881
C82	C	-0.124514	-0.153047	0.000269
C83	C	0.208819	0.180286	0.333602
C84	C	0.542152	0.513619	0.666935
C85	C	-0.052066	-0.151984	0.000272
C86	C	0.281267	0.181349	0.333605
C87	C	0.614600	0.514683	0.666939
C88	C	-0.069026	-0.025374	0.000259
C89	C	0.264307	0.307960	0.333592
C90	C	0.597640	0.641293	0.666925
C91	C	-0.141473	-0.026439	0.000248
C92	C	0.191860	0.306894	0.333581
C93	C	0.525194	0.640228	0.666915
C94	C	-0.169212	-0.090278	0.000256
C95	C	0.164121	0.243056	0.333590
C96	C	0.497454	0.576389	0.666923
C97	C	-0.814745	-0.219497	0.000234
C98	C	-0.481412	0.113836	0.333568
C99	C	-0.148078	0.447170	0.666901
C100	C	-0.815874	-0.296601	0.000246
C101	C	-0.482541	0.036733	0.333579
C102	C	-0.149207	0.370066	0.666912
N103	N	-0.820197	-0.092496	-0.188451
N104	N	-0.486864	0.240838	0.144883
N105	N	-0.153530	0.574171	0.478216
C106	C	-0.887321	0.156316	0.000207
C107	C	-0.553987	0.489650	0.333540
C108	C	-0.220654	0.822983	0.666874
C109	C	-0.886260	0.228763	0.000218
C110	C	-0.552927	0.562097	0.333552
C111	C	-0.219593	0.895430	0.666885
C112	C	-0.822428	0.256511	0.000203
C113	C	-0.489094	0.589844	0.333537
C114	C	-0.155761	0.923178	0.666870
C115	C	-0.759652	0.211805	0.000196
C116	C	-0.426318	0.545138	0.333529
C117	C	-0.092985	0.878471	0.666863
C118	C	-0.760714	0.139359	0.000192
C119	C	-0.427381	0.472693	0.333525
C120	C	-0.094047	0.806026	0.666859
C121	C	-0.772243	0.364797	-0.042227
C122	C	-0.438910	0.698130	0.291106
C123	C	-0.105577	1.031464	0.624439
C124	C	-0.771184	0.437241	-0.042228
C125	C	-0.437850	0.770575	0.291106
C126	C	-0.104517	1.103908	0.624439
C127	C	-0.819148	0.479956	0.000219
C128	C	-0.485815	0.813290	0.333552
C129	C	-0.152481	1.146623	0.666886
C130	C	-0.868184	0.450220	0.042657
C131	C	-0.534851	0.783553	0.375990
C132	C	-0.201518	1.116886	0.709323
C133	C	-0.869247	0.377774	0.042653
C134	C	-0.535913	0.711108	0.375986
C135	C	-0.202580	1.044441	0.709319
C136	C	-0.821269	0.335065	0.000208
C137	C	-0.487935	0.668398	0.333541
C138	C	-0.154602	1.001732	0.666875
C139	C	-0.880770	0.603209	0.000244
C140	C	-0.547437	0.936542	0.333577
C141	C	-0.214104	1.269875	0.666910
C142	C	-0.879707	0.675657	0.000259
C143	C	-0.546374	1.008990	0.333593
C144	C	-0.213040	1.342323	0.666926
C145	C	-0.753097	0.658697	0.000230
C146	C	-0.419763	0.992030	0.333563
C147	C	-0.086430	1.325363	0.666896
C148	C	-0.754162	0.586250	0.000221
C149	C	-0.420829	0.919583	0.333555
C150	C	-0.087495	1.252917	0.666888
C151	C	-0.818001	0.558511	0.000225
C152	C	-0.484667	0.891844	0.333558
C153	C	-0.151334	1.225177	0.666891
C154	C	-0.862228	-0.134494	-0.772984
C155	C	-0.528895	0.198840	-0.439650
C156	C	-0.195561	0.532173	-0.106317
C157	C	-0.862221	-0.134500	-0.696756
C158	C	-0.528887	0.198833	-0.363423
C159	C	-0.195554	0.532166	-0.030089
C160	C	-0.820229	-0.092480	-0.658662
C161	C	-0.486896	0.240853	-0.325329
C162	C	-0.153562	0.574186	0.008005
C163	C	-0.778228	-0.050464	-0.696802
C164	C	-0.444895	0.282870	-0.363469
C165	C	-0.111561	0.616203	-0.030135
C166	C	-0.778231	-0.050463	-0.773028
C167	C	-0.444898	0.282870	-0.439695
C168	C	-0.111564	0.616203	-0.106362
C169	C	-0.818502	-0.029856	-0.537905
C170	C	-0.485169	0.303478	-0.204572
C171	C	-0.151835	0.636811	0.128762
C172	C	-0.818504	-0.029855	-0.461680
C173	C	-0.485171	0.303479	-0.128347
C174	C	-0.151837	0.636812	0.204987
C175	C	-0.820215	-0.092482	-0.423554
C176	C	-0.486882	0.240851	-0.090221
C177	C	-0.153549	0.574185	0.243112
C178	C	-0.821939	-0.155112	-0.461663
C179	C	-0.488606	0.178222	-0.128330
C180	C	-0.155273	0.511555	0.205004
C181	C	-0.821942	-0.155111	-0.537889
C182	C	-0.488609	0.178222	-0.204556
C183	C	-0.155276	0.511556	0.128777
C184	C	-0.820221	-0.092476	-0.576007
C185	C	-0.486887	0.240857	-0.242674
C186	C	-0.153554	0.574190	0.090659
C187	C	-0.862202	-0.134507	-0.302769
C188	C	-0.528869	0.198826	0.030565
C189	C	-0.195536	0.532160	0.363898
C190	C	-0.862190	-0.134515	-0.226539
C191	C	-0.528857	0.198818	0.106794
C192	C	-0.195523	0.532151	0.440127
C193	C	-0.778201	-0.050472	-0.226587
C194	C	-0.444868	0.282861	0.106746
C195	C	-0.111534	0.616194	0.440080
C196	C	-0.778209	-0.050470	-0.302815
C197	C	-0.444876	0.282863	0.030519
C198	C	-0.111543	0.616196	0.363852
C199	C	-0.820214	-0.092487	-0.340901
C200	C	-0.486880	0.240847	-0.007568
C201	C	-0.153547	0.574180	0.325766
N202	N	-0.820235	-0.092480	0.188885
N203	N	-0.486902	0.240854	0.522219
N204	N	-0.153569	0.574187	0.855552
H205	H	-0.593987	-0.211580	0.000195
H206	H	-0.260654	0.121753	0.333529
H207	H	0.072680	0.455087	0.666862
H208	H	-0.493322	0.020044	0.000187
H209	H	-0.159988	0.353377	0.333520
H210	H	0.173345	0.686711	0.666853
H211	H	-0.823333	-0.206109	-0.430623
H212	H	-0.489999	0.127225	-0.097289
H213	H	-0.156666	0.460558	0.236044
H214	H	-0.896401	-0.168722	-0.333780
H215	H	-0.563068	0.164611	-0.000447
H216	H	-0.229735	0.497944	0.332887
H217	H	-0.397752	-0.005467	0.077191
H218	H	-0.064419	0.327866	0.410524
H219	H	0.268915	0.661199	0.743857
H220	H	-0.624756	0.018124	0.000144
H221	H	-0.291423	0.351457	0.333477
H222	H	0.041910	0.684790	0.666810
H223	H	-0.930822	0.712049	0.000273
H224	H	-0.597489	1.045382	0.333606
H225	H	-0.264156	1.378715	0.666940
H226	H	-0.896384	-0.168732	-0.195494
H227	H	-0.563051	0.164601	0.137839
H228	H	-0.229717	0.497934	0.471172
Cl229	Cl	-0.915028	-0.187320	-0.820860
Cl230	Cl	-0.581694	0.146014	-0.487526
Cl231	Cl	-0.248361	0.479347	-0.154193
Cl232	Cl	-0.816331	0.048877	-0.413780
Cl233	Cl	-0.482998	0.382211	-0.080447
Cl234	Cl	-0.149664	0.715544	0.252887
Cl235	Cl	-0.681799	0.083166	0.000177
Cl236	Cl	-0.348466	0.416500	0.333510
Cl237	Cl	-0.015132	0.749833	0.666844
H238	H	-0.374105	-0.181442	-0.076756
H239	H	-0.040772	0.151892	0.256578
H240	H	0.292562	0.485225	0.589911
H241	H	-0.744006	-0.016263	-0.195571
H242	H	-0.410673	0.317071	0.137762
H243	H	-0.077340	0.650404	0.471095
Cl244	Cl	-0.223747	-0.200756	-0.095522
Cl245	Cl	0.109586	0.132578	0.237812
Cl246	Cl	0.442920	0.465911	0.571145
H247	H	-0.046435	0.026600	0.000306
H248	H	0.286898	0.359933	0.333640
H249	H	0.620231	0.693266	0.666973
H250	H	-0.744018	-0.016255	-0.333861
H251	H	-0.410684	0.317079	-0.000528
H252	H	-0.077351	0.650412	0.332805
H253	H	-0.817102	0.021146	-0.568941
H254	H	-0.483769	0.354479	-0.235607
H255	H	-0.150436	0.687812	0.097726
H256	H	-0.939303	0.133736	0.000212
H257	H	-0.605970	0.467069	0.333546
H258	H	-0.272636	0.800403	0.666879
H259	H	-0.744036	-0.016252	-0.665781
H260	H	-0.410703	0.317081	-0.332448
H261	H	-0.077370	0.650414	0.000886
Cl262	Cl	-0.915027	-0.187311	-0.648810
Cl263	Cl	-0.581694	0.146023	-0.315476
Cl264	Cl	-0.248360	0.479356	0.017857
H265	H	-0.744034	-0.016250	-0.804074
H266	H	-0.410701	0.317084	-0.470741
H267	H	-0.077368	0.650417	-0.137407
H268	H	-0.462561	-0.209652	0.000209
H269	H	-0.129228	0.123682	0.333542
H270	H	0.204106	0.457015	0.666875
Cl271	Cl	-0.675249	0.530057	0.000203
Cl272	Cl	-0.341916	0.863391	0.333537
Cl273	Cl	-0.008582	1.196724	0.666870
H274	H	-0.177866	0.024674	0.000236
H275	H	0.155467	0.358007	0.333569
H276	H	0.488801	0.691340	0.666903
Cl277	Cl	-0.159390	-0.233300	0.000272
Cl278	Cl	0.173943	0.100034	0.333605
Cl279	Cl	0.507277	0.433367	0.666939
Cl280	Cl	-0.709541	0.474618	-0.095580
Cl281	Cl	-0.376208	0.807951	0.237753
Cl282	Cl	-0.042875	1.141285	0.571087
H283	H	-0.701123	0.681288	0.000221
H284	H	-0.367790	1.014621	0.333555
H285	H	-0.034457	1.347954	0.666888
Cl286	Cl	0.004125	-0.230900	0.000293
Cl287	Cl	0.337459	0.102434	0.333626
Cl288	Cl	0.670792	0.435767	0.666959
H289	H	-0.266328	-0.003542	0.077215
H290	H	0.067005	0.329791	0.410548
H291	H	0.400339	0.663124	0.743881
H292	H	-0.937375	0.265162	0.000231
H293	H	-0.604041	0.598495	0.333564
H294	H	-0.270708	0.931829	0.666897
Cl295	Cl	-0.930885	0.340392	0.096005
Cl296	Cl	-0.597552	0.673725	0.429338
Cl297	Cl	-0.264218	1.007059	0.762672
Cl298	Cl	-0.961023	0.568333	0.000244
Cl299	Cl	-0.627689	0.901666	0.333577
Cl300	Cl	-0.294356	1.235000	0.666911
Cl301	Cl	-0.711940	0.311105	-0.095596
Cl302	Cl	-0.378607	0.644438	0.237737
Cl303	Cl	-0.045274	0.977772	0.571071
Cl304	Cl	-0.928486	0.503911	0.096023
Cl305	Cl	-0.595153	0.837244	0.429356
Cl306	Cl	-0.261820	1.170577	0.762690
H307	H	-0.823344	-0.206106	-0.568914
H308	H	-0.490011	0.127227	-0.235581
H309	H	-0.156677	0.460560	0.097752
H310	H	-0.707679	0.234401	0.000185
H311	H	-0.374346	0.567735	0.333519
H312	H	-0.041012	0.901068	0.666852
