data_functionalizedCrystal
_audit_creation_method	'MofGen! by Chris Wilmer'
_symmetry_space_group_name_H-M	'P1'
_symmetry_Int_Tables_number	1
_symmetry_cell_setting	triclinic
loop_
_symmetry_equiv_pos_as_xyz
  x,y,z
_cell_length_a	12.594517
_cell_length_b	12.594516
_cell_length_c	16.120297
_cell_angle_alpha	92.877768
_cell_angle_beta	92.884965
_cell_angle_gamma	90.016010
loop_
_atom_site_label
_atom_site_type_symbol
_atom_site_fract_x
_atom_site_fract_y
_atom_site_fract_z
Zn1	Zn	1.596748	-0.454279	-0.471271
Zn2	Zn	1.846748	-0.204279	-0.221271
Zn3	Zn	2.096748	0.045721	0.028729
Zn4	Zn	2.346748	0.295721	0.278729
Zn5	Zn	1.605666	-0.623247	-0.331872
Zn6	Zn	1.855666	-0.373247	-0.081872
Zn7	Zn	2.105666	-0.123247	0.168128
Zn8	Zn	2.355666	0.126753	0.418128
Zn9	Zn	1.427778	-0.445284	-0.331890
Zn10	Zn	1.677778	-0.195284	-0.081890
Zn11	Zn	1.927778	0.054716	0.168110
Zn12	Zn	2.177778	0.304716	0.418110
Zn13	Zn	1.418736	-0.632215	-0.471255
Zn14	Zn	1.668736	-0.382215	-0.221255
Zn15	Zn	1.918736	-0.132215	0.028745
Zn16	Zn	2.168736	0.117785	0.278745
O17	O	1.512232	-0.538756	-0.401572
O18	O	1.762232	-0.288756	-0.151572
O19	O	2.012232	-0.038756	0.098428
O20	O	2.262232	0.211244	0.348428
O21	O	1.746877	-0.476704	-0.452779
O22	O	1.996877	-0.226704	-0.202779
O23	O	2.246877	0.023296	0.047221
O24	O	2.496877	0.273296	0.297221
O25	O	1.589586	-0.592123	-0.215210
O26	O	1.839586	-0.342123	0.034790
O27	O	2.089586	-0.092123	0.284790
O28	O	2.339586	0.157877	0.534790
O29	O	1.450245	-0.297533	-0.350393
O30	O	1.700245	-0.047533	-0.100393
O31	O	1.950245	0.202467	0.149607
O32	O	2.200245	0.452467	0.399607
O33	O	1.753429	-0.600845	-0.350363
O34	O	2.003429	-0.350845	-0.100363
O35	O	2.253429	-0.100845	0.149637
O36	O	2.503429	0.149155	0.399637
O37	O	1.574386	-0.304141	-0.452796
O38	O	1.824386	-0.054141	-0.202796
O39	O	2.074386	0.195859	0.047204
O40	O	2.324386	0.445859	0.297204
O41	O	1.458892	-0.461375	-0.215223
O42	O	1.708892	-0.211375	0.034777
O43	O	1.958892	0.038625	0.284777
O44	O	2.208892	0.288625	0.534777
O45	O	1.277633	-0.470070	-0.350378
O46	O	1.527633	-0.220070	-0.100378
O47	O	1.777633	0.029930	0.149622
O48	O	2.027633	0.279930	0.399622
O49	O	1.434833	-0.616128	-0.587922
O50	O	1.684833	-0.366128	-0.337922
O51	O	1.934833	-0.116128	-0.087922
O52	O	2.184833	0.133872	0.162078
O53	O	1.270989	-0.607407	-0.452769
O54	O	1.520989	-0.357407	-0.202769
O55	O	1.770989	-0.107407	0.047231
O56	O	2.020989	0.142593	0.297231
O57	O	1.565618	-0.485400	-0.587933
O58	O	1.815618	-0.235400	-0.337933
O59	O	2.065618	0.014600	-0.087933
O60	O	2.315618	0.264600	0.162067
O61	O	1.580817	-0.773382	-0.350347
O62	O	1.830817	-0.523382	-0.100347
O63	O	2.080817	-0.273382	0.149653
O64	O	2.330817	-0.023382	0.399653
O65	O	1.443480	-0.779970	-0.452752
O66	O	1.693480	-0.529970	-0.202752
O67	O	1.943480	-0.279970	0.047248
O68	O	2.193480	-0.029970	0.297248
C69	C	1.235691	-0.538736	-0.401574
C70	C	1.485691	-0.288736	-0.151574
C71	C	1.735691	-0.038736	0.098426
C72	C	1.985691	0.211264	0.348426
C73	C	1.117384	-0.538754	-0.401595
C74	C	1.367384	-0.288754	-0.151595
C75	C	1.617384	-0.038754	0.098405
C76	C	1.867384	0.211246	0.348405
C77	C	0.973792	-0.613574	-0.457182
C78	C	1.223792	-0.363574	-0.207182
C79	C	1.473792	-0.113574	0.042818
C80	C	1.723792	0.136426	0.292818
C81	C	1.049489	-0.634546	-0.381095
C82	C	1.299489	-0.384546	-0.131095
C83	C	1.549489	-0.134546	0.118905
C84	C	1.799489	0.115454	0.368905
C85	C	1.043259	-0.517828	-0.477673
C86	C	1.293259	-0.267828	-0.227673
C87	C	1.543259	-0.017828	0.022327
C88	C	1.793259	0.232172	0.272327
C89	C	0.982301	-0.559807	-0.325443
C90	C	1.232301	-0.309807	-0.075443
C91	C	1.482301	-0.059807	0.174557
C92	C	1.732301	0.190193	0.424557
C93	C	0.976060	-0.443048	-0.422072
C94	C	1.226060	-0.193048	-0.172072
C95	C	1.476060	0.056952	0.077928
C96	C	1.726060	0.306952	0.327928
C97	C	1.051730	-0.463980	-0.345933
C98	C	1.301730	-0.213980	-0.095933
C99	C	1.551730	0.036020	0.154067
C100	C	1.801730	0.286020	0.404067
C101	C	1.512163	-0.815297	-0.401564
C102	C	1.762163	-0.565297	-0.151564
C103	C	2.012163	-0.315297	0.098436
C104	C	2.262163	-0.065297	0.348436
C105	C	1.512229	-0.933604	-0.401588
C106	C	1.762229	-0.683604	-0.151588
C107	C	2.012229	-0.433604	0.098412
C108	C	2.262229	-0.183604	0.348412
C109	C	1.437527	-1.006476	-0.457247
C110	C	1.687527	-0.756476	-0.207247
C111	C	1.937527	-0.506476	0.042753
C112	C	2.187527	-0.256476	0.292753
C113	C	1.416520	-1.072408	-0.381176
C114	C	1.666520	-0.822408	-0.131176
C115	C	1.916520	-0.572408	0.118824
C116	C	2.166520	-0.322408	0.368824
C117	C	1.533332	-1.078472	-0.477672
C118	C	1.783332	-0.828472	-0.227672
C119	C	2.033332	-0.578472	0.022328
C120	C	2.283332	-0.328472	0.272328
C121	C	1.491173	-0.997974	-0.325477
C122	C	1.741173	-0.747974	-0.075477
C123	C	1.991173	-0.497974	0.174523
C124	C	2.241173	-0.247974	0.424523
C125	C	1.608028	-1.004036	-0.422025
C126	C	1.858028	-0.754036	-0.172025
C127	C	2.108028	-0.504036	0.077975
C128	C	2.358028	-0.254036	0.327975
C129	C	1.587061	-1.069932	-0.345901
C130	C	1.837061	-0.819932	-0.095901
C131	C	2.087061	-0.569932	0.154099
C132	C	2.337061	-0.319932	0.404099
C133	C	1.789853	-0.538778	-0.401571
C134	C	2.039853	-0.288778	-0.151571
C135	C	2.289853	-0.038778	0.098429
C136	C	2.539853	0.211222	0.348429
C137	C	1.908159	-0.538787	-0.401570
C138	C	2.158159	-0.288787	-0.151570
C139	C	2.408159	-0.038787	0.098430
C140	C	2.658159	0.211213	0.348430
C141	C	1.498222	-0.552767	-0.619023
C142	C	1.748222	-0.302767	-0.369023
C143	C	1.998222	-0.052767	-0.119023
C144	C	2.248222	0.197233	0.130977
C145	C	1.492252	-0.558738	-0.711688
C146	C	1.742252	-0.308738	-0.461688
C147	C	1.992252	-0.058738	-0.211688
C148	C	2.242252	0.191262	0.038312
C149	C	1.512330	-0.261137	-0.401599
C150	C	1.762330	-0.011137	-0.151599
C151	C	2.012330	0.238863	0.098401
C152	C	2.262330	0.488863	0.348401
C153	C	1.512371	-0.142832	-0.401610
C154	C	1.762371	0.107168	-0.151610
C155	C	2.012371	0.357168	0.098390
C156	C	2.262371	0.607168	0.348390
C157	C	1.481312	-0.569615	-0.881347
C158	C	1.731312	-0.319615	-0.631347
C159	C	1.981312	-0.069615	-0.381347
C160	C	2.231312	0.180385	-0.131347
C161	C	1.543362	-0.507578	-0.922649
C162	C	1.793362	-0.257578	-0.672649
C163	C	2.043362	-0.007578	-0.422649
C164	C	2.293362	0.242422	-0.172649
C165	C	1.537275	-0.513631	-1.017054
C166	C	1.787275	-0.263631	-0.767054
C167	C	2.037275	-0.013631	-0.517054
C168	C	2.287275	0.236369	-0.267054
C169	C	1.487397	-0.563565	-0.786934
C170	C	1.737397	-0.313565	-0.536934
C171	C	1.987397	-0.063565	-0.286934
C172	C	2.237397	0.186435	-0.036934
C173	C	1.526249	-0.524723	-0.184967
C174	C	1.776249	-0.274723	0.065033
C175	C	2.026249	-0.024723	0.315033
C176	C	2.276249	0.225277	0.565033
C177	C	1.532426	-0.518452	-0.092303
C178	C	1.782426	-0.268452	0.157697
C179	C	2.032426	-0.018452	0.407697
C180	C	2.282426	0.231548	0.657697
H181	H	0.939693	-0.676875	-0.504142
H182	H	1.189693	-0.426875	-0.254142
H183	H	1.439693	-0.176875	-0.004142
H184	H	1.689693	0.073125	0.245858
H185	H	0.943825	-0.362122	-0.439430
H186	H	1.193825	-0.112122	-0.189430
H187	H	1.443825	0.137878	0.060570
H188	H	1.693825	0.387878	0.310570
F189	F	1.467797	-0.952140	-0.241363
F190	F	1.717797	-0.702140	0.008637
F191	F	1.967797	-0.452140	0.258637
F192	F	2.217797	-0.202140	0.508637
F193	F	1.078473	-0.494674	-0.561781
F194	F	1.328473	-0.244674	-0.311781
F195	F	1.578473	0.005326	-0.061781
F196	F	1.828473	0.255326	0.188219
H197	H	1.374251	-0.978490	-0.504247
H198	H	1.624251	-0.728490	-0.254247
H199	H	1.874251	-0.478490	-0.004247
H200	H	2.124251	-0.228490	0.245753
F201	F	1.405909	-0.644976	-0.927797
F202	F	1.655909	-0.394976	-0.677797
F203	F	1.905909	-0.144976	-0.427797
F204	F	2.155909	0.105024	-0.177797
F205	F	1.091596	-0.740352	-0.358436
F206	F	1.341596	-0.490352	-0.108436
F207	F	1.591596	-0.240352	0.141564
F208	F	1.841596	0.009648	0.391564
F209	F	1.310709	-1.111715	-0.358587
F210	F	1.560709	-0.861715	-0.108587
F211	F	1.810709	-0.611715	0.141413
F212	F	2.060709	-0.361715	0.391413
F213	F	1.713807	-0.964698	-0.444641
F214	F	1.963807	-0.714698	-0.194641
F215	F	2.213807	-0.464698	0.055359
F216	F	2.463807	-0.214698	0.305359
F217	F	1.618791	-0.432234	-0.876199
F218	F	1.868791	-0.182234	-0.626199
F219	F	2.118791	0.067766	-0.376199
F220	F	2.368791	0.317766	-0.126199
F221	F	1.556588	-1.124481	-0.561760
F222	F	1.806588	-0.874481	-0.311760
F223	F	2.056588	-0.624481	-0.061760
F224	F	2.306588	-0.374481	0.188240
F225	F	0.947266	-0.583084	-0.241309
F226	F	1.197266	-0.333084	0.008691
F227	F	1.447266	-0.083084	0.258691
F228	F	1.697266	0.166916	0.508691
H229	H	1.650298	-1.097714	-0.298788
H230	H	1.900298	-0.847714	-0.048788
H231	H	2.150298	-0.597714	0.201212
H232	H	2.400298	-0.347714	0.451212
H233	H	1.085640	-0.400717	-0.298860
H234	H	1.335640	-0.150717	-0.048860
H235	H	1.585640	0.099283	0.201140
H236	H	1.835640	0.349283	0.451140
