data_functionalizedCrystal
_audit_creation_method	'MofGen! by Chris Wilmer'
_symmetry_space_group_name_H-M	'P1'
_symmetry_Int_Tables_number	1
_symmetry_cell_setting	triclinic
loop_
_symmetry_equiv_pos_as_xyz
  x,y,z
_cell_length_a	14.044191
_cell_length_b	14.044220
_cell_length_c	7.540329
_cell_angle_alpha	89.995368
_cell_angle_beta	89.999427
_cell_angle_gamma	93.190327
loop_
_atom_site_label
_atom_site_type_symbol
_atom_site_fract_x
_atom_site_fract_y
_atom_site_fract_z
O1	O	1.277170	0.230198	-0.147405
O2	O	1.610504	0.563532	0.185929
O3	O	1.943837	0.896865	0.519262
O4	O	1.000498	0.221886	-0.147427
O5	O	1.333831	0.555219	0.185907
O6	O	1.667165	0.888552	0.519240
O7	O	1.134681	0.087706	-0.147398
O8	O	1.468015	0.421039	0.185935
O9	O	1.801348	0.754373	0.519268
O10	O	1.142987	0.364378	-0.147433
O11	O	1.476320	0.697711	0.185900
O12	O	1.809654	1.031044	0.519234
O13	O	1.134672	0.087704	0.147567
O14	O	1.468006	0.421037	0.480900
O15	O	1.801339	0.754370	0.814233
O16	O	1.000489	0.221883	0.147538
O17	O	1.333822	0.555216	0.480872
O18	O	1.667156	0.888550	0.814205
O19	O	1.277162	0.230196	0.147560
O20	O	1.610495	0.563529	0.480894
O21	O	1.943828	0.896862	0.814227
Cu22	Cu	1.138824	0.226039	0.174482
Cu23	Cu	1.472158	0.559373	0.507815
Cu24	Cu	1.805491	0.892706	0.841149
Cu25	Cu	1.138835	0.226042	-0.174348
Cu26	Cu	1.472168	0.559376	0.158985
Cu27	Cu	1.805502	0.892709	0.492318
O28	O	1.142978	0.364375	0.147532
O29	O	1.476311	0.697709	0.480866
O30	O	1.809645	1.031042	0.814199
C31	C	0.964872	0.218248	0.000053
C32	C	1.298205	0.551581	0.333386
C33	C	1.631538	0.884914	0.666720
C34	C	0.858728	0.207401	0.000045
C35	C	1.192062	0.540734	0.333379
C36	C	1.525395	0.874067	0.666712
C37	C	0.613270	0.264501	0.000056
C38	C	0.946603	0.597834	0.333389
C39	C	1.279937	0.931168	0.666722
C40	C	0.664395	0.187585	0.000062
C41	C	0.997729	0.520918	0.333396
C42	C	1.331062	0.854251	0.666729
C43	C	0.772532	0.198613	0.000053
C44	C	1.105866	0.531946	0.333386
C45	C	1.439199	0.865280	0.666719
C46	C	0.505123	0.253474	0.000065
C47	C	0.838457	0.586808	0.333399
C48	C	1.171790	0.920141	0.666732
C49	C	1.131041	0.052083	0.000085
C50	C	1.464375	0.385416	0.333418
C51	C	1.797708	0.718750	0.666751
C52	C	1.120197	-0.054060	0.000086
C53	C	1.453530	0.279273	0.333419
C54	C	1.786863	0.612607	0.666752
C55	C	1.312788	0.233834	0.000077
C56	C	1.646121	0.567167	0.333410
C57	C	1.979455	0.900500	0.666743
C58	C	1.418931	0.244681	0.000073
C59	C	1.752264	0.578014	0.333406
C60	C	2.085598	0.911348	0.666740
C61	C	1.100370	-0.248398	0.000059
C62	C	1.433704	0.084935	0.333392
C63	C	1.767037	0.418268	0.666725
C64	C	1.177285	-0.299526	0.000059
C65	C	1.510618	0.033807	0.333393
C66	C	1.843952	0.367140	0.666726
C67	C	1.166253	-0.407663	0.000044
C68	C	1.499587	-0.074329	0.333378
C69	C	1.832920	0.259004	0.666711
C70	C	1.111400	-0.140252	0.000074
C71	C	1.444734	0.193081	0.333407
C72	C	1.778067	0.526415	0.666740
C73	C	1.146618	0.399998	0.000045
C74	C	1.479952	0.733332	0.333379
C75	C	1.813285	1.066665	0.666712
C76	C	1.157463	0.506142	0.000032
C77	C	1.490796	0.839475	0.333366
C78	C	1.824130	1.172808	0.666699
N79	N	1.138824	0.226037	0.419831
N80	N	1.472157	0.559370	0.753164
N81	N	1.805491	0.892704	1.086497
N82	N	1.138842	0.226037	-0.419697
N83	N	1.472176	0.559371	-0.086363
N84	N	1.805509	0.892704	0.246970
H85	H	0.650711	0.338628	0.000041
H86	H	0.984045	0.671961	0.333375
H87	H	1.317378	1.005294	0.666708
H88	H	1.251419	-0.262085	-0.000054
H89	H	1.584752	0.071248	0.333280
H90	H	1.918085	0.404582	0.666613
C91	C	1.000227	-0.298967	0.000048
C92	C	1.333560	0.034367	0.333381
C93	C	1.666893	0.367700	0.666714
H94	H	0.953415	-0.252670	0.000039
H95	H	1.286748	0.080663	0.333373
H96	H	1.620081	0.413997	0.666706
H97	H	0.992737	-0.337723	0.102901
H98	H	1.326070	-0.004390	0.436235
H99	H	1.659404	0.328944	0.769568
H100	H	0.992742	-0.337703	-0.102833
H101	H	1.326076	-0.004369	0.230500
H102	H	1.659409	0.328964	0.563833
C103	C	0.613819	0.087438	0.000046
C104	C	0.947153	0.420771	0.333380
C105	C	1.280486	0.754104	0.666713
H106	H	0.546720	0.093065	0.000029
H107	H	0.880053	0.426398	0.333362
H108	H	1.213387	0.759731	0.666695
H109	H	0.631758	0.053721	0.102897
H110	H	0.965091	0.387054	0.436230
H111	H	1.298425	0.720388	0.769564
H112	H	0.631765	0.053751	-0.102838
H113	H	0.965098	0.387084	0.230496
H114	H	1.298432	0.720418	0.563829
