data_functionalizedCrystal
_audit_creation_method	'MofGen! by Chris Wilmer'
_symmetry_space_group_name_H-M	'P1'
_symmetry_Int_Tables_number	1
_symmetry_cell_setting	triclinic
loop_
_symmetry_equiv_pos_as_xyz
  x,y,z
_cell_length_a	12.759401
_cell_length_b	19.077068
_cell_length_c	12.759393
_cell_angle_alpha	87.738768
_cell_angle_beta	90.018496
_cell_angle_gamma	92.327081
loop_
_atom_site_label
_atom_site_type_symbol
_atom_site_fract_x
_atom_site_fract_y
_atom_site_fract_z
Zn1	Zn	1.589361	-0.280156	0.610733
Zn2	Zn	1.582157	-0.397871	0.442092
Zn3	Zn	1.413661	-0.280192	0.435075
Zn4	Zn	1.406557	-0.397817	0.617730
O5	O	1.497934	-0.339009	0.526408
O6	O	1.735426	-0.295778	0.588371
O7	O	1.559764	-0.382299	0.294142
O8	O	1.442956	-0.181697	0.452511
O9	O	1.730133	-0.382263	0.464471
O10	O	1.572043	-0.181670	0.581567
O11	O	1.435971	-0.295841	0.288987
O12	O	1.265698	-0.295788	0.459296
O13	O	1.430848	-0.382171	0.763821
O14	O	1.260479	-0.382207	0.593492
O15	O	1.565154	-0.295726	0.758680
O16	O	1.552875	-0.496355	0.471256
O17	O	1.423862	-0.496315	0.600297
C18	C	1.224968	-0.338996	0.526393
C19	C	1.108190	-0.339007	0.526412
C20	C	1.050634	-0.384078	0.596181
C21	C	0.940909	-0.384086	0.596193
C22	C	0.946308	-0.293953	0.456658
C23	C	1.056030	-0.293941	0.456652
C24	C	1.047516	-0.436117	0.676738
C25	C	0.937791	-0.436126	0.676750
C26	C	1.486845	-0.521872	0.537320
C27	C	1.482197	-0.600102	0.542023
C28	C	1.547235	-0.636852	0.477104
C29	C	1.542870	-0.710357	0.481534
C30	C	1.473460	-0.747111	0.550879
C31	C	1.408418	-0.710356	0.615805
C32	C	1.412790	-0.636852	0.611380
C33	C	1.453182	-0.966943	0.571318
C34	C	1.448813	-1.040452	0.575736
C35	C	1.583267	-1.040448	0.441466
C36	C	1.587627	-0.966943	0.437042
C37	C	1.522590	-0.930195	0.501972
N38	N	1.468994	-0.822245	0.555406
N39	N	1.527062	-0.855062	0.497450
C40	C	1.771967	-0.339023	0.526423
C41	C	1.888743	-0.339028	0.526430
C42	C	1.498012	-0.338938	0.800437
C43	C	1.498045	-0.338908	0.917212
C44	C	1.509096	-0.155432	0.515476
C45	C	1.513852	-0.077202	0.510817
C46	C	1.497920	-0.339029	0.253441
C47	C	1.498102	-0.338861	0.136655
C48	C	1.567988	-0.293891	0.969398
C49	C	1.568014	-0.293866	1.079121
C50	C	1.428152	-0.383879	1.084461
C51	C	1.428122	-0.383901	0.974740
C52	C	1.648739	-0.241925	0.966316
C53	C	1.648766	-0.241900	1.076039
H54	H	1.078200	-0.421581	0.757275
H55	H	1.630257	-0.187418	0.933301
O56	O	1.646337	-1.076117	0.378255
C57	C	1.696150	-1.098651	0.200952
C58	C	1.624636	-1.058224	0.272413
H59	H	1.678646	-1.084187	0.115365
H60	H	1.681100	-1.157507	0.215938
H61	H	1.781710	-1.084149	0.218663
H62	H	1.539051	-1.072667	0.254745
H63	H	1.639776	-0.999378	0.257415
H64	H	1.644147	-0.937020	0.380577
O65	O	1.744743	-0.259441	1.112579
C66	C	1.876278	-0.346617	1.121082
C67	C	1.767567	-0.326848	1.079651
H68	H	1.894774	-0.401110	1.094458
H69	H	1.876334	-0.346646	1.210432
H70	H	1.938243	-0.306699	1.088963
H71	H	1.705541	-0.366746	1.111692
H72	H	1.767599	-0.326797	0.990300
O73	O	0.898575	-0.412807	0.767546
C74	C	0.795563	-0.326597	0.848384
C75	C	0.839935	-0.352922	0.745491
H76	H	0.748125	-0.278185	0.830586
H77	H	0.862926	-0.312489	0.903401
H78	H	0.742727	-0.369667	0.887339
H79	H	0.892757	-0.309884	0.706447
H80	H	0.772522	-0.367051	0.690548
H81	H	1.359830	-0.606931	0.664245
H82	H	1.102889	-0.257236	0.399846
O83	O	0.895803	-0.250115	0.388854
C84	C	0.912738	-0.160747	0.250407
C85	C	0.970064	-0.210346	0.327158
H86	H	0.972751	-0.128590	0.200491
H87	H	0.863644	-0.123940	0.296491
H88	H	0.859365	-0.193032	0.197368
H89	H	1.023490	-0.178117	0.380216
H90	H	1.019091	-0.247154	0.281010
O91	O	1.617796	-0.180059	1.112797
C92	C	1.559425	-0.063916	1.069475
C93	C	1.594505	-0.133904	1.027703
H94	H	1.540563	-0.026586	1.000698
H95	H	1.625122	-0.039412	1.118275
H96	H	1.486543	-0.073957	1.120392
H97	H	1.667365	-0.123922	0.976743
H98	H	1.528745	-0.158385	0.978961
H99	H	1.392304	-1.070375	0.632223
H100	H	0.904709	-0.490623	0.658076
H101	H	1.078409	-0.487869	0.650548
O102	O	1.360127	-0.427685	0.924211
C103	C	1.221330	-0.516910	0.941088
C104	C	1.298305	-0.467375	0.998445
H105	H	1.171312	-0.549002	1.001079
H106	H	1.267238	-0.553779	0.891932
H107	H	1.168403	-0.484579	0.887774
H108	H	1.351251	-0.499650	1.051812
H109	H	1.252332	-0.430504	1.047534
H110	H	1.400224	-0.937029	0.624184
H111	H	1.603752	-0.606931	0.420632
O112	O	1.341020	-0.746165	0.683075
C113	C	1.274735	-0.859400	0.749439
C114	C	1.351099	-0.818937	0.673193
H115	H	1.282873	-0.918243	0.741491
H116	H	1.190860	-0.845055	0.730050
H117	H	1.293993	-0.844851	0.833284
H118	H	1.331937	-0.833465	0.589322
H119	H	1.434952	-0.833285	0.692672
H120	H	1.595830	-0.740275	0.428669
H121	H	1.724832	-0.261465	0.933449
H122	H	1.371221	-0.420509	1.131314
