data_functionalizedCrystal
_audit_creation_method	'MofGen! by Chris Wilmer'
_symmetry_space_group_name_H-M	'P1'
_symmetry_Int_Tables_number	1
_symmetry_cell_setting	triclinic
loop_
_symmetry_equiv_pos_as_xyz
  x,y,z
_cell_length_a	17.699083
_cell_length_b	8.559649
_cell_length_c	16.776229
_cell_angle_alpha	89.994739
_cell_angle_beta	89.998886
_cell_angle_gamma	76.530840
loop_
_atom_site_label
_atom_site_type_symbol
_atom_site_fract_x
_atom_site_fract_y
_atom_site_fract_z
O1	O	0.992507	0.202110	-0.066174
O2	O	0.770623	0.228404	-0.066200
O3	O	0.901113	-0.017421	-0.066184
O4	O	0.862017	0.447935	-0.066190
O5	O	0.901098	-0.017436	0.066393
O6	O	0.770608	0.228389	0.066377
O7	O	0.992492	0.202095	0.066403
Zn8	Zn	0.881548	0.215240	0.087439
Zn9	Zn	0.881567	0.215259	-0.087236
O10	O	0.862002	0.447920	0.066387
C11	C	0.742473	0.227455	0.000085
C12	C	0.658616	0.224628	0.000075
C13	C	0.904069	-0.076970	0.000103
C14	C	0.912888	-0.254384	0.000100
C15	C	0.601734	0.368922	0.000074
C16	C	0.522943	0.366257	0.000084
C17	C	0.501037	0.219296	0.000090
C18	C	0.557926	0.074990	0.000094
C19	C	0.636715	0.077657	0.000090
C20	C	0.240179	0.064231	0.000114
C21	C	0.161383	0.061575	0.000116
C22	C	0.126407	0.352831	0.000108
C23	C	0.205196	0.355498	0.000104
C24	C	0.262078	0.211193	0.000112
C25	C	0.347512	0.214085	0.000102
C26	C	0.415605	0.216402	0.000094
C27	C	1.020643	0.203044	0.000116
C28	C	1.104499	0.205871	0.000120
C29	C	0.859047	0.507469	0.000098
C30	C	0.850227	0.684883	0.000096
N31	N	0.881540	0.215225	0.206650
N32	N	0.881581	0.215261	-0.206447
C33	C	0.939335	0.106418	0.248374
C34	C	0.939339	0.106417	0.331827
C35	C	0.881552	0.215231	0.373553
C36	C	0.823752	0.324043	0.331823
C37	C	0.823745	0.324036	0.248372
C38	C	0.823777	0.324075	0.668370
C39	C	0.823790	0.324077	0.751827
C40	C	0.939371	0.106456	0.751824
C41	C	0.939364	0.106448	0.668374
C42	C	0.881563	0.215254	0.626651
C43	C	0.881558	0.215252	0.536163
C44	C	0.881559	0.215242	0.464040
H45	H	0.476631	0.483756	0.000082
C46	C	0.563486	-0.174084	-0.068050
C47	C	0.533850	-0.086556	0.000100
H48	H	0.548627	-0.273822	-0.068045
H49	H	0.543383	-0.114679	-0.114274
H50	H	0.618551	-0.193135	-0.068042
H51	H	0.478784	-0.067495	0.000088
H52	H	0.553949	-0.145974	0.046336
C53	C	0.990669	0.009783	0.459750
C54	C	1.002868	-0.013186	0.377691
H55	H	1.029889	-0.064068	0.488062
H56	H	0.992689	0.116415	0.473416
H57	H	0.941161	-0.007449	0.473423
H58	H	1.052375	0.004058	0.364017
H59	H	1.000856	-0.119843	0.364019
C60	C	1.053581	-0.108708	0.256763
C61	C	1.002856	-0.013200	0.202513
H62	H	1.092793	-0.182565	0.228450
H63	H	1.076943	-0.042250	0.289301
H64	H	1.025409	-0.166103	0.289322
H65	H	1.031028	0.044205	0.169957
H66	H	0.979493	-0.079666	0.169961
H67	H	0.223027	0.475168	0.000095
C68	C	1.003420	-0.464432	-0.068039
C69	C	0.994426	-0.367412	0.000110
H70	H	1.053759	-0.534202	-0.068034
H71	H	0.965298	-0.526302	-0.068032
H72	H	0.997315	-0.398586	-0.114269
H73	H	1.000525	-0.433259	0.046340
H74	H	1.032559	-0.305538	0.000111
H75	H	0.986422	0.017847	0.634403
H76	H	0.776697	0.412637	0.365802
C77	C	0.745617	-0.088301	-0.068063
C78	C	0.699247	-0.080951	0.000089
H79	H	0.784224	-0.186219	-0.068057
H80	H	0.714153	-0.083295	-0.114286
H81	H	0.769932	-0.000384	-0.068058
H82	H	0.674927	-0.168863	0.000081
H83	H	0.730715	-0.085973	0.046324
H84	H	0.776729	0.412690	0.785799
H85	H	0.080083	0.470330	0.000106
H86	H	0.789834	-0.231386	0.000091
H87	H	0.776682	0.412635	0.214401
C88	C	0.670032	0.540912	-0.068096
C89	C	0.625807	0.530472	0.000062
H90	H	0.684886	0.640654	-0.068103
H91	H	0.715184	0.455373	-0.068090
H92	H	0.640012	0.533814	-0.114319
H93	H	0.655829	0.537558	0.046286
H94	H	0.580648	0.616035	0.000064
C95	C	0.203868	-0.226077	0.000143
C96	C	0.137303	-0.099978	0.000132
H97	H	0.188999	-0.325804	0.000157
H98	H	0.233871	-0.218992	-0.046088
H99	H	0.233871	-0.218966	0.046377
H100	H	0.107302	-0.107082	-0.046106
H101	H	0.107288	-0.107066	0.046367
C102	C	0.349065	-0.101743	-0.068041
C103	C	0.302696	-0.094388	0.000112
H104	H	0.387665	-0.199670	-0.068040
H105	H	0.317598	-0.096717	-0.114263
H106	H	0.373389	-0.013838	-0.068033
H107	H	0.278367	-0.182287	0.000101
H108	H	0.334167	-0.099429	0.046346
H109	H	0.986435	0.017855	0.785804
C110	C	0.709534	0.539200	0.676767
C111	C	0.760248	0.443685	0.622516
H112	H	0.670315	0.613053	0.648454
H113	H	0.686181	0.472747	0.709322
H114	H	0.737714	0.596601	0.709308
H115	H	0.732069	0.386275	0.589978
H116	H	0.783602	0.510148	0.589946
