data_functionalizedCrystal
_audit_creation_method	'MofGen! by Chris Wilmer'
_symmetry_space_group_name_H-M	'P1'
_symmetry_Int_Tables_number	1
_symmetry_cell_setting	triclinic
loop_
_symmetry_equiv_pos_as_xyz
  x,y,z
_cell_length_a	18.215405
_cell_length_b	21.395364
_cell_length_c	21.395355
_cell_angle_alpha	89.975273
_cell_angle_beta	89.980149
_cell_angle_gamma	90.023218
loop_
_atom_site_label
_atom_site_type_symbol
_atom_site_fract_x
_atom_site_fract_y
_atom_site_fract_z
Zn1	Zn	-0.293102	0.957884	-0.354259
Zn2	Zn	0.206898	1.457884	0.145741
Zn3	Zn	-0.416151	0.957798	-0.249479
Zn4	Zn	0.083849	1.457798	0.250521
Zn5	Zn	-0.293099	0.853099	-0.249495
Zn6	Zn	0.206901	1.353099	0.250505
Zn7	Zn	-0.416128	0.853079	-0.354218
Zn8	Zn	0.083872	1.353079	0.145782
O9	O	-0.354620	0.905465	-0.301863
O10	O	0.145380	1.405465	0.198137
O11	O	-0.309436	1.045551	-0.340369
O12	O	0.190564	1.545551	0.159631
O13	O	-0.399835	0.943881	-0.161803
O14	O	0.100165	1.443881	0.338197
O15	O	-0.190115	0.867044	-0.263416
O16	O	0.309885	1.367044	0.236584
O17	O	-0.399839	1.045487	-0.263388
O18	O	0.100161	1.545487	0.236612
O19	O	-0.190118	0.944029	-0.340385
O20	O	0.309882	1.444029	0.159615
O21	O	-0.309430	0.866960	-0.161815
O22	O	0.190570	1.366960	0.338185
O23	O	-0.309408	0.765419	-0.263377
O24	O	0.190592	1.265419	0.236623
O25	O	-0.399800	0.867010	-0.441902
O26	O	0.100200	1.367010	0.058098
O27	O	-0.399797	0.765404	-0.340317
O28	O	0.100203	1.265404	0.159683
O29	O	-0.309414	0.944010	-0.441931
O30	O	0.190586	1.444010	0.058069
O31	O	-0.519132	0.943862	-0.263349
O32	O	-0.019132	1.443862	0.236651
O33	O	-0.519115	0.866926	-0.340301
O34	O	-0.019115	1.366926	0.159699
C35	C	-0.354600	0.742678	-0.301845
C36	C	0.145400	1.242678	0.198155
C37	C	-0.354610	0.673036	-0.301852
C38	C	0.145390	1.173036	0.198148
C39	C	-0.545826	0.905399	-0.301832
C40	C	-0.045826	1.405399	0.198168
C41	C	-0.627625	0.905428	-0.301841
C42	C	-0.127625	1.405428	0.198159
C43	C	-0.401772	0.171249	-0.341886
C44	C	0.098228	0.671249	0.158114
C45	C	-0.401772	0.236684	-0.341880
C46	C	0.098228	0.736684	0.158120
C47	C	-0.354636	0.269398	-0.301882
C48	C	0.145364	0.769398	0.198118
C49	C	-0.307510	0.236671	-0.261877
C50	C	0.192490	0.736671	0.238123
C51	C	-0.307516	0.171237	-0.261880
C52	C	0.192484	0.671237	0.238120
C53	C	-0.288313	0.373081	-0.297033
C54	C	0.211687	0.873081	0.202967
C55	C	-0.288306	0.438514	-0.297034
C56	C	0.211694	0.938514	0.202966
C57	C	-0.354617	0.471219	-0.301869
C58	C	0.145383	0.971219	0.198131
C59	C	-0.420937	0.438482	-0.306716
C60	C	0.079063	0.938482	0.193284
C61	C	-0.420944	0.373048	-0.306719
C62	C	0.079056	0.873048	0.193281
C63	C	-0.354624	0.340350	-0.301874
C64	C	0.145376	0.840350	0.198126
C65	C	-0.401744	0.574890	-0.341861
C66	C	0.098256	1.074890	0.158139
C67	C	-0.401745	0.640327	-0.341850
C68	C	0.098255	1.140327	0.158150
C69	C	-0.307476	0.640312	-0.261851
C70	C	0.192524	1.140312	0.238149
C71	C	-0.307482	0.574877	-0.261859
C72	C	0.192518	1.074877	0.238141
C73	C	-0.354614	0.542170	-0.301867
C74	C	0.145386	1.042170	0.198133
C75	C	-0.815803	0.945583	-0.261845
C76	C	-0.315803	1.445583	0.238155
C77	C	-0.892662	0.945611	-0.261861
C78	C	-0.392662	1.445611	0.238139
C79	C	-0.892685	0.865428	-0.341925
C80	C	-0.392685	1.365428	0.158075
C81	C	-0.815827	0.865403	-0.341912
C82	C	-0.315827	1.365403	0.158088
C83	C	-0.777389	0.905480	-0.301869
C84	C	-0.277389	1.405480	0.198131
C85	C	-0.931105	0.905532	-0.301897
C86	C	-0.431105	1.405532	0.198103
C87	C	-1.014438	0.905562	-0.301913
C88	C	-0.514438	1.405562	0.198087
C89	C	-0.694050	0.905451	-0.301853
C90	C	-0.194050	1.405451	0.198147
C91	C	-0.162667	0.905549	-0.301907
C92	C	0.337333	1.405549	0.198093
C93	C	-0.080868	0.905584	-0.301925
C94	C	0.419132	1.405584	0.198075
C95	C	-0.354605	0.905517	-0.465286
C96	C	0.145395	1.405517	0.034714
C97	C	-0.354599	0.905539	-0.534927
C98	C	0.145401	1.405539	-0.034927
C99	C	-0.354640	1.068888	-0.301881
C100	C	0.145360	1.568888	0.198119
C101	C	-0.354649	1.138530	-0.301889
C102	C	0.145351	1.638530	0.198111
C103	C	-0.307532	0.945631	-0.567657
C104	C	0.192468	1.445631	-0.067657
C105	C	-0.307501	0.945631	-0.633092
C106	C	0.192499	1.445631	-0.133092
C107	C	-0.354549	0.905544	-0.665796
C108	C	0.145451	1.405544	-0.165796
C109	C	-0.401618	0.865444	-0.633058
C110	C	0.098382	1.365444	-0.133058
C111	C	-0.401643	0.865442	-0.567624
C112	C	0.098357	1.365442	-0.067624
C113	C	-0.420812	0.900574	-0.769460
C114	C	0.079188	1.400574	-0.269460
C115	C	-0.420789	0.900581	-0.834893
C116	C	0.079211	1.400581	-0.334893
C117	C	-0.354471	0.905548	-0.867616
C118	C	0.145529	1.405548	-0.367616
C119	C	-0.288175	0.910522	-0.834899
C120	C	0.211825	1.410522	-0.334899
C121	C	-0.288200	0.910519	-0.769465
C122	C	0.211800	1.410519	-0.269465
C123	C	-0.354526	0.905542	-0.736748
C124	C	0.145474	1.405542	-0.236748
C125	C	-0.307366	0.945641	-0.971299
C126	C	0.192634	1.445641	-0.471299
C127	C	-0.307333	0.945636	-1.036735
C128	C	0.192667	1.445636	-0.536735
C129	C	-0.401457	0.865453	-1.036700
C130	C	0.098543	1.365453	-0.536700
C131	C	-0.401483	0.865455	-0.971265
C132	C	0.098517	1.365455	-0.471265
C133	C	-0.354439	0.905553	-0.938568
C134	C	0.145561	1.405553	-0.438568
C135	C	-0.354582	0.905449	-0.139075
C136	C	0.145418	1.405449	0.360925
C137	C	-0.354381	0.905549	-0.069434
C138	C	0.145619	1.405549	0.430566
H139	H	-0.440153	0.144623	-0.374462
H140	H	0.059847	0.644623	0.125538
H141	H	-0.784508	0.978216	-0.229241
H142	H	-0.284508	1.478216	0.270759
F143	F	-0.451908	0.540079	-0.384439
F144	F	0.048092	1.040079	0.115561
H145	H	-0.269141	0.144597	-0.229309
H146	H	0.230859	0.644597	0.270691
F147	F	-0.451524	0.822785	-1.071501
F148	F	0.048476	1.322785	-0.571501
F149	F	-0.451740	0.822768	-0.532790
F150	F	0.048260	1.322768	-0.032790
F151	F	-0.933542	0.988295	-0.219263
F152	F	-0.433542	1.488295	0.280737
F153	F	-0.933600	0.822777	-0.384538
F154	F	-0.433600	1.322777	0.115462
H155	H	-0.439922	0.832804	-0.659690
H156	H	0.060078	1.332804	-0.159690
H157	H	-0.474934	0.465109	-0.310658
H158	H	0.025066	0.965109	0.189342
H159	H	-0.784548	0.832747	-0.374507
H160	H	-0.284548	1.332747	0.125493
H161	H	-0.269224	0.978281	-0.541039
H162	H	0.230776	1.478281	-0.041039
H163	H	-0.474802	0.896361	-0.742822
H164	H	0.025198	1.396361	-0.242822
F165	F	-0.451928	0.271513	-0.384453
F166	F	0.048072	0.771513	0.115547
H167	H	-0.474944	0.346397	-0.310664
H168	H	0.025056	0.846397	0.189336
H169	H	-0.440123	0.666966	-0.374419
H170	H	0.059877	1.166966	0.125581
F171	F	-0.257316	0.675124	-0.219277
F172	F	0.242684	1.175124	0.280723
H173	H	-0.234303	0.465163	-0.293094
H174	H	0.265697	0.965163	0.206906
F175	F	-0.257321	0.540054	-0.219291
F176	F	0.242679	1.040054	0.280709
F177	F	-0.257245	0.988317	-1.071568
F178	F	0.242755	1.488317	-0.571568
H179	H	-0.234312	0.346458	-0.293085
H180	H	0.265688	0.846458	0.206915
H181	H	-0.269133	0.263311	-0.229310
H182	H	0.230867	0.763311	0.270690
F183	F	-0.257392	0.988294	-0.667932
F184	F	0.242608	1.488294	-0.167932
H185	H	-0.234173	0.914567	-0.861541
H186	H	0.265827	1.414567	-0.361541
F187	F	-0.217645	0.915809	-0.734647
F188	F	0.282355	1.415809	-0.234647
F189	F	-0.257295	0.988313	-0.936498
F190	F	0.242705	1.488313	-0.436498
F191	F	-0.451581	0.822785	-0.936430
F192	F	0.048419	1.322785	-0.436430
H193	H	-0.474771	0.896535	-0.861526
H194	H	0.025229	1.396535	-0.361526
