data_functionalizedCrystal
_audit_creation_method	'MofGen! by Chris Wilmer'
_symmetry_space_group_name_H-M	'P1'
_symmetry_Int_Tables_number	1
_symmetry_cell_setting	triclinic
loop_
_symmetry_equiv_pos_as_xyz
  x,y,z
_cell_length_a	12.759401
_cell_length_b	13.897447
_cell_length_c	12.759393
_cell_angle_alpha	90.032074
_cell_angle_beta	90.021162
_cell_angle_gamma	90.021263
loop_
_atom_site_label
_atom_site_type_symbol
_atom_site_fract_x
_atom_site_fract_y
_atom_site_fract_z
Zn1	Zn	1.606220	-0.383913	0.594052
Zn2	Zn	1.606100	-0.545243	0.418371
Zn3	Zn	1.430522	-0.383968	0.418384
Zn4	Zn	1.430496	-0.545173	0.594004
O5	O	1.518334	-0.464574	0.506203
O6	O	1.753225	-0.405320	0.570763
O7	O	1.582769	-0.523902	0.271351
O8	O	1.453890	-0.248979	0.441712
O9	O	1.753137	-0.523848	0.441690
O10	O	1.582975	-0.248939	0.570775
O11	O	1.453773	-0.405414	0.271361
O12	O	1.283498	-0.405346	0.441665
O13	O	1.453846	-0.523729	0.741032
O14	O	1.283478	-0.523783	0.570693
O15	O	1.582949	-0.405253	0.741067
O16	O	1.582744	-0.680215	0.441644
O17	O	1.453729	-0.680164	0.570681
C18	C	1.245367	-0.464563	0.506176
C19	C	1.128590	-0.464582	0.506189
C20	C	0.964021	-0.526345	0.573304
C21	C	1.073745	-0.526343	0.573275
C22	C	1.073706	-0.402825	0.439120
C23	C	0.963984	-0.402832	0.439144
C24	C	0.964045	-0.597654	0.650761
C25	C	1.073769	-0.597653	0.650732
C26	C	1.518249	-0.715189	0.506178
C27	C	1.518309	-0.822403	0.506203
C28	C	1.518359	-0.909472	0.506227
C29	C	1.518433	-1.018705	0.506254
C30	C	1.792368	-0.464586	0.506230
C31	C	1.909144	-0.464591	0.506242
C32	C	1.518408	-0.464477	0.780236
C33	C	1.518439	-0.464436	0.897013
C34	C	1.518449	-0.212981	0.506250
C35	C	1.518498	-0.105767	0.506270
C36	C	1.518322	-0.464602	0.233235
C37	C	1.518494	-0.464371	0.116459
C38	C	1.585673	-0.402739	0.951895
C39	C	1.585698	-0.402704	1.061619
C40	C	1.451253	-0.526071	1.061569
C41	C	1.451223	-0.526100	0.951847
C42	C	1.663297	-0.331517	0.951925
C43	C	1.663322	-0.331482	1.061649
H44	H	0.919308	-0.352558	0.384524
Cl45	Cl	1.782594	-0.372854	0.899372
H46	H	1.641535	-0.256816	0.922169
Cl47	Cl	1.366681	-0.603649	0.882856
H48	H	0.934231	-0.672341	0.628838
H49	H	0.930066	-0.570979	0.728111
H50	H	1.634215	-0.260504	1.095696
Cl51	Cl	1.788948	-0.362355	1.107638
H52	H	1.118370	-0.352544	0.384491
H53	H	1.107758	-0.668588	0.621447
H54	H	1.103603	-0.577724	0.732132
Cl55	Cl	1.366758	-0.603588	1.130511
