data_functionalizedCrystal
_audit_creation_method	'MofGen! by Chris Wilmer'
_symmetry_space_group_name_H-M	'P1'
_symmetry_Int_Tables_number	1
_symmetry_cell_setting	triclinic
loop_
_symmetry_equiv_pos_as_xyz
  x,y,z
_cell_length_a	21.395362
_cell_length_b	16.625546
_cell_length_c	21.395356
_cell_angle_alpha	89.972354
_cell_angle_beta	89.957023
_cell_angle_gamma	90.038346
loop_
_atom_site_label
_atom_site_type_symbol
_atom_site_fract_x
_atom_site_fract_y
_atom_site_fract_z
Zn1	Zn	0.957889	-0.320680	-0.354586
Zn2	Zn	1.457889	0.179320	0.145414
Zn3	Zn	0.957809	-0.455517	-0.249808
Zn4	Zn	1.457809	0.044483	0.250192
Zn5	Zn	0.853106	-0.320739	-0.249787
Zn6	Zn	1.353106	0.179261	0.250213
Zn7	Zn	0.853089	-0.455512	-0.354513
Zn8	Zn	1.353089	0.044488	0.145487
O9	O	0.905473	-0.388112	-0.302174
O10	O	1.405473	0.111888	0.197826
O11	O	1.045557	-0.338544	-0.340726
O12	O	1.545557	0.161456	0.159274
O13	O	0.943893	-0.437665	-0.162128
O14	O	1.443893	0.062335	0.337872
O15	O	0.867047	-0.207899	-0.263710
O16	O	1.367047	0.292101	0.236290
O17	O	1.045497	-0.437608	-0.263747
O18	O	1.545497	0.062392	0.236253
O19	O	0.944031	-0.207856	-0.340706
O20	O	1.444031	0.292144	0.159294
O21	O	0.866969	-0.338645	-0.162112
O22	O	1.366969	0.161355	0.337888
O23	O	0.765426	-0.338640	-0.263640
O24	O	1.265426	0.161360	0.236360
O25	O	0.867017	-0.437599	-0.442201
O26	O	1.367017	0.062401	0.057799
O27	O	0.765413	-0.437657	-0.340582
O28	O	1.265413	0.062343	0.159418
O29	O	0.944014	-0.338539	-0.442254
O30	O	1.444014	0.161461	0.057746
O31	O	0.943876	-0.568349	-0.263676
O32	O	1.443876	-0.068349	0.236324
O33	O	0.866939	-0.568345	-0.340602
O34	O	1.366939	-0.068345	0.159398
C35	C	0.742686	-0.388155	-0.302101
C36	C	1.242686	0.111845	0.197899
C37	C	0.673044	-0.388192	-0.302085
C38	C	1.173044	0.111808	0.197915
C39	C	0.905414	-0.597603	-0.302147
C40	C	1.405414	-0.097603	0.197853
C41	C	0.905446	-0.687224	-0.302157
C42	C	1.405446	-0.187224	0.197843
C43	C	0.640341	-0.439819	-0.342088
C44	C	1.140341	0.060181	0.157912
C45	C	0.574905	-0.439799	-0.342116
C46	C	1.074905	0.060201	0.157884
C47	C	0.542176	-0.388161	-0.302129
C48	C	1.042176	0.111839	0.197871
C49	C	0.574887	-0.336525	-0.262123
C50	C	1.074887	0.163475	0.237877
C51	C	0.640321	-0.336540	-0.262101
C52	C	1.140321	0.163460	0.237899
C53	C	0.438451	-0.381677	-0.245724
C54	C	0.938451	0.118323	0.254276
C55	C	0.373019	-0.381668	-0.245745
C56	C	0.873019	0.118332	0.254255
C57	C	0.340355	-0.388109	-0.302198
C58	C	0.840355	0.111891	0.197802
C59	C	0.373133	-0.394577	-0.358632
C60	C	0.873133	0.105423	0.141368
C61	C	0.438567	-0.394592	-0.358610
C62	C	0.938567	0.105408	0.141390
C63	C	0.471224	-0.388138	-0.302149
C64	C	0.971224	0.111862	0.197851
C65	C	0.236699	-0.439716	-0.342236
C66	C	0.736699	0.060284	0.157764
C67	C	0.171263	-0.439691	-0.342265
C68	C	0.671263	0.060309	0.157735
C69	C	0.171246	-0.336421	-0.262266
C70	C	0.671246	0.163579	0.237734
C71	C	0.236681	-0.336442	-0.262242
C72	C	0.736681	0.163558	0.237758
C73	C	0.269404	-0.388094	-0.302227
C74	C	0.769404	0.111906	0.197773
C75	C	0.905555	-1.015400	-0.302222
C76	C	1.405555	-0.515400	0.197778
C77	C	0.905523	-0.924091	-0.302206
C78	C	1.405523	-0.424091	0.197794
C79	C	0.905500	-0.851315	-0.302189
C80	C	1.405500	-0.351315	0.197811
C81	C	0.905469	-0.760001	-0.302174
C82	C	1.405469	-0.260001	0.197826
C83	C	1.068897	-0.388070	-0.302247
C84	C	1.568897	0.111930	0.197753
C85	C	1.138538	-0.388052	-0.302278
C86	C	1.638538	0.111948	0.197722
C87	C	0.905522	-0.388062	-0.465597
C88	C	1.405522	0.111938	0.034403
C89	C	0.905544	-0.388041	-0.535238
C90	C	1.405544	0.111959	-0.035238
C91	C	0.905550	-0.177803	-0.302214
C92	C	1.405550	0.322197	0.197786
C93	C	0.905582	-0.088182	-0.302231
C94	C	1.405582	0.411818	0.197769
C95	C	0.865500	-0.336475	-0.567933
C96	C	1.365500	0.163525	-0.067933
C97	C	0.865497	-0.336460	-0.633369
C98	C	1.365497	0.163540	-0.133369
C99	C	0.905550	-0.388002	-0.666107
C100	C	1.405550	0.111998	-0.166107
C101	C	0.945597	-0.439578	-0.633404
C102	C	1.445597	0.060422	-0.133404
C103	C	0.945594	-0.439597	-0.567969
C104	C	1.445594	0.060403	-0.067969
C105	C	0.962003	-0.394322	-0.769812
C106	C	1.462003	0.105678	-0.269812
C107	C	0.962008	-0.394297	-0.835245
C108	C	1.462008	0.105703	-0.335245
C109	C	0.905561	-0.387948	-0.867927
C110	C	1.405561	0.112052	-0.367927
C111	C	0.849108	-0.381607	-0.835169
C112	C	1.349108	0.118393	-0.335169
C113	C	0.849104	-0.381626	-0.769735
C114	C	1.349104	0.118374	-0.269735
C115	C	0.905558	-0.387988	-0.737059
C116	C	1.405558	0.112012	-0.237059
C117	C	0.865511	-0.336363	-0.971575
C118	C	1.365511	0.163637	-0.471575
C119	C	0.865508	-0.336354	-1.037012
C120	C	1.365508	0.163646	-0.537012
C121	C	0.945613	-0.439468	-1.037045
C122	C	1.445613	0.060532	-0.537045
C123	C	0.945611	-0.439481	-0.971610
C124	C	1.445611	0.060519	-0.471610
C125	C	0.905561	-0.387925	-0.938879
C126	C	1.405561	0.112075	-0.438879
C127	C	0.905460	-0.388104	-0.139386
C128	C	1.405460	0.111896	0.360614
C129	C	0.905561	-0.387898	-0.069745
C130	C	1.405561	0.112102	0.430255
H131	H	0.666980	-0.481877	-0.374647
H132	H	1.166980	0.018123	0.125353
C133	C	0.787007	-0.374660	-0.733703
C134	C	1.287007	0.125340	-0.233703
N135	N	0.740233	-0.369417	-0.706564
N136	N	1.240233	0.130583	-0.206564
H137	H	0.263344	-0.481770	-0.374796
H138	H	0.763344	0.018230	0.125204
C139	C	0.272656	-0.279656	-0.218229
C140	C	0.772656	0.220344	0.281771
N141	N	0.299753	-0.236881	-0.185077
N142	N	0.799753	0.263119	0.314923
H143	H	1.007975	-0.399456	-0.861912
H144	H	1.507975	0.100544	-0.361912
H145	H	0.346336	-0.376406	-0.199794
H146	H	0.846336	0.123594	0.300206
C147	C	0.989660	-0.496310	-0.532004
C148	C	1.489660	0.003690	-0.032004
N149	N	1.022857	-0.539020	-0.504913
N150	N	1.522857	-0.039020	-0.004913
H151	H	0.465040	-0.376429	-0.199750
H152	H	0.965040	0.123571	0.300250
H153	H	1.007973	-0.399485	-0.743207
H154	H	1.507973	0.100515	-0.243207
C155	C	0.538924	-0.496597	-0.386123
C156	C	1.038924	0.003403	0.113877
N157	N	0.511825	-0.539379	-0.419268
N158	N	1.011825	-0.039379	0.080732
C159	C	0.538884	-0.279723	-0.218137
C160	C	1.038884	0.220277	0.281863
N161	N	0.511766	-0.236937	-0.185007
N162	N	1.011766	0.263063	0.314993
C163	C	0.989570	-0.496385	-0.669416
C164	C	1.489570	0.003615	-0.169416
N165	N	1.022660	-0.539214	-0.696541
N166	N	1.522660	-0.039214	-0.196541
H167	H	0.666948	-0.294498	-0.229525
H168	H	1.166948	0.205502	0.270475
H169	H	0.465252	-0.399856	-0.404560
H170	H	0.965252	0.100144	0.095440
H171	H	0.832885	-0.294497	-0.541288
H172	H	1.332885	0.205503	-0.041288
H173	H	0.346540	-0.399820	-0.404602
H174	H	0.846540	0.100180	0.095398
H175	H	0.832890	-0.294465	-0.659994
H176	H	1.332890	0.205535	-0.159994
H177	H	0.144598	-0.294373	-0.229711
H178	H	0.644598	0.205627	0.270289
C179	C	0.135289	-0.496494	-0.386269
C180	C	0.635289	0.003506	0.113731
N181	N	0.108193	-0.539283	-0.419411
N182	N	0.608193	-0.039283	0.080589
C183	C	0.821449	-0.279659	-0.935569
C184	C	1.321449	0.220341	-0.435569
N185	N	0.788260	-0.236950	-0.908450
N186	N	1.288260	0.263050	-0.408450
C187	C	0.787010	-0.374631	-0.871115
C188	C	1.287010	0.125369	-0.371115
N189	N	0.740240	-0.369378	-0.898192
N190	N	1.240240	0.130622	-0.398192
H191	H	0.832895	-0.294365	-1.063631
H192	H	1.332895	0.205635	-0.563631
H193	H	0.978226	-0.481433	-1.063700
H194	H	1.478226	0.018567	-0.563700
H195	H	0.978220	-0.481470	-0.944989
H196	H	1.478220	0.018530	-0.444989
