data_functionalizedCrystal
_audit_creation_method	'MofGen! by Chris Wilmer'
_symmetry_space_group_name_H-M	'P1'
_symmetry_Int_Tables_number	1
_symmetry_cell_setting	triclinic
loop_
_symmetry_equiv_pos_as_xyz
  x,y,z
_cell_length_a	16.109301
_cell_length_b	19.188930
_cell_length_c	15.186229
_cell_angle_alpha	90.009393
_cell_angle_beta	90.001245
_cell_angle_gamma	83.303131
loop_
_atom_site_label
_atom_site_type_symbol
_atom_site_fract_x
_atom_site_fract_y
_atom_site_fract_z
O1	O	1.102834	0.089744	0.073183
O2	O	1.602834	0.589744	0.573183
O3	O	0.860735	0.100913	0.073198
O4	O	1.360735	0.600913	0.573198
O5	O	0.988771	-0.006311	0.073173
O6	O	1.488771	0.493689	0.573173
O7	O	0.974798	0.196968	0.073208
O8	O	1.474798	0.696968	0.573208
O9	O	0.988761	-0.006313	-0.073284
O10	O	1.488761	0.493687	0.426716
O11	O	0.860725	0.100910	-0.073259
O12	O	1.360725	0.600910	0.426741
O13	O	1.102824	0.089742	-0.073274
O14	O	1.602824	0.589742	0.426726
Zn15	Zn	0.981773	0.095326	-0.096520
Zn16	Zn	1.481773	0.595326	0.403480
Zn17	Zn	0.981786	0.095329	0.096444
Zn18	Zn	1.481786	0.595329	0.596444
O19	O	0.974788	0.196965	-0.073249
O20	O	1.474788	0.696965	0.426751
C21	C	0.829757	0.100459	-0.000029
C22	C	1.329757	0.600459	0.499971
C23	C	0.737466	0.099103	-0.000024
C24	C	1.237466	0.599103	0.499976
C25	C	0.988313	-0.032324	-0.000058
C26	C	1.488313	0.467676	0.499942
C27	C	0.986955	-0.109832	-0.000066
C28	C	1.486955	0.390168	0.499934
C29	C	0.514993	0.159573	-0.000023
C30	C	1.014993	0.659573	0.499977
C31	C	0.428277	0.158294	-0.000029
C32	C	0.928277	0.658294	0.499971
C33	C	0.448573	0.031076	-0.000048
C34	C	0.948573	0.531076	0.499952
C35	C	0.535287	0.032357	-0.000048
C36	C	1.035287	0.532357	0.499952
C37	C	0.568495	0.096608	-0.000031
C38	C	1.068495	0.596608	0.499969
C39	C	0.395064	0.094047	-0.000037
C40	C	0.895064	0.594047	0.499963
C41	C	0.301043	0.092659	-0.000043
C42	C	0.801043	0.592659	0.499957
C43	C	0.662522	0.097996	-0.000027
C44	C	1.162522	0.597996	0.499973
C45	C	1.062082	-0.154580	-0.000075
C46	C	1.562082	0.345420	0.499925
C47	C	1.060806	-0.227407	-0.000060
C48	C	1.560806	0.272593	0.499940
C49	C	0.984399	-0.255482	-0.000055
C50	C	1.484399	0.244518	0.499945
C51	C	0.909261	-0.210724	-0.000041
C52	C	1.409261	0.289276	0.499959
C53	C	0.910540	-0.137899	-0.000046
C54	C	1.410540	0.362101	0.499954
N55	N	0.925991	-0.363624	-0.049893
N56	N	1.425991	0.136376	0.450107
N57	N	0.924782	-0.432806	-0.049890
N58	N	1.424782	0.067194	0.450110
C59	C	0.980543	-0.474900	-0.000037
C60	C	1.480543	0.025100	0.499963
N61	N	1.037571	-0.445200	0.049802
N62	N	1.537571	0.054800	0.549802
N63	N	1.038783	-0.376012	0.049795
N64	N	1.538783	0.123988	0.549795
C65	C	0.983004	-0.334448	-0.000049
C66	C	1.483004	0.165552	0.499951
C67	C	1.054292	-0.598616	-0.000029
C68	C	1.554292	-0.098616	0.499971
C69	C	1.053012	-0.671443	-0.000010
C70	C	1.553012	-0.171443	0.499990
C71	C	0.901465	-0.654759	0.000001
C72	C	1.401465	-0.154759	0.500001
C73	C	0.902747	-0.581933	-0.000010
C74	C	1.402747	-0.081933	0.499990
C75	C	0.979162	-0.553866	-0.000029
C76	C	1.479162	-0.053866	0.499971
C77	C	1.133802	0.090196	-0.000045
C78	C	1.633802	0.590196	0.499955
C79	C	1.226093	0.091552	-0.000045
C80	C	1.726093	0.591552	0.499955
C81	C	0.975246	0.222979	-0.000016
C82	C	1.475246	0.722979	0.499984
C83	C	0.976604	0.300486	-0.000003
C84	C	1.476604	0.800486	0.499997
N85	N	0.981770	0.095323	-0.228213
N86	N	1.481770	0.595323	0.271787
C87	C	1.038487	0.047860	-0.546142
C88	C	1.538487	0.547860	-0.046142
C89	C	1.038485	0.047861	-0.453952
C90	C	1.538485	0.547861	0.046048
C91	C	0.925075	0.142794	-0.453940
C92	C	1.425075	0.642794	0.046060
C93	C	0.925082	0.142797	-0.546128
C94	C	1.425082	0.642797	-0.046128
C95	C	0.981787	0.095326	-0.592227
C96	C	1.481787	0.595326	-0.092227
C97	C	0.981778	0.095324	-0.407849
C98	C	1.481778	0.595324	0.092151
C99	C	0.981775	0.095324	-0.307893
C100	C	1.481775	0.595324	0.192107
C101	C	0.981792	0.095326	-0.692189
C102	C	1.481792	0.595326	-0.192189
N103	N	0.981795	0.095326	0.228137
N104	N	1.481795	0.595326	0.728137
H105	H	0.542027	0.211890	-0.000016
H106	H	1.042027	0.711890	0.499984
H107	H	1.084661	0.009208	-0.583673
H108	H	1.584661	0.509208	-0.083673
H109	H	1.124306	-0.131733	-0.000087
H110	H	1.624306	0.368267	0.499913
H111	H	0.578851	-0.018920	-0.000057
H112	H	1.078851	0.481080	0.499943
H113	H	1.121986	-0.263848	-0.000064
H114	H	1.621986	0.236152	0.499936
H115	H	0.847050	-0.233587	-0.000035
H116	H	1.347050	0.266413	0.499965
H117	H	0.849360	-0.101464	-0.000039
H118	H	1.349360	0.398536	0.499961
C119	C	1.203960	-0.622420	-0.000017
C120	C	1.703960	-0.122420	0.499983
C121	C	1.138285	-0.567759	-0.000029
C122	C	1.638285	-0.067759	0.499971
H123	H	1.255812	-0.603369	-0.000009
H124	H	1.755812	-0.103369	0.499991
H125	H	1.200313	-0.650484	-0.051086
H126	H	1.700313	-0.150484	0.448914
H127	H	1.200299	-0.650469	0.051061
H128	H	1.700299	-0.150469	0.551061
H129	H	1.141941	-0.539712	-0.051111
H130	H	1.641941	-0.039712	0.448889
H131	H	1.141933	-0.539682	0.051044
H132	H	1.641933	-0.039682	0.551044
H133	H	1.114193	-0.707878	-0.000012
H134	H	1.614193	-0.207878	0.499988
C135	C	1.150576	-0.045982	-0.463231
C136	C	1.650576	0.454018	0.036769
C137	C	1.100808	-0.004318	-0.403296
C138	C	1.600808	0.495682	0.096704
H139	H	1.189049	-0.078199	-0.431956
H140	H	1.689049	0.421801	0.068044
H141	H	1.180378	-0.016914	-0.499175
H142	H	1.680378	0.483086	0.000825
H143	H	1.116051	-0.071100	-0.499198
H144	H	1.616051	0.428900	0.000802
H145	H	1.135333	0.020803	-0.367333
H146	H	1.635333	0.520803	0.132667
H147	H	1.071004	-0.033391	-0.367336
H148	H	1.571004	0.466609	0.132664
C149	C	0.874700	0.184937	-0.312616
C150	C	1.374700	0.684937	0.187384
C151	C	0.862739	0.194965	-0.403265
C152	C	1.362739	0.694965	0.096735
H153	H	0.836209	0.217142	-0.281335
H154	H	1.336209	0.717142	0.218665
H155	H	0.930148	0.192535	-0.297502
H156	H	1.430148	0.692535	0.202498
H157	H	0.865841	0.138333	-0.297533
H158	H	1.365841	0.638333	0.202467
H159	H	0.871605	0.241567	-0.418349
H160	H	1.371605	0.741567	0.081651
H161	H	0.807278	0.187372	-0.418386
H162	H	1.307278	0.687372	0.081614
C163	C	0.781008	0.183767	-0.574530
C164	C	1.281008	0.683767	-0.074530
C165	C	0.862751	0.194972	-0.596793
C166	C	1.362751	0.694972	-0.096793
H167	H	0.742532	0.215975	-0.605814
H168	H	1.242532	0.715975	-0.105814
H169	H	0.772890	0.190563	-0.513037
H170	H	1.272890	0.690563	-0.013037
H171	H	0.772161	0.137165	-0.589655
H172	H	1.272161	0.637165	-0.089655
H173	H	0.871600	0.241573	-0.581662
H174	H	1.371600	0.741573	-0.081662
H175	H	0.870872	0.188182	-0.658300
H176	H	1.370872	0.688182	-0.158300
C177	C	0.416932	0.284169	0.000003
C178	C	0.916932	0.784169	0.500003
C179	C	0.369468	0.227508	-0.000014
C180	C	0.869468	0.727508	0.499986
H181	H	0.380623	0.326900	0.000017
H182	H	0.880623	0.826900	0.500017
H183	H	0.451173	0.282022	-0.051067
H184	H	0.951173	0.782022	0.448933
H185	H	0.451178	0.282016	0.051079
H186	H	0.951178	0.782016	0.551079
H187	H	0.335225	0.229658	-0.051094
H188	H	0.835225	0.729658	0.448906
H189	H	0.335211	0.229656	0.051061
H190	H	0.835211	0.729656	0.551061
C191	C	0.832216	-0.758982	0.000015
C192	C	1.332216	-0.258982	0.500015
C193	C	0.817475	-0.685610	0.000010
C194	C	1.317475	-0.185610	0.500010
H195	H	0.780361	-0.778029	0.000018
H196	H	1.280361	-0.278029	0.500018
H197	H	0.863139	-0.774329	0.051083
H198	H	1.363139	-0.274329	0.551083
H199	H	0.863135	-0.774347	-0.051064
H200	H	1.363135	-0.274347	0.448936
H201	H	0.786561	-0.670245	0.051091
H202	H	1.286561	-0.170245	0.551091
H203	H	0.786539	-0.670257	-0.051064
H204	H	1.286539	-0.170257	0.448936
H205	H	0.841570	-0.545497	-0.000008
H206	H	1.341570	-0.045497	0.499992
H207	H	0.421524	-0.021234	-0.000066
H208	H	0.921524	0.478766	0.499934
