data_functionalizedCrystal
_audit_creation_method	'MofGen! by Chris Wilmer'
_symmetry_space_group_name_H-M	'P1'
_symmetry_Int_Tables_number	1
_symmetry_cell_setting	triclinic
loop_
_symmetry_equiv_pos_as_xyz
  x,y,z
_cell_length_a	29.839125
_cell_length_b	19.121102
_cell_length_c	19.121063
_cell_angle_alpha	90.126902
_cell_angle_beta	87.571153
_cell_angle_gamma	92.451796
loop_
_atom_site_label
_atom_site_type_symbol
_atom_site_fract_x
_atom_site_fract_y
_atom_site_fract_z
Zn1	Zn	-0.291758	-1.059799	0.325059
Zn2	Zn	-0.219686	-1.054718	0.442259
Zn3	Zn	-0.213308	-0.942575	0.320031
Zn4	Zn	-0.291457	-0.937524	0.437249
O5	O	-0.254052	-0.998654	0.381149
O6	O	-0.284992	-1.157230	0.344807
O7	O	-0.155973	-1.039829	0.426037
O8	O	-0.221171	-0.962366	0.222593
O9	O	-0.232042	-1.153496	0.430913
O10	O	-0.278808	-1.048490	0.226287
O11	O	-0.151287	-0.957438	0.336237
O12	O	-0.220880	-0.843801	0.331379
O13	O	-0.354365	-0.953757	0.422374
O14	O	-0.278295	-0.840090	0.417499
O15	O	-0.354586	-1.043592	0.339949
O16	O	-0.231750	-1.034931	0.539699
O17	O	-0.284480	-0.948830	0.536018
C18	C	-0.248863	-0.816508	0.373350
C19	C	-0.246654	-0.738584	0.370031
C20	C	-0.258785	-0.990800	0.563297
C21	C	-0.260826	-0.987504	0.641223
C22	C	-0.371232	-0.998678	0.381164
C23	C	-0.421167	-0.998688	0.381170
C24	C	-0.777636	-0.951966	0.423930
C25	C	-0.589964	-0.951938	0.424010
O26	O	-0.565601	-0.912139	0.460495
N27	N	-0.566611	-0.998706	0.381105
C28	C	-0.590177	-1.045482	0.338175
O29	O	-0.566007	-1.085256	0.301679
C30	C	-0.777848	-1.045507	0.338092
C31	C	-0.801200	-0.998740	0.381004
C32	C	-0.800988	-0.905203	0.466838
C33	C	-0.847903	-0.905213	0.466821
C34	C	-0.871467	-0.951987	0.423895
C35	C	-0.848115	-0.998750	0.380987
C36	C	-0.801414	-1.092279	0.295158
C37	C	-0.848334	-1.092279	0.295140
C38	C	-0.871686	-1.045513	0.338052
C39	C	-0.918594	-1.045534	0.338043
N40	N	-0.941948	-0.998765	0.380947
C41	C	-0.918384	-0.951992	0.423873
C42	C	-0.491648	-1.045467	0.338222
C43	C	-0.444730	-1.045461	0.338244
C44	C	-0.444520	-0.951916	0.424078
C45	C	-0.491439	-0.951925	0.424060
C46	C	-0.515001	-0.998698	0.381127
C47	C	-1.016910	-0.952017	0.423834
C48	C	-1.063829	-0.952033	0.423814
C49	C	-1.064035	-1.045576	0.337978
C50	C	-1.017119	-1.045563	0.338000
C51	C	-0.993558	-0.998777	0.380929
O52	O	-0.942986	-1.085307	0.301571
O53	O	-0.942562	-0.912213	0.460353
C54	C	-0.730721	-0.951956	0.423947
C55	C	-0.707369	-0.998719	0.381039
C56	C	-0.730933	-1.045493	0.338113
C57	C	-0.660452	-0.998714	0.381061
C58	C	-0.636888	-0.951941	0.423987
C59	C	-0.660242	-0.905172	0.466891
C60	C	-0.707157	-0.905182	0.466873
C61	C	-0.707579	-1.092262	0.295209
C62	C	-0.660664	-1.092248	0.295231
C63	C	-0.637100	-1.045474	0.338157
C64	C	-0.137329	-0.998673	0.381086
C65	C	-0.087393	-0.998807	0.380889
C66	C	-0.259262	-1.181512	0.388979
C67	C	-0.261482	-1.259435	0.392316
C68	C	-0.275466	-0.700058	0.413377
C69	C	-0.273393	-0.626841	0.410248
C70	C	-0.242505	-0.592151	0.363777
C71	C	-0.213691	-0.630681	0.320426
C72	C	-0.215767	-0.703897	0.323552
C73	C	-0.234745	-0.371181	0.352091
C74	C	-0.232670	-0.297960	0.348970
C75	C	-0.292372	-0.294125	0.438792
C76	C	-0.294444	-0.367343	0.441916
C77	C	-0.265632	-0.405867	0.398563
C78	C	-0.240383	-0.517311	0.360580
C79	C	-0.267756	-0.480706	0.401757
C80	C	-0.249312	-1.006558	0.198291
C81	C	-0.247291	-1.009926	0.120368
C82	C	-0.234357	-1.030819	0.679728
C83	C	-0.236280	-1.027723	0.752948
C84	C	-0.264670	-0.981309	0.787662
C85	C	-0.291142	-0.937992	0.749152
C86	C	-0.289222	-0.941092	0.675934
C87	C	-0.271843	-0.969709	1.008640
C88	C	-0.273761	-0.966611	1.081864
C89	C	-0.218899	-1.056344	1.085654
C90	C	-0.216978	-1.059436	1.012434
C91	C	-0.243453	-1.016122	0.973931
C92	C	-0.266635	-0.978142	0.862504
C93	C	-0.241490	-1.019293	0.899090
H94	H	-0.997731	-0.913914	0.458785
C95	C	-0.322373	-0.886938	0.787332
H96	H	-0.337866	-0.861590	0.753912
H97	H	-0.305054	-0.855199	0.814625
H98	H	-0.343475	-0.912534	0.817006
H99	H	-0.782409	-1.130362	0.260215
H100	H	-0.296888	-0.928823	1.110126
H101	H	-0.867517	-1.130366	0.260174
H102	H	-0.218376	-1.057086	0.870824
H103	H	-0.315830	-0.262751	0.474086
H104	H	-0.425327	-0.913832	0.459031
H105	H	-0.211281	-0.402539	0.316795
H106	H	-0.425722	-1.083551	0.303308
C107	C	-0.991432	-1.097002	0.290796
H108	H	-1.012187	-1.124857	0.265225
H109	H	-0.974695	-1.126388	0.318917
H110	H	-0.971572	-1.071488	0.259105
C111	C	-0.179714	-0.592523	0.269311
H112	H	-0.182600	-0.543400	0.273663
H113	H	-0.185453	-0.606552	0.222735
H114	H	-0.150122	-0.604070	0.280013
C115	C	-1.089960	-1.097018	0.290758
H116	H	-1.121246	-1.090315	0.296890
H117	H	-1.083887	-1.143682	0.303025
H118	H	-1.080747	-1.088778	0.243216
H119	H	-0.214725	-1.062995	0.784295
H120	H	-0.866912	-0.867129	0.501762
H121	H	-0.292907	-0.508954	0.439590
C122	C	-0.189781	-1.103990	1.128006
H123	H	-0.172596	-1.132073	1.096844
H124	H	-0.208600	-1.133310	1.157839
H125	H	-0.170177	-1.075979	1.155454
C126	C	-0.198689	-0.259798	0.297857
H127	H	-0.201575	-0.210675	0.302215
H128	H	-0.204426	-0.273820	0.251278
H129	H	-0.169097	-0.271346	0.308560
C130	C	-0.732838	-0.853733	0.514072
H131	H	-0.712079	-0.825875	0.539631
H132	H	-0.752705	-0.879228	0.545761
H133	H	-0.749566	-0.824343	0.485936
H134	H	-1.082840	-0.913950	0.458761
H135	H	-0.310777	-0.905821	0.644584
H136	H	-0.781807	-0.867110	0.501793
C137	C	-0.517121	-0.900477	0.471257
H138	H	-0.496364	-0.872620	0.496820
H139	H	-0.536990	-0.925973	0.502943
H140	H	-0.533848	-0.871086	0.443120
H141	H	-0.293399	-0.934439	0.977296
H142	H	-0.510828	-1.083558	0.303260
C143	C	-0.297862	-0.927086	0.900689
H144	H	-0.313354	-0.901731	0.867273
H145	H	-0.280541	-0.895351	0.927985
H146	H	-0.318963	-0.952683	0.930361
C147	C	-0.203128	-1.081877	0.641549
H148	H	-0.187642	-1.107234	0.674970
H149	H	-0.182027	-1.056290	0.611873
H150	H	-0.220452	-1.113618	0.614258
H151	H	-0.192308	-0.735264	0.288251
H152	H	-0.641048	-0.867090	0.501845
C153	C	-0.185752	-1.110497	0.974254
H154	H	-0.170266	-1.135855	1.007673
H155	H	-0.164652	-1.084909	0.944577
H156	H	-0.203077	-1.142237	0.946963
H157	H	-0.215233	-0.489057	0.322744
C158	C	-0.634982	-1.143694	0.248022
H159	H	-0.655739	-1.171544	0.222452
H160	H	-0.618248	-1.173083	0.276144
H161	H	-0.615120	-1.118183	0.216332
H162	H	-0.726760	-1.130351	0.260253
H163	H	-0.300617	-0.728298	0.451221
H164	H	-0.296854	-0.595477	0.445546
C165	C	-0.328424	-0.405498	0.493030
H166	H	-0.345289	-0.372066	0.518393
H167	H	-0.312810	-0.432737	0.524751
H168	H	-0.348142	-0.435221	0.467474
