data_functionalizedCrystal
_audit_creation_method	'MofGen! by Chris Wilmer'
_symmetry_space_group_name_H-M	'P1'
_symmetry_Int_Tables_number	1
_symmetry_cell_setting	triclinic
loop_
_symmetry_equiv_pos_as_xyz
  x,y,z
_cell_length_a	14.044220
_cell_length_b	14.519709
_cell_length_c	12.996460
_cell_angle_alpha	89.992910
_cell_angle_beta	90.000499
_cell_angle_gamma	91.565489
loop_
_atom_site_label
_atom_site_type_symbol
_atom_site_fract_x
_atom_site_fract_y
_atom_site_fract_z
O1	O	1.258085	-0.222370	0.085462
O2	O	1.591418	0.110963	0.418795
O3	O	1.924752	0.444297	0.752128
O4	O	0.982102	-0.214346	0.085488
O5	O	1.315435	0.118987	0.418821
O6	O	1.648769	0.452321	0.752154
O7	O	1.127411	-0.084710	0.085465
O8	O	1.460744	0.248624	0.418798
O9	O	1.794077	0.581957	0.752131
O10	O	1.112776	-0.352006	0.085485
O11	O	1.446110	-0.018673	0.418818
O12	O	1.779443	0.314660	0.752151
O13	O	1.127396	-0.084701	-0.085669
O14	O	1.460729	0.248633	0.247664
O15	O	1.794062	0.581966	0.580998
O16	O	0.982087	-0.214337	-0.085646
O17	O	1.315420	0.118997	0.247687
O18	O	1.648754	0.452330	0.581021
O19	O	1.258070	-0.222361	-0.085672
O20	O	1.591403	0.110972	0.247661
O21	O	1.924736	0.444306	0.580995
Cu22	Cu	1.120077	-0.218348	-0.101285
Cu23	Cu	1.453410	0.114985	0.232048
Cu24	Cu	1.786744	0.448319	0.565382
Cu25	Cu	1.120095	-0.218359	0.101101
Cu26	Cu	1.453428	0.114975	0.434434
Cu27	Cu	1.786762	0.448308	0.767767
O28	O	1.112761	-0.351997	-0.085649
O29	O	1.446094	-0.018664	0.247684
O30	O	1.779428	0.314669	0.581018
C31	C	0.946774	-0.210829	-0.000076
C32	C	1.280107	0.122504	0.333257
C33	C	1.613441	0.455838	0.666591
C34	C	0.841531	-0.200352	-0.000066
C35	C	1.174864	0.132982	0.333267
C36	C	1.508197	0.466315	0.666600
C37	C	1.126721	-0.050290	-0.000102
C38	C	1.460054	0.283043	0.333231
C39	C	1.793388	0.616376	0.666564
C40	C	1.124677	0.052256	-0.000103
C41	C	1.458011	0.385589	0.333231
C42	C	1.791344	0.718922	0.666564
N43	N	1.120071	-0.218341	-0.243632
N44	N	1.453405	0.114993	0.089701
N45	N	1.786738	0.448326	0.423035
C46	C	0.648837	-0.181197	-0.000088
C47	C	0.982170	0.152136	0.333245
C48	C	1.315503	0.485469	0.666578
C49	C	0.591329	-0.255505	-0.000087
C50	C	0.924663	0.077828	0.333246
C51	C	1.257996	0.411161	0.666580
C52	C	0.484108	-0.244848	-0.000099
C53	C	0.817441	0.088486	0.333234
C54	C	1.150775	0.421819	0.666567
C55	C	0.756068	-0.191854	-0.000076
C56	C	1.089402	0.141480	0.333257
C57	C	1.422735	0.474813	0.666591
C58	C	1.293398	-0.225878	-0.000106
C59	C	1.626731	0.107455	0.333227
C60	C	1.960064	0.440789	0.666561
C61	C	1.398641	-0.236355	-0.000109
C62	C	1.731975	0.096978	0.333224
C63	C	2.065308	0.430311	0.666558
C64	C	1.113451	-0.386416	-0.000080
C65	C	1.446784	-0.053083	0.333253
C66	C	1.780117	0.280250	0.666587
C67	C	1.115494	-0.488963	-0.000073
C68	C	1.448828	-0.155629	0.333261
C69	C	1.782161	0.177704	0.666594
C70	C	1.117153	0.427758	-0.000075
C71	C	1.450487	0.761092	0.333258
C72	C	1.783820	1.094425	0.666591
C73	C	1.119243	0.323282	-0.000083
C74	C	1.452576	0.656615	0.333250
C75	C	1.785909	0.989949	0.666584
C76	C	1.120915	0.240010	-0.000090
C77	C	1.454248	0.573344	0.333243
C78	C	1.787582	0.906677	0.666577
C79	C	1.123005	0.135527	-0.000096
C80	C	1.456338	0.468861	0.333237
C81	C	1.789672	0.802194	0.666571
C82	C	1.120094	-0.218360	-0.663446
C83	C	1.453427	0.114974	-0.330113
C84	C	1.786760	0.448307	0.003220
C85	C	1.120085	-0.218357	-0.546641
C86	C	1.453418	0.114976	-0.213308
C87	C	1.786751	0.448309	0.120025
C88	C	1.120083	-0.218351	-0.453543
C89	C	1.453416	0.114982	-0.120210
C90	C	1.786750	0.448316	0.213124
C91	C	1.120073	-0.218347	-0.336730
C92	C	1.453406	0.114986	-0.003397
C93	C	1.786740	0.448320	0.329936
N94	N	1.120108	-0.218360	0.243448
N95	N	1.453441	0.114974	0.576781
N96	N	1.786775	0.448307	0.910114
H97	H	0.622622	-0.327127	-0.000077
H98	H	0.955955	0.006206	0.333257
H99	H	1.289289	0.339540	0.666590
C100	C	0.606570	-0.084449	-0.000089
C101	C	0.939903	0.248884	0.333244
C102	C	1.273236	0.582217	0.666578
H103	H	0.539004	-0.089889	-0.000085
H104	H	0.872337	0.243444	0.333248
H105	H	1.205671	0.576777	0.666582
H106	H	0.627308	-0.051876	-0.059762
H107	H	0.960641	0.281457	0.273571
H108	H	1.293974	0.614791	0.606904
H109	H	0.627302	-0.051901	0.059601
H110	H	0.960636	0.281432	0.392935
H111	H	1.293969	0.614766	0.726268
