data_functionalizedCrystal
_audit_creation_method	'MofGen! by Chris Wilmer'
_symmetry_space_group_name_H-M	'P1'
_symmetry_Int_Tables_number	1
_symmetry_cell_setting	triclinic
loop_
_symmetry_equiv_pos_as_xyz
  x,y,z
_cell_length_a	12.784905
_cell_length_b	19.188937
_cell_length_c	11.295483
_cell_angle_alpha	85.919817
_cell_angle_beta	86.327249
_cell_angle_gamma	101.872625
loop_
_atom_site_label
_atom_site_type_symbol
_atom_site_fract_x
_atom_site_fract_y
_atom_site_fract_z
O1	O	1.417478	0.000763	-0.099032
O2	O	1.107886	-0.029146	-0.099034
O3	O	1.271612	0.087987	-0.099022
O4	O	1.253752	-0.116371	-0.099044
O5	O	1.257231	0.077714	0.099028
O6	O	1.093505	-0.039420	0.099016
O7	O	1.403098	-0.009511	0.099018
Cu8	Cu	1.246989	-0.025403	0.117100
Cu9	Cu	1.263995	-0.013254	-0.117116
O10	O	1.239372	-0.126644	0.099006
C11	C	1.061087	-0.036228	-0.000009
C12	C	0.943067	-0.042016	-0.000009
C13	C	0.747227	0.075903	-0.000018
C14	C	0.636337	0.070468	-0.000018
C15	C	0.610395	-0.058319	-0.000019
C16	C	0.721285	-0.052884	-0.000019
C17	C	0.789698	0.014229	-0.000016
C18	C	0.900589	0.019663	-0.000007
C19	C	0.874646	-0.109123	-0.000017
C20	C	0.763756	-0.114558	-0.000017
C21	C	1.263842	0.108827	0.000003
C22	C	1.262102	0.186230	0.000004
C23	C	1.241887	0.733164	0.107943
C24	C	1.243510	0.660434	0.107949
C25	C	1.252165	0.629663	-0.000008
C26	C	1.259171	0.671623	-0.107977
C27	C	1.257537	0.744350	-0.107979
N28	N	1.321065	0.528509	-0.080363
N29	N	1.322618	0.459422	-0.080354
C30	C	1.257085	0.410542	-0.000008
N31	N	1.189952	0.433360	0.080347
N32	N	1.188403	0.502454	0.080341
C33	C	1.253937	0.550804	-0.000017
C34	C	1.251832	0.289728	0.107961
C35	C	1.253449	0.216996	0.107962
C36	C	1.269120	0.228188	-0.107967
C37	C	1.267493	0.300917	-0.107965
C38	C	1.258854	0.331683	0.000003
C39	C	1.449897	-0.002429	-0.000009
C40	C	1.567918	0.003359	-0.000017
N41	N	1.235035	-0.033948	0.281836
C42	C	1.247146	0.852516	-0.000017
C43	C	1.248898	0.775116	-0.000012
N44	N	1.275957	-0.004703	-0.281852
C45	C	1.362006	0.056844	0.531135
C46	C	1.352980	0.050383	0.655798
C47	C	1.207953	-0.053329	0.655827
C48	C	1.216979	-0.046868	0.531164
C49	C	1.294009	0.008220	0.468822
C50	C	1.303039	0.014678	0.344157
C51	C	1.158007	-0.089030	0.344189
C52	C	1.148981	-0.095492	0.468852
H53	H	0.601763	0.120690	-0.000022
H54	H	1.365764	0.059532	0.293399
H55	H	1.237781	0.626268	0.195862
H56	H	1.102642	-0.128625	0.293440
H57	H	0.956289	0.074309	-0.000003
H58	H	1.408349	0.089978	0.706529
H59	H	0.909236	-0.159343	-0.000009
H60	H	1.145229	-0.098177	0.706602
H61	H	0.802929	0.130549	-0.000008
H62	H	0.554677	-0.112958	-0.000037
H63	H	1.273209	0.335076	-0.195874
H64	H	0.708040	-0.169199	-0.000024
H65	H	1.234851	0.758208	0.195859
H66	H	1.266214	0.646564	-0.195876
H67	H	1.086262	-0.140342	0.519625
H68	H	1.263245	0.778507	-0.195892
H69	H	1.244789	0.314778	0.195874
H70	H	1.247737	0.182839	0.195875
H71	H	1.424735	0.101695	0.480375
H72	H	1.276155	0.203133	-0.195867
