data_functionalizedCrystal
_audit_creation_method	'MofGen! by Chris Wilmer'
_symmetry_space_group_name_H-M	'P1'
_symmetry_Int_Tables_number	1
_symmetry_cell_setting	triclinic
loop_
_symmetry_equiv_pos_as_xyz
  x,y,z
_cell_length_a	11.792241
_cell_length_b	19.288864
_cell_length_c	18.366186
_cell_angle_alpha	89.977071
_cell_angle_beta	90.005243
_cell_angle_gamma	96.335169
loop_
_atom_site_label
_atom_site_type_symbol
_atom_site_fract_x
_atom_site_fract_y
_atom_site_fract_z
O1	O	0.141580	-0.922157	0.060784
O2	O	0.641580	-0.422157	0.560784
O3	O	0.160679	-0.720005	0.060734
O4	O	0.660679	-0.220005	0.560734
O5	O	-0.014115	-0.825987	0.060755
O6	O	0.485885	-0.325987	0.560755
O7	O	0.316375	-0.816175	0.060763
O8	O	0.816375	-0.316175	0.560763
O9	O	-0.014120	-0.825968	-0.060345
O10	O	0.485880	-0.325968	0.439655
O11	O	0.160675	-0.719987	-0.060365
O12	O	0.660675	-0.219987	0.439635
O13	O	0.141575	-0.922139	-0.060316
O14	O	0.641575	-0.422139	0.439684
Zn15	Zn	0.151124	-0.821060	-0.079568
Zn16	Zn	0.651124	-0.321060	0.420432
Zn17	Zn	0.151131	-0.821084	0.079986
Zn18	Zn	0.651131	-0.321084	0.579986
O19	O	0.316370	-0.816157	-0.060337
O20	O	0.816370	-0.316157	0.439663
C21	C	-0.056399	-0.825361	0.000205
C22	C	0.443601	-0.325361	0.500205
C23	C	-0.182385	-0.823517	0.000206
C24	C	0.317615	-0.323517	0.500206
C25	C	0.160063	-0.694116	0.000178
C26	C	0.660063	-0.194116	0.500178
C27	C	0.158218	-0.617002	0.000159
C28	C	0.658218	-0.117002	0.500159
N29	N	0.151119	-0.821048	-0.188459
N30	N	0.651119	-0.321048	0.311541
C31	C	-0.413046	-0.820125	0.000217
C32	C	0.086954	-0.320125	0.500217
C33	C	-0.284689	-0.822009	0.000211
C34	C	0.215311	-0.322009	0.500211
C35	C	0.358654	-0.816783	0.000214
C36	C	0.858654	-0.316783	0.500214
C37	C	0.484640	-0.818627	0.000219
C38	C	0.984640	-0.318627	0.500219
C39	C	0.142192	-0.948028	0.000242
C40	C	0.642192	-0.448028	0.500242
C41	C	0.144037	-1.025142	0.000266
C42	C	0.644037	-0.525142	0.500266
C43	C	0.260779	-0.572888	0.000173
C44	C	0.760779	-0.072888	0.500173
C45	C	0.259046	-0.500431	0.000181
C46	C	0.759046	-0.000431	0.500181
C47	C	0.154746	-0.472091	0.000189
C48	C	0.654746	0.027909	0.500189
C49	C	0.052171	-0.516215	0.000171
C50	C	0.552171	-0.016215	0.500171
C51	C	0.053907	-0.588670	0.000156
C52	C	0.553907	-0.088670	0.500156
C53	C	0.072756	-0.363370	0.042638
C54	C	0.572756	0.136630	0.542638
C55	C	0.071024	-0.290916	0.042658
C56	C	0.571024	0.209084	0.542658
C57	C	0.149387	-0.248615	0.000233
C58	C	0.649387	0.251385	0.500233
C59	C	0.229501	-0.278777	-0.042202
C60	C	0.729501	0.221223	0.457798
C61	C	0.231237	-0.351232	-0.042217
C62	C	0.731237	0.148768	0.457783
C63	C	0.152852	-0.393526	0.000205
C64	C	0.652852	0.106474	0.500205
C65	C	0.250076	-0.125935	0.000255
C66	C	0.750076	0.374065	0.500255
C67	C	0.248339	-0.053477	0.000258
C68	C	0.748339	0.446523	0.500258
C69	C	0.041460	-0.069262	0.000256
C70	C	0.541460	0.430738	0.500256
C71	C	0.043201	-0.141718	0.000246
C72	C	0.543201	0.358282	0.500246
C73	C	0.147512	-0.170050	0.000248
C74	C	0.647512	0.329950	0.500248
C75	C	0.219785	-0.863426	-0.226541
C76	C	0.719785	-0.363426	0.273459
C77	C	0.219782	-0.863437	-0.302768
C78	C	0.719782	-0.363437	0.197232
C79	C	0.151126	-0.821058	-0.340912
C80	C	0.651126	-0.321058	0.159088
C81	C	0.082446	-0.778678	-0.302821
C82	C	0.582446	-0.278678	0.197179
C83	C	0.082443	-0.778673	-0.226594
C84	C	0.582443	-0.278673	0.273406
C85	C	0.148256	-0.758430	-0.461708
C86	C	0.648256	-0.258430	0.038292
C87	C	0.148267	-0.758433	-0.537933
C88	C	0.648267	-0.258433	-0.037933
C89	C	0.151130	-0.821074	-0.576019
C90	C	0.651130	-0.321074	-0.076019
C91	C	0.154005	-0.883712	-0.537871
C92	C	0.654005	-0.383712	-0.037871
C93	C	0.154002	-0.883707	-0.461644
C94	C	0.654002	-0.383707	0.038356
C95	C	0.151122	-0.821059	-0.423566
C96	C	0.651122	-0.321059	0.076434
C97	C	0.219796	-0.863467	-0.696756
C98	C	0.719796	-0.363467	-0.196756
C99	C	0.219785	-0.863480	-0.772985
C100	C	0.719785	-0.363480	-0.272985
C101	C	0.082455	-0.778714	-0.773036
C102	C	0.582455	-0.278714	-0.273036
C103	C	0.082460	-0.778708	-0.696808
C104	C	0.582460	-0.278708	-0.196808
C105	C	0.151137	-0.821083	-0.658673
C106	C	0.651137	-0.321083	-0.158673
N107	N	0.151127	-0.821101	0.188877
N108	N	0.651127	-0.321101	0.688877
H109	H	0.342567	-0.464507	0.000190
H110	H	0.842567	0.035493	0.500190
N111	N	-0.056720	-0.636253	0.000152
N112	N	0.443280	-0.136253	0.500152
H113	H	-0.039793	-0.686452	0.000145
H114	H	0.460207	-0.186452	0.500145
H115	H	-0.102195	-0.627012	-0.044739
H116	H	0.397805	-0.127012	0.455261
N117	N	0.008396	-0.732966	-0.343954
N118	N	0.508396	-0.232966	0.156046
H119	H	-0.074239	-0.746362	-0.330690
H120	H	0.425761	-0.246362	0.169310
H121	H	0.018914	-0.739417	-0.398010
H122	H	0.518914	-0.239417	0.101990
N123	N	0.157079	-0.951260	-0.420495
N124	N	0.657079	-0.451260	0.079505
H125	H	0.227523	-0.948123	-0.388862
H126	H	0.727523	-0.448123	0.111138
H127	H	0.158846	-0.990912	-0.456227
H128	H	0.658846	-0.490912	0.043773
H129	H	0.026553	-0.744209	-0.804091
H130	H	0.526553	-0.244209	-0.304091
H131	H	0.275703	-0.897934	-0.195495
H132	H	0.775703	-0.397934	0.304505
N133	N	0.373289	-0.603437	0.000177
N134	N	0.873289	-0.103437	0.500177
H135	H	0.418209	-0.587350	-0.044709
H136	H	0.918209	-0.087350	0.455291
H137	H	0.358745	-0.656027	0.000194
H138	H	0.858745	-0.156027	0.500194
H139	H	0.331860	-0.017560	0.000265
H140	H	0.831860	0.482440	0.500265
N141	N	0.008376	-0.732965	-0.185515
N142	N	0.508376	-0.232965	0.314485
H143	H	-0.035123	-0.706120	-0.221242
H144	H	0.464877	-0.206120	0.278758
H145	H	0.058002	-0.699193	-0.153903
H146	H	0.558002	-0.199193	0.346097
H147	H	0.026549	-0.744196	-0.665802
H148	H	0.526549	-0.244196	-0.165802
H149	H	0.296465	-0.375786	-0.076772
H150	H	0.796465	0.124214	0.423228
H151	H	0.005795	-0.266364	0.077214
H152	H	0.505795	0.233636	0.577214
H153	H	-0.040316	-0.177637	0.000238
H154	H	0.459684	0.322363	0.500238
N155	N	0.157151	-0.951265	-0.578956
N156	N	0.657151	-0.451265	-0.078956
H157	H	0.228747	-0.972694	-0.565672
H158	H	0.728747	-0.472694	-0.065672
H159	H	0.156685	-0.941690	-0.633016
H160	H	0.656685	-0.441690	-0.133016
H161	H	0.293311	-0.244337	-0.076749
H162	H	0.793311	0.255663	0.423251
H163	H	0.145932	-0.707430	-0.568988
H164	H	0.645932	-0.207430	-0.068988
N165	N	0.362575	-0.156500	0.000254
N166	N	0.862575	0.343500	0.500254
H167	H	0.427287	-0.117556	0.000258
H168	H	0.927287	0.382444	0.500258
H169	H	0.367798	-0.186196	-0.044643
H170	H	0.867798	0.313804	0.455357
N171	N	-0.071038	-0.038706	0.000257
N172	N	0.428962	0.461294	0.500257
H173	H	-0.056577	0.013888	0.000267
H174	H	0.443423	0.513888	0.500267
H175	H	-0.115905	-0.054841	0.045147
H176	H	0.384095	0.445159	0.545147
H177	H	0.275716	-0.897972	-0.665704
H178	H	0.775716	-0.397972	-0.165704
H179	H	-0.032752	-0.493136	0.000188
H180	H	0.467248	0.006864	0.500188
H181	H	0.008941	-0.397806	0.077190
H182	H	0.508941	0.102194	0.577190
H183	H	0.145932	-0.707416	-0.430705
H184	H	0.645932	-0.207416	0.069295
N185	N	0.293854	-0.909200	-0.814045
N186	N	0.793854	-0.409200	-0.314045
H187	H	0.349536	-0.879178	-0.845687
H188	H	0.849536	-0.379178	-0.345687
H189	H	0.244225	-0.943015	-0.845610
H190	H	0.744225	-0.443015	-0.345610
N191	N	0.293846	-0.909146	-0.343855
N192	N	0.793846	-0.409146	0.156145
H193	H	0.337350	-0.935990	-0.308129
H194	H	0.837350	-0.435990	0.191871
H195	H	0.349450	-0.879065	-0.375490
H196	H	0.849450	-0.379065	0.124510
