data_functionalizedCrystal
_audit_creation_method	'MofGen! by Chris Wilmer'
_symmetry_space_group_name_H-M	'P1'
_symmetry_Int_Tables_number	1
_symmetry_cell_setting	triclinic
loop_
_symmetry_equiv_pos_as_xyz
  x,y,z
_cell_length_a	18.101398
_cell_length_b	18.050589
_cell_length_c	18.101389
_cell_angle_alpha	90.014016
_cell_angle_beta	90.024327
_cell_angle_gamma	90.023488
loop_
_atom_site_label
_atom_site_type_symbol
_atom_site_fract_x
_atom_site_fract_y
_atom_site_fract_z
Zn1	Zn	1.132136	-0.295831	0.418861
Zn2	Zn	1.632136	0.204169	0.918861
Zn3	Zn	1.132038	-0.420005	0.295029
Zn4	Zn	1.632038	0.079995	0.795029
Zn5	Zn	1.008295	-0.295823	0.295023
Zn6	Zn	1.508295	0.204177	0.795023
Zn7	Zn	1.008252	-0.419974	0.418818
Zn8	Zn	1.508252	0.080026	0.918818
O9	O	1.070180	-0.357908	0.356933
O10	O	1.570180	0.142092	0.856933
O11	O	1.235756	-0.312320	0.402456
O12	O	1.735756	0.187680	0.902456
O13	O	1.115600	-0.403542	0.191396
O14	O	1.615600	0.096458	0.691396
O15	O	1.024782	-0.191900	0.311465
O16	O	1.524782	0.308100	0.811465
O17	O	1.235684	-0.403550	0.311477
O18	O	1.735684	0.096450	0.811477
O19	O	1.115767	-0.191905	0.402449
O20	O	1.615767	0.308095	0.902449
O21	O	1.024687	-0.312306	0.191391
O22	O	1.524687	0.187694	0.691391
O23	O	0.904656	-0.312276	0.311423
O24	O	1.404656	0.187724	0.811423
O25	O	1.024708	-0.403496	0.522457
O26	O	1.524708	0.096504	1.022457
O27	O	0.904625	-0.403488	0.402375
O28	O	1.404625	0.096512	0.902375
O29	O	1.115725	-0.312289	0.522489
O30	O	1.615725	0.187711	1.022489
O31	O	1.115558	-0.523926	0.311435
O32	O	1.615558	-0.023926	0.811435
O33	O	1.024613	-0.523902	0.402382
O34	O	1.524613	-0.023902	0.902382
C35	C	0.877770	-0.357878	0.356894
C36	C	1.377770	0.142122	0.856894
C37	C	0.795455	-0.357883	0.356895
C38	C	1.295455	0.142117	0.856895
C39	C	0.496364	-0.357930	0.356957
C40	C	0.996364	0.142070	0.856957
C41	C	0.527685	-0.300254	0.300012
C42	C	1.027685	0.199746	0.800012
C43	C	0.613303	-0.300409	0.299769
C44	C	1.113303	0.199591	0.799769
C45	C	0.644747	-0.357906	0.356927
C46	C	1.144747	0.142094	0.856927
C47	C	0.613633	-0.436133	0.335608
C48	C	1.113633	0.063867	0.835608
C49	C	0.527988	-0.435813	0.335212
C50	C	1.027988	0.064187	0.835212
C51	C	0.527978	-0.338057	0.435355
C52	C	1.027978	0.161943	0.935355
C53	C	0.613629	-0.336315	0.434927
C54	C	1.113629	0.163685	0.934927
C55	C	0.728606	-0.357897	0.356910
C56	C	1.228606	0.142103	0.856910
C57	C	0.412505	-0.357943	0.356972
C58	C	0.912505	0.142057	0.856972
C59	C	1.070091	-0.550860	0.356921
C60	C	1.570091	-0.050860	0.856921
C61	C	1.070120	-0.633406	0.356940
C62	C	1.570120	-0.133406	0.856940
C63	C	1.020713	-0.832871	0.406380
C64	C	1.520713	-0.332871	0.906380
C65	C	1.002661	-0.882299	0.338801
C66	C	1.502661	-0.382299	0.838801
C67	C	1.070193	-0.784537	0.356950
C68	C	1.570193	-0.284537	0.856950
C69	C	1.088281	-0.882191	0.424536
C70	C	1.588281	-0.382191	0.924536
C71	C	1.070262	-0.930522	0.356965
C72	C	1.570262	-0.430522	0.856965
C73	C	1.052106	-0.832877	0.289335
C74	C	1.552106	-0.332877	0.789335
C75	C	1.137757	-0.832765	0.375116
C76	C	1.637757	-0.332765	0.875116
C77	C	1.119731	-0.882170	0.307491
C78	C	1.619731	-0.382170	0.807491
C79	C	1.070151	-0.700438	0.356942
C80	C	1.570151	-0.200438	0.856942
C81	C	1.070304	-1.014618	0.356965
C82	C	1.570304	-0.514618	0.856965
C83	C	1.263342	-0.357939	0.356972
C84	C	1.763342	0.142061	0.856972
C85	C	1.345656	-0.357952	0.356989
C86	C	1.845656	0.142048	0.856989
C87	C	1.070223	-0.357890	0.550095
C88	C	1.570223	0.142110	1.050095
C89	C	1.070241	-0.357882	0.632409
C90	C	1.570241	0.142118	1.132409
C91	C	1.070290	-0.164203	0.356961
C92	C	1.570290	0.335797	0.856961
C93	C	1.070337	-0.081657	0.356974
C94	C	1.570337	0.418343	0.856974
C95	C	1.070180	-0.357873	0.164522
C96	C	1.570180	0.142127	0.664522
C97	C	1.070305	-0.357672	0.082209
C98	C	1.570305	0.142328	0.582209
C99	C	1.070284	-0.357742	0.931500
C100	C	1.570284	0.142258	1.431500
C101	C	1.012822	-0.414945	0.900155
C102	C	1.512822	0.085055	1.400155
C103	C	1.012977	-0.415210	0.814536
C104	C	1.512977	0.084790	1.314536
C105	C	1.070262	-0.357811	0.783117
C106	C	1.570262	0.142189	1.283117
C107	C	1.148289	-0.379062	0.814225
C108	C	1.648289	0.120938	1.314225
C109	C	1.147969	-0.379437	0.899870
C110	C	1.647969	0.120563	1.399870
C111	C	1.050399	-0.279163	0.899918
C112	C	1.550399	0.220837	1.399918
C113	C	1.048663	-0.279616	0.814267
C114	C	1.548663	0.220384	1.314267
C115	C	1.070255	-0.357849	0.699258
C116	C	1.570255	0.142151	1.199258
C117	C	1.070297	-0.357706	1.015360
C118	C	1.570297	0.142294	1.515360
H119	H	0.506403	-0.282008	0.454739
H120	H	1.006403	0.217992	0.954739
H121	H	0.633757	-0.313545	0.241677
H122	H	1.133757	0.186455	0.741677
O123	O	0.640606	-0.494584	0.388826
O124	O	1.140606	0.005416	0.888826
H125	H	0.672508	-0.537124	0.358144
H126	H	1.172508	-0.037124	0.858144
O127	O	1.213407	-0.803919	0.395394
O128	O	1.713407	-0.303919	0.895394
H129	H	1.254536	-0.824564	0.354863
H130	H	1.754536	-0.324564	0.854863
H131	H	0.633970	-0.278749	0.451002
H132	H	1.133970	0.221251	0.951002
H133	H	0.955117	-0.401912	0.793503
H134	H	1.455117	0.098088	1.293503
O135	O	0.641955	-0.387920	0.494143
O136	O	1.141955	0.112080	0.994143
H137	H	0.678818	-0.429951	0.468790
H138	H	1.178818	0.070049	0.968790
H139	H	1.161604	-0.903680	0.265648
H140	H	1.661604	-0.403680	0.765648
H141	H	1.092252	-0.236544	0.920191
H142	H	1.592252	0.263456	1.420191
H143	H	1.103553	-0.903852	0.481687
H144	H	1.603553	-0.403852	0.981687
O145	O	1.100065	-0.220160	0.785962
O146	O	1.600065	0.279840	1.285962
H147	H	1.067808	-0.178315	0.754700
H148	H	1.567808	0.321685	1.254700
O149	O	0.641987	-0.458851	0.260508
O150	O	1.141987	0.041149	0.760508
H151	H	0.678229	-0.414557	0.238245
H152	H	1.178229	0.085443	0.738245
H153	H	0.954788	-0.401782	0.920740
H154	H	1.454788	0.098218	1.420740
O155	O	0.501146	-0.393692	0.491566
O156	O	1.001146	0.106308	0.991566
H157	H	0.465468	-0.435298	0.463849
H158	H	0.965468	0.064702	0.963849
O159	O	0.500528	-0.494657	0.387753
O160	O	1.000528	0.005343	0.887753
H161	H	0.521106	-0.482615	0.444266
H162	H	1.021106	0.017385	0.944266
H163	H	0.978808	-0.811224	0.448122
H164	H	1.478808	-0.311224	0.948122
O165	O	0.501471	-0.458127	0.259295
O166	O	1.001471	0.041873	0.759295
H167	H	0.549819	-0.469041	0.223210
H168	H	1.049819	0.030959	0.723210
H169	H	1.025820	-0.472835	0.921685
H170	H	1.525820	0.027165	1.421685
O171	O	0.927019	-0.911121	0.318442
O172	O	1.427019	-0.411121	0.818442
H173	H	0.886014	-0.891382	0.359544
H174	H	1.386014	-0.391382	0.859544
O175	O	1.031783	-0.804313	0.213609
O176	O	1.531783	-0.304313	0.713609
H177	H	1.031884	-0.742825	0.214206
H178	H	1.531884	-0.242825	0.714206
O179	O	1.030271	-0.492382	0.787400
O180	O	1.530271	0.007618	1.287400
H181	H	1.038580	-0.529653	0.835450
H182	H	1.538580	-0.029653	1.335450
O183	O	1.170285	-0.455527	0.926356
O184	O	1.670285	0.044473	1.426356
H185	H	1.181200	-0.491710	0.877993
H186	H	1.681200	0.008290	1.377993
O187	O	1.206532	-0.325616	0.787273
O188	O	1.706532	0.174384	1.287273
H189	H	1.248977	-0.356334	0.755361
H190	H	1.748977	0.143666	1.255361
O191	O	1.206612	-0.326662	0.927349
O192	O	1.706612	0.173338	1.427349
H193	H	1.235078	-0.300989	0.879463
H194	H	1.735078	0.199011	1.379463
O195	O	1.171010	-0.454345	0.785840
O196	O	1.671010	0.045655	1.285840
H197	H	1.126860	-0.476747	0.749587
H198	H	1.626860	0.023253	1.249587
O199	O	0.976335	-0.253519	0.928490
O200	O	1.476335	0.246481	1.428490
H201	H	0.952870	-0.296501	0.965524
H202	H	1.452870	0.203499	1.465524
O203	O	0.972609	-0.258381	0.787321
O204	O	1.472609	0.241619	1.287321
H205	H	0.931831	-0.300044	0.806590
H206	H	1.431831	0.199956	1.306590
O207	O	0.641180	-0.223566	0.317444
O208	O	1.141180	0.276434	0.817444
H209	H	0.593488	-0.185959	0.326241
H210	H	1.093488	0.314041	0.826241
H211	H	0.506136	-0.313242	0.242258
H212	H	1.006136	0.186758	0.742258
O213	O	0.500388	-0.223184	0.317471
O214	O	1.000388	0.276816	0.817471
H215	H	0.464208	-0.225158	0.366923
H216	H	0.964208	0.274842	0.866923
