data_functionalizedCrystal
_audit_creation_method	'MofGen! by Chris Wilmer'
_symmetry_space_group_name_H-M	'P1'
_symmetry_Int_Tables_number	1
_symmetry_cell_setting	triclinic
loop_
_symmetry_equiv_pos_as_xyz
  x,y,z
_cell_length_a	10.540539
_cell_length_b	14.519709
_cell_length_c	9.016244
_cell_angle_alpha	90.006926
_cell_angle_beta	89.999043
_cell_angle_gamma	95.897182
loop_
_atom_site_label
_atom_site_type_symbol
_atom_site_fract_x
_atom_site_fract_y
_atom_site_fract_z
O1	O	1.684558	-0.129970	-0.123274
O2	O	1.315019	-0.142215	-0.123293
O3	O	1.509586	-0.001907	-0.123269
O4	O	1.489991	-0.270278	-0.123297
O5	O	1.509575	-0.001898	0.123411
O6	O	1.315009	-0.142207	0.123388
O7	O	1.684547	-0.129961	0.123407
Cu8	Cu	1.499777	-0.136083	0.145921
Cu9	Cu	1.499790	-0.136093	-0.145807
O10	O	1.489980	-0.270270	0.123384
C11	C	1.267720	-0.141293	0.000046
C12	C	1.126800	-0.138545	0.000039
C13	C	1.508668	0.032462	0.000071
C14	C	1.505931	0.134858	0.000072
N15	N	1.499777	-0.136076	0.351108
C16	C	0.944448	-0.033266	0.000626
C17	C	1.091038	-0.036051	0.000054
C18	C	1.064631	-0.187874	-0.140828
C19	C	0.918122	-0.184376	-0.140930
C20	C	0.917600	-0.186452	0.139592
C21	C	1.064572	-0.187396	0.141438
C22	C	1.731846	-0.130884	0.000065
C23	C	1.872766	-0.133631	0.000062
C24	C	1.490899	-0.304639	0.000040
C25	C	1.493635	-0.407035	0.000029
C26	C	1.495856	0.509808	0.000033
C27	C	1.498654	0.405485	0.000044
C28	C	1.500893	0.322337	0.000054
C29	C	1.503692	0.218007	0.000062
N30	N	1.499799	-0.136093	-0.350993
C31	C	1.603915	-0.061029	0.414044
C32	C	1.604298	-0.061237	0.585935
C33	C	1.528392	-0.232626	0.586568
C34	C	1.529127	-0.232176	0.414624
C35	C	1.366737	-0.115457	0.414492
C36	C	1.367637	-0.113287	0.586448
H37	H	1.134044	0.002763	0.101034
C38	C	1.147990	0.016727	-0.136595
H39	H	1.237880	0.015208	-0.137406
H40	H	1.112446	-0.011646	-0.224213
H41	H	1.128796	0.079187	-0.132457
H42	H	1.289245	-0.170171	0.373789
C43	C	1.329499	-0.022300	0.355956
H44	H	1.248939	-0.011182	0.395532
H45	H	1.391991	0.026054	0.385431
H46	H	1.324579	-0.024306	0.250778
C47	C	1.093798	-0.289552	-0.147948
H48	H	1.055318	-0.318064	-0.233948
H49	H	1.183458	-0.291896	-0.152182
H50	H	1.060592	-0.321430	-0.062111
H51	H	1.455937	-0.289626	0.372987
H52	H	0.916272	0.007229	0.101649
H53	H	0.890288	-0.147925	-0.246221
H54	H	1.345932	-0.042267	0.627259
C55	C	1.657958	-0.257473	0.644718
H56	H	1.694792	-0.209151	0.707028
H57	H	1.645812	-0.313521	0.699619
H58	H	1.713217	-0.265057	0.563368
H59	H	1.107573	-0.153614	-0.245656
C60	C	0.852297	-0.283949	-0.149616
H61	H	0.915132	-0.326356	-0.153078
H62	H	0.799995	-0.296334	-0.064680
H63	H	0.801173	-0.290588	-0.236489
C64	C	0.875438	-0.141641	0.283838
H65	H	0.830096	-0.090292	0.260310
H66	H	0.821761	-0.185788	0.338830
H67	H	0.948456	-0.121177	0.341348
H68	H	0.914657	0.007051	-0.099827
H69	H	1.105897	-0.151359	0.245651
C70	C	1.096261	-0.288344	0.152924
H71	H	1.148080	-0.302082	0.071263
H72	H	1.140773	-0.296440	0.242827
H73	H	1.019471	-0.328793	0.151733
H74	H	1.626142	-0.250156	0.374511
C75	C	1.428652	-0.309966	0.641758
H76	H	1.368545	-0.284009	0.703523
H77	H	1.385834	-0.339541	0.559194
H78	H	1.470048	-0.354055	0.696637
H79	H	1.286539	-0.164315	0.629376
H80	H	0.869617	-0.260483	0.140536
H81	H	1.587232	0.010925	0.372686
C82	C	1.581395	0.035649	0.642976
H83	H	1.571776	0.075491	0.561062
H84	H	1.506205	0.031307	0.701721
H85	H	1.652108	0.059934	0.701314
C86	C	1.736542	-0.078736	0.355646
H87	H	1.728728	-0.131670	0.293084
H88	H	1.772013	-0.026387	0.300955
H89	H	1.790702	-0.089091	0.436870
H90	H	1.703036	-0.074544	0.627062
