data_functionalizedCrystal
_audit_creation_method	'MofGen! by Chris Wilmer'
_symmetry_space_group_name_H-M	'P1'
_symmetry_Int_Tables_number	1
_symmetry_cell_setting	triclinic
loop_
_symmetry_equiv_pos_as_xyz
  x,y,z
_cell_length_a	19.805405
_cell_length_b	19.805407
_cell_length_c	19.805399
_cell_angle_alpha	89.982197
_cell_angle_beta	89.970699
_cell_angle_gamma	90.023727
loop_
_atom_site_label
_atom_site_type_symbol
_atom_site_fract_x
_atom_site_fract_y
_atom_site_fract_z
Zn1	Zn	-0.269527	1.034736	-0.382680
Zn2	Zn	0.063806	1.368069	-0.049346
Zn3	Zn	0.397139	1.701402	0.283987
Zn4	Zn	-0.382716	1.034650	-0.269488
Zn5	Zn	-0.049382	1.367984	0.063845
Zn6	Zn	0.283951	1.701317	0.397179
Zn7	Zn	-0.269541	0.921550	-0.269508
Zn8	Zn	0.063793	1.254884	0.063826
Zn9	Zn	0.397126	1.588217	0.397159
Zn10	Zn	-0.382674	0.921514	-0.382638
Zn11	Zn	-0.049341	1.254847	-0.049305
Zn12	Zn	0.283992	1.588180	0.284029
O13	O	-0.326115	0.978113	-0.326078
O14	O	0.007219	1.311446	0.007255
O15	O	0.340552	1.644779	0.340588
O16	O	-0.284554	1.129441	-0.367674
O17	O	0.048780	1.462774	-0.034340
O18	O	0.382113	1.796108	0.298993
O19	O	-0.367726	1.019627	-0.174774
O20	O	-0.034392	1.352960	0.158559
O21	O	0.298941	1.686294	0.491893
O22	O	-0.174822	0.936615	-0.284546
O23	O	0.158511	1.269949	0.048788
O24	O	0.491844	1.603282	0.382121
O25	O	-0.367713	1.129378	-0.284512
O26	O	-0.034379	1.462712	0.048821
O27	O	0.298954	1.796045	0.382155
O28	O	-0.174813	1.019772	-0.367693
O29	O	0.158521	1.353106	-0.034359
O30	O	0.491854	1.686439	0.298974
O31	O	-0.284576	0.936533	-0.174788
O32	O	0.048757	1.269866	0.158545
O33	O	0.382090	1.603200	0.491878
O34	O	-0.284536	0.826829	-0.284506
O35	O	0.048797	1.160162	0.048828
O36	O	0.382130	1.493496	0.382161
O37	O	-0.367642	0.936553	-0.477360
O38	O	-0.034309	1.269887	-0.144027
O39	O	0.299024	1.603220	0.189306
O40	O	-0.367655	0.826802	-0.367622
O41	O	-0.034322	1.160135	-0.034289
O42	O	0.299011	1.493469	0.299045
O43	O	-0.284514	1.019737	-0.477391
O44	O	0.048820	1.353070	-0.144057
O45	O	0.382153	1.686404	0.189276
O46	O	-0.477427	1.019592	-0.284472
O47	O	-0.144093	1.352925	0.048861
O48	O	0.189240	1.686258	0.382195
O49	O	-0.477397	0.936471	-0.367603
O50	O	-0.144063	1.269804	-0.034270
O51	O	0.189270	1.603137	0.299064
C52	C	-0.326093	0.802257	-0.326062
C53	C	0.007240	1.135590	0.007271
C54	C	0.340573	1.468923	0.340605
C55	C	-0.326101	0.727025	-0.326071
C56	C	0.007233	1.060358	0.007262
C57	C	0.340566	1.393691	0.340596
C58	C	-0.282876	0.691714	-0.369439
C59	C	0.050457	1.025047	-0.036106
C60	C	0.383790	1.358380	0.297228
C61	C	-0.282880	0.621025	-0.369442
C62	C	0.050454	0.954359	-0.036108
C63	C	0.383787	1.287692	0.297225
C64	C	-0.326112	0.585649	-0.326079
C65	C	0.007222	0.918982	0.007254
C66	C	0.340555	1.252316	0.340588
C67	C	-0.369338	0.620965	-0.282706
C68	C	-0.036005	0.954298	0.050627
C69	C	0.297329	1.287632	0.383960
C70	C	-0.369330	0.691652	-0.282701
C71	C	-0.035997	1.024985	0.050633
C72	C	0.297336	1.358319	0.383966
C73	C	-0.369368	0.335892	-0.282727
C74	C	-0.036035	0.669225	0.050606
C75	C	0.297298	1.002558	0.383940
C76	C	-0.369374	0.265199	-0.282737
C77	C	-0.036040	0.598533	0.050596
C78	C	0.297293	0.931866	0.383929
C79	C	-0.282918	0.265265	-0.369468
C80	C	0.050416	0.598598	-0.036134
C81	C	0.383749	0.931931	0.297199
C82	C	-0.282910	0.335952	-0.369462
C83	C	0.050423	0.669285	-0.036129
C84	C	0.383756	1.002619	0.297204
C85	C	-0.326134	0.371262	-0.326087
C86	C	0.007200	0.704595	0.007246
C87	C	0.340533	1.037928	0.340579
C88	C	-0.326128	0.447910	-0.326084
C89	C	0.007205	0.781243	0.007249
C90	C	0.340538	1.114577	0.340583
C91	C	-0.326121	0.509002	-0.326085
C92	C	0.007213	0.842335	0.007248
C93	C	0.340546	1.175669	0.340581
C94	C	-0.501971	0.978036	-0.326046
C95	C	-0.168637	1.311370	0.007288
C96	C	0.164696	1.644703	0.340621
C97	C	-0.577203	0.978066	-0.326054
C98	C	-0.243869	1.311399	0.007279
C99	C	0.089464	1.644732	0.340612
C100	C	-0.612540	1.021389	-0.282813
C101	C	-0.279207	1.354722	0.050520
C102	C	0.054127	1.688056	0.383853
C103	C	-0.683228	1.021418	-0.282828
C104	C	-0.349895	1.354751	0.050505
C105	C	-0.016562	1.688084	0.383838
C106	C	-0.718578	0.978119	-0.326081
C107	C	-0.385245	1.311453	0.007252
C108	C	-0.051911	1.644786	0.340585
C109	C	-0.683236	0.934794	-0.369327
C110	C	-0.349902	1.268128	-0.035994
C111	C	-0.016569	1.601461	0.297340
C112	C	-0.612549	0.934769	-0.369315
C113	C	-0.279215	1.268103	-0.035982
C114	C	0.054118	1.601436	0.297352
C115	C	-0.968309	0.934894	-0.369377
C116	C	-0.634976	1.268227	-0.036044
C117	C	-0.301642	1.601561	0.297290
C118	C	-1.039001	0.934921	-0.369384
C119	C	-0.705668	1.268254	-0.036051
C120	C	-0.372334	1.601587	0.297282
C121	C	-1.038989	1.021542	-0.282890
C122	C	-0.705656	1.354876	0.050443
C123	C	-0.372322	1.688209	0.383776
C124	C	-0.968302	1.021517	-0.282878
C125	C	-0.634968	1.354851	0.050455
C126	C	-0.301635	1.688184	0.383788
C127	C	-0.932965	0.978195	-0.326126
C128	C	-0.599632	1.311529	0.007207
C129	C	-0.266299	1.644862	0.340540
C130	C	-0.856317	0.978165	-0.326110
C131	C	-0.522984	1.311499	0.007223
C132	C	-0.189650	1.644832	0.340556
C133	C	-0.795225	0.978145	-0.326094
C134	C	-0.461892	1.311478	0.007239
C135	C	-0.128559	1.644812	0.340573
C136	C	-0.149572	0.978207	-0.326126
C137	C	0.183762	1.311541	0.007207
C138	C	0.517095	1.644874	0.340541
C139	C	-0.074340	0.978248	-0.326146
C140	C	0.258994	1.311581	0.007187
C141	C	0.592327	1.644915	0.340520
C142	C	-0.326072	0.978151	-0.502621
C143	C	0.007261	1.311484	-0.169288
C144	C	0.340595	1.644817	0.164046
C145	C	-0.326054	0.978167	-0.577853
C146	C	0.007280	1.311500	-0.244520
C147	C	0.340613	1.644833	0.088814
C148	C	-0.326136	1.154655	-0.326095
C149	C	0.007197	1.487989	0.007238
C150	C	0.340530	1.821322	0.340571
C151	C	-0.326146	1.229887	-0.326102
C152	C	0.007188	1.563221	0.007231
C153	C	0.340521	1.896554	0.340564
C154	C	-0.282767	1.021481	-0.613214
C155	C	0.050567	1.354815	-0.279881
C156	C	0.383900	1.688148	0.053452
C157	C	-0.282747	1.021488	-0.683903
C158	C	0.050586	1.354822	-0.350569
C159	C	0.383920	1.688155	-0.017236
C160	C	-0.326018	0.978184	-0.719229
C161	C	0.007315	1.311517	-0.385895
C162	C	0.340648	1.644850	-0.052562
C163	C	-0.369308	0.934864	-0.683863
C164	C	-0.035974	1.268197	-0.350529
C165	C	0.297359	1.601531	-0.017196
C166	C	-0.369323	0.934854	-0.613176
C167	C	-0.035990	1.268188	-0.279842
C168	C	0.297343	1.601521	0.053491
C169	C	-0.369244	0.934902	-0.968936
C170	C	-0.035911	1.268236	-0.635603
C171	C	0.297422	1.601569	-0.302270
C172	C	-0.369227	0.934917	-1.039628
C173	C	-0.035894	1.268250	-0.706295
C174	C	0.297440	1.601584	-0.372962
C175	C	-0.282668	1.021536	-1.039663
C176	C	0.050665	1.354870	-0.706330
C177	C	0.383999	1.688203	-0.372997
C178	C	-0.282684	1.021527	-0.968976
C179	C	0.050650	1.354860	-0.635643
C180	C	0.383983	1.688193	-0.302309
C181	C	-0.325970	0.978205	-0.933616
C182	C	0.007363	1.311538	-0.600283
C183	C	0.340697	1.644872	-0.266950
C184	C	-0.325990	0.978197	-0.856968
C185	C	0.007343	1.311530	-0.523634
C186	C	0.340677	1.644864	-0.190301
C187	C	-0.326002	0.978194	-0.795876
C188	C	0.007331	1.311528	-0.462543
C189	C	0.340664	1.644861	-0.129209
C190	C	-0.326108	0.978114	-0.150222
C191	C	0.007225	1.311447	0.183111
C192	C	0.340558	1.644780	0.516444
C193	C	-0.325936	0.978229	-0.074991
C194	C	0.007398	1.311562	0.258343
C195	C	0.340731	1.644895	0.591676
H196	H	-0.404564	0.364632	-0.247409
H197	H	-0.071231	0.697966	0.085924
H198	H	0.262103	1.031299	0.419258
C199	C	-0.250082	0.357770	-0.484133
C200	C	0.083251	0.691104	-0.150800
C201	C	0.416585	1.024437	0.182534
C202	C	-0.235387	0.374835	-0.417127
C203	C	0.097947	0.708168	-0.083794
C204	C	0.431280	1.041502	0.249540
H205	H	-0.220738	0.381772	-0.513557
H206	H	0.112596	0.715105	-0.180223
H207	H	0.445929	1.048438	0.153110
H208	H	-0.295564	0.369349	-0.493952
H209	H	0.037769	0.702682	-0.160618
H210	H	0.371102	1.036016	0.172715
H211	H	-0.243899	0.310617	-0.490334
H212	H	0.089434	0.643950	-0.157001
H213	H	0.422768	0.977283	0.176332
H214	H	-0.241575	0.421988	-0.410924
H215	H	0.091759	0.755321	-0.077591
H216	H	0.425092	1.088655	0.255742
H217	H	-0.189894	0.363261	-0.407305
H218	H	0.143440	0.696594	-0.073972
H219	H	0.476773	1.029927	0.259362
C220	C	-0.704954	0.901770	-0.483915
C221	C	-0.371621	1.235103	-0.150581
C222	C	-0.038287	1.568436	0.182752
C223	C	-0.722092	0.887202	-0.416874
C224	C	-0.388759	1.220535	-0.083540
C225	C	-0.055426	1.553869	0.249793
H226	H	-0.728946	0.872389	-0.513267
H227	H	-0.395612	1.205722	-0.179933
H228	H	-0.062279	1.539056	0.153400
H229	H	-0.657804	0.895552	-0.490093
H230	H	-0.324471	1.228885	-0.156760
H231	H	0.008863	1.562218	0.176574
H232	H	-0.716501	0.947247	-0.493853
H233	H	-0.383167	1.280580	-0.160520
H234	H	-0.049834	1.613914	0.172814
H235	H	-0.710541	0.841726	-0.406934
H236	H	-0.377208	1.175059	-0.073600
H237	H	-0.043874	1.508393	0.259733
H238	H	-0.769253	0.893415	-0.410692
H239	H	-0.435920	1.226748	-0.077359
H240	H	-0.102586	1.560081	0.255974
H241	H	-0.247500	1.056761	-0.712691
H242	H	0.085834	1.390094	-0.379357
H243	H	0.419167	1.723428	-0.046024
C244	C	-0.590834	1.054421	-0.168226
C245	C	-0.257500	1.387755	0.165107
C246	C	0.075833	1.721088	0.498441
C247	C	-0.573687	1.068984	-0.235266
C248	C	-0.240354	1.402317	0.098067
C249	C	0.092979	1.735651	0.431401
H250	H	-0.566851	1.083810	-0.138874
H251	H	-0.233518	1.417143	0.194460
H252	H	0.099815	1.750476	0.527793
H253	H	-0.579287	1.008952	-0.158282
H254	H	-0.245954	1.342286	0.175052
H255	H	0.087380	1.675619	0.508385
H256	H	-0.637991	1.060638	-0.162055
H257	H	-0.304658	1.393971	0.171278
H258	H	0.028675	1.727305	0.504612
H259	H	-0.526530	1.062762	-0.241438
H260	H	-0.193197	1.396096	0.091895
H261	H	0.140136	1.729429	0.425228
H262	H	-0.585230	1.114464	-0.245214
H263	H	-0.251896	1.447797	0.088120
H264	H	0.081437	1.781131	0.421453
H265	H	-0.247721	0.236507	-0.404783
H266	H	0.085613	0.569840	-0.071450
H267	H	0.418946	0.903174	0.261883
H268	H	-0.404580	0.236398	-0.247424
H269	H	-0.071247	0.569731	0.085909
H270	H	0.262087	0.903065	0.419243
H271	H	-0.404565	0.899576	-0.584385
H272	H	-0.071232	1.232909	-0.251052
H273	H	0.262101	1.566243	0.082281
H274	H	-0.404465	0.899650	-1.068389
H275	H	-0.071132	1.232983	-0.735056
H276	H	0.262202	1.566317	-0.401722
C277	C	-1.060662	1.136189	-0.250025
C278	C	-0.727329	1.469522	0.083308
C279	C	-0.393995	1.802855	0.416642
C280	C	-1.077824	1.069177	-0.235355
C281	C	-0.744490	1.402510	0.097978
C282	C	-0.411157	1.735844	0.431312
H283	H	-1.084631	1.165594	-0.220675
H284	H	-0.751297	1.498928	0.112658
H285	H	-0.417964	1.832261	0.445992
H286	H	-1.072214	1.146067	-0.295506
H287	H	-0.738881	1.479401	0.037827
H288	H	-0.405548	1.812734	0.371161
H289	H	-1.013501	1.142352	-0.243831
H290	H	-0.680168	1.475685	0.089502
H291	H	-0.346835	1.809018	0.422836
H292	H	-1.124984	1.063013	-0.241554
H293	H	-0.791650	1.396346	0.091780
H294	H	-0.458317	1.729679	0.425113
H295	H	-1.066276	1.059295	-0.189863
H296	H	-0.732942	1.392628	0.143471
H297	H	-0.399609	1.725961	0.476804
H298	H	-0.404535	0.592156	-0.247397
H299	H	-0.071201	0.925489	0.085937
H300	H	0.262132	1.258823	0.419270
C301	C	-0.454800	0.684492	-0.196977
C302	C	-0.121467	1.017825	0.136356
C303	C	0.211867	1.351159	0.469690
C304	C	-0.416849	0.730469	-0.235034
C305	C	-0.083515	1.063802	0.098299
C306	C	0.249818	1.397135	0.431633
H307	H	-0.484138	0.708457	-0.167551
H308	H	-0.150805	1.041790	0.165782
H309	H	0.182529	1.375123	0.499115
H310	H	-0.425280	0.656923	-0.171143
H311	H	-0.091947	0.990256	0.162191
H312	H	0.241387	1.323589	0.495524
H313	H	-0.480729	0.656923	-0.226430
H314	H	-0.147396	0.990256	0.106903
H315	H	0.185937	1.323590	0.440237
H316	H	-0.390915	0.758034	-0.205581
H317	H	-0.057582	1.091368	0.127752
H318	H	0.275751	1.424701	0.461086
H319	H	-0.446372	0.758049	-0.260870
H320	H	-0.113039	1.091383	0.072463
H321	H	0.220294	1.424716	0.405796
H322	H	-0.247420	1.056809	-1.068462
H323	H	0.085914	1.390142	-0.735129
H324	H	0.419247	1.723475	-0.401795
H325	H	-0.583777	0.899492	-0.404527
H326	H	-0.250444	1.232826	-0.071194
H327	H	0.082889	1.566159	0.262140
H328	H	-0.711997	1.056695	-0.247617
H329	H	-0.378664	1.390029	0.085717
H330	H	-0.045330	1.723362	0.419050
H331	H	-0.939522	1.056773	-0.247655
H332	H	-0.606189	1.390106	0.085678
H333	H	-0.272856	1.723439	0.419011
C334	C	-0.859962	0.896393	-0.407776
C335	C	-0.526629	1.229727	-0.074442
C336	C	-0.193296	1.563060	0.258891
C337	C	-0.929472	0.887272	-0.416911
C338	C	-0.596139	1.220606	-0.083578
C339	C	-0.262806	1.553939	0.249755
H340	H	-0.835986	0.866994	-0.437126
H341	H	-0.502653	1.200328	-0.103793
H342	H	-0.169319	1.533661	0.229540
H343	H	-0.848417	0.886508	-0.362294
H344	H	-0.515083	1.219842	-0.028961
H345	H	-0.181750	1.553175	0.304372
H346	H	-0.848343	0.941862	-0.417723
H347	H	-0.515010	1.275196	-0.084389
H348	H	-0.181677	1.608529	0.248944
H349	H	-0.941092	0.841804	-0.406959
H350	H	-0.607759	1.175138	-0.073626
H351	H	-0.274426	1.508471	0.259707
H352	H	-0.941023	0.897153	-0.462403
H353	H	-0.607690	1.230486	-0.129070
H354	H	-0.274356	1.563819	0.204263
H355	H	-0.247532	1.056747	-0.584457
H356	H	0.085802	1.390081	-0.251123
H357	H	0.419135	1.723414	0.082210
H358	H	-0.247684	0.592278	-0.404757
H359	H	0.085650	0.925611	-0.071424
H360	H	0.418983	1.258945	0.261909
C361	C	-1.031917	0.849302	-0.454900
C362	C	-0.698583	1.182635	-0.121566
C363	C	-0.365250	1.515969	0.211767
C364	C	-1.077859	0.887330	-0.416938
C365	C	-0.744526	1.220663	-0.083605
C366	C	-0.411192	1.553996	0.249729
H367	H	-1.055908	0.819927	-0.484258
H368	H	-0.722574	1.153260	-0.150924
H369	H	-0.389241	1.486593	0.182409
H370	H	-1.004387	0.823415	-0.425387
H371	H	-0.671054	1.156749	-0.092054
H372	H	-0.337720	1.490082	0.241279
H373	H	-1.004305	0.878777	-0.480808
H374	H	-0.670972	1.212110	-0.147475
H375	H	-0.337638	1.545443	0.185858
H376	H	-1.105468	0.857855	-0.391025
H377	H	-0.772134	1.191188	-0.057692
H378	H	-0.438801	1.524522	0.275641
H379	H	-1.105400	0.913218	-0.446454
H380	H	-0.772067	1.246552	-0.113121
H381	H	-0.438734	1.579885	0.220213
C382	C	-0.197113	1.107145	-0.976113
C383	C	0.136220	1.440478	-0.642779
C384	C	0.469554	1.773811	-0.309446
C385	C	-0.235116	1.069126	-0.930147
C386	C	0.098217	1.402459	-0.596813
C387	C	0.431551	1.735793	-0.263480
H388	H	-0.167742	1.136526	-0.952140
H389	H	0.165591	1.469859	-0.618807
H390	H	0.498924	1.803193	-0.285473
H391	H	-0.226599	1.133025	-1.003676
H392	H	0.106735	1.466358	-0.670343
H393	H	0.440068	1.799691	-0.337010
H394	H	-0.171216	1.077665	-1.003688
H395	H	0.162117	1.410998	-0.670355
H396	H	0.495450	1.744331	-0.337022
H397	H	-0.261017	1.098606	-0.902574
H398	H	0.072316	1.431939	-0.569241
H399	H	0.405650	1.765273	-0.235907
H400	H	-0.205627	1.043244	-0.902571
H401	H	0.127706	1.376577	-0.569238
H402	H	0.461040	1.709911	-0.235905
C403	C	-0.454789	0.849268	-0.976012
C404	C	-0.121456	1.182601	-0.642679
C405	C	0.211878	1.515934	-0.309345
C406	C	-0.416816	0.887275	-0.930075
C407	C	-0.083483	1.220609	-0.596741
C408	C	0.249851	1.553942	-0.263408
H409	H	-0.484158	0.819863	-0.952017
H410	H	-0.150824	1.153196	-0.618683
H411	H	0.182509	1.486530	-0.285350
H412	H	-0.425285	0.823413	-1.003593
H413	H	-0.091951	1.156746	-0.670260
H414	H	0.241382	1.490079	-0.336926
H415	H	-0.480687	0.878753	-1.003573
H416	H	-0.147354	1.212086	-0.670240
H417	H	0.185980	1.545420	-0.336906
H418	H	-0.390914	0.857790	-0.902517
H419	H	-0.057581	1.191124	-0.569183
H420	H	0.275753	1.524457	-0.235850
H421	H	-0.446324	0.913132	-0.902482
H422	H	-0.112991	1.246466	-0.569149
H423	H	0.220343	1.579799	-0.235815
H424	H	-0.404538	0.899602	-0.712631
H425	H	-0.071204	1.232935	-0.379298
H426	H	0.262129	1.566269	-0.045964
H427	H	-0.247674	0.720512	-0.404752
H428	H	0.085660	1.053845	-0.071418
H429	H	0.418993	1.387179	0.261915
