data_functionalizedCrystal
_audit_creation_method	'MofGen! by Chris Wilmer'
_symmetry_space_group_name_H-M	'P1'
_symmetry_Int_Tables_number	1
_symmetry_cell_setting	triclinic
loop_
_symmetry_equiv_pos_as_xyz
  x,y,z
_cell_length_a	18.101398
_cell_length_b	18.101395
_cell_length_c	18.101390
_cell_angle_alpha	90.031336
_cell_angle_beta	90.008947
_cell_angle_gamma	90.025910
loop_
_atom_site_label
_atom_site_type_symbol
_atom_site_fract_x
_atom_site_fract_y
_atom_site_fract_z
Zn1	Zn	-1.132124	0.294904	-0.418536
Zn2	Zn	-1.132019	0.418761	-0.294698
Zn3	Zn	-1.008282	0.294927	-0.294731
Zn4	Zn	-1.008233	0.418697	-0.418520
O5	O	-1.070164	0.356822	-0.356621
O6	O	-1.235742	0.311351	-0.402101
O7	O	-1.115581	0.402370	-0.191069
O8	O	-1.024774	0.191291	-0.311175
O9	O	-1.235665	0.402349	-0.311118
O10	O	-1.115760	0.191274	-0.402133
O11	O	-1.024672	0.311390	-0.191094
O12	O	-0.904642	0.311328	-0.311159
O13	O	-1.024691	0.402239	-0.522155
O14	O	-0.904607	0.402261	-0.402107
O15	O	-1.115713	0.311289	-0.522167
O16	O	-1.115534	0.522386	-0.311103
O17	O	-1.024589	0.522338	-0.402075
C18	C	-0.877754	0.356791	-0.356636
C19	C	-0.795440	0.356795	-0.356659
C20	C	-1.070065	0.549233	-0.356600
C21	C	-1.070091	0.631547	-0.356615
C22	C	-0.496349	0.356835	-0.356634
C23	C	-0.527676	0.414325	-0.413573
C24	C	-0.613295	0.414146	-0.413805
C25	C	-0.644731	0.356816	-0.356647
C26	C	-0.613677	0.278811	-0.377973
C27	C	-0.528032	0.279155	-0.378379
C28	C	-0.527896	0.376662	-0.278231
C29	C	-0.613546	0.378374	-0.278649
C30	C	-0.728591	0.356800	-0.356652
C31	C	-0.412489	0.356845	-0.356630
C32	C	-1.070208	0.356755	-0.549783
C33	C	-1.070227	0.356726	-0.632097
C34	C	-0.263326	0.356851	-0.356613
C35	C	-0.345640	0.356855	-0.356622
C36	C	-1.070284	0.163660	-0.356659
C37	C	-1.070335	0.081346	-0.356676
C38	C	-1.070253	0.930638	-0.356655
C39	C	-1.013166	0.899314	-0.414034
C40	C	-1.012895	0.813696	-0.413855
C41	C	-1.070172	0.782255	-0.356636
C42	C	-1.049043	0.813410	-0.278590
C43	C	-1.048675	0.899055	-0.278933
C44	C	-1.148595	0.898987	-0.376634
C45	C	-1.148134	0.813336	-0.378346
C46	C	-1.070128	0.698396	-0.356620
C47	C	-1.070296	1.014497	-0.356665
C48	C	-1.070267	0.356680	-0.931189
C49	C	-1.127724	0.299658	-0.899871
C50	C	-1.127545	0.299446	-0.814252
C51	C	-1.070248	0.356703	-0.782806
C52	C	-0.992231	0.335492	-0.813893
C53	C	-0.992575	0.335065	-0.899539
C54	C	-1.090140	0.435059	-0.899599
C55	C	-1.091852	0.434659	-0.813949
C56	C	-1.070232	0.356717	-0.698946
C57	C	-1.070277	0.356664	-1.015048
C58	C	-1.070163	0.356836	-0.164211
C59	C	-1.070288	0.356656	-0.081897
H60	H	-0.507061	0.472357	-0.400357
H61	H	-0.948309	0.374790	-0.920255
N62	N	-0.640370	0.329646	-0.222571
N63	N	-0.595947	0.292358	-0.185126
H64	H	-0.614890	0.257936	-0.145524
H65	H	-1.026114	0.792629	-0.471725
H66	H	-0.955450	0.920896	-0.400967
H67	H	-0.506166	0.401372	-0.471328
H68	H	-1.026254	0.919859	-0.472092
H69	H	-1.089314	0.793047	-0.234673
N70	N	-0.937052	0.385969	-0.788338
N71	N	-0.871227	0.377779	-0.807513
H72	H	-0.832256	0.413428	-0.789463
H73	H	-0.506282	0.432569	-0.258851
H74	H	-0.975728	0.277770	-0.919531
N75	N	-1.172757	0.926024	-0.446809
N76	N	-1.132525	0.968954	-0.482951
H77	H	-1.149582	0.988051	-0.532514
H78	H	-0.975078	0.278834	-0.792457
H79	H	-0.507637	0.334786	-0.235807
N80	N	-1.160283	0.459253	-0.926697
N81	N	-1.196481	0.419018	-0.969626
H82	H	-1.246023	0.436097	-0.988765
H83	H	-0.954826	0.793268	-0.400621
H84	H	-1.149265	0.450653	-0.793629
H85	H	-1.114391	0.241381	-0.793780
H86	H	-0.991407	0.919094	-0.262007
H87	H	-1.088451	0.919779	-0.234725
H88	H	-0.992382	0.792021	-0.261360
H89	H	-1.048295	0.477546	-0.919858
H90	H	-0.634041	0.234816	-0.337794
H91	H	-1.192917	0.791930	-0.339599
H92	H	-1.185396	0.312729	-0.793234
N93	N	-1.168117	0.787785	-0.450401
N94	N	-1.125142	0.746834	-0.485674
H95	H	-1.139252	0.728785	-0.536564
H96	H	-0.635142	0.261692	-0.434665
N97	N	-1.201956	0.924413	-0.324221
N98	N	-1.255900	0.961972	-0.345329
H99	H	-1.293581	0.979934	-0.308311
N100	N	-0.639626	0.486714	-0.397040
N101	N	-0.594750	0.537847	-0.385086
H102	H	-0.613343	0.589102	-0.373249
N103	N	-0.502019	0.223602	-0.328629
N104	N	-0.462353	0.241210	-0.274894
H105	H	-0.443984	0.201974	-0.239761
H106	H	-0.633797	0.401027	-0.471896
H107	H	-1.053046	0.479428	-0.792540
H108	H	-1.185764	0.312777	-0.920462
N109	N	-0.502972	0.258080	-0.450281
N110	N	-0.435308	0.254530	-0.463583
H111	H	-0.417611	0.239649	-0.514366
N112	N	-1.111438	0.227222	-0.926892
N113	N	-1.111629	0.214828	-0.994831
H114	H	-1.100125	0.163671	-1.013917
N115	N	-0.639004	0.450390	-0.258485
N116	N	-0.679966	0.485746	-0.301358
H117	H	-0.697951	0.536608	-0.287120
