data_functionalizedCrystal
_audit_creation_method	'MofGen! by Chris Wilmer'
_symmetry_space_group_name_H-M	'P1'
_symmetry_Int_Tables_number	1
_symmetry_cell_setting	triclinic
loop_
_symmetry_equiv_pos_as_xyz
  x,y,z
_cell_length_a	16.992694
_cell_length_b	17.019294
_cell_length_c	15.455313
_cell_angle_alpha	88.788101
_cell_angle_beta	87.142206
_cell_angle_gamma	87.023206
loop_
_atom_site_label
_atom_site_type_symbol
_atom_site_fract_x
_atom_site_fract_y
_atom_site_fract_z
O1	O	1.044222	0.163479	-0.084230
O2	O	1.377555	0.496812	0.249103
O3	O	1.710889	0.830145	0.582436
O4	O	0.815933	0.161649	-0.084119
O5	O	1.149267	0.494982	0.249214
O6	O	1.482600	0.828315	0.582548
O7	O	0.936039	0.048515	-0.075651
O8	O	1.269373	0.381848	0.257682
O9	O	1.602706	0.715181	0.591015
O10	O	0.924116	0.276613	-0.092698
O11	O	1.257449	0.609946	0.240635
O12	O	1.590783	0.943280	0.573969
O13	O	0.929171	0.054956	0.068129
O14	O	1.262504	0.388289	0.401462
O15	O	1.595838	0.721622	0.734795
O16	O	0.809065	0.168090	0.059661
O17	O	1.142398	0.501423	0.392994
O18	O	1.475732	0.834757	0.726328
O19	O	1.037354	0.169920	0.059550
O20	O	1.370687	0.503253	0.392883
O21	O	1.704020	0.836587	0.726216
Cu22	Cu	0.922582	0.169593	0.072734
Cu23	Cu	1.255916	0.502926	0.406067
Cu24	Cu	1.589249	0.836260	0.739400
Cu25	Cu	0.930705	0.161976	-0.097303
Cu26	Cu	1.264038	0.495309	0.236030
Cu27	Cu	1.597371	0.828642	0.569364
O28	O	0.917248	0.283054	0.051082
O29	O	1.250581	0.616387	0.384415
O30	O	1.583914	0.949721	0.717749
C31	C	0.783281	0.162517	-0.012057
C32	C	1.116614	0.495850	0.321277
C33	C	1.449948	0.829183	0.654610
C34	C	0.696220	0.155497	-0.011542
C35	C	1.029554	0.488830	0.321791
C36	C	1.362887	0.822163	0.655125
C37	C	0.646145	0.223225	-0.016603
C38	C	0.979478	0.556558	0.316730
C39	C	1.312812	0.889892	0.650064
C40	C	0.564342	0.216625	-0.016098
C41	C	0.897675	0.549959	0.317236
C42	C	1.231009	0.883292	0.650569
C43	C	0.532615	0.142296	-0.010538
C44	C	0.865949	0.475630	0.322796
C45	C	1.199282	0.808963	0.656129
C46	C	0.582697	0.074563	-0.005474
C47	C	0.916030	0.407896	0.327859
C48	C	1.249364	0.741230	0.661193
C49	C	0.664498	0.081164	-0.005973
C50	C	0.997832	0.414497	0.327360
C51	C	1.331165	0.747830	0.660694
C52	C	0.288950	0.114939	-0.008470
C53	C	0.622283	0.448272	0.324863
C54	C	0.955616	0.781606	0.658197
C55	C	0.207142	0.108343	-0.007974
C56	C	0.540475	0.441677	0.325359
C57	C	0.873809	0.775010	0.658693
C58	C	0.188793	0.250407	-0.018596
C59	C	0.522126	0.583740	0.314737
C60	C	0.855459	0.917073	0.648070
C61	C	0.270597	0.257001	-0.019100
C62	C	0.603930	0.590334	0.314233
C63	C	0.937263	0.923667	0.647567
C64	C	0.320671	0.189267	-0.014032
C65	C	0.654004	0.522601	0.319302
C66	C	0.987337	0.855934	0.652635
N67	N	0.449000	0.135548	-0.010024
N68	N	0.782333	0.468882	0.323309
N69	N	1.115666	0.802215	0.656643
N70	N	0.404285	0.196016	-0.014539
N71	N	0.737618	0.529349	0.318794
N72	N	1.070951	0.862683	0.652127
C73	C	0.932018	0.022414	-0.001572
C74	C	1.265351	0.355747	0.331761
C75	C	1.598684	0.689080	0.665095
C76	C	0.930258	-0.064956	0.004951
C77	C	1.263591	0.268378	0.338284
C78	C	1.596924	0.601711	0.671618
C79	C	0.933177	-0.109509	-0.070358
C80	C	1.266510	0.223825	0.262975
C81	C	1.599843	0.557158	0.596309
C82	C	0.931518	-0.191601	-0.064226
C83	C	1.264851	0.141732	0.269107
C84	C	1.598184	0.475066	0.602440
C85	C	0.926946	-0.229139	0.017216
C86	C	1.260279	0.104194	0.350549
C87	C	1.593612	0.437527	0.683883
C88	C	0.924024	-0.184580	0.092531
C89	C	1.257358	0.148753	0.425864
C90	C	1.590691	0.482086	0.759197
C91	C	0.925677	-0.102489	0.086398
C92	C	1.259011	0.230844	0.419731
C93	C	1.592344	0.564177	0.753065
C94	C	0.921761	-0.476826	0.039654
C95	C	1.255095	-0.143492	0.372987
C96	C	1.588428	0.189841	0.706321
C97	C	0.920111	-0.558923	0.045781
C98	C	1.253444	-0.225590	0.379115
C99	C	1.586777	0.107743	0.712448
C100	C	0.927603	-0.565938	-0.110977
C101	C	1.260936	-0.232605	0.222357
C102	C	1.594269	0.100729	0.555690
C103	C	0.929260	-0.483845	-0.117102
C104	C	1.262594	-0.150512	0.216231
C105	C	1.595927	0.182822	0.549564
C106	C	0.926335	-0.439293	-0.041787
C107	C	1.259668	-0.105960	0.291546
C108	C	1.593001	0.227374	0.624879
C109	C	0.925252	-0.313051	0.023486
C110	C	1.258586	0.020282	0.356819
C111	C	1.591919	0.353616	0.690152
C112	C	0.928022	-0.355383	-0.048058
C113	C	1.261356	-0.022049	0.285275
C114	C	1.594689	0.311284	0.618609
C115	C	1.070006	0.169052	-0.012515
C116	C	1.403339	0.502385	0.320819
C117	C	1.736673	0.835719	0.654152
C118	C	1.157067	0.176072	-0.013035
C119	C	1.490400	0.509405	0.320298
C120	C	1.823734	0.842738	0.653632
C121	C	0.921269	0.309155	-0.022999
C122	C	1.254603	0.642488	0.310334
C123	C	1.587936	0.975822	0.643667
C124	C	0.923030	0.396524	-0.029528
C125	C	1.256363	0.729857	0.303805
C126	C	1.589696	1.063191	0.637139
N127	N	0.916875	0.174950	0.192328
N128	N	1.250208	0.508284	0.525661
N129	N	1.583542	0.841617	0.858995
N130	N	0.936418	0.156612	-0.216897
N131	N	1.269751	0.489946	0.116436
N132	N	1.603085	0.823279	0.449770
C133	C	0.967918	0.126907	0.241318
C134	C	1.301251	0.460240	0.574651
C135	C	1.634585	0.793574	0.907985
C136	C	0.963609	0.130966	0.331822
C137	C	1.296942	0.464300	0.665156
C138	C	1.630276	0.797633	0.998489
C139	C	0.908260	0.183074	0.373334
C140	C	1.241594	0.516407	0.706668
C141	C	1.574927	0.849740	1.040001
C142	C	0.857212	0.231119	0.324338
C143	C	1.190545	0.564452	0.657671
C144	C	1.523879	0.897786	0.991004
C145	C	0.861518	0.227055	0.233836
C146	C	1.194851	0.560389	0.567169
C147	C	1.528184	0.893722	0.900502
C148	C	0.889675	0.200594	0.643604
C149	C	1.223009	0.533927	0.976938
C150	C	1.556342	0.867260	1.310271
C151	C	0.885375	0.204656	0.734113
C152	C	1.218708	0.537989	1.067446
C153	C	1.552042	0.871322	1.400780
C154	C	0.991772	0.104502	0.741591
C155	C	1.325105	0.437835	1.074925
C156	C	1.658439	0.771168	1.408258
C157	C	0.996076	0.100446	0.651087
C158	C	1.329409	0.433779	0.984420
C159	C	1.662742	0.767112	1.317754
C160	C	0.945025	0.148488	0.602098
C161	C	1.278358	0.481821	0.935432
C162	C	1.611691	0.815155	1.268765
N163	N	0.903856	0.187226	0.465844
N164	N	1.237190	0.520559	0.799177
N165	N	1.570523	0.853893	1.132510
N166	N	0.949425	0.144331	0.509591
N167	N	1.282759	0.477665	0.842924
N168	N	1.616092	0.810998	1.176258
H169	H	0.148014	0.305551	-0.022721
H170	H	0.481347	0.638884	0.310612
H171	H	0.814681	0.972218	0.643946
O172	O	0.172918	0.028171	-0.001969
O173	O	0.506251	0.361504	0.331365
O174	O	0.839584	0.694838	0.664698
H175	H	0.221479	-0.017820	0.001481
H176	H	0.554812	0.315514	0.334814
H177	H	0.888146	0.648847	0.668148
H178	H	0.523573	0.271777	-0.020220
H179	H	0.856907	0.605111	0.313113
H180	H	1.190240	0.938444	0.646447
H181	H	1.033335	0.065387	0.781486
H182	H	1.366668	0.398720	1.114819
H183	H	1.700001	0.732053	1.448153
H184	H	0.848109	0.239713	0.603725
H185	H	1.181442	0.573047	0.937058
H186	H	1.514775	0.906380	1.270391
O187	O	0.342954	0.041888	-0.003004
O188	O	0.676287	0.375221	0.330329
O189	O	1.009621	0.708554	0.663663
H190	H	0.307147	-0.010905	0.000938
H191	H	0.640481	0.322429	0.334272
H192	H	0.973814	0.655762	0.667605
H193	H	1.041145	0.058016	0.617290
H194	H	1.374478	0.391349	0.950623
H195	H	1.707812	0.724682	1.283957
H196	H	0.840301	0.247091	0.767907
H197	H	1.173634	0.580424	1.101240
H198	H	1.506968	0.913758	1.434574
H199	H	0.933898	-0.227873	-0.125551
H200	H	1.267231	0.105461	0.207782
H201	H	1.600565	0.438794	0.541116
H202	H	0.812142	0.273543	0.358142
H203	H	1.145475	0.606877	0.691475
H204	H	1.478808	0.940210	1.024809
H205	H	0.556858	0.014043	-0.000934
H206	H	0.890192	0.347376	0.332399
H207	H	1.223525	0.680710	0.665732
H208	H	0.819952	0.266176	0.193948
H209	H	1.153285	0.599510	0.527282
H210	H	1.486619	0.932843	0.860615
H211	H	1.012992	0.084479	0.207525
H212	H	1.346325	0.417813	0.540859
H213	H	1.679659	0.751146	0.874192
H214	H	0.929983	-0.602221	-0.172294
H215	H	1.263316	-0.268887	0.161040
H216	H	1.596650	0.064446	0.494373
H217	H	0.671970	0.283752	-0.021131
H218	H	1.005303	0.617085	0.312202
H219	H	1.338637	0.950418	0.645535
O220	O	0.932953	-0.314894	-0.135895
O221	O	1.266287	0.018439	0.197438
O222	O	1.599620	0.351772	0.530772
H223	H	0.881030	-0.328675	-0.172582
H224	H	1.214364	0.004659	0.160751
H225	H	1.547697	0.337992	0.494085
H226	H	0.296422	0.317527	-0.023638
H227	H	0.629756	0.650860	0.309696
H228	H	0.963089	0.984193	0.643029
H229	H	0.916383	-0.589484	0.112104
H230	H	1.249717	-0.256150	0.445438
H231	H	1.583050	0.077183	0.778771
O232	O	0.718514	0.008115	-0.000517
O233	O	1.051848	0.341448	0.332816
O234	O	1.385181	0.674782	0.666150
H235	H	0.682712	-0.044681	0.003425
H236	H	1.016046	0.288653	0.336759
H237	H	1.349379	0.621986	0.670092
O238	O	0.938100	-0.069024	-0.158202
O239	O	1.271433	0.264309	0.175131
O240	O	1.604766	0.597642	0.508465
H241	H	0.992972	-0.090118	-0.194337
H242	H	1.326305	0.243215	0.138997
H243	H	1.659638	0.576548	0.472330
O244	O	0.934176	-0.443355	-0.204943
O245	O	1.267509	-0.110022	0.128390
O246	O	1.600842	0.223311	0.461724
H247	H	0.935916	-0.488127	-0.256282
H248	H	1.269249	-0.154794	0.077051
H249	H	1.602583	0.178539	0.410385
O250	O	0.918626	-0.428779	0.120882
O251	O	1.251960	-0.095445	0.454215
O252	O	1.585293	0.237888	0.787549
H253	H	0.915184	-0.468677	0.178541
H254	H	1.248517	-0.135343	0.511875
H255	H	1.581850	0.197990	0.845208
O256	O	0.919108	-0.225063	0.180376
O257	O	1.252441	0.108270	0.513709
O258	O	1.585774	0.441604	0.847042
H259	H	0.918462	-0.289633	0.171990
H260	H	1.251796	0.043701	0.505323
H261	H	1.585129	0.377034	0.838657
O262	O	0.922538	-0.054430	0.167623
O263	O	1.255871	0.278903	0.500956
O264	O	1.589205	0.612237	0.834290
H265	H	0.919090	-0.094323	0.225286
H266	H	1.252424	0.239010	0.558619
H267	H	1.585757	0.572343	0.891953
H268	H	1.005172	0.091845	0.371710
H269	H	1.338505	0.425178	0.705043
H270	H	1.671839	0.758512	1.038376
O271	O	0.920344	-0.353549	0.111322
O272	O	1.253677	-0.020216	0.444656
O273	O	1.587011	0.313118	0.777989
H274	H	0.866019	-0.387142	0.117589
H275	H	1.199352	-0.053808	0.450923
H276	H	1.532686	0.279525	0.784256
