data_functionalizedCrystal
_audit_creation_method	'MofGen! by Chris Wilmer'
_symmetry_space_group_name_H-M	'P1'
_symmetry_Int_Tables_number	1
_symmetry_cell_setting	triclinic
loop_
_symmetry_equiv_pos_as_xyz
  x,y,z
_cell_length_a	16.109302
_cell_length_b	16.109304
_cell_length_c	14.586319
_cell_angle_alpha	89.999019
_cell_angle_beta	89.994552
_cell_angle_gamma	83.462209
loop_
_atom_site_label
_atom_site_type_symbol
_atom_site_fract_x
_atom_site_fract_y
_atom_site_fract_z
O1	O	1.103131	0.106869	-0.076276
O2	O	1.603131	0.606869	0.423724
O3	O	0.861070	0.120168	-0.076268
O4	O	1.361070	0.620168	0.423732
O5	O	0.988749	-0.007513	-0.076272
O6	O	1.488749	0.492487	0.423728
O7	O	0.975452	0.234549	-0.076271
O8	O	1.475452	0.734549	0.423729
O9	O	0.988740	-0.007514	0.076208
O10	O	1.488740	0.492486	0.576208
O11	O	0.861061	0.120166	0.076213
O12	O	1.361061	0.620166	0.576213
O13	O	1.103123	0.106867	0.076205
O14	O	1.603123	0.606867	0.576205
Cu15	Cu	0.982091	0.113516	0.090132
Cu16	Cu	1.482091	0.613516	0.590132
Cu17	Cu	0.982101	0.113518	-0.090194
Cu18	Cu	1.482101	0.613518	0.409806
O19	O	0.975443	0.234547	0.076210
O20	O	1.475443	0.734547	0.576210
C21	C	0.830090	0.119628	-0.000026
C22	C	1.330090	0.619628	0.499974
C23	C	0.737795	0.118012	-0.000024
C24	C	1.237795	0.618012	0.499976
C25	C	0.525449	0.114276	0.083084
C26	C	1.025449	0.614276	0.583084
C27	C	0.438729	0.112750	0.083081
C28	C	0.938729	0.612750	0.583081
C29	C	0.438749	0.112756	-0.083162
C30	C	0.938749	0.612756	0.416838
C31	C	0.525469	0.114277	-0.083157
C32	C	1.025469	0.614277	0.416843
C33	C	0.568816	0.115041	-0.000032
C34	C	1.068816	0.615041	0.499968
C35	C	0.395377	0.111994	-0.000039
C36	C	0.895377	0.611994	0.499961
C37	C	0.301351	0.110338	-0.000043
C38	C	0.801351	0.610338	0.499957
C39	C	0.662848	0.116695	-0.000027
C40	C	1.162848	0.616695	0.499973
C41	C	0.988206	-0.038488	-0.000034
C42	C	1.488206	0.461512	0.499966
C43	C	0.986590	-0.130784	-0.000040
C44	C	1.486590	0.369216	0.499960
C45	C	0.982861	-0.343120	-0.083154
C46	C	1.482861	0.156880	0.416846
C47	C	0.981335	-0.429840	-0.083153
C48	C	1.481335	0.070160	0.416847
C49	C	0.981329	-0.429839	0.083090
C50	C	1.481329	0.070161	0.583090
C51	C	0.982849	-0.343120	0.083088
C52	C	1.482849	0.156880	0.583088
C53	C	0.983619	-0.299763	-0.000037
C54	C	1.483619	0.200237	0.499963
C55	C	0.980573	-0.473202	-0.000034
C56	C	1.480573	0.026798	0.499966
C57	C	0.978918	-0.567228	-0.000032
C58	C	1.478918	-0.067228	0.499968
C59	C	0.985272	-0.205731	-0.000039
C60	C	1.485272	0.294269	0.499961
C61	C	1.134102	0.107407	-0.000038
C62	C	1.634102	0.607407	0.499962
C63	C	1.226397	0.109022	-0.000047
C64	C	1.726397	0.609022	0.499953
C65	C	0.975987	0.265523	-0.000031
C66	C	1.475987	0.765523	0.499969
C67	C	0.977603	0.357818	-0.000030
C68	C	1.477603	0.857818	0.499970
N69	N	0.982090	0.113514	0.216963
N70	N	1.482090	0.613514	0.716963
N71	N	0.982109	0.113514	-0.217026
N72	N	1.482109	0.613514	0.282974
C73	C	1.038645	0.056996	0.451968
C74	C	1.538645	0.556996	0.951968
C75	C	1.038647	0.056994	0.547949
C76	C	1.538647	0.556994	1.047949
C77	C	0.925548	0.170034	0.547963
C78	C	1.425548	0.670034	1.047963
C79	C	0.925542	0.170032	0.451983
C80	C	1.425542	0.670032	0.951983
C81	C	0.982095	0.113514	0.403988
C82	C	1.482095	0.613514	0.903988
C83	C	0.982104	0.113514	0.595949
C84	C	1.482104	0.613514	1.095949
C85	C	0.982106	0.113513	0.700016
C86	C	1.482106	0.613513	1.200016
C87	C	0.982092	0.113514	0.299915
C88	C	1.482092	0.613514	0.799915
H89	H	0.403424	0.112127	0.150763
H90	H	0.903424	0.612127	0.650763
H91	H	1.084694	0.010972	0.587012
H92	H	1.584694	0.510972	1.087012
H93	H	0.980704	-0.465151	0.150767
H94	H	1.480704	0.034849	0.650767
C95	C	0.983698	-0.295429	-0.174593
C96	C	1.483698	0.204571	0.325407
N97	N	0.984326	-0.259511	-0.243468
N98	N	1.484326	0.240489	0.256532
H99	H	1.084692	0.010975	0.412893
H100	H	1.584692	0.510975	0.912893
H101	H	0.879505	0.216051	0.587050
H102	H	1.379505	0.716051	1.087050
H103	H	0.879489	0.216055	0.412916
H104	H	1.379489	0.716055	0.912916
C105	C	0.980533	-0.477533	-0.174589
C106	C	1.480533	0.022467	0.325411
N107	N	0.979940	-0.513456	-0.243463
N108	N	1.479940	-0.013456	0.256537
C109	C	0.573175	0.115113	-0.174597
C110	C	1.073175	0.615113	0.325403
N111	N	0.609108	0.115739	-0.243466
N112	N	1.109108	0.615739	0.256534
C113	C	0.573129	0.115107	0.174525
C114	C	1.073129	0.615107	0.674525
N115	N	0.609040	0.115729	0.243401
N116	N	1.109040	0.615729	0.743401
C117	C	0.983683	-0.295424	0.174528
C118	C	1.483683	0.204576	0.674528
N119	N	0.984308	-0.259500	0.243398
N120	N	1.484308	0.240500	0.743398
C121	C	0.391059	0.111922	-0.174595
C122	C	0.891059	0.611922	0.325405
N123	N	0.355138	0.111296	-0.243465
N124	N	0.855138	0.611296	0.256535
