data_functionalizedCrystal
_audit_creation_method	'MofGen! by Chris Wilmer'
_symmetry_space_group_name_H-M	'P1'
_symmetry_Int_Tables_number	1
_symmetry_cell_setting	triclinic
loop_
_symmetry_equiv_pos_as_xyz
  x,y,z
_cell_length_a	10.654558
_cell_length_b	10.654551
_cell_length_c	7.681481
_cell_angle_alpha	84.205011
_cell_angle_beta	95.780038
_cell_angle_gamma	84.486839
loop_
_atom_site_label
_atom_site_type_symbol
_atom_site_fract_x
_atom_site_fract_y
_atom_site_fract_z
O1	O	1.656067	0.188232	-0.146392
O2	O	1.290590	0.205028	-0.146400
O3	O	1.481731	0.013891	-0.146397
O4	O	1.464926	0.379369	-0.146396
O5	O	1.505257	-0.009688	0.146461
O6	O	1.314116	0.181449	0.146458
O7	O	1.679593	0.164653	0.146466
Zn8	Zn	1.500590	0.169307	0.192959
Zn9	Zn	1.469593	0.200374	-0.192894
O10	O	1.488452	0.355789	0.146463
C11	C	1.255555	0.192003	0.000028
C12	C	1.116112	0.188307	0.000024
C13	C	0.906749	0.195965	-0.159613
C14	C	1.037772	0.199427	-0.159615
C15	C	1.063425	0.173712	0.159675
C16	C	0.932406	0.170242	0.159675
C17	C	0.828414	0.207098	-0.319262
C18	C	0.881092	0.221690	-0.478914
C19	C	1.012114	0.225152	-0.478916
C20	C	1.090459	0.214022	-0.319266
C21	C	1.492259	-0.044696	0.000028
C22	C	1.488566	-0.184138	0.000016
C23	C	1.474010	-0.236798	-0.159618
C24	C	1.470530	-0.367819	-0.159610
C25	C	1.496169	-0.393512	0.159680
C26	C	1.499640	-0.262492	0.159670
C27	C	1.462936	-0.158444	-0.319272
C28	C	1.448381	-0.211103	-0.478919
C29	C	1.444901	-0.342124	-0.478911
C30	C	1.455977	-0.420486	-0.319256
C31	C	1.714628	0.177678	0.000034
C32	C	1.854070	0.181375	0.000026
C33	C	1.477923	0.414377	0.000034
C34	C	1.481616	0.553820	0.000034
N35	N	1.521753	0.148104	0.456294
N36	N	1.448440	0.221567	-0.456228
H37	H	0.817297	0.230744	-0.608895
H38	H	0.721727	0.204284	-0.319279
H39	H	1.055002	0.237022	-0.608912
H40	H	0.889511	0.158385	0.289667
C41	C	1.597879	-0.073266	0.513372
C42	C	1.622794	0.046872	0.557805
H43	H	1.660261	-0.135759	0.576035
H44	H	1.516330	-0.089963	0.543529
H45	H	1.600170	-0.075556	0.390418
H46	H	1.620493	0.049165	0.680757
H47	H	1.704364	0.063573	0.527660
H48	H	1.373602	0.296551	0.468573
H49	H	1.127222	0.164653	0.289655
C50	C	1.298290	0.104191	-0.232332
C51	C	1.234485	0.217811	-0.319253
H52	H	1.387203	0.106532	-0.232333
H53	H	1.278118	0.093928	-0.114425
H54	H	1.272834	0.035058	-0.291311
H55	H	1.259934	0.286944	-0.260266
H56	H	1.254666	0.228088	-0.437181
H57	H	1.465772	-0.051759	-0.319297
C58	C	1.565718	-0.628372	-0.232351
C59	C	1.452133	-0.564504	-0.319267
H60	H	1.563338	-0.717279	-0.232359
H61	H	1.634867	-0.602935	-0.291311
H62	H	1.575969	-0.608229	-0.114423
H63	H	1.441887	-0.584640	-0.437199
H64	H	1.382965	-0.589951	-0.260310
H65	H	1.439351	-0.147290	-0.608904
H66	H	1.433036	-0.384992	-0.608903
H67	H	1.505187	-0.457325	0.289664
H68	H	1.511465	-0.219613	0.289658
