data_functionalizedCrystal
_audit_creation_method	'MofGen! by Chris Wilmer'
_symmetry_space_group_name_H-M	'P1'
_symmetry_Int_Tables_number	1
_symmetry_cell_setting	triclinic
loop_
_symmetry_equiv_pos_as_xyz
  x,y,z
_cell_length_a	10.654558
_cell_length_b	23.532407
_cell_length_c	9.730223
_cell_angle_alpha	89.994043
_cell_angle_beta	90.000400
_cell_angle_gamma	83.668497
loop_
_atom_site_label
_atom_site_type_symbol
_atom_site_fract_x
_atom_site_fract_y
_atom_site_fract_z
O1	O	1.665293	0.080005	-0.114286
O2	O	1.299575	0.087620	-0.114295
O3	O	1.493462	0.000953	-0.114265
O4	O	1.471406	0.166672	-0.114316
O5	O	1.493460	0.000955	0.114315
O6	O	1.299572	0.087623	0.114285
O7	O	1.665291	0.080007	0.114293
Zn8	Zn	1.482431	0.083815	0.150581
Zn9	Zn	1.482434	0.083812	-0.150583
O10	O	1.471403	0.166675	0.114264
C11	C	1.252793	0.087061	-0.000006
C12	C	1.113404	0.085385	-0.000008
C13	C	0.916941	0.083028	-0.124606
C14	C	1.047914	0.084598	-0.124608
C15	C	1.047916	0.084597	0.124602
C16	C	0.916946	0.083024	0.124603
C17	C	0.851457	0.082247	-0.249215
C18	C	0.916936	0.083034	-0.373825
C19	C	1.047909	0.084603	-0.373827
C20	C	1.113402	0.085386	-0.249218
C21	C	1.492899	-0.020266	0.000028
C22	C	1.491211	-0.083494	0.000039
C23	C	1.595357	-0.481917	-0.000034
C24	C	1.593789	-0.541327	-0.000045
O25	O	1.690334	-0.577442	-0.000093
N26	N	1.478523	-0.564706	-0.000046
C27	C	1.364818	-0.528671	-0.000051
O28	O	1.266631	-0.554011	-0.000055
C29	C	1.366388	-0.469261	-0.000051
C30	C	1.481662	-0.445886	-0.000035
C31	C	1.710622	-0.458541	-0.000020
C32	C	1.712190	-0.399135	-0.000007
C33	C	1.598494	-0.363104	-0.000008
C34	C	1.483230	-0.386480	-0.000022
C35	C	1.252685	-0.433227	-0.000066
C36	C	1.254265	-0.373815	-0.000066
C37	C	1.369538	-0.350439	-0.000051
C38	C	1.371102	-0.291043	-0.000010
N39	N	1.486368	-0.267664	-0.000009
C40	C	1.600064	-0.303695	-0.000007
C41	C	1.361530	-0.653435	-0.000055
C42	C	1.359958	-0.712843	-0.000046
C43	C	1.588929	-0.725495	-0.000042
C44	C	1.590500	-0.666086	-0.000041
C45	C	1.476796	-0.630056	-0.000054
C46	C	1.603349	-0.178937	0.000021
C47	C	1.604907	-0.119524	0.000040
C48	C	1.375936	-0.106877	0.000028
C49	C	1.374377	-0.166284	0.000017
C50	C	1.488094	-0.202313	0.000009
O51	O	1.274607	-0.254894	0.000033
O52	O	1.698235	-0.278346	-0.000022
C53	C	1.712072	0.080566	0.000001
C54	C	1.851462	0.082242	-0.000006
C55	C	1.471966	0.187893	-0.000033
C56	C	1.473655	0.251121	-0.000052
N57	N	1.482438	0.083817	0.356118
N58	N	1.482437	0.083806	-0.356119
C59	C	1.568313	0.045454	0.428057
C60	C	1.568310	0.045447	0.571940
C61	C	1.396553	0.122171	0.571932
C62	C	1.396551	0.122175	0.428051
C63	C	1.654200	0.007096	0.356123
C64	C	1.740083	-0.031270	0.428062
C65	C	1.740080	-0.031277	0.571945
C66	C	1.654194	0.007082	0.643889
H67	H	1.698780	-0.100496	0.000056
H68	H	1.101220	0.085239	-0.475291
H69	H	1.220050	0.086661	-0.249230
H70	H	1.684365	-0.647058	-0.000030
H71	H	0.863604	0.082393	-0.475277
H72	H	1.681507	-0.754843	-0.000046
H73	H	1.266091	-0.731869	-0.000035
H74	H	1.810001	-0.062520	0.630517
H75	H	1.268932	-0.624102	-0.000054
H76	H	1.806057	-0.380108	0.000000
N77	N	0.710195	0.080553	-0.249212
H78	H	0.678645	0.080176	-0.347054
H79	H	0.689368	0.044933	-0.200222
N80	N	1.118547	0.085444	0.258994
H81	H	1.211451	0.086563	0.240086
H82	H	1.085034	0.120411	0.313392
H83	H	0.863628	0.082394	0.226063
N84	N	1.654199	0.007077	0.799077
H85	H	1.586769	0.037201	0.833732
H86	H	1.636464	-0.031713	0.833632
H87	H	1.695948	-0.208265	0.000009
H88	H	1.654213	0.007099	0.238966
H89	H	1.283368	-0.077530	0.000032
N90	N	1.832687	-0.072654	0.350477
H91	H	1.819656	-0.066831	0.248412
H92	H	1.921689	-0.065707	0.375620
N93	N	1.833261	-0.497397	-0.000017
H94	H	1.906507	-0.473565	-0.000007
H95	H	1.837599	-0.522324	0.084725
N96	N	1.303936	0.163543	0.649532
H97	H	1.317884	0.204024	0.624488
H98	H	1.214939	0.156558	0.624467
H99	H	1.326623	0.153413	0.369478
H100	H	1.158817	-0.452249	-0.000087
H101	H	1.280512	-0.185317	0.000042
N102	N	1.131624	-0.334954	-0.000086
H103	H	1.058370	-0.358781	-0.000097
H104	H	1.127277	-0.310034	0.084654
