data_functionalizedCrystal
_audit_creation_method	'MofGen! by Chris Wilmer'
_symmetry_space_group_name_H-M	'P1'
_symmetry_Int_Tables_number	1
_symmetry_cell_setting	triclinic
loop_
_symmetry_equiv_pos_as_xyz
  x,y,z
_cell_length_a	20.453700
_cell_length_b	17.110477
_cell_length_c	11.102315
_cell_angle_alpha	84.813817
_cell_angle_beta	108.606275
_cell_angle_gamma	80.939702
loop_
_atom_site_label
_atom_site_type_symbol
_atom_site_fract_x
_atom_site_fract_y
_atom_site_fract_z
V1	V	1.354455	-0.109487	0.396094
O2	O	1.357628	0.005257	0.388723
O3	O	1.330931	-0.217090	0.393223
O4	O	1.346963	-0.107804	0.568918
O5	O	1.341486	-0.104785	0.211811
V6	V	1.515502	-0.095762	0.374072
O7	O	1.441820	-0.139593	0.444401
O8	O	1.578202	-0.065655	0.325765
O9	O	1.464623	0.011841	0.376943
O10	O	1.551460	-0.210506	0.381443
O11	O	1.567603	-0.100464	0.558355
O12	O	1.448591	-0.097444	0.201248
V13	V	1.687788	-0.109487	0.396094
O14	O	1.690962	0.005257	0.388723
O15	O	1.664264	-0.217090	0.393223
O16	O	1.680296	-0.107804	0.568918
O17	O	1.674819	-0.104785	0.211811
V18	V	1.848835	-0.095762	0.374072
O19	O	1.775153	-0.139593	0.444401
O20	O	1.911536	-0.065655	0.325765
O21	O	1.797956	0.011841	0.376943
O22	O	1.884793	-0.210506	0.381443
O23	O	1.900936	-0.100464	0.558355
O24	O	1.781924	-0.097444	0.201248
V25	V	2.021121	-0.109487	0.396094
O26	O	2.024295	0.005257	0.388723
O27	O	1.997598	-0.217090	0.393223
O28	O	2.013630	-0.107804	0.568918
O29	O	2.008152	-0.104785	0.211811
V30	V	2.182168	-0.095762	0.374072
O31	O	2.108486	-0.139593	0.444401
O32	O	2.244869	-0.065655	0.325765
O33	O	2.131289	0.011841	0.376943
O34	O	2.218127	-0.210506	0.381443
O35	O	2.234269	-0.100464	0.558355
O36	O	2.115258	-0.097444	0.201248
C37	C	1.277187	-0.243321	0.386932
C38	C	1.285107	-0.331288	0.385737
C39	C	1.349573	-0.376645	0.391508
C40	C	1.357012	-0.459300	0.390393
C41	C	1.299983	-0.496595	0.383496
C42	C	1.235513	-0.451232	0.377728
C43	C	1.228076	-0.368579	0.378853
C44	C	1.319400	-0.745950	0.379791
C45	C	1.326841	-0.828608	0.378662
C46	C	1.448340	-0.836671	0.391329
C47	C	1.440896	-0.754016	0.392446
C48	C	1.376428	-0.708661	0.386685
C49	C	1.307585	-0.581081	0.382351
C50	C	1.368829	-0.624178	0.387839
C51	C	1.297637	-0.103916	0.611048
C52	C	1.318558	-0.103252	0.752331
C53	C	1.406147	0.038068	0.383230
C54	C	1.391306	0.126034	0.384434
C55	C	1.385697	-0.101335	0.159111
C56	C	1.357856	-0.101995	0.017827
C57	C	1.610521	-0.243321	0.386932
C58	C	1.618441	-0.331288	0.385737
C59	C	1.440082	-0.111160	0.765289
C60	C	1.510671	-0.114805	0.838143
C61	C	1.530323	-0.114180	0.970890
C62	C	1.479381	-0.109909	1.030786
C63	C	1.408792	-0.106264	0.957933
C64	C	1.389146	-0.106891	0.825183
C65	C	1.287268	-0.098350	0.944973
C66	C	1.267615	-0.098980	0.812227
C67	C	1.236326	-0.094078	1.004869
C68	C	1.165737	-0.090439	0.932017
C69	C	1.146086	-0.091065	0.799262
C70	C	1.197027	-0.095336	0.739374
C71	C	1.630970	-0.103916	0.611048
C72	C	1.651891	-0.103252	0.752331
C73	C	1.739480	0.038068	0.383230
C74	C	1.724640	0.126034	0.384434
C75	C	1.719030	-0.101335	0.159111
C76	C	1.691190	-0.101995	0.017827
C77	C	1.943854	-0.243321	0.386932
C78	C	1.951774	-0.331288	0.385737
C79	C	1.964304	-0.103916	0.611048
C80	C	1.985224	-0.103252	0.752331
C81	C	2.072813	0.038068	0.383230
C82	C	2.057973	0.126034	0.384434
C83	C	2.052364	-0.101335	0.159111
C84	C	2.024523	-0.101995	0.017827
C85	C	1.682913	-0.376633	0.391519
C86	C	1.690368	-0.459289	0.390416
C87	C	1.633347	-0.496599	0.383520
C88	C	1.568870	-0.451248	0.377741
C89	C	1.561418	-0.368594	0.378854
C90	C	1.775163	0.171379	0.378655
C91	C	1.761224	0.254035	0.379765
C92	C	1.696763	0.291344	0.386663
C93	C	1.646235	0.245994	0.392439
C94	C	1.660173	0.163340	0.391319
C95	C	2.016247	-0.376633	0.391519
C96	C	2.023701	-0.459289	0.390416
C97	C	1.966680	-0.496599	0.383520
C98	C	1.902203	-0.451248	0.377741
C99	C	1.894751	-0.368594	0.378854
C100	C	2.108497	0.171379	0.378655
C101	C	2.094557	0.254035	0.379765
C102	C	2.030096	0.291344	0.386663
C103	C	1.979568	0.245994	0.392439
C104	C	1.993506	0.163340	0.391319
C105	C	1.670743	-0.248187	0.788442
C106	C	1.689996	-0.320339	0.872870
C107	C	1.709653	-0.319711	1.005617
C108	C	1.710059	-0.246923	1.053937
C109	C	1.690806	-0.174771	0.969509
C110	C	1.671148	-0.175407	0.836761
C111	C	1.671959	-0.029839	0.933400
C112	C	1.652297	-0.030464	0.800652
C113	C	1.672365	0.042949	0.981720
C114	C	1.653108	0.115104	0.897291
C115	C	1.633449	0.114473	0.764536
C116	C	1.633045	0.041688	0.716224
C117	C	2.004077	-0.248187	0.788442
C118	C	2.023329	-0.320339	0.872870
C119	C	2.042986	-0.319711	1.005617
C120	C	2.043392	-0.246923	1.053937
C121	C	2.024140	-0.174771	0.969509
C122	C	2.004481	-0.175407	0.836761
C123	C	2.005292	-0.029839	0.933400
C124	C	1.985630	-0.030464	0.800652
C125	C	2.005698	0.042949	0.981720
C126	C	1.986441	0.115104	0.897291
C127	C	1.966783	0.114473	0.764536
C128	C	1.966378	0.041688	0.716224
H129	H	1.396011	-0.346285	0.397112
O130	O	1.986874	0.193600	0.949417
H131	H	1.933149	0.231180	0.910449
H132	H	1.952363	0.126425	0.396037
H133	H	1.088604	-0.088078	0.739948
O134	O	1.844690	0.131156	0.371195
H135	H	1.835176	0.102142	0.283368
H136	H	1.802374	0.290948	0.375063
H137	H	2.076205	-0.496203	0.395118
H138	H	1.495387	-0.109390	1.138874
O139	O	1.825208	-0.319690	0.372612
H140	H	1.805149	-0.273392	0.285807
O141	O	1.576716	0.286246	0.399896
H142	H	1.533204	0.276921	0.315711
O143	O	2.022881	-0.398842	0.820748
H144	H	2.059801	-0.405556	0.765953
O145	O	2.064610	-0.246241	1.197114
H146	H	2.020301	-0.211828	1.219504
O147	O	1.681738	0.380490	0.387897
H148	H	1.727709	0.405745	0.382739
O149	O	1.982864	-0.248860	0.645262
H150	H	2.027176	-0.283264	0.622873
H151	H	2.018756	0.358646	0.387573
H152	H	1.487338	-0.723658	0.398071
H153	H	1.927083	0.276383	0.398054
H154	H	2.058663	-0.378464	1.074360
O155	O	1.605682	0.114432	0.397581
H156	H	1.558524	0.154266	0.402583
O157	O	1.507371	-0.491492	0.370306
H158	H	1.523391	-0.556583	0.370493
H159	H	1.500828	-0.873608	0.396020
H160	H	2.021710	0.043455	1.089811
H161	H	1.972758	-0.563902	0.382615
H162	H	1.175583	-0.331651	0.374158
O163	O	2.077757	-0.336403	0.398984
H164	H	2.123839	-0.381834	0.402841
O165	O	1.946014	0.192295	0.673473
H166	H	1.949595	0.243009	0.729380
H167	H	1.654728	-0.248705	0.680353
O168	O	2.178020	0.131152	0.371185
H169	H	2.205745	0.085240	0.457378
H170	H	1.639424	-0.563902	0.382615
H171	H	1.415262	-0.593809	0.393460
H172	H	1.855780	-0.481638	0.372127
H173	H	1.617777	0.173228	0.695801
H174	H	1.508915	-0.331679	0.374139
O175	O	2.149068	0.302936	0.373581
H176	H	2.196238	0.263098	0.368633
H177	H	1.252331	-0.093565	1.112958
O178	O	1.689550	-0.398845	0.820757
H179	H	1.672639	-0.387164	0.714265
O180	O	1.565611	-0.119413	0.773534
H181	H	1.591469	-0.067002	0.788617
H182	H	1.950368	0.041168	0.608136
O183	O	1.426539	-0.508222	0.396599
H184	H	1.464941	-0.468401	0.401561
H185	H	1.725330	-0.378464	1.074360
H186	H	1.726074	-0.246419	1.162029
H187	H	1.688377	0.043455	1.089811
H188	H	1.617035	0.041168	0.608136
O189	O	1.265331	-0.868840	0.371236
H190	H	1.219255	-0.823418	0.367432
O191	O	1.249869	-0.697038	0.373576
H192	H	1.208409	-0.702511	0.283305
O193	O	1.653542	0.193605	0.949402
H194	H	1.670445	0.181919	1.055892
H195	H	1.124265	-0.086956	0.980794
O196	O	1.174004	-0.491455	0.370306
H197	H	1.160720	-0.520464	0.282475
O198	O	1.246079	-0.621313	0.374915
H199	H	1.201759	-0.595069	0.285084
O200	O	1.418884	-0.111833	0.622111
H201	H	1.466162	-0.115410	0.592700
O202	O	1.175836	-0.095999	0.596194
H203	H	1.203934	-0.152051	0.577473
H204	H	1.729349	-0.346266	0.397126
H205	H	1.742872	-0.496203	0.395118
H206	H	1.587801	-0.117147	1.030207
