data_functionalizedCrystal
_audit_creation_method	'MofGen! by Chris Wilmer'
_symmetry_space_group_name_H-M	'P1'
_symmetry_Int_Tables_number	1
_symmetry_cell_setting	triclinic
loop_
_symmetry_equiv_pos_as_xyz
  x,y,z
_cell_length_a	13.897449
_cell_length_b	18.050589
_cell_length_c	18.050582
_cell_angle_alpha	89.981795
_cell_angle_beta	89.986245
_cell_angle_gamma	90.029500
loop_
_atom_site_label
_atom_site_type_symbol
_atom_site_fract_x
_atom_site_fract_y
_atom_site_fract_z
Zn1	Zn	1.474566	-0.295681	-0.419912
Zn2	Zn	1.807899	0.037652	-0.086579
Zn3	Zn	2.141232	0.370985	0.246755
Zn4	Zn	1.474450	-0.419865	-0.295731
Zn5	Zn	1.807783	-0.086531	0.037602
Zn6	Zn	2.141116	0.246802	0.370935
Zn7	Zn	1.313274	-0.295696	-0.295739
Zn8	Zn	1.646608	0.037638	0.037595
Zn9	Zn	1.979941	0.370971	0.370928
Zn10	Zn	1.313207	-0.419837	-0.419882
Zn11	Zn	1.646540	-0.086503	-0.086549
Zn12	Zn	1.979873	0.246830	0.246784
O13	O	1.393874	-0.357770	-0.357816
O14	O	1.727207	-0.024436	-0.024483
O15	O	2.060541	0.308897	0.308851
O16	O	1.609532	-0.312160	-0.403449
O17	O	1.942865	0.021173	-0.070115
O18	O	2.276198	0.354507	0.263218
O19	O	1.453049	-0.403411	-0.191808
O20	O	1.786382	-0.070078	0.141526
O21	O	2.119716	0.263256	0.474859
O22	O	1.334747	-0.191769	-0.312226
O23	O	1.668080	0.141564	0.021108
O24	O	2.001413	0.474897	0.354441
O25	O	1.609447	-0.403397	-0.312214
O26	O	1.942780	-0.070064	0.021120
O27	O	2.276113	0.263270	0.354453
O28	O	1.453247	-0.191759	-0.403455
O29	O	1.786580	0.141575	-0.070122
O30	O	2.119913	0.474908	0.263211
O31	O	1.334634	-0.312185	-0.191813
O32	O	1.667968	0.021149	0.141520
O33	O	2.001301	0.354482	0.474854
O34	O	1.178284	-0.312158	-0.312197
O35	O	1.511617	0.021176	0.021136
O36	O	1.844950	0.354509	0.354469
O37	O	1.334632	-0.403350	-0.523811
O38	O	1.667965	-0.070016	-0.190478
O39	O	2.001298	0.263317	0.142856
O40	O	1.178234	-0.403364	-0.403405
O41	O	1.511568	-0.070030	-0.070072
O42	O	1.844901	0.263303	0.263262
O43	O	1.453181	-0.312133	-0.523833
O44	O	1.786515	0.021200	-0.190499
O45	O	2.119848	0.354534	0.142834
O46	O	1.452984	-0.523786	-0.312185
O47	O	1.786317	-0.190452	0.021148
O48	O	2.119650	0.142881	0.354482
O49	O	1.334519	-0.523765	-0.403398
O50	O	1.667853	-0.190432	-0.070065
O51	O	2.001186	0.142902	0.263268
C52	C	1.143260	-0.357760	-0.357799
C53	C	1.476593	-0.024426	-0.024466
C54	C	1.809926	0.308907	0.308867
C55	C	1.036046	-0.357773	-0.357810
C56	C	1.369379	-0.024440	-0.024476
C57	C	1.702713	0.308893	0.308857
C58	C	0.839751	-0.357776	-0.357829
C59	C	1.173084	-0.024443	-0.024496
C60	C	1.506417	0.308891	0.308838
C61	C	0.948983	-0.357772	-0.357816
C62	C	1.282317	-0.024439	-0.024483
C63	C	1.615650	0.308894	0.308851
C64	C	1.393758	-0.550722	-0.357804
C65	C	1.727091	-0.217388	-0.024470
C66	C	2.060424	0.115945	0.308863
C67	C	1.393796	-0.633268	-0.357823
C68	C	1.727129	-0.299934	-0.024490
C69	C	2.060463	0.033399	0.308843
C70	C	1.329438	-0.832734	-0.407408
C71	C	1.662772	-0.499401	-0.074074
C72	C	1.996105	-0.166067	0.259259
C73	C	1.305932	-0.882168	-0.339641
C74	C	1.639266	-0.548835	-0.006307
C75	C	1.972599	-0.215502	0.327026
C76	C	1.393891	-0.784398	-0.357833
C77	C	1.727224	-0.451065	-0.024500
C78	C	2.060558	-0.117731	0.308834
C79	C	1.417444	-0.882045	-0.425608
C80	C	1.750778	-0.548712	-0.092274
C81	C	2.084111	-0.215378	0.241059
C82	C	1.393981	-0.930383	-0.357848
C83	C	1.727314	-0.597050	-0.024515
C84	C	2.060647	-0.263716	0.308818
C85	C	1.370338	-0.832745	-0.290030
C86	C	1.703672	-0.499412	0.043303
C87	C	2.037005	-0.166078	0.376636
C88	C	1.481891	-0.832617	-0.376043
C89	C	1.815225	-0.499284	-0.042710
C90	C	2.148558	-0.165951	0.290624
C91	C	1.458419	-0.882029	-0.308229
C92	C	1.791752	-0.548696	0.025104
C93	C	2.125085	-0.215363	0.358437
C94	C	1.393837	-0.700300	-0.357825
C95	C	1.727170	-0.366966	-0.024492
C96	C	2.060503	-0.033633	0.308841
C97	C	1.394035	-1.014479	-0.357849
C98	C	1.727368	-0.681146	-0.024515
C99	C	2.060702	-0.347813	0.308818
C100	C	1.645467	-0.357780	-0.357834
C101	C	1.978800	-0.024447	-0.024500
C102	C	2.312134	0.308887	0.308833
C103	C	1.752681	-0.357785	-0.357841
C104	C	2.086014	-0.024451	-0.024508
C105	C	2.419348	0.308882	0.308826
C106	C	1.393912	-0.357737	-0.551522
C107	C	1.727245	-0.024403	-0.218188
C108	C	2.060579	0.308930	0.115145
C109	C	1.393928	-0.357723	-0.634068
C110	C	1.727261	-0.024389	-0.300734
C111	C	2.060595	0.308944	0.032599
C112	C	1.394017	-0.164064	-0.357845
C113	C	1.727351	0.169269	-0.024511
C114	C	2.060684	0.502603	0.308822
C115	C	1.394078	-0.081518	-0.357857
C116	C	1.727412	0.251815	-0.024524
C117	C	2.060745	0.585149	0.308810
C118	C	1.329510	-0.407258	-0.833507
C119	C	1.662843	-0.073925	-0.500173
C120	C	1.996177	0.259408	-0.166840
C121	C	1.417513	-0.425410	-0.882898
C122	C	1.750847	-0.092077	-0.549565
C123	C	2.084180	0.241256	-0.216231
C124	C	1.393976	-0.357666	-0.785198
C125	C	1.727309	-0.024333	-0.451865
C126	C	2.060642	0.309001	-0.118531
C127	C	1.306021	-0.339493	-0.882888
C128	C	1.639354	-0.006160	-0.549555
C129	C	1.972687	0.327173	-0.216222
C130	C	1.394014	-0.357613	-0.931183
C131	C	1.727347	-0.024279	-0.597850
C132	C	2.060680	0.309054	-0.264517
C133	C	1.482025	-0.375853	-0.833502
C134	C	1.815358	-0.042520	-0.500169
C135	C	2.148692	0.290813	-0.166836
C136	C	1.370473	-0.289905	-0.833488
C137	C	1.703806	0.043428	-0.500155
C138	C	2.037140	0.376762	-0.166822
C139	C	1.458537	-0.308031	-0.882857
C140	C	1.791870	0.025302	-0.549524
C141	C	2.125204	0.358636	-0.216191
C142	C	1.393952	-0.357699	-0.701100
C143	C	1.727286	-0.024365	-0.367766
C144	C	2.060619	0.308968	-0.034433
C145	C	1.394047	-0.357580	-1.015280
C146	C	1.727380	-0.024247	-0.681946
C147	C	2.060714	0.309087	-0.348613
C148	C	1.393892	-0.357749	-0.164864
C149	C	1.727225	-0.024415	0.168469
C150	C	2.060559	0.308918	0.501803
C151	C	1.394063	-0.357554	-0.082319
C152	C	1.727396	-0.024220	0.251015
C153	C	2.060729	0.309113	0.584348
H154	H	1.274853	-0.811088	-0.449272
H155	H	1.608186	-0.477755	-0.115939
H156	H	1.941520	-0.144421	0.217395
H157	H	1.231622	-0.324145	-0.904582
H158	H	1.564956	0.009188	-0.571249
H159	H	1.898289	0.342521	-0.237916
H160	H	1.350366	-0.811179	-0.232704
H161	H	1.683700	-0.477846	0.100629
H162	H	2.017033	-0.144512	0.433962
H163	H	1.231555	-0.903950	-0.324253
H164	H	1.564888	-0.570616	0.009081
H165	H	1.898222	-0.237283	0.342414
H166	H	1.513133	-0.266070	-0.904390
H167	H	1.846466	0.067264	-0.571056
H168	H	2.179799	0.400597	-0.237723
F169	F	1.529714	-0.910144	-0.253380
F170	F	1.863047	-0.576810	0.079954
F171	F	2.196380	-0.243477	0.413287
F172	F	1.579087	-0.804148	-0.396198
F173	F	1.912420	-0.470815	-0.062865
F174	F	2.245753	-0.137481	0.270469
H175	H	1.437330	-0.903701	-0.482918
H176	H	1.770664	-0.570367	-0.149585
H177	H	2.103997	-0.237034	0.183749
F178	F	1.258320	-0.462145	-0.805182
F179	F	1.591653	-0.128811	-0.471848
F180	F	1.924987	0.204522	-0.138515
H181	H	1.437415	-0.482692	-0.904601
H182	H	1.770749	-0.149358	-0.571268
H183	H	2.104082	0.183975	-0.237934
H184	H	1.556445	-0.391267	-0.811900
H185	H	1.889778	-0.057933	-0.478566
H186	H	2.223112	0.275400	-0.145233
H187	H	1.350545	-0.232640	-0.811769
H188	H	1.683879	0.100693	-0.478436
H189	H	2.017212	0.434027	-0.145102
