data_functionalizedCrystal
_audit_creation_method	'MofGen! by Chris Wilmer'
_symmetry_space_group_name_H-M	'P1'
_symmetry_Int_Tables_number	1
_symmetry_cell_setting	triclinic
loop_
_symmetry_equiv_pos_as_xyz
  x,y,z
_cell_length_a	19.805407
_cell_length_b	10.685194
_cell_length_c	19.805399
_cell_angle_alpha	94.395351
_cell_angle_beta	90.017803
_cell_angle_gamma	94.374384
loop_
_atom_site_label
_atom_site_type_symbol
_atom_site_fract_x
_atom_site_fract_y
_atom_site_fract_z
Zn1	Zn	1.014162	-0.502526	0.362033
Zn2	Zn	1.514162	-0.002526	0.862033
Zn3	Zn	1.005437	-0.713562	0.240171
Zn4	Zn	1.505437	-0.213562	0.740171
Zn5	Zn	0.900975	-0.502551	0.248860
Zn6	Zn	1.400975	-0.002551	0.748860
Zn7	Zn	0.892303	-0.713485	0.353324
Zn8	Zn	1.392303	-0.213485	0.853324
O9	O	0.953219	-0.608031	0.301097
O10	O	1.453219	-0.108031	0.801097
O11	O	1.107720	-0.530542	0.345876
O12	O	1.607720	-0.030542	0.845876
O13	O	0.991558	-0.685614	0.146605
O14	O	1.491558	-0.185614	0.646605
O15	O	0.923271	-0.325951	0.271154
O16	O	1.423271	0.174049	0.771154
O17	O	1.101310	-0.685590	0.256344
O18	O	1.601310	-0.185590	0.756344
O19	O	1.006428	-0.325933	0.354302
O20	O	1.506428	0.174067	0.854302
O21	O	0.914810	-0.530585	0.152989
O22	O	1.414810	-0.030585	0.652989
O23	O	0.805109	-0.530510	0.262709
O24	O	1.305109	-0.030510	0.762709
O25	O	0.908490	-0.685459	0.449198
O26	O	1.408490	-0.185459	0.949198
O27	O	0.798738	-0.685483	0.339459
O28	O	1.298738	-0.185483	0.839459
O29	O	0.998019	-0.530467	0.455596
O30	O	1.498019	-0.030467	0.955596
O31	O	0.983148	-0.890148	0.247900
O32	O	1.483148	-0.390148	0.747900
O33	O	0.900030	-0.890092	0.331033
O34	O	1.400030	-0.390092	0.831033
C35	C	0.777365	-0.607992	0.301082
C36	C	1.277365	-0.107992	0.801082
C37	C	0.702132	-0.608005	0.301091
C38	C	1.202132	-0.108005	0.801091
C39	C	0.670121	-0.527415	0.347770
C40	C	1.170121	-0.027415	0.847770
C41	C	0.599432	-0.527421	0.347772
C42	C	1.099432	-0.027421	0.847772
C43	C	0.560756	-0.608026	0.301098
C44	C	1.060756	-0.108026	0.801098
C45	C	0.592772	-0.688620	0.254414
C46	C	1.092772	-0.188620	0.754414
C47	C	0.663460	-0.688606	0.254409
C48	C	1.163460	-0.188606	0.754409
C49	C	0.307697	-0.688676	0.254432
C50	C	0.807697	-0.188676	0.754432
C51	C	0.237004	-0.688687	0.254442
C52	C	0.737004	-0.188687	0.754442
C53	C	0.243669	-0.527492	0.347796
C54	C	0.743669	-0.027492	0.847796
C55	C	0.314357	-0.527478	0.347791
C56	C	0.814357	-0.027478	0.847791
C57	C	0.346367	-0.608067	0.301105
C58	C	0.846367	-0.108067	0.801105
C59	C	0.423016	-0.608057	0.301102
C60	C	0.923016	-0.108057	0.801102
C61	C	0.484108	-0.608043	0.301104
C62	C	0.984108	-0.108043	0.801104
C63	C	0.939720	-0.935910	0.287593
C64	C	1.439720	-0.435910	0.787593
C65	C	0.934006	-1.076177	0.281839
C66	C	1.434006	-0.576177	0.781839
C67	C	1.129760	-0.608072	0.301112
C68	C	1.629760	-0.108072	0.801112
C69	C	1.204992	-0.608089	0.301119
C70	C	1.704992	-0.108089	0.801119
C71	C	0.953261	-0.607952	0.477643
C72	C	1.453261	-0.107952	0.977643
C73	C	0.953278	-0.607918	0.552877
C74	C	1.453278	-0.107918	1.052877
C75	C	0.966790	-0.278872	0.314668
C76	C	1.466790	0.221128	0.814668
C77	C	0.972573	-0.138604	0.320452
C78	C	1.472573	0.361396	0.820452
C79	C	0.953221	-0.608019	0.125242
C80	C	1.453221	-0.108019	0.625242
C81	C	0.953349	-0.607698	0.050023
C82	C	1.453349	-0.107698	0.550023
C83	C	0.999897	-0.527210	0.591554
C84	C	1.499897	-0.027210	1.091554
C85	C	0.999905	-0.527173	0.662244
C86	C	1.499905	-0.027173	1.162244
C87	C	0.953298	-0.607852	0.694255
C88	C	1.453298	-0.107852	1.194255
C89	C	0.906674	-0.688563	0.655573
C90	C	1.406674	-0.188563	1.155573
C91	C	0.906663	-0.688593	0.584884
C92	C	1.406663	-0.188593	1.084884
C93	C	0.906717	-0.688446	0.940651
C94	C	1.406717	-0.188446	1.440651
C95	C	0.906733	-0.688413	1.011345
C96	C	1.406733	-0.188413	1.511345
C97	C	0.999960	-0.527026	1.018010
C98	C	1.499960	-0.027026	1.518010
C99	C	0.999948	-0.527056	0.947322
C100	C	1.499948	-0.027056	1.447322
C101	C	0.953323	-0.607762	0.908646
C102	C	1.453323	-0.107762	1.408646
C103	C	0.953313	-0.607799	0.831996
C104	C	1.453313	-0.107799	1.331996
C105	C	0.953310	-0.607822	0.770903
C106	C	1.453310	-0.107822	1.270903
H107	H	0.701606	-0.461780	0.385779
H108	H	1.201606	0.038220	0.885779
O109	O	1.017198	-1.074551	0.365201
O110	O	1.517198	-0.574551	0.865201
C111	C	1.051920	-1.160751	0.399934
C112	C	1.551920	-0.660751	0.899934
H113	H	1.020409	-1.254778	0.398438
H114	H	1.520409	-0.754778	0.898438
H115	H	1.060648	-1.122502	0.454821
H116	H	1.560648	-0.622502	0.954821
H117	H	1.102780	-1.174676	0.374631
H118	H	1.602780	-0.674676	0.874631
H119	H	1.037903	-0.461363	0.921262
H120	H	1.537903	0.038637	1.421262
O121	O	1.045314	-0.448574	1.055479
O122	O	1.545314	0.051426	1.555479
C123	C	1.086438	-0.377356	1.012066
C124	C	1.586438	0.122644	1.512066
H125	H	1.086641	-0.429074	0.959547
H126	H	1.586641	0.070926	1.459547
H127	H	1.140324	-0.363898	1.033053
H128	H	1.640324	0.136102	1.533053
H129	H	1.065604	-0.281509	1.008493
H130	H	1.565604	0.218491	1.508493
O131	O	0.889336	-1.140236	0.237130
O132	O	1.389336	-0.640236	0.737130
C133	C	0.854640	-1.054033	0.202373
C134	C	1.354640	-0.554033	0.702373
H135	H	0.856069	-0.960015	0.233907
H136	H	1.356069	-0.460015	0.733907
H137	H	0.799774	-1.092293	0.193552
H138	H	1.299774	-0.592293	0.693552
H139	H	0.880020	-1.040087	0.151556
H140	H	1.380020	-0.540087	0.651556
H141	H	0.205515	-0.754328	0.216432
H142	H	0.705515	-0.254328	0.716432
O143	O	1.045200	-0.448719	0.560570
O144	O	1.545200	0.051281	1.060570
C145	C	1.086358	-0.377498	0.609869
C146	C	1.586358	0.122502	1.109869
H147	H	1.058822	-0.373103	0.660433
H148	H	1.558822	0.126897	1.160433
H149	H	1.097674	-0.278078	0.593548
H150	H	1.597674	0.221922	1.093548
H151	H	1.135859	-0.423718	0.615490
H152	H	1.635859	0.076282	1.115490
H153	H	0.868694	-0.754300	0.553395
H154	H	1.368694	-0.254300	1.053395
H155	H	1.037869	-0.461456	0.693731
H156	H	1.537869	0.038544	1.193731
H157	H	0.868776	-0.754113	1.037406
H158	H	1.368776	-0.254113	1.537406
H159	H	0.217598	-0.461868	0.385807
H160	H	0.717598	0.038132	0.885807
O161	O	0.568364	-0.449272	0.393210
O162	O	1.068364	0.050728	0.893210
C163	C	0.584536	-0.477003	0.459500
C164	C	1.084536	0.022997	0.959500
H165	H	0.599820	-0.577827	0.458671
H166	H	1.099820	-0.077827	0.958671
H167	H	0.538508	-0.466218	0.493398
H168	H	1.038508	0.033782	0.993398
H169	H	0.628358	-0.409389	0.480034
H170	H	1.128358	0.090611	0.980034
H171	H	0.868760	-0.754180	0.909169
H172	H	1.368760	-0.254180	1.409169
O173	O	0.861489	-0.767067	0.686692
O174	O	1.361489	-0.267067	1.186692
C175	C	0.896670	-0.848548	0.724238
C176	C	1.396670	-0.348548	1.224238
H177	H	0.949652	-0.856368	0.702622
H178	H	1.449652	-0.356368	1.202622
H179	H	0.868184	-0.945660	0.721032
H180	H	1.368184	-0.445660	1.221032
H181	H	0.900620	-0.809508	0.779421
H182	H	1.400620	-0.309508	1.279421
O183	O	0.351848	-0.449240	0.393221
O184	O	0.851848	0.050760	0.893221
C185	C	0.333475	-0.477003	0.459516
C186	C	0.833475	0.022997	0.959516
H187	H	0.280157	-0.525529	0.458884
H188	H	0.780157	-0.025529	0.958884
H189	H	0.334810	-0.385998	0.493692
H190	H	0.834810	0.114002	0.993692
H191	H	0.370599	-0.541930	0.479579
H192	H	0.870599	-0.041930	0.979579
O193	O	0.338745	-0.767145	0.209150
O194	O	0.838745	-0.267145	0.709150
C195	C	0.316290	-0.892958	0.218642
C196	C	0.816290	-0.392958	0.718642
H197	H	0.296619	-0.899463	0.272445
H198	H	0.796619	-0.399463	0.772445
H199	H	0.360209	-0.955287	0.210180
H200	H	0.860209	-0.455287	0.710180
H201	H	0.273887	-0.925858	0.180979
H202	H	0.773887	-0.425858	0.680979
O203	O	0.555101	-0.766878	0.209139
O204	O	1.055101	-0.266878	0.709139
C205	C	0.485846	-0.749592	0.219142
C206	C	0.985846	-0.249592	0.719142
H207	H	0.477906	-0.708392	0.273111
H208	H	0.977906	-0.208392	0.773111
H209	H	0.455095	-0.844113	0.210577
H210	H	0.955095	-0.344113	0.710577
H211	H	0.468536	-0.682294	0.181827
H212	H	0.968536	-0.182294	0.681827
H213	H	0.689523	-0.754230	0.216398
H214	H	1.189523	-0.254230	0.716398
