data_functionalizedCrystal
_audit_creation_method	'MofGen! by Chris Wilmer'
_symmetry_space_group_name_H-M	'P1'
_symmetry_Int_Tables_number	1
_symmetry_cell_setting	triclinic
loop_
_symmetry_equiv_pos_as_xyz
  x,y,z
_cell_length_a	12.759401
_cell_length_b	18.215404
_cell_length_c	12.759393
_cell_angle_alpha	89.966380
_cell_angle_beta	90.019842
_cell_angle_gamma	89.974444
loop_
_atom_site_label
_atom_site_type_symbol
_atom_site_fract_x
_atom_site_fract_y
_atom_site_fract_z
Zn1	Zn	1.606175	0.292913	0.594034
Zn2	Zn	1.606046	0.415998	0.418345
Zn3	Zn	1.430481	0.292953	0.418366
Zn4	Zn	1.430438	0.415947	0.593979
O5	O	1.518285	0.354453	0.506181
O6	O	1.753179	0.309246	0.570744
O7	O	1.582720	0.399714	0.271327
O8	O	1.453860	0.189964	0.441700
O9	O	1.753084	0.399675	0.441666
O10	O	1.582941	0.189934	0.570763
O11	O	1.453734	0.309314	0.271342
O12	O	1.283454	0.309264	0.441646
O13	O	1.453786	0.399588	0.741007
O14	O	1.283423	0.399626	0.570668
O15	O	1.582899	0.309196	0.741048
O16	O	1.582678	0.518975	0.441612
O17	O	1.453660	0.518938	0.570649
C18	C	1.245318	0.354445	0.506154
C19	C	1.128541	0.354459	0.506167
C20	C	0.963965	0.401582	0.573279
C21	C	1.073689	0.401580	0.573251
C22	C	1.073663	0.307341	0.439101
C23	C	0.963941	0.307346	0.439125
C24	C	0.963981	0.455988	0.650733
C25	C	1.073705	0.455987	0.650704
C26	C	1.518179	0.545659	0.506145
C27	C	1.518230	0.627458	0.506165
C28	C	1.585572	0.815647	0.439113
C29	C	1.585621	0.892506	0.439144
C30	C	1.451158	0.892506	0.573400
C31	C	1.451115	0.815649	0.573374
C32	C	1.518321	0.777221	0.506224
C33	C	1.518413	0.930937	0.506282
C34	C	1.518465	1.014271	0.506316
C35	C	1.518270	0.693883	0.506191
C36	C	1.792318	0.354462	0.506209
C37	C	1.909095	0.354465	0.506221
C38	C	1.518352	0.354382	0.780215
C39	C	1.518381	0.354351	0.896991
C40	C	1.518426	1.162500	0.506259
C41	C	1.518504	1.080701	0.506341
C42	C	1.518278	0.354471	0.233214
C43	C	1.518453	0.354294	0.116438
C44	C	1.451174	0.401396	0.951834
C45	C	1.451212	0.401369	1.061558
C46	C	1.585668	0.307247	1.061587
C47	C	1.585634	0.307278	0.951865
C48	C	1.373544	0.455735	0.951818
C49	C	1.373582	0.455708	1.061542
H50	H	1.118332	0.268978	0.384474
C51	C	1.320749	0.560598	0.850617
C52	C	1.402892	0.532688	0.911588
H53	H	1.338866	0.608106	0.825787
H54	H	1.308652	0.528949	0.792734
H55	H	1.259023	0.563680	0.891991
H56	H	1.464616	0.529602	0.870212
H57	H	1.415002	0.564346	0.969480
H58	H	1.640386	0.923789	0.384497
H59	H	1.396351	0.784361	0.628028
H60	H	1.396440	0.923804	0.628069
H61	H	0.930003	0.435637	0.728084
H62	H	1.640370	0.268977	0.907217
H63	H	1.107689	0.510106	0.621416
H64	H	1.402696	0.509846	1.095558
C65	C	1.200723	0.410059	0.987600
C66	C	1.269210	0.428185	0.905867
H67	H	1.136312	0.393053	0.959229
H68	H	1.231174	0.372578	1.029505
H69	H	1.188225	0.452260	1.029487
H70	H	1.281715	0.385983	0.863985
H71	H	1.238754	0.465669	0.863945
H72	H	1.640423	0.268921	1.106279
C73	C	0.960323	0.584203	0.694159
C74	C	0.923718	0.532907	0.621127
H75	H	0.935470	0.631688	0.675875
H76	H	0.935553	0.571527	0.761984
H77	H	1.034774	0.584190	0.694132
H78	H	0.849267	0.532916	0.621160
H79	H	0.948482	0.545586	0.553283
H80	H	0.919270	0.268988	0.384508
H81	H	1.103539	0.440783	0.732105
H82	H	1.640297	0.784361	0.384437
H83	H	1.292234	0.440427	1.091322
