data_functionalizedCrystal
_audit_creation_method	'MofGen! by Chris Wilmer'
_symmetry_space_group_name_H-M	'P1'
_symmetry_Int_Tables_number	1
_symmetry_cell_setting	triclinic
loop_
_symmetry_equiv_pos_as_xyz
  x,y,z
_cell_length_a	16.109301
_cell_length_b	13.262508
_cell_length_c	15.186229
_cell_angle_alpha	105.914579
_cell_angle_beta	89.999362
_cell_angle_gamma	83.966579
loop_
_atom_site_label
_atom_site_type_symbol
_atom_site_fract_x
_atom_site_fract_y
_atom_site_fract_z
O1	O	1.103625	0.134909	-0.040859
O2	O	1.603625	0.634909	0.459141
O3	O	0.861625	0.151698	-0.036852
O4	O	1.361625	0.651698	0.463148
O5	O	0.988715	-0.009487	-0.075446
O6	O	1.488715	0.490513	0.424554
O7	O	0.976535	0.296094	-0.002265
O8	O	1.476535	0.796094	0.497735
O9	O	0.988706	-0.009490	0.071011
O10	O	1.488706	0.490510	0.571011
O11	O	0.861616	0.151696	0.109605
O12	O	1.361616	0.651696	0.609605
O13	O	1.103617	0.134906	0.105598
O14	O	1.603617	0.634906	0.605598
Zn15	Zn	0.982615	0.143301	0.130855
Zn16	Zn	1.482615	0.643301	0.630855
Zn17	Zn	0.982626	0.143304	-0.062109
Zn18	Zn	1.482626	0.643304	0.437891
O19	O	0.976527	0.296092	0.144192
O20	O	1.476527	0.796092	0.644192
C21	C	0.830643	0.151017	0.036212
C22	C	1.330643	0.651017	0.536212
C23	C	0.738340	0.148978	0.035718
C24	C	1.238340	0.648978	0.535718
C25	C	0.516401	0.239881	0.057498
C26	C	1.016401	0.739881	0.557498
C27	C	0.429673	0.237957	0.057043
C28	C	0.929673	0.737957	0.557043
C29	C	0.448847	0.046716	0.011241
C30	C	0.948847	0.546716	0.511241
C31	C	0.535573	0.048641	0.011702
C32	C	1.035573	0.548641	0.511702
C33	C	0.569347	0.145227	0.034828
C34	C	1.069347	0.645227	0.534828
C35	C	0.395894	0.141378	0.033911
C36	C	0.895894	0.641378	0.533911
C37	C	0.301860	0.139291	0.033417
C38	C	0.801860	0.639291	0.533417
C39	C	0.663387	0.147314	0.035323
C40	C	1.163387	0.647314	0.535323
C41	C	0.988028	-0.048591	-0.011584
C42	C	1.488028	0.451409	0.488416
C43	C	0.985986	-0.165106	-0.039494
C44	C	1.485986	0.334894	0.460506
C45	C	0.980207	-0.493559	0.201179
C46	C	1.480207	0.006441	0.701179
C47	C	0.982119	-0.384087	0.227402
C48	C	1.482119	0.115913	0.727402
C49	C	0.983086	-0.329336	0.160681
C50	C	1.483086	0.170664	0.660681
C51	C	0.982140	-0.384068	0.067731
C52	C	1.482140	0.115932	0.567731
C53	C	0.980221	-0.493550	0.041506
C54	C	1.480221	0.006450	0.541506
C55	C	0.983101	-0.329327	0.001007
C56	C	1.483101	0.170673	0.501007
C57	C	0.982155	-0.384060	-0.091942
C58	C	1.482155	0.115940	0.408058
C59	C	0.980237	-0.493531	-0.118164
C60	C	1.480237	0.006469	0.381836
C61	C	0.979270	-0.548281	-0.051442
C62	C	1.479270	-0.048281	0.448558
C63	C	0.985020	-0.219846	0.027233
C64	C	1.485020	0.280154	0.527233
C65	C	0.985034	-0.219837	-0.132441
C66	C	1.485034	0.280163	0.367559
C67	C	0.983122	-0.329309	-0.158664
C68	C	1.483122	0.170691	0.341336
C69	C	1.134598	0.135588	0.032532
C70	C	1.634598	0.635588	0.532532
C71	C	1.226901	0.137627	0.033020
C72	C	1.726901	0.637627	0.533020
C73	C	0.977213	0.335196	0.080328
C74	C	1.477213	0.835196	0.580328
C75	C	0.979255	0.451710	0.108232
C76	C	1.479255	0.951710	0.608232
N77	N	0.982613	0.143298	0.262547
N78	N	1.482613	0.643298	0.762547
N79	N	0.982634	0.143298	-0.193803
N80	N	1.482634	0.643298	0.306197
C81	C	1.038908	0.071949	0.471186
C82	C	1.538908	0.571949	0.971186
C83	C	1.038911	0.071947	0.563375
C84	C	1.538911	0.571947	1.063375
C85	C	0.926334	0.214650	0.597553
C86	C	1.426334	0.714650	1.097553
C87	C	0.926328	0.214647	0.505364
C88	C	1.426328	0.714647	1.005364
C89	C	0.982620	0.143297	0.442183
C90	C	1.482620	0.643297	0.942183
C91	C	0.982628	0.143298	0.626561
C92	C	1.482628	0.643298	1.126561
C93	C	0.982631	0.143296	0.726517
C94	C	1.482631	0.643296	1.226517
C95	C	0.982616	0.143298	0.342221
C96	C	1.482616	0.643298	0.842221
H97	H	0.985782	-0.175292	0.102913
H98	H	1.485782	0.324708	0.602913
Cl99	Cl	1.109672	-0.017751	0.391761
Cl100	Cl	1.609672	0.482249	0.891761
H101	H	0.979459	-0.538090	-0.193849
H102	H	1.479459	-0.038090	0.306151
Cl103	Cl	0.981935	-0.398128	-0.275512
Cl104	Cl	1.481935	0.101872	0.224488
Cl105	Cl	1.109675	-0.017754	0.599831
Cl106	Cl	1.609675	0.482246	1.099831
Cl107	Cl	0.855573	0.304346	0.676984
Cl108	Cl	1.355573	0.804346	1.176984
H109	H	0.979413	-0.538145	0.255494
H110	H	1.479413	-0.038145	0.755494
Cl111	Cl	0.986233	-0.151013	-0.216325
Cl112	Cl	1.486233	0.348987	0.283675
Cl113	Cl	0.976865	-0.685910	-0.084405
Cl114	Cl	1.476865	-0.185910	0.415595
H115	H	0.880487	0.272748	0.481750
H116	H	1.380487	0.772748	0.981750
H117	H	0.543897	0.318527	0.076335
H118	H	1.043897	0.818527	0.576335
H119	H	0.421337	-0.031921	-0.007582
H120	H	0.921337	0.468079	0.492418
Cl121	Cl	0.602139	-0.070363	-0.016794
Cl122	Cl	1.102139	0.429637	0.483206
Cl123	Cl	0.363116	0.356957	0.085546
Cl124	Cl	0.863116	0.856957	0.585546
Cl125	Cl	0.985488	-0.191712	0.193649
Cl126	Cl	1.485488	0.308288	0.693649
H127	H	0.982898	-0.339533	0.303081
H128	H	1.482898	0.160467	0.803081
