data_functionalizedCrystal
_audit_creation_method	'MofGen! by Chris Wilmer'
_symmetry_space_group_name_H-M	'P1'
_symmetry_Int_Tables_number	1
_symmetry_cell_setting	triclinic
loop_
_symmetry_equiv_pos_as_xyz
  x,y,z
_cell_length_a	13.897449
_cell_length_b	13.897447
_cell_length_c	13.897441
_cell_angle_alpha	89.970673
_cell_angle_beta	89.979267
_cell_angle_gamma	90.020810
loop_
_atom_site_label
_atom_site_type_symbol
_atom_site_fract_x
_atom_site_fract_y
_atom_site_fract_z
Zn1	Zn	1.474690	-0.383951	-0.545390
Zn2	Zn	1.974690	0.116049	-0.045390
Zn3	Zn	1.474579	-0.545273	-0.384095
Zn4	Zn	1.974579	-0.045273	0.115905
Zn5	Zn	1.313379	-0.383997	-0.384108
Zn6	Zn	1.813379	0.116003	0.115892
Zn7	Zn	1.313356	-0.545210	-0.545347
Zn8	Zn	1.813356	-0.045210	-0.045347
O9	O	1.394001	-0.464608	-0.464735
O10	O	1.894001	0.035392	0.035265
O11	O	1.609657	-0.405358	-0.524006
O12	O	2.109657	0.094642	-0.024006
O13	O	1.453159	-0.523925	-0.249115
O14	O	1.953159	-0.023925	0.250885
O15	O	1.334834	-0.249009	-0.405526
O16	O	1.834834	0.250991	0.094474
O17	O	1.609575	-0.523881	-0.405503
O18	O	2.109575	-0.023881	0.094497
O19	O	1.453348	-0.248976	-0.524019
O20	O	1.953348	0.251024	-0.024019
O21	O	1.334726	-0.405436	-0.249125
O22	O	1.834726	0.094564	0.250875
O23	O	1.178395	-0.405375	-0.405485
O24	O	1.678395	0.094625	0.094515
O25	O	1.334794	-0.523773	-0.680335
O26	O	1.834794	-0.023773	-0.180335
O27	O	1.178377	-0.523817	-0.523946
O28	O	1.678377	-0.023817	-0.023946
O29	O	1.453326	-0.405297	-0.680366
O30	O	1.953326	0.094703	-0.180366
O31	O	1.453136	-0.680246	-0.405462
O32	O	1.953136	-0.180246	0.094538
O33	O	1.334686	-0.680200	-0.523933
O34	O	1.834686	-0.180200	-0.023933
C35	C	1.143387	-0.464595	-0.464713
C36	C	1.643387	0.035405	0.035287
C37	C	1.036173	-0.464613	-0.464726
C38	C	1.536173	0.035387	0.035274
C39	C	0.839878	-0.464616	-0.464752
C40	C	1.339878	0.035384	0.035248
C41	C	0.949110	-0.464611	-0.464735
C42	C	1.449110	0.035389	0.035265
C43	C	1.393923	-0.715222	-0.464713
C44	C	1.893923	-0.215222	0.035287
C45	C	1.393977	-0.822436	-0.464735
C46	C	1.893977	-0.322436	0.035265
C47	C	1.394024	-0.909506	-0.464757
C48	C	1.894024	-0.409506	0.035243
C49	C	1.394092	-1.018738	-0.464782
C50	C	1.894092	-0.518738	0.035218
C51	C	1.645594	-0.464621	-0.464758
C52	C	2.145594	0.035379	0.035242
C53	C	1.752808	-0.464627	-0.464767
C54	C	2.252808	0.035373	0.035233
C55	C	1.394070	-0.464522	-0.716328
C56	C	1.894070	0.035478	-0.216328
C57	C	1.394099	-0.464486	-0.823542
C58	C	1.894099	0.035514	-0.323542
C59	C	1.394106	-0.213015	-0.464778
C60	C	1.894106	0.286985	0.035222
C61	C	1.394151	-0.105801	-0.464797
C62	C	1.894151	0.394199	0.035203
C63	C	1.394125	-0.464421	-1.019837
C64	C	1.894125	0.035579	-0.519837
C65	C	1.394107	-0.464460	-0.910605
C66	C	1.894107	0.035540	-0.410605
C67	C	1.393989	-0.464623	-0.214121
C68	C	1.893989	0.035377	0.285879
C69	C	1.394146	-0.464388	-0.106907
C70	C	1.894146	0.035612	0.393093
