data_functionalizedCrystal
_audit_creation_method	'MofGen! by Chris Wilmer'
_symmetry_space_group_name_H-M	'P1'
_symmetry_Int_Tables_number	1
_symmetry_cell_setting	triclinic
loop_
_symmetry_equiv_pos_as_xyz
  x,y,z
_cell_length_a	12.759395
_cell_length_b	12.759394
_cell_length_c	12.759401
_cell_angle_alpha	90.007923
_cell_angle_beta	90.006101
_cell_angle_gamma	90.015525
loop_
_atom_site_label
_atom_site_type_symbol
_atom_site_fract_x
_atom_site_fract_y
_atom_site_fract_z
Zn1	Zn	1.606109	-0.418438	0.594024
Zn2	Zn	1.606046	-0.594082	0.418342
Zn3	Zn	1.430454	-0.418420	0.418358
Zn4	Zn	1.430399	-0.594078	0.593978
O5	O	1.518252	-0.506254	0.506175
O6	O	1.753121	-0.441747	0.570732
O7	O	1.582750	-0.570774	0.271323
O8	O	1.453804	-0.271401	0.441686
O9	O	1.753075	-0.570792	0.441659
O10	O	1.582857	-0.271414	0.570747
O11	O	1.453743	-0.441716	0.271335
O12	O	1.283426	-0.441712	0.441642
O13	O	1.453710	-0.570784	0.741005
O14	O	1.283385	-0.570767	0.570669
O15	O	1.582804	-0.441743	0.741039
O16	O	1.582697	-0.741103	0.441614
O17	O	1.453650	-0.741099	0.570653
C18	C	1.245284	-0.506238	0.506153
C19	C	1.128508	-0.506256	0.506168
C20	C	0.909081	-0.640882	0.640347
C21	C	0.963951	-0.708173	0.707411
C22	C	1.073672	-0.708160	0.707398
C23	C	1.128526	-0.640851	0.640310
C24	C	1.073656	-0.573560	0.573246
C25	C	0.963932	-0.573578	0.573269
C26	C	1.073638	-0.438964	0.439104
C27	C	0.963916	-0.438970	0.439121
C28	C	1.128492	-0.371655	0.372017
C29	C	1.073621	-0.304357	0.304956
C30	C	0.963893	-0.304372	0.304973
C31	C	0.909046	-0.371679	0.372057
C32	C	1.518189	-0.779222	0.506150
C33	C	1.518258	-0.895999	0.506174
C34	C	1.652736	-0.895949	0.371906
C35	C	1.720002	-0.950785	0.304785
C36	C	1.720063	-1.060506	0.304814
C37	C	1.652854	-1.115394	0.371973
C38	C	1.585588	-1.060559	0.439095
C39	C	1.585531	-0.950834	0.439056
C40	C	1.451117	-1.060608	0.573366
C41	C	1.451048	-0.950887	0.573334
C42	C	1.383907	-1.115497	0.640525
C43	C	1.316634	-1.060661	0.707643
C44	C	1.316574	-0.950933	0.707611
C45	C	1.383782	-0.896051	0.640455
C46	C	1.792285	-0.506272	0.506199
C47	C	1.909062	-0.506280	0.506208
C48	C	1.518258	-0.506265	0.780209
C49	C	1.518260	-0.506269	0.896985
C50	C	1.518344	-0.232221	0.506224
C51	C	1.518383	-0.115444	0.506245
C52	C	1.585467	-0.439083	1.061591
C53	C	1.585472	-0.439085	0.951867
C54	C	1.451048	-0.573464	0.951833
C55	C	1.451049	-0.573466	1.061555
C56	C	1.652674	-0.371887	1.116468
C57	C	1.719889	-0.304694	1.061628
C58	C	1.719894	-0.304696	0.951904
C59	C	1.652684	-0.371891	0.897020
C60	C	1.518243	-0.506269	1.233208
C61	C	1.518257	-0.506270	1.116431
H62	H	1.217833	-0.371654	0.372006
Br63	Br	1.811110	-0.213519	1.136109
Br64	Br	1.225441	-1.135155	0.798788
H65	H	1.774725	-0.906085	0.250106
Br66	Br	1.811361	-1.134931	0.213729
Br67	Br	0.760172	-0.640887	0.640387
H68	H	1.118292	-0.249564	0.250334
H69	H	1.652702	-0.371896	0.807675
Br70	Br	1.811123	-0.213520	0.877479
Br71	Br	0.889503	-0.799536	0.798435
H72	H	1.652919	-1.204735	0.371999
Br73	Br	1.359838	-0.664647	0.877348
H74	H	0.819705	-0.371693	0.372082
Br75	Br	1.383498	-1.264404	0.640074
H76	H	1.261802	-0.906291	0.762274
H77	H	1.383733	-0.806710	0.640416
H78	H	1.396321	-0.628176	1.106207
Br79	Br	1.148144	-0.799492	0.798405
H80	H	0.919224	-0.249576	0.250360
Br81	Br	1.277435	-0.640852	0.640276
H82	H	1.652679	-0.806608	0.371863
H83	H	1.652675	-0.371875	1.205811
