data_functionalizedCrystal
_audit_creation_method	'MofGen! by Chris Wilmer'
_symmetry_space_group_name_H-M	'P1'
_symmetry_Int_Tables_number	1
_symmetry_cell_setting	triclinic
loop_
_symmetry_equiv_pos_as_xyz
  x,y,z
_cell_length_a	10.489741
_cell_length_b	14.971506
_cell_length_c	14.048226
_cell_angle_alpha	89.993237
_cell_angle_beta	89.993872
_cell_angle_gamma	84.080781
loop_
_atom_site_label
_atom_site_type_symbol
_atom_site_fract_x
_atom_site_fract_y
_atom_site_fract_z
O1	O	0.166345	1.187883	-0.079167
O2	O	0.186223	0.927598	-0.079167
O3	O	-0.009382	1.063663	-0.079161
O4	O	0.361950	1.051818	-0.079173
O5	O	-0.009393	1.063646	0.079160
O6	O	0.186212	0.927581	0.079154
O7	O	0.166333	1.187866	0.079155
Zn8	Zn	0.176271	1.057721	0.104291
Zn9	Zn	0.176286	1.057743	-0.104304
O10	O	0.361938	1.051801	0.079149
C11	C	0.185324	0.894260	-0.000007
C12	C	0.182646	0.794949	-0.000007
C13	C	0.287341	0.357262	-0.000020
C14	C	0.289847	0.450577	-0.000024
C15	C	0.174922	0.507142	-0.000016
C16	C	0.057482	0.470390	-0.000014
C17	C	0.054978	0.377077	-0.000016
C18	C	0.062711	0.664882	-0.000006
C19	C	0.065216	0.758202	-0.000001
C20	C	0.297581	0.738382	-0.000013
C21	C	0.295076	0.645069	-0.000016
C22	C	0.177636	0.608323	-0.000012
C23	C	-0.056909	1.062760	-0.000001
C24	C	-0.198508	1.060083	-0.000003
C25	C	-0.265655	0.973509	-0.000010
C26	C	-0.358252	1.014398	0.078051
C27	C	-0.358215	1.014435	-0.078042
C28	C	-0.289240	1.101008	0.078122
C29	C	-0.289194	1.101032	-0.078040
C30	C	-0.381764	1.141984	0.000039
C31	C	0.409466	1.052704	-0.000014
C32	C	0.551064	1.055381	-0.000018
C33	C	0.167233	1.221204	-0.000008
C34	C	0.169911	1.320515	-0.000014
N35	N	0.176260	1.057713	0.246652
N36	N	0.176287	1.057758	-0.246665
C37	C	0.089682	1.117982	0.296473
C38	C	0.089681	1.117988	0.396130
C39	C	0.176265	1.057728	0.445965
C40	C	0.262848	0.997453	0.396138
C41	C	0.262841	0.997443	0.296482
C42	C	0.262857	0.997479	0.603852
C43	C	0.262865	0.997489	0.703515
C44	C	0.089697	1.118023	0.703500
C45	C	0.089690	1.118013	0.603845
C46	C	0.176274	1.057739	0.554024
H47	H	-0.028367	0.804256	-0.000003
O48	O	-0.398777	0.965870	0.165471
H49	H	-0.504434	0.964892	0.165016
H50	H	-0.032920	0.634967	-0.000007
O51	O	-0.071678	0.337435	-0.000001
H52	H	-0.151173	0.392444	0.000016
O53	O	-0.198785	0.879229	0.000087
H54	H	-0.226252	0.843501	0.064986
O55	O	-0.003687	1.183044	0.757224
H56	H	-0.103154	1.171027	0.738103
O57	O	0.356221	0.932426	0.242756
H58	H	0.302403	0.888603	0.197386
O59	O	0.356246	0.932483	0.757256
H60	H	0.418356	0.970526	0.802635
H61	H	-0.258832	1.137600	0.144190
O62	O	-0.448336	1.236349	0.000091
H63	H	-0.420719	1.272051	0.064951
H64	H	-0.258564	1.137640	-0.144038
O65	O	-0.398691	0.965913	-0.165463
H66	H	-0.351722	0.896000	-0.165291
H67	H	0.388659	0.599015	-0.000016
H68	H	0.019180	1.167055	0.255903
H69	H	0.019182	1.167062	0.436694
H70	H	0.333359	0.948394	0.563291
O71	O	-0.003698	1.183002	0.550087
H72	H	-0.063915	1.224909	0.601471
O73	O	0.356249	0.932463	0.449882
H74	H	0.302462	0.888656	0.495313
H75	H	0.380927	0.311212	-0.000019
O76	O	-0.066474	0.531399	0.000005
H77	H	-0.070891	0.574406	-0.064515
H78	H	0.385470	0.480491	-0.000037
H79	H	0.393205	0.768305	-0.000016
