data_functionalizedCrystal
_audit_creation_method	'MofGen! by Chris Wilmer'
_symmetry_space_group_name_H-M	'P1'
_symmetry_Int_Tables_number	1
_symmetry_cell_setting	triclinic
loop_
_symmetry_equiv_pos_as_xyz
  x,y,z
_cell_length_a	14.519731
_cell_length_b	14.519709
_cell_length_c	8.140239
_cell_angle_alpha	90.002100
_cell_angle_beta	89.997705
_cell_angle_gamma	96.315502
loop_
_atom_site_label
_atom_site_type_symbol
_atom_site_fract_x
_atom_site_fract_y
_atom_site_fract_z
O1	O	-0.120888	1.223876	-0.136379
O2	O	0.129112	1.473876	0.113621
O3	O	0.379112	1.723876	0.363621
O4	O	0.629112	1.973876	0.613621
O5	O	-0.135124	0.955400	-0.136427
O6	O	0.114876	1.205400	0.113573
O7	O	0.364876	1.455400	0.363573
O8	O	0.614876	1.705400	0.613573
O9	O	0.006231	1.096746	-0.136414
O10	O	0.256231	1.346746	0.113586
O11	O	0.506231	1.596746	0.363586
O12	O	0.756231	1.846746	0.613586
O13	O	-0.262243	1.082530	-0.136392
O14	O	-0.012243	1.332530	0.113608
O15	O	0.237757	1.582530	0.363608
O16	O	0.487757	1.832530	0.613608
O17	O	0.006231	1.096736	0.136814
O18	O	0.256231	1.346736	0.386814
O19	O	0.506231	1.596736	0.636814
O20	O	0.756231	1.846736	0.886814
O21	O	-0.135124	0.955390	0.136800
O22	O	0.114876	1.205390	0.386800
O23	O	0.364876	1.455390	0.636800
O24	O	0.614876	1.705390	0.886800
O25	O	-0.120888	1.223866	0.136848
O26	O	0.129112	1.473866	0.386848
O27	O	0.379112	1.723866	0.636848
O28	O	0.629112	1.973866	0.886848
Zn29	Zn	-0.128006	1.089626	0.180205
Zn30	Zn	0.121994	1.339626	0.430205
Zn31	Zn	0.371994	1.589626	0.680205
Zn32	Zn	0.621994	1.839626	0.930205
Zn33	Zn	-0.128006	1.089639	-0.179784
Zn34	Zn	0.121994	1.339639	0.070216
Zn35	Zn	0.371994	1.589639	0.320216
Zn36	Zn	0.621994	1.839639	0.570216
O37	O	-0.262243	1.082520	0.136835
O38	O	-0.012243	1.332520	0.386835
O39	O	0.237757	1.582520	0.636835
O40	O	0.487757	1.832520	0.886835
C41	C	-0.134461	0.921035	0.000180
C42	C	0.115539	1.171035	0.250180
C43	C	0.365539	1.421035	0.500180
C44	C	0.615539	1.671035	0.750180
C45	C	-0.132473	0.818654	0.000161
C46	C	0.117527	1.068654	0.250161
C47	C	0.367527	1.318654	0.500161
C48	C	0.617527	1.568654	0.750161
C49	C	-0.125153	0.443757	0.000235
C50	C	0.124847	0.693757	0.250235
C51	C	0.374847	0.943757	0.500235
C52	C	0.624847	1.193757	0.750235
C53	C	-0.127186	0.548065	0.000214
C54	C	0.122814	0.798065	0.250214
C55	C	0.372814	1.048065	0.500214
C56	C	0.622814	1.298065	0.750214
C57	C	-0.128813	0.631202	0.000196
C58	C	0.121187	0.881202	0.250196
C59	C	0.371187	1.131202	0.500196
C60	C	0.621187	1.381202	0.750196
C61	C	-0.130846	0.735517	0.000178
C62	C	0.119154	0.985517	0.250178
C63	C	0.369154	1.235517	0.500178
C64	C	0.619154	1.485517	0.750178
C65	C	-0.296603	1.083191	0.000224
C66	C	-0.046603	1.333191	0.250224
C67	C	0.203397	1.583191	0.500224
C68	C	0.453397	1.833191	0.750224
C69	C	-0.398983	1.085187	0.000233
C70	C	-0.148983	1.335187	0.250233
C71	C	0.101017	1.585187	0.500233
C72	C	0.351017	1.835187	0.750233
C73	C	-0.482127	1.086809	0.000227
C74	C	-0.232127	1.336809	0.250227
C75	C	0.017873	1.586809	0.500227
C76	C	0.267873	1.836809	0.750227
C77	C	-0.586436	1.088835	0.000212
C78	C	-0.336436	1.338835	0.250212
C79	C	-0.086436	1.588835	0.500212
C80	C	0.163564	1.838835	0.750212
C81	C	-0.669575	1.090444	0.000199
C82	C	-0.419575	1.340444	0.250199
C83	C	-0.169575	1.590444	0.500199
C84	C	0.080425	1.840444	0.750199
C85	C	-0.773890	1.092470	0.000186
C86	C	-0.523890	1.342470	0.250186
C87	C	-0.273890	1.592470	0.500186
C88	C	-0.023890	1.842470	0.750186
C89	C	0.040591	1.096075	0.000193
C90	C	0.290591	1.346075	0.250193
C91	C	0.540591	1.596075	0.500193
C92	C	0.790591	1.846075	0.750193
C93	C	0.142971	1.094079	0.000173
C94	C	0.392971	1.344079	0.250173
C95	C	0.642971	1.594079	0.500173
C96	C	0.892971	1.844079	0.750173
C97	C	-0.121551	1.258230	0.000237
C98	C	0.128449	1.508230	0.250237
C99	C	0.378449	1.758230	0.500237
C100	C	0.628449	2.008230	0.750237
C101	C	-0.123539	1.360612	0.000246
C102	C	0.126461	1.610612	0.250246
C103	C	0.376461	1.860612	0.500246
C104	C	0.626461	2.110612	0.750246
N105	N	-0.128005	1.089624	0.425887
N106	N	0.121995	1.339624	0.675887
N107	N	0.371995	1.589624	0.925887
N108	N	0.621995	1.839624	1.175887
N109	N	-0.128004	1.089641	0.574534
N110	N	0.121996	1.339641	0.824534
N111	N	0.371996	1.589641	1.074534
N112	N	0.621996	1.839641	1.324534
