data_functionalizedCrystal
_audit_creation_method	'MofGen! by Chris Wilmer'
_symmetry_space_group_name_H-M	'P1'
_symmetry_Int_Tables_number	1
_symmetry_cell_setting	triclinic
loop_
_symmetry_equiv_pos_as_xyz
  x,y,z
_cell_length_a	14.971486
_cell_length_b	16.992695
_cell_length_c	14.048226
_cell_angle_alpha	89.993436
_cell_angle_beta	89.998499
_cell_angle_gamma	87.141176
loop_
_atom_site_label
_atom_site_type_symbol
_atom_site_fract_x
_atom_site_fract_y
_atom_site_fract_z
O1	O	1.194127	0.102190	-0.079052
O2	O	0.934587	0.114427	-0.079078
O3	O	1.063316	-0.005835	-0.079057
O4	O	1.065397	0.222452	-0.079072
O5	O	1.063299	-0.005842	0.079264
O6	O	0.934570	0.114420	0.079244
O7	O	1.194110	0.102183	0.079270
Zn8	Zn	1.064337	0.108300	0.104394
Zn9	Zn	1.064359	0.108310	-0.104201
O10	O	1.065380	0.222445	0.079249
C11	C	0.901215	0.113876	0.000080
C12	C	0.801803	0.112236	0.000070
C13	C	1.060631	-0.035054	0.000103
C14	C	1.052644	-0.122105	0.000102
C15	C	0.749541	0.182887	0.000067
C16	C	0.656133	0.181341	0.000081
C17	C	0.614988	0.109144	0.000092
C18	C	0.667257	0.038488	0.000098
C19	C	0.760663	0.040034	0.000091
C20	C	0.472568	0.035269	0.000111
C21	C	0.379155	0.033723	0.000117
C22	C	0.368038	0.176577	0.000102
C23	C	0.461445	0.178123	0.000094
C24	C	0.513707	0.107466	0.000099
C25	C	1.129708	-0.172274	0.000111
C26	C	1.122198	-0.254067	0.000101
C27	C	1.037623	-0.285691	0.000089
C28	C	0.960553	-0.235517	0.000078
C29	C	0.968064	-0.153724	0.000081
C30	C	1.006493	-0.529318	0.000073
C31	C	0.998988	-0.611117	0.000073
C32	C	1.160634	-0.629662	0.000094
C33	C	1.168138	-0.547867	0.000103
C34	C	1.091068	-0.497700	0.000087
N35	N	1.029945	-0.369297	0.000082
N36	N	1.098747	-0.414095	0.000087
C37	C	1.227482	0.102733	0.000110
C38	C	1.326894	0.104373	0.000114
C39	C	1.068066	0.251664	0.000087
C40	C	1.076053	0.338715	0.000082
N41	N	1.064328	0.108293	0.246754
N42	N	1.064375	0.108310	-0.246562
C43	C	1.121350	0.055063	0.296581
C44	C	1.121356	0.055063	0.396239
C45	C	1.064344	0.108297	0.446068
C46	C	1.007316	0.161529	0.396234
C47	C	1.007306	0.161526	0.296578
C48	C	1.007342	0.161535	0.603948
C49	C	1.007353	0.161540	0.703611
C50	C	1.121393	0.055072	0.703609
C51	C	1.121383	0.055068	0.603953
C52	C	1.064355	0.108302	0.554126
H53	H	0.783034	0.241679	0.000057
H54	H	1.167826	0.011728	0.744184
H55	H	0.891690	-0.261271	0.000062
Br56	Br	0.929941	0.233779	0.536328
H57	H	0.960891	0.204871	0.436810
H58	H	0.960927	0.204888	0.744176
H59	H	1.223380	-0.670517	0.000106
H60	H	0.960871	0.204870	0.256010
H61	H	1.167811	0.011725	0.563383
H62	H	0.613586	0.238873	0.000077
H63	H	1.167780	0.011717	0.256017
H64	H	0.905310	-0.112878	0.000073
Br65	Br	0.884200	-0.654034	0.000067
H66	H	1.184952	-0.294912	0.000110
Br67	Br	0.517284	0.276106	0.000065
Br68	Br	0.297113	0.272468	0.000095
H69	H	1.167788	0.011718	0.436808
H70	H	0.345658	-0.025067	0.000127
Br71	Br	1.282923	-0.504955	0.000088
Br72	Br	0.831591	-0.055853	0.000103
Br73	Br	0.543494	-0.060623	0.000122
Br74	Br	0.611418	-0.059496	0.000122
H75	H	0.943737	-0.488481	0.000060
Br76	Br	1.244494	-0.129364	0.000140
