data_functionalizedCrystal
_audit_creation_method	'MofGen! by Chris Wilmer'
_symmetry_space_group_name_H-M	'P1'
_symmetry_Int_Tables_number	1
_symmetry_cell_setting	triclinic
loop_
_symmetry_equiv_pos_as_xyz
  x,y,z
_cell_length_a	13.897449
_cell_length_b	16.120484
_cell_length_c	16.120297
_cell_angle_alpha	95.614431
_cell_angle_beta	92.879352
_cell_angle_gamma	92.926780
loop_
_atom_site_label
_atom_site_type_symbol
_atom_site_fract_x
_atom_site_fract_y
_atom_site_fract_z
Zn1	Zn	1.424987	-0.356719	-0.489429
Zn2	Zn	1.758320	-0.023386	-0.156096
Zn3	Zn	2.091654	0.309947	0.177237
Zn4	Zn	1.424865	-0.489409	-0.356740
Zn5	Zn	1.758199	-0.156076	-0.023407
Zn6	Zn	2.091532	0.177258	0.309927
Zn7	Zn	1.272296	-0.349658	-0.349678
Zn8	Zn	1.605629	-0.016325	-0.016345
Zn9	Zn	1.938962	0.317008	0.316989
Zn10	Zn	1.255025	-0.496454	-0.496465
Zn11	Zn	1.588359	-0.163120	-0.163132
Zn12	Zn	1.921692	0.170213	0.170201
O13	O	1.344293	-0.423060	-0.423078
O14	O	1.677627	-0.089727	-0.089745
O15	O	2.010960	0.243607	0.243588
O16	O	1.559951	-0.374328	-0.471839
O17	O	1.893285	-0.040994	-0.138505
O18	O	2.226618	0.292339	0.194828
O19	O	1.411804	-0.464968	-0.238841
O20	O	1.745137	-0.131634	0.094492
O21	O	2.078470	0.201699	0.427825
O22	O	1.299829	-0.233630	-0.362316
O23	O	1.633162	0.099704	-0.028983
O24	O	1.966496	0.433037	0.304350
O25	O	1.559862	-0.471814	-0.374352
O26	O	1.893195	-0.138481	-0.041019
O27	O	2.226529	0.194852	0.292314
O28	O	1.412011	-0.238817	-0.464991
O29	O	1.745344	0.094516	-0.131658
O30	O	2.078677	0.427849	0.201675
O31	O	1.299711	-0.362293	-0.233653
O32	O	1.633045	-0.028960	0.099680
O33	O	1.966378	0.304373	0.433014
O34	O	1.135024	-0.369124	-0.369139
O35	O	1.468357	-0.035791	-0.035806
O36	O	1.801691	0.297542	0.297528
O37	O	1.270394	-0.483821	-0.612494
O38	O	1.603727	-0.150487	-0.279161
O39	O	1.937061	0.182846	0.054173
O40	O	1.122336	-0.476974	-0.476983
O41	O	1.455669	-0.143641	-0.143650
O42	O	1.789002	0.189693	0.189684
O43	O	1.395264	-0.381159	-0.607325
O44	O	1.728598	-0.047825	-0.273991
O45	O	2.061931	0.285508	0.059342
O46	O	1.395057	-0.607309	-0.381175
O47	O	1.728390	-0.273976	-0.047841
O48	O	2.061724	0.059358	0.285492
O49	O	1.270276	-0.612484	-0.483830
O50	O	1.603610	-0.279151	-0.150497
O51	O	1.936943	0.054182	0.182836
C52	C	1.093681	-0.423048	-0.423059
C53	C	1.427014	-0.089715	-0.089725
C54	C	1.760348	0.243619	0.243608
C55	C	0.986465	-0.423064	-0.423071
C56	C	1.319799	-0.089731	-0.089738
C57	C	1.653132	0.243603	0.243596
C58	C	0.790169	-0.423068	-0.423093
C59	C	1.123502	-0.089735	-0.089760
C60	C	1.456835	0.243599	0.243574
C61	C	0.899402	-0.423063	-0.423078
C62	C	1.232736	-0.089730	-0.089745
C63	C	1.566069	0.243604	0.243588
C64	C	1.330804	-0.640225	-0.434051
C65	C	1.664138	-0.306892	-0.100717
C66	C	1.997471	0.026441	0.232616
C67	C	1.325120	-0.733131	-0.438773
C68	C	1.658454	-0.399798	-0.105439
C69	C	1.991787	-0.066464	0.227894
C70	C	1.314747	-0.903231	-0.447411
C71	C	1.648081	-0.569898	-0.114077
C72	C	1.981414	-0.236565	0.219256
C73	C	1.374011	-0.942049	-0.398759
C74	C	1.707345	-0.608716	-0.065426
C75	C	2.040678	-0.275382	0.267907
C76	C	1.368240	-1.036699	-0.403566
C77	C	1.701573	-0.703365	-0.070232
C78	C	2.034906	-0.370032	0.263101
C79	C	1.320518	-0.808573	-0.442606
C80	C	1.653851	-0.475240	-0.109272
C81	C	1.987184	-0.141907	0.224061
C82	C	1.595884	-0.423073	-0.423098
C83	C	1.929218	-0.089740	-0.089765
C84	C	2.262551	0.243594	0.243568
C85	C	1.703097	-0.423078	-0.423107
C86	C	2.036431	-0.089745	-0.089774
C87	C	2.369764	0.243588	0.243560
C88	C	1.330916	-0.434063	-0.641084
C89	C	1.664250	-0.100730	-0.307751
C90	C	1.997583	0.232604	0.025582
C91	C	1.325216	-0.438752	-0.733985
C92	C	1.658549	-0.105419	-0.400652
C93	C	1.991882	0.227915	-0.067319
C94	C	1.357860	-0.205048	-0.412081
C95	C	1.691193	0.128286	-0.078748
C96	C	2.024527	0.461619	0.254585
C97	C	1.363641	-0.112144	-0.407395
C98	C	1.696975	0.221190	-0.074062
C99	C	2.030308	0.554523	0.259272
C100	C	1.314774	-0.447294	-0.904076
C101	C	1.648107	-0.113961	-0.570742
C102	C	1.981441	0.219373	-0.237409
C103	C	1.374018	-0.398576	-0.942920
C104	C	1.707352	-0.065242	-0.609586
C105	C	2.040685	0.268091	-0.276253
C106	C	1.368208	-0.403329	-1.037564
C107	C	1.701542	-0.069995	-0.704230
C108	C	2.034875	0.263338	-0.370897
C109	C	1.320583	-0.442542	-0.809423
C110	C	1.653916	-0.109209	-0.476090
C111	C	1.987249	0.224124	-0.142757
C112	C	1.357678	-0.412040	-0.205917
C113	C	1.691011	-0.078706	0.127416
C114	C	2.024344	0.254627	0.460749
C115	C	1.363579	-0.407115	-0.113005
C116	C	1.696913	-0.073782	0.220329
C117	C	2.030246	0.259551	0.553662
H118	H	1.259679	-0.941080	-0.492668
H119	H	1.593012	-0.607747	-0.159335
H120	H	1.926346	-0.274413	0.173999
C121	C	1.447614	-0.338258	-0.892592
C122	C	1.780947	-0.004925	-0.559259
C123	C	2.114281	0.328408	-0.225925
C124	C	1.540645	-0.357493	-0.914700
C125	C	1.873978	-0.024159	-0.581367
C126	C	2.207312	0.309174	-0.248034
C127	C	1.608461	-0.301945	-0.868357
C128	C	1.941794	0.031389	-0.535024
C129	C	2.275127	0.364722	-0.201690
H130	H	1.441934	-0.343000	-0.834748
H131	H	1.775268	-0.009667	-0.501414
H132	H	2.108601	0.323667	-0.168081
H133	H	1.436197	-0.282783	-0.904016
H134	H	1.769530	0.050550	-0.570683
H135	H	2.102864	0.383883	-0.237350
H136	H	1.552058	-0.412954	-0.903270
H137	H	1.885392	-0.079620	-0.569937
H138	H	2.218725	0.253713	-0.236603
H139	H	1.546356	-0.352746	-0.972537
H140	H	1.879689	-0.019412	-0.639203
H141	H	2.213023	0.313921	-0.305870
H142	H	1.597044	-0.246470	-0.879781
H143	H	1.930377	0.086864	-0.546448
H144	H	2.263710	0.420197	-0.213114
H145	H	1.602772	-0.306691	-0.810515
H146	H	1.936105	0.026643	-0.477182
H147	H	2.269439	0.359976	-0.143848
H148	H	1.671589	-0.314983	-0.883356
H149	H	2.004922	0.018351	-0.550023
H150	H	2.338256	0.351684	-0.216690
C151	C	1.447340	-0.891436	-0.338423
C152	C	1.780673	-0.558103	-0.005089
C153	C	2.114006	-0.224769	0.328244
C154	C	1.438532	-0.806258	-0.345565
C155	C	1.771866	-0.472925	-0.012231
C156	C	2.105199	-0.139592	0.321102
C157	C	1.506050	-0.759605	-0.289988
C158	C	1.839384	-0.426272	0.043346
C159	C	2.172717	-0.092938	0.376679
H160	H	1.510589	-0.906147	-0.351346
H161	H	1.843922	-0.572814	-0.018012
H162	H	2.177255	-0.239480	0.315321
H163	H	1.435852	-0.902849	-0.282947
H164	H	1.769185	-0.569515	0.050386
H165	H	2.102519	-0.236182	0.383719
H166	H	1.450027	-0.794851	-0.401028
H167	H	1.783360	-0.461517	-0.067694
H168	H	2.116694	-0.128184	0.265639
H169	H	1.375298	-0.791522	-0.332635
H170	H	1.708632	-0.458189	0.000699
H171	H	2.041965	-0.124855	0.334032
H172	H	1.494563	-0.771018	-0.234512
H173	H	1.827896	-0.437684	0.098821
H174	H	2.161229	-0.104351	0.432155
H175	H	1.569295	-0.774323	-0.302915
H176	H	1.902628	-0.440990	0.030418
H177	H	2.235961	-0.107656	0.363751
H178	H	1.500078	-0.701807	-0.294820
H179	H	1.833411	-0.368474	0.038513
H180	H	2.166744	-0.035140	0.371846
C181	C	1.241432	-0.507646	-0.954653
C182	C	1.574765	-0.174313	-0.621319
C183	C	1.908099	0.159021	-0.287986
C184	C	1.250210	-0.500439	-1.039830
C185	C	1.583543	-0.167106	-0.706497
C186	C	1.916876	0.166227	-0.373163
C187	C	1.182676	-0.556031	-1.086457
C188	C	1.516009	-0.222698	-0.753124
C189	C	1.849343	0.110635	-0.419791
H190	H	1.178189	-0.494774	-0.939873
H191	H	1.511523	-0.161440	-0.606540
H192	H	1.844856	0.171893	-0.273207
H193	H	1.252923	-0.563125	-0.943291
H194	H	1.586256	-0.229792	-0.609957
H195	H	1.919590	0.103541	-0.276624
H196	H	1.238711	-0.444973	-1.051187
H197	H	1.572045	-0.111639	-0.717854
H198	H	1.905378	0.221694	-0.384520
H199	H	1.313437	-0.513319	-1.054634
H200	H	1.646771	-0.179986	-0.721301
H201	H	1.980104	0.153348	-0.387968
H202	H	1.194167	-0.611510	-1.075095
H203	H	1.527500	-0.278177	-0.741762
H204	H	1.860834	0.055156	-0.408429
H205	H	1.119438	-0.543154	-1.071671
H206	H	1.452772	-0.209821	-0.738338
H207	H	1.786105	0.123513	-0.405005
H208	H	1.188629	-0.551154	-1.144255
H209	H	1.521962	-0.217821	-0.810922
H210	H	1.855295	0.115512	-0.477589
