data_functionalizedCrystal
_audit_creation_method	'MofGen! by Chris Wilmer'
_symmetry_space_group_name_H-M	'P1'
_symmetry_Int_Tables_number	1
_symmetry_cell_setting	triclinic
loop_
_symmetry_equiv_pos_as_xyz
  x,y,z
_cell_length_a	9.065218
_cell_length_b	13.339070
_cell_length_c	7.540329
_cell_angle_alpha	89.998761
_cell_angle_beta	89.996962
_cell_angle_gamma	100.322590
loop_
_atom_site_label
_atom_site_type_symbol
_atom_site_fract_x
_atom_site_fract_y
_atom_site_fract_z
O1	O	2.018453	0.148888	-0.147480
O2	O	1.593930	0.161101	-0.147482
O3	O	1.757470	0.007285	-0.147476
O4	O	1.854913	0.302705	-0.147487
O5	O	1.757455	0.007283	0.147489
O6	O	1.593915	0.161099	0.147483
O7	O	2.018438	0.148886	0.147485
Cu8	Cu	1.806176	0.154992	0.174416
Cu9	Cu	1.806193	0.154995	-0.174414
O10	O	1.854898	0.302702	0.147479
C11	C	1.538478	0.159926	-0.000000
C12	C	1.373267	0.156417	-0.000001
C13	C	1.741002	-0.030556	0.000004
C14	C	1.691939	-0.143308	-0.000004
C15	C	2.073430	-0.504605	-0.000001
C16	C	2.119533	-0.398670	0.000016
C17	C	2.012638	-0.334824	0.000010
C18	C	1.859634	-0.376924	-0.000011
C19	C	1.813527	-0.482870	-0.000014
C20	C	1.752734	-0.313089	-0.000003
C21	C	1.599730	-0.355188	-0.000024
C22	C	1.553631	-0.461124	-0.000028
C23	C	1.660525	-0.524969	-0.000022
C24	C	1.798841	-0.207143	0.000000
C25	C	1.538938	-0.185408	-0.000012
C26	C	1.492836	-0.291343	-0.000029
C27	C	2.073890	0.150061	-0.000002
C28	C	2.239101	0.153570	-0.000012
C29	C	1.871366	0.340544	-0.000005
C30	C	1.920429	0.453295	-0.000010
N31	N	1.806174	0.154990	0.419765
N32	N	1.806202	0.154989	-0.419763
H33	H	2.050184	-0.248568	0.000024
O34	O	2.177312	-0.566579	0.000320
C35	C	2.385382	-0.617540	0.153093
C36	C	2.267781	-0.547313	0.152968
H37	H	2.458577	-0.601973	0.276476
H38	H	2.326226	-0.700507	0.153206
H39	H	2.458474	-0.602078	0.029597
H40	H	2.194654	-0.562683	0.276443
H41	H	2.327031	-0.464368	0.152763
H42	H	1.622996	-0.611232	-0.000043
H43	H	1.451895	-0.133424	-0.000008
O44	O	1.405047	-0.502138	-0.000276
C45	C	1.202156	-0.609072	-0.153163
C46	C	1.370456	-0.562715	-0.153079
H47	H	1.174130	-0.658041	-0.276710
H48	H	1.174007	-0.658197	-0.029808
H49	H	1.133710	-0.545227	-0.153084
H50	H	1.439016	-0.626493	-0.153221
H51	H	1.398486	-0.513564	-0.276424
H52	H	2.244108	-0.364400	0.000036
H53	H	1.368256	-0.325636	-0.000046
H54	H	1.923418	-0.172877	0.000018
