data_functionalizedCrystal
_audit_creation_method	'MofGen! by Chris Wilmer'
_symmetry_space_group_name_H-M	'P1'
_symmetry_Int_Tables_number	1
_symmetry_cell_setting	triclinic
loop_
_symmetry_equiv_pos_as_xyz
  x,y,z
_cell_length_a	14.446369
_cell_length_b	17.052862
_cell_length_c	17.052862
_cell_angle_alpha	61.493325
_cell_angle_beta	89.997576
_cell_angle_gamma	70.264992
loop_
_atom_site_label
_atom_site_type_symbol
_atom_site_fract_x
_atom_site_fract_y
_atom_site_fract_z
Zr1	Zr	1.072809	0.816721	-0.200512
O2	O	0.970585	0.944612	-0.328635
O3	O	1.081640	0.666000	-0.146321
O4	O	1.131241	0.783805	-0.307136
O5	O	0.907459	0.860734	-0.057932
O6	O	1.283572	0.783810	-0.307143
O7	O	0.920983	0.826807	-0.167820
O8	O	1.194844	0.573079	-0.019474
O9	O	0.996187	1.071465	-0.345600
O10	O	1.226281	0.736453	-0.141234
O11	O	1.102505	0.761768	-0.059220
O12	O	1.160904	0.900468	-0.248559
O13	O	1.037128	0.925783	-0.166545
Zr14	Zr	1.294190	0.870838	-0.025264
Zr15	Zr	1.315759	0.816729	-0.200523
Zr16	Zr	1.051239	0.870830	-0.025253
Zr17	Zr	1.113642	1.019037	-0.227570
Zr18	Zr	1.253357	0.668522	0.001794
O19	O	1.285359	1.021559	-0.079454
O20	O	1.316029	0.944624	-0.328650
O21	O	0.939915	1.021548	-0.079439
O22	O	1.396414	0.742947	0.102859
O23	O	1.427084	0.666011	-0.146337
O24	O	1.050970	0.742935	0.102875
O25	O	1.459540	0.826825	-0.167844
O26	O	1.235758	0.903754	0.081361
O27	O	1.083427	0.903749	0.081368
O28	O	1.446016	0.860752	-0.057956
O29	O	1.189300	1.071471	-0.345609
O30	O	1.177699	0.616088	0.119833
O31	O	1.370812	0.616094	0.119825
O32	O	1.387957	0.573085	-0.019483
O33	O	0.979042	1.114474	-0.206292
O34	O	1.172155	1.114480	-0.206301
O35	O	1.206095	0.787091	0.022783
O36	O	1.329870	0.761776	-0.059230
O37	O	1.264494	0.925791	-0.166556
O38	O	1.140718	0.951106	-0.084542
C39	C	1.132424	0.590714	-0.079043
C40	C	1.115090	0.504825	-0.067556
C41	C	1.324664	0.209868	-0.206430
C42	C	1.340949	0.290567	-0.217229
C43	C	1.284486	0.344135	-0.179811
C44	C	1.211735	0.316997	-0.131594
C45	C	1.195443	0.236295	-0.120801
C46	C	1.155264	0.370562	-0.094182
C47	C	1.082513	0.343424	-0.045964
C48	C	1.066224	0.262728	-0.035172
C49	C	1.122687	0.209160	-0.072590
C50	C	1.171556	0.451264	-0.104975
C51	C	1.042334	0.477691	-0.019345
C52	C	1.026050	0.396992	-0.008547
C53	C	0.879606	0.843769	-0.112874
C54	C	0.776467	0.843766	-0.112870
C55	C	0.671054	0.740251	-0.045449
C56	C	0.778330	0.740262	-0.045144
C57	C	0.709235	0.914726	-0.083074
C58	C	0.602177	0.914083	-0.082601
C59	C	0.616775	0.877221	-0.210292
C60	C	0.724974	0.875016	-0.209845
C61	C	1.487393	0.843790	-0.112901
C62	C	1.590532	0.843793	-0.112906
C63	C	1.210480	0.776098	-0.332110
C64	C	1.219637	0.753127	-0.406513
C65	C	1.234575	1.096845	-0.146733
C66	C	1.251909	1.182734	-0.158219
C67	C	1.108930	1.030842	-0.840337
C68	C	1.100321	1.052427	-0.770434
C69	C	1.130150	0.977604	-0.679451
C70	C	1.168588	0.881192	-0.658376
C71	C	1.177191	0.859605	-0.728285
C72	C	1.198410	0.806367	-0.567400
C73	C	1.236849	0.709955	-0.546325
C74	C	1.245451	0.688372	-0.616228
C75	C	1.215623	0.763195	-0.707211
C76	C	1.189808	0.827954	-0.497490
C77	C	1.258068	0.656717	-0.385439
C78	C	1.266678	0.635132	-0.455341
C79	C	1.156519	0.911461	0.106335
C80	C	1.147362	0.934432	0.180737
C81	C	1.436318	0.590724	-0.079056
C82	C	1.522122	0.504839	-0.067574
C83	C	1.105443	0.658395	0.140180
C84	C	1.078952	0.595478	0.226069
C85	C	1.409337	0.658406	0.140166
C86	C	1.485984	0.595491	0.226051
C87	C	0.957662	1.029153	-0.365942
C88	C	0.881015	1.092068	-0.451826
C89	C	0.930681	1.096835	-0.146719
C90	C	0.844877	1.182720	-0.158201
C91	C	1.261555	1.029164	-0.365955
C92	C	1.288047	1.092081	-0.451844
C93	C	1.508345	0.451286	-0.104994
C94	C	1.588962	0.370594	-0.094224
C95	C	1.683354	0.343453	-0.046027
C96	C	1.697130	0.397014	-0.008606
C97	C	1.616516	0.477708	-0.019383
C98	C	1.120583	0.579151	0.309215
C99	C	1.095689	0.520047	0.389922
C100	C	1.029168	0.477264	0.387481
C101	C	0.987533	0.493596	0.304326
C102	C	1.012422	0.552705	0.223620
C103	C	1.586599	0.552732	0.223573
C104	C	1.658629	0.493626	0.304262
C105	C	1.630042	0.477276	0.387429
C106	C	1.529418	0.520043	0.389904
C107	C	1.457391	0.579153	0.309215
C108	C	0.780402	1.134837	-0.449349
C109	C	0.708377	1.193967	-0.530042
C110	C	0.736964	1.210322	-0.613210
C111	C	0.837587	1.167550	-0.615684
C112	C	0.909612	1.108426	-0.534993
C113	C	0.858657	1.236279	-0.120790
C114	C	0.778047	1.316987	-0.131583
C115	C	0.683656	1.344130	-0.179782
C116	C	0.669878	1.290566	-0.217199
C117	C	0.750489	1.209864	-0.206411
C118	C	1.354570	1.134847	-0.449374
C119	C	1.379481	1.193956	-0.530067
C120	C	1.337862	1.210304	-0.613231
C121	C	1.271335	1.167531	-0.615699
C122	C	1.246431	1.108418	-0.535006
H123	H	0.996355	0.521308	0.011120
C124	C	0.657733	1.275353	-0.701964
H125	H	0.689163	1.278976	-0.751855
H126	H	0.608554	1.248897	-0.698419
H127	H	0.626609	1.338315	-0.710377
H128	H	0.966814	0.374884	0.030711
H129	H	0.860853	1.180874	-0.683409
H130	H	0.561061	0.953309	-0.260597
C131	C	1.020280	1.061372	-0.537727
H132	H	1.026979	1.079576	-0.598817
H133	H	1.060104	1.082454	-0.514007
H134	H	1.042025	0.993049	-0.502058
H135	H	1.158508	0.906454	-0.514659
C136	C	1.573787	0.311683	-0.135378
H137	H	1.506019	0.339398	-0.165609
H138	H	1.616763	0.312404	-0.177670
H139	H	1.589199	0.246899	-0.088235
H140	H	0.667026	0.685600	-0.064355
H141	H	1.084642	1.091752	-0.914416
C142	C	1.225074	0.739448	-0.784103
H143	H	1.252234	0.671314	-0.758524
H144	H	1.160724	0.766188	-0.820601
H145	H	1.268110	0.766183	-0.820617
C146	C	1.001799	0.412242	0.476260
H147	H	0.956214	0.389101	0.462904
H148	H	1.060809	0.359051	0.516301
H149	H	0.971473	0.448471	0.504341
H150	H	1.433649	1.228778	-0.528041
C151	C	0.793216	1.375886	-0.090410
H152	H	0.860973	1.348146	-0.060147
H153	H	0.777820	1.440667	-0.137538
H154	H	0.750221	1.375161	-0.048127
C155	C	1.800960	0.367144	0.044416
H156	H	1.846987	0.311408	0.045479
H157	H	1.823775	0.418539	0.015542
H158	H	1.796176	0.353032	0.104953
C159	C	1.141505	0.502083	0.481382
H160	H	1.184698	0.536017	0.471272
H161	H	1.089390	0.524285	0.508673
H162	H	1.178711	0.434860	0.520621
C163	C	1.120726	1.001346	-0.602560
H164	H	1.093582	1.069481	-0.628141
H165	H	1.077712	0.974609	-0.566023
H166	H	1.185095	0.974611	-0.566085
C167	C	1.308937	0.529084	-0.432164
H168	H	1.325473	0.487610	-0.367969
H169	H	1.260017	0.517114	-0.457106
H170	H	1.367405	0.517102	-0.457108
C171	C	0.648859	0.704520	0.051365
H172	H	0.590735	0.752431	0.050855
H173	H	0.637822	0.646532	0.071775
H174	H	0.704324	0.692572	0.091191
C175	C	1.365258	1.275331	-0.701989
H176	H	1.330952	1.278942	-0.751877
H177	H	1.346202	1.338289	-0.710404
H178	H	1.435531	1.248865	-0.698446
C179	C	0.914375	0.446519	0.301654
H180	H	0.905533	0.408969	0.361633
H181	H	0.851563	0.495465	0.264866
H182	H	0.940917	0.406054	0.276829
C183	C	0.962476	1.206436	-0.067767
H184	H	0.959126	1.249906	-0.047044
H185	H	0.982384	1.142757	-0.017067
H186	H	1.009967	1.208258	-0.106492
H187	H	0.618025	1.409846	-0.188560
C188	C	0.756895	0.886217	0.012228
H189	H	0.715658	0.929593	0.029655
H190	H	0.763031	0.822288	0.054753
H191	H	0.821404	0.889201	0.011062
H192	H	0.593014	1.312679	-0.256443
H193	H	0.739254	1.166258	-0.236875
H194	H	0.978520	0.565987	0.155922
H195	H	1.609893	0.566033	0.155862
C196	C	1.287736	0.582323	-0.593047
H197	H	1.304280	0.540851	-0.528851
H198	H	1.238830	0.570331	-0.617982
H199	H	1.346204	0.570357	-0.617994
H200	H	0.545600	0.990883	-0.129396
C201	C	0.748940	1.116870	-0.357878
H202	H	0.678702	1.150827	-0.367974
H203	H	0.765313	1.049654	-0.318632
H204	H	0.783380	1.139073	-0.330606
H205	H	1.006978	0.240641	0.004081
H206	H	1.627746	0.521304	0.011096
H207	H	0.826321	0.685926	-0.064240
H208	H	1.388467	1.121548	-0.381666
C209	C	1.225552	1.185530	-0.707184
H210	H	1.249908	1.226872	-0.754883
H211	H	1.243907	1.125715	-0.705589
H212	H	1.154586	1.215134	-0.717528
H213	H	1.192259	1.073604	-0.537030
C214	C	1.290883	0.574405	-0.285365
H215	H	1.314993	0.513895	-0.282825
H216	H	1.342633	0.579267	-0.255768
H217	H	1.235249	0.579267	-0.255766
C218	C	1.769303	0.446582	0.301524
H219	H	1.776001	0.464775	0.240436
H220	H	1.809119	0.467681	0.325231
H221	H	1.791058	0.378260	0.337205
C222	C	1.709278	0.412247	0.476180
H223	H	1.773292	0.389117	0.462786
H224	H	1.710743	0.448451	0.504277
H225	H	1.692691	0.359035	0.516225
H226	H	1.431496	0.473379	-0.144251
H227	H	1.375466	0.613961	0.311246
C228	C	1.302407	0.432896	-0.191680
H229	H	1.353827	0.441381	-0.225747
H230	H	1.242332	0.488786	-0.223009
H231	H	1.322141	0.423269	-0.133596
C232	C	1.420972	0.320413	-0.270259
H233	H	1.452272	0.276949	-0.290991
H234	H	1.390113	0.384094	-0.320955
H235	H	1.469916	0.318589	-0.231538
C236	C	1.497981	0.502054	0.481389
H237	H	1.427742	0.535989	0.471317
H238	H	1.514379	0.434832	0.520624
H239	H	1.532418	0.524259	0.508660
C240	C	1.386760	0.150948	-0.247586
H241	H	1.366639	0.099000	-0.234248
H242	H	1.376078	0.191494	-0.311652
H243	H	1.455881	0.125984	-0.222236
H244	H	0.608821	0.829272	-0.236699
H245	H	1.230791	0.473353	-0.144234
C246	C	0.827276	0.704456	0.052239
H247	H	0.781595	0.689857	0.091766
H248	H	0.886285	0.648006	0.072184
H249	H	0.844128	0.753432	0.052850
H250	H	0.626450	1.228784	-0.528009
H251	H	0.585858	0.892204	-0.011302
C252	C	1.104793	0.120373	-0.060687
H253	H	1.053387	0.111874	-0.026603
H254	H	1.085079	0.129957	-0.118751
H255	H	1.164885	0.064499	-0.029337
C256	C	0.702337	1.018518	-0.147150
H257	H	0.740495	1.019498	-0.192749
H258	H	0.634280	1.060010	-0.175012
H259	H	0.728004	1.040071	-0.113216
H260	H	0.771138	0.823068	-0.232246
C261	C	0.721191	0.975419	-0.281780
H262	H	0.689741	0.992420	-0.339658
H263	H	0.684060	1.021882	-0.266092
H264	H	0.787454	0.973890	-0.283979
C265	C	1.058050	1.158468	-0.793611
H266	H	1.057190	1.160609	-0.738949
H267	H	1.099124	1.190113	-0.828092
H268	H	0.991744	1.190105	-0.828083
C269	C	1.772018	0.254682	-0.034170
H270	H	1.750282	0.226674	-0.063353
H271	H	1.824025	0.274046	-0.060626
H272	H	1.796431	0.208549	0.028793
H273	H	1.174748	0.613981	0.311220
