data_functionalizedCrystal
_audit_creation_method	'MofGen! by Chris Wilmer'
_symmetry_space_group_name_H-M	'P1'
_symmetry_Int_Tables_number	1
_symmetry_cell_setting	triclinic
loop_
_symmetry_equiv_pos_as_xyz
  x,y,z
_cell_length_a	10.654559
_cell_length_b	10.654550
_cell_length_c	9.130313
_cell_angle_alpha	89.996092
_cell_angle_beta	89.999847
_cell_angle_gamma	95.513167
loop_
_atom_site_label
_atom_site_type_symbol
_atom_site_fract_x
_atom_site_fract_y
_atom_site_fract_z
O1	O	-1.667828	0.176455	-0.121764
O2	O	-1.302351	0.193249	-0.121773
O3	O	-1.493492	0.002113	-0.121765
O4	O	-1.476686	0.367591	-0.121773
O5	O	-1.493489	0.002103	0.121834
O6	O	-1.302348	0.193239	0.121826
O7	O	-1.667825	0.176445	0.121834
Cu8	Cu	-1.485086	0.184841	0.144073
Cu9	Cu	-1.485089	0.184853	-0.144011
O10	O	-1.476684	0.367581	0.121826
C11	C	-1.255552	0.192009	0.000025
C12	C	-1.116109	0.188312	0.000021
C13	C	-0.919572	0.183122	-0.132765
C14	C	-1.050595	0.186584	-0.132766
C15	C	-1.050596	0.186566	0.132819
C16	C	-0.919576	0.183095	0.132818
C17	C	-0.854063	0.181406	-0.265562
C18	C	-0.919567	0.183150	-0.398360
C19	C	-1.050590	0.186612	-0.398360
C20	C	-1.116108	0.188330	-0.265563
C21	C	-1.492257	-0.044690	0.000033
C22	C	-1.488565	-0.184133	0.000026
C23	C	-0.714624	0.177685	0.000032
C24	C	-0.854067	0.181379	0.000021
N25	N	-1.485092	0.184852	-0.346634
C26	C	-1.477919	0.414384	0.000025
C27	C	-1.481611	0.553827	0.000022
C28	C	-1.483354	0.619323	0.132810
C29	C	-1.486826	0.750344	0.132813
C30	C	-1.486818	0.750363	-0.132772
C31	C	-1.483337	0.619345	-0.132773
C32	C	-1.481628	0.553806	0.265605
C33	C	-1.483372	0.619301	0.398404
C34	C	-1.486844	0.750323	0.398407
C35	C	-1.488572	0.815849	0.265611
C36	C	-1.569889	0.100384	-0.423282
C37	C	-1.569893	0.100376	-0.576619
C38	C	-1.400293	0.269309	-0.576646
C39	C	-1.400296	0.269322	-0.423312
C40	C	-1.654685	0.015914	-0.346604
C41	C	-1.739488	-0.068562	-0.423253
C42	C	-1.739492	-0.068570	-0.576589
C43	C	-1.654693	0.015899	-0.653278
N44	N	-1.485093	0.184832	0.346695
H45	H	-0.866238	0.181700	0.240945
O46	O	-1.488686	0.821027	-0.275997
H47	H	-1.575726	0.870257	-0.282357
H48	H	-0.866215	0.181742	-0.506478
H49	H	-1.103922	0.188020	-0.506490
O50	O	-1.308825	0.360406	-0.659342
H51	H	-1.210840	0.343305	-0.629884
H52	H	-1.222796	0.191142	-0.265575
H53	H	-1.478804	0.447121	0.265618
H54	H	-1.481953	0.565943	0.506521
H55	H	-1.481909	0.566018	-0.240901
H56	H	-1.103950	0.187967	0.240935
O57	O	-1.308841	0.360425	-0.340624
H58	H	-1.249865	0.419149	-0.419700
O59	O	-1.830960	-0.159651	-0.340550
H60	H	-1.814310	-0.257760	-0.369975
O61	O	-1.488733	0.820971	0.541628
H62	H	-1.486961	0.753395	0.633962
H63	H	-1.808549	-0.137345	-0.638995
H64	H	-1.491377	0.922538	0.265624
O65	O	-1.654687	0.015935	-0.181221
H66	H	-1.727903	-0.056983	-0.140775
H67	H	-1.654712	0.015894	-0.778135
H68	H	-0.747377	0.178591	-0.265576
