data_functionalizedCrystal
_audit_creation_method	'MofGen! by Chris Wilmer'
_symmetry_space_group_name_H-M	'P1'
_symmetry_Int_Tables_number	1
_symmetry_cell_setting	triclinic
loop_
_symmetry_equiv_pos_as_xyz
  x,y,z
_cell_length_a	14.853566
_cell_length_b	14.519709
_cell_length_c	13.330367
_cell_angle_alpha	89.994415
_cell_angle_beta	89.995295
_cell_angle_gamma	83.657280
loop_
_atom_site_label
_atom_site_type_symbol
_atom_site_fract_x
_atom_site_fract_y
_atom_site_fract_z
O1	O	1.196416	0.120399	-0.083359
O2	O	0.933962	0.134744	-0.083376
O3	O	1.072148	-0.006670	-0.083358
O4	O	1.058231	0.261813	-0.083377
O5	O	1.072128	-0.006673	0.083489
O6	O	0.933942	0.134740	0.083471
O7	O	1.196396	0.120396	0.083488
Cu8	Cu	1.065167	0.127568	0.098714
Cu9	Cu	1.065191	0.127572	-0.098602
O10	O	1.058211	0.261809	0.083470
C11	C	0.900363	0.134092	0.000045
C12	C	0.800279	0.132145	0.000039
C13	C	1.071489	-0.041031	0.000065
C14	C	1.069546	-0.143412	0.000066
C15	C	0.377102	0.123911	-0.090891
C16	C	0.377101	0.123909	0.091012
C17	C	0.471136	0.125737	0.091009
C18	C	0.518158	0.126654	0.000054
C19	C	0.471145	0.125743	-0.090897
C20	C	0.518155	0.126658	0.181959
C21	C	0.612195	0.128487	0.181959
C22	C	0.659219	0.129398	0.091003
C23	C	0.612201	0.128485	0.000048
C24	C	0.659223	0.129403	-0.090906
C25	C	0.612206	0.128483	-0.181862
C26	C	0.518169	0.126653	-0.181853
C27	C	0.753257	0.131228	0.090994
C28	C	0.753266	0.131234	-0.090912
C29	C	1.062390	-0.518304	0.000039
C30	C	1.064377	-0.413997	0.000047
C31	C	1.065968	-0.330861	0.000053
C32	C	1.067955	-0.226548	0.000059
C33	C	1.229995	0.121047	0.000064
C34	C	1.330080	0.122994	0.000064
C35	C	1.058869	0.296171	0.000044
C36	C	1.060813	0.398551	0.000037
N37	N	1.065157	0.127565	0.237495
N38	N	1.065208	0.127568	-0.237384
C39	C	1.004000	0.190165	0.710110
C40	C	1.126407	0.064971	0.710094
C41	C	1.126396	0.064968	0.605076
C42	C	1.065188	0.127566	0.552570
C43	C	1.003989	0.190166	0.605082
C44	C	1.187600	0.002376	0.552556
C45	C	1.187593	0.002371	0.447531
C46	C	1.126379	0.064965	0.395023
C47	C	1.065178	0.127567	0.447542
C48	C	1.003969	0.190164	0.395036
C49	C	0.942762	0.252762	0.447553
C50	C	0.942776	0.252760	0.552574
C51	C	1.126366	0.064967	0.290001
C52	C	1.003959	0.190165	0.290008
H53	H	0.791545	0.131978	-0.164980
C54	C	0.325389	0.122905	-0.190935
H55	H	0.262648	0.121687	-0.177910
H56	H	0.347594	0.069471	-0.228304
H57	H	0.334012	0.176951	-0.228306
C58	C	0.804974	0.132242	0.191029
H59	H	0.867714	0.133469	0.178000
H60	H	0.796349	0.078210	0.228412
H61	H	0.782773	0.185690	0.228388
C62	C	0.875465	0.321617	0.610344
H63	H	0.884247	0.312658	0.680410
H64	H	0.815279	0.311495	0.593154
H65	H	0.885359	0.383188	0.593120
C66	C	0.466435	0.125653	0.282001
H67	H	0.507901	0.126472	0.336168
H68	H	0.436541	0.071201	0.285790
H69	H	0.422961	0.178681	0.285773
H70	H	0.954164	0.241129	0.752872
H71	H	1.176203	0.014005	0.247247
C72	C	0.663936	0.129493	-0.281906
H73	H	0.726675	0.130713	-0.268876
H74	H	0.641738	0.182927	-0.319285
H75	H	0.655325	0.075447	-0.319269
H76	H	0.479880	0.125904	-0.255904
C77	C	0.325384	0.122904	0.191056
H78	H	0.366852	0.123715	0.245222
H79	H	0.295483	0.068456	0.194843
H80	H	0.281914	0.175936	0.194833
H81	H	1.176245	0.014011	0.752848
H82	H	0.954112	0.241136	0.247264
H83	H	0.892930	0.303734	0.404790
C84	C	0.663906	0.129490	0.282004
H85	H	0.622432	0.128676	0.336173
H86	H	0.693806	0.183937	0.285782
H87	H	0.707374	0.076457	0.285785
H88	H	1.237438	-0.048585	0.595309
H89	H	1.237429	-0.048600	0.404778
