data_functionalizedCrystal
_audit_creation_method	'MofGen! by Chris Wilmer'
_symmetry_space_group_name_H-M	'P1'
_symmetry_Int_Tables_number	1
_symmetry_cell_setting	triclinic
loop_
_symmetry_equiv_pos_as_xyz
  x,y,z
_cell_length_a	19.288864
_cell_length_b	16.992695
_cell_length_c	17.766277
_cell_angle_alpha	89.993690
_cell_angle_beta	89.976791
_cell_angle_gamma	86.902234
loop_
_atom_site_label
_atom_site_type_symbol
_atom_site_fract_x
_atom_site_fract_y
_atom_site_fract_z
O1	O	0.927053	0.097795	-0.062838
O2	O	0.725561	0.110988	-0.062787
O3	O	0.825499	-0.009748	-0.062806
O4	O	0.827114	0.218531	-0.062819
O5	O	0.825480	-0.009754	0.062382
O6	O	0.725542	0.110982	0.062402
O7	O	0.927034	0.097789	0.062351
Cu8	Cu	0.826286	0.104385	0.073807
Cu9	Cu	0.826308	0.104392	-0.074243
O10	O	0.827095	0.218525	0.062370
C11	C	0.699650	0.110560	-0.000186
C12	C	0.622472	0.109286	-0.000166
C13	C	0.823411	-0.038957	-0.000211
C14	C	0.817211	-0.125979	-0.000210
C15	C	0.581905	0.180128	-0.000182
C16	C	0.509388	0.178931	-0.000190
C17	C	0.477442	0.106888	-0.000198
C18	C	0.518018	0.036036	-0.000178
C19	C	0.590534	0.037235	-0.000162
C20	C	0.365886	0.050256	-0.044079
C21	C	0.293371	0.049059	-0.044099
C22	C	0.253780	0.103186	-0.000243
C23	C	0.286711	0.158522	0.043624
C24	C	0.359227	0.159722	0.043640
C25	C	0.398811	0.105579	-0.000214
C26	C	0.134581	0.172735	-0.000267
C27	C	0.062063	0.171535	-0.000270
C28	C	0.070695	0.028638	-0.000266
C29	C	0.143212	0.029840	-0.000254
C30	C	0.175150	0.101891	-0.000259
C31	C	0.877039	-0.176431	-0.000224
C32	C	0.871208	-0.258197	-0.000230
C33	C	0.805549	-0.289509	-0.000216
C34	C	0.745717	-0.239051	-0.000204
C35	C	0.751548	-0.157287	-0.000204
C36	C	0.781382	-0.533022	-0.000220
C37	C	0.775556	-0.614793	-0.000218
C38	C	0.901048	-0.633933	-0.000246
C39	C	0.906873	-0.552166	-0.000241
C40	C	0.847041	-0.501715	-0.000233
N41	N	0.799588	-0.373087	-0.000219
N42	N	0.853002	-0.418138	-0.000235
C43	C	0.952944	0.098217	-0.000252
C44	C	1.030122	0.099491	-0.000277
C45	C	0.829183	0.247733	-0.000226
C46	C	0.835384	0.334756	-0.000233
N47	N	0.826275	0.104379	0.177937
N48	N	0.826324	0.104391	-0.178373
C49	C	0.870544	0.050944	0.217316
C50	C	0.870548	0.050940	0.296117
C51	C	0.826290	0.104385	0.335538
C52	C	0.782012	0.157825	0.296150
C53	C	0.782005	0.157822	0.217350
C54	C	0.821154	0.175815	0.460373
C55	C	0.821167	0.175819	0.539172
C56	C	0.826309	0.104395	0.578584
C57	C	0.831454	0.032964	0.539188
C58	C	0.831446	0.032961	0.460387
C59	C	0.826293	0.104394	0.420983
C60	C	0.870585	0.050951	0.703408
C61	C	0.870584	0.050946	0.782212
C62	C	0.782051	0.157838	0.782243
C63	C	0.782049	0.157836	0.703441
C64	C	0.826319	0.104393	0.664029
H65	H	0.607904	0.238798	-0.000187
H66	H	0.745975	0.201340	0.328250
Cl67	Cl	0.814704	0.265616	0.588691
Cl68	Cl	0.837906	-0.056834	0.410863
Cl69	Cl	0.976261	-0.697360	-0.000259
Cl70	Cl	0.926235	-0.016238	0.653860
H71	H	0.176243	-0.027848	-0.000246
H72	H	0.160587	0.231403	-0.000259
Cl73	Cl	0.415650	-0.017797	-0.099218
H74	H	0.702829	-0.116209	-0.000192
Cl75	Cl	0.693006	-0.654155	-0.000196
H76	H	0.835641	-0.025196	0.571275
H77	H	0.906631	0.007428	0.814274
H78	H	0.919927	-0.299272	-0.000240
H79	H	0.476351	0.236621	-0.000201
Cl80	Cl	0.236948	0.226573	0.098762
H81	H	0.906590	0.007425	0.185228
Cl82	Cl	0.726397	0.225020	0.653932
H83	H	0.906599	0.007424	0.328185
Cl84	Cl	0.641536	-0.051832	-0.000143
Cl85	Cl	0.726348	0.225005	0.167842
H86	H	0.930505	-0.150943	-0.000231
Cl87	Cl	0.726407	0.225022	0.831794
H88	H	0.386036	0.204776	0.079360
Cl89	Cl	0.030541	-0.061932	-0.000266
H90	H	0.732662	-0.491954	-0.000213
H91	H	0.692255	-0.264552	-0.000197
Cl92	Cl	0.251979	-0.020498	-0.099254
Cl93	Cl	0.477859	-0.054533	-0.000183
Cl94	Cl	0.989420	-0.512808	-0.000283
H95	H	0.816955	0.233980	0.428291
H96	H	0.029034	0.229226	-0.000279
