data_functionalizedCrystal
_audit_creation_method	'MofGen! by Chris Wilmer'
_symmetry_space_group_name_H-M	'P1'
_symmetry_Int_Tables_number	1
_symmetry_cell_setting	triclinic
loop_
_symmetry_equiv_pos_as_xyz
  x,y,z
_cell_length_a	6.817900
_cell_length_b	13.694001
_cell_length_c	12.200875
_cell_angle_alpha	78.571941
_cell_angle_beta	107.143593
_cell_angle_gamma	106.288079
loop_
_atom_site_label
_atom_site_type_symbol
_atom_site_fract_x
_atom_site_fract_y
_atom_site_fract_z
V1	V	-4.058844	-0.140472	-0.313583
O2	O	-4.055479	0.006513	-0.352896
O3	O	-4.000781	-0.278304	-0.267887
O4	O	-4.028705	-0.138415	-0.470217
O5	O	-4.027361	-0.134344	-0.149166
V6	V	-4.541357	-0.122879	-0.299208
O7	O	-4.322316	-0.179065	-0.345116
O8	O	-4.728082	-0.084286	-0.267675
O9	O	-4.376213	0.014954	-0.344904
O10	O	-4.662119	-0.269864	-0.259895
O11	O	-4.690237	-0.129006	-0.463625
O12	O	-4.348289	-0.124935	-0.142574
C13	C	-3.842840	-0.311902	-0.251703
C14	C	-3.876775	-0.424582	-0.215385
C15	C	-4.178337	-0.800385	-0.514962
C16	C	-4.146469	-0.694517	-0.549090
C17	C	-4.079044	-0.627028	-0.465667
C18	C	-4.043490	-0.665417	-0.348110
C19	C	-4.075377	-0.771296	-0.313979
C20	C	-3.976084	-0.597939	-0.264684
C21	C	-3.940530	-0.636329	-0.147127
C22	C	-3.972414	-0.742197	-0.113002
C23	C	-4.039839	-0.809686	-0.196425
C24	C	-3.944197	-0.492061	-0.298814
C25	C	-3.841237	-0.462972	-0.097831
C26	C	-3.873105	-0.568840	-0.063704
C27	C	-3.878460	-0.133458	-0.509793
C28	C	-3.935038	-0.132688	-0.637556
C29	C	-4.038584	-0.131280	-0.871472
C30	C	-3.980955	-0.132063	-0.741304
C31	C	-4.197495	0.048546	-0.361084
C32	C	-4.142799	0.161225	-0.397408
C33	C	-4.161876	-0.129896	-0.102991
C34	C	-4.084536	-0.130660	0.024771
H35	H	-4.233251	-0.855343	-0.582873
C36	C	-3.941506	-0.964396	-0.198392
C37	C	-4.074890	-0.926063	-0.158919
H38	H	-3.963164	-1.036244	-0.175246
H39	H	-3.798596	-0.931776	-0.166364
H40	H	-3.972327	-0.951176	-0.280342
H41	H	-4.044058	-0.939276	-0.076968
H42	H	-4.217833	-0.958694	-0.190943
C43	C	-4.066517	-0.754840	0.064936
C44	C	-3.933355	-0.784383	0.016220
H45	H	-4.042392	-0.780875	0.144714
H46	H	-4.209578	-0.781480	0.026620
H47	H	-4.037861	-0.682127	0.056528
H48	H	-3.962022	-0.857097	0.024620
H49	H	-3.790261	-0.757748	0.054548
C50	C	-3.967202	-0.581516	0.114248
C51	C	-3.834043	-0.611042	0.065514
H52	H	-3.943074	-0.607565	0.194022
H53	H	-4.110263	-0.608150	0.075929
H54	H	-3.938545	-0.508803	0.105858
H55	H	-3.862711	-0.683755	0.073896
H56	H	-3.690948	-0.584412	0.103844
C57	C	-3.746621	-0.287763	-0.060902
C58	C	-3.767114	-0.388798	-0.006121
H59	H	-3.700854	-0.241969	-0.004287
H60	H	-3.879244	-0.279698	-0.110398
H61	H	-3.645837	-0.273099	-0.105157
H62	H	-3.867911	-0.403464	0.038128
H63	H	-3.634473	-0.396867	0.043395
H64	H	-4.175407	-0.663268	-0.644804
C65	C	-4.194182	-0.489148	-0.484489
C66	C	-3.983266	-0.449873	-0.428027
H67	H	-4.218293	-0.463108	-0.564266
H68	H	-4.284487	-0.469114	-0.451422
H69	H	-4.222792	-0.561860	-0.476086
H70	H	-3.954660	-0.377161	-0.436423
H71	H	-3.892933	-0.469901	-0.461104
H72	H	-4.053098	-0.540827	-0.493460
