data_functionalizedCrystal
_audit_creation_method	'MofGen! by Chris Wilmer'
_symmetry_space_group_name_H-M	'P1'
_symmetry_Int_Tables_number	1
_symmetry_cell_setting	triclinic
loop_
_symmetry_equiv_pos_as_xyz
  x,y,z
_cell_length_a	17.639044
_cell_length_b	12.594516
_cell_length_c	17.638773
_cell_angle_alpha	101.193783
_cell_angle_beta	92.163133
_cell_angle_gamma	78.822349
loop_
_atom_site_label
_atom_site_type_symbol
_atom_site_fract_x
_atom_site_fract_y
_atom_site_fract_z
Zn1	Zn	1.247569	-0.815961	-0.194241
Zn2	Zn	1.221836	-0.952387	-0.067285
Zn3	Zn	1.094941	-0.746910	-0.092992
Zn4	Zn	1.120577	-0.966356	-0.219936
O5	O	1.171230	-0.870403	-0.143613
O6	O	1.350408	-0.857110	-0.155888
O7	O	1.183505	-0.890386	0.035563
O8	O	1.115228	-0.607137	-0.106428
O9	O	1.331502	-0.957341	-0.062614
O10	O	1.227363	-0.657868	-0.180815
O11	O	1.090276	-0.739423	0.016676
O12	O	0.992089	-0.752969	-0.131344
O13	O	1.158920	-0.981149	-0.322785
O14	O	1.010923	-0.914194	-0.224608
O15	O	1.252221	-0.870655	-0.303907
O16	O	1.208363	-1.103173	-0.087529
O17	O	1.133968	-1.113436	-0.199681
C18	C	0.973956	-0.827605	-0.183554
C19	C	0.889565	-0.809328	-0.200659
C20	C	0.780475	-0.731515	-0.273401
C21	C	0.859772	-0.748696	-0.257322
C22	C	0.840064	-0.852798	-0.160048
C23	C	0.760763	-0.835621	-0.176116
C24	C	0.730975	-0.774980	-0.232793
C25	C	0.711263	-0.879086	-0.135508
C26	C	0.631969	-0.861915	-0.151577
C27	C	0.602176	-0.801279	-0.208254
C28	C	0.651682	-0.757809	-0.248862
C29	C	0.741053	-0.939733	-0.078835
C30	C	0.691553	-0.983198	-0.038227
C31	C	0.612257	-0.966021	-0.054292
C32	C	0.582464	-0.905385	-0.110969
C33	C	0.562752	-1.009491	-0.013684
C34	C	0.483458	-0.992320	-0.029753
C35	C	0.503170	-0.888214	-0.127038
C36	C	1.171179	-1.146931	-0.143616
C37	C	1.171232	-1.265254	-0.143628
C38	C	1.130756	-1.340115	-0.204593
C39	C	1.098256	-1.384286	-0.139050
C40	C	1.203803	-1.431902	-0.209170
C41	C	1.138688	-1.307846	-0.078056
C42	C	1.244276	-1.355479	-0.148216
C43	C	1.211793	-1.399607	-0.082619
C44	C	1.369275	-0.913369	-0.103517
C45	C	1.453670	-0.931679	-0.086430
C46	C	1.211301	-0.935163	-0.341668
C47	C	1.228376	-0.962759	-0.426067
C48	C	1.171306	-0.592806	-0.143623
C49	C	1.171338	-0.474510	-0.143627
C50	C	1.300979	-1.080246	-0.535192
C51	C	1.284928	-1.054305	-0.455887
C52	C	1.187856	-0.897113	-0.475545
C53	C	1.203901	-0.923037	-0.554852
C54	C	1.260463	-1.014605	-0.584669
C55	C	1.163385	-0.857397	-0.604330
C56	C	1.179426	-0.883322	-0.683630
C57	C	1.235984	-0.974888	-0.713454
C58	C	1.276505	-1.040531	-0.663970
C59	C	1.106819	-0.765833	-0.574512
C60	C	1.066303	-0.700193	-0.623989
C61	C	1.082348	-0.726113	-0.703291
C62	C	1.138906	-0.817679	-0.733114
C63	C	1.041828	-0.660471	-0.752775
C64	C	1.057869	-0.686396	-0.832076
C65	C	1.154948	-0.843605	-0.812415
C66	C	1.131360	-0.805829	0.053679
C67	C	1.114431	-0.777964	0.138107
H68	H	0.587018	-1.058874	0.032458
Cl69	Cl	1.002954	-1.404890	-0.133046
Cl70	Cl	1.246268	-1.514667	-0.294744
Cl71	Cl	1.347625	-1.155633	-0.701457
H72	H	0.443154	-1.027716	0.003312
Cl73	Cl	1.096114	-1.225259	0.007525
H74	H	0.715818	-1.032575	0.007918
H75	H	1.305992	-1.342114	-0.152127
Cl76	Cl	1.264697	-1.439907	-0.002947
H77	H	1.096438	-1.313778	-0.256102
Cl78	Cl	1.086643	-0.733253	-0.474820
Cl79	Cl	1.226068	-0.958707	-0.849903
H80	H	1.249044	-0.995994	-0.778026
Cl81	Cl	1.372099	-1.195348	-0.572679
Cl82	Cl	1.335866	-1.136840	-0.393689
H83	H	1.141801	-0.822561	-0.451257
Cl84	Cl	0.995212	-0.585069	-0.586495
Cl85	Cl	0.970728	-0.545357	-0.715280
H86	H	0.478914	-0.838819	-0.173182
Cl87	Cl	0.614226	-0.681555	-0.320105
Cl88	Cl	0.502491	-0.779692	-0.228457
Cl89	Cl	0.922000	-0.694047	-0.308378
Cl90	Cl	0.743019	-0.655261	-0.344643
Cl91	Cl	0.877520	-0.929032	-0.088801
H92	H	0.805617	-0.953692	-0.065742
Cl93	Cl	1.006950	-0.603857	-0.894277
