data_functionalizedCrystal
_audit_creation_method	'MofGen! by Chris Wilmer'
_symmetry_space_group_name_H-M	'P1'
_symmetry_Int_Tables_number	1
_symmetry_cell_setting	triclinic
loop_
_symmetry_equiv_pos_as_xyz
  x,y,z
_cell_length_a	11.792241
_cell_length_b	9.565339
_cell_length_c	11.792241
_cell_angle_alpha	89.999012
_cell_angle_beta	95.806584
_cell_angle_gamma	89.993067
loop_
_atom_site_label
_atom_site_type_symbol
_atom_site_fract_x
_atom_site_fract_y
_atom_site_fract_z
O1	O	1.506897	0.116125	-0.155563
O2	O	1.840231	0.449458	0.177771
O3	O	2.173564	0.782791	0.511104
O4	O	1.176556	0.116157	-0.171595
O5	O	1.509890	0.449491	0.161738
O6	O	1.843223	0.782824	0.495071
O7	O	1.349743	0.116130	0.001592
O8	O	1.683077	0.449464	0.334925
O9	O	2.016410	0.782797	0.668258
O10	O	1.333710	0.116152	-0.328750
O11	O	1.667044	0.449485	0.004584
O12	O	2.000377	0.782818	0.337917
O13	O	1.349751	-0.116390	0.001586
O14	O	1.683084	0.216944	0.334920
O15	O	2.016418	0.550277	0.668253
O16	O	1.176564	-0.116363	-0.171601
O17	O	1.509897	0.216971	0.161733
O18	O	1.843231	0.550304	0.495066
O19	O	1.506905	-0.116395	-0.155568
O20	O	1.840238	0.216938	0.177766
O21	O	2.173572	0.550271	0.511099
Zn22	Zn	1.341736	-0.153297	-0.163585
Zn23	Zn	1.675069	0.180037	0.169748
Zn24	Zn	2.008402	0.513370	0.503082
Zn25	Zn	1.341726	0.153059	-0.163578
Zn26	Zn	1.675059	0.486392	0.169755
Zn27	Zn	2.008392	0.819725	0.503088
O28	O	1.333718	-0.116368	-0.328755
O29	O	1.667051	0.216965	0.004579
O30	O	2.000385	0.550298	0.337912
C31	C	1.134269	-0.000099	-0.170591
C32	C	1.467603	0.333235	0.162742
C33	C	1.800936	0.666568	0.496076
C34	C	1.008255	-0.000086	-0.167576
C35	C	1.341589	0.333247	0.165757
C36	C	1.674922	0.666580	0.499090
N37	N	1.341751	-0.362376	-0.163589
N38	N	1.675084	-0.029043	0.169745
N39	N	2.008418	0.304291	0.503078
C40	C	0.777543	-0.000127	-0.162034
C41	C	1.110877	0.333206	0.171300
C42	C	1.444210	0.666540	0.504633
C43	C	0.905928	-0.000105	-0.165113
C44	C	1.239262	0.333229	0.168220
C45	C	1.572595	0.666562	0.501553
C46	C	1.421870	-0.453554	-0.083501
C47	C	1.755203	-0.120221	0.249832
C48	C	2.088536	0.213113	0.583166
C49	C	1.319170	-0.546716	-0.060824
C50	C	1.652503	-0.213382	0.272509
C51	C	1.985836	0.119951	0.605842
C52	C	1.444410	-0.546770	-0.186192
C53	C	1.777744	-0.213436	0.147142
C54	C	2.111077	0.119897	0.480475
C55	C	1.238999	-0.453486	-0.140861
C56	C	1.572332	-0.120153	0.192472
C57	C	1.905665	0.213181	0.525806
C58	C	1.364307	-0.453532	-0.266273
C59	C	1.697640	-0.120198	0.067060
C60	C	2.030974	0.213135	0.400393
C61	C	1.261533	-0.546651	-0.243640
C62	C	1.594866	-0.213318	0.089694
C63	C	1.928200	0.120015	0.423027
C64	C	1.549192	-0.000136	-0.156572
C65	C	1.882525	0.333197	0.176761
C66	C	2.215859	0.666530	0.510094
C67	C	1.675206	-0.000139	-0.159587
C68	C	2.008539	0.333194	0.173747
C69	C	2.341873	0.666527	0.507080
C70	C	1.348740	-0.000129	0.043880
C71	C	1.682073	0.333204	0.377213
C72	C	2.015407	0.666538	0.710547
C73	C	1.345726	-0.000127	0.169894
C74	C	1.679059	0.333206	0.503227
C75	C	2.012392	0.666539	0.836560
N76	N	1.341719	0.362138	-0.163565
N77	N	1.675053	0.695471	0.169768
N78	N	2.008386	1.028805	0.503101
C79	C	1.334721	-0.000106	-0.371043
C80	C	1.668055	0.333227	-0.037710
C81	C	2.001388	0.666561	0.295624
C82	C	1.337736	-0.000098	-0.497057
C83	C	1.671069	0.333235	-0.163723
C84	C	2.004402	0.666568	0.169610
C85	C	1.340183	-0.000103	0.400606
C86	C	1.673516	0.333230	0.733939
C87	C	2.006849	0.666563	1.067272
C88	C	1.343262	-0.000116	0.272221
C89	C	1.676596	0.333217	0.605554
C90	C	2.009929	0.666550	0.938887
H91	H	1.300070	-0.587648	0.026023
H92	H	1.633403	-0.254315	0.359357
H93	H	1.966736	0.079018	0.692690
H94	H	1.152147	-0.412683	-0.121635
H95	H	1.485481	-0.079350	0.211698
H96	H	1.818814	0.253984	0.545032
H97	H	1.193691	-0.587270	-0.311361
H98	H	1.527025	-0.253937	0.021972
H99	H	1.860358	0.079396	0.355305
H100	H	1.531241	-0.587745	-0.205320
H101	H	1.864574	-0.254411	0.128014
H102	H	2.197907	0.078922	0.461347
N103	N	1.389642	-0.399258	-0.381276
N104	N	1.722976	-0.065925	-0.047943
N105	N	2.056309	0.267408	0.285391
H106	H	1.467262	-0.433129	-0.398289
H107	H	1.800595	-0.099795	-0.064955
H108	H	2.133929	0.233538	0.268378
H109	H	1.388658	-0.293685	-0.380559
H110	H	1.721991	0.039649	-0.047226
H111	H	2.055324	0.372982	0.286107
H112	H	1.489559	-0.412675	-0.015738
H113	H	1.822892	-0.079342	0.317595
H114	H	2.156225	0.253991	0.650929
