data_functionalizedCrystal
_audit_creation_method	'MofGen! by Chris Wilmer'
_symmetry_space_group_name_H-M	'P1'
_symmetry_Int_Tables_number	1
_symmetry_cell_setting	triclinic
loop_
_symmetry_equiv_pos_as_xyz
  x,y,z
_cell_length_a	12.594516
_cell_length_b	18.101398
_cell_length_c	18.101390
_cell_angle_alpha	90.010099
_cell_angle_beta	90.027015
_cell_angle_gamma	90.011609
loop_
_atom_site_label
_atom_site_type_symbol
_atom_site_fract_x
_atom_site_fract_y
_atom_site_fract_z
Zn1	Zn	-0.423828	1.132201	0.418581
Zn2	Zn	-0.601841	1.132129	0.294752
Zn3	Zn	-0.423863	1.008359	0.294774
Zn4	Zn	-0.601751	1.008343	0.418572
O5	O	-0.512820	1.070258	0.356670
O6	O	-0.447465	1.235824	0.402149
O7	O	-0.578284	1.115687	0.191122
O8	O	-0.274912	1.024824	0.311210
O9	O	-0.578250	1.235771	0.311173
O10	O	-0.274887	1.115810	0.402170
O11	O	-0.447524	1.024754	0.191138
O12	O	-0.447437	0.904724	0.311201
O13	O	-0.578097	1.024797	0.522206
O14	O	-0.578131	0.904712	0.402155
O15	O	-0.447378	1.115795	0.522213
O16	O	-0.750774	1.115671	0.311165
O17	O	-0.750709	1.024727	0.402135
C18	C	-0.512779	0.877847	0.356680
C19	C	-0.512786	0.795533	0.356702
C20	C	-0.512849	0.496442	0.356671
C21	C	-0.595476	0.527785	0.413615
C22	C	-0.595217	0.613403	0.413849
C23	C	-0.512819	0.644825	0.356687
C24	C	-0.400708	0.613750	0.378006
C25	C	-0.401204	0.528105	0.378411
C26	C	-0.541345	0.527995	0.278270
C27	C	-0.543805	0.613645	0.278690
C28	C	-0.512795	0.728684	0.356694
C29	C	-0.512865	0.412583	0.356666
C30	C	-0.789361	1.070209	0.356663
C31	C	-0.907667	1.070256	0.356684
C32	C	-0.976923	1.020787	0.406128
C33	C	-1.047788	1.002745	0.338555
C34	C	-1.047601	1.088366	0.424269
C35	C	-0.976973	1.052179	0.289075
C36	C	-0.976781	1.137831	0.374835
C37	C	-1.047613	1.119815	0.307215
C38	C	-0.235200	1.070327	0.356693
C39	C	-0.116894	1.070356	0.356703
C40	C	-0.512723	1.070302	0.549832
C41	C	-0.512682	1.070321	0.632146
C42	C	-0.512863	1.263420	0.356660
C43	C	-0.512881	1.345734	0.356656
C44	C	-0.512840	1.070257	0.164259
C45	C	-0.512582	1.070382	0.081946
C46	C	-0.512616	1.070361	0.931237
C47	C	-0.430660	1.127803	0.899916
C48	C	-0.430356	1.127623	0.814298
C49	C	-0.512648	1.070342	0.782854
C50	C	-0.482165	0.992319	0.813939
C51	C	-0.481551	0.992663	0.899584
C52	C	-0.625265	1.090254	0.899654
C53	C	-0.624690	1.091966	0.814004
C54	C	-0.512669	1.070326	0.698995
C55	C	-0.512592	1.070371	1.015097
H56	H	-0.337435	0.507371	0.338837
Br57	Br	-0.733794	0.648426	0.391613
H58	H	-0.487994	0.635035	0.233984
H59	H	-0.946077	1.036836	0.231912
Br60	Br	-0.295310	0.647671	0.311039
H61	H	-0.481160	0.507725	0.235842
H62	H	-1.078625	1.103642	0.481416
Br63	Br	-1.099022	1.189618	0.237462
Br64	Br	-0.924757	1.232982	0.400449
Br65	Br	-0.578599	0.919045	0.780005
Br66	Br	-1.099768	0.907570	0.312970
Br67	Br	-0.462158	1.224054	0.779265
Br68	Br	-0.462076	1.224550	0.934242
H69	H	-0.347673	1.114800	0.921450
H70	H	-0.576361	0.633903	0.471939
Br71	Br	-0.675261	0.491982	0.245966
Br72	Br	-0.291262	1.105674	0.780162
Br73	Br	-0.344320	0.964519	0.932903
Br74	Br	-0.576694	0.918893	0.934122
H75	H	-0.400734	0.975151	0.792497
H76	H	-0.653020	1.146151	0.921291
H77	H	-0.647676	1.149384	0.793686
Br78	Br	-0.925184	0.950940	0.475721
H79	H	-0.376103	0.635211	0.434697
H80	H	-0.689035	1.053172	0.792597
H81	H	-0.686331	1.048420	0.919915
H82	H	-0.678883	0.507185	0.400403
H83	H	-0.576860	0.506272	0.471369
H84	H	-0.377036	0.508140	0.435725
H85	H	-0.626302	0.633964	0.262610
