data_functionalizedCrystal
_audit_creation_method	'MofGen! by Chris Wilmer'
_symmetry_space_group_name_H-M	'P1'
_symmetry_Int_Tables_number	1
_symmetry_cell_setting	triclinic
loop_
_symmetry_equiv_pos_as_xyz
  x,y,z
_cell_length_a	12.759401
_cell_length_b	29.839132
_cell_length_c	12.759393
_cell_angle_alpha	90.040105
_cell_angle_beta	89.980535
_cell_angle_gamma	89.955064
loop_
_atom_site_label
_atom_site_type_symbol
_atom_site_fract_x
_atom_site_fract_y
_atom_site_fract_z
Zn1	Zn	1.606032	0.178831	-0.593946
Zn2	Zn	1.605833	0.253969	-0.418240
Zn3	Zn	1.430334	0.178854	-0.418283
Zn4	Zn	1.430229	0.253934	-0.593878
O5	O	1.518107	0.216397	-0.506087
O6	O	1.753027	0.188803	-0.570649
O7	O	1.582513	0.244029	-0.271225
O8	O	1.453768	0.115983	-0.441631
O9	O	1.752880	0.244007	-0.441558
O10	O	1.582853	0.115967	-0.570690
O11	O	1.453575	0.188842	-0.271256
O12	O	1.283299	0.188808	-0.441565
O13	O	1.453589	0.243947	-0.740909
O14	O	1.283222	0.243969	-0.570575
O15	O	1.582751	0.188769	-0.740958
O16	O	1.582411	0.316832	-0.441493
O17	O	1.453396	0.316806	-0.570534
C18	C	1.245140	0.216388	-0.506068
C19	C	1.128363	0.216395	-0.506085
C20	C	0.963702	0.245104	-0.438796
C21	C	1.073426	0.245095	-0.438778
C22	C	1.073571	0.187698	-0.573407
C23	C	0.963849	0.187705	-0.573419
C24	C	0.908770	0.273810	-0.371492
C25	C	0.963555	0.302507	-0.304168
C26	C	1.073279	0.302498	-0.304150
C27	C	1.128218	0.273792	-0.371456
C28	C	1.517899	0.333120	-0.506024
C29	C	1.517906	0.383054	-0.506032
C30	C	1.585333	0.692698	-0.438950
C31	C	1.585433	0.880371	-0.438974
O32	O	1.642649	0.904637	-0.381920
N33	N	1.518217	0.903839	-0.506104
C34	C	1.450976	0.880386	-0.573237
O35	O	1.393815	0.904653	-0.630343
C36	C	1.450882	0.692713	-0.573218
C37	C	1.518095	0.669248	-0.506076
C38	C	1.652541	0.669233	-0.371815
C39	C	1.652511	0.622317	-0.371806
C40	C	1.585273	0.598867	-0.438932
C41	C	1.518065	0.622333	-0.506067
C42	C	1.383647	0.669261	-0.640356
C43	C	1.383632	0.622340	-0.640347
C44	C	1.450844	0.598875	-0.573205
C45	C	1.450797	0.551967	-0.573184
N46	N	1.518013	0.528499	-0.506054
C47	C	1.585251	0.551949	-0.438928
C48	C	1.451029	0.978916	-0.573241
C49	C	1.451051	1.025834	-0.573245
C50	C	1.585509	1.025816	-0.438983
C51	C	1.585481	0.978898	-0.438975
C52	C	1.518245	0.955448	-0.506111
C53	C	1.585183	0.453424	-0.438913
C54	C	1.585144	0.406504	-0.438906
C55	C	1.450690	0.406526	-0.573172
C56	C	1.450724	0.453441	-0.573175
C57	C	1.517979	0.476889	-0.506042
O58	O	1.393620	0.527673	-0.630216
O59	O	1.642420	0.527674	-0.381847
C60	C	1.585363	0.739614	-0.438960
C61	C	1.518154	0.763079	-0.506095
C62	C	1.450916	0.739629	-0.573221
C63	C	1.518176	0.809997	-0.506099
C64	C	1.585414	0.833447	-0.438973
C65	C	1.652630	0.809979	-0.371843
C66	C	1.652601	0.763064	-0.371834
C67	C	1.383701	0.763097	-0.640351
C68	C	1.383735	0.810012	-0.640354
C69	C	1.450973	0.833462	-0.573228
C70	C	1.792140	0.216407	-0.506106
C71	C	1.908917	0.216411	-0.506115
C72	C	1.518305	1.099219	-0.506150
C73	C	1.518289	1.049284	-0.506119
C74	C	1.518181	0.216352	-0.780120
C75	C	1.518212	0.216332	-0.896897
C76	C	1.585476	0.187598	-0.951787
C77	C	1.585501	0.187582	-1.061511
C78	C	1.450995	0.245038	-1.061446
C79	C	1.450966	0.245051	-0.951724
C80	C	1.652722	0.158879	-0.896960
C81	C	1.719992	0.130143	-0.951849
C82	C	1.720017	0.130127	-1.061574
C83	C	1.652772	0.158847	-1.116408
C84	C	1.518094	0.216410	-0.233119
C85	C	1.518267	0.216302	-0.116343
H86	H	1.639951	0.472509	-0.384249
H87	H	1.640212	0.959795	-0.384303
H88	H	0.919242	0.164338	-0.628231
H89	H	1.117881	0.325861	-0.249325
H90	H	1.328993	0.829114	-0.695028
N91	N	1.315026	0.739149	-0.708937
N92	N	1.321946	0.744359	-0.805888
H93	H	1.273438	0.727448	-0.854331
N94	N	1.654182	1.049782	-0.370416
N95	N	1.654183	1.091672	-0.370439
H96	H	1.702684	1.108600	-0.322021
H97	H	1.396274	0.959827	-0.627913
N98	N	1.129686	0.158386	-0.642174
N99	N	1.117472	0.161417	-0.739107
H100	H	1.157102	0.140716	-0.787679
H101	H	1.639877	0.387400	-0.384228
H102	H	1.707245	0.603215	-0.317136
H103	H	0.918816	0.325876	-0.249365
H104	H	0.819427	0.273822	-0.371501
N105	N	1.314991	0.693228	-0.708931
N106	N	1.248065	0.719449	-0.671927
H107	H	1.199572	0.736375	-0.720362
H108	H	1.707332	0.743962	-0.317161
N109	N	1.240299	0.273772	-0.371443
N110	N	1.289306	0.238711	-0.349634
H111	H	1.368462	0.238696	-0.349628
N112	N	1.721210	0.693181	-0.303221
N113	N	1.684291	0.719393	-0.236231
H114	H	1.732787	0.736303	-0.187775
N115	N	1.382306	0.274376	-1.117438
N116	N	1.322248	0.300027	-1.068416
H117	H	1.273732	0.320748	-1.107959
N118	N	1.382371	1.049793	-0.641818
N119	N	1.322345	1.028845	-0.701743
H120	H	1.273839	1.045764	-0.750179
N121	N	1.314948	0.598395	-0.708941
N122	N	1.254951	0.619356	-0.768880
H123	H	1.206442	0.602446	-0.817325
N124	N	1.652688	0.158904	-0.784881
N125	N	1.674552	0.193958	-0.735883
H126	H	1.674527	0.193977	-0.656727
N127	N	1.788659	0.100806	-0.895827
N128	N	1.788627	0.100823	-0.797862
H129	H	1.837123	0.080102	-0.758295
H130	H	1.395998	0.472548	-0.627850
H131	H	1.395942	0.387425	-0.627822
H132	H	1.396178	0.268442	-0.907032
N133	N	1.721299	0.833945	-0.303274
N134	N	1.721303	0.875835	-0.303300
H135	H	1.769800	0.892764	-0.254879
N136	N	1.788722	0.100768	-1.117627
N137	N	1.848750	0.075128	-1.068658
H138	H	1.897278	0.054393	-1.108243
N139	N	1.652815	0.158828	-1.228489
N140	N	1.734764	0.168213	-1.277460
H141	H	1.734799	0.168201	-1.356617
