data_functionalizedCrystal
_audit_creation_method	'MofGen! by Chris Wilmer'
_symmetry_space_group_name_H-M	'P1'
_symmetry_Int_Tables_number	1
_symmetry_cell_setting	triclinic
loop_
_symmetry_equiv_pos_as_xyz
  x,y,z
_cell_length_a	14.908571
_cell_length_b	15.297510
_cell_length_c	14.908308
_cell_angle_alpha	77.689833
_cell_angle_beta	90.175053
_cell_angle_gamma	83.006667
loop_
_atom_site_label
_atom_site_type_symbol
_atom_site_fract_x
_atom_site_fract_y
_atom_site_fract_z
Zn1	Zn	1.259438	0.470251	-0.663978
Zn2	Zn	1.241996	0.612780	-0.536773
Zn3	Zn	1.120913	0.452943	-0.502164
Zn4	Zn	1.083219	0.611710	-0.678251
O5	O	1.176392	0.536921	-0.595291
O6	O	1.381546	0.496849	-0.655614
O7	O	1.234410	0.584782	-0.405253
O8	O	1.162364	0.329146	-0.503171
O9	O	1.368731	0.601565	-0.562158
O10	O	1.264137	0.341862	-0.622055
O11	O	1.145451	0.467350	-0.379826
O12	O	0.991491	0.466312	-0.517011
O13	O	1.098119	0.599740	-0.803286
O14	O	0.963798	0.582958	-0.646382
O15	O	1.227587	0.495811	-0.792800
O16	O	1.197859	0.738732	-0.575998
O17	O	1.081206	0.737945	-0.679941
C18	C	0.945383	0.522641	-0.579490
C19	C	0.846551	0.516555	-0.572756
C20	C	0.632024	0.626752	-0.694687
C21	C	0.539162	0.621037	-0.688363
C22	C	0.567964	0.499405	-0.553788
C23	C	0.660826	0.505121	-0.560112
C24	C	0.692852	0.568797	-0.630563
C25	C	0.785716	0.574516	-0.636883
C26	C	0.814516	0.452881	-0.502312
C27	C	0.721654	0.447166	-0.495988
C28	C	1.133572	0.771036	-0.633295
C29	C	1.115333	0.871198	-0.649589
C30	C	1.307046	1.155071	-0.479219
C31	C	1.324183	1.060963	-0.463905
C32	C	1.271972	1.013517	-0.510325
C33	C	1.202622	1.060188	-0.572061
C34	C	1.185479	1.154304	-0.587371
C35	C	1.150405	1.012750	-0.618477
C36	C	1.081054	1.059421	-0.680213
C37	C	1.063915	1.153528	-0.695520
C38	C	1.116126	1.200974	-0.649100
C39	C	1.167547	0.918634	-0.603167
C40	C	1.045980	0.917868	-0.711319
C41	C	1.028844	1.011975	-0.726632
C42	C	1.408302	0.551257	-0.611155
C43	C	1.507128	0.557366	-0.617915
C44	C	1.160594	0.549587	-0.831874
C45	C	1.153862	0.554984	-0.932692
C46	C	1.219392	1.301895	-0.557170
C47	C	1.237693	1.201741	-0.540949
C48	C	1.276027	0.456884	-1.111217
C49	C	1.269706	0.461953	-1.205944
C50	C	1.134893	0.570184	-1.216873
C51	C	1.141215	0.565116	-1.122146
C52	C	1.211785	0.508465	-1.069322
C53	C	1.218110	0.503402	-0.974594
C54	C	1.083295	0.611628	-0.985523
C55	C	1.076973	0.616697	-1.080250
C56	C	1.192191	0.524243	-0.359622
C57	C	1.199141	0.518602	-0.258775
H58	H	0.864053	0.405692	-0.450096
H59	H	0.811789	0.626366	-0.694246
H60	H	1.333492	0.410762	-1.068208
N61	N	1.338995	0.406328	-1.251141
H62	H	1.307875	0.364444	-1.281197
H63	H	1.384641	0.369728	-1.203257
H64	H	1.102179	1.277604	-0.661568
H65	H	1.077438	0.616306	-1.259898
N66	N	0.989104	1.203866	-0.762089
H67	H	0.958628	1.159533	-0.789172
H68	H	1.015350	1.247353	-0.812912
N69	N	0.666576	0.695430	-0.770664
H70	H	0.699938	0.737523	-0.743121
H71	H	0.613905	0.731218	-0.810298
H72	H	0.489639	0.668228	-0.740581
H73	H	0.695565	0.395320	-0.438631
N74	N	0.954041	1.062311	-0.793212
H75	H	0.980231	1.105793	-0.844087
H76	H	0.908235	1.096833	-0.759788
H77	H	1.380646	1.022967	-0.413640
H78	H	0.541872	0.447558	-0.496434
H79	H	1.224013	0.880644	-0.552901
H80	H	1.285928	0.936891	-0.497852
H81	H	1.349544	1.193709	-0.441425
H82	H	1.003464	0.879237	-0.749116
N83	N	1.294228	0.442308	-0.917622
H84	H	1.331357	0.479375	-0.887088
H85	H	1.333896	0.410418	-0.958601
H86	H	1.019515	0.662818	-1.123272
N87	N	1.014004	0.667273	-0.940339
H88	H	1.028716	0.655471	-0.872314
H89	H	0.951961	0.650216	-0.950276
