data_functionalizedCrystal
_audit_creation_method	'MofGen! by Chris Wilmer'
_symmetry_space_group_name_H-M	'P1'
_symmetry_Int_Tables_number	1
_symmetry_cell_setting	triclinic
loop_
_symmetry_equiv_pos_as_xyz
  x,y,z
_cell_length_a	19.288864
_cell_length_b	10.654550
_cell_length_c	18.366186
_cell_angle_alpha	89.994973
_cell_angle_beta	89.977106
_cell_angle_gamma	83.810575
loop_
_atom_site_label
_atom_site_type_symbol
_atom_site_fract_x
_atom_site_fract_y
_atom_site_fract_z
O1	O	0.922379	0.156657	-0.060782
O2	O	0.720256	0.177789	-0.060732
O3	O	0.825965	-0.015616	-0.060755
O4	O	0.816670	0.350062	-0.060758
O5	O	0.825946	-0.015625	0.060344
O6	O	0.720238	0.177780	0.060368
O7	O	0.922360	0.156647	0.060318
Zn8	Zn	0.821296	0.167212	0.079570
Zn9	Zn	0.821320	0.167224	-0.079984
O10	O	0.816652	0.350052	0.060341
C11	C	0.694366	0.177105	-0.000176
C12	C	0.617249	0.175063	-0.000156
C13	C	0.825273	-0.062404	-0.000206
C14	C	0.823231	-0.201803	-0.000208
C15	C	0.573296	0.288545	-0.000169
C16	C	0.500836	0.286627	-0.000177
C17	C	0.472333	0.171222	-0.000187
C18	C	0.516296	0.057725	-0.000171
C19	C	0.588754	0.059646	-0.000155
C20	C	0.363484	0.080503	-0.042637
C21	C	0.291027	0.078587	-0.042657
C22	C	0.248849	0.165292	-0.000231
C23	C	0.279136	0.253935	0.042205
C24	C	0.351594	0.255855	0.042221
C25	C	0.393766	0.169126	-0.000203
C26	C	0.126326	0.276702	-0.000251
C27	C	0.053865	0.274779	-0.000255
C28	C	0.069327	0.045875	-0.000256
C29	C	0.141786	0.047800	-0.000245
C30	C	0.170281	0.163217	-0.000246
C31	C	0.885471	-0.282621	-0.000221
C32	C	0.883548	-0.413601	-0.000226
C33	C	0.757141	-0.382932	-0.000201
C34	C	0.759065	-0.251955	-0.000202
C35	C	0.949637	-0.232470	-0.000228
C36	C	1.011882	-0.313290	-0.000240
C37	C	1.009959	-0.444269	-0.000245
C38	C	0.945792	-0.494429	-0.000237
C39	C	0.948250	0.157332	-0.000240
C40	C	1.025367	0.159373	-0.000264
C41	C	0.817344	0.396840	-0.000209
C42	C	0.819385	0.536240	-0.000212
N43	N	0.821285	0.167203	0.188461
N44	N	0.821337	0.167224	-0.188875
C45	C	0.868108	0.081605	0.226551
C46	C	0.868113	0.081599	0.302779
C47	C	0.821300	0.167213	0.340914
C48	C	0.774468	0.252817	0.302815
C49	C	0.774461	0.252812	0.226588
C50	C	0.812752	0.281634	0.461675
C51	C	0.812764	0.281641	0.537899
C52	C	0.821320	0.167229	0.576021
C53	C	0.829879	0.052804	0.537909
C54	C	0.829871	0.052799	0.461682
C55	C	0.821303	0.167228	0.423569
C56	C	0.868151	0.081618	0.696766
C57	C	0.868151	0.081610	0.772995
C58	C	0.774509	0.252840	0.773030
C59	C	0.774507	0.252836	0.696802
C60	C	0.821331	0.167226	0.658675
H61	H	0.596492	0.382526	-0.000171
C62	C	0.943674	-0.638504	-0.000247
H63	H	0.896546	-0.656798	-0.000242
H64	H	0.966575	-0.673810	0.041976
H65	H	0.966587	-0.673782	-0.042490
H66	H	0.836838	-0.040369	0.430654
C67	C	0.409872	-0.014869	-0.089315
H68	H	0.381458	-0.067918	-0.114600
H69	H	0.441549	-0.064833	-0.058730
H70	H	0.435219	0.029319	-0.123426
C71	C	0.686565	-0.438107	-0.000184
H72	H	0.694334	-0.527687	-0.000178
H73	H	0.660915	-0.410340	-0.042406
H74	H	0.660907	-0.410345	0.042059
H75	H	0.266373	0.006414	-0.077214
H76	H	0.376250	0.328027	0.076776
H77	H	1.064124	-0.272440	-0.000265
C78	C	0.919655	-0.012555	0.814898
H79	H	0.912948	-0.000304	0.865757
H80	H	0.966072	0.000872	0.802384
H81	H	0.911707	-0.096338	0.802413
H82	H	0.244796	0.324537	0.076753
C83	C	0.723008	0.347008	0.654901
H84	H	0.695132	0.398005	0.688528
H85	H	0.693877	0.301969	0.625182
H86	H	0.748246	0.399171	0.625150
H87	H	0.951210	-0.125822	-0.000222
C88	C	0.723017	0.347013	0.814969
H89	H	0.729729	0.334762	0.865823
H90	H	0.676597	0.333590	0.802501
H91	H	0.730965	0.430794	0.802466
C92	C	0.484946	-0.069217	-0.000186
H93	H	0.435497	-0.054109	-0.000205
H94	H	0.499970	-0.115934	0.042046
H95	H	0.500022	-0.115918	-0.042420
H96	H	0.906243	0.011892	0.333797
H97	H	0.836846	-0.040361	0.568946
C98	C	0.637105	-0.065188	-0.000150
H99	H	0.609755	-0.134198	-0.000161
H100	H	0.665673	-0.069203	0.042082
H101	H	0.665711	-0.069188	-0.042383
C102	C	0.452479	0.411461	-0.000202
H103	H	0.479828	0.480472	-0.000206
H104	H	0.423862	0.415480	0.042018
H105	H	0.423923	0.415451	-0.042447
C106	C	0.690605	-0.163045	-0.000185
H107	H	0.700942	-0.077858	-0.000194
H108	H	0.664311	-0.178209	0.042050
H109	H	0.664330	-0.178204	-0.042416
H110	H	1.060642	-0.510069	-0.000262
H111	H	0.805800	0.374812	0.568925
H112	H	0.906234	0.011894	0.195510
C113	C	0.919647	-0.012559	0.654823
H114	H	0.947528	-0.063554	0.688429
H115	H	0.948774	0.032478	0.625069
H116	H	0.894404	-0.064723	0.625105
H117	H	0.805772	0.374809	0.430642
H118	H	0.736352	0.322524	0.333868
H119	H	0.736331	0.322517	0.195575
H120	H	0.149528	0.370681	-0.000241
H121	H	0.046120	-0.048091	-0.000309
C122	C	0.190137	-0.077031	-0.000243
H123	H	0.162785	-0.146039	-0.000256
H124	H	0.218702	-0.081046	0.041992
H125	H	0.218745	-0.081031	-0.042474
H126	H	0.018079	0.367194	-0.000261
