data_functionalizedCrystal
_audit_creation_method	'MofGen! by Chris Wilmer'
_symmetry_space_group_name_H-M	'P1'
_symmetry_Int_Tables_number	1
_symmetry_cell_setting	triclinic
loop_
_symmetry_equiv_pos_as_xyz
  x,y,z
_cell_length_a	14.044220
_cell_length_b	9.616153
_cell_length_c	14.044220
_cell_angle_alpha	89.997039
_cell_angle_beta	86.811122
_cell_angle_gamma	90.002118
loop_
_atom_site_label
_atom_site_type_symbol
_atom_site_fract_x
_atom_site_fract_y
_atom_site_fract_z
O1	O	1.277171	0.115503	-0.230164
O2	O	1.777171	0.615503	0.269836
O3	O	1.000500	0.115538	-0.221858
O4	O	1.500500	0.615538	0.278142
O5	O	1.134683	0.115508	-0.087675
O6	O	1.634683	0.615508	0.412325
O7	O	1.142988	0.115534	-0.364347
O8	O	1.642988	0.615534	0.135653
O9	O	1.134663	-0.115784	-0.087677
O10	O	1.634663	0.384216	0.412323
O11	O	1.000480	-0.115753	-0.221860
O12	O	1.500480	0.384247	0.278140
O13	O	1.277152	-0.115788	-0.230165
O14	O	1.777152	0.384212	0.269835
Zn15	Zn	1.138813	-0.152493	-0.226013
Zn16	Zn	1.638813	0.347507	0.273987
Zn17	Zn	1.138839	0.152243	-0.226011
Zn18	Zn	1.638839	0.652243	0.273989
O19	O	1.142969	-0.115757	-0.364348
O20	O	1.642969	0.384243	0.135652
C21	C	0.964868	-0.000103	-0.218223
C22	C	1.464868	0.499897	0.281777
C23	C	0.858725	-0.000090	-0.207379
C24	C	1.358725	0.499910	0.292621
N25	N	1.138802	-0.360468	-0.226014
N26	N	1.638802	0.139532	0.273986
C27	C	0.664388	-0.000120	-0.187553
C28	C	1.164388	0.499880	0.312447
C29	C	0.613258	-0.000118	-0.264467
C30	C	1.113258	0.499882	0.235533
C31	C	0.505122	-0.000135	-0.253435
C32	C	1.005122	0.499865	0.246565
C33	C	0.772534	-0.000103	-0.198583
C34	C	1.272534	0.499897	0.301417
C35	C	1.066766	-0.580821	-0.297515
C36	C	1.566766	-0.080821	0.202485
C37	C	1.066959	-0.419654	-0.297818
C38	C	1.566959	0.080346	0.202182
C39	C	1.240260	-0.418927	-0.256196
C40	C	1.740260	0.081073	0.243804
C41	C	1.239877	-0.580145	-0.256712
C42	C	1.739877	-0.080145	0.243288
C43	C	1.110354	-0.580386	-0.124153
C44	C	1.610354	-0.080386	0.375847
C45	C	1.108113	-0.419159	-0.124630
C46	C	1.608113	0.080841	0.375370
C47	C	1.312783	-0.000144	-0.233800
C48	C	1.812783	0.499856	0.266200
C49	C	1.418926	-0.000148	-0.244645
C50	C	1.918926	0.499852	0.255355
C51	C	1.131037	-0.000138	-0.052054
C52	C	1.631037	0.499862	0.447946
C53	C	1.120193	-0.000139	0.054088
C54	C	1.620193	0.499861	0.554088
N55	N	1.138857	0.360218	-0.226003
N56	N	1.638857	0.860218	0.273997
C57	C	1.146614	-0.000109	-0.399969
C58	C	1.646614	0.499891	0.100031
C59	C	1.157459	-0.000099	-0.506112
C60	C	1.657459	0.499901	-0.006112
C61	C	1.100366	-0.000116	0.248426
C62	C	1.600366	0.499884	0.748426
C63	C	1.177281	-0.000122	0.299556
C64	C	1.677281	0.499878	0.799556
C65	C	1.166249	-0.000109	0.407692
C66	C	1.666249	0.499891	0.907692
C67	C	1.111397	-0.000129	0.140280
C68	C	1.611397	0.499871	0.640280
H69	H	0.650697	-0.000104	-0.338600
H70	H	1.150697	0.499896	0.161400
C71	C	1.000222	-0.000122	0.299003
C72	C	1.500222	0.499878	0.799003
N73	N	0.924793	-0.000137	0.337108
N74	N	1.424793	0.499863	0.837108
H75	H	0.626951	-0.000134	-0.113425
H76	H	1.126951	0.499866	0.386575
H77	H	1.251414	-0.000038	0.262117
H78	H	1.751414	0.499962	0.762117
C79	C	0.965440	-0.366257	-0.271862
C80	C	1.465440	0.133743	0.228138
N81	N	0.888969	-0.326045	-0.252317
N82	N	1.388969	0.173955	0.247683
C83	C	1.272051	-0.630922	-0.357411
C84	C	1.772051	-0.130922	0.142589
N85	N	1.296279	-0.669161	-0.433263
N86	N	1.796279	-0.169161	0.066737
C87	C	0.964960	-0.633274	-0.271820
C88	C	1.464960	-0.133274	0.228180
N89	N	0.888278	-0.672800	-0.252469
N90	N	1.388278	-0.172800	0.247531
H91	H	1.085632	-0.621315	-0.372487
H92	H	1.585632	-0.121315	0.127513
H93	H	1.086031	-0.381069	-0.373224
H94	H	1.586031	0.118931	0.126776
C95	C	1.315134	-0.632837	-0.189641
C96	C	1.815134	-0.132837	0.310359
N97	N	1.371828	-0.672519	-0.139137
N98	N	1.871828	-0.172519	0.360863
C99	C	1.314931	-0.367130	-0.188184
C100	C	1.814931	0.132870	0.311816
N101	N	1.371172	-0.328112	-0.136955
N102	N	1.871172	0.171888	0.363045
H103	H	1.037527	-0.621116	-0.097221
H104	H	1.537527	-0.121116	0.402779
C105	C	1.007226	-0.367552	-0.093952
C106	C	1.507226	0.132448	0.406048
N107	N	0.931236	-0.328675	-0.070848
N108	N	1.431236	0.171325	0.429152
C109	C	1.173574	-0.364768	-0.048491
C110	C	1.673574	0.135232	0.451509
N111	N	1.222892	-0.323813	0.008852
N112	N	1.722892	0.176187	0.508852
C113	C	1.272916	-0.364376	-0.355822
C114	C	1.772916	0.135624	0.144178
N115	N	1.297505	-0.323295	-0.430865
N116	N	1.797505	0.176705	0.069135
C117	C	1.181237	-0.631905	-0.052123
C118	C	1.681237	-0.131905	0.447877
N119	N	1.234629	-0.670719	0.002122
N120	N	1.734629	-0.170719	0.502122
