data_functionalizedCrystal
_audit_creation_method	'MofGen! by Chris Wilmer'
_symmetry_space_group_name_H-M	'P1'
_symmetry_Int_Tables_number	1
_symmetry_cell_setting	triclinic
loop_
_symmetry_equiv_pos_as_xyz
  x,y,z
_cell_length_a	19.188929
_cell_length_b	19.188928
_cell_length_c	12.503552
_cell_angle_alpha	86.472133
_cell_angle_beta	93.485982
_cell_angle_gamma	83.144291
loop_
_atom_site_label
_atom_site_type_symbol
_atom_site_fract_x
_atom_site_fract_y
_atom_site_fract_z
O1	O	-0.083090	-0.930210	0.089787
O2	O	0.416910	-0.430210	0.589787
O3	O	-0.094830	-0.726895	0.089705
O4	O	0.405170	-0.226895	0.589705
O5	O	0.012693	-0.834417	0.089682
O6	O	0.512693	-0.334417	0.589682
O7	O	-0.190613	-0.822688	0.089810
O8	O	0.309387	-0.322688	0.589810
O9	O	0.004599	-0.826321	-0.088959
O10	O	0.504599	-0.326321	0.411041
O11	O	-0.102923	-0.718799	-0.088936
O12	O	0.397077	-0.218799	0.411064
O13	O	-0.091184	-0.922115	-0.088854
O14	O	0.408816	-0.422115	0.411146
Cu15	Cu	-0.097793	-0.819718	-0.105206
Cu16	Cu	0.402207	-0.319718	0.394794
Cu17	Cu	-0.088221	-0.829292	0.106057
Cu18	Cu	0.411779	-0.329292	0.606057
O19	O	-0.198706	-0.814593	-0.088831
O20	O	0.301294	-0.314593	0.411169
C21	C	-0.098497	-0.696836	0.000373
C22	C	0.401503	-0.196836	0.500373
C23	C	-0.097359	-0.619329	0.000338
C24	C	0.402641	-0.119329	0.500338
C25	C	-0.160448	-0.574408	0.000391
C26	C	0.339552	-0.074408	0.500391
C27	C	-0.159376	-0.501584	0.000397
C28	C	0.340624	-0.001584	0.500397
C29	C	-0.095212	-0.473686	0.000371
C30	C	0.404788	0.026314	0.500371
C31	C	-0.032115	-0.518618	0.000311
C32	C	0.467885	-0.018618	0.500311
C33	C	-0.033189	-0.591439	0.000295
C34	C	0.466811	-0.091439	0.500295
N35	N	-0.043411	-0.368462	0.061174
N36	N	0.456589	0.131538	0.561174
N37	N	-0.042395	-0.299284	0.061192
N38	N	0.457605	0.200716	0.561192
C39	C	-0.091973	-0.254280	0.000418
C40	C	0.408027	0.245720	0.500418
N41	N	-0.142616	-0.281066	-0.060361
N42	N	0.357384	0.218934	0.439639
N43	N	-0.143633	-0.350250	-0.060374
N44	N	0.356367	0.149750	0.439626
C45	C	-0.094041	-0.394725	0.000388
C46	C	0.405959	0.105275	0.500388
C47	C	-0.153905	-0.130394	0.000476
C48	C	0.346095	0.369606	0.500476
C49	C	-0.152831	-0.057569	0.000475
C50	C	0.347169	0.442431	0.500475
C51	C	-0.025568	-0.074604	0.000400
C52	C	0.474432	0.425396	0.500400
C53	C	-0.026644	-0.147427	0.000390
C54	C	0.473356	0.352573	0.500390
C55	C	-0.090814	-0.175317	0.000433
C56	C	0.409186	0.324683	0.500433
C57	C	-0.220670	-0.819021	0.000507
C58	C	0.279330	-0.319021	0.500507
C59	C	-0.298172	-0.820164	0.000558
C60	C	0.201828	-0.320164	0.500558
C61	C	-0.343099	-0.757071	0.000511
C62	C	0.156901	-0.257071	0.500511
C63	C	-0.415923	-0.758142	0.000487
C64	C	0.084077	-0.258142	0.500487
C65	C	-0.443819	-0.822308	0.000489
C66	C	0.056181	-0.322308	0.500489
C67	C	-0.398883	-0.885410	0.000542
C68	C	0.101117	-0.385410	0.500542
C69	C	-0.326059	-0.884338	0.000577
C70	C	0.173941	-0.384338	0.500577
N71	N	-0.554544	-0.868598	-0.060354
N72	N	-0.054544	-0.368598	0.439646
N73	N	-0.623724	-0.869612	-0.060389
N74	N	-0.123724	-0.369612	0.439611
C75	C	-0.663233	-0.825542	0.000387
C76	C	-0.163233	-0.325542	0.500387
N77	N	-0.630950	-0.780408	0.061187
N78	N	-0.130950	-0.280408	0.561187
N79	N	-0.561763	-0.779392	0.061217
N80	N	-0.061763	-0.279392	0.561217
C81	C	-0.522784	-0.823478	0.000452
C82	C	-0.022784	-0.323478	0.500452
C83	C	-0.787125	-0.763605	0.000316
C84	C	-0.287125	-0.263605	0.500316
C85	C	-0.859950	-0.764679	0.000298
C86	C	-0.359950	-0.264679	0.500298
C87	C	-0.842908	-0.891948	0.000343
C88	C	-0.342908	-0.391948	0.500343
C89	C	-0.770084	-0.890873	0.000371
C90	C	-0.270084	-0.390873	0.500371
C91	C	-0.742197	-0.826700	0.000352
C92	C	-0.242197	-0.326700	0.500352
C93	C	0.034656	-0.829988	0.000346
C94	C	0.534656	-0.329988	0.500346
C95	C	0.112159	-0.828846	0.000302
C96	C	0.612159	-0.328846	0.500302
N97	N	-0.104524	-0.812989	-0.253798
N98	N	0.395476	-0.312989	0.246202
C99	C	-0.087519	0.047827	0.000462
C100	C	0.412481	0.547827	0.500462
C101	C	-0.088666	-0.029676	0.000447
C102	C	0.411334	0.470324	0.500447
C103	C	-0.071579	-0.845921	-0.526238
C104	C	0.428421	-0.345921	-0.026238
C105	C	-0.114426	-0.803097	-0.472905
C106	C	0.385574	-0.303097	0.027095
C107	C	-0.108915	-0.808602	-0.350982
C108	C	0.391085	-0.308602	0.149018
C109	C	-0.077090	-0.840416	-0.648171
C110	C	0.422910	-0.340416	-0.148171
N111	N	-0.081484	-0.836026	0.254648
N112	N	0.418516	-0.336026	0.754648
H113	H	-0.212700	-0.597111	0.000429
H114	H	0.287300	-0.097111	0.500429
Br115	Br	0.058982	-0.208397	0.000320
Br116	Br	0.558982	0.291603	0.500320
H117	H	0.026680	-0.051894	0.000445
H118	H	0.526680	0.448106	0.500445
H119	H	-0.155248	-0.762300	-0.518812
H120	H	0.344752	-0.262300	-0.018812
H121	H	-0.210753	-0.465002	0.000437
H122	H	0.289247	0.034998	0.500437
H123	H	-0.733504	-0.942250	0.000402
H124	H	-0.233504	-0.442250	0.500402
Br125	Br	-0.880758	-0.979033	0.000361
Br126	Br	-0.380758	-0.479033	0.500361
H127	H	-0.030761	-0.886716	-0.480336
H128	H	0.469239	-0.386716	0.019664
Br129	Br	-0.749273	-0.676515	0.000293
Br130	Br	-0.249273	-0.176515	0.500293
Br131	Br	0.052439	-0.652408	0.000220
Br132	Br	0.552439	-0.152408	0.500220
H133	H	-0.206157	-0.153102	0.000495
H134	H	0.293843	0.346898	0.500495
Br135	Br	0.054966	-0.480758	0.000264
Br136	Br	0.554966	0.019242	0.500264
H137	H	-0.320398	-0.704817	0.000505
H138	H	0.179602	-0.204817	0.500505
Br139	Br	-0.238460	0.003400	0.000538
Br140	Br	0.261540	0.503400	0.500538
Br141	Br	-0.436739	-0.972494	0.000556
Br142	Br	0.063261	-0.472494	0.500556
Br143	Br	-0.476907	-0.672510	0.000421
Br144	Br	0.023093	-0.172510	0.500421
H145	H	-0.289479	-0.935718	0.000616
H146	H	0.210521	-0.435718	0.500616
H147	H	-0.896529	-0.713299	0.000267
H148	H	-0.396529	-0.213299	0.500267
