data_functionalizedCrystal
_audit_creation_method	'MofGen! by Chris Wilmer'
_symmetry_space_group_name_H-M	'P1'
_symmetry_Int_Tables_number	1
_symmetry_cell_setting	triclinic
loop_
_symmetry_equiv_pos_as_xyz
  x,y,z
_cell_length_a	15.297475
_cell_length_b	18.101395
_cell_length_c	18.101390
_cell_angle_alpha	89.968753
_cell_angle_beta	80.316890
_cell_angle_gamma	80.333681
loop_
_atom_site_label
_atom_site_type_symbol
_atom_site_fract_x
_atom_site_fract_y
_atom_site_fract_z
Zn1	Zn	1.379111	-0.491006	-0.614323
Zn2	Zn	1.378988	-0.614846	-0.490468
Zn3	Zn	1.228255	-0.469578	-0.469102
Zn4	Zn	1.228191	-0.593339	-0.592882
O5	O	1.303636	-0.542192	-0.541694
O6	O	1.505338	-0.525402	-0.615808
O7	O	1.358969	-0.595608	-0.383997
O8	O	1.248344	-0.368799	-0.488397
O9	O	1.505248	-0.616387	-0.524812
O10	O	1.359178	-0.384542	-0.595091
O11	O	1.248225	-0.488881	-0.368300
O12	O	1.102003	-0.468027	-0.467607
O13	O	1.248235	-0.579732	-0.699363
O14	O	1.101956	-0.558954	-0.558547
O15	O	1.359116	-0.504549	-0.715115
O16	O	1.358906	-0.715615	-0.504022
O17	O	1.248116	-0.699814	-0.579265
C18	C	1.069246	-0.508832	-0.508432
C19	C	0.968973	-0.494578	-0.494221
C20	C	0.686321	-0.644073	-0.643269
C21	C	0.780533	-0.657471	-0.656620
C22	C	0.827647	-0.616749	-0.616021
C23	C	0.780541	-0.562627	-0.562070
C24	C	0.686320	-0.549232	-0.548714
C25	C	0.827646	-0.521907	-0.521466
C26	C	0.780540	-0.467785	-0.467514
C27	C	0.686328	-0.454392	-0.454161
C28	C	0.639214	-0.495114	-0.494759
C29	C	0.921867	-0.535302	-0.534822
C30	C	0.921866	-0.440461	-0.440266
C31	C	0.827655	-0.427063	-0.426916
C32	C	1.303515	-0.734586	-0.541655
C33	C	1.303546	-0.816904	-0.541675
C34	C	1.303744	-1.116023	-0.541743
C35	C	1.234200	-1.074811	-0.589249
C36	C	1.233869	-0.989146	-0.589022
C37	C	1.303646	-0.967627	-0.541709
C38	C	1.277909	-0.995122	-0.460010
C39	C	1.277461	-1.080704	-0.460290
C40	C	1.399178	-1.097943	-0.575270
C41	C	1.398616	-1.012212	-0.576903
C42	C	1.303592	-0.883760	-0.541686
C43	C	1.303796	-1.199890	-0.541760
C44	C	1.538942	-0.575684	-0.575085
C45	C	1.639215	-0.589956	-0.589315
C46	C	1.303682	-0.542132	-0.734862
C47	C	1.303701	-0.542106	-0.817179
C48	C	1.303782	-0.349051	-0.541752
C49	C	1.303844	-0.266746	-0.541777
C50	C	1.303734	-0.542087	-0.967892
C51	C	1.373499	-0.494779	-1.009157
C52	C	1.373791	-0.494975	-1.094817
C53	C	1.303765	-0.542068	-1.116279
C54	C	1.329196	-0.623797	-1.088777
C55	C	1.329684	-0.623549	-1.003202
C56	C	1.208368	-0.508319	-0.985925
C57	C	1.208898	-0.506659	-1.071651
C58	C	1.303782	-0.542061	-1.200141
C59	C	1.303719	-0.542099	-0.884031
C60	C	1.303642	-0.542207	-0.349284
C61	C	1.303798	-0.542049	-0.266992
H62	H	0.789287	-0.382996	-0.382987
C63	C	1.264008	-0.673805	-0.965846
N64	N	1.214551	-0.711664	-0.937714
H65	H	1.444464	-0.518414	-1.125336
C66	C	1.472320	-0.993777	-0.535019
N67	N	1.527832	-0.979893	-0.503464
C68	C	1.183215	-1.094376	-0.424048
N69	N	1.112225	-1.104670	-0.396753
C70	C	1.468424	-0.526154	-0.993558
N71	N	1.539920	-0.549788	-0.981807
H72	H	0.818880	-0.701539	-0.700546
C73	C	0.973673	-0.594832	-0.594171
N74	N	1.012693	-0.639672	-0.638878
H75	H	1.249971	-0.970368	-0.649179
H76	H	0.960227	-0.407302	-0.407206
H77	H	1.250141	-1.097622	-0.649570
C78	C	1.262666	-0.673509	-1.106810
N79	N	1.212556	-0.710952	-1.120394
H80	H	1.189714	-0.446446	-1.089265
H81	H	1.422643	-1.122825	-0.634542
C82	C	1.139213	-1.090450	-0.558106
N83	N	1.067669	-1.102228	-0.534645
H84	H	1.399384	-0.650552	-0.993117
C85	C	1.134974	-0.548338	-1.090002
N86	N	1.079298	-0.579746	-1.103813
C87	C	1.138290	-0.947955	-0.557630
N88	N	1.066290	-0.916929	-0.534002
C89	C	1.342912	-1.118009	-0.409851
N90	N	1.392204	-1.146104	-0.371856
H91	H	1.398127	-0.650989	-1.120026
C92	C	0.535575	-0.480368	-0.480087
N93	N	0.457512	-0.469260	-0.469042
C94	C	1.344180	-0.977031	-0.410085
N95	N	1.394095	-0.963401	-0.372482
C96	C	1.138151	-0.554638	-0.948549
N97	N	1.085270	-0.589527	-0.920394
H98	H	0.904359	-0.627660	-0.626895
C99	C	0.634514	-0.394858	-0.394811
N100	N	0.595489	-0.350014	-0.350110
H101	H	1.208887	-0.963919	-0.432981
H102	H	1.185135	-0.449035	-0.961035
H103	H	0.647952	-0.677228	-0.676314
C104	C	1.424859	-0.988399	-0.658208
N105	N	1.444629	-0.970450	-0.719443
C106	C	1.469176	-1.135266	-0.528753
N107	N	1.521893	-1.163383	-0.493714
C108	C	1.352355	-0.413688	-1.120200
N109	N	1.336216	-0.352460	-1.139317
C110	C	1.352296	-0.413286	-0.978356
N111	N	1.336323	-0.351903	-0.955152
