data_functionalizedCrystal
_audit_creation_method	'MofGen! by Chris Wilmer'
_symmetry_space_group_name_H-M	'P1'
_symmetry_Int_Tables_number	1
_symmetry_cell_setting	triclinic
loop_
_symmetry_equiv_pos_as_xyz
  x,y,z
_cell_length_a	10.654583
_cell_length_b	23.532407
_cell_length_c	9.130313
_cell_angle_alpha	90.004498
_cell_angle_beta	89.991261
_cell_angle_gamma	96.326396
loop_
_atom_site_label
_atom_site_type_symbol
_atom_site_fract_x
_atom_site_fract_y
_atom_site_fract_z
O1	O	-1.665278	0.080071	0.122010
O2	O	-1.299564	0.087672	0.121972
O3	O	-1.493449	0.001012	0.121965
O4	O	-1.471393	0.166731	0.122016
O5	O	-1.493436	0.001017	-0.121634
O6	O	-1.299551	0.087677	-0.121627
O7	O	-1.665265	0.080076	-0.121589
Cu8	Cu	-1.482407	0.083877	-0.143851
Cu9	Cu	-1.482423	0.083871	0.144233
O10	O	-1.471380	0.166736	-0.121583
C11	C	-1.252778	0.087112	0.000167
C12	C	-1.113390	0.085431	0.000151
C13	C	-1.047878	0.084649	-0.132627
C14	C	-0.916907	0.083074	-0.132611
C15	C	-0.916971	0.083064	0.132974
C16	C	-1.047941	0.084635	0.132956
C17	C	-1.047839	0.084657	-0.285961
C18	C	-0.916867	0.083082	-0.285944
C19	C	-1.492881	-0.020205	0.000162
C20	C	-1.491192	-0.083433	0.000150
C21	C	-1.595338	-0.481852	0.000241
C22	C	-1.593769	-0.541263	0.000252
O23	O	-1.690313	-0.577373	0.000316
N24	N	-1.478505	-0.564646	0.000239
C25	C	-1.364801	-0.528615	0.000230
O26	O	-1.266616	-0.553960	0.000221
C27	C	-1.366371	-0.469206	0.000230
C28	C	-1.481643	-0.445826	0.000228
C29	C	-1.710601	-0.458472	0.000241
C30	C	-1.712169	-0.399065	0.000227
C31	C	-1.598474	-0.363039	0.000214
C32	C	-1.483212	-0.386420	0.000214
C33	C	-1.252669	-0.433177	0.000231
C34	C	-1.254249	-0.373764	0.000232
C35	C	-1.369521	-0.350384	0.000230
C36	C	-1.371085	-0.290987	0.000187
N37	N	-1.486350	-0.267604	0.000200
C38	C	-1.600044	-0.303630	0.000213
C39	C	-1.361513	-0.653380	0.000234
C40	C	-1.359942	-0.712788	0.000224
C41	C	-1.588910	-0.725431	0.000249
C42	C	-1.590480	-0.666022	0.000248
C43	C	-1.476778	-0.629996	0.000247
C44	C	-1.603329	-0.178871	0.000183
C45	C	-1.604887	-0.119459	0.000164
C46	C	-1.375919	-0.106821	0.000147
C47	C	-1.374360	-0.166228	0.000159
C48	C	-1.488076	-0.202252	0.000182
O49	O	-1.274592	-0.254842	0.000129
O50	O	-1.698214	-0.278277	0.000241
C51	C	-0.712054	0.080627	0.000204
C52	C	-0.851449	0.082284	0.000185
C53	C	-1.471948	0.187953	0.000224
C54	C	-1.473637	0.251181	0.000245
N55	N	-1.482405	0.083881	-0.346473
C56	C	-1.558129	0.118743	-0.423120
C57	C	-1.558147	0.118732	-0.576457
C58	C	-1.406708	0.048997	-0.576487
C59	C	-1.406697	0.049005	-0.423153
C60	C	-1.645557	0.159006	-0.423103
C61	C	-1.645576	0.158995	-0.576440
N62	N	-1.482434	0.083862	0.346856
H63	H	-1.076094	0.126192	-0.333522
Cl64	Cl	-1.595625	0.228319	-0.640725
H65	H	-1.695927	-0.208196	0.000208
H66	H	-1.345069	0.020602	-0.638939
Cl67	Cl	-1.232997	-0.061521	0.000133
H68	H	-1.604669	0.201884	-0.375559
Cl69	Cl	-0.834686	0.082057	0.299919
Cl70	Cl	-0.873185	0.019018	-0.359739
H71	H	-0.869332	0.122438	-0.344800
Cl72	Cl	-1.311489	0.005180	-0.326802
H73	H	-1.698759	-0.100427	0.000158
Cl74	Cl	-1.792493	0.131379	-0.649833
H75	H	-1.803190	-0.487799	0.000258
H76	H	-1.745050	0.145019	-0.381465
H77	H	-1.806035	-0.380035	0.000232
Cl78	Cl	-1.731842	-0.770732	0.000276
Cl79	Cl	-1.130300	0.085605	0.299884
H80	H	-1.095341	0.045305	-0.344853
H81	H	-1.684345	-0.646990	0.000248
H82	H	-1.268917	-0.624050	0.000220
Cl83	Cl	-1.215022	-0.742172	0.000198
H84	H	-1.161657	-0.344434	0.000233
Cl85	Cl	-1.107746	-0.462553	0.000243
Cl86	Cl	-1.229446	-0.195621	0.000133
