data_functionalizedCrystal
_audit_creation_method	'MofGen! by Chris Wilmer'
_symmetry_space_group_name_H-M	'P1'
_symmetry_Int_Tables_number	1
_symmetry_cell_setting	triclinic
loop_
_symmetry_equiv_pos_as_xyz
  x,y,z
_cell_length_a	10.686220
_cell_length_b	10.686285
_cell_length_c	10.686551
_cell_angle_alpha	99.084519
_cell_angle_beta	89.691918
_cell_angle_gamma	90.345431
loop_
_atom_site_label
_atom_site_type_symbol
_atom_site_fract_x
_atom_site_fract_y
_atom_site_fract_z
Zn1	Zn	1.994012	-0.307898	0.537149
Zn2	Zn	2.327345	0.025435	0.870482
Zn3	Zn	2.660679	0.358769	1.203815
Zn4	Zn	1.993911	-0.536485	0.308653
Zn5	Zn	2.327244	-0.203152	0.641987
Zn6	Zn	2.660578	0.130181	0.975320
Zn7	Zn	1.770410	-0.340205	0.340818
Zn8	Zn	2.103743	-0.006872	0.674151
Zn9	Zn	2.437076	0.326462	1.007485
Zn10	Zn	1.800161	-0.533926	0.534641
Zn11	Zn	2.133494	-0.200592	0.867974
Zn12	Zn	2.466827	0.132741	1.201307
O13	O	1.889623	-0.429629	0.430315
O14	O	2.222957	-0.096295	0.763648
O15	O	2.556290	0.237038	1.096982
O16	O	2.168662	-0.325771	0.494427
O17	O	2.501995	0.007562	0.827760
O18	O	2.835329	0.340896	1.161093
O19	O	1.951770	-0.525040	0.136178
O20	O	2.285103	-0.191707	0.469512
O21	O	2.618437	0.141627	0.802845
O22	O	1.787663	-0.159182	0.381372
O23	O	2.120996	0.174151	0.714705
O24	O	2.454329	0.507485	1.048039
O25	O	2.168588	-0.493713	0.326552
O26	O	2.501921	-0.160380	0.659886
O27	O	2.835254	0.172954	0.993219
O28	O	1.951942	-0.135446	0.525615
O29	O	2.285275	0.197887	0.858949
O30	O	2.618609	0.531220	1.192282
O31	O	1.787565	-0.380834	0.159810
O32	O	2.120898	-0.047500	0.493143
O33	O	2.454231	0.285833	0.826476
O34	O	1.599693	-0.378352	0.378940
O35	O	1.933026	-0.045019	0.712274
O36	O	2.266359	0.288315	1.045607
O37	O	1.838368	-0.489351	0.711715
O38	O	2.171702	-0.156018	1.045048
O39	O	2.505035	0.177316	1.378382
O40	O	1.621551	-0.520678	0.521341
O41	O	1.954884	-0.187344	0.854675
O42	O	2.288217	0.145989	1.188008
O43	O	1.980790	-0.323289	0.713557
O44	O	2.314123	0.010044	1.046891
O45	O	2.647457	0.343377	1.380224
O46	O	1.980618	-0.712883	0.324121
O47	O	2.313951	-0.379550	0.657454
O48	O	2.647285	-0.046216	0.990787
O49	O	1.838270	-0.711003	0.490153
O50	O	2.171604	-0.377669	0.823486
O51	O	2.504937	-0.044336	1.156819
C52	C	1.565334	-0.452744	0.453360
C53	C	1.898667	-0.119410	0.786693
C54	C	2.232000	0.213923	1.120026
C55	C	1.426605	-0.462661	0.463246
C56	C	1.759939	-0.129327	0.796579
C57	C	2.093272	0.204006	1.129912
C58	C	1.912697	-0.757764	0.403399
C59	C	2.246031	-0.424431	0.736733
C60	C	2.579364	-0.091097	1.070066
C61	C	1.922686	-0.898130	0.391919
C62	C	2.256019	-0.564797	0.725252
C63	C	2.589353	-0.231464	1.058585
C64	C	2.215179	-0.406424	0.407181
C65	C	2.548513	-0.073091	0.740515
C66	C	2.881846	0.260243	1.073848
C67	C	2.353912	-0.396535	0.397323
C68	C	2.687245	-0.063202	0.730656
C69	C	3.020579	0.270131	1.063990
C70	C	1.912909	-0.402431	0.759745
C71	C	2.246242	-0.069098	1.093078
C72	C	2.579576	0.264236	1.426411
C73	C	1.922832	-0.390841	0.900128
C74	C	2.256165	-0.057508	1.233461
C75	C	2.589499	0.275826	1.566795
C76	C	1.866495	-0.100207	0.457361
C77	C	2.199828	0.233126	0.790695
C78	C	2.533162	0.566460	1.124028
C79	C	1.856639	0.040173	0.468887
C80	C	2.189972	0.373506	0.802220
C81	C	2.523306	0.706840	1.135554
C82	C	1.866493	-0.456624	0.102170
C83	C	2.199827	-0.123291	0.435503
C84	C	2.533160	0.210043	0.768836
C85	C	1.856787	-0.467841	-0.038201
C86	C	2.190121	-0.134508	0.295132
C87	C	2.523454	0.198826	0.628466
H88	H	1.397808	-0.332337	0.333320
H89	H	1.731141	0.000996	0.666653
H90	H	2.064474	0.334329	0.999986
H91	H	1.382704	-0.526872	0.527245
H92	H	1.716037	-0.193538	0.860578
H93	H	2.049370	0.139795	1.193911
H94	H	1.986867	-0.952701	0.317226
H95	H	2.320200	-0.619368	0.650559
H96	H	2.653534	-0.286035	0.983892
H97	H	1.792656	-0.542634	0.907200
H98	H	2.125989	-0.209300	1.240534
H99	H	2.459322	0.124033	1.573867
H100	H	1.792453	-0.905265	0.543568
H101	H	2.125786	-0.571932	0.876901
H102	H	2.459120	-0.238598	1.210234
H103	H	1.986977	-0.316051	0.954732
H104	H	2.320311	0.017282	1.288065
H105	H	2.653644	0.350615	1.621398
