data_functionalizedCrystal
_audit_creation_method	'MofGen! by Chris Wilmer'
_symmetry_space_group_name_H-M	'P1'
_symmetry_Int_Tables_number	1
_symmetry_cell_setting	triclinic
loop_
_symmetry_equiv_pos_as_xyz
  x,y,z
_cell_length_a	14.853566
_cell_length_b	19.188924
_cell_length_c	13.930277
_cell_angle_alpha	89.993371
_cell_angle_beta	89.995631
_cell_angle_gamma	83.388189
loop_
_atom_site_label
_atom_site_type_symbol
_atom_site_fract_x
_atom_site_fract_y
_atom_site_fract_z
O1	O	1.195859	0.091151	-0.079772
O2	O	1.695859	0.591151	0.420228
O3	O	0.933339	0.102011	-0.079788
O4	O	1.433339	0.602011	0.420212
O5	O	1.072178	-0.005050	-0.079768
O6	O	1.572178	0.494950	0.420232
O7	O	1.057020	0.198212	-0.079792
O8	O	1.557020	0.698212	0.420208
O9	O	1.072159	-0.005052	0.079893
O10	O	1.572159	0.494948	0.579893
O11	O	0.933320	0.102009	0.079873
O12	O	1.433320	0.602009	0.579873
O13	O	1.195840	0.091149	0.079890
O14	O	1.695840	0.591149	0.579890
Zn15	Zn	1.064577	0.096578	0.105231
Zn16	Zn	1.564577	0.596578	0.605231
Zn17	Zn	1.064602	0.096581	-0.105130
Zn18	Zn	1.564602	0.596581	0.394870
O19	O	1.057001	0.198209	0.079870
O20	O	1.557001	0.698209	0.579870
C21	C	0.899743	0.101518	0.000041
C22	C	1.399743	0.601518	0.500041
C23	C	0.799668	0.100044	0.000035
C24	C	1.299668	0.600044	0.500035
C25	C	0.376528	0.093810	-0.086979
C26	C	0.876528	0.593810	0.413021
C27	C	0.376529	0.093808	0.087090
C28	C	0.876529	0.593808	0.587090
C29	C	0.470555	0.095192	0.087087
C30	C	0.970555	0.595192	0.587087
C31	C	0.517572	0.095887	0.000049
C32	C	1.017572	0.595887	0.500049
C33	C	0.470563	0.095197	-0.086985
C34	C	0.970563	0.595197	0.413015
C35	C	0.517570	0.095890	0.174120
C36	C	1.017570	0.595890	0.674120
C37	C	0.611602	0.097275	0.174120
C38	C	1.111602	0.597275	0.674120
C39	C	0.658622	0.097964	0.087082
C40	C	1.158622	0.597964	0.587082
C41	C	0.611607	0.097273	0.000044
C42	C	1.111607	0.597273	0.500044
C43	C	0.658624	0.097967	-0.086994
C44	C	1.158624	0.597967	0.413006
C45	C	0.611612	0.097272	-0.174033
C46	C	1.111612	0.597272	0.325967
C47	C	0.517583	0.095886	-0.174024
C48	C	1.017583	0.595886	0.325976
C49	C	0.752651	0.099350	0.087072
C50	C	1.252651	0.599350	0.587072
C51	C	0.752659	0.099354	-0.087000
C52	C	1.252659	0.599354	0.413000
C53	C	1.071679	-0.031064	0.000063
C54	C	1.571679	0.468936	0.500063
C55	C	1.070208	-0.108573	0.000066
C56	C	1.570208	0.391427	0.500066
C57	C	1.069533	-0.144973	-0.086966
C58	C	1.569533	0.355027	0.413034
C59	C	1.068138	-0.217801	-0.086973
C60	C	1.568138	0.282199	0.413027
C61	C	1.067438	-0.254227	0.000056
C62	C	1.567438	0.245773	0.500056
C63	C	1.068109	-0.217818	0.087099
C64	C	1.568109	0.282182	0.587099
C65	C	1.069494	-0.144991	0.087104
C66	C	1.569494	0.355009	0.587104
N67	N	1.116558	-0.373727	0.064833
N68	N	1.616558	0.126273	0.564833
N69	N	1.115244	-0.442910	0.064823
N70	N	1.615244	0.057090	0.564823
C71	C	1.063262	-0.473650	0.000047
C72	C	1.563262	0.026350	0.500047
N73	N	1.012655	-0.432595	-0.064733
N74	N	1.512655	0.067405	0.435267
N75	N	1.013973	-0.363406	-0.064725
N76	N	1.513973	0.136594	0.435275
C77	C	1.065935	-0.333195	0.000060
C78	C	1.565935	0.166805	0.500060
C79	C	1.061073	-0.589018	-0.086999
C80	C	1.561073	-0.089018	0.413001
C81	C	1.059673	-0.661846	-0.087003
C82	C	1.559673	-0.161846	0.412997
C83	C	1.059652	-0.661862	0.087072
C84	C	1.559652	-0.161862	0.587072
C85	C	1.061043	-0.589035	0.087074
C86	C	1.561043	-0.089035	0.587074
C87	C	1.061758	-0.552617	0.000035
C88	C	1.561758	-0.052617	0.500035
C89	C	1.229436	0.091642	0.000059
C90	C	1.729436	0.591642	0.500059
C91	C	1.329511	0.093116	0.000058
C92	C	1.829511	0.593116	0.500058
C93	C	1.057500	0.224223	0.000036
C94	C	1.557500	0.724223	0.500036
C95	C	1.058971	0.301733	0.000027
C96	C	1.558971	0.801733	0.500027
N97	N	1.064566	0.096576	0.248798
N98	N	1.564566	0.596576	0.748798
N99	N	1.064620	0.096578	-0.248696
N100	N	1.564620	0.596578	0.251304
C101	C	1.003122	0.143969	0.701058
C102	C	1.503122	0.643969	1.201058
C103	C	1.126107	0.049188	0.701045
C104	C	1.626107	0.549188	1.201045
C105	C	1.126097	0.049186	0.600549
C106	C	1.626097	0.549186	1.100549
C107	C	1.064599	0.096577	0.550303
C108	C	1.564599	0.596577	1.050303
C109	C	1.003111	0.143970	0.600553
C110	C	1.503111	0.643970	1.100553
C111	C	1.187589	0.001799	0.550292
C112	C	1.687589	0.501799	1.050292
C113	C	1.187581	0.001795	0.449790
C114	C	1.687581	0.501795	0.949790
C115	C	1.126078	0.049183	0.399542
C116	C	1.626078	0.549183	0.899542
C117	C	1.064588	0.096577	0.449798
C118	C	1.564588	0.596577	0.949798
C119	C	1.003090	0.143968	0.399552
C120	C	1.503090	0.643968	0.899552
C121	C	0.941594	0.191360	0.449806
C122	C	1.441594	0.691360	0.949806
C123	C	0.941608	0.191358	0.550305
C124	C	1.441608	0.691358	1.050305
C125	C	1.126064	0.049185	0.299044
C126	C	1.626064	0.549185	0.799044
C127	C	1.003079	0.143969	0.299047
C128	C	1.503079	0.643969	0.799047
H129	H	0.479281	0.095329	0.244981
H130	H	0.979281	0.595329	0.744981
H131	H	1.070040	-0.115354	0.157978
H132	H	1.570040	0.384646	0.657978
H133	H	0.649872	0.097840	0.244993
H134	H	1.149872	0.597840	0.744993
H135	H	0.649905	0.097842	-0.244899
H136	H	1.149905	0.597842	0.255101
H137	H	0.338247	0.093241	-0.157844
H138	H	0.838247	0.593241	0.342156
C139	C	0.337206	0.153353	0.235451
C140	C	0.837206	0.653353	0.735451
C141	C	0.324851	0.093048	0.182759
C142	C	0.824851	0.593048	0.682759
H143	H	0.305295	0.152883	0.294513
H144	H	0.805295	0.652883	0.794513
H145	H	0.399928	0.154269	0.247901
H146	H	0.899928	0.654269	0.747901
H147	H	0.314758	0.193805	0.199677
H148	H	0.814758	0.693805	0.699677
H149	H	0.347305	0.052595	0.218531
H150	H	0.847305	0.552595	0.718531
H151	H	0.262116	0.092125	0.170312
H152	H	0.762116	0.592125	0.670312
C153	C	0.820025	0.285053	0.459894
C154	C	1.320025	0.785053	0.959894
C155	C	0.873999	0.243454	0.394570
C156	C	1.373999	0.743454	0.894570
H157	H	0.778301	0.317216	0.425788
H158	H	1.278301	0.817216	0.925788
H159	H	0.787714	0.255944	0.499096
H160	H	1.287714	0.755944	0.999096
H161	H	0.857456	0.310220	0.499089
H162	H	1.357456	0.810220	0.999089
H163	H	0.836568	0.218283	0.355379
H164	H	1.336568	0.718283	0.855379
H165	H	0.906312	0.272567	0.355352
H166	H	1.406312	0.772567	0.855352
H167	H	1.061649	-0.559364	-0.157871
H168	H	1.561649	-0.059364	0.342129
C169	C	1.145144	-0.248030	0.235477
C170	C	1.645144	0.251970	0.735477
C171	C	1.067339	-0.257854	0.182765
C172	C	1.567339	0.242146	0.682765
H173	H	1.144660	-0.272743	0.294541
H174	H	1.644660	0.227257	0.794541
H175	H	1.197473	-0.265237	0.199722
H176	H	1.697473	0.234763	0.699722
H177	H	1.146054	-0.199444	0.247930
H178	H	1.646054	0.300556	0.747930
H179	H	1.066431	-0.306439	0.170306
H180	H	1.566431	0.193561	0.670306
H181	H	1.014995	-0.240650	0.218528
H182	H	1.514995	0.259350	0.718528
C183	C	0.743201	0.099211	0.259132
C184	C	1.243201	0.599211	0.759132
C185	C	0.804327	0.100111	0.182736
C186	C	1.304327	0.600111	0.682736
H187	H	0.775107	0.099675	0.318193
H188	H	1.275107	0.599675	0.818193
H189	H	0.699496	0.139353	0.255508
H190	H	1.199496	0.639353	0.755508
H191	H	0.713558	0.057987	0.255512
H192	H	1.213558	0.557987	0.755512
H193	H	0.833966	0.141338	0.186351
H194	H	1.333966	0.641338	0.686351
H195	H	0.848049	0.059965	0.186361
H196	H	1.348049	0.559965	0.686361
H197	H	1.059075	-0.691519	0.157933
H198	H	1.559075	-0.191519	0.657933
H199	H	1.070112	-0.115326	-0.157840
H200	H	1.570112	0.384674	0.342160
H201	H	1.237663	-0.036782	0.591206
H202	H	1.737663	0.463218	1.091206
H203	H	1.067582	-0.247443	-0.157848
H204	H	1.567582	0.252557	0.342152
H205	H	0.479297	0.095319	-0.244886
H206	H	0.979297	0.595319	0.255114
C207	C	0.881543	0.237650	0.690960
C208	C	1.381543	0.737650	1.190960
C209	C	0.935523	0.196058	0.756290
C210	C	1.435523	0.696058	1.256290
H211	H	0.839805	0.269803	0.725060
H212	H	1.339805	0.769803	1.225060
H213	H	0.918962	0.262822	0.651759
H214	H	1.418962	0.762822	1.151759
H215	H	0.849240	0.208531	0.651765
H216	H	1.349240	0.708531	1.151765
H217	H	0.967831	0.225176	0.795481
H218	H	1.467831	0.725176	1.295481
H219	H	0.898099	0.170884	0.795508
H220	H	1.398099	0.670884	1.295508
C221	C	1.146052	-0.045799	0.814079
C222	C	1.646052	0.454201	1.314079
C223	C	1.193699	-0.002903	0.756278
C224	C	1.693699	0.497097	1.256278
H225	H	1.187782	-0.077961	0.848176
H226	H	1.687782	0.422039	1.348176
H227	H	1.109444	-0.017570	0.858381
H228	H	1.609444	0.482430	1.358381
H229	H	1.108628	-0.070965	0.774875
H230	H	1.608628	0.429035	1.274875
H231	H	1.231119	0.022268	0.795483
H232	H	1.731119	0.522268	1.295483
H233	H	1.230323	-0.031135	0.711970
H234	H	1.730323	0.468865	1.211970
H235	H	1.059118	-0.691481	-0.157878
H236	H	1.559118	-0.191481	0.342122
H237	H	1.061601	-0.559398	0.157945
H238	H	1.561601	-0.059398	0.657945
H239	H	1.237653	-0.036794	0.408880
H240	H	1.737653	0.463206	0.908880
H241	H	0.891541	0.229943	0.591228
H242	H	1.391541	0.729943	1.091228
C243	C	1.247636	-0.044497	0.309130
C244	C	1.747636	0.455503	0.809130
C245	C	1.193652	-0.002903	0.243805
C246	C	1.693652	0.497097	0.743805
H247	H	1.289359	-0.076659	0.275027
H248	H	1.789359	0.423341	0.775027
H249	H	1.279947	-0.015385	0.348312
H250	H	1.779947	0.484615	0.848312
H251	H	1.210210	-0.069665	0.348346
H252	H	1.710210	0.430335	0.848346
H253	H	1.231077	0.022269	0.204594
H254	H	1.731077	0.522269	0.704594
H255	H	1.161339	-0.032019	0.204607
H256	H	1.661339	0.467981	0.704607
H257	H	0.790934	0.099917	-0.157877
H258	H	1.290934	0.599917	0.342123
C259	C	0.983118	0.238968	0.186020
C260	C	1.483118	0.738968	0.686020
C261	C	0.935479	0.196064	0.243818
C262	C	1.435479	0.696064	0.743818
H263	H	0.941383	0.271126	0.151921
H264	H	1.441383	0.771126	0.651921
H265	H	1.020534	0.264134	0.225219
H266	H	1.520534	0.764134	0.725219
H267	H	1.019733	0.210739	0.141710
H268	H	1.519733	0.710739	0.641710
H269	H	0.898868	0.224293	0.288133
H270	H	1.398868	0.724293	0.788133
H271	H	0.898047	0.170896	0.204616
H272	H	1.398047	0.670896	0.704616
