data_functionalizedCrystal
_audit_creation_method	'MofGen! by Chris Wilmer'
_symmetry_space_group_name_H-M	'P1'
_symmetry_Int_Tables_number	1
_symmetry_cell_setting	triclinic
loop_
_symmetry_equiv_pos_as_xyz
  x,y,z
_cell_length_a	21.295418
_cell_length_b	19.077114
_cell_length_c	21.295412
_cell_angle_alpha	87.728154
_cell_angle_beta	89.957310
_cell_angle_gamma	87.655040
loop_
_atom_site_label
_atom_site_type_symbol
_atom_site_fract_x
_atom_site_fract_y
_atom_site_fract_z
Zn1	Zn	0.952299	0.279925	-0.366301
Zn2	Zn	0.947977	0.397625	-0.265259
Zn3	Zn	0.847022	0.279977	-0.261012
Zn4	Zn	0.842766	0.397621	-0.370455
O5	O	0.897516	0.338787	-0.315757
O6	O	1.039816	0.295519	-0.352936
O7	O	0.934558	0.382043	-0.176607
O8	O	0.864577	0.181478	-0.271463
O9	O	1.036641	0.381993	-0.278701
O10	O	0.941924	0.181440	-0.348818
O11	O	0.860387	0.295607	-0.173487
O12	O	0.758367	0.295602	-0.275492
O13	O	0.857323	0.381985	-0.457993
O14	O	0.755240	0.382035	-0.355899
O15	O	0.937796	0.295514	-0.454940
O16	O	0.930431	0.496117	-0.282729
O17	O	0.853132	0.496114	-0.360017
C18	C	0.733963	0.338824	-0.315686
C19	C	0.663994	0.338857	-0.315671
C20	C	0.890868	0.521653	-0.322298
C21	C	0.888081	0.599884	-0.325118
C22	C	0.927049	0.636616	-0.286237
C23	C	0.924432	0.710122	-0.288892
C24	C	0.882844	0.746896	-0.330427
C25	C	0.843875	0.710159	-0.369312
C26	C	0.846495	0.636654	-0.366659
C27	C	0.870689	0.966734	-0.342675
C28	C	0.868070	1.040244	-0.345324
C29	C	0.948629	1.040202	-0.264905
C30	C	0.951243	0.966696	-0.262253
C31	C	0.912276	0.929966	-0.301141
N32	N	0.880166	0.822031	-0.333141
N33	N	0.914957	0.854832	-0.298429
C34	C	0.629513	0.383922	-0.357481
C35	C	0.563771	0.383905	-0.357508
C36	C	0.532512	0.338830	-0.315715
C37	C	0.567001	0.293756	-0.273902
C38	C	0.632742	0.293769	-0.273880
N39	N	0.429435	0.333330	-0.260460
N40	N	0.366984	0.333321	-0.260483
C41	C	0.334439	0.338785	-0.315780
N42	N	0.366705	0.344271	-0.371056
N43	N	0.429161	0.344283	-0.371032
C44	C	0.461228	0.338809	-0.315735
C45	C	0.228674	0.383833	-0.357624
C46	C	0.162931	0.383811	-0.357652
C47	C	0.166162	0.293666	-0.274040
C48	C	0.231904	0.293685	-0.274017
C49	C	0.263155	0.338772	-0.315808
C50	C	1.061708	0.338750	-0.315829
C51	C	1.131676	0.338735	-0.315859
C52	C	0.904202	1.155207	-0.309212
C53	C	0.907038	1.076976	-0.306443
C54	C	0.897567	0.338743	-0.479946
C55	C	0.897589	0.338725	-0.549913
C56	C	0.858978	0.293712	-0.581145
C57	C	0.858977	0.293699	-0.646887
C58	C	0.897596	0.338691	-0.681394
C59	C	0.936209	0.383712	-0.650155
C60	C	0.936205	0.383729	-0.584414
N61	N	0.952509	0.344049	-0.784844
N62	N	0.952511	0.344029	-0.847295
C63	C	0.897610	0.338644	-0.879468
N64	N	0.842706	0.333266	-0.846830
N65	N	0.842705	0.333283	-0.784373
C66	C	0.897605	0.338678	-0.752679
C67	C	0.858994	0.293615	-0.981985
C68	C	0.858991	0.293607	-1.047728
C69	C	0.936230	0.383616	-1.050994
C70	C	0.936227	0.383628	-0.985252
C71	C	0.897610	0.338624	-0.950751
C72	C	0.897503	0.338780	-0.152205
C73	C	0.897611	0.338600	-0.082231
H74	H	0.960911	0.606680	-0.252412
C75	C	0.996994	0.926250	-0.216569
H76	H	1.019831	0.958654	-0.193797
H77	H	0.973950	0.897624	-0.188078
H78	H	1.025435	0.897526	-0.239653
H79	H	0.810015	0.740106	-0.403133
C80	C	0.663887	0.433508	-0.403456
H81	H	0.633932	0.460340	-0.428365
H82	H	0.688382	0.464145	-0.380421
H83	H	0.690548	0.406624	-0.429956
H84	H	0.980354	1.070116	-0.233246
C85	C	0.978712	0.433106	-1.088944
H86	H	0.973188	0.426647	-1.132571
H87	H	0.967777	0.480401	-1.079851
H88	H	1.021384	0.422792	-1.077832
H89	H	0.541546	0.257054	-0.239875
H90	H	0.834212	1.070183	-0.379157
C91	C	0.525836	0.433437	-0.403536
H92	H	0.553865	0.460280	-0.428431
H93	H	0.501230	0.406511	-0.430036
H94	H	0.499019	0.464077	-0.380544
C95	C	0.816515	0.244121	-0.944028
H96	H	0.822049	0.250570	-0.900402
H97	H	0.773844	0.254428	-0.955138
H98	H	0.827456	0.196824	-0.953123
H99	H	0.827531	0.257069	-0.553058
C100	C	0.670672	0.244200	-0.227883
H101	H	0.642642	0.217353	-0.202994
H102	H	0.697474	0.213576	-0.250903
H103	H	0.695295	0.271095	-0.201366
H104	H	0.827537	0.257041	-0.672321
C105	C	0.978692	0.433199	-0.688110
H106	H	0.973170	0.426737	-0.731736
H107	H	0.967756	0.480495	-0.679020
H108	H	1.021364	0.422887	-0.676995
C109	C	0.978682	0.433240	-0.550057
H110	H	1.001685	0.460033	-0.580022
H111	H	0.953484	0.463916	-0.525486
H112	H	1.007093	0.406310	-0.523473
H113	H	0.140712	0.256962	-0.240014
C114	C	0.978702	0.433136	-0.950892
H115	H	0.973165	0.426707	-0.906798
H116	H	1.021374	0.422826	-0.961327
H117	H	0.967760	0.480428	-0.963348
C118	C	0.263054	0.433419	-0.403597
H119	H	0.233100	0.460248	-0.428510
H120	H	0.287545	0.464057	-0.380561
H121	H	0.289719	0.406535	-0.430094
C122	C	0.125001	0.433395	-0.403637
H123	H	0.153032	0.460255	-0.428515
H124	H	0.100371	0.406519	-0.430158
H125	H	0.098207	0.464017	-0.380602
H126	H	0.814765	0.606748	-0.398321
H127	H	0.956162	0.740026	-0.257231
C128	C	0.827817	0.926340	-0.385439
H129	H	0.802668	0.958771	-0.410547
H130	H	0.852899	0.897612	-0.411865
H131	H	0.801421	0.897722	-0.360283
C132	C	0.269834	0.244121	-0.228018
H133	H	0.241803	0.217277	-0.203127
H134	H	0.296635	0.213495	-0.251035
H135	H	0.294457	0.271018	-0.201503
H136	H	0.827546	0.256955	-1.073156
