data_functionalizedCrystal
_audit_creation_method	'MofGen! by Chris Wilmer'
_symmetry_space_group_name_H-M	'P1'
_symmetry_Int_Tables_number	1
_symmetry_cell_setting	triclinic
loop_
_symmetry_equiv_pos_as_xyz
  x,y,z
_cell_length_a	14.908571
_cell_length_b	14.908579
_cell_length_c	14.908308
_cell_angle_alpha	83.636704
_cell_angle_beta	90.175053
_cell_angle_gamma	89.792543
loop_
_atom_site_label
_atom_site_type_symbol
_atom_site_fract_x
_atom_site_fract_y
_atom_site_fract_z
Zn1	Zn	1.316638	0.470613	-0.613086
Zn2	Zn	1.316533	0.613252	-0.470457
Zn3	Zn	1.176008	0.453292	-0.453145
Zn4	Zn	1.157626	0.612181	-0.612050
O5	O	1.241701	0.537335	-0.537185
O6	O	1.441981	0.497232	-0.601845
O7	O	1.305541	0.585233	-0.341967
O8	O	1.202400	0.329399	-0.467551
O9	O	1.441904	0.602028	-0.497055
O10	O	1.305721	0.342125	-0.585059
O11	O	1.202298	0.467710	-0.329249
O12	O	1.048212	0.466671	-0.466546
O13	O	1.171070	0.600202	-0.738381
O14	O	1.034707	0.583407	-0.583293
O15	O	1.287896	0.496193	-0.739142
O16	O	1.287716	0.739301	-0.496051
O17	O	1.170968	0.738514	-0.600079
C18	C	1.008956	0.523044	-0.522929
C19	C	0.909384	0.516953	-0.516853
C20	C	1.227359	0.771629	-0.549852
C21	C	1.221303	0.871869	-0.555307
C22	C	0.708261	0.627235	-0.626859
C23	C	0.614704	0.621515	-0.621153
C24	C	0.628710	0.499790	-0.499741
C25	C	0.722268	0.505510	-0.505447
C26	C	0.762039	0.569235	-0.569007
C27	C	0.855598	0.574959	-0.574708
C28	C	0.869603	0.453230	-0.453300
C29	C	0.776046	0.447510	-0.447595
C30	C	1.331606	1.060999	-0.457331
C31	C	1.325920	1.155183	-0.462454
C32	C	1.204248	1.154421	-0.570677
C33	C	1.209935	1.060238	-0.565555
C34	C	1.273615	1.013530	-0.508879
C35	C	1.279297	0.919344	-0.503753
C36	C	1.157630	0.918585	-0.611981
C37	C	1.151944	1.012769	-0.617103
C38	C	1.475355	0.551682	-0.551497
C39	C	1.574925	0.557796	-0.557595
C40	C	1.227444	0.550010	-0.772397
C41	C	1.221369	0.555412	-0.872630
C42	C	1.256116	1.302128	-0.524500
C43	C	1.262242	1.201897	-0.519123
C44	C	1.331602	0.457236	-1.061773
C45	C	1.325896	0.462308	-1.155951
C46	C	1.204249	0.570624	-1.155166
C47	C	1.209954	0.565551	-1.060988
C48	C	1.273634	0.508857	-1.014295
C49	C	1.279343	0.503790	-0.920115
C50	C	1.157692	0.612099	-0.919332
C51	C	1.151986	0.617172	-1.013510
C52	C	1.255958	0.524646	-0.302887
C53	C	1.262223	0.519001	-0.202651
H54	H	0.887979	0.626849	-0.626460
H55	H	1.383451	1.022968	-0.411177
H56	H	1.152409	1.192468	-0.616826
H57	H	0.596311	0.447903	-0.447999
H58	H	0.743651	0.395625	-0.395848
C59	C	0.910376	0.299866	-0.403101
C60	C	0.928719	0.389470	-0.389705
H61	H	0.946869	0.260507	-0.363835
H62	H	0.922858	0.290970	-0.463932
H63	H	0.848962	0.287349	-0.390607
H64	H	0.990131	0.401988	-0.402205
H65	H	0.916244	0.398370	-0.328860
C66	C	1.089198	1.156808	-0.673004
C67	C	1.081945	1.064115	-0.679394
H68	H	1.045976	1.188502	-0.711456
H69	H	1.147635	1.176584	-0.690784
H70	H	1.078884	1.168200	-0.612440
H71	H	1.092265	1.052721	-0.739957
H72	H	1.023494	1.044332	-0.661619
C73	C	1.112319	0.773872	-0.652188
C74	C	1.093883	0.866405	-0.668650
H75	H	1.072966	0.741661	-0.687176
H76	H	1.103861	0.754411	-0.589956
H77	H	1.172630	0.762791	-0.668284
H78	H	1.033573	0.877487	-0.652548
H79	H	1.102334	0.885873	-0.730896
C80	C	1.394370	0.401381	-0.917751
C81	C	1.401602	0.394929	-1.010441
H82	H	1.437591	0.362919	-0.886064
H83	H	1.335934	0.383651	-0.897924
H84	H	1.404696	0.461949	-0.906404
H85	H	1.391270	0.334362	-1.021788
H86	H	1.460052	0.412654	-1.030274
C87	C	0.845461	0.690057	-0.689503
C88	C	0.751986	0.697284	-0.696715
H89	H	0.872452	0.733309	-0.732627
H90	H	0.863683	0.631149	-0.700465
H91	H	0.863641	0.700828	-0.630529
H92	H	0.733805	0.686506	-0.755687
H93	H	0.733756	0.756206	-0.685760
C94	C	1.305596	0.807697	-0.377466
C95	C	1.349292	0.868000	-0.441457
H96	H	1.348812	0.776006	-0.339005
H97	H	1.271882	0.765948	-0.407432
H98	H	1.266471	0.840244	-0.342553
H99	H	1.388413	0.835451	-0.476374
H100	H	1.383022	0.909754	-0.411488
H101	H	1.331195	0.457627	-0.882099
C102	C	0.501336	0.737066	-0.633637
C103	C	0.555588	0.685270	-0.684744
H104	H	0.464838	0.776422	-0.672900
H105	H	0.538106	0.771612	-0.598389
H106	H	0.464261	0.698290	-0.594972
H107	H	0.592669	0.724047	-0.723404
H108	H	0.518814	0.650722	-0.720007
C109	C	1.446716	0.354741	-1.147263
C110	C	1.389620	0.405570	-1.208140
H111	H	1.486060	0.319716	-1.179485
H112	H	1.412024	0.315876	-1.106281
H113	H	1.480797	0.394164	-1.114747
H114	H	1.355534	0.366147	-1.240651
H115	H	1.424316	0.444439	-1.249138
C116	C	1.141475	0.626462	-1.299189
C117	C	1.134244	0.632923	-1.206501
H118	H	1.098256	0.664924	-1.330879
H119	H	1.131152	0.565900	-1.310530
H120	H	1.199918	0.644195	-1.319019
H121	H	1.075802	0.615183	-1.186669
H122	H	1.144559	0.693497	-1.195154
H123	H	1.100139	0.663329	-1.051541
C124	C	1.112420	0.652424	-0.774617
C125	C	1.093966	0.668845	-0.867142
H126	H	1.073077	0.687454	-0.742399
H127	H	1.172729	0.668483	-0.763588
H128	H	1.103953	0.590198	-0.755113
H129	H	1.102440	0.731070	-0.886647
H130	H	1.033643	0.652791	-0.878176
H131	H	1.373144	1.193829	-0.420480
