data_functionalizedCrystal
_audit_creation_method	'MofGen! by Chris Wilmer'
_symmetry_space_group_name_H-M	'P1'
_symmetry_Int_Tables_number	1
_symmetry_cell_setting	triclinic
loop_
_symmetry_equiv_pos_as_xyz
  x,y,z
_cell_length_a	14.044191
_cell_length_b	14.044220
_cell_length_c	14.048226
_cell_angle_alpha	89.992807
_cell_angle_beta	89.996146
_cell_angle_gamma	93.190327
loop_
_atom_site_label
_atom_site_type_symbol
_atom_site_fract_x
_atom_site_fract_y
_atom_site_fract_z
O1	O	1.277175	0.230202	-0.079119
O2	O	1.527175	0.480202	0.170881
O3	O	1.777175	0.730202	0.420881
O4	O	2.027175	0.980202	0.670881
O5	O	1.000503	0.221889	-0.079131
O6	O	1.250503	0.471889	0.170869
O7	O	1.500503	0.721889	0.420869
O8	O	1.750503	0.971889	0.670869
O9	O	1.134686	0.087710	-0.079116
O10	O	1.384686	0.337710	0.170884
O11	O	1.634686	0.587710	0.420884
O12	O	1.884686	0.837710	0.670884
O13	O	1.142992	0.364382	-0.079134
O14	O	1.392992	0.614382	0.170866
O15	O	1.642992	0.864382	0.420866
O16	O	1.892992	1.114382	0.670866
O17	O	1.134668	0.087700	0.079206
O18	O	1.384668	0.337700	0.329206
O19	O	1.634668	0.587700	0.579206
O20	O	1.884668	0.837700	0.829206
O21	O	1.000484	0.221879	0.079191
O22	O	1.250484	0.471879	0.329191
O23	O	1.500484	0.721879	0.579191
O24	O	1.750484	0.971879	0.829191
O25	O	1.277157	0.230192	0.079202
O26	O	1.527157	0.480192	0.329202
O27	O	1.777157	0.730192	0.579202
O28	O	2.027157	0.980192	0.829202
Zn29	Zn	1.138818	0.226034	0.104333
Zn30	Zn	1.388818	0.476034	0.354333
Zn31	Zn	1.638818	0.726034	0.604333
Zn32	Zn	1.888818	0.976034	0.854333
Zn33	Zn	1.138842	0.226047	-0.104262
Zn34	Zn	1.388842	0.476047	0.145738
Zn35	Zn	1.638842	0.726047	0.395738
Zn36	Zn	1.888842	0.976047	0.645738
O37	O	1.142973	0.364372	0.079187
O38	O	1.392973	0.614372	0.329187
O39	O	1.642973	0.864372	0.579187
O40	O	1.892973	1.114372	0.829187
C41	C	0.964872	0.218248	0.000029
C42	C	1.214872	0.468248	0.250029
C43	C	1.464872	0.718248	0.500029
C44	C	1.714872	0.968248	0.750029
C45	C	0.858728	0.207401	0.000024
C46	C	1.108728	0.457401	0.250024
C47	C	1.358728	0.707401	0.500024
C48	C	1.608728	0.957401	0.750024
C49	C	0.613270	0.264501	0.000030
C50	C	0.863270	0.514501	0.250030
C51	C	1.113270	0.764501	0.500030
C52	C	1.363270	1.014501	0.750030
C53	C	0.664395	0.187585	0.000033
C54	C	0.914395	0.437585	0.250033
C55	C	1.164395	0.687585	0.500033
C56	C	1.414395	0.937585	0.750033
C57	C	0.772532	0.198613	0.000028
C58	C	1.022532	0.448613	0.250028
C59	C	1.272532	0.698613	0.500028
C60	C	1.522532	0.948613	0.750028
C61	C	0.505123	0.253474	0.000035
C62	C	0.755123	0.503474	0.250035
C63	C	1.005123	0.753474	0.500035
C64	C	1.255123	1.003474	0.750035
C65	C	1.131041	0.052083	0.000045
C66	C	1.381041	0.302083	0.250045
C67	C	1.631041	0.552083	0.500045
C68	C	1.881041	0.802083	0.750045
C69	C	1.120197	-0.054060	0.000046
C70	C	1.370197	0.195940	0.250046
C71	C	1.620197	0.445940	0.500046
C72	C	1.870197	0.695940	0.750046
C73	C	1.100370	-0.248398	0.000032
C74	C	1.350370	0.001602	0.250032
C75	C	1.600370	0.251602	0.500032
C76	C	1.850370	0.501602	0.750032
C77	C	1.177285	-0.299526	0.000032
C78	C	1.427285	-0.049526	0.250032
C79	C	1.677285	0.200474	0.500032
C80	C	1.927285	0.450474	0.750032
C81	C	1.166253	-0.407663	0.000024
C82	C	1.416253	-0.157663	0.250024
C83	C	1.666253	0.092337	0.500024
C84	C	1.916253	0.342337	0.750024
C85	C	1.111400	-0.140252	0.000040
C86	C	1.361400	0.109748	0.250040
C87	C	1.611400	0.359748	0.500040
C88	C	1.861400	0.609748	0.750040
C89	C	1.312788	0.233834	0.000041
C90	C	1.562788	0.483834	0.250041
C91	C	1.812788	0.733834	0.500041
C92	C	2.062788	0.983834	0.750041
C93	C	1.418931	0.244681	0.000039
C94	C	1.668931	0.494681	0.250039
C95	C	1.918931	0.744681	0.500039
C96	C	2.168931	0.994681	0.750039
C97	C	1.146618	0.399998	0.000024
C98	C	1.396618	0.649998	0.250024
C99	C	1.646618	0.899998	0.500024
C100	C	1.896618	1.149998	0.750024
C101	C	1.157463	0.506142	0.000017
C102	C	1.407463	0.756142	0.250017
C103	C	1.657463	1.006142	0.500017
C104	C	1.907463	1.256142	0.750017
N105	N	1.138808	0.226025	0.246694
N106	N	1.388808	0.476025	0.496694
N107	N	1.638808	0.726025	0.746694
N108	N	1.888808	0.976025	0.996694
N109	N	1.138858	0.226050	-0.246622
N110	N	1.388858	0.476050	0.003378
N111	N	1.638858	0.726050	0.253378
N112	N	1.888858	0.976050	0.503378
C113	C	1.198247	0.166639	0.296519
C114	C	1.448247	0.416639	0.546519
C115	C	1.698247	0.666639	0.796519
C116	C	1.948247	0.916639	1.046519
C117	C	1.198254	0.166639	0.396177
C118	C	1.448254	0.416639	0.646177
C119	C	1.698254	0.666639	0.896177
C120	C	1.948254	0.916639	1.146177
C121	C	1.138825	0.226031	0.446008
C122	C	1.388825	0.476031	0.696008
C123	C	1.638825	0.726031	0.946008
C124	C	1.888825	0.976031	1.196008
C125	C	1.079379	0.285419	0.396176
C126	C	1.329379	0.535419	0.646176
C127	C	1.579379	0.785419	0.896176
C128	C	1.829379	1.035419	1.146176
C129	C	1.079369	0.285414	0.296520
C130	C	1.329369	0.535414	0.546520
C131	C	1.579369	0.785414	0.796520
C132	C	1.829369	1.035414	1.046520
C133	C	1.079408	0.285429	0.603890
C134	C	1.329408	0.535429	0.853890
C135	C	1.579408	0.785429	1.103890
C136	C	1.829408	1.035429	1.353890
C137	C	1.079419	0.285436	0.703553
C138	C	1.329419	0.535436	0.953553
C139	C	1.579419	0.785436	1.203553
C140	C	1.829419	1.035436	1.453553
C141	C	1.198292	0.166654	0.703547
C142	C	1.448292	0.416654	0.953547
C143	C	1.698292	0.666654	1.203547
C144	C	1.948292	0.916654	1.453547
C145	C	1.198282	0.166648	0.603891
C146	C	1.448282	0.416648	0.853891
C147	C	1.698282	0.666648	1.103891
C148	C	1.948282	0.916648	1.353891
C149	C	1.138837	0.226038	0.554066
C150	C	1.388837	0.476038	0.804066
C151	C	1.638837	0.726038	1.054066
C152	C	1.888837	0.976038	1.304066
H153	H	1.251419	-0.262085	-0.000029
H154	H	1.501419	-0.012085	0.249971
H155	H	1.751419	0.237915	0.499971
H156	H	2.001419	0.487915	0.749971
Cl157	Cl	0.671077	0.378949	0.000011
Cl158	Cl	0.921077	0.628949	0.250011
Cl159	Cl	1.171077	0.878949	0.500011
Cl160	Cl	1.421077	1.128949	0.750011
H161	H	1.031026	0.333798	0.744120
H162	H	1.281026	0.583798	0.994120
H163	H	1.531026	0.833798	1.244120
H164	H	1.781026	1.083798	1.494120
Cl165	Cl	0.985920	-0.306201	0.000022
Cl166	Cl	1.235920	-0.056201	0.250022
Cl167	Cl	1.485920	0.193799	0.500022
Cl168	Cl	1.735920	0.443799	0.750022
H169	H	1.246645	0.118279	0.255953
H170	H	1.496645	0.368279	0.505953
H171	H	1.746645	0.618279	0.755953
H172	H	1.996645	0.868279	1.005953
Cl173	Cl	0.606590	0.073129	0.000040
Cl174	Cl	0.856590	0.323129	0.250040
Cl175	Cl	1.106590	0.573129	0.500040
Cl176	Cl	1.356590	0.823129	0.750040
H177	H	1.246652	0.118281	0.436743
H178	H	1.496652	0.368281	0.686743
H179	H	1.746652	0.618281	0.936743
H180	H	1.996652	0.868281	1.186743
H181	H	1.246677	0.118292	0.563319
H182	H	1.496677	0.368292	0.813319
H183	H	1.746677	0.618292	1.063319
H184	H	1.996677	0.868292	1.313319
H185	H	1.246694	0.118296	0.744120
H186	H	1.496694	0.368296	0.994120
H187	H	1.746694	0.618296	1.244120
H188	H	1.996694	0.868296	1.494120
Cl189	Cl	1.004672	0.360090	0.541257
Cl190	Cl	1.254672	0.610090	0.791257
Cl191	Cl	1.504672	0.860090	1.041257
Cl192	Cl	1.754672	1.110090	1.291257
Cl193	Cl	1.004663	0.360080	0.458818
Cl194	Cl	1.254663	0.610080	0.708818
Cl195	Cl	1.504663	0.860080	0.958818
Cl196	Cl	1.754663	1.110080	1.208818
H197	H	1.030966	0.333771	0.255954
H198	H	1.280966	0.583771	0.505954
H199	H	1.530966	0.833771	0.755954
H200	H	1.780966	1.083771	1.005954
