data_functionalizedCrystal
_audit_creation_method	'MofGen! by Chris Wilmer'
_symmetry_space_group_name_H-M	'P1'
_symmetry_Int_Tables_number	1
_symmetry_cell_setting	triclinic
loop_
_symmetry_equiv_pos_as_xyz
  x,y,z
_cell_length_a	15.297475
_cell_length_b	18.215405
_cell_length_c	18.215399
_cell_angle_alpha	90.030551
_cell_angle_beta	80.315508
_cell_angle_gamma	99.673149
loop_
_atom_site_label
_atom_site_type_symbol
_atom_site_fract_x
_atom_site_fract_y
_atom_site_fract_z
Zn1	Zn	1.379205	0.487998	-0.610456
Zn2	Zn	1.379093	0.611053	-0.487369
Zn3	Zn	1.228339	0.466690	-0.466144
Zn4	Zn	1.228297	0.589690	-0.589144
O5	O	1.303733	0.538858	-0.538278
O6	O	1.505437	0.522179	-0.611930
O7	O	1.359065	0.591926	-0.381565
O8	O	1.248416	0.366541	-0.485324
O9	O	1.505354	0.612588	-0.521498
O10	O	1.359257	0.382196	-0.591350
O11	O	1.248307	0.485863	-0.365971
O12	O	1.102087	0.465148	-0.464658
O13	O	1.248345	0.576178	-0.694959
O14	O	1.102056	0.555516	-0.555026
O15	O	1.359216	0.501465	-0.710618
O16	O	1.359025	0.711195	-0.500833
O17	O	1.248236	0.695499	-0.575606
C18	C	1.069337	0.505703	-0.505227
C19	C	0.969061	0.491536	-0.491104
C20	C	1.303638	0.730051	-0.538229
C21	C	1.303680	0.811856	-0.538245
C22	C	1.303788	0.538815	-0.730239
C23	C	1.303812	0.538797	-0.812041
C24	C	0.686437	0.640112	-0.639213
C25	C	0.780651	0.653427	-0.652480
C26	C	0.827758	0.612956	-0.612137
C27	C	0.780642	0.559166	-0.558526
C28	C	0.686419	0.545854	-0.545254
C29	C	0.827740	0.518697	-0.518178
C30	C	0.780624	0.464908	-0.464566
C31	C	0.686410	0.451598	-0.451297
C32	C	0.639303	0.492069	-0.491640
C33	C	0.921963	0.532010	-0.531450
C34	C	0.921945	0.437752	-0.437490
C35	C	0.827731	0.424436	-0.424224
C36	C	1.539045	0.572143	-0.571459
C37	C	1.639321	0.586328	-0.585599
C38	C	1.303854	0.346922	-0.538347
C39	C	1.303905	0.265130	-0.538376
C40	C	1.361503	1.008217	-0.499416
C41	C	1.361544	1.085081	-0.499439
C42	C	1.246079	1.068763	-0.577210
C43	C	1.246044	0.991901	-0.577190
C44	C	1.303755	0.961630	-0.538289
C45	C	1.303830	1.115356	-0.538332
C46	C	1.303874	1.198696	-0.538358
C47	C	1.303713	0.878285	-0.538264
C48	C	1.361563	0.499853	-1.008393
C49	C	1.361574	0.499833	-1.085253
C50	C	1.246124	0.577636	-1.068937
C51	C	1.246110	0.577651	-0.992077
C52	C	1.303834	0.538761	-0.961808
C53	C	1.303860	0.538726	-1.115528
C54	C	1.303871	0.538705	-1.198863
C55	C	1.303822	0.538781	-0.878467
C56	C	1.303731	0.538855	-0.347072
C57	C	1.303882	0.538691	-0.265294
H58	H	0.960316	0.575805	-0.575101
H59	H	1.408582	0.468148	-1.123179
C60	C	0.931396	0.627617	-0.626720
N61	N	1.009461	0.638666	-0.637704
H62	H	1.199018	0.953967	-0.608849
C63	C	1.425054	0.457065	-0.975098
N64	N	1.472874	0.424833	-0.950023
H65	H	0.648051	0.407806	-0.407636
H66	H	1.199092	1.093420	-0.608881
C67	C	1.182629	0.620411	-1.102241
N68	N	1.134802	0.652630	-1.127324
C69	C	0.634613	0.684627	-0.683581
N70	N	0.595578	0.718159	-0.717001
C71	C	1.182597	0.620453	-0.940830
N72	N	1.134759	0.652688	-0.902231
C73	C	0.973760	0.393228	-0.393112
N74	N	1.012792	0.359696	-0.359690
H75	H	0.562586	0.481229	-0.480843
H76	H	0.819006	0.697224	-0.696129
H77	H	1.408569	1.123010	-0.467786
H78	H	1.408496	0.983572	-0.467741
H79	H	0.789356	0.380641	-0.380573
