data_functionalizedCrystal
_audit_creation_method	'MofGen! by Chris Wilmer'
_symmetry_space_group_name_H-M	'P1'
_symmetry_Int_Tables_number	1
_symmetry_cell_setting	triclinic
loop_
_symmetry_equiv_pos_as_xyz
  x,y,z
_cell_length_a	28.938199
_cell_length_b	28.937346
_cell_length_c	28.934044
_cell_angle_alpha	60.005004
_cell_angle_beta	60.009897
_cell_angle_gamma	59.994060
loop_
_atom_site_label
_atom_site_type_symbol
_atom_site_fract_x
_atom_site_fract_y
_atom_site_fract_z
O1	O	0.064043	-0.675186	0.564597
O2	O	0.024124	-0.525682	0.454913
O3	O	0.118795	-0.620275	0.454833
O4	O	-0.030629	-0.580593	0.564678
O5	O	0.150204	-0.588870	0.486157
O6	O	0.055533	-0.494276	0.486238
O7	O	0.095452	-0.643780	0.595921
Cu8	Cu	0.078360	-0.566161	0.543940
Cu9	Cu	0.041215	-0.603301	0.506895
O10	O	0.000780	-0.549187	0.596002
N11	N	0.104487	-0.540042	0.569998
N12	N	0.015094	-0.629425	0.480837
C13	C	0.165467	-0.323909	0.630915
C14	C	0.165587	-0.479117	0.786068
C15	C	0.165481	-0.479095	0.630906
C16	C	0.320696	-0.479083	0.630835
C17	C	0.182557	-0.375118	0.647971
C18	C	0.182626	-0.462038	0.734858
C19	C	0.269485	-0.462018	0.647928
C20	C	0.182566	-0.462025	0.647966
C21	C	0.143714	-0.258726	0.609206
C22	C	0.143738	-0.500820	0.609192
C23	C	0.204309	-0.440300	0.669680
C24	C	0.415481	-0.462740	0.580919
C25	C	0.474732	-0.482485	0.561145
C26	C	0.474757	-0.578356	0.597704
C27	C	0.415508	-0.558609	0.617479
C28	C	0.157989	-0.229089	0.550957
C29	C	0.138212	-0.169834	0.531225
C30	C	0.089890	-0.169857	0.627992
C31	C	0.109667	-0.229112	0.647725
C32	C	0.085482	-0.486515	0.623535
C33	C	0.065722	-0.506265	0.603789
C34	C	0.162467	-0.554625	0.555370
C35	C	0.182230	-0.534875	0.575110
C36	C	0.085661	-0.486557	0.880902
C37	C	0.065952	-0.506323	0.940155
C38	C	0.162734	-0.554693	0.940102
C39	C	0.182441	-0.534928	0.880847
C40	C	0.143904	-0.500859	0.851249
C41	C	0.385871	-0.500801	0.609083
C42	C	-0.110907	-0.668480	0.441278
C43	C	-0.024049	-0.668588	0.441475
C44	C	-0.045729	-0.690282	0.419668
C45	C	-0.062146	-0.785032	0.469507
C46	C	-0.042446	-0.844287	0.489286
C47	C	0.053426	-0.844399	0.452899
C48	C	0.033725	-0.785144	0.433120
C49	C	-0.140617	-0.682751	0.499509
C50	C	-0.199867	-0.662928	0.519152
C51	C	-0.199694	-0.614571	0.422330
C52	C	-0.140443	-0.634393	0.402687
C53	C	-0.038320	-0.610337	0.427144
C54	C	-0.018610	-0.590621	0.446974
C55	C	0.029642	-0.687402	0.495454
C56	C	0.009933	-0.707121	0.475630
C57	C	-0.038148	-0.610347	0.324832
C58	C	-0.018301	-0.590634	0.265579
C59	C	0.030035	-0.687421	0.265643
C60	C	0.010190	-0.707133	0.324897
C61	C	-0.023903	-0.668595	0.354491
C62	C	-0.024062	-0.755463	0.441426
N63	N	0.503527	-0.540005	0.569810
O64	O	0.684453	-0.545211	0.434650
O65	O	0.684643	-0.655237	0.584005
O66	O	0.684567	-0.654986	0.489282
O67	O	0.684529	-0.545462	0.529373
O68	O	0.590438	-0.623674	0.520735
O69	O	0.590513	-0.623924	0.615457
O70	O	0.590323	-0.513899	0.466102
Cu71	Cu	0.581823	-0.566053	0.543652
Cu72	Cu	0.693143	-0.603083	0.506456
O73	O	0.590399	-0.514149	0.560825
N74	N	0.771439	-0.629131	0.480292
N75	N	0.104456	-0.141061	0.570015
O76	O	-0.030629	0.039964	0.564688
O77	O	0.118732	0.039984	0.454661
O78	O	0.023980	0.039958	0.454946
O79	O	0.064123	0.039990	0.564403
O80	O	0.055392	-0.054179	0.486321
O81	O	0.150144	-0.054153	0.486036
O82	O	0.000784	-0.054173	0.596063
Cu83	Cu	0.078332	-0.062759	0.543914
Cu84	Cu	0.041183	0.048570	0.506810
O85	O	0.095535	-0.054147	0.595778
N86	N	0.015053	0.126872	0.480710
N87	N	0.104760	-0.540096	0.968910
O88	O	0.099447	-0.675167	1.149923
O89	O	-0.010552	-0.525757	1.149951
O90	O	-0.010297	-0.620493	1.149918
O91	O	0.099192	-0.580431	1.149956
O92	O	0.021064	-0.589100	1.055785
O93	O	0.020809	-0.494365	1.055818
O94	O	0.130808	-0.643774	1.055790
Cu95	Cu	0.078672	-0.566203	1.047209
Cu96	Cu	0.041584	-0.603328	1.158532
O97	O	0.130553	-0.549038	1.055823
N98	N	0.015495	-0.629442	1.236831
C99	C	0.036087	-0.491140	0.455465
C100	C	0.153325	-0.608283	0.455364
C101	C	0.083488	-0.678322	0.595370
C102	C	-0.033750	-0.561180	0.595470
C103	C	0.637601	-0.654732	0.618548
C104	C	0.637509	-0.654422	0.501245
C105	C	0.637362	-0.514403	0.431560
C106	C	0.637458	-0.514713	0.548862
C107	C	0.153215	-0.006966	0.455158
C108	C	0.035916	-0.007114	0.455550
C109	C	-0.033739	-0.007106	0.595527
C110	C	0.083600	-0.007076	0.595174
C111	C	-0.010020	-0.491238	1.102888
C112	C	-0.009698	-0.608550	1.102828
C113	C	0.130276	-0.678293	1.102853
C114	C	0.129961	-0.560974	1.102892
H115	H	0.018524	-0.494668	0.964293
H116	H	0.027560	-0.448192	0.421017
C117	C	0.072524	-0.007118	0.360566
C118	C	0.024318	-0.007123	0.409125
H119	H	0.065361	-0.007120	0.331904
H120	H	0.103401	-0.039939	0.369367
H121	H	0.081495	0.025716	0.347489
H122	H	0.015348	-0.039960	0.422204
H123	H	-0.006569	0.025702	0.400323
C124	C	0.192060	-0.761180	1.151234
C125	C	0.176900	-0.736219	1.102841
H126	H	0.220846	-0.796939	1.151223
H127	H	0.159902	-0.766137	1.184051
H128	H	0.205722	-0.737395	1.151240
H129	H	0.163234	-0.760002	1.102836
H130	H	0.209065	-0.731265	1.070015
H131	H	0.164358	-0.552401	1.102897
H132	H	0.054276	-0.458811	0.856808
C133	C	0.589110	-0.681619	0.476470
C134	C	0.637526	-0.700873	0.489670
H135	H	0.589120	-0.710298	0.469329
H136	H	0.589069	-0.648676	0.443770
H137	H	0.556307	-0.672835	0.507367
H138	H	0.670329	-0.709653	0.458772
H139	H	0.637572	-0.733827	0.522374
H140	H	0.637450	-0.480310	0.557440
H141	H	-0.076633	-0.007113	0.630069
H142	H	0.637649	-0.689271	0.661445
H143	H	0.194117	-0.582425	0.964198
H144	H	0.196022	-0.006699	0.420530
C145	C	-0.154926	-0.790879	0.507429
C146	C	-0.125662	-0.752408	0.478614
H147	H	-0.194137	-0.770737	0.513041
H148	H	-0.149510	-0.813976	0.543065
H149	H	-0.140982	-0.814010	0.485716
H150	H	-0.139604	-0.729280	0.500328
H151	H	-0.131082	-0.729302	0.442972
C152	C	0.276127	-0.584719	0.886748
C153	C	0.246467	-0.550648	0.848253
H154	H	0.315653	-0.594419	0.866626
H155	H	0.266433	-0.618224	0.909855
H156	H	0.266417	-0.564614	0.909864
H157	H	0.256174	-0.570754	0.825140
H158	H	0.256166	-0.517137	0.825136
C159	C	0.246260	-0.674915	0.429032
C160	C	0.211260	-0.619696	0.408795
H161	H	0.282027	-0.681958	0.400283
H162	H	0.229296	-0.701067	0.439342
H163	H	0.251201	-0.679165	0.461191
H164	H	0.206316	-0.615447	0.376638
H165	H	0.228228	-0.593536	0.398478
C166	C	0.150444	-0.007074	0.621198
C167	C	0.095203	-0.007079	0.641603
H168	H	0.157608	-0.007082	0.649865
H169	H	0.154642	0.025756	0.589019
H170	H	0.176547	-0.039899	0.610882
H171	H	0.069100	0.025749	0.651916
H172	H	0.091001	-0.039912	0.673793
C173	C	0.150220	-0.771233	0.621561
C174	C	0.094993	-0.736299	0.641876
H175	H	0.157320	-0.807027	0.650272
H176	H	0.176348	-0.754240	0.611248
H177	H	0.154441	-0.776133	0.589391
H178	H	0.090773	-0.731396	0.674044
H179	H	0.068858	-0.753296	0.652197
C180	C	-0.036494	-0.398267	1.102918
C181	C	-0.056643	-0.433312	1.102900
H182	H	-0.065280	-0.362508	1.102929
H183	H	-0.004340	-0.393312	1.070096
H184	H	-0.026206	-0.415212	1.135749
H185	H	-0.066927	-0.416369	1.070067
H186	H	-0.088808	-0.438266	1.135726
H187	H	0.637300	-0.479859	0.388668
C188	C	-0.012135	-0.440687	0.669401
C189	C	0.043170	-0.449077	0.660991
H190	H	-0.038256	-0.417570	0.692523
H191	H	-0.017813	-0.476200	0.687491
H192	H	-0.017845	-0.422590	0.633891
H193	H	0.048882	-0.467177	0.696501
H194	H	0.048851	-0.413557	0.642902
H195	H	-0.076669	-0.552723	0.629962
C196	C	-0.069101	-0.665613	1.151121
C197	C	-0.056114	-0.620098	1.102758
H198	H	-0.097754	-0.672743	1.151074
H199	H	-0.082198	-0.656636	1.183958
H200	H	-0.036159	-0.698330	1.151122
H201	H	-0.089055	-0.587380	1.102758
H202	H	-0.043019	-0.629072	1.069911
C203	C	0.260088	-0.600446	0.509493
C204	C	0.204783	-0.592062	0.517908
H205	H	0.286209	-0.623554	0.486362
H206	H	0.265804	-0.618544	0.544995
H207	H	0.265761	-0.564925	0.491404
H208	H	0.199109	-0.627583	0.536001
H209	H	0.199065	-0.573965	0.482399
C210	C	0.260545	-0.501191	0.529719
C211	C	0.246266	-0.550593	0.559347
H212	H	0.300078	-0.510895	0.519986
H213	H	0.240449	-0.478090	0.552844
H214	H	0.250802	-0.481089	0.496228
H215	H	0.256006	-0.570693	0.592840
H216	H	0.266370	-0.573703	0.536221
C217	C	0.421493	-0.655358	0.651622
C218	C	0.382963	-0.600450	0.648437
H219	H	0.401400	-0.681188	0.670731
H220	H	0.444619	-0.665266	0.671798
H221	H	0.444585	-0.656857	0.614494
H222	H	0.359874	-0.598950	0.685564
H223	H	0.359827	-0.590539	0.628261
C224	C	-0.012667	-0.460895	0.570179
C225	C	0.001685	-0.490541	0.619552
H226	H	-0.052201	-0.451185	0.579913
H227	H	0.007425	-0.484001	0.547059
H228	H	-0.002966	-0.427389	0.550086
H229	H	-0.008012	-0.524051	0.639644
H230	H	-0.018413	-0.467435	0.642682
H231	H	0.498884	-0.625426	0.604536
H232	H	0.498841	-0.451490	0.538213
H233	H	0.391352	-0.415667	0.574082
H234	H	0.185713	-0.253197	0.519589
H235	H	0.149834	-0.145702	0.483792
H236	H	0.062174	-0.145744	0.659359
H237	H	0.098041	-0.253238	0.695156
H238	H	-0.029909	-0.543201	0.241439
H239	H	-0.065911	-0.578960	0.348925
H240	H	0.021795	-0.754566	0.349042
C241	C	0.075811	-0.785074	0.271667
C242	C	0.067502	-0.729785	0.233118
H243	H	0.098945	-0.811228	0.251586
H244	H	0.040277	-0.790712	0.294713
H245	H	0.093853	-0.790779	0.294838
H246	H	0.049456	-0.724079	0.209950
H247	H	0.103042	-0.724145	0.210062
H248	H	-0.065985	-0.578958	0.399332
C249	C	-0.068253	-0.496930	0.397030
C250	C	-0.034276	-0.526590	0.431207
H251	H	-0.077916	-0.457401	0.387289
H252	H	-0.101780	-0.506580	0.417069
H253	H	-0.048101	-0.506689	0.363547
H254	H	-0.054430	-0.516834	0.464692
H255	H	-0.000744	-0.516935	0.411167
H256	H	0.057315	-0.718782	0.523258
H257	H	0.021552	-0.754553	0.487300
H258	H	0.064741	-0.761071	0.410254
C259	C	0.147465	-0.862756	0.385711
C260	C	0.116947	-0.877032	0.443773
H261	H	0.186679	-0.882906	0.380077
H262	H	0.141186	-0.823239	0.369918
H263	H	0.135233	-0.872450	0.367764
H264	H	0.129176	-0.867334	0.461720
H265	H	0.123230	-0.916558	0.459573
C266	C	-0.069735	-0.910841	0.490419
C267	C	-0.084341	-0.876758	0.520171
H268	H	-0.095613	-0.930875	0.509490
H269	H	-0.032517	-0.937023	0.488317
H270	H	-0.071180	-0.887737	0.453273
H271	H	-0.082892	-0.899862	0.557315
H272	H	-0.121569	-0.850572	0.522278
H273	H	-0.116569	-0.710512	0.530934
H274	H	-0.223743	-0.586821	0.390905
C275	C	-0.218272	-0.737542	0.607703
C276	C	-0.232533	-0.678615	0.583164
H277	H	-0.238442	-0.747227	0.647220
H278	H	-0.178764	-0.754218	0.601532
H279	H	-0.227950	-0.751143	0.591004
H280	H	-0.222851	-0.665015	0.599860
H281	H	-0.272050	-0.661932	0.589340
C282	C	-0.146219	-0.584610	0.308950
C283	C	-0.107782	-0.618714	0.338674
H284	H	-0.126055	-0.574935	0.269432
H285	H	-0.169323	-0.551092	0.318635
H286	H	-0.169342	-0.604680	0.318617
H287	H	-0.084662	-0.598643	0.329009
H288	H	-0.084668	-0.652238	0.328984
