data_functionalizedCrystal
_audit_creation_method	'MofGen! by Chris Wilmer'
_symmetry_space_group_name_H-M	'P1'
_symmetry_Int_Tables_number	1
_symmetry_cell_setting	triclinic
loop_
_symmetry_equiv_pos_as_xyz
  x,y,z
_cell_length_a	14.971486
_cell_length_b	15.944551
_cell_length_c	14.048226
_cell_angle_alpha	89.992615
_cell_angle_beta	89.998499
_cell_angle_gamma	83.556434
loop_
_atom_site_label
_atom_site_type_symbol
_atom_site_fract_x
_atom_site_fract_y
_atom_site_fract_z
O1	O	1.186829	0.109463	-0.079053
O2	O	0.926415	0.122572	-0.079079
O3	O	1.063733	-0.006251	-0.079057
O4	O	1.049510	0.238286	-0.079076
O5	O	1.063717	-0.006258	0.079264
O6	O	0.926398	0.122564	0.079242
O7	O	1.186812	0.109456	0.079268
Zn8	Zn	1.056603	0.116009	0.104392
Zn9	Zn	1.056624	0.116019	-0.104203
O10	O	1.049494	0.238278	0.079246
C11	C	0.893082	0.121982	0.000078
C12	C	0.793787	0.120225	0.000068
C13	C	0.736480	0.195904	0.000064
C14	C	0.643182	0.194249	0.000078
C15	C	0.607194	0.116913	0.000090
C16	C	0.664508	0.041227	0.000097
C17	C	0.757804	0.042884	0.000090
C18	C	0.470049	0.037780	0.000111
C19	C	0.376747	0.036123	0.000116
C20	C	0.355428	0.189145	0.000099
C21	C	0.448724	0.190801	0.000092
C22	C	0.506032	0.115116	0.000097
C23	C	1.063134	-0.037549	0.000104
C24	C	1.061364	-0.130797	0.000104
C25	C	0.972017	-0.345738	0.000082
C26	C	1.013499	-0.406720	0.078148
C27	C	1.058162	-0.301526	0.000096
C28	C	1.013535	-0.406696	-0.077944
C29	C	1.055062	-0.466441	0.000085
C30	C	1.099667	-0.361279	0.078227
C31	C	1.099692	-0.361248	-0.077935
C32	C	1.141236	-0.422212	0.000150
C33	C	1.059945	-0.206522	0.000104
C34	C	1.053286	-0.561444	0.000084
C35	C	1.220145	0.110046	0.000109
C36	C	1.319440	0.111802	0.000112
C37	C	1.050093	0.269576	0.000083
C38	C	1.051863	0.362824	0.000076
N39	N	1.056594	0.116001	0.246753
N40	N	1.056640	0.116019	-0.246564
C41	C	1.117418	0.058982	0.296581
C42	C	1.117424	0.058982	0.396238
C43	C	1.056610	0.116005	0.446066
C44	C	0.995780	0.173027	0.396231
C45	C	0.995770	0.173022	0.296575
C46	C	0.995806	0.173033	0.603945
C47	C	0.995816	0.173038	0.703608
C48	C	1.117459	0.058992	0.703608
C49	C	1.117450	0.058988	0.603952
C50	C	1.056621	0.116011	0.554124
H51	H	0.478022	0.253775	0.000073
O52	O	1.226559	-0.461819	0.000138
C53	C	1.320743	-0.594695	-0.000574
C54	C	1.224070	-0.549954	-0.000573
H55	H	1.318762	-0.665959	-0.001128
H56	H	1.357739	-0.575233	-0.066515
H57	H	1.357301	-0.576005	0.065995
H58	H	1.187435	-0.568621	-0.067097
H59	H	1.187141	-0.569418	0.065413
H60	H	1.166951	0.012552	0.436808
H61	H	0.900512	-0.312499	0.000153
O62	O	0.771543	0.270978	0.000176
C63	C	0.864461	0.361675	0.082205
C64	C	0.824833	0.276616	0.082184
H65	H	0.907539	0.366269	0.148511
H66	H	0.907660	0.366292	0.015988
H67	H	0.807458	0.415467	0.082159
H68	H	0.881778	0.222776	0.082263
H69	H	0.781610	0.272073	0.148395
O70	O	0.936840	0.228460	0.555435
C71	C	0.917797	0.343175	0.442942
C72	C	0.984666	0.280439	0.497804
H73	H	0.956438	0.385229	0.396349
H74	H	0.873123	0.306885	0.396234
H75	H	0.874317	0.383898	0.495688
H76	H	1.028206	0.239701	0.445126
H77	H	1.029278	0.316781	0.544526
H78	H	0.946259	0.219453	0.436807
H79	H	0.946240	0.219452	0.256006
O80	O	1.176558	0.003517	0.555695
C81	C	1.297248	-0.109568	0.566206
C82	C	1.230344	-0.046804	0.620975
H83	H	1.340764	-0.150257	0.618961
H84	H	1.258672	-0.151649	0.519590
H85	H	1.341881	-0.073215	0.519509
H86	H	1.185695	-0.083088	0.667724
H87	H	1.268976	-0.004724	0.667531
O88	O	0.936644	0.228449	0.751865
C89	C	0.815995	0.341573	0.741355
C90	C	0.882951	0.278858	0.686585
H91	H	0.772580	0.382357	0.688600
H92	H	0.771270	0.305264	0.787994
H93	H	0.854618	0.383567	0.788028
H94	H	0.844401	0.236848	0.639860
H95	H	0.927675	0.315219	0.640006
O96	O	0.813511	-0.030609	0.000258
C97	C	0.931260	-0.117527	0.082253
C98	C	0.868211	-0.034272	0.082187
H99	H	0.975514	-0.120508	0.148475
H100	H	0.889558	-0.173119	0.082322
H101	H	0.975428	-0.120565	0.015963
H102	H	0.824030	-0.031152	0.148465
H103	H	0.909967	0.021281	0.082068
O104	O	0.969883	-0.430704	0.156805
C105	C	0.831419	-0.418572	0.245765
C106	C	0.880706	-0.391363	0.156641
H107	H	0.759317	-0.386763	0.245672
H108	H	0.830997	-0.490026	0.245368
H109	H	0.867487	-0.399025	0.312277
H110	H	0.844677	-0.410852	0.090082
H111	H	0.881136	-0.319911	0.157122
H112	H	1.166988	0.012562	0.744184
O113	O	1.143001	-0.337203	-0.156761
C114	C	1.146593	-0.332851	-0.328164
C115	C	1.097457	-0.360114	-0.238965
H116	H	1.109801	-0.351379	-0.394649
H117	H	1.148062	-0.261525	-0.327091
H118	H	1.218340	-0.365521	-0.328783
H119	H	1.025689	-0.327504	-0.238288
H120	H	1.096060	-0.431447	-0.240073
H121	H	0.977095	-0.426804	-0.143948
H122	H	0.596526	0.255875	0.000074
H123	H	0.308763	0.250771	0.000099
H124	H	0.347448	-0.026851	0.000127
O125	O	1.143030	-0.337252	0.157023
C126	C	1.193390	-0.221867	0.245399
C127	C	1.144250	-0.248961	0.156134
H128	H	1.194409	-0.150485	0.244699
H129	H	1.156910	-0.240916	0.311871
H130	H	1.265296	-0.254161	0.245677
H131	H	1.072343	-0.216681	0.155764
H132	H	1.180800	-0.229928	0.089703
H133	H	1.166943	0.012551	0.256017
O134	O	0.525592	-0.035819	0.000069
C135	C	0.536897	-0.187770	0.000123
C136	C	0.473893	-0.104487	0.000158
H137	H	0.495124	-0.243310	0.000215
H138	H	0.581085	-0.190869	-0.066156
H139	H	0.581134	-0.190781	0.066359
H140	H	0.429600	-0.101419	-0.066033
H141	H	0.429766	-0.101422	0.066480
H142	H	0.635199	-0.021741	0.000121
