data_functionalizedCrystal
_audit_creation_method	'MofGen! by Chris Wilmer'
_symmetry_space_group_name_H-M	'P1'
_symmetry_Int_Tables_number	1
_symmetry_cell_setting	triclinic
loop_
_symmetry_equiv_pos_as_xyz
  x,y,z
_cell_length_a	12.759401
_cell_length_b	10.686285
_cell_length_c	12.759393
_cell_angle_alpha	85.601997
_cell_angle_beta	89.981504
_cell_angle_gamma	85.631983
loop_
_atom_site_label
_atom_site_type_symbol
_atom_site_fract_x
_atom_site_fract_y
_atom_site_fract_z
Zn1	Zn	1.638392	-0.502271	-0.561964
Zn2	Zn	1.651790	-0.713314	-0.372831
Zn3	Zn	1.462698	-0.502337	-0.386299
Zn4	Zn	1.476180	-0.713217	-0.548479
O5	O	1.557265	-0.607785	-0.467393
O6	O	1.787191	-0.530279	-0.536882
O7	O	1.626671	-0.685396	-0.227592
O8	O	1.474756	-0.325751	-0.420881
O9	O	1.797034	-0.685332	-0.397927
O10	O	1.603837	-0.325703	-0.549942
O11	O	1.487747	-0.530392	-0.237487
O12	O	1.317465	-0.530298	-0.407805
O13	O	1.497733	-0.685167	-0.697293
O14	O	1.327370	-0.685231	-0.526958
O15	O	1.616910	-0.530185	-0.707200
O16	O	1.639744	-0.889878	-0.384851
O17	O	1.510724	-0.889807	-0.513898
C18	C	1.284296	-0.607762	-0.467380
C19	C	1.167521	-0.607782	-0.467398
C20	C	1.117852	-0.688585	-0.529321
C21	C	1.008129	-0.688601	-0.529332
C22	C	0.997753	-0.527008	-0.405486
C23	C	1.107474	-0.526986	-0.405482
C24	C	1.123842	-0.781883	-0.600819
C25	C	1.014119	-0.781899	-0.600829
C26	C	1.578179	-0.935627	-0.446473
C27	C	1.587222	-1.075879	-0.437558
C28	C	1.831300	-0.607809	-0.467406
C29	C	1.948077	-0.607819	-0.467412
C30	C	1.557331	-0.607658	-0.741435
C31	C	1.557358	-0.607603	-0.858215
C32	C	1.536298	-0.278662	-0.488418
C33	C	1.527363	-0.138410	-0.497378
C34	C	1.619422	-0.526897	-0.918238
C35	C	1.619445	-0.526851	-1.027965
C36	C	1.495336	-0.688230	-1.017635
C37	C	1.495309	-0.688268	-0.907911
C38	C	1.691079	-0.433730	-0.924202
C39	C	1.691101	-0.433684	-1.033929
C40	C	1.557255	-0.607821	-0.194423
C41	C	1.557407	-0.607519	-0.077666
H42	H	0.948850	-0.461226	-0.355078
H43	H	0.990575	-0.879603	-0.572669
H44	H	1.645384	-1.129647	-0.379512
C45	C	1.229677	-0.509206	-0.265317
C46	C	1.162070	-0.438156	-0.337423
H47	H	1.263385	-0.454359	-0.223305
H48	H	1.190368	-0.564117	-0.221549
H49	H	1.281140	-0.557311	-0.302200
H50	H	1.110602	-0.390057	-0.300540
H51	H	1.201382	-0.383223	-0.381197
C52	C	1.075143	-0.725361	-0.780966
C53	C	1.161841	-0.746692	-0.712951
H54	H	1.098605	-0.703628	-0.850187
H55	H	1.038532	-0.799527	-0.780559
H56	H	1.029504	-0.658445	-0.758286
H57	H	1.207477	-0.813615	-0.735627
H58	H	1.198469	-0.672517	-0.713362
C59	C	1.101302	-0.989415	-0.522113
C60	C	1.177785	-0.907134	-0.553311
H61	H	1.134608	-1.066740	-0.492788
H62	H	1.057051	-0.952825	-0.471005
H63	H	1.060390	-1.004496	-0.581395
H64	H	1.218692	-0.892045	-0.494026
H65	H	1.222054	-0.943732	-0.604422
H66	H	1.444767	-0.753982	-0.859044
H67	H	1.770592	-0.468762	-0.887933
H68	H	1.469198	-1.084650	-0.555414
C69	C	1.440272	-0.759829	-1.181250
C70	C	1.427144	-0.776904	-1.072265
H71	H	1.398178	-0.814583	-1.214971
H72	H	1.419496	-0.675051	-1.204646
H73	H	1.512047	-0.778297	-1.198045
H74	H	1.355370	-0.758427	-1.055469
H75	H	1.447914	-0.861702	-1.048860
H76	H	0.977889	-0.747016	-0.680405
C77	C	1.630312	-0.221776	-0.982909
C78	C	1.653241	-0.301820	-0.892431
H79	H	1.606946	-0.140346	-0.963291
H80	H	1.691724	-0.216451	-1.024605
H81	H	1.576701	-0.254237	-1.022183
H82	H	1.706858	-0.269363	-0.853160
H83	H	1.591821	-0.307140	-0.850718
C84	C	1.871168	-0.490524	-0.985159
C85	C	1.803201	-0.469032	-1.071886
H86	H	1.940368	-0.512354	-1.008594
H87	H	1.870868	-0.416390	-0.948546
H88	H	1.848369	-0.557421	-0.939527
H89	H	1.825996	-0.402128	-1.117514
H90	H	1.803505	-0.543175	-1.108516
H91	H	1.656047	-0.340834	-1.073896
