data_functionalizedCrystal
_audit_creation_method	'MofGen! by Chris Wilmer'
_symmetry_space_group_name_H-M	'P1'
_symmetry_Int_Tables_number	1
_symmetry_cell_setting	triclinic
loop_
_symmetry_equiv_pos_as_xyz
  x,y,z
_cell_length_a	14.628931
_cell_length_b	14.560438
_cell_length_c	14.560438
_cell_angle_alpha	60.000095
_cell_angle_beta	90.000856
_cell_angle_gamma	59.997216
loop_
_atom_site_label
_atom_site_type_symbol
_atom_site_fract_x
_atom_site_fract_y
_atom_site_fract_z
Zr1	Zr	0.880554	1.005327	-0.120546
O2	O	0.734578	1.196940	-0.267198
O3	O	0.925311	0.813716	-0.075587
O4	O	0.925295	1.005330	-0.267195
O5	O	0.734598	1.005324	0.075550
O6	O	1.075727	1.005330	-0.267196
O7	O	0.734594	1.005326	-0.075591
O8	O	1.075756	0.662568	0.075556
O9	O	0.734568	1.348085	-0.267201
O10	O	1.056656	0.892528	-0.056416
O11	O	0.944393	0.892526	0.056379
O12	O	0.944374	1.118126	-0.169215
O13	O	0.832111	1.118124	-0.056420
Zr14	Zr	1.120481	1.005323	0.120505
Zr15	Zr	1.120475	1.005327	-0.120547
Zr16	Zr	0.880560	1.005323	0.120506
Zr17	Zr	0.880539	1.246387	-0.120551
Zr18	Zr	1.120496	0.764263	0.120510
O19	O	1.075724	1.196934	0.075546
O20	O	1.075715	1.196940	-0.267199
O21	O	0.734586	1.196934	0.075547
O22	O	1.266457	0.813710	0.267157
O23	O	1.266449	0.813716	-0.075588
O24	O	0.925320	0.813710	0.267158
O25	O	1.266437	1.005326	-0.075592
O26	O	1.075740	1.005321	0.267154
O27	O	0.925308	1.005321	0.267154
O28	O	1.266441	1.005324	0.075549
O29	O	0.925274	1.348085	-0.267202
O30	O	1.075761	0.662565	0.267160
O31	O	1.266467	0.662565	0.267160
O32	O	1.266462	0.662568	0.075556
O33	O	0.734573	1.348082	-0.075597
O34	O	0.925279	1.348082	-0.075597
O35	O	1.056661	0.892524	0.169173
O36	O	1.168924	0.892526	0.056378
O37	O	1.056642	1.118124	-0.056420
O38	O	0.944379	1.118122	0.056375
C39	C	1.000536	0.703796	-0.000015
C40	C	1.000542	0.601460	-0.000013
C41	C	1.083388	0.373967	0.083244
C42	C	1.083415	0.470102	0.083249
C43	C	0.917643	0.636683	-0.083294
C44	C	0.917621	0.540549	-0.083303
C45	C	0.700412	1.005325	-0.000020
C46	C	0.598559	1.005325	-0.000020
C47	C	0.553148	1.005326	-0.079150
C48	C	0.447878	1.005326	-0.079152
C49	C	1.300623	1.005325	-0.000021
C50	C	1.402476	1.005325	-0.000021
C51	C	1.000510	1.005330	-0.301540
C52	C	1.000507	1.005332	-0.403873
C53	C	1.000499	1.306854	-0.000026
C54	C	1.000493	1.409190	-0.000028
C55	C	0.941898	1.123090	-0.510829
C56	C	0.941912	1.123084	-0.606978
C57	C	1.059144	0.887551	-0.489201
C58	C	1.059137	0.887559	-0.393055
C59	C	1.000525	1.005320	0.301499
C60	C	1.000528	1.005318	0.403832
C61	C	1.300641	0.703796	-0.000016
C62	C	1.402500	0.601460	-0.000014
C63	C	1.000543	0.703791	0.301504
C64	C	1.000552	0.601453	0.403839
C65	C	1.300649	0.703791	0.301504
C66	C	1.402510	0.601453	0.403838
C67	C	0.700386	1.306859	-0.301545
C68	C	0.598525	1.409197	-0.403880
C69	C	0.700394	1.306854	-0.000026
C70	C	0.598535	1.409190	-0.000027
C71	C	1.000492	1.306859	-0.301546
C72	C	1.000483	1.409197	-0.403881
C73	C	1.391754	0.553381	-0.058888
C74	C	1.487465	0.457233	-0.058891
C75	C	1.604666	0.457248	0.058865
C76	C	1.508956	0.553401	0.058860
C77	C	1.059158	0.553372	0.510794
C78	C	1.059154	0.457224	0.606944
C79	C	0.941936	0.457243	0.489172
C80	C	0.941934	0.553396	0.393024
C81	C	1.508965	0.553373	0.393041
C82	C	1.604671	0.457225	0.489199
C83	C	1.487454	0.457240	0.606949
C84	C	1.391750	0.553394	0.510792
H85	H	0.850170	0.743644	-0.151091
C86	C	1.247259	0.295784	0.247876
C87	C	1.174532	0.431381	0.174790
H88	H	1.303509	0.271880	0.304394
H89	H	1.281292	0.261745	0.206748
H90	H	1.206300	0.261769	0.282068
H91	H	1.215490	0.465395	0.140592
H92	H	1.140497	0.465434	0.215924
C93	C	0.638076	0.894269	-0.165528
C94	C	0.605868	1.005324	-0.170607
H95	H	0.670627	0.894266	-0.221987
H96	H	0.574250	0.894282	-0.177534
H97	H	0.691209	0.818941	-0.093620
H98	H	0.552727	1.080652	-0.242513
H99	H	0.669702	1.005323	-0.158609
H100	H	0.559507	1.005317	0.067729
H101	H	1.691352	0.418105	0.106799
H102	H	1.106869	0.791660	-0.305960
C103	C	1.285524	0.543712	-0.175291
C104	C	1.274738	0.606218	-0.123611
H105	H	1.213283	0.576339	-0.215256
H106	H	1.325295	0.452943	-0.119574
H107	H	1.325294	0.559484	-0.226107
H108	H	1.234975	0.590439	-0.072788
H109	H	1.234950	0.697008	-0.179335
H110	H	1.478707	0.418096	0.694040
C111	C	0.393051	1.005348	0.164597
C112	C	0.455172	1.005341	0.091436
H113	H	0.425584	1.005370	0.221051
H114	H	0.393224	0.930011	0.198856
H115	H	0.318218	1.080683	0.123500
H116	H	0.530003	0.930000	0.132532
H117	H	0.455011	1.080686	0.057174
C118	C	1.124274	0.169224	0.235384
C119	C	1.174484	0.229578	0.174772
H120	H	1.180518	0.080087	0.291894
H121	H	1.074912	0.176437	0.185792
H122	H	1.083353	0.210206	0.269588
H123	H	1.215398	0.188602	0.140561
H124	H	1.223865	0.222356	0.224372
H125	H	1.305064	0.592544	0.519593
H126	H	0.850116	0.569241	-0.151119
H127	H	0.408823	1.005335	-0.146903
H128	H	0.894159	1.218988	-0.519644
C129	C	0.826020	1.355894	-0.713729
C130	C	0.877480	1.252527	-0.724546
H131	H	0.786237	1.435809	-0.786314
H132	H	0.881467	1.351004	-0.673780
H133	H	0.775441	1.350980	-0.673773
H134	H	0.928066	1.257436	-0.764495
H135	H	0.822027	1.257420	-0.764512
H136	H	1.106884	0.592502	0.519606
H137	H	1.106876	0.791665	-0.480406
C138	C	1.582138	0.309834	-0.111171
C139	C	1.475652	0.404376	-0.123600
H140	H	1.574840	0.277210	-0.151128
H141	H	1.621902	0.240818	-0.033717
H142	H	1.621882	0.347368	-0.140259
H143	H	1.435911	0.366840	-0.094504
H144	H	1.435872	0.473404	-0.201070
C145	C	1.634415	0.543756	0.175271
C146	C	1.520766	0.606253	0.123583
H147	H	1.641701	0.576384	0.215229
H148	H	1.669302	0.559522	0.119559
H149	H	1.669312	0.452975	0.226095
H150	H	1.485870	0.697034	0.072753
H151	H	1.485865	0.590497	0.179302
C152	C	1.175030	0.466855	0.713691
C153	C	1.123582	0.404366	0.724511
H154	H	1.214812	0.434217	0.786275
H155	H	1.119577	0.557625	0.673742
H156	H	1.225610	0.451083	0.673734
H157	H	1.072996	0.420147	0.764462
H158	H	1.179042	0.313575	0.764477
H159	H	0.894213	0.418101	0.480380
H160	H	0.894205	0.592548	0.305930
H161	H	1.517732	0.592503	0.305958
C162	C	1.710914	0.466860	0.363144
C163	C	1.721689	0.404369	0.477328
H164	H	1.783159	0.434223	0.355817
H165	H	1.671148	0.557630	0.328085
H166	H	1.671144	0.451088	0.328100
H167	H	1.761452	0.420149	0.512371
H168	H	1.761472	0.313578	0.512402
