data_functionalizedCrystal
_audit_creation_method	'MofGen! by Chris Wilmer'
_symmetry_space_group_name_H-M	'P1'
_symmetry_Int_Tables_number	1
_symmetry_cell_setting	triclinic
loop_
_symmetry_equiv_pos_as_xyz
  x,y,z
_cell_length_a	17.077404
_cell_length_b	12.594516
_cell_length_c	17.077396
_cell_angle_alpha	90.023145
_cell_angle_beta	90.019501
_cell_angle_gamma	90.016278
loop_
_atom_site_label
_atom_site_type_symbol
_atom_site_fract_x
_atom_site_fract_y
_atom_site_fract_z
Zn1	Zn	1.200092	-0.423736	0.443872
Zn2	Zn	1.533425	-0.090402	0.777205
Zn3	Zn	1.866759	0.242931	1.110539
Zn4	Zn	1.200015	-0.601736	0.312618
Zn5	Zn	1.533348	-0.268403	0.645951
Zn6	Zn	1.866681	0.064930	0.979285
Zn7	Zn	1.068824	-0.423773	0.312620
Zn8	Zn	1.402157	-0.090440	0.645953
Zn9	Zn	1.735490	0.242894	0.979286
Zn10	Zn	1.068807	-0.601673	0.443842
Zn11	Zn	1.402141	-0.268340	0.777175
Zn12	Zn	1.735474	0.064993	1.110508
O13	O	1.134434	-0.512730	0.378238
O14	O	1.467768	-0.179396	0.711571
O15	O	1.801101	0.153937	1.044904
O16	O	1.309929	-0.447359	0.426473
O17	O	1.643262	-0.114025	0.759806
O18	O	1.976595	0.219308	1.093139
O19	O	1.182586	-0.578171	0.202771
O20	O	1.515920	-0.244838	0.536105
O21	O	1.849253	0.088495	0.869438
O22	O	1.086276	-0.274822	0.330044
O23	O	1.419609	0.058511	0.663377
O24	O	1.752943	0.391844	0.996711
O25	O	1.309872	-0.578135	0.330041
O26	O	1.643205	-0.244802	0.663374
O27	O	1.976538	0.088532	0.996708
O28	O	1.182718	-0.274795	0.426474
O29	O	1.516051	0.058538	0.759808
O30	O	1.849385	0.391872	1.093141
O31	O	1.086201	-0.447422	0.202773
O32	O	1.419534	-0.114089	0.536106
O33	O	1.752868	0.219244	0.869439
O34	O	0.958975	-0.447361	0.330015
O35	O	1.292308	-0.114028	0.663348
O36	O	1.625641	0.219306	0.996681
O37	O	1.086248	-0.578027	0.553693
O38	O	1.419581	-0.244694	0.887026
O39	O	1.752915	0.088639	1.220359
O40	O	0.958963	-0.578064	0.426423
O41	O	1.292296	-0.244730	0.759756
O42	O	1.625629	0.088603	1.093090
O43	O	1.182702	-0.447297	0.553715
O44	O	1.516036	-0.113964	0.887048
O45	O	1.849369	0.219369	1.220381
O46	O	1.182571	-0.750674	0.330012
O47	O	1.515904	-0.417341	0.663345
O48	O	1.849237	-0.084007	0.996678
O49	O	1.086173	-0.750627	0.426421
O50	O	1.419506	-0.417294	0.759755
O51	O	1.752840	-0.083961	1.093088
C52	C	0.930487	-0.512710	0.378216
C53	C	1.263820	-0.179377	0.711549
C54	C	1.597153	0.153956	1.044883
C55	C	0.843237	-0.512728	0.378226
C56	C	1.176570	-0.179394	0.711559
C57	C	1.509903	0.153939	1.044892
C58	C	1.134383	-0.789271	0.378230
C59	C	1.467716	-0.455937	0.711563
C60	C	1.801050	-0.122604	1.044897
C61	C	1.134433	-0.907576	0.378253
C62	C	1.467766	-0.574243	0.711586
C63	C	1.801099	-0.240909	1.044920
C64	C	0.802261	-0.580887	0.428345
C65	C	1.135594	-0.247554	0.761678
C66	C	1.468928	0.085779	1.095011
C67	C	0.720280	-0.580890	0.428357
C68	C	1.053614	-0.247556	0.761691
C69	C	1.386947	0.085777	1.095024
C70	C	0.679277	-0.512737	0.378246
C71	C	1.012611	-0.179404	0.711579
C72	C	1.345944	0.153930	1.044913
C73	C	0.720259	-0.444570	0.328125
C74	C	1.053592	-0.111237	0.661458
C75	C	1.386926	0.222097	0.994791
C76	C	0.802238	-0.444563	0.328117
C77	C	1.135571	-0.111230	0.661450
C78	C	1.468905	0.222104	0.994783
C79	C	0.549389	-0.444591	0.328144
C80	C	0.882722	-0.111258	0.661477
C81	C	1.216056	0.222076	0.994810
C82	C	0.467404	-0.444599	0.328150
C83	C	0.800738	-0.111266	0.661484
C84	C	1.134071	0.222068	0.994817
C85	C	0.467431	-0.580917	0.428384
C86	C	0.800765	-0.247584	0.761717
C87	C	1.134098	0.085749	1.095051
C88	C	0.549410	-0.580910	0.428376
C89	C	0.882744	-0.247577	0.761709
C90	C	1.216077	0.085756	1.095043
C91	C	0.590386	-0.512745	0.378253
C92	C	0.923720	-0.179411	0.711587
C93	C	1.257053	0.153922	1.044920
C94	C	1.081997	-0.976843	0.430653
C95	C	1.415330	-0.643509	0.763987
C96	C	1.748664	-0.310176	1.097320
C97	C	1.062873	-1.047703	0.359026
C98	C	1.396206	-0.714370	0.692359
C99	C	1.729540	-0.381036	1.025692
C100	C	1.153628	-1.047515	0.449893
C101	C	1.486962	-0.714181	0.783226
C102	C	1.820295	-0.380848	1.116560
C103	C	1.115271	-0.976878	0.306587
C104	C	1.448604	-0.643545	0.639921
C105	C	1.781938	-0.310211	0.973254
C106	C	1.206059	-0.976684	0.397503
C107	C	1.539393	-0.643350	0.730837
C108	C	1.872726	-0.310017	1.064170
C109	C	1.186963	-1.047512	0.325826
C110	C	1.520296	-0.714179	0.659159
C111	C	1.853629	-0.380845	0.992493
C112	C	1.339179	-0.512750	0.378260
C113	C	1.672512	-0.179416	0.711593
C114	C	2.005845	0.153917	1.044927
C115	C	1.426428	-0.512758	0.378269
C116	C	1.759762	-0.179425	0.711603
C117	C	2.093095	0.153908	1.044936
C118	C	1.134482	-0.512651	0.582982
C119	C	1.467815	-0.179318	0.916316
C120	C	1.801149	0.154015	1.249649
C121	C	1.134502	-0.512618	0.670232
C122	C	1.467835	-0.179284	1.003565
C123	C	1.801169	0.154049	1.336899
C124	C	1.134507	-0.235109	0.378263
C125	C	1.467841	0.098225	0.711596
C126	C	1.801174	0.431558	1.044929
C127	C	1.134539	-0.116803	0.378273
C128	C	1.467872	0.216530	0.711607
C129	C	1.801205	0.549863	1.044940
C130	C	1.134432	-0.512731	0.174290
C131	C	1.467766	-0.179398	0.507623
C132	C	1.801099	0.153936	0.840957
C133	C	1.134564	-0.512465	0.087041
C134	C	1.467897	-0.179131	0.420374
C135	C	1.801231	0.154202	0.753707
C136	C	1.184728	-0.444541	0.711235
C137	C	1.518061	-0.111208	1.044568
C138	C	1.851394	0.222126	1.377902
C139	C	1.184737	-0.444506	0.793216
C140	C	1.518070	-0.111172	1.126549
C141	C	1.851404	0.222161	1.459882
C142	C	1.134524	-0.512553	0.834192
C143	C	1.467858	-0.179220	1.167525
C144	C	1.801191	0.154114	1.500858
C145	C	1.084293	-0.580633	0.793183
C146	C	1.417627	-0.247300	1.126516
C147	C	1.750960	0.086034	1.459849
C148	C	1.084281	-0.580662	0.711204
C149	C	1.417614	-0.247329	1.044537
C150	C	1.750947	0.086005	1.377870
C151	C	1.084325	-0.580569	0.964053
C152	C	1.417658	-0.247236	1.297386
C153	C	1.750992	0.086098	1.630720
C154	C	1.084339	-0.580541	1.046038
C155	C	1.417672	-0.247208	1.379371
C156	C	1.751005	0.086125	1.712704
C157	C	1.184782	-0.444412	1.046065
C158	C	1.518115	-0.111079	1.379398
C159	C	1.851448	0.222254	1.712731
C160	C	1.184769	-0.444442	0.964086
C161	C	1.518102	-0.111108	1.297419
C162	C	1.851435	0.222225	1.630752
C163	C	1.134538	-0.512523	0.923083
C164	C	1.467872	-0.179190	1.256416
C165	C	1.801205	0.154144	1.589749
H166	H	0.835640	-0.636389	0.469149
H167	H	1.168973	-0.303055	0.802482
H168	H	1.502306	0.030278	1.135815
F169	F	0.676674	-0.653434	0.481701
F170	F	1.010008	-0.320101	0.815035
F171	F	1.343341	0.013233	1.148368
H172	H	0.582793	-0.636412	0.469177
H173	H	0.916126	-0.303079	0.802510
H174	H	1.249460	0.030254	1.135843
H175	H	0.434065	-0.636417	0.469198
H176	H	0.767398	-0.303084	0.802532
H177	H	1.100732	0.030249	1.135865
F178	F	1.023937	-0.936281	0.488491
F179	F	1.357270	-0.602947	0.821824
F180	F	1.690603	-0.269614	1.155157
H181	H	1.043410	-0.635991	0.930671
H182	H	1.376743	-0.302658	1.264004
H183	H	1.710077	0.030675	1.597337
F184	F	0.676618	-0.372030	0.274797
F185	F	1.009952	-0.038696	0.608131
F186	F	1.343285	0.294637	0.941464
H187	H	0.434022	-0.389090	0.287355
H188	H	0.767355	-0.055757	0.620688
H189	H	1.100688	0.277576	0.954021
H190	H	0.582749	-0.389073	0.287335
H191	H	0.916082	-0.055740	0.620669
H192	H	1.249416	0.277593	0.954002
H193	H	0.835599	-0.389055	0.287309
H194	H	1.168933	-0.055722	0.620642
H195	H	1.502266	0.277612	0.953975
H196	H	1.169821	-1.078543	0.510470
H197	H	1.503155	-0.745209	0.843804
H198	H	1.836488	-0.411876	1.177137
H199	H	1.231351	-1.078346	0.281470
H200	H	1.564684	-0.745013	0.614804
H201	H	1.898018	-0.411680	0.948137
F202	F	1.285151	-0.935880	0.418808
F203	F	1.618485	-0.602547	0.752141
F204	F	1.951818	-0.269213	1.085474
F205	F	0.983760	-1.088474	0.337747
F206	F	1.317093	-0.755141	0.671080
F207	F	1.650427	-0.421808	1.004414
F208	F	1.030822	-0.653116	0.667566
F209	F	1.364155	-0.319783	1.000899
F210	F	1.697488	0.013551	1.334232
H211	H	1.099008	-0.945978	0.245994
H212	H	1.432341	-0.612645	0.579327
H213	H	1.765675	-0.279312	0.912660
H214	H	1.225619	-0.389132	0.677878
H215	H	1.558953	-0.055799	1.011212
H216	H	1.892286	0.277535	1.344545
F217	F	1.030890	-0.652956	1.089646
F218	F	1.364224	-0.319623	1.422979
F219	F	1.697557	0.013711	1.756313
F220	F	1.238221	-0.372085	0.836850
F221	F	1.571554	-0.038752	1.170184
F222	F	1.904888	0.294581	1.503517
H223	H	1.225661	-0.389037	0.930725
H224	H	1.558994	-0.055704	1.264059
H225	H	1.892327	0.277629	1.597392
H226	H	1.225680	-0.388976	1.079453
H227	H	1.559013	-0.055643	1.412787
H228	H	1.892346	0.277691	1.746120
F229	F	1.030850	-0.653050	0.836795
F230	F	1.364183	-0.319717	1.170128
F231	F	1.697517	0.013616	1.503461
