data_functionalizedCrystal
_audit_creation_method	'MofGen! by Chris Wilmer'
_symmetry_space_group_name_H-M	'P1'
_symmetry_Int_Tables_number	1
_symmetry_cell_setting	triclinic
loop_
_symmetry_equiv_pos_as_xyz
  x,y,z
_cell_length_a	19.188930
_cell_length_b	16.956984
_cell_length_c	16.053802
_cell_angle_alpha	87.610701
_cell_angle_beta	92.551696
_cell_angle_gamma	79.599100
loop_
_atom_site_label
_atom_site_type_symbol
_atom_site_fract_x
_atom_site_fract_y
_atom_site_fract_z
O1	O	0.025799	1.061314	-0.069436
O2	O	0.525799	1.561314	0.430564
O3	O	0.050317	0.829071	-0.069439
O4	O	0.550317	1.329071	0.430561
O5	O	-0.063966	0.951893	-0.069421
O6	O	0.436034	1.451893	0.430579
O7	O	0.140082	0.938491	-0.069454
O8	O	0.640082	1.438491	0.430546
O9	O	-0.057700	0.945133	0.069437
O10	O	0.442300	1.445133	0.569437
O11	O	0.056583	0.822310	0.069419
O12	O	0.556583	1.322310	0.569419
O13	O	0.032065	1.054553	0.069422
O14	O	0.532065	1.554553	0.569422
Zn15	Zn	0.045319	0.937358	0.091467
Zn16	Zn	0.545319	1.437358	0.591467
Zn17	Zn	0.037063	0.946266	-0.091484
Zn18	Zn	0.537063	1.446266	0.408516
O19	O	0.146348	0.931731	0.069404
O20	O	0.646348	1.431731	0.569404
C21	C	0.054706	0.795978	-0.000011
C22	C	0.554706	1.295978	0.499989
C23	C	0.058438	0.707444	-0.000011
C24	C	0.558438	1.207444	0.499989
C25	C	-0.003971	0.675577	0.000000
C26	C	0.496029	1.175577	0.500000
C27	C	-0.000459	0.592390	-0.000006
C28	C	0.499541	1.092390	0.499994
C29	C	0.065461	0.541071	-0.000018
C30	C	0.565461	1.041071	0.499982
C31	C	0.127875	0.572944	-0.000032
C32	C	0.627875	1.072944	0.499968
C33	C	0.124363	0.656130	-0.000032
C34	C	0.624363	1.156130	0.499968
C35	C	0.082845	0.291238	-0.000027
C36	C	0.582845	0.791238	0.499973
C37	C	0.086353	0.208047	-0.000025
C38	C	0.586353	0.708047	0.499975
C39	C	-0.041982	0.227500	-0.000000
C40	C	0.458018	0.727500	0.500000
C41	C	-0.045488	0.310686	0.000005
C42	C	0.454512	0.810686	0.500005
C43	C	0.016925	0.342551	-0.000013
C44	C	0.516925	0.842551	0.499987
N45	N	0.069052	0.456040	-0.000022
N46	N	0.569052	0.956040	0.499978
N47	N	0.013333	0.427581	-0.000015
N48	N	0.513333	0.927581	0.499985
C49	C	-0.086820	0.948079	0.000010
C50	C	0.413180	1.448079	0.500010
C51	C	-0.164252	0.946776	0.000017
C52	C	0.335748	1.446776	0.500017
C53	C	-0.213143	1.018844	0.000022
C54	C	0.286857	1.518844	0.500022
C55	C	-0.285900	1.017621	0.000009
C56	C	0.214100	1.517621	0.500009
C57	C	-0.309762	0.944324	0.000007
C58	C	0.190238	1.444324	0.500007
C59	C	-0.260861	0.872246	-0.000002
C60	C	0.239139	1.372246	0.499998
C61	C	-0.188106	0.873472	0.000003
C62	C	0.311894	1.373472	0.500003
N63	N	-0.412550	0.885996	0.047263
N64	N	0.087450	1.385996	0.547263
N65	N	-0.481665	0.884836	0.047260
N66	N	0.018335	1.384836	0.547260
C67	C	-0.528968	0.940626	-0.000010
C68	C	-0.028968	1.440626	0.499990
N69	N	-0.504546	0.997630	-0.047265
N70	N	-0.004546	1.497630	0.452735
N71	N	-0.435425	0.998792	-0.047258
N72	N	0.064575	1.498792	0.452742
C73	C	-0.388651	0.942986	0.000001
C74	C	0.111349	1.442986	0.500001
C75	C	-0.656751	1.011373	-0.000020
C76	C	-0.156751	1.511373	0.499980
C77	C	-0.729509	1.010146	-0.000039
C78	C	-0.229509	1.510146	0.499961
C79	C	-0.704468	0.864769	-0.000042
C80	C	-0.204468	1.364769	0.499958
C81	C	-0.631712	0.865998	-0.000032
C82	C	-0.131712	1.365998	0.499968
C83	C	-0.607858	0.939302	-0.000017
C84	C	-0.107858	1.439302	0.499983
C85	C	0.169202	0.935545	-0.000029
C86	C	0.669202	1.435545	0.499971
C87	C	0.246634	0.936849	-0.000042
C88	C	0.746634	1.436849	0.499958
C89	C	0.027677	1.087646	-0.000009
C90	C	0.527677	1.587646	0.499991
C91	C	0.023944	1.176180	-0.000013
C92	C	0.523944	1.676180	0.499987
N93	N	0.050953	0.931285	0.216326
N94	N	0.550953	1.431285	0.716326
N95	N	0.031424	0.952345	-0.216344
N96	N	0.531424	1.452345	0.283656
C97	C	0.002340	0.983566	0.260028
C98	C	0.502340	1.483566	0.760028
C99	C	0.006287	0.979325	0.347434
C100	C	0.506287	1.479325	0.847434
C101	C	0.058850	0.922807	0.391137
C102	C	0.558850	1.422807	0.891137
C103	C	0.107465	0.870521	0.347429
C104	C	0.607465	1.370521	0.847429
C105	C	0.103514	0.874759	0.260025
C106	C	0.603514	1.374759	0.760025
C107	C	0.076088	0.904297	0.652544
C108	C	0.576088	1.404297	1.152544
C109	C	0.080036	0.900065	0.739955
C110	C	0.580036	1.400065	1.239955
C111	C	-0.021143	1.008868	0.739954
C112	C	0.478857	1.508868	1.239954
C113	C	-0.025086	1.013104	0.652547
C114	C	0.474914	1.513104	1.152547
C115	C	0.023526	0.960815	0.608847
C116	C	0.523526	1.460815	1.108847
N117	N	0.062888	0.918473	0.480480
N118	N	0.562888	1.418473	0.980480
N119	N	0.019485	0.965146	0.519506
N120	N	0.519485	1.465146	1.019506
H121	H	0.133666	0.317173	-0.000047
H122	H	0.633666	0.817173	0.499953
O123	O	-0.048643	1.038517	0.217523
O124	O	0.451357	1.538517	0.717523
C125	C	-0.016374	1.090033	0.166898
C126	C	0.483626	1.590033	0.666898
H127	H	0.039804	1.089961	0.193220
H128	H	0.539804	1.589961	0.693220
H129	H	-0.048571	1.153557	0.165867
H130	H	0.451429	1.653557	0.665867
H131	H	-0.014262	1.068239	0.100674
H132	H	0.485738	1.568239	0.600674
H133	H	0.175183	0.682074	-0.000037
H134	H	0.675183	1.182074	0.499963
H135	H	0.181548	0.531153	-0.000048
H136	H	0.681548	1.031153	0.499952
H137	H	-0.148298	0.814783	-0.000001
H138	H	0.351702	1.314783	0.499999
O139	O	-0.777102	1.080087	-0.000075
O140	O	-0.277102	1.580087	0.499925
C141	C	-0.846433	1.063288	-0.000069
C142	C	-0.346433	1.563288	0.499931
H143	H	-0.846791	1.001934	-0.026364
H144	H	-0.346791	1.501934	0.473636
H145	H	-0.883889	1.111208	-0.040385
H146	H	-0.383889	1.611208	0.459615
H147	H	-0.864682	1.063139	0.066545
H148	H	-0.364682	1.563139	0.566545
O149	O	-0.190094	1.090121	-0.000006
O150	O	0.309906	1.590121	0.499994
C151	C	-0.248853	1.153468	0.000018
C152	C	0.251147	1.653468	0.500018
H153	H	-0.298227	1.132565	-0.026276
H154	H	0.201773	1.632565	0.473724
H155	H	-0.238403	1.206624	-0.040290
H156	H	0.261597	1.706624	0.459710
H157	H	-0.257444	1.172439	0.066637
H158	H	0.242556	1.672439	0.566637
H159	H	0.122842	0.854039	0.775534
H160	H	0.622842	1.354039	1.275534
H161	H	-0.067887	1.059125	0.616966
H162	H	0.432113	1.559125	1.116966
H163	H	-0.099168	0.352465	0.000019
H164	H	0.400832	0.852465	0.500019
O165	O	-0.067971	0.725512	-0.000100
O166	O	0.432029	1.225512	0.499900
C167	C	-0.077094	0.777699	-0.072025
C168	C	0.422906	1.277699	0.427975
H169	H	-0.022990	0.782887	-0.096008
H170	H	0.477010	1.282887	0.403992
H171	H	-0.105992	0.839524	-0.055847
H172	H	0.394008	1.339524	0.444153
H173	H	-0.109676	0.752889	-0.122379
H174	H	0.390324	1.252889	0.377621
O175	O	-0.102620	0.196576	0.000156
O176	O	0.397380	0.696576	0.500156
C177	C	-0.139281	0.219335	0.072065
C178	C	0.360719	0.719335	0.572065
H179	H	-0.100435	0.234063	0.122328
H180	H	0.399565	0.734063	0.622328
H181	H	-0.164992	0.167866	0.096205
H182	H	0.335008	0.667866	0.596205
H183	H	-0.182059	0.274478	0.055811
H184	H	0.317941	0.774478	0.555811
H185	H	-0.325714	1.076310	0.000010
H186	H	0.174286	1.576310	0.500010
H187	H	-0.280294	0.812567	-0.000006
H188	H	0.219706	1.312567	0.499994
O189	O	-0.633491	1.082531	-0.000128
O190	O	-0.133491	1.582531	0.499872
C191	C	-0.595401	1.091095	-0.072049
C192	C	-0.095401	1.591095	0.427951
H193	H	-0.574711	1.029335	-0.096022
H194	H	-0.074711	1.529335	0.403978
H195	H	-0.548809	1.121930	-0.055869
H196	H	-0.048809	1.621930	0.444131
H197	H	-0.631879	1.128943	-0.122412
H198	H	-0.131879	1.628943	0.377588
H199	H	-0.033297	1.021895	0.383016
H200	H	0.466703	1.521895	0.883016
O201	O	0.150448	0.158310	-0.000081
O202	O	0.650448	0.658310	0.499919
C203	C	0.204784	0.204271	-0.000080
C204	C	0.704784	0.704271	0.499920
H205	H	0.182285	0.267700	-0.026363
H206	H	0.682285	0.767700	0.473637
H207	H	0.248850	0.175394	-0.040408
H208	H	0.748850	0.675394	0.459592
H209	H	0.227155	0.206883	0.066531
H210	H	0.727155	0.706883	0.566531
H211	H	-0.060722	1.051438	0.775542
H212	H	0.439278	1.551438	1.275542
H213	H	0.150261	0.824499	0.383017
H214	H	0.650261	1.324499	0.883017
O215	O	-0.061072	0.561407	-0.000142
O216	O	0.438928	1.061407	0.499858
C217	C	-0.066123	0.517362	-0.072051
C218	C	0.433877	1.017362	0.427949
H219	H	-0.033036	0.539359	-0.122321
H220	H	0.466964	1.039359	0.377679
H221	H	-0.123925	0.526201	-0.096179
H222	H	0.376075	1.026201	0.403821
H223	H	-0.045494	0.450911	-0.055800
H224	H	0.454506	0.950911	0.444200
H225	H	0.143099	0.832186	0.224444
H226	H	0.643099	1.332186	0.724444
H227	H	-0.591903	0.807311	-0.000031
H228	H	-0.091903	1.307311	0.499969
O229	O	-0.727757	0.793635	-0.000011
O230	O	-0.227757	1.293635	0.499989
C231	C	-0.802458	0.808007	-0.000041
C232	C	-0.302458	1.308007	0.499959
H233	H	-0.821973	0.869025	0.026252
H234	H	-0.321973	1.369025	0.526252
H235	H	-0.820302	0.759154	0.040265
H236	H	-0.320302	1.259154	0.540265
H237	H	-0.825504	0.807461	-0.066661
H238	H	-0.325504	1.307461	0.433339
O239	O	0.123386	0.853473	0.610231
O240	O	0.623386	1.353473	1.110231
C241	C	0.170615	0.802672	0.667550
C242	C	0.670615	1.302672	1.167550
H243	H	0.172347	0.832352	0.729844
H244	H	0.672347	1.332352	1.229844
H245	H	0.225941	0.791530	0.642284
H246	H	0.725941	1.291530	1.142284
H247	H	0.151750	0.743057	0.676870
H248	H	0.651750	1.243057	1.176870
