data_functionalizedCrystal
_audit_creation_method	'MofGen! by Chris Wilmer'
_symmetry_space_group_name_H-M	'P1'
_symmetry_Int_Tables_number	1
_symmetry_cell_setting	triclinic
loop_
_symmetry_equiv_pos_as_xyz
  x,y,z
_cell_length_a	19.188933
_cell_length_b	19.188930
_cell_length_c	9.730223
_cell_angle_alpha	89.993564
_cell_angle_beta	90.001221
_cell_angle_gamma	83.145175
loop_
_atom_site_label
_atom_site_type_symbol
_atom_site_fract_x
_atom_site_fract_y
_atom_site_fract_z
O1	O	0.926140	0.087171	-0.114259
O2	O	0.722829	0.098904	-0.114274
O3	O	0.830351	-0.008618	-0.114240
O4	O	0.818617	0.194693	-0.114294
O5	O	0.830350	-0.008615	0.114340
O6	O	0.722828	0.098907	0.114306
O7	O	0.926139	0.087174	0.114320
Zn8	Zn	0.824483	0.093041	0.150605
Zn9	Zn	0.824485	0.093037	-0.150559
O10	O	0.818616	0.194696	0.114286
C11	C	0.696817	0.098525	0.000014
C12	C	0.619313	0.097384	0.000010
C13	C	0.066058	0.089237	-0.124572
C14	C	0.138882	0.090305	-0.124578
C15	C	0.175299	0.090844	0.000020
C16	C	0.138887	0.090297	0.124634
C17	C	0.066065	0.089222	0.124636
N18	N	0.284318	0.132264	0.092754
N19	N	0.353496	0.133286	0.092743
C20	C	0.394707	0.094082	0.000022
N21	N	0.364127	0.053825	-0.092710
N22	N	0.294942	0.052805	-0.092703
C23	C	0.254262	0.092009	0.000032
C24	C	0.510075	0.095782	-0.124590
C25	C	0.582901	0.096846	-0.124590
C26	C	0.582904	0.096845	0.124625
C27	C	0.510080	0.095774	0.124622
C28	C	0.473669	0.095246	0.000011
C29	C	0.829971	-0.034628	0.000054
C30	C	0.828830	-0.112132	0.000066
C31	C	0.891921	-0.157056	0.000077
C32	C	0.890849	-0.229880	0.000055
C33	C	0.826683	-0.257777	0.000049
C34	C	0.763584	-0.212843	0.000030
C35	C	0.764658	-0.140021	0.000039
N36	N	0.777636	-0.365781	0.077836
N37	N	0.776620	-0.434960	0.077831
C38	C	0.823445	-0.477185	0.000021
N39	N	0.871335	-0.447620	-0.077766
N40	N	0.872352	-0.378436	-0.077755
C41	C	0.825512	-0.336739	0.000040
C42	C	0.885378	-0.601073	0.000007
C43	C	0.884304	-0.673898	-0.000024
C44	C	0.757037	-0.656860	-0.000035
C45	C	0.758113	-0.584037	-0.000018
C46	C	0.822286	-0.556148	0.000009
C47	C	0.952150	0.087553	0.000029
C48	C	1.029655	0.088694	0.000024
C49	C	0.818997	0.220705	-0.000011
C50	C	0.820137	0.298210	-0.000032
N51	N	0.824487	0.093043	0.356141
N52	N	0.824486	0.093029	-0.356095
C53	C	0.872110	0.045448	0.428083
C54	C	0.872108	0.045439	0.571966
C55	C	0.776858	0.140627	0.571953
C56	C	0.776857	0.140631	0.428073
C57	C	0.919740	-0.002141	0.356151
C58	C	0.967367	-0.049739	0.428093
C59	C	0.967366	-0.049748	0.571976
C60	C	0.919736	-0.002158	0.643917
H61	H	0.612540	0.097283	-0.226056
H62	H	0.919734	-0.002173	0.761077
H63	H	0.738077	0.179387	0.369498
H64	H	0.738081	0.179373	0.630537
H65	H	0.704792	-0.679573	-0.000046
H66	H	0.935682	-0.710475	-0.000022
N67	N	0.028882	0.088684	-0.251870
N68	N	0.043609	0.039602	-0.335292
H69	H	0.017354	0.039210	-0.425199
N70	N	0.176068	0.090857	-0.251868
N71	N	0.143550	0.090381	-0.363114
H72	H	0.169810	0.090771	-0.453015
H73	H	0.168542	0.090734	0.226082
N74	N	0.693660	-0.538154	-0.000024
N75	N	0.636372	-0.563068	-0.000035
H76	H	0.590848	-0.530664	-0.000044
H77	H	0.711340	-0.235562	0.000023
N78	N	0.028887	0.088664	0.251927
N79	N	0.061407	0.089138	0.363170
H80	H	0.035150	0.088745	0.453073
H81	H	0.937631	-0.578365	0.000023
H82	H	0.919747	-0.002137	0.238995
N83	N	0.955304	-0.275769	0.000065
N84	N	1.012594	-0.250859	0.000086
H85	H	1.058116	-0.283266	0.000095
N86	N	0.472890	0.095225	-0.251880
N87	N	0.487609	0.046137	-0.335293
H88	H	0.461349	0.045741	-0.425194
N89	N	0.620105	0.097386	0.251889
N90	N	0.685124	0.098342	0.251874
H91	H	0.711402	0.098721	0.341757
N92	N	0.472901	0.095220	0.251909
N93	N	0.505421	0.095697	0.363151
H94	H	0.479165	0.095304	0.453055
N95	N	1.016005	-0.098351	0.354593
N96	N	1.016000	-0.098340	0.226129
H97	H	1.050350	-0.132673	0.174220
H98	H	0.944175	-0.134354	0.000095
H99	H	1.006141	-0.088508	0.630549
N100	N	0.700202	-0.094139	0.000020
N101	N	0.642914	-0.119051	0.000001
H102	H	0.597391	-0.086646	-0.000011
