data_functionalizedCrystal
_audit_creation_method	'MofGen! by Chris Wilmer'
_symmetry_space_group_name_H-M	'P1'
_symmetry_Int_Tables_number	1
_symmetry_cell_setting	triclinic
loop_
_symmetry_equiv_pos_as_xyz
  x,y,z
_cell_length_a	14.519709
_cell_length_b	15.538191
_cell_length_c	12.996460
_cell_angle_alpha	90.007459
_cell_angle_beta	89.992910
_cell_angle_gamma	114.523881
loop_
_atom_site_label
_atom_site_type_symbol
_atom_site_fract_x
_atom_site_fract_y
_atom_site_fract_z
O1	O	-0.299357	-1.249409	-0.085572
O2	O	-0.192931	-0.975329	-0.085574
O3	O	-0.382827	-1.119636	-0.085564
O4	O	-0.109462	-1.105102	-0.085582
O5	O	-0.382830	-1.119621	0.085570
O6	O	-0.192934	-0.975314	0.085560
O7	O	-0.299360	-1.249394	0.085562
Cu8	Cu	-0.246147	-1.112353	0.101187
Cu9	Cu	-0.246144	-1.112371	-0.101199
O10	O	-0.109464	-1.105087	0.085551
C11	C	-0.416960	-1.118951	0.000003
C12	C	-0.518659	-1.116921	0.000004
C13	C	-0.181798	-0.940245	-0.000007
C14	C	-0.148631	-0.835727	-0.000007
C15	C	-0.310493	-1.284478	-0.000008
C16	C	-0.343661	-1.388996	-0.000014
C17	C	-0.891041	-1.109449	-0.000023
C18	C	-0.787431	-1.111524	-0.000015
C19	C	-0.704853	-1.113185	-0.000009
C20	C	-0.601237	-1.115261	-0.000003
C21	C	-0.075331	-1.105772	-0.000018
C22	C	0.026368	-1.107802	-0.000025
C23	C	-0.478139	-0.547382	-0.000001
C24	C	-0.446950	-0.449168	-0.000004
C25	C	-0.271519	-0.427021	-0.000016
C26	C	-0.302694	-0.525234	-0.000008
C27	C	-0.406005	-0.585407	-0.000002
C28	C	-0.230559	-0.563260	-0.000008
C29	C	-0.261732	-0.661465	-0.000006
C30	C	-0.365038	-0.721644	-0.000003
C31	C	-0.437177	-0.683612	0.000001
C32	C	-0.127249	-0.503085	-0.000022
C33	C	-0.055115	-0.541111	-0.000022
C34	C	-0.086286	-0.639318	-0.000012
C35	C	-0.189593	-0.699497	-0.000009
C36	C	-0.014147	-0.677349	-0.000016
C37	C	-0.045320	-0.775554	-0.000014
C38	C	-0.220765	-0.797702	-0.000007
N39	N	-0.246153	-1.112347	0.243534
N40	N	-0.246149	-1.112384	-0.243546
C41	C	-0.246143	-1.112369	0.663348
C42	C	-0.246141	-1.112360	0.546543
C43	C	-0.246147	-1.112359	0.453445
C44	C	-0.246147	-1.112349	0.336632
H45	H	-0.304891	-0.846698	0.000004
H46	H	-0.101872	-0.423121	-0.000027
C47	C	0.058520	-0.474917	-0.000023
H48	H	0.066755	-0.410983	-0.000017
H49	H	0.089463	-0.486467	-0.059697
H50	H	0.089444	-0.486456	0.059667
H51	H	0.013420	-0.806515	-0.000005
H52	H	0.069968	-0.628342	-0.000031
H53	H	-0.390416	-0.801608	-0.000014
C54	C	-0.157885	-0.360827	-0.000016
H55	H	-0.149649	-0.296893	-0.000010
H56	H	-0.126942	-0.372377	-0.059690
H57	H	-0.126961	-0.372366	0.059673
H58	H	-0.562265	-0.596379	0.000010
C59	C	-0.550818	-0.749808	0.000003
H60	H	-0.589319	-0.713099	-0.000003
H61	H	-0.566629	-0.788578	0.059677
H62	H	-0.566614	-0.788578	-0.059686
H63	H	-0.505698	-0.418213	-0.000005
