data_functionalizedCrystal
_audit_creation_method	'MofGen! by Chris Wilmer'
_symmetry_space_group_name_H-M	'P1'
_symmetry_Int_Tables_number	1
_symmetry_cell_setting	triclinic
loop_
_symmetry_equiv_pos_as_xyz
  x,y,z
_cell_length_a	19.188930
_cell_length_b	10.489711
_cell_length_c	8.965430
_cell_angle_alpha	89.994616
_cell_angle_beta	89.995304
_cell_angle_gamma	83.835895
loop_
_atom_site_label
_atom_site_type_symbol
_atom_site_fract_x
_atom_site_fract_y
_atom_site_fract_z
O1	O	0.098398	1.691875	-0.124112
O2	O	0.107666	1.320467	-0.124105
O3	O	0.001448	1.516889	-0.124080
O4	O	0.204617	1.495453	-0.124137
O5	O	0.001455	1.516873	0.123999
O6	O	0.107673	1.320451	0.123974
O7	O	0.098405	1.691859	0.123967
Cu8	Cu	0.103040	1.506153	0.146622
Cu9	Cu	0.103032	1.506173	-0.146760
O10	O	0.204624	1.495437	0.123941
C11	C	0.106974	1.272942	-0.000064
C12	C	0.104893	1.131358	-0.000060
C13	C	0.168770	0.947543	-0.000096
C14	C	0.136859	1.040410	-0.122400
C15	C	0.136849	1.040367	0.122186
C16	C	0.069240	0.971971	-0.122497
C17	C	0.069239	0.971918	0.122200
C18	C	0.037279	1.064759	-0.000135
C19	C	-0.024564	1.516187	-0.000036
C20	C	-0.102083	1.514103	-0.000023
C21	C	-0.146241	1.629357	-0.000018
C22	C	-0.219078	1.627399	-0.000042
C23	C	-0.247753	1.510181	-0.000041
C24	C	-0.203585	1.394912	-0.000054
C25	C	-0.130750	1.396873	-0.000045
N26	N	-0.356351	1.420576	0.084387
N27	N	-0.425542	1.418721	0.084382
C28	C	-0.467201	1.504266	-0.000071
N29	N	-0.437057	1.591755	-0.084499
N30	N	-0.367860	1.593614	-0.084487
C31	C	-0.326730	1.508042	-0.000051
C32	C	-0.590338	1.617405	-0.000094
C33	C	-0.663176	1.615442	-0.000127
C34	C	-0.647681	1.382952	-0.000124
C35	C	-0.574845	1.384918	-0.000106
C36	C	-0.546178	1.502148	-0.000084
C37	C	0.230636	1.496139	-0.000106
C38	C	0.308154	1.498223	-0.000128
C39	C	0.099098	1.739384	-0.000077
C40	C	0.101179	1.880968	-0.000091
N41	N	0.103045	1.506149	0.352971
N42	N	0.103021	1.506187	-0.353109
C43	C	0.152152	1.415283	0.450265
C44	C	0.166272	1.530465	0.549672
C45	C	0.088931	1.391015	0.549692
C46	C	0.117197	1.621389	0.450189
C47	C	0.039829	1.481863	0.450200
C48	C	0.053923	1.597129	0.549562
H49	H	-0.122906	1.724815	-0.000005
N50	N	0.242355	0.880067	-0.000264
H51	H	0.267791	0.904777	-0.092755
H52	H	0.240347	0.784253	0.000733
H53	H	0.165457	1.070772	-0.225811
N54	N	0.237065	1.557715	0.607578
H55	H	0.248099	1.644021	0.569827
H56	H	0.274093	1.488946	0.571462
H57	H	0.129189	1.718793	0.406666
N58	N	0.174743	1.080519	0.259157
H59	H	0.175498	1.176644	0.258657
H60	H	0.224389	1.037345	0.258946
N61	N	-0.678598	1.256520	-0.000140
H62	H	-0.731440	1.272764	-0.000150
H63	H	-0.662491	1.206092	0.091827
H64	H	-0.255039	1.721256	-0.000044
H65	H	0.040664	0.941808	-0.226017
N66	N	-0.083112	1.272563	-0.000022
H67	H	-0.052537	1.268200	-0.091974
H68	H	-0.112371	1.198073	0.000031
N69	N	0.073129	1.262029	0.607603
H70	H	0.110265	1.193450	0.571485
H71	H	0.025735	1.243076	0.569858
N72	N	-0.234507	1.268482	-0.000061
H73	H	-0.287350	1.284727	-0.000061
H74	H	-0.218398	1.218055	0.091904
N75	N	-0.559411	1.743837	-0.000076
H76	H	-0.598441	1.816556	-0.000089
H77	H	-0.529520	1.749720	-0.092034
N78	N	-0.710811	1.739755	-0.000121
H79	H	-0.701514	1.790934	-0.092072
H80	H	-0.701506	1.790796	0.091915
H81	H	-0.018327	1.115460	-0.000181
H82	H	0.040666	0.941528	0.225621
N83	N	-0.527211	1.260607	-0.000103
H84	H	-0.556426	1.186050	-0.000105
H85	H	-0.496660	1.256352	0.091867
N86	N	0.207202	1.313577	0.392516
H87	H	0.254929	1.332108	0.428708
H88	H	0.206466	1.313772	0.279877
H89	H	0.012383	1.674072	0.592887
H90	H	-0.013604	1.461260	0.406473
