data_functionalizedCrystal
_audit_creation_method	'MofGen! by Chris Wilmer'
_symmetry_space_group_name_H-M	'P1'
_symmetry_Int_Tables_number	1
_symmetry_cell_setting	triclinic
loop_
_symmetry_equiv_pos_as_xyz
  x,y,z
_cell_length_a	27.732048
_cell_length_b	14.044191
_cell_length_c	13.101039
_cell_angle_alpha	86.337551
_cell_angle_beta	93.329410
_cell_angle_gamma	87.917216
loop_
_atom_site_label
_atom_site_type_symbol
_atom_site_fract_x
_atom_site_fract_y
_atom_site_fract_z
O1	O	0.114035	1.261251	-0.085186
O2	O	0.447368	1.594584	0.248148
O3	O	0.780702	1.927917	0.581481
O4	O	0.109828	0.985344	-0.085198
O5	O	0.443162	1.318677	0.248136
O6	O	0.776495	1.652010	0.581469
O7	O	0.041938	1.131865	-0.085172
O8	O	0.375271	1.465198	0.248162
O9	O	0.708604	1.798532	0.581495
O10	O	0.181926	1.114729	-0.085211
O11	O	0.515259	1.448063	0.248122
O12	O	0.848592	1.781396	0.581455
O13	O	0.046818	1.121352	0.085256
O14	O	0.380151	1.454685	0.418590
O15	O	0.713484	1.788019	0.751923
O16	O	0.114708	0.974831	0.085230
O17	O	0.448042	1.308164	0.418564
O18	O	0.781375	1.641497	0.751897
O19	O	0.118915	1.250738	0.085242
O20	O	0.452248	1.584071	0.418576
O21	O	0.785581	1.917405	0.751909
Zn22	Zn	0.117586	1.111115	0.112295
Zn23	Zn	0.450920	1.444448	0.445629
Zn24	Zn	0.784253	1.777782	0.778962
Zn25	Zn	0.111157	1.124966	-0.112251
Zn26	Zn	0.444490	1.458300	0.221083
Zn27	Zn	0.777824	1.791633	0.554416
O28	O	0.186805	1.104216	0.085216
O29	O	0.520139	1.437550	0.418550
O30	O	0.853472	1.770883	0.751883
C31	C	0.110428	0.944800	0.000015
C32	C	0.443762	1.278133	0.333348
C33	C	0.777095	1.611466	0.666682
C34	C	0.104940	0.839654	0.000011
C35	C	0.438273	1.172988	0.333345
C36	C	0.771606	1.506321	0.666678
C37	C	0.133831	0.588945	0.000013
C38	C	0.467165	0.922278	0.333347
C39	C	0.800498	1.255611	0.666680
C40	C	0.094914	0.647143	0.000023
C41	C	0.428247	0.980476	0.333356
C42	C	0.761581	1.313810	0.666689
C43	C	0.100494	0.754266	0.000016
C44	C	0.433827	1.087599	0.333350
C45	C	0.767160	1.420933	0.666683
C46	C	0.128252	0.481811	0.000020
C47	C	0.461586	0.815145	0.333353
C48	C	0.794919	1.148478	0.666686
C49	C	0.026354	1.126249	0.000045
C50	C	0.359687	1.459582	0.333378
C51	C	0.693021	1.792915	0.666712
C52	C	-0.027352	1.125165	0.000053
C53	C	0.305982	1.458498	0.333387
C54	C	0.639315	1.791832	0.666720
C55	C	-0.362424	1.204934	0.000004
C56	C	-0.029090	1.538267	0.333338
C57	C	0.304243	1.871600	0.666671
C58	C	-0.564272	1.200915	-0.000010
C59	C	-0.230939	1.534249	0.333323
C60	C	0.102394	1.867582	0.666657
O61	O	-0.592105	1.273858	-0.000052
O62	O	-0.258772	1.607191	0.333282
O63	O	0.074561	1.940525	0.666615
N64	N	-0.587475	1.114033	-0.000013
N65	N	-0.254141	1.447367	0.333320
N66	N	0.079192	1.780700	0.666654
C67	C	-0.560212	1.028150	-0.000019
C68	C	-0.226878	1.361484	0.333314
C69	C	0.106455	1.694817	0.666648
O70	O	-0.584578	0.954160	-0.000032
O71	O	-0.251245	1.287494	0.333301
O72	O	0.082088	1.620827	0.666634
C73	C	-0.358364	1.032170	-0.000012
C74	C	-0.025031	1.365503	0.333322
C75	C	0.308303	1.698837	0.666655
C76	C	-0.335164	1.119057	0.000001
C77	C	-0.001831	1.452390	0.333335
C78	C	0.331502	1.785724	0.666668
C79	C	-0.339224	1.291814	0.000016
C80	C	-0.005890	1.625147	0.333350
C81	C	0.327443	1.958480	0.666683
C82	C	-0.288764	1.292817	0.000026
C83	C	0.044569	1.626150	0.333359
C84	C	0.377902	1.959484	0.666692
C85	C	-0.261505	1.206940	0.000023
C86	C	0.071828	1.540274	0.333356
C87	C	0.405162	1.873607	0.666689
C88	C	-0.284705	1.120060	0.000011
C89	C	0.048628	1.453394	0.333344
C90	C	0.381962	1.786727	0.666677
C91	C	-0.331102	0.946288	-0.000025
C92	C	0.002231	1.279622	0.333308
C93	C	0.335565	1.612955	0.666642
C94	C	-0.280637	0.947301	-0.000026
C95	C	0.052696	1.280635	0.333307
C96	C	0.386029	1.613968	0.666641
C97	C	-0.257438	1.034188	-0.000013
C98	C	0.075896	1.367522	0.333321
C99	C	0.409229	1.700855	0.666654
C100	C	-0.206986	1.035187	0.000017
C101	C	0.126347	1.368520	0.333350
C102	C	0.459680	1.701854	0.666684
N103	N	-0.183784	1.122069	0.000020
N104	N	0.149549	1.455402	0.333353
N105	N	0.482883	1.788736	0.666686
C106	C	-0.211043	1.207946	0.000023
C107	C	0.122290	1.541279	0.333356
C108	C	0.455623	1.874612	0.666689
C109	C	-0.666185	1.026046	-0.000021
C110	C	-0.332851	1.359379	0.333313
C111	C	0.000482	1.692712	0.666646
C112	C	-0.716646	1.025040	-0.000021
C113	C	-0.383313	1.358374	0.333313
C114	C	-0.049979	1.691707	0.666646
C115	C	-0.720704	1.197806	-0.000014
C116	C	-0.387370	1.531139	0.333320
C117	C	-0.054037	1.864473	0.666653
C118	C	-0.670241	1.198810	-0.000006
C119	C	-0.336907	1.532143	0.333327
C120	C	-0.003574	1.865477	0.666660
C121	C	-0.642982	1.112928	-0.000018
C122	C	-0.309649	1.446261	0.333316
C123	C	0.023684	1.779594	0.666649
C124	C	-0.105075	1.210046	0.000043
C125	C	0.228258	1.543379	0.333376
C126	C	0.561592	1.876713	0.666710
C127	C	-0.054611	1.211042	0.000056
C128	C	0.278722	1.544375	0.333390
C129	C	0.612056	1.877708	0.666723
C130	C	-0.050558	1.038277	0.000044
C131	C	0.282775	1.371610	0.333377
C132	C	0.616109	1.704944	0.666711
C133	C	-0.101018	1.037280	0.000036
C134	C	0.232316	1.370614	0.333369
C135	C	0.565649	1.703947	0.666703
C136	C	-0.128275	1.123173	0.000032
C137	C	0.205058	1.456506	0.333365
C138	C	0.538392	1.789840	0.666699
O139	O	-0.179123	0.962284	0.000047
O140	O	0.154210	1.295617	0.333380
O141	O	0.487543	1.628951	0.666714
O142	O	-0.186668	1.281926	0.000013
O143	O	0.146665	1.615260	0.333347
O144	O	0.479998	1.948593	0.666680
C145	C	-0.412883	1.203930	-0.000005
C146	C	-0.079550	1.537264	0.333329
C147	C	0.253784	1.870597	0.666662
C148	C	-0.436083	1.117050	-0.000017
C149	C	-0.102750	1.450384	0.333316
C150	C	0.230584	1.783717	0.666650
C151	C	-0.408824	1.031174	-0.000020
C152	C	-0.075490	1.364507	0.333313
C153	C	0.257843	1.697840	0.666647
C154	C	-0.486545	1.116045	-0.000017
C155	C	-0.153211	1.449378	0.333316
C156	C	0.180122	1.782712	0.666650
C157	C	-0.513804	1.201922	-0.000014
C158	C	-0.180471	1.535255	0.333319
C159	C	0.152863	1.868588	0.666653
C160	C	-0.490602	1.288804	-0.000011
C161	C	-0.157268	1.622137	0.333322
C162	C	0.176065	1.955470	0.666656
C163	C	-0.440142	1.289807	-0.000002
C164	C	-0.106809	1.623140	0.333331
C165	C	0.226524	1.956474	0.666665
C166	C	-0.432026	0.944292	-0.000023
C167	C	-0.098692	1.277625	0.333311
C168	C	0.234641	1.610958	0.666644
C169	C	-0.482485	0.943295	-0.000031
C170	C	-0.149152	1.276629	0.333303
C171	C	0.184181	1.609962	0.666636
C172	C	-0.509745	1.029172	-0.000028
C173	C	-0.176411	1.362505	0.333305
C174	C	0.156922	1.695839	0.666639
C175	C	0.202389	1.109833	-0.000003
C176	C	0.535723	1.443166	0.333331
C177	C	0.869056	1.776500	0.666664
C178	C	0.256094	1.110917	-0.000018
C179	C	0.589428	1.444250	0.333316
C180	C	0.922761	1.777584	0.666649
C181	C	0.118315	1.291282	0.000028
C182	C	0.451648	1.624615	0.333361
C183	C	0.784981	1.957949	0.666694
C184	C	0.123803	1.396428	0.000025
C185	C	0.457136	1.729761	0.333358
C186	C	0.790470	2.063094	0.666691
N187	N	0.121974	1.101669	0.265542
N188	N	0.455308	1.435002	0.598876
N189	N	0.788641	1.768336	0.932209
N190	N	0.106765	1.134420	-0.265498
N191	N	0.440099	1.467753	0.067836
N192	N	0.773432	1.801087	0.401169
C193	C	0.127949	1.088817	0.474583
C194	C	0.461282	1.422150	0.807916
C195	C	0.794615	1.755484	1.141249
C196	C	0.100793	1.147269	0.525469
C197	C	0.434126	1.480602	0.858802
C198	C	0.767459	1.813935	1.192135
C199	C	0.104117	1.140118	0.641786
C200	C	0.437450	1.473451	0.975119
C201	C	0.770783	1.806784	1.308453
C202	C	0.124625	1.095967	0.358255
C203	C	0.457958	1.429300	0.691588
C204	C	0.791292	1.762633	1.024922
H205	H	0.057403	0.616521	-0.000039
H206	H	0.390736	0.949854	0.333294
H207	H	0.724070	1.283187	0.666628
Cl208	Cl	-0.641081	1.308043	0.000009
Cl209	Cl	-0.307747	1.641376	0.333342
Cl210	Cl	0.025586	1.974710	0.666676
Cl211	Cl	0.061243	1.233181	0.457862
Cl212	Cl	0.394577	1.566515	0.791196
Cl213	Cl	0.727910	1.899848	1.124529
Cl214	Cl	0.191739	0.636228	-0.000016
Cl215	Cl	0.525072	0.969561	0.333317
Cl216	Cl	0.858405	1.302895	0.666651
H217	H	0.153693	1.033409	0.518370
H218	H	0.487026	1.366742	0.851703
H219	H	0.820360	1.700075	1.185037
Cl220	Cl	-0.025449	1.320279	0.000071
Cl221	Cl	0.307884	1.653612	0.333404
Cl222	Cl	0.641218	1.986946	0.666738
Cl223	Cl	-0.631924	0.918068	-0.000034
Cl224	Cl	-0.298590	1.251401	0.333300
Cl225	Cl	0.034743	1.584734	0.666633
Cl226	Cl	-0.139334	1.318027	0.000040
Cl227	Cl	0.194000	1.651360	0.333373
Cl228	Cl	0.527333	1.984693	0.666706
Cl229	Cl	-0.259608	1.402054	0.000013
Cl230	Cl	0.073726	1.735387	0.333346
Cl231	Cl	0.407059	2.068721	0.666680
H232	H	-0.361413	1.361749	0.000015
H233	H	-0.028080	1.695082	0.333348
H234	H	0.305253	2.028416	0.666682
H235	H	-0.742907	1.267730	-0.000011
H236	H	-0.409573	1.601063	0.333323
H237	H	-0.076240	1.934397	0.666656
Cl238	Cl	-0.745805	0.915805	-0.000018
Cl239	Cl	-0.412471	1.249139	0.333316
Cl240	Cl	-0.079138	1.582472	0.666649
Cl241	Cl	-0.246373	0.839328	-0.000041
Cl242	Cl	0.086961	1.172661	0.333292
Cl243	Cl	0.420294	1.505995	0.666625
Cl244	Cl	-0.360255	0.837052	-0.000049
Cl245	Cl	-0.026922	1.170386	0.333285
Cl246	Cl	0.306411	1.503719	0.666618
H247	H	-0.028354	0.968358	0.000045
H248	H	0.304979	1.301692	0.333379
H249	H	0.638312	1.635025	0.666712
Cl250	Cl	-0.130183	0.928049	0.000039
Cl251	Cl	0.203150	1.261382	0.333372
Cl252	Cl	0.536483	1.594716	0.666705
Cl253	Cl	-0.410985	1.399043	0.000006
Cl254	Cl	-0.077652	1.732376	0.333339
Cl255	Cl	0.255682	2.065710	0.666673
H256	H	-0.512805	1.358727	-0.000004
H257	H	-0.179472	1.692060	0.333329
H258	H	0.153862	2.025394	0.666662
Cl259	Cl	-0.511644	0.834054	-0.000043
Cl260	Cl	-0.178311	1.167387	0.333291
Cl261	Cl	0.155023	1.500721	0.666624
H262	H	-0.409836	0.874359	-0.000027
H263	H	-0.076503	1.207692	0.333306
H264	H	0.256831	1.541026	0.666639
