data_functionalizedCrystal
_audit_creation_method	'MofGen! by Chris Wilmer'
_symmetry_space_group_name_H-M	'P1'
_symmetry_Int_Tables_number	1
_symmetry_cell_setting	triclinic
loop_
_symmetry_equiv_pos_as_xyz
  x,y,z
_cell_length_a	15.625020
_cell_length_b	15.995350
_cell_length_c	14.750779
_cell_angle_alpha	77.359549
_cell_angle_beta	85.134135
_cell_angle_gamma	83.881388
loop_
_atom_site_label
_atom_site_type_symbol
_atom_site_fract_x
_atom_site_fract_y
_atom_site_fract_z
O1	O	1.084169	0.213233	-0.457264
O2	O	0.842321	0.207122	-0.373068
O3	O	0.969857	0.088821	-0.417467
O4	O	0.956634	0.331534	-0.412866
O5	O	1.005909	0.055383	-0.270368
O6	O	0.878374	0.173684	-0.225969
O7	O	1.120222	0.179795	-0.310165
Zn8	Zn	1.005022	0.171430	-0.244712
Zn9	Zn	0.957521	0.215486	-0.438522
O10	O	0.992687	0.298096	-0.265766
C11	C	0.829400	0.187364	-0.288745
C12	C	0.737184	0.178301	-0.256641
C13	C	0.626860	0.147299	-0.131215
C14	C	0.713508	0.155818	-0.161390
C15	C	0.674214	0.192269	-0.321755
C16	C	0.587561	0.183748	-0.291593
C17	C	0.563892	0.161264	-0.196322
C18	C	0.524593	0.197714	-0.356701
C19	C	0.437947	0.189199	-0.326541
C20	C	0.414270	0.166718	-0.231274
C21	C	0.477246	0.152749	-0.166162
C22	C	0.548264	0.220204	-0.451971
C23	C	0.485295	0.234169	-0.517079
C24	C	0.398649	0.225648	-0.486920
C25	C	0.374971	0.203167	-0.391652
C26	C	0.335672	0.239617	-0.552031
C27	C	0.249027	0.231101	-0.521871
C28	C	0.288325	0.194652	-0.361492
C29	C	0.987336	0.040864	-0.343729
C30	C	0.985696	-0.052217	-0.343163
C31	C	0.979811	-0.390439	-0.341111
C32	C	0.888902	-0.350230	-0.309821
C33	C	0.890623	-0.253483	-0.310060
C34	C	0.982730	-0.222643	-0.342130
C35	C	1.048117	-0.279214	-0.273727
C36	C	1.045853	-0.376049	-0.272862
C37	C	1.006730	-0.338231	-0.440795
C38	C	1.006437	-0.241035	-0.441897
C39	C	0.984385	-0.127813	-0.342704
C40	C	0.978160	-0.485270	-0.340532
C41	C	1.133143	0.199553	-0.394491
C42	C	1.225357	0.208618	-0.426600
C43	C	0.975207	0.346053	-0.339507
C44	C	0.976845	0.439136	-0.340078
N45	N	1.037446	0.141363	-0.112444
N46	N	0.925104	0.245548	-0.570792
C47	C	0.834547	0.329484	0.310009
C48	C	0.857274	0.308421	0.402596
C49	C	0.970230	0.203709	0.363236
C50	C	0.947510	0.224761	0.270644
C51	C	0.879669	0.287650	0.244039
C52	C	0.992631	0.182926	0.204674
C53	C	0.969915	0.203980	0.112090
C54	C	0.902078	0.266868	0.085476
C55	C	0.856953	0.308703	0.151454
C56	C	1.060476	0.120042	0.231280
C57	C	1.105597	0.078207	0.165310
C58	C	1.082878	0.099256	0.072725
C59	C	1.015041	0.162144	0.046111
C60	C	1.128003	0.057421	0.006746
C61	C	1.105287	0.078474	-0.085838
C62	C	0.992325	0.183197	-0.046474
H63	H	0.197755	0.242476	-0.574888
H64	H	0.779298	0.380688	0.288349
Cl65	Cl	0.873524	0.293339	-0.030919
Cl66	Cl	1.162016	0.025882	-0.168776
Cl67	Cl	0.447487	0.124460	-0.046391
H68	H	0.354957	0.257932	-0.629600
Cl69	Cl	1.019171	-0.430400	-0.158357
H70	H	0.840649	-0.214204	-0.358014
Cl71	Cl	1.023733	-0.261202	-0.160486
Cl72	Cl	0.771656	0.387756	0.118008
H73	H	0.607586	0.129001	-0.053635
H74	H	0.820526	0.342495	0.456308
Cl75	Cl	0.703980	0.220531	-0.441521
Cl76	Cl	0.515061	0.262431	-0.636844
H77	H	1.113471	-0.403804	-0.292269
Cl78	Cl	1.213295	-0.021627	0.040201
Cl79	Cl	0.932764	-0.180695	-0.520393
Cl80	Cl	0.858708	-0.236024	-0.197881
H81	H	1.025469	0.152507	0.384909
H82	H	1.078971	0.102906	0.306669
H83	H	0.343716	0.159790	-0.206719
Cl84	Cl	1.153777	-0.250107	-0.305274
Cl85	Cl	0.258566	0.166362	-0.241721
H86	H	0.961430	-0.346685	-0.494123
H87	H	1.072362	-0.219121	-0.470356
H88	H	1.160836	0.027005	0.186983
Cl89	Cl	0.792668	0.138259	-0.079529
Cl90	Cl	1.109905	-0.378759	-0.477667
Cl91	Cl	0.855546	-0.406297	-0.198130
Cl92	Cl	0.907028	0.262250	-0.079920
H93	H	0.618816	0.227142	-0.476524
H94	H	0.837836	-0.357986	-0.357420
