data_functionalizedCrystal
_audit_creation_method	'MofGen! by Chris Wilmer'
_symmetry_space_group_name_H-M	'P1'
_symmetry_Int_Tables_number	1
_symmetry_cell_setting	triclinic
loop_
_symmetry_equiv_pos_as_xyz
  x,y,z
_cell_length_a	10.654550
_cell_length_b	11.792241
_cell_length_c	9.730223
_cell_angle_alpha	89.998500
_cell_angle_beta	89.996251
_cell_angle_gamma	84.339159
loop_
_atom_site_label
_atom_site_type_symbol
_atom_site_fract_x
_atom_site_fract_y
_atom_site_fract_z
O1	O	1.667383	0.159415	-0.114404
O2	O	1.301862	0.174603	-0.114382
O3	O	1.493493	0.001859	-0.114383
O4	O	1.475752	0.332159	-0.114402
O5	O	1.493490	0.001863	0.114196
O6	O	1.301859	0.174608	0.114198
O7	O	1.667381	0.159419	0.114176
Zn8	Zn	1.484620	0.167014	0.150479
Zn9	Zn	1.484623	0.167008	-0.150685
O10	O	1.475750	0.332163	0.114178
C11	C	1.255066	0.173490	-0.000089
C12	C	1.115632	0.170154	-0.000080
C13	C	1.035858	0.271863	-0.000106
C14	C	0.904847	0.268721	-0.000129
C15	C	0.933394	0.062152	-0.000107
C16	C	1.064404	0.065295	-0.000074
C17	C	1.019376	0.391124	-0.000124
C18	C	0.888364	0.387982	-0.000148
C19	C	1.492377	-0.040432	-0.000094
C20	C	1.489042	-0.166454	-0.000095
C21	C	1.482908	-0.397180	-0.000118
C22	C	1.486316	-0.268787	-0.000105
C23	C	1.714177	0.160532	-0.000120
C24	C	1.853611	0.163869	-0.000137
C25	C	1.476865	0.374455	-0.000114
C26	C	1.480201	0.500476	-0.000122
N27	N	1.484627	0.167017	0.356016
N28	N	1.484625	0.166996	-0.356221
C29	C	1.569503	0.090552	0.427941
C30	C	1.569500	0.090539	0.571824
C31	C	1.399740	0.243465	0.571844
C32	C	1.399739	0.243472	0.427963
C33	C	1.667516	0.002265	0.427931
C34	C	1.667513	0.002251	0.571814
H35	H	1.054925	0.429097	-0.098814
H36	H	1.330626	0.305712	0.630439
O37	O	0.883567	-0.039674	-0.000353
C38	C	0.808643	-0.047666	-0.118734
H39	H	0.840043	0.011888	-0.201475
H40	H	0.705512	-0.022299	-0.091992
C41	C	0.785129	-0.244255	-0.070780
C42	C	0.823703	-0.171117	-0.172408
H43	H	0.794413	-0.320406	-0.103887
H44	H	0.835603	-0.238871	0.008978
H45	H	0.699189	-0.223102	-0.048504
H46	H	0.909645	-0.192261	-0.194670
H47	H	0.773243	-0.176507	-0.252172
O48	O	0.833722	0.430774	0.117660
C49	C	0.770962	0.345876	0.183189
H50	H	0.813800	0.258221	0.148204
H51	H	0.666607	0.357223	0.155063
C52	C	0.732889	0.463878	0.382992
C53	C	0.785511	0.356218	0.340031
H54	H	0.741857	0.470260	0.479740
H55	H	0.775167	0.521078	0.338842
H56	H	0.645931	0.473321	0.359542
H57	H	0.872470	0.346783	0.363466
H58	H	0.743248	0.299018	0.384188
H59	H	1.646320	-0.084976	0.388883
O60	O	1.776187	0.035109	0.374484
C61	C	1.835164	-0.053572	0.292967
H62	H	1.761885	-0.111376	0.257319
H63	H	1.910740	-0.105269	0.356024
C64	C	1.986485	0.068472	0.210680
C65	C	1.896481	-0.002519	0.166887
H66	H	2.024314	0.099962	0.132911
H67	H	1.946755	0.128217	0.265604
H68	H	2.049454	0.025380	0.263229
H69	H	1.833507	0.040575	0.114355
H70	H	1.936202	-0.062257	0.111952
H71	H	0.846505	0.432916	-0.095818
H72	H	1.637233	-0.080191	0.616436
H73	H	1.048574	0.437768	0.095539
O74	O	1.317235	0.317851	0.358308
C75	C	1.242294	0.385307	0.452668
H76	H	1.293793	0.387025	0.555226
H77	H	1.148764	0.347653	0.467978
C78	C	1.153961	0.505427	0.270558
C79	C	1.217217	0.507545	0.396518
H80	H	1.138486	0.580828	0.235921
H81	H	1.204446	0.459979	0.206984
H82	H	1.076026	0.474043	0.283334
H83	H	1.295157	0.538915	0.383737
H84	H	1.166745	0.553002	0.460088
H85	H	1.763969	0.021698	0.610857
O86	O	1.141716	-0.033611	-0.000093
C87	C	1.068403	-0.126830	-0.000060
H88	H	0.970845	-0.098799	-0.043370
H89	H	1.058823	-0.158904	0.109606
C90	C	1.252869	-0.257628	-0.036464
C91	C	1.133050	-0.223201	-0.089670
H92	H	1.292748	-0.317076	-0.091734
H93	H	1.302263	-0.194825	-0.036482
H94	H	1.244869	-0.284348	0.054923
H95	H	1.141053	-0.196468	-0.181049
H96	H	1.083658	-0.286001	-0.089670
