data_functionalizedCrystal
_audit_creation_method	'MofGen! by Chris Wilmer'
_symmetry_space_group_name_H-M	'P1'
_symmetry_Int_Tables_number	1
_symmetry_cell_setting	triclinic
loop_
_symmetry_equiv_pos_as_xyz
  x,y,z
_cell_length_a	12.645331
_cell_length_b	13.032721
_cell_length_c	13.033109
_cell_angle_alpha	74.856674
_cell_angle_beta	82.796839
_cell_angle_gamma	82.796443
loop_
_atom_site_label
_atom_site_type_symbol
_atom_site_fract_x
_atom_site_fract_y
_atom_site_fract_z
Zn1	Zn	1.640662	0.499130	-0.654249
Zn2	Zn	1.600585	0.654210	-0.499191
Zn3	Zn	1.443406	0.476617	-0.476660
Zn4	Zn	1.443369	0.676685	-0.676736
O5	O	1.532005	0.576661	-0.576709
O6	O	1.783693	0.519718	-0.633699
O7	O	1.562977	0.611825	-0.347578
O8	O	1.486360	0.330973	-0.481377
O9	O	1.754248	0.633655	-0.519779
O10	O	1.631283	0.347513	-0.611851
O11	O	1.447499	0.481348	-0.331025
O12	O	1.295053	0.503140	-0.503182
O13	O	1.486298	0.671959	-0.822377
O14	O	1.295026	0.650129	-0.650177
O15	O	1.631248	0.541511	-0.805856
O16	O	1.562942	0.805822	-0.541583
O17	O	1.447436	0.822334	-0.672024
C18	C	1.256575	0.576632	-0.576675
C19	C	1.138745	0.576648	-0.576689
C20	C	1.500868	0.852619	-0.611712
C21	C	1.487648	0.970680	-0.626722
C22	C	1.563239	0.611753	-0.853731
C23	C	1.576549	0.626708	-0.971781
C24	C	0.971255	0.483857	-0.484619
C25	C	1.093751	0.484025	-0.484287
C26	C	1.078194	0.684655	-0.560314
C27	C	0.955584	0.684134	-0.559700
C28	C	0.987439	0.562536	-0.685584
C29	C	1.110256	0.559957	-0.684642
C30	C	1.808511	0.576691	-0.576744
C31	C	1.926341	0.576704	-0.576759
C32	C	1.563296	0.299627	-0.541592
C33	C	1.576630	0.181572	-0.526628
C34	C	1.538966	1.015117	-0.568923
C35	C	1.525304	1.137139	-0.584435
C36	C	1.525346	0.568818	-1.016221
C37	C	1.539102	0.584272	-1.138232
C38	C	1.500963	0.541628	-0.300755
C39	C	1.487892	0.526374	-0.182668
H40	H	0.953289	0.403044	-0.493016
C41	C	1.452371	0.486404	-0.945603
H42	H	1.452706	0.486822	-0.872861
H43	H	1.381417	0.504215	-0.965688
H44	H	1.477986	0.417318	-0.954683
H45	H	1.135344	0.403487	-0.492921
H46	H	1.630567	0.687713	-1.024062
H47	H	0.929003	0.491931	-0.404150
H48	H	1.593124	0.645281	-1.190510
C49	C	1.452283	1.207768	-0.666804
H50	H	1.452674	1.280514	-0.666420
H51	H	1.477804	1.198642	-0.735886
H52	H	1.381311	1.187730	-0.648907
C53	C	1.414911	0.443956	-1.112056
H54	H	1.415244	0.444374	-1.039313
H55	H	1.343957	0.461769	-1.132143
H56	H	1.440525	0.374871	-1.121136
C57	C	1.117799	0.495119	-0.374953
H58	H	1.052654	0.499553	-0.330571
H59	H	1.163088	0.434664	-0.342334
H60	H	1.152477	0.557998	-0.384499
C61	C	0.900730	0.702609	-0.452796
H62	H	0.953442	0.710356	-0.410148
H63	H	0.852470	0.765574	-0.465984
H64	H	0.862453	0.643275	-0.416289
H65	H	1.630689	1.129285	-0.465659
C66	C	1.414631	1.041308	-0.709091
H67	H	1.384212	0.997606	-0.743348
H68	H	1.359073	1.079488	-0.673894
H69	H	1.455573	1.090392	-0.760865
C70	C	0.914532	0.779640	-0.647529
H71	H	0.972790	0.818599	-0.683410
H72	H	0.882518	0.754332	-0.697191
H73	H	0.862981	0.824903	-0.616184
H74	H	1.141853	0.623787	-0.755815
H75	H	1.096946	0.698866	-0.482115
C76	C	1.116761	0.779777	-0.648958
H77	H	1.170264	0.754405	-0.696853
H78	H	1.058050	0.816507	-0.686755
H79	H	1.145783	0.827096	-0.617949
C80	C	0.962120	0.459012	-0.709411
H81	H	0.999782	0.451991	-0.775411
H82	H	0.983615	0.399516	-0.653867
H83	H	0.887336	0.461669	-0.713664
C84	C	1.165624	0.452705	-0.701704
H85	H	1.148089	0.443074	-0.767139
H86	H	1.240999	0.452788	-0.704039
H87	H	1.141938	0.396085	-0.644466
C88	C	0.948404	0.654117	-0.778095
H89	H	0.985617	0.645125	-0.843639
H90	H	0.873746	0.653269	-0.780443
H91	H	0.961783	0.720462	-0.767276
C92	C	1.611986	0.944485	-0.486559
H93	H	1.611584	0.871738	-0.486934
H94	H	1.682952	0.964524	-0.504447
H95	H	1.586455	0.953607	-0.417473
