data_functionalizedCrystal
_audit_creation_method	'MofGen! by Chris Wilmer'
_symmetry_space_group_name_H-M	'P1'
_symmetry_Int_Tables_number	1
_symmetry_cell_setting	triclinic
loop_
_symmetry_equiv_pos_as_xyz
  x,y,z
_cell_length_a	15.297327
_cell_length_b	17.638336
_cell_length_c	17.640968
_cell_angle_alpha	65.689241
_cell_angle_beta	90.290815
_cell_angle_gamma	90.314497
loop_
_atom_site_label
_atom_site_type_symbol
_atom_site_fract_x
_atom_site_fract_y
_atom_site_fract_z
Zn1	Zn	-0.478099	1.293800	-0.780568
Zn2	Zn	0.021901	1.793800	-0.280568
Zn3	Zn	-0.644614	1.244820	-0.663731
Zn4	Zn	-0.144614	1.744820	-0.163731
Zn5	Zn	-0.478054	1.128125	-0.614947
Zn6	Zn	0.021946	1.628125	-0.114947
Zn7	Zn	-0.596582	1.140991	-0.767635
Zn8	Zn	-0.096582	1.640991	-0.267635
O9	O	-0.549337	1.201934	-0.706720
O10	O	-0.049337	1.701934	-0.206720
O11	O	-0.520308	1.400091	-0.790897
O12	O	-0.020308	1.900091	-0.290897
O13	O	-0.642603	1.203457	-0.544462
O14	O	-0.142603	1.703457	-0.044462
O15	O	-0.358769	1.165216	-0.621913
O16	O	0.141231	1.665216	-0.121913
O17	O	-0.642646	1.364105	-0.705058
O18	O	-0.142646	1.864105	-0.205058
O19	O	-0.358802	1.286937	-0.743594
O20	O	0.141198	1.786937	-0.243594
O21	O	-0.520232	1.117721	-0.508621
O22	O	-0.020232	1.617721	-0.008621
O23	O	-0.473657	1.017043	-0.609373
O24	O	0.026343	1.517043	-0.109373
O25	O	-0.560782	1.187145	-0.882148
O26	O	-0.060782	1.687145	-0.382148
O27	O	-0.560738	1.026496	-0.721553
O28	O	-0.060738	1.526496	-0.221553
O29	O	-0.473733	1.299413	-0.891649
O30	O	0.026267	1.799413	-0.391649
O31	O	-0.757534	1.215933	-0.692518
O32	O	-0.257534	1.715933	-0.192518
O33	O	-0.722244	1.139650	-0.768856
O34	O	-0.222244	1.639650	-0.268856
C35	C	-0.511981	0.992525	-0.658766
C36	C	-0.011981	1.492525	-0.158766
C37	C	-0.496017	0.902941	-0.638273
C38	C	0.003983	1.402941	-0.138273
C39	C	-0.428080	0.771760	-0.551053
C40	C	0.071920	1.271760	-0.051053
C41	C	-0.443086	0.855938	-0.570316
C42	C	0.056914	1.355938	-0.070316
C43	C	-0.533968	0.865775	-0.686992
C44	C	-0.033968	1.365775	-0.186992
C45	C	-0.518973	0.781594	-0.667736
C46	C	-0.018973	1.281594	-0.167736
C47	C	-0.466028	0.734593	-0.599766
C48	C	0.033972	1.234593	-0.099766
C49	C	-0.556921	0.744428	-0.716449
C50	C	-0.056921	1.244428	-0.216449
C51	C	-0.541923	0.660256	-0.697197
C52	C	-0.041923	1.160256	-0.197197
C53	C	-0.488978	0.613250	-0.629232
C54	C	0.011022	1.113250	-0.129232
C55	C	-0.451030	0.650421	-0.580514
C56	C	0.048970	1.150421	-0.080514
C57	C	-0.609861	0.791432	-0.784423
C58	C	-0.109861	1.291432	-0.284423
C59	C	-0.647808	0.754266	-0.833136
C60	C	-0.147808	1.254266	-0.333136
C61	C	-0.632816	0.670091	-0.813881
C62	C	-0.132816	1.170091	-0.313881
C63	C	-0.579871	0.623085	-0.745915
C64	C	-0.079871	1.123085	-0.245915
C65	C	-0.670764	0.632920	-0.862599
C66	C	-0.170764	1.132920	-0.362599
C67	C	-0.655767	0.548748	-0.843347
C68	C	-0.155767	1.048748	-0.343347
C69	C	-0.564874	0.538913	-0.726663
C70	C	-0.064874	1.038913	-0.226663
C71	C	-0.770821	1.173899	-0.734600
C72	C	-0.270821	1.673899	-0.234600
C73	C	-0.865581	1.161985	-0.746571
C74	C	-0.365581	1.661985	-0.246571
C75	C	-1.206067	1.287478	-0.621514
C76	C	-0.706067	1.787478	-0.121514
C77	C	-1.117036	1.298670	-0.610262
C78	C	-0.617036	1.798670	-0.110262
C79	C	-1.054168	1.264500	-0.644338
C80	C	-0.554168	1.764500	-0.144338
C81	C	-1.080339	1.219135	-0.689668
C82	C	-0.580339	1.719135	-0.189668
C83	C	-1.169379	1.207937	-0.700915
C84	C	-0.669379	1.707937	-0.200915
C85	C	-1.017480	1.184959	-0.723740
C86	C	-0.517480	1.684959	-0.223740
C87	C	-1.043651	1.139594	-0.769069
C88	C	-0.543651	1.639594	-0.269069
C89	C	-1.132682	1.128398	-0.780314
C90	C	-0.632682	1.628398	-0.280314
C91	C	-1.195551	1.162568	-0.746238
C92	C	-0.695551	1.662568	-0.246238
C93	C	-0.928440	1.196158	-0.712493
C94	C	-0.428440	1.696158	-0.212493
C95	C	-0.891752	1.116616	-0.791894
C96	C	-0.391752	1.616616	-0.291894
C97	C	-0.980783	1.105424	-0.803145
C98	C	-0.480783	1.605424	-0.303145
C99	C	-0.326990	1.230104	-0.678754
C100	C	0.173010	1.730104	-0.178754
C101	C	-0.232239	1.242109	-0.666837
C102	C	0.267761	1.742109	-0.166837
C103	C	-0.511905	1.250177	-0.916963
C104	C	-0.011905	1.750177	-0.416963
C105	C	-0.495953	1.270736	-1.006557
C106	C	0.004047	1.770736	-0.506557
C107	C	-0.586840	1.412160	-0.754862
C108	C	-0.086840	1.912160	-0.254862
C109	C	-0.602822	1.501747	-0.775377
C110	C	-0.102822	2.001747	-0.275377
C111	C	-0.670111	1.046121	-1.276491
C112	C	-0.170111	1.546121	-0.776491
C113	C	-0.655114	1.065457	-1.360680
C114	C	-0.155114	1.565457	-0.860680
C115	C	-0.564478	1.182352	-1.370562
C116	C	-0.064478	1.682352	-0.870562
C117	C	-0.579464	1.163023	-1.286372
C118	C	-0.079464	1.663023	-0.786372
C119	C	-0.632282	1.094907	-1.239343
C120	C	-0.132282	1.594907	-0.739343
C121	C	-0.541635	1.211809	-1.249223
C122	C	-0.041635	1.711809	-0.749223
C123	C	-0.556623	1.192484	-1.165041
C124	C	-0.056623	1.692484	-0.665041
C125	C	-0.609441	1.124373	-1.118007
C126	C	-0.109441	1.624373	-0.618007
C127	C	-0.647270	1.075582	-1.155160
C128	C	-0.147270	1.575582	-0.655160
C129	C	-0.488822	1.279928	-1.296255
C130	C	0.011178	1.779928	-0.796255
C131	C	-0.450993	1.328714	-1.259107
C132	C	0.049007	1.828714	-0.759107
C133	C	-0.465976	1.309386	-1.174921
C134	C	0.034024	1.809386	-0.674921
C135	C	-0.518794	1.241275	-1.127887
C136	C	-0.018794	1.741275	-0.627887
C137	C	-0.428147	1.358177	-1.137768
C138	C	0.071853	1.858177	-0.637768
C139	C	-0.443135	1.338852	-1.053586
C140	C	0.056865	1.838852	-0.553586
C141	C	-0.533782	1.221950	-1.043705
C142	C	-0.033782	1.721950	-0.543705
C143	C	-0.586571	1.153932	-0.497298
C144	C	-0.086571	1.653932	0.002702
C145	C	-0.602310	1.133560	-0.407710
C146	C	-0.102310	1.633560	0.092290
H147	H	-0.907140	1.233093	-0.675585
H148	H	-0.407140	1.733093	-0.175585
O149	O	-0.695907	1.012828	-1.400749
O150	O	-0.195907	1.512828	-0.900749
H151	H	-0.768154	1.014458	-1.396170
H152	H	-0.268154	1.514458	-0.896170
H153	H	-0.621647	1.108642	-1.049462
H154	H	-0.121647	1.608642	-0.549462
O155	O	-0.704234	1.002111	-1.104423
O156	O	-0.204234	1.502111	-0.604423
H157	H	-0.728025	0.971430	-1.144396
H158	H	-0.228025	1.471430	-0.644396
O159	O	-0.507484	1.255798	-1.421279
O160	O	-0.007484	1.755798	-0.921279
H161	H	-0.503403	1.261032	-1.486054
H162	H	-0.003403	1.761032	-0.986054
O163	O	-1.009012	1.056481	-0.852020
O164	O	-0.509012	1.556481	-0.352020
H165	H	-1.081485	1.054429	-0.854105
H166	H	-0.581485	1.554429	-0.354105
O167	O	-0.958139	1.276557	-0.632200
O168	O	-0.458139	1.776557	-0.132200
H169	H	-0.926687	1.309703	-0.693756
H170	H	-0.426687	1.809703	-0.193756
H171	H	-0.690914	0.792546	-0.888479
H172	H	-0.190914	1.292546	-0.388479
O173	O	-0.823945	1.079757	-0.828643
O174	O	-0.323945	1.579757	-0.328643
H175	H	-0.832281	1.011168	-0.802439
H176	H	-0.332281	1.511168	-0.302439
H177	H	-0.407992	1.384176	-1.297410
H178	H	0.092008	1.884176	-0.797410
H179	H	-0.385150	1.413641	-1.176073
H180	H	0.114850	1.913641	-0.676073
O181	O	-0.402333	1.391464	-1.013507
O182	O	0.097667	1.891464	-0.513507
H183	H	-0.363079	1.442069	-1.060349
H184	H	0.136921	1.942069	-0.560349
O185	O	-0.393955	0.599699	-0.507185
O186	O	0.106045	1.099699	-0.007185
H187	H	-0.337380	0.575109	-0.529091
H188	H	0.162620	1.075109	-0.029091
O189	O	-0.370976	0.721054	-0.477741
O190	O	0.129024	1.221054	0.022259
H191	H	-0.347103	0.761037	-0.447099
H192	H	0.152897	1.261037	0.052901
H193	H	-0.521761	0.500642	-0.671315
H194	H	-0.021761	1.000642	-0.171315
H195	H	-0.412171	0.886198	-0.530649
H196	H	0.087829	1.386198	-0.030649
O197	O	-0.472813	0.522462	-0.608468
O198	O	0.027187	1.022462	-0.108468
H199	H	-0.401672	0.512153	-0.611698
H200	H	0.098328	1.012153	-0.111698
O201	O	-0.591050	0.916475	-0.760316
O202	O	-0.091050	1.416475	-0.260316
H203	H	-0.595100	0.981252	-0.765524
H204	H	-0.095100	1.481252	-0.265524
O205	O	-0.626051	0.882217	-0.805188
O206	O	-0.126051	1.382217	-0.305188
H207	H	-0.562821	0.916310	-0.818556
H208	H	-0.062821	1.416310	-0.318556
H209	H	-0.713865	0.671202	-0.917945
H210	H	-0.213865	1.171202	-0.417945
H211	H	-0.476623	1.295662	-1.364802
H212	H	0.023377	1.795662	-0.864802
H213	H	-0.686665	0.518487	-0.883016
H214	H	-0.186665	1.018487	-0.383016
H215	H	-1.095731	1.335604	-0.573354
H216	H	-0.595731	1.835604	-0.073354
H217	H	-1.257261	1.315288	-0.593767
H218	H	-0.757261	1.815288	-0.093767
O219	O	-1.291579	1.150484	-0.758366
O220	O	-0.791579	1.650484	-0.258366
H221	H	-1.330894	1.181863	-0.727051
H222	H	-0.830894	1.681863	-0.227051
H223	H	-1.153987	1.091448	-0.817213
H224	H	-0.653987	1.591448	-0.317213
O225	O	-0.590747	1.148477	-0.992975
O226	O	-0.090747	1.648477	-0.492975
H227	H	-0.552098	1.103503	-0.940440
H228	H	-0.052098	1.603503	-0.440440
H229	H	-0.713097	0.990637	-1.238190
H230	H	-0.213097	1.490637	-0.738190
