data_functionalizedCrystal
_audit_creation_method	'MofGen! by Chris Wilmer'
_symmetry_space_group_name_H-M	'P1'
_symmetry_Int_Tables_number	1
_symmetry_cell_setting	triclinic
loop_
_symmetry_equiv_pos_as_xyz
  x,y,z
_cell_length_a	8.597340
_cell_length_b	8.597304
_cell_length_c	7.088929
_cell_angle_alpha	103.972562
_cell_angle_beta	76.045281
_cell_angle_gamma	86.359595
loop_
_atom_site_label
_atom_site_type_symbol
_atom_site_fract_x
_atom_site_fract_y
_atom_site_fract_z
O1	O	2.101068	0.219206	-0.151022
O2	O	1.636350	0.245262	-0.070174
O3	O	1.881729	-0.000135	-0.151023
O4	O	1.855689	0.464604	-0.070173
O5	O	1.914522	-0.033004	-0.479815
O6	O	1.669143	0.212393	-0.398966
O7	O	2.133861	0.186337	-0.479814
Cu8	Cu	1.904496	0.196364	-0.469411
Cu9	Cu	1.865715	0.235236	-0.080576
O10	O	1.888482	0.431735	-0.398965
C11	C	1.593284	0.227861	-0.224933
C12	C	1.416107	0.224960	-0.196223
C13	C	1.897156	-0.076034	-0.325051
C14	C	1.894249	-0.253218	-0.353749
C15	C	2.176926	0.203740	-0.325050
C16	C	2.354102	0.206642	-0.353747
C17	C	1.873054	0.507634	-0.224932
C18	C	1.875960	0.684819	-0.196221
N19	N	1.931784	0.169023	-0.742899
N20	N	1.838439	0.262564	0.192907
H21	H	1.333636	0.238425	-0.039379
N22	N	1.858065	-0.205898	0.011551
H23	H	1.862706	-0.090562	0.003311
H24	H	1.948635	-0.240118	0.066812
N25	N	1.463331	0.188809	-0.561493
H26	H	1.429185	0.279402	-0.616761
H27	H	1.455288	0.081550	-0.653514
N28	N	1.912036	-0.362494	-0.561512
H29	H	1.907365	-0.477827	-0.553271
H30	H	2.019226	-0.354379	-0.653558
N31	N	1.710290	0.390971	-0.656696
H32	H	1.712213	0.389030	-0.515383
H33	H	1.600631	0.369203	-0.677127
H34	H	2.028543	0.072093	-0.856462
