data_functionalizedCrystal
_audit_creation_method	'MofGen! by Chris Wilmer'
_symmetry_space_group_name_H-M	'P1'
_symmetry_Int_Tables_number	1
_symmetry_cell_setting	triclinic
loop_
_symmetry_equiv_pos_as_xyz
  x,y,z
_cell_length_a	19.851628
_cell_length_b	12.970454
_cell_length_c	12.970454
_cell_angle_alpha	59.999644
_cell_angle_beta	90.003711
_cell_angle_gamma	59.998287
loop_
_atom_site_label
_atom_site_type_symbol
_atom_site_fract_x
_atom_site_fract_y
_atom_site_fract_z
Zr1	Zr	0.648977	1.128405	-0.135185
O2	O	0.541410	1.343516	-0.299831
O3	O	0.681952	0.913308	-0.084711
O4	O	0.681951	1.128400	-0.299803
O5	O	0.541411	1.128423	0.084929
O6	O	0.792813	1.128380	-0.299783
O7	O	0.541410	1.128424	-0.084739
O8	O	0.792814	0.743620	0.084977
O9	O	0.541410	1.513183	-0.299832
O10	O	0.778750	1.001760	-0.063171
O11	O	0.696016	1.001775	0.063435
O12	O	0.696015	1.255018	-0.189808
O13	O	0.613281	1.255032	-0.063203
Zr14	Zr	0.825789	1.128372	0.135448
Zr15	Zr	0.825789	1.128373	-0.135152
Zr16	Zr	0.648978	1.128404	0.135415
Zr17	Zr	0.648977	1.399005	-0.135186
Zr18	Zr	0.825789	0.857772	0.135449
O19	O	0.792814	1.343469	0.084974
O20	O	0.792813	1.343471	-0.299784
O21	O	0.541411	1.343514	0.084928
O22	O	0.933357	0.913261	0.300094
O23	O	0.933356	0.913263	-0.084665
O24	O	0.681953	0.913306	0.300047
O25	O	0.933356	1.128354	-0.084666
O26	O	0.792815	1.128377	0.300066
O27	O	0.681953	1.128397	0.300046
O28	O	0.933356	1.128353	0.085002
O29	O	0.681951	1.513158	-0.299805
O30	O	0.792815	0.743619	0.300068
O31	O	0.933357	0.743593	0.300094
O32	O	0.933356	0.743594	0.085004
O33	O	0.541410	1.513182	-0.084741
O34	O	0.681952	1.513157	-0.084715
O35	O	0.778751	1.001759	0.190071
O36	O	0.861486	1.001745	0.063466
O37	O	0.778750	1.255002	-0.063172
O38	O	0.696016	1.255016	0.063434
C39	C	0.737383	0.789909	0.000133
C40	C	0.737383	0.675032	0.000134
C41	C	0.516219	1.128428	0.000090
C42	C	0.441157	1.128442	0.000076
C43	C	0.214702	1.266496	-0.068929
C44	C	0.192340	1.197471	-0.118960
C45	C	0.303751	1.128404	0.000112
C46	C	0.192372	1.197438	0.050120
C47	C	0.171019	1.128378	0.000147
C48	C	0.282378	1.059378	-0.049987
C49	C	0.282407	1.059365	0.119158
C50	C	0.260098	0.990239	0.069158
C51	C	0.380213	1.128423	0.000090
C52	C	0.094561	1.128348	0.000167
C53	C	0.958548	1.128349	0.000173
C54	C	1.033609	1.128335	0.000187
C55	C	0.737382	1.128390	-0.338348
C56	C	0.737382	1.128391	-0.453225
C57	C	0.737383	1.466868	0.000130
C58	C	0.737383	1.581744	0.000129
C59	C	0.737384	1.128387	0.338611
C60	C	0.737384	1.128386	0.453487
C61	C	0.958548	0.789869	0.000174
C62	C	1.033609	0.674979	0.000189
C63	C	0.737384	0.789907	0.338612
C64	C	0.737384	0.675030	0.453490
C65	C	0.958549	0.789868	0.338654
C66	C	1.033610	0.674977	0.453545
C67	C	0.516218	1.466909	-0.338391
C68	C	0.441156	1.581800	-0.453282
C69	C	0.516219	1.466907	0.000089
C70	C	0.441157	1.581798	0.000074
C71	C	0.737382	1.466869	-0.338350
C72	C	0.737382	1.581747	-0.453227
C73	C	1.025671	0.621034	-0.065918
C74	C	1.096193	0.513097	-0.065930
C75	C	1.174651	0.459100	0.000174
C76	C	1.182586	0.513057	0.066283
C77	C	1.112066	0.620999	0.066287
C78	C	1.112054	0.621016	0.441412
C79	C	1.182589	0.513078	0.549354
C80	C	1.174678	0.459097	0.669428
C81	C	1.096227	0.513069	0.681558
C82	C	1.025693	0.621012	0.573617
C83	C	0.362712	1.635774	-0.441149
C84	C	0.292177	1.743745	-0.549092
C85	C	0.300088	1.797732	-0.669165
C86	C	0.378540	1.743753	-0.681295
C87	C	0.449073	1.635792	-0.573354
C88	C	0.449095	1.635754	0.066170
C89	C	0.378574	1.743721	0.066152
C90	C	0.300116	1.797721	0.000044
C91	C	0.292180	1.743760	-0.066060
C92	C	0.362700	1.635803	-0.066048
H93	H	0.196250	1.383259	-0.127399
F94	F	0.141610	1.273754	-0.250530
H95	H	0.242648	1.885640	-0.757048
F96	F	0.354275	1.578334	-0.313368
F97	F	0.387037	1.801127	0.136516
F98	F	0.141655	1.273755	0.105381
F99	F	1.266075	0.455652	0.536418
H100	H	0.228305	1.787676	-0.539190
H101	H	0.961793	0.664996	-0.119764
H102	H	0.242700	1.885627	0.000045
H103	H	1.232118	0.371203	0.757310
F104	F	0.208672	1.801243	-0.136409
F105	F	1.266094	0.455571	0.136634
H106	H	0.356226	1.591874	-0.119868
H107	H	0.321073	1.001057	-0.092381
F108	F	0.942209	0.678424	0.586549
H109	H	0.278705	0.873381	0.127545
H110	H	0.321215	1.001051	0.219799
F111	F	1.087729	0.455688	-0.136291
F112	F	1.249698	0.344216	0.000160
H113	H	0.512973	1.591796	0.120011
F114	F	1.120526	0.678393	0.136659
F115	F	0.532557	1.578351	-0.586286
H116	H	1.118510	0.664951	0.343652
H117	H	1.089798	0.469102	0.779337
H118	H	0.384971	1.787723	-0.779072
