data_functionalizedCrystal
_audit_creation_method	'MofGen! by Chris Wilmer'
_symmetry_space_group_name_H-M	'P1'
_symmetry_Int_Tables_number	1
_symmetry_cell_setting	triclinic
loop_
_symmetry_equiv_pos_as_xyz
  x,y,z
_cell_length_a	16.120530
_cell_length_b	16.120484
_cell_length_c	13.897441
_cell_angle_alpha	87.134365
_cell_angle_beta	92.919063
_cell_angle_gamma	90.167327
loop_
_atom_site_label
_atom_site_type_symbol
_atom_site_fract_x
_atom_site_fract_y
_atom_site_fract_z
Zn1	Zn	1.254496	-0.395574	0.642097
Zn2	Zn	1.247333	-0.534641	0.488526
Zn3	Zn	1.115429	-0.388549	0.472252
Zn4	Zn	1.108348	-0.527527	0.641215
O5	O	1.181401	-0.461573	0.561022
O6	O	1.369911	-0.419938	0.628906
O7	O	1.229802	-0.515300	0.351386
O8	O	1.139838	-0.273118	0.488340
O9	O	1.364649	-0.522111	0.516078
O10	O	1.242009	-0.278279	0.613125
O11	O	1.132893	-0.407967	0.339429
O12	O	0.998124	-0.401068	0.487485
O13	O	1.127768	-0.509985	0.776313
O14	O	0.992921	-0.503174	0.611621
O15	O	1.235142	-0.413040	0.776962
O16	O	1.222936	-0.650060	0.515222
O17	O	1.120823	-0.644833	0.627402
C18	C	0.965350	-0.450587	0.547692
C19	C	0.872922	-0.445908	0.542013
C20	C	0.703694	-0.437345	0.531652
C21	C	0.659946	-0.485862	0.590467
C22	C	0.565782	-0.481098	0.584702
C23	C	0.797867	-0.442108	0.537415
C24	C	1.170356	-0.677620	0.573005
C25	C	1.165707	-0.770049	0.578168
C26	C	1.157224	-0.939280	0.587614
C27	C	1.205728	-0.983033	0.534456
C28	C	1.201008	-1.077199	0.539712
C29	C	1.161943	-0.845105	0.582359
C30	C	1.398296	-0.472602	0.574406
C31	C	1.490724	-0.477302	0.580109
C32	C	1.181464	-0.461502	0.812615
C33	C	1.181491	-0.461472	0.919829
C34	C	1.192512	-0.244684	0.549016
C35	C	1.197247	-0.152258	0.543899
C36	C	1.181390	-0.461585	0.310408
C37	C	1.181536	-0.461389	0.203192
C38	C	1.181516	-0.461417	1.116122
C39	C	1.181500	-0.461450	1.006891
H40	H	0.670431	-0.392234	0.476972
Cl41	Cl	1.087642	-0.990631	0.663966
Cl42	Cl	1.275309	-0.931682	0.458092
H43	H	0.693212	-0.530976	0.645152
