data_functionalizedCrystal
_audit_creation_method	'MofGen! by Chris Wilmer'
_symmetry_space_group_name_H-M	'P1'
_symmetry_Int_Tables_number	1
_symmetry_cell_setting	triclinic
loop_
_symmetry_equiv_pos_as_xyz
  x,y,z
_cell_length_a	16.959454
_cell_length_b	19.805407
_cell_length_c	19.805399
_cell_angle_alpha	89.979591
_cell_angle_beta	89.977613
_cell_angle_gamma	90.022016
loop_
_atom_site_label
_atom_site_type_symbol
_atom_site_fract_x
_atom_site_fract_y
_atom_site_fract_z
Zn1	Zn	-0.314659	1.034765	-0.382759
Zn2	Zn	0.018674	1.368099	-0.049426
Zn3	Zn	0.352008	1.701432	0.283907
Zn4	Zn	-0.446841	1.034693	-0.269581
Zn5	Zn	-0.113508	1.368026	0.063752
Zn6	Zn	0.219825	1.701360	0.397085
Zn7	Zn	-0.314685	0.921580	-0.269582
Zn8	Zn	0.018648	1.254913	0.063751
Zn9	Zn	0.351981	1.588247	0.397085
Zn10	Zn	-0.446804	0.921556	-0.382726
Zn11	Zn	-0.113470	1.254889	-0.049393
Zn12	Zn	0.219863	1.588223	0.283940
O13	O	-0.380747	0.978149	-0.326162
O14	O	-0.047414	1.311482	0.007171
O15	O	0.285919	1.644815	0.340504
O16	O	-0.332198	1.129472	-0.367759
O17	O	0.001135	1.462806	-0.034426
O18	O	0.334469	1.796139	0.298907
O19	O	-0.429337	1.019668	-0.174865
O20	O	-0.096004	1.353001	0.158469
O21	O	0.237329	1.686335	0.491802
O22	O	-0.204071	0.936635	-0.284609
O23	O	0.129263	1.269968	0.048724
O24	O	0.462596	1.603302	0.382057
O25	O	-0.429312	1.129419	-0.284608
O26	O	-0.095978	1.462752	0.048725
O27	O	0.237355	1.796086	0.382059
O28	O	-0.204052	1.019792	-0.367760
O29	O	0.129282	1.353125	-0.034427
O30	O	0.462615	1.686458	0.298906
O31	O	-0.332243	0.936564	-0.174865
O32	O	0.001091	1.269898	0.158468
O33	O	0.334424	1.603231	0.491801
O34	O	-0.332206	0.826860	-0.284578
O35	O	0.001127	1.160194	0.048756
O36	O	0.334460	1.493527	0.382089
O37	O	-0.429248	0.936594	-0.477447
O38	O	-0.095914	1.269927	-0.144114
O39	O	0.237419	1.603261	0.189219
O40	O	-0.429273	0.826843	-0.367704
O41	O	-0.095940	1.160176	-0.034371
O42	O	0.237393	1.493509	0.298963
O43	O	-0.332162	1.019768	-0.477471
O44	O	0.001172	1.353102	-0.144138
O45	O	0.334505	1.686435	0.189195
O46	O	-0.557447	1.019645	-0.284576
O47	O	-0.224114	1.352978	0.048757
O48	O	0.109219	1.686311	0.382091
O49	O	-0.557420	0.936524	-0.367703
O50	O	-0.224086	1.269857	-0.034370
O51	O	0.109247	1.603190	0.298963
C52	C	-0.380739	0.802293	-0.326138
C53	C	-0.047406	1.135626	0.007196
C54	C	0.285928	1.468959	0.340529
C55	C	-0.380755	0.727061	-0.326143
C56	C	-0.047421	1.060394	0.007190
C57	C	0.285912	1.393727	0.340523
C58	C	-0.330275	0.265301	-0.369552
C59	C	0.003059	0.598634	-0.036218
C60	C	0.336392	0.931968	0.297115
C61	C	-0.330276	0.335989	-0.369547
C62	C	0.003057	0.669323	-0.036213
C63	C	0.336391	1.002656	0.297120
C64	C	-0.380759	0.371299	-0.326184
C65	C	-0.047426	0.704632	0.007149
C66	C	0.285907	1.037966	0.340483
C67	C	-0.431250	0.335916	-0.282828
C68	C	-0.097917	0.669250	0.050505
C69	C	0.235417	1.002583	0.383838
C70	C	-0.431252	0.265229	-0.282837
C71	C	-0.097919	0.598563	0.050496
C72	C	0.235415	0.931896	0.383830
C73	C	-0.431244	0.620990	-0.282792
C74	C	-0.097911	0.954323	0.050541
C75	C	0.235423	1.287656	0.383874
C76	C	-0.431236	0.691682	-0.282786
C77	C	-0.097903	1.025015	0.050548
C78	C	0.235430	1.358348	0.383881
C79	C	-0.330268	0.691750	-0.369502
C80	C	0.003065	1.025083	-0.036169
C81	C	0.336399	1.358416	0.297165
C82	C	-0.330270	0.621063	-0.369511
C83	C	0.003063	0.954396	-0.036178
C84	C	0.336397	1.287729	0.297156
C85	C	-0.380763	0.585686	-0.326158
C86	C	-0.047430	0.919020	0.007175
C87	C	0.285903	1.252353	0.340509
C88	C	-0.380762	0.509038	-0.326165
C89	C	-0.047429	0.842371	0.007169
C90	C	0.285904	1.175705	0.340502
C91	C	-0.380757	0.447946	-0.326173
C92	C	-0.047424	0.781279	0.007160
C93	C	0.285910	1.114613	0.340493
C94	C	-0.586114	0.978092	-0.326151
C95	C	-0.252780	1.311425	0.007183
C96	C	0.080553	1.644759	0.340516
C97	C	-0.673970	0.978130	-0.326168
C98	C	-0.340637	1.311463	0.007165
C99	C	-0.007303	1.644796	0.340498
C100	C	-1.045461	0.934930	-0.369442
C101	C	-0.712128	1.268264	-0.036109
C102	C	-0.378795	1.601597	0.297225
C103	C	-1.045430	1.021556	-0.282951
C104	C	-0.712097	1.354889	0.050382
C105	C	-0.378763	1.688222	0.383715
C106	C	-0.962884	1.021532	-0.282945
C107	C	-0.629551	1.354865	0.050388
C108	C	-0.296218	1.688199	0.383721
C109	C	-0.921623	0.978206	-0.326187
C110	C	-0.588290	1.311539	0.007146
C111	C	-0.254956	1.644873	0.340479
C112	C	-0.962908	0.934904	-0.369436
C113	C	-0.629574	1.268237	-0.036102
C114	C	-0.296241	1.601571	0.297231
C115	C	-0.921593	1.064828	-0.239693
C116	C	-0.588260	1.398162	0.093640
C117	C	-0.254927	1.731495	0.426974
C118	C	-0.839042	1.064806	-0.239684
C119	C	-0.505709	1.398139	0.093649
C120	C	-0.172376	1.731473	0.426982
C121	C	-0.797780	1.021483	-0.282930
C122	C	-0.464446	1.354816	0.050403
C123	C	-0.131113	1.688150	0.383736
C124	C	-0.839070	0.978180	-0.326181
C125	C	-0.505736	1.311513	0.007152
C126	C	-0.172403	1.644846	0.340486
C127	C	-0.797808	0.934854	-0.369423
C128	C	-0.464475	1.268187	-0.036090
C129	C	-0.131142	1.601521	0.297244
C130	C	-0.839097	0.891553	-0.412678
C131	C	-0.505763	1.224887	-0.079344
C132	C	-0.172430	1.558220	0.253989
C133	C	-0.921645	0.891581	-0.412682
C134	C	-0.588312	1.224914	-0.079348
C135	C	-0.254978	1.558248	0.253985
C136	C	-0.715231	1.021455	-0.282926
C137	C	-0.381898	1.354789	0.050407
C138	C	-0.048565	1.688122	0.383740
C139	C	-0.715255	0.934827	-0.369417
C140	C	-0.381922	1.268161	-0.036083
C141	C	-0.048588	1.601494	0.297250
C142	C	-0.174579	0.978224	-0.326189
C143	C	0.158754	1.311557	0.007145
C144	C	0.492088	1.644891	0.340478
C145	C	-0.086722	0.978256	-0.326200
C146	C	0.246611	1.311589	0.007134
C147	C	0.579944	1.644923	0.340467
C148	C	-0.380698	0.978187	-0.502705
C149	C	-0.047364	1.311520	-0.169372
C150	C	0.285969	1.644853	0.163962
C151	C	-0.380676	0.978203	-0.577937
C152	C	-0.047343	1.311536	-0.244604
C153	C	0.285990	1.644869	0.088730
C154	C	-0.380756	1.154691	-0.326187
C155	C	-0.047423	1.488025	0.007146
C156	C	0.285911	1.821358	0.340480
C157	C	-0.380760	1.229923	-0.326198
C158	C	-0.047426	1.563257	0.007136
C159	C	0.285907	1.896590	0.340469
C160	C	-0.330121	1.021513	-0.613295
C161	C	0.003212	1.354846	-0.279962
C162	C	0.336546	1.688179	0.053372
C163	C	-0.330098	1.021520	-0.683983
C164	C	0.003235	1.354853	-0.350650
C165	C	0.336569	1.688186	-0.017317
C166	C	-0.380635	0.978220	-0.719313
C167	C	-0.047302	1.311553	-0.385979
C168	C	0.286032	1.644886	-0.052646
C169	C	-0.431193	0.934905	-0.683950
C170	C	-0.097859	1.268238	-0.350617
C171	C	0.235474	1.601572	-0.017283
C172	C	-0.431211	0.934895	-0.613263
C173	C	-0.097878	1.268228	-0.279929
C174	C	0.235456	1.601562	0.053404
C175	C	-0.431119	0.934943	-0.969023
C176	C	-0.097786	1.268276	-0.635690
C177	C	0.235548	1.601610	-0.302357
C178	C	-0.431098	0.934958	-1.039715
C179	C	-0.097765	1.268291	-0.706382
C180	C	0.235568	1.601624	-0.373049
C181	C	-0.330006	1.021568	-1.039744
C182	C	0.003327	1.354901	-0.706411
C183	C	0.336661	1.688234	-0.373077
C184	C	-0.330024	1.021558	-0.969057
C185	C	0.003309	1.354891	-0.635723
C186	C	0.336642	1.688224	-0.302390
C187	C	-0.380579	0.978241	-0.933700
C188	C	-0.047245	1.311574	-0.600367
C189	C	0.286088	1.644908	-0.267034
C190	C	-0.380602	0.978233	-0.857052
C191	C	-0.047268	1.311566	-0.523718
C192	C	0.286065	1.644900	-0.190385
C193	C	-0.380616	0.978230	-0.795960
C194	C	-0.047283	1.311564	-0.462627
C195	C	0.286050	1.644897	-0.129293
C196	C	-0.380740	0.978150	-0.150306
C197	C	-0.047407	1.311483	0.183027
C198	C	0.285927	1.644816	0.516360
C199	C	-0.380538	0.978265	-0.075075
C200	C	-0.047205	1.311598	0.258259
C201	C	0.286128	1.644931	0.591592
H202	H	-0.289159	0.592317	-0.404819
H203	H	0.044175	0.925650	-0.071486
H204	H	0.377508	1.258984	0.261848
Br205	Br	-0.261394	1.080355	-1.087732
Br206	Br	0.071939	1.413689	-0.754398
Br207	Br	0.405273	1.747022	-0.421065
H208	H	-0.289156	0.720562	-0.404804
H209	H	0.044177	1.053895	-0.071471
H210	H	0.377510	1.387228	0.261862
Br211	Br	-0.499752	0.739602	-0.223931
Br212	Br	-0.166419	1.072935	0.109403
Br213	Br	0.166914	1.406269	0.442736
Br214	Br	-0.499747	0.572988	-0.223936
Br215	Br	-0.166413	0.906321	0.109397
Br216	Br	0.166920	1.239654	0.442731
Br217	Br	-0.977683	0.832822	-0.471379
Br218	Br	-0.644350	1.166155	-0.138045
Br219	Br	-0.311017	1.499488	0.195288
Br220	Br	-0.499770	0.383836	-0.223983
Br221	Br	-0.166436	0.717169	0.109350
Br222	Br	0.166897	1.050502	0.442684
H223	H	-0.805492	0.856274	-0.447883
H224	H	-0.472159	1.189607	-0.114549
H225	H	-0.138826	1.522941	0.218784
Br226	Br	-0.499820	0.876111	-0.565276
Br227	Br	-0.166486	1.209444	-0.231943
Br228	Br	0.166847	1.542778	0.101391
H229	H	-0.472364	0.236426	-0.247535
H230	H	-0.139030	0.569759	0.085798
H231	H	0.194303	0.903092	0.419131
H232	H	-0.681618	1.056707	-0.247706
H233	H	-0.348285	1.390040	0.085627
H234	H	-0.014952	1.723373	0.418961
H235	H	-0.681665	0.899549	-0.404632
H236	H	-0.348332	1.232882	-0.071299
H237	H	-0.014998	1.566215	0.262034
Br238	Br	-1.101491	0.876173	-0.428147
Br239	Br	-0.768158	1.209506	-0.094813
Br240	Br	-0.434825	1.542840	0.238520
Br241	Br	-0.261521	1.080331	-0.731967
Br242	Br	0.071812	1.413665	-0.398633
Br243	Br	0.405146	1.746998	-0.065300
H244	H	-0.289160	0.236557	-0.404859
H245	H	0.044173	0.569890	-0.071525
H246	H	0.377506	0.903224	0.261808
H247	H	-0.288970	1.056775	-0.584535
H248	H	0.044363	1.390108	-0.251201
H249	H	0.377696	1.723441	0.082132
Br250	Br	-0.261440	1.080328	-0.921113
Br251	Br	0.071893	1.413661	-0.587780
Br252	Br	0.405226	1.746994	-0.254447
Br253	Br	-1.101427	1.080351	-0.224268
Br254	Br	-0.768094	1.413684	0.109066
Br255	Br	-0.434761	1.747018	0.442399
H256	H	-0.955194	1.100097	-0.204483
H257	H	-0.621861	1.433430	0.128851
H258	H	-0.288528	1.766764	0.462184
H259	H	-0.805431	1.100064	-0.204465
H260	H	-0.472097	1.433397	0.128868
H261	H	-0.138764	1.766730	0.462201
H262	H	-0.472253	0.899695	-1.068479
H263	H	-0.138920	1.233028	-0.735145
H264	H	0.194414	1.566361	-0.401812
H265	H	-0.289169	0.364791	-0.404852
H266	H	0.044165	0.698124	-0.071519
H267	H	0.377498	1.031457	0.261815
Br268	Br	-0.499727	0.876155	-0.921048
Br269	Br	-0.166394	1.209488	-0.587715
Br270	Br	0.166940	1.542821	-0.254381
Br271	Br	-0.499775	0.876136	-0.731896
Br272	Br	-0.166441	1.209469	-0.398563
Br273	Br	0.166892	1.542802	-0.065229
