data_functionalizedCrystal
_audit_creation_method	'MofGen! by Chris Wilmer'
_symmetry_space_group_name_H-M	'P1'
_symmetry_Int_Tables_number	1
_symmetry_cell_setting	triclinic
loop_
_symmetry_equiv_pos_as_xyz
  x,y,z
_cell_length_a	16.109301
_cell_length_b	16.109301
_cell_length_c	15.186229
_cell_angle_alpha	89.994833
_cell_angle_beta	89.999362
_cell_angle_gamma	83.461481
loop_
_atom_site_label
_atom_site_type_symbol
_atom_site_fract_x
_atom_site_fract_y
_atom_site_fract_z
O1	O	1.103131	0.106866	-0.073176
O2	O	1.603131	0.606866	0.426824
O3	O	0.861069	0.120165	-0.073190
O4	O	1.361069	0.620165	0.426810
O5	O	0.988749	-0.007515	-0.073174
O6	O	1.488749	0.492485	0.426826
O7	O	0.975450	0.234547	-0.073192
O8	O	1.475450	0.734547	0.426808
O9	O	0.988741	-0.007517	0.073284
O10	O	1.488741	0.492483	0.573284
O11	O	0.861060	0.120164	0.073267
O12	O	1.361060	0.620164	0.573267
O13	O	1.103122	0.106864	0.073282
O14	O	1.603122	0.606864	0.573282
Zn15	Zn	0.982090	0.113514	0.096528
Zn16	Zn	1.482090	0.613514	0.596528
Zn17	Zn	0.982101	0.113516	-0.096436
Zn18	Zn	1.482101	0.613516	0.403564
O19	O	0.975441	0.234545	0.073265
O20	O	1.475441	0.734545	0.573265
C21	C	0.830090	0.119626	0.000037
C22	C	1.330090	0.619626	0.500037
C23	C	0.737794	0.118011	0.000032
C24	C	1.237794	0.618011	0.500032
C25	C	0.515522	0.190018	0.000036
C26	C	1.015522	0.690018	0.500036
C27	C	0.428801	0.188494	0.000042
C28	C	0.928801	0.688494	0.500042
C29	C	0.448676	0.037006	0.000050
C30	C	0.948676	0.537006	0.500050
C31	C	0.535394	0.038530	0.000051
C32	C	1.035394	0.538530	0.500051
C33	C	0.568815	0.115039	0.000039
C34	C	1.068815	0.615039	0.500039
C35	C	0.395376	0.111990	0.000045
C36	C	0.895376	0.611990	0.500045
C37	C	0.301350	0.110337	0.000051
C38	C	0.801350	0.610337	0.500051
C39	C	0.662847	0.116693	0.000035
C40	C	1.162847	0.616693	0.500035
C41	C	0.988206	-0.038491	0.000056
C42	C	1.488206	0.461509	0.500056
C43	C	0.986591	-0.130786	0.000057
C44	C	1.486591	0.369214	0.500057
C45	C	1.058599	-0.353059	0.000047
C46	C	1.558599	0.146941	0.500047
C47	C	1.057075	-0.439779	0.000040
C48	C	1.557075	0.060221	0.500040
C49	C	0.905586	-0.419905	0.000034
C50	C	1.405586	0.080095	0.500034
C51	C	0.907111	-0.333186	0.000035
C52	C	1.407111	0.166814	0.500035
C53	C	0.983620	-0.299766	0.000046
C54	C	1.483620	0.200234	0.500046
C55	C	0.980571	-0.473205	0.000038
C56	C	1.480571	0.026795	0.500038
C57	C	0.978918	-0.567231	0.000030
C58	C	1.478918	-0.067231	0.500030
C59	C	0.985273	-0.205734	0.000052
C60	C	1.485273	0.294266	0.500052
C61	C	1.134101	0.107404	0.000053
C62	C	1.634101	0.607404	0.500053
C63	C	1.226397	0.109019	0.000052
C64	C	1.726397	0.609019	0.500052
C65	C	0.975984	0.265521	0.000034
C66	C	1.475984	0.765521	0.500034
C67	C	0.977600	0.357816	0.000027
C68	C	1.477600	0.857816	0.500027
N69	N	0.982088	0.113511	0.228220
N70	N	1.482088	0.613511	0.728220
N71	N	0.982109	0.113512	-0.228129
N72	N	1.482109	0.613512	0.271871
C73	C	1.038644	0.056994	0.453950
C74	C	1.538644	0.556994	0.953950
C75	C	1.038647	0.056992	0.546140
C76	C	1.538647	0.556992	1.046140
C77	C	0.925547	0.170032	0.546135
C78	C	1.425547	0.670032	1.046135
C79	C	0.925541	0.170030	0.453947
C80	C	1.425541	0.670030	0.953947
C81	C	0.982094	0.113511	0.407857
C82	C	1.482094	0.613511	0.907857
C83	C	0.982103	0.113512	0.592235
C84	C	1.482103	0.613512	1.092235
C85	C	0.982105	0.113510	0.692191
C86	C	1.482105	0.613510	1.192191
C87	C	0.982091	0.113512	0.307894
C88	C	1.482091	0.613512	0.807894
H89	H	0.421454	-0.025285	0.000065
H90	H	0.921454	0.474715	0.500065
H91	H	1.084692	0.010972	0.416426
H92	H	1.584692	0.510972	0.916426
H93	H	1.120897	-0.325851	0.000054
H94	H	1.620897	0.174149	0.500054
H95	H	1.084694	0.010969	0.583667
H96	H	1.584694	0.510969	1.083667
C97	C	0.864103	0.231489	0.404054
C98	C	1.364103	0.731489	0.904054
C99	C	0.814597	0.281006	0.464147
C100	C	1.314597	0.781006	0.964147
C101	C	0.758000	0.337634	0.418218
C102	C	1.258000	0.837634	0.918218
H103	H	0.829425	0.201665	0.368096
H104	H	1.329425	0.701665	0.868096
H105	H	0.893977	0.266151	0.368102
H106	H	1.393977	0.766151	0.868102
H107	H	0.784725	0.246349	0.500083
H108	H	1.284725	0.746349	1.000083
H109	H	0.849253	0.310848	0.500107
H110	H	1.349253	0.810848	1.000107
H111	H	0.787874	0.372295	0.382266
H112	H	1.287874	0.872295	0.882266
H113	H	0.723327	0.307802	0.382262
H114	H	1.223327	0.807802	0.882262
H115	H	0.724409	0.371242	0.458984
H116	H	1.224409	0.871242	0.958984
C117	C	0.825636	-0.275416	-0.000103
C118	C	1.325636	0.224584	0.499897
C119	C	0.779561	-0.290523	-0.075442
C120	C	1.279561	0.209477	0.424558
C121	C	0.704501	-0.237330	-0.075597
C122	C	1.204501	0.262670	0.424403
H123	H	0.837384	-0.218956	-0.000149
H124	H	1.337384	0.281044	0.499851
H125	H	0.794216	-0.285559	0.050943
H126	H	1.294216	0.214441	0.550943
H127	H	0.810974	-0.280374	-0.126474
H128	H	1.310974	0.219626	0.373526
H129	H	0.767790	-0.346974	-0.075411
H130	H	1.267790	0.153026	0.424589
H131	H	0.673081	-0.247473	-0.024551
H132	H	1.173081	0.252527	0.475449
H133	H	0.716258	-0.180873	-0.075641
H134	H	1.216258	0.319127	0.424359
H135	H	0.673227	-0.247578	-0.126709
H136	H	1.173227	0.252422	0.373291
C137	C	1.138572	-0.497502	0.000089
C138	C	1.638572	0.002498	0.500089
C139	C	1.205896	-0.449669	0.000120
C140	C	1.705896	0.050331	0.500120
C141	C	1.280987	-0.502814	0.000175
C142	C	1.780987	-0.002814	0.500175
H143	H	1.141249	-0.531757	-0.050972
H144	H	1.641249	-0.031757	0.449028
H145	H	1.141169	-0.531739	0.051180
H146	H	1.641169	-0.031739	0.551180
H147	H	1.203301	-0.415447	-0.050967
H148	H	1.703301	0.084553	0.449033
H149	H	1.203247	-0.415416	0.051176
H150	H	1.703247	0.084584	0.551176
H151	H	1.283584	-0.537051	0.051267
H152	H	1.783584	-0.037051	0.551267
H153	H	1.283656	-0.537066	-0.050886
H154	H	1.783656	-0.037066	0.449114
H155	H	1.326676	-0.470367	0.000204
H156	H	1.826676	0.029633	0.500204
H157	H	0.879503	0.216049	0.583670
H158	H	1.379503	0.716049	1.083670
H159	H	0.542730	0.252317	0.000034
H160	H	1.042730	0.752317	0.500034
H161	H	0.578788	-0.022530	0.000056
H162	H	1.078788	0.477470	0.500056
C163	C	0.822607	-0.456354	0.000077
C164	C	1.322607	0.043646	0.500077
C165	C	0.837318	-0.543705	0.000103
C166	C	1.337318	-0.043705	0.500103
C167	C	0.760896	-0.577308	0.000157
C168	C	1.260896	-0.077308	0.500157
H169	H	0.791671	-0.438148	-0.050982
H170	H	1.291671	0.061852	0.449018
H171	H	0.791729	-0.438108	0.051170
H172	H	1.291729	0.061892	0.551170
H173	H	0.868183	-0.561943	-0.050986
H174	H	1.368183	-0.061943	0.449014
H175	H	0.868241	-0.561934	0.051158
H176	H	1.368241	-0.061934	0.551158
H177	H	0.730017	-0.559062	0.051251
H178	H	1.230017	-0.059062	0.551251
H179	H	0.729966	-0.559096	-0.050903
H180	H	1.229966	-0.059096	0.449097
H181	H	0.770866	-0.636578	0.000183
H182	H	1.270866	-0.136578	0.500183
C183	C	0.370899	0.269875	0.000214
C184	C	0.870899	0.769875	0.500214
C185	C	0.320548	0.273437	0.075575
C186	C	0.820548	0.773437	0.575575
C187	C	0.267206	0.348400	0.075769
C188	C	0.767206	0.848400	0.575769
H189	H	0.336578	0.272508	-0.050799
H190	H	0.836578	0.772508	0.449201
H191	H	0.403196	0.315680	0.000254
H192	H	0.903196	0.815680	0.500254
H193	H	0.288254	0.227644	0.075526
H194	H	0.788254	0.727644	0.575526
H195	H	0.354847	0.270819	0.126600
H196	H	0.854847	0.770819	0.626600
H197	H	0.299503	0.394206	0.075809
H198	H	0.799503	0.894206	0.575809
H199	H	0.232890	0.351027	0.024753
H200	H	0.732890	0.851027	0.524753
H201	H	0.233042	0.350831	0.126904
H202	H	0.733042	0.850831	0.626904
