data_functionalizedCrystal
_audit_creation_method	'MofGen! by Chris Wilmer'
_symmetry_space_group_name_H-M	'P1'
_symmetry_Int_Tables_number	1
_symmetry_cell_setting	triclinic
loop_
_symmetry_equiv_pos_as_xyz
  x,y,z
_cell_length_a	6.817900
_cell_length_b	27.923497
_cell_length_c	27.923559
_cell_angle_alpha	97.590127
_cell_angle_beta	98.965071
_cell_angle_gamma	98.964248
loop_
_atom_site_label
_atom_site_type_symbol
_atom_site_fract_x
_atom_site_fract_y
_atom_site_fract_z
V1	V	-3.954328	-0.067819	-0.151591
V2	V	-3.620995	0.265514	0.181742
V3	V	-3.287661	0.598848	0.515076
O4	O	-3.966068	0.002549	-0.148377
O5	O	-3.632735	0.335882	0.184957
O6	O	-3.299401	0.669216	0.518290
O7	O	-3.884366	-0.133791	-0.150871
O8	O	-3.551033	0.199543	0.182463
O9	O	-3.217699	0.532876	0.515796
O10	O	-3.884362	-0.067087	-0.217561
O11	O	-3.551028	0.266246	0.115772
O12	O	-3.217695	0.599579	0.449106
O13	O	-3.966072	-0.064616	-0.081225
O14	O	-3.632739	0.268717	0.252109
O15	O	-3.299406	0.602050	0.585442
V16	V	-4.443544	-0.059365	-0.143136
V17	V	-4.110211	0.273968	0.190197
V18	V	-3.776878	0.607301	0.523530
O19	O	-4.203097	-0.086363	-0.170137
O20	O	-3.869764	0.246971	0.163196
O21	O	-3.536431	0.580304	0.496529
O22	O	-4.644972	-0.040822	-0.124590
O23	O	-4.311639	0.292512	0.208743
O24	O	-3.978305	0.625845	0.542077
O25	O	-4.290300	0.006606	-0.143857
O26	O	-3.956966	0.339940	0.189477
O27	O	-3.623633	0.673273	0.522810
O28	O	-4.549201	-0.129733	-0.146351
O29	O	-4.215868	0.203600	0.186982
O30	O	-3.882534	0.536933	0.520316
O31	O	-4.549197	-0.062568	-0.213503
O32	O	-4.215863	0.270765	0.119831
O33	O	-3.882530	0.604099	0.453164
O34	O	-4.290304	-0.060097	-0.077166
O35	O	-3.956971	0.273236	0.256167
O36	O	-3.623637	0.606570	0.589500
C37	C	-3.724819	-0.149864	-0.148561
C38	C	-3.391486	0.183470	0.184773
C39	C	-3.058153	0.516803	0.518106
C40	C	-3.748760	-0.203798	-0.148411
C41	C	-3.415427	0.129535	0.184922
C42	C	-3.082094	0.462868	0.518255
C43	C	-3.724813	-0.064776	-0.233630
C44	C	-3.391480	0.268557	0.099703
C45	C	-3.058146	0.601891	0.433036
C46	C	-3.748749	-0.064614	-0.287563
C47	C	-3.415416	0.268719	0.045770
C48	C	-3.082082	0.602052	0.379104
C49	C	-3.920608	-0.108134	-0.629156
C50	C	-3.587275	0.225200	-0.295823
C51	C	-3.253942	0.558533	0.037511
C52	C	-4.010668	-0.107555	-0.831862
C53	C	-3.677334	0.225778	-0.498529
C54	C	-3.344001	0.559112	-0.165195
O55	O	-4.042132	-0.145295	-0.864147
O56	O	-3.708799	0.188038	-0.530814
O57	O	-3.375466	0.521372	-0.197480
N58	N	-3.998716	-0.063018	-0.850066
N59	N	-3.665383	0.270315	-0.516733
N60	N	-3.332050	0.603648	-0.183399
C61	C	-3.964260	-0.018624	-0.817590
C62	C	-3.630926	0.314710	-0.484257
C63	C	-3.297593	0.648043	-0.150924
O64	O	-3.956181	0.019271	-0.837726
O65	O	-3.622848	0.352604	-0.504392
O66	O	-3.289515	0.685937	-0.171059
C67	C	-3.874215	-0.019203	-0.614886
C68	C	-3.540882	0.314130	-0.281552
C69	C	-3.207549	0.647464	0.051781
C70	C	-3.886149	-0.063742	-0.596684
C71	C	-3.552816	0.269591	-0.263351
C72	C	-3.219483	0.602925	0.069982
C73	C	-3.932543	-0.152669	-0.610954
C74	C	-3.599209	0.180664	-0.277621
C75	C	-3.265876	0.513997	0.055713
C76	C	-3.910018	-0.152813	-0.560280
C77	C	-3.576685	0.180520	-0.226947
C78	C	-3.243351	0.513853	0.106386
C79	C	-3.875559	-0.108422	-0.527809
C80	C	-3.542226	0.224911	-0.194475
C81	C	-3.208892	0.558245	0.138858
C82	C	-3.863625	-0.063886	-0.546011
C83	C	-3.530291	0.269447	-0.212677
C84	C	-3.196958	0.602780	0.120656
C85	C	-3.839774	0.025191	-0.582411
C86	C	-3.506440	0.358525	-0.249078
C87	C	-3.173107	0.691858	0.084256
C88	C	-3.817268	0.025042	-0.531732
C89	C	-3.483935	0.358376	-0.198399
C90	C	-3.150602	0.691709	0.134934
C91	C	-3.829202	-0.019497	-0.513531
C92	C	-3.495869	0.313837	-0.180198
C93	C	-3.162536	0.647170	0.153136
C94	C	-3.806641	-0.019639	-0.462865
C95	C	-3.473308	0.313695	-0.129532
C96	C	-3.139974	0.647028	0.203802
N97	N	-3.818593	-0.064175	-0.444661
N98	N	-3.485259	0.269158	-0.111328
N99	N	-3.151926	0.602491	0.222006
C100	C	-3.853052	-0.108567	-0.477133
C101	C	-3.519718	0.224766	-0.143799
C102	C	-3.186385	0.558100	0.189534
C103	C	-4.011532	-0.018322	-0.924014
C104	C	-3.678199	0.315011	-0.590680
C105	C	-3.344866	0.648344	-0.257347
C106	C	-4.034040	-0.018177	-0.974690
C107	C	-3.700706	0.315156	-0.641356
C108	C	-3.367373	0.648489	-0.308023
C109	C	-4.080450	-0.107109	-0.988958
C110	C	-3.747117	0.226224	-0.655624
C111	C	-3.413783	0.559557	-0.322291
C112	C	-4.057928	-0.107254	-0.938281
C113	C	-3.724594	0.226080	-0.604947
C114	C	-3.391261	0.559413	-0.271614
C115	C	-4.023484	-0.062859	-0.905810
C116	C	-3.690150	0.270474	-0.572476
C117	C	-3.356817	0.603808	-0.239143
C118	C	-3.805745	-0.108866	-0.370714
C119	C	-3.472412	0.224467	-0.037380
C120	C	-3.139078	0.557801	0.295953
C121	C	-3.783208	-0.109006	-0.320035
C122	C	-3.449875	0.224327	0.013299
C123	C	-3.116541	0.557661	0.346632
C124	C	-3.736810	-0.020075	-0.305771
C125	C	-3.403477	0.313259	0.027562
C126	C	-3.070144	0.646592	0.360895
C127	C	-3.759335	-0.019934	-0.356446
C128	C	-3.426001	0.313399	-0.023112
C129	C	-3.092668	0.646732	0.310221
C130	C	-3.793810	-0.064334	-0.388916
C131	C	-3.460477	0.268999	-0.055583
C132	C	-3.127143	0.602333	0.277750
O133	O	-3.775195	0.018081	-0.430552
O134	O	-3.441862	0.351414	-0.097219
O135	O	-3.108529	0.684748	0.236115
O136	O	-3.861168	-0.146456	-0.456988
O137	O	-3.527834	0.186877	-0.123655
O138	O	-3.194501	0.520211	0.209678
C139	C	-3.943133	-0.107990	-0.679830
C140	C	-3.609800	0.225344	-0.346496
C141	C	-3.276466	0.558677	-0.013163
C142	C	-3.931198	-0.063454	-0.698032
C143	C	-3.597865	0.269879	-0.364698
C144	C	-3.264532	0.603213	-0.031365
C145	C	-3.896739	-0.019062	-0.665560
C146	C	-3.563406	0.314271	-0.332227
C147	C	-3.230073	0.647604	0.001107
C148	C	-3.953706	-0.063309	-0.748707
C149	C	-3.620373	0.270024	-0.415374
C150	C	-3.287039	0.603358	-0.082041
C151	C	-3.988165	-0.107701	-0.781179
C152	C	-3.654832	0.225633	-0.447846
C153	C	-3.321498	0.558966	-0.114512
C154	C	-4.000117	-0.152237	-0.762975
C155	C	-3.666783	0.181096	-0.429642
C156	C	-3.333450	0.514430	-0.096308
C157	C	-3.977592	-0.152381	-0.712301
C158	C	-3.644259	0.180952	-0.378968
C159	C	-3.310925	0.514285	-0.045635
C160	C	-3.884788	0.025474	-0.683764
C161	C	-3.551455	0.358807	-0.350431
C162	C	-3.218121	0.692141	-0.017097
C163	C	-3.907312	0.025615	-0.734438
C164	C	-3.573979	0.358948	-0.401105
C165	C	-3.240646	0.692281	-0.067772
C166	C	-3.941771	-0.018777	-0.766910
C167	C	-3.608438	0.314556	-0.433577
C168	C	-3.275105	0.647890	-0.100243
C169	C	-3.874196	-0.531114	-0.102970
C170	C	-3.540862	-0.197780	0.230364
C171	C	-3.207529	0.135553	0.563697
C172	C	-3.964250	-0.733818	-0.102382
C173	C	-3.630917	-0.400485	0.230951
C174	C	-3.297583	-0.067152	0.564285
O175	O	-3.956249	-0.753966	-0.064493
O176	O	-3.622915	-0.420632	0.268840
O177	O	-3.289582	-0.087299	0.602173
N178	N	-3.998704	-0.766295	-0.146773
N179	N	-3.665371	-0.432961	0.186561
N180	N	-3.332038	-0.099628	0.519894
C181	C	-4.010659	-0.748093	-0.191313
C182	C	-3.677325	-0.414759	0.142020
C183	C	-3.343992	-0.081426	0.475353
O184	O	-4.042051	-0.780367	-0.229057
O185	O	-3.708718	-0.447034	0.104276
O186	O	-3.375384	-0.113701	0.437610
C187	C	-3.920618	-0.545389	-0.191901
C188	C	-3.587285	-0.212056	0.141433
C189	C	-3.253952	0.121278	0.474766
C190	C	-3.886143	-0.512914	-0.147507
C191	C	-3.552810	-0.179581	0.185826
C192	C	-3.219477	0.153752	0.519160
C193	C	-3.839725	-0.498640	-0.058579
C194	C	-3.506391	-0.165306	0.274754
C195	C	-3.173058	0.168027	0.608087
C196	C	-3.817202	-0.447966	-0.058727
C197	C	-3.483868	-0.114633	0.274607
C198	C	-3.150535	0.218700	0.607940
C199	C	-3.829150	-0.429767	-0.103264
C200	C	-3.495816	-0.096434	0.230069
C201	C	-3.162483	0.236900	0.563403
C202	C	-3.863620	-0.462241	-0.147654
C203	C	-3.530287	-0.128908	0.185679
C204	C	-3.196954	0.204426	0.519013
C205	C	-3.932587	-0.527188	-0.236441
C206	C	-3.599253	-0.193855	0.096892
C207	C	-3.265920	0.139479	0.430226
C208	C	-3.910078	-0.476508	-0.236584
C209	C	-3.576745	-0.143175	0.096749
C210	C	-3.243412	0.190159	0.430083
C211	C	-3.875603	-0.444034	-0.192190
C212	C	-3.542270	-0.110700	0.141143
C213	C	-3.208937	0.222633	0.474476
C214	C	-3.853045	-0.393369	-0.192339
C215	C	-3.519712	-0.060035	0.140995
C216	C	-3.186379	0.273298	0.474328
N217	N	-3.818591	-0.360892	-0.147948
N218	N	-3.485258	-0.027559	0.185385
N219	N	-3.151924	0.305774	0.518719
C220	C	-3.806643	-0.379092	-0.103411
C221	C	-3.473310	-0.045758	0.229923
C222	C	-3.139977	0.287575	0.563256
C223	C	-4.057925	-0.854514	-0.191002
C224	C	-3.724592	-0.521181	0.142332
C225	C	-3.391259	-0.187848	0.475665
C226	C	-4.080432	-0.905190	-0.190855
C227	C	-3.747098	-0.571857	0.142478
C228	C	-3.413765	-0.238523	0.475812
C229	C	-4.034026	-0.890912	-0.101924
C230	C	-3.700692	-0.557579	0.231410
C231	C	-3.367359	-0.224246	0.564743
C232	C	-4.011505	-0.840236	-0.102071
C233	C	-3.678171	-0.506902	0.231263
C234	C	-3.344838	-0.173569	0.564596
C235	C	-4.023471	-0.822038	-0.146611
C236	C	-3.690138	-0.488705	0.186722
C237	C	-3.356804	-0.155371	0.520055
C238	C	-3.759343	-0.272675	-0.103723
C239	C	-3.426010	0.060659	0.229610
C240	C	-3.092677	0.393992	0.562944
C241	C	-3.736812	-0.221997	-0.103874
C242	C	-3.403479	0.111336	0.229459
C243	C	-3.070146	0.444669	0.562792
C244	C	-3.783231	-0.236280	-0.192806
C245	C	-3.449898	0.097054	0.140528
C246	C	-3.116564	0.430387	0.473861
C247	C	-3.805750	-0.286952	-0.192655
C248	C	-3.472416	0.046381	0.140679
C249	C	-3.139083	0.379714	0.474012
C250	C	-3.793810	-0.305148	-0.148110
C251	C	-3.460477	0.028185	0.185224
C252	C	-3.127143	0.361519	0.518557
O253	O	-3.861045	-0.373187	-0.230208
O254	O	-3.527712	-0.039854	0.103126
O255	O	-3.194378	0.293479	0.436459
O256	O	-3.775294	-0.346810	-0.065673
O257	O	-3.441961	-0.013476	0.267660
O258	O	-3.108627	0.319857	0.600993
C259	C	-3.896718	-0.581787	-0.102822
C260	C	-3.563385	-0.248453	0.230511
C261	C	-3.230052	0.084880	0.563844
C262	C	-3.931189	-0.614261	-0.147212
C263	C	-3.597856	-0.280927	0.186121
C264	C	-3.264523	0.052406	0.519454
C265	C	-3.943137	-0.596062	-0.191750
C266	C	-3.609804	-0.262728	0.141584
C267	C	-3.276470	0.070605	0.474917
C268	C	-3.953696	-0.664936	-0.147066
C269	C	-3.620362	-0.331603	0.186268
C270	C	-3.287029	0.001730	0.519601
C271	C	-3.941748	-0.683136	-0.102528
C272	C	-3.608414	-0.349802	0.230805
C273	C	-3.275081	-0.016469	0.564138
C274	C	-3.907294	-0.650659	-0.058138
C275	C	-3.573960	-0.317326	0.275195
C276	C	-3.240627	0.016007	0.608529
C277	C	-3.884771	-0.599986	-0.058285
C278	C	-3.551437	-0.266653	0.275048
C279	C	-3.218104	0.066681	0.608382
C280	C	-3.977591	-0.628538	-0.236140
C281	C	-3.644258	-0.295205	0.097193
C282	C	-3.310925	0.038129	0.430526
C283	C	-4.000110	-0.679211	-0.235989
C284	C	-3.666777	-0.345877	0.097344
C285	C	-3.333444	-0.012544	0.430677
C286	C	-3.988162	-0.697410	-0.191452
C287	C	-3.654829	-0.364077	0.141881
C288	C	-3.321496	-0.030743	0.475214
C289	C	-4.113188	0.022677	-0.146165
C290	C	-3.779855	0.356010	0.187168
C291	C	-3.446521	0.689343	0.520501
C292	C	-4.068484	0.076611	-0.146318
C293	C	-3.735151	0.409944	0.187016
C294	C	-3.401817	0.743277	0.520349
C295	C	-4.113195	-0.062410	-0.061095
C296	C	-3.779862	0.270924	0.272239
C297	C	-3.446528	0.604257	0.605572
C298	C	-4.068499	-0.062569	-0.007161
C299	C	-3.735165	0.270764	0.326172
C300	C	-3.401832	0.604098	0.659505
H301	H	-3.792923	-0.145277	-0.305218
H302	H	-3.459590	0.188057	0.028115
H303	H	-3.126256	0.521390	0.361448
H304	H	-3.987324	-0.613726	-0.272409
H305	H	-3.653990	-0.280393	0.060925
H306	H	-3.320657	0.052940	0.394258
H307	H	-3.789145	-0.421529	-0.022577
H308	H	-3.455811	-0.088196	0.310757
H309	H	-3.122478	0.245137	0.644090
H310	H	-3.829997	-0.513451	-0.022310
H311	H	-3.496664	-0.180118	0.311023
H312	H	-3.163330	0.153216	0.644357
H313	H	-3.833813	-0.145020	-0.397146
H314	H	-3.500480	0.188313	-0.063813
H315	H	-3.167146	0.521646	0.269521
H316	H	-3.897556	-0.665485	-0.021874
H317	H	-3.564223	-0.332152	0.311460
H318	H	-3.230889	0.001181	0.644793
H319	H	-4.067647	-0.143521	-0.923465
H320	H	-3.734313	0.189812	-0.590132
H321	H	-3.400980	0.523145	-0.256798
H322	H	-3.856700	-0.573549	-0.022135
H323	H	-3.523367	-0.240216	0.311198
H324	H	-3.190034	0.093118	0.644532
H325	H	-3.789226	0.061195	-0.505296
H326	H	-3.455893	0.394528	-0.171963
H327	H	-3.122560	0.727861	0.161371
H328	H	-3.749627	0.016333	-0.371266
H329	H	-3.416294	0.349666	-0.037932
H330	H	-3.082960	0.683000	0.295401
H331	H	-3.960607	-0.188820	-0.637388
H332	H	-3.627274	0.144513	-0.304055
H333	H	-3.293940	0.477846	0.029278
H334	H	-4.028166	-0.705648	-0.272143
H335	H	-3.694833	-0.372315	0.061191
H336	H	-3.361499	-0.038982	0.394524
H337	H	-4.108504	-0.143254	-1.015405
H338	H	-3.775171	0.190079	-0.682072
H339	H	-3.441838	0.523412	-0.348738
H340	H	-4.024293	0.018091	-0.989504
H341	H	-3.690959	0.351425	-0.656171
H342	H	-3.357626	0.684758	-0.322837
H343	H	-3.919848	-0.461696	-0.272856
H344	H	-3.586514	-0.128362	0.060478
H345	H	-3.253181	0.204971	0.393811
H346	H	-3.983431	-0.813797	-0.065921
H347	H	-3.650098	-0.480464	0.267412
H348	H	-3.316765	-0.147131	0.600745
H349	H	-3.708744	0.016068	-0.279324
H350	H	-3.375411	0.349401	0.054009
H351	H	-3.042078	0.682734	0.387343
H352	H	-4.024292	-0.905738	-0.065659
H353	H	-3.690958	-0.572405	0.267674
H354	H	-3.357625	-0.239072	0.601007
H355	H	-3.856734	0.061624	-0.657330
H356	H	-3.523401	0.394957	-0.323997
H357	H	-3.190068	0.728290	0.009337
H358	H	-4.108470	-0.931627	-0.227005
H359	H	-3.775137	-0.598293	0.106329
H360	H	-3.441803	-0.264960	0.439662
H361	H	-3.919750	-0.189082	-0.545466
H362	H	-3.586417	0.144251	-0.212133
H363	H	-3.253083	0.477585	0.121201
H364	H	-3.987313	-0.188650	-0.697487
H365	H	-3.653980	0.144684	-0.364154
H366	H	-3.320646	0.478017	-0.030820
H367	H	-3.708733	-0.195558	-0.067722
H368	H	-3.375400	0.137776	0.265612
H369	H	-3.042066	0.471109	0.598945
H370	H	-4.028166	-0.188382	-0.789422
H371	H	-3.694833	0.144951	-0.456089
H372	H	-3.361500	0.478284	-0.122756
H373	H	-3.897576	0.061887	-0.749252
H374	H	-3.564243	0.395220	-0.415919
H375	H	-3.230909	0.728553	-0.082585
H376	H	-3.983485	0.017831	-0.897579
H377	H	-3.650152	0.351164	-0.564246
H378	H	-3.316819	0.684498	-0.230913
H379	H	-4.067667	-0.839704	-0.227274
H380	H	-3.734334	-0.506370	0.106059
H381	H	-3.401000	-0.173037	0.439393
H382	H	-3.792945	-0.221453	-0.229067
H383	H	-3.459612	0.111881	0.104267
H384	H	-3.126279	0.445214	0.437600
H385	H	-3.749618	-0.287483	-0.067450
H386	H	-3.416285	0.045850	0.265883
H387	H	-3.082951	0.379184	0.599216
H388	H	-3.830037	0.061460	-0.597221
H389	H	-3.496703	0.394793	-0.263888
H390	H	-3.163370	0.728127	0.069446
H391	H	-3.960658	-0.553621	-0.272591
H392	H	-3.627325	-0.220287	0.060742
H393	H	-3.293991	0.113046	0.394075
H394	H	-3.833788	-0.313394	-0.228803
H395	H	-3.500455	0.019939	0.104530
H396	H	-3.167122	0.353272	0.437863
