data_functionalizedCrystal
_audit_creation_method	'MofGen! by Chris Wilmer'
_symmetry_space_group_name_H-M	'P1'
_symmetry_Int_Tables_number	1
_symmetry_cell_setting	triclinic
loop_
_symmetry_equiv_pos_as_xyz
  x,y,z
_cell_length_a	13.339070
_cell_length_b	10.908937
_cell_length_c	9.483290
_cell_angle_alpha	77.860026
_cell_angle_beta	82.566946
_cell_angle_gamma	87.857625
loop_
_atom_site_label
_atom_site_type_symbol
_atom_site_fract_x
_atom_site_fract_y
_atom_site_fract_z
O1	O	-0.157861	1.629681	0.120932
O2	O	-0.083333	1.282376	0.120924
O3	O	-0.261155	1.416170	0.120923
O4	O	0.019961	1.495887	0.120933
O5	O	-0.240237	1.459419	-0.120851
O6	O	-0.062415	1.325625	-0.120850
O7	O	-0.136943	1.672931	-0.120842
Cu8	Cu	-0.097769	1.503227	-0.142922
Cu9	Cu	-0.122507	1.452080	0.143004
O10	O	0.040879	1.539137	-0.120841
C11	C	-0.065909	1.258641	0.000036
C12	C	-0.045167	1.123480	0.000033
C13	C	-0.286120	1.424328	0.000037
C14	C	-0.391669	1.384188	0.000042
C15	C	-0.099425	0.907803	0.000057
C16	C	-0.120863	1.047502	0.000038
C17	C	-0.808966	1.696289	0.000049
C18	C	-0.709797	1.734008	0.000036
C19	C	-0.630261	1.646556	0.000038
C20	C	-0.649902	1.521379	0.000052
C21	C	-0.749080	1.483658	0.000053
C22	C	-0.570375	1.433925	0.000043
C23	C	-0.590016	1.308748	0.000056
C24	C	-0.689185	1.271033	0.000059
C25	C	-0.768721	1.358485	0.000057
C26	C	-0.471197	1.471646	0.000041
C27	C	-0.411311	1.259015	0.000046
C28	C	-0.510480	1.221296	0.000059
C29	C	0.065843	1.530978	0.000048
C30	C	0.171392	1.571116	0.000052
C31	C	-0.154368	1.696665	0.000049
C32	C	-0.175110	1.831824	0.000062
N33	N	-0.080372	1.539210	-0.344027
C34	C	-0.102907	1.492636	-0.583659
C35	C	-0.117383	1.462666	-0.416255
N36	N	-0.139913	1.416103	0.344109
H37	H	-0.018757	0.869427	0.000075
F38	F	0.060281	1.073336	0.000052
F39	F	-0.710084	1.137812	0.000055
F40	F	-0.524717	1.686703	0.000029
F41	F	-0.450304	1.604864	0.000026
H42	H	-0.255779	0.870197	0.000062
F43	F	-0.688902	1.867221	0.000045
F44	F	-0.531397	1.088075	0.000076
F45	F	-0.893614	1.789351	0.000024
H46	H	-0.201537	1.085870	0.000038
F47	F	-0.874284	1.318322	0.000207
H48	H	-0.346550	1.187805	0.000040
F49	F	-0.047478	1.607276	-0.664813
H50	H	-0.159779	1.374945	-0.354166
F51	F	-0.024946	1.653861	-0.425172
H52	H	-0.182306	1.328389	-0.593797
