data_functionalizedCrystal
_audit_creation_method	'MofGen! by Chris Wilmer'
_symmetry_space_group_name_H-M	'P1'
_symmetry_Int_Tables_number	1
_symmetry_cell_setting	triclinic
loop_
_symmetry_equiv_pos_as_xyz
  x,y,z
_cell_length_a	10.654556
_cell_length_b	10.967829
_cell_length_c	9.130313
_cell_angle_alpha	77.867600
_cell_angle_beta	89.998135
_cell_angle_gamma	84.601636
loop_
_atom_site_label
_atom_site_type_symbol
_atom_site_fract_x
_atom_site_fract_y
_atom_site_fract_z
O1	O	1.667810	0.175315	-0.165990
O2	O	1.302331	0.192006	-0.170217
O3	O	1.493499	0.002083	-0.122267
O4	O	1.476642	0.365238	-0.213939
O5	O	1.493486	0.002078	0.121333
O6	O	1.302317	0.192001	0.073383
O7	O	1.667797	0.175310	0.077611
Cu8	Cu	1.485056	0.183655	0.097740
Cu9	Cu	1.485072	0.183661	-0.190346
O10	O	1.476629	0.365233	0.029661
C11	C	1.255526	0.190776	-0.048109
C12	C	1.116084	0.187105	-0.047188
C13	C	0.919546	0.181938	-0.178658
C14	C	1.050568	0.185380	-0.179536
C15	C	1.050573	0.185374	0.086050
C16	C	0.919554	0.181923	0.086929
C17	C	1.492265	-0.044420	0.011268
C18	C	1.488592	-0.182977	0.046234
C19	C	1.486962	-0.244741	-0.064370
C20	C	1.483166	-0.387947	-0.028233
C21	C	1.714601	0.176540	-0.044501
C22	C	1.854044	0.180211	-0.045431
C23	C	1.477863	0.411736	-0.103877
C24	C	1.481536	0.550293	-0.138854
N25	N	1.485054	0.183649	0.300364
N26	N	1.485083	0.183657	-0.392968
C27	C	1.569732	0.099587	0.398238
C28	C	1.569744	0.099587	0.551575
C29	C	1.400396	0.267723	0.509146
C30	C	1.400379	0.267716	0.355814
H31	H	1.103895	0.186784	-0.288023
C32	C	1.122638	0.187323	0.231622
N33	N	1.176914	0.188816	0.341263
H34	H	1.331457	0.336170	0.554309
C35	C	1.481252	-0.459726	0.135847
N36	N	1.479812	-0.513793	0.259430
C37	C	1.307279	0.360253	0.248129
N38	N	1.237179	0.429968	0.167016
C39	C	1.483445	-0.377930	-0.302935
N40	N	1.484884	-0.323866	-0.426519
H41	H	1.638695	0.031135	0.631263
H42	H	1.638678	0.031133	0.353096
C43	C	1.486678	-0.254761	0.210306
N44	N	1.485238	-0.308828	0.333889
C45	C	0.847496	0.180034	0.233494
N46	N	0.793221	0.178611	0.343882
H47	H	0.866212	0.180543	-0.286434
H48	H	1.488370	-0.191599	-0.185816
