data_functionalizedCrystal
_audit_creation_method	'MofGen! by Chris Wilmer'
_symmetry_space_group_name_H-M	'P1'
_symmetry_Int_Tables_number	1
_symmetry_cell_setting	triclinic
loop_
_symmetry_equiv_pos_as_xyz
  x,y,z
_cell_length_a	18.215407
_cell_length_b	18.101395
_cell_length_c	18.215399
_cell_angle_alpha	89.971163
_cell_angle_beta	89.983176
_cell_angle_gamma	90.031552
loop_
_atom_site_label
_atom_site_type_symbol
_atom_site_fract_x
_atom_site_fract_y
_atom_site_fract_z
Zn1	Zn	1.125018	-0.294811	-0.416124
Zn2	Zn	1.124920	-0.418662	-0.293061
Zn3	Zn	1.001957	-0.294840	-0.293071
Zn4	Zn	1.001903	-0.418616	-0.416086
O5	O	1.063450	-0.356732	-0.354585
O6	O	1.227989	-0.311247	-0.399811
O7	O	1.108590	-0.402269	-0.190078
O8	O	1.018345	-0.191203	-0.309415
O9	O	1.227917	-0.402240	-0.309397
O10	O	1.108758	-0.191182	-0.399821
O11	O	1.018250	-0.311297	-0.190085
O12	O	0.898966	-0.311252	-0.309378
O13	O	1.018254	-0.402161	-0.519075
O14	O	0.898926	-0.402190	-0.399756
O15	O	1.108706	-0.311202	-0.519103
O16	O	1.108538	-0.522289	-0.309360
O17	O	1.018158	-0.522255	-0.399746
C18	C	0.872243	-0.356720	-0.354564
C19	C	0.790445	-0.356732	-0.354573
C20	C	1.063351	-0.549143	-0.354564
C21	C	1.063376	-0.631457	-0.354579
C22	C	0.602249	-0.404158	-0.401573
C23	C	0.525391	-0.404160	-0.401583
C24	C	0.525402	-0.309320	-0.307613
C25	C	0.602260	-0.309315	-0.307608
C26	C	0.640681	-0.356738	-0.354587
C27	C	0.486965	-0.356746	-0.354601
C28	C	0.403631	-0.356748	-0.354611
C29	C	0.724020	-0.356735	-0.354579
C30	C	1.063538	-0.930548	-0.354619
C31	C	1.006805	-0.899232	-0.411628
C32	C	1.006536	-0.813614	-0.411450
C33	C	1.063458	-0.782165	-0.354600
C34	C	1.042464	-0.813319	-0.277038
C35	C	1.042098	-0.898964	-0.277380
C36	C	1.141388	-0.898890	-0.374487
C37	C	1.140931	-0.813239	-0.376188
C38	C	1.063414	-0.698306	-0.354584
C39	C	1.063580	-1.014407	-0.354629
C40	C	1.255403	-0.356746	-0.354607
C41	C	1.337201	-0.356751	-0.354616
C42	C	1.063484	-0.356673	-0.546538
C43	C	1.063499	-0.356648	-0.628337
C44	C	1.063569	-0.163570	-0.354623
C45	C	1.063619	-0.081256	-0.354639
C46	C	1.016499	-0.309247	-0.816536
C47	C	1.016512	-0.309232	-0.893395
C48	C	1.110588	-0.403961	-0.893376
C49	C	1.110571	-0.403979	-0.816519
C50	C	1.063527	-0.356618	-0.778101
C51	C	1.063557	-0.356585	-0.931817
C52	C	1.063571	-0.356569	-1.015151
C53	C	1.063512	-0.356634	-0.694762
C54	C	1.063457	-0.356738	-0.163379
C55	C	1.063585	-0.356554	-0.081580
H56	H	0.633530	-0.442771	-0.439829
H57	H	1.183656	-0.919141	-0.332965
H58	H	0.949451	-0.920819	-0.398633
H59	H	0.978193	-0.270683	-0.785258
C60	C	1.162309	-0.456083	-0.774231
C61	C	1.130376	-0.514234	-0.721372
C62	C	1.182111	-0.566335	-0.679081
C63	C	1.265779	-0.560286	-0.689650
C64	C	1.297716	-0.502132	-0.742511
C65	C	1.245981	-0.450031	-0.784802
H66	H	1.068436	-0.518715	-0.713546
H67	H	1.158468	-0.609385	-0.639950
H68	H	1.304076	-0.598854	-0.658344
H69	H	1.359656	-0.497652	-0.750337
H70	H	1.269624	-0.406982	-0.823933
H71	H	0.978216	-0.270659	-0.924685
C72	C	0.483137	-0.257163	-0.255932
C73	C	0.398597	-0.257170	-0.255931
C74	C	0.356333	-0.205014	-0.204246
C75	C	0.398609	-0.152851	-0.152563
C76	C	0.483154	-0.152843	-0.152562
C77	C	0.525418	-0.204999	-0.204247
H78	H	0.367297	-0.295786	-0.294192
H79	H	0.293747	-0.205020	-0.204247
H80	H	0.367323	-0.114242	-0.114303
H81	H	0.514454	-0.114227	-0.114301
H82	H	0.588004	-0.204992	-0.204246
H83	H	1.019670	-0.792548	-0.468960
H84	H	0.985190	-0.919008	-0.260549
H85	H	1.148889	-0.442520	-0.924666
H86	H	0.494103	-0.442773	-0.439845
C87	C	1.024371	-0.926981	-0.489578
C88	C	1.090442	-0.978417	-0.502423
C89	C	1.108011	-1.006168	-0.580376
C90	C	1.059509	-0.982482	-0.645483
C91	C	0.993434	-0.931042	-0.632640
C92	C	0.975864	-0.903291	-0.554687
H93	H	1.126350	-0.995954	-0.454225
H94	H	1.156925	-1.044247	-0.589883
H95	H	1.072515	-1.003024	-0.703188
H96	H	0.957526	-0.913505	-0.680838
H97	H	0.926951	-0.865212	-0.545180
H98	H	0.633552	-0.270695	-0.269346
H99	H	0.948831	-0.793192	-0.398289
C100	C	1.095480	-0.926960	-0.218027
C101	C	1.138304	-0.871384	-0.170469
C102	C	1.191676	-0.899376	-0.111110
C103	C	1.202224	-0.982944	-0.099309
C104	C	1.159399	-1.038525	-0.146868
C105	C	1.106027	-1.010533	-0.206227
H106	H	1.130497	-0.809517	-0.179204
H107	H	1.223378	-0.858230	-0.075903
H108	H	1.241733	-1.003665	-0.055367
H109	H	1.167206	-1.100391	-0.138133
H110	H	1.074325	-1.051678	-0.241434
C111	C	1.201058	-0.784320	-0.324183
C112	C	1.281470	-0.807973	-0.335435
C113	C	1.341595	-0.779055	-0.283422
C114	C	1.321309	-0.726484	-0.220157
C115	C	1.240893	-0.702828	-0.208901
C116	C	1.180768	-0.731746	-0.260915
H117	H	1.296491	-0.846892	-0.382271
H118	H	1.401125	-0.796567	-0.291754
H119	H	1.365817	-0.705078	-0.181653
H120	H	1.225872	-0.663910	-0.162066
H121	H	1.121238	-0.714234	-0.252582
C122	C	1.096524	-0.785800	-0.218085
C123	C	1.068307	-0.739834	-0.152809
C124	C	1.122367	-0.712313	-0.093857
C125	C	1.204645	-0.730758	-0.100182
C126	C	1.232866	-0.776727	-0.165460
C127	C	1.178805	-0.804248	-0.224412
H128	H	1.007397	-0.726177	-0.148125
H129	H	1.101476	-0.678284	-0.045534
H130	H	1.244664	-0.710386	-0.056542
H131	H	1.293776	-0.790384	-0.170144
H132	H	1.199697	-0.838277	-0.272736
H133	H	1.160529	-0.920437	-0.430081
C134	C	0.966395	-0.784442	-0.253891
C135	C	0.923264	-0.732635	-0.305225
C136	C	0.847194	-0.703760	-0.282083
C137	C	0.814255	-0.726692	-0.207607
C138	C	0.857386	-0.778502	-0.156268
C139	C	0.933457	-0.807377	-0.179411
H140	H	0.947648	-0.715657	-0.360361
H141	H	0.815265	-0.665407	-0.320088
H142	H	0.757943	-0.705317	-0.190476
H143	H	0.833003	-0.795480	-0.101132
H144	H	0.965385	-0.845730	-0.141406
H145	H	1.156762	-0.792875	-0.433269
