data_functionalizedCrystal
_audit_creation_method	'MofGen! by Chris Wilmer'
_symmetry_space_group_name_H-M	'P1'
_symmetry_Int_Tables_number	1
_symmetry_cell_setting	triclinic
loop_
_symmetry_equiv_pos_as_xyz
  x,y,z
_cell_length_a	10.654546
_cell_length_b	10.540510
_cell_length_c	9.130313
_cell_angle_alpha	89.999667
_cell_angle_beta	89.994323
_cell_angle_gamma	84.498397
loop_
_atom_site_label
_atom_site_type_symbol
_atom_site_fract_x
_atom_site_fract_y
_atom_site_fract_z
O1	O	1.667888	0.178278	-0.121823
O2	O	1.302414	0.195270	-0.121818
O3	O	1.493509	0.002062	-0.121820
O4	O	1.476793	0.371486	-0.121821
O5	O	1.493490	0.002063	0.121779
O6	O	1.302395	0.195272	0.121781
O7	O	1.667870	0.178279	0.121776
Cu8	Cu	1.485131	0.186776	0.144021
Cu9	Cu	1.485153	0.186774	-0.144063
O10	O	1.476775	0.371487	0.121778
C11	C	1.255606	0.194024	-0.000018
C12	C	1.116162	0.190294	-0.000016
C13	C	1.050677	0.188529	-0.132809
C14	C	0.919655	0.185014	-0.132820
C15	C	0.919616	0.185025	0.132764
C16	C	1.050634	0.188549	0.132775
C17	C	1.116204	0.190274	-0.265600
C18	C	1.050719	0.188507	-0.398403
C19	C	0.919698	0.184992	-0.398415
C20	C	0.854161	0.183244	-0.265623
C21	C	1.492254	-0.045240	-0.000023
C22	C	1.488527	-0.186189	-0.000032
C23	C	1.621280	-0.403694	0.000524
C24	C	1.625255	-0.257100	-0.000033
C25	C	1.418546	-0.230922	-0.139135
C26	C	1.415539	-0.377682	-0.139244
C27	C	1.412671	-0.377488	0.137773
C28	C	1.419156	-0.231149	0.139604
C29	C	1.714678	0.179526	-0.000027
C30	C	1.854122	0.183256	-0.000038
C31	C	1.478030	0.418790	-0.000022
C32	C	1.481757	0.559739	-0.000022
N33	N	1.485125	0.186776	0.346644
N34	N	1.485169	0.186764	-0.346685
C35	C	1.400497	0.272290	0.423334
C36	C	1.400521	0.272288	0.576671
C37	C	1.569806	0.101246	0.576613
C38	C	1.569787	0.101255	0.423279
C39	C	1.315835	0.357811	0.346698
C40	C	1.231199	0.443331	0.423389
C41	C	1.231223	0.443329	0.576726
C42	C	1.315884	0.357806	0.653372
H43	H	0.747473	0.180396	-0.265644
C44	C	1.284295	-0.164818	0.150953
N45	N	1.182711	-0.114859	0.159488
H46	H	1.162318	0.512971	0.639166
H47	H	1.104086	0.189941	-0.506516
C48	C	0.847668	0.183048	-0.544499
N49	N	0.793418	0.181575	-0.654534
C50	C	1.662916	0.007167	0.660930
N51	N	1.733044	-0.063698	0.724438
H52	H	1.638700	0.031622	0.360837
H53	H	1.470077	-0.202556	0.242512
C54	C	1.315909	0.357813	0.822048
N55	N	1.315923	0.357814	0.949093
H56	H	0.866246	0.183600	0.240877
H57	H	1.674541	-0.445668	0.100282
C58	C	1.471049	-0.434839	0.280213
N59	N	1.515034	-0.478036	0.387492
H60	H	1.103953	0.189994	0.240906
C61	C	1.260333	0.194115	-0.265599
N62	N	1.368893	0.196999	-0.265596
C63	C	1.699230	-0.217481	0.134674
N64	N	1.754955	-0.187648	0.236138
H65	H	1.674248	-0.447220	-0.098671
C66	C	1.480188	-0.432041	-0.279708
N67	N	1.528891	-0.472979	-0.385505
C68	C	1.699673	-0.218747	-0.134982
N69	N	1.755725	-0.189861	-0.236635
H70	H	1.317890	-0.183496	-0.144306
C71	C	1.277389	-0.408700	-0.147799
N72	N	1.173336	-0.432057	-0.154257
C73	C	1.484229	-0.189276	-0.278991
N74	N	1.533710	-0.157913	-0.384328
H75	H	1.310014	-0.399600	0.138712
H76	H	1.315805	0.357818	0.221844
H77	H	1.162278	0.512969	0.360976
