data_functionalizedCrystal
_audit_creation_method	'MofGen! by Chris Wilmer'
_symmetry_space_group_name_H-M	'P1'
_symmetry_Int_Tables_number	1
_symmetry_cell_setting	triclinic
loop_
_symmetry_equiv_pos_as_xyz
  x,y,z
_cell_length_a	16.625548
_cell_length_b	18.050590
_cell_length_c	16.625539
_cell_angle_alpha	90.029956
_cell_angle_beta	90.020568
_cell_angle_gamma	90.019620
loop_
_atom_site_label
_atom_site_type_symbol
_atom_site_fract_x
_atom_site_fract_y
_atom_site_fract_z
Zn1	Zn	1.232702	-0.295637	0.455900
Zn2	Zn	1.566036	0.037696	0.789233
Zn3	Zn	1.899369	0.371030	1.122567
Zn4	Zn	1.232615	-0.419835	0.321063
Zn5	Zn	1.565948	-0.086501	0.654397
Zn6	Zn	1.899281	0.246832	0.987730
Zn7	Zn	1.097864	-0.295665	0.321081
Zn8	Zn	1.431198	0.037668	0.654414
Zn9	Zn	1.764531	0.371001	0.987747
Zn10	Zn	1.097844	-0.419792	0.455853
Zn11	Zn	1.431177	-0.086459	0.789187
Zn12	Zn	1.764511	0.246875	1.122520
O13	O	1.165256	-0.357732	0.388474
O14	O	1.498590	-0.024399	0.721808
O15	O	1.831923	0.308935	1.055141
O16	O	1.345523	-0.312118	0.438026
O17	O	1.678856	0.021215	0.771359
O18	O	2.012190	0.354549	1.104693
O19	O	1.214712	-0.403393	0.208233
O20	O	1.548045	-0.070060	0.541567
O21	O	1.881378	0.263274	0.874900
O22	O	1.115796	-0.191737	0.338992
O23	O	1.449129	0.141596	0.672325
O24	O	1.782463	0.474930	1.005658
O25	O	1.345459	-0.403365	0.338962
O26	O	1.678792	-0.070032	0.672296
O27	O	2.012125	0.263301	1.005629
O28	O	1.214861	-0.191716	0.438043
O29	O	1.548194	0.141617	0.771376
O30	O	1.881528	0.474951	1.104709
O31	O	1.115711	-0.312166	0.208246
O32	O	1.449044	0.021167	0.541579
O33	O	1.782378	0.354500	0.874913
O34	O	0.985029	-0.312125	0.338946
O35	O	1.318362	0.021208	0.672279
O36	O	1.651696	0.354542	1.005613
O37	O	1.115761	-0.403293	0.568692
O38	O	1.449095	-0.069959	0.902025
O39	O	1.782428	0.263374	1.235359
O40	O	0.985014	-0.403320	0.437963
O41	O	1.318347	-0.069987	0.771296
O42	O	1.651681	0.263346	1.104630
O43	O	1.214841	-0.312077	0.568726
O44	O	1.548175	0.021257	0.902060
O45	O	1.881508	0.354590	1.235393
O46	O	1.214692	-0.523754	0.338917
O47	O	1.548025	-0.190420	0.672250
O48	O	1.881359	0.142913	1.005583
O49	O	1.115676	-0.523722	0.437946
O50	O	1.449010	-0.190389	0.771280
O51	O	1.782343	0.142944	1.104613
C52	C	0.955765	-0.357722	0.388452
C53	C	1.289099	-0.024388	0.721785
C54	C	1.622432	0.308945	1.055119
C55	C	0.866144	-0.357735	0.388461
C56	C	1.199478	-0.024402	0.721795
C57	C	1.532811	0.308932	1.055128
C58	C	0.537969	-0.357740	0.388496
C59	C	0.871302	-0.024406	0.721829
C60	C	1.204635	0.308927	1.055162
C61	C	0.629277	-0.357736	0.388484
C62	C	0.962611	-0.024403	0.721817
C63	C	1.295944	0.308930	1.055150
C64	C	0.702054	-0.357738	0.388478
C65	C	1.035387	-0.024404	0.721811
C66	C	1.368720	0.308929	1.055145
C67	C	0.793368	-0.357734	0.388467
C68	C	1.126701	-0.024400	0.721800
C69	C	1.460035	0.308933	1.055134
C70	C	1.165194	-0.550684	0.388442
C71	C	1.498528	-0.217351	0.721776
C72	C	1.831861	0.115982	1.055109
C73	C	1.165242	-0.633230	0.388455
C74	C	1.498575	-0.299897	0.721789
C75	C	1.831908	0.033437	1.055122
C76	C	1.219198	-0.832671	0.334678
C77	C	1.552532	-0.499337	0.668012
C78	C	1.885865	-0.166004	1.001345
C79	C	1.238896	-0.882001	0.408268
C80	C	1.572229	-0.548668	0.741602
C81	C	1.905562	-0.215335	1.074935
C82	C	1.165287	-0.784360	0.388488
C83	C	1.498621	-0.451027	0.721821
C84	C	1.831954	-0.117694	1.055154
C85	C	1.145672	-0.882112	0.314931
C86	C	1.479006	-0.548778	0.648264
C87	C	1.812339	-0.215445	0.981597
C88	C	1.165333	-0.930345	0.388512
C89	C	1.498666	-0.597012	0.721846
C90	C	1.832000	-0.263679	1.055179
C91	C	1.185022	-0.832604	0.462116
C92	C	1.518356	-0.499270	0.795449
C93	C	1.851689	-0.165937	1.128783
C94	C	1.091765	-0.832710	0.368729
C95	C	1.425098	-0.499376	0.702062
C96	C	1.758431	-0.166043	1.035396
C97	C	1.111434	-0.882018	0.442370
C98	C	1.444767	-0.548684	0.775703
C99	C	1.778101	-0.215351	1.109036
C100	C	1.165263	-0.700262	0.388472
C101	C	1.498596	-0.366929	0.721806
C102	C	1.831930	-0.033595	1.055139
C103	C	1.165357	-1.014442	0.388536
C104	C	1.498691	-0.681109	0.721869
C105	C	1.832024	-0.347775	1.055202
C106	C	1.375565	-0.357743	0.388497
C107	C	1.708899	-0.024410	0.721831
C108	C	2.042232	0.308923	1.055164
C109	C	1.465186	-0.357748	0.388507
C110	C	1.798520	-0.024415	0.721841
C111	C	2.131853	0.308919	1.055174
C112	C	1.165309	-0.357677	0.598783
C113	C	1.498642	-0.024343	0.932117
C114	C	1.831975	0.308990	1.265450
C115	C	1.165331	-0.357653	0.688405
C116	C	1.498664	-0.024320	1.021738
C117	C	1.831998	0.309013	1.355071
C118	C	1.165341	-0.164027	0.388524
C119	C	1.498674	0.169307	0.721858
C120	C	1.832007	0.502640	1.055191
C121	C	1.165376	-0.081481	0.388546
C122	C	1.498710	0.251853	0.721879
C123	C	1.832043	0.585186	1.055212
C124	C	1.165250	-0.357734	0.178984
C125	C	1.498584	-0.024400	0.512317
C126	C	1.831917	0.308933	0.845650
C127	C	1.165384	-0.357548	0.089363
C128	C	1.498718	-0.024215	0.422696
C129	C	1.832051	0.309119	0.756030
C130	C	1.165368	-0.357570	1.016580
C131	C	1.498702	-0.024237	1.349914
C132	C	1.832035	0.309097	1.683247
C133	C	1.165356	-0.357596	0.925272
C134	C	1.498689	-0.024262	1.258605
C135	C	1.832022	0.309071	1.591939
C136	C	1.165350	-0.357612	0.852495
C137	C	1.498683	-0.024279	1.185829
C138	C	1.832017	0.309054	1.519162
C139	C	1.165337	-0.357637	0.761181
C140	C	1.498670	-0.024303	1.094514
C141	C	1.832003	0.309030	1.427848
H142	H	1.264804	-0.811003	0.289221
H143	H	1.598138	-0.477669	0.622554
H144	H	1.931471	-0.144336	0.955887
C145	C	1.123230	-0.911485	0.230879
C146	C	1.456563	-0.578152	0.564212
C147	C	1.789896	-0.244818	0.897546
N148	N	1.106331	-0.933606	0.167569
N149	N	1.439665	-0.600272	0.500903
N150	N	1.772998	-0.266939	0.834236
H151	H	1.301092	-0.903655	0.424996
H152	H	1.634425	-0.570322	0.758329
H153	H	1.967758	-0.236988	1.091663
C154	C	1.207565	-0.803353	0.546191
C155	C	1.540898	-0.470019	0.879524
C156	C	1.874231	-0.136686	1.212858
N157	N	1.224547	-0.781319	0.609514
N158	N	1.557880	-0.447986	0.942847
N159	N	1.891214	-0.114652	1.276181
H160	H	1.065863	-0.903549	0.487938
H161	H	1.399196	-0.570215	0.821271
H162	H	1.732530	-0.236882	1.154604
C163	C	1.007768	-0.803425	0.346097
C164	C	1.341102	-0.470091	0.679430
C165	C	1.674435	-0.136758	1.012763
N166	N	0.944503	-0.781364	0.329040
N167	N	1.277837	-0.448030	0.662373
N168	N	1.611170	-0.114697	0.995706
