data_functionalizedCrystal
_audit_creation_method	'MofGen! by Chris Wilmer'
_symmetry_space_group_name_H-M	'P1'
_symmetry_Int_Tables_number	1
_symmetry_cell_setting	triclinic
loop_
_symmetry_equiv_pos_as_xyz
  x,y,z
_cell_length_a	12.759401
_cell_length_b	16.625545
_cell_length_c	12.759393
_cell_angle_alpha	89.966045
_cell_angle_beta	89.980163
_cell_angle_gamma	90.027083
loop_
_atom_site_label
_atom_site_type_symbol
_atom_site_fract_x
_atom_site_fract_y
_atom_site_fract_z
Zn1	Zn	1.606176	-0.320921	-0.594003
Zn2	Zn	1.606037	-0.455778	-0.418316
Zn3	Zn	1.430478	-0.320966	-0.418338
Zn4	Zn	1.430433	-0.455719	-0.593953
O5	O	1.518281	-0.388346	-0.506153
O6	O	1.753178	-0.338816	-0.570709
O7	O	1.582709	-0.437938	-0.271298
O8	O	1.453861	-0.208128	-0.441671
O9	O	1.753076	-0.437894	-0.441633
O10	O	1.582946	-0.208094	-0.570731
O11	O	1.453727	-0.338893	-0.271314
O12	O	1.283451	-0.338836	-0.441622
O13	O	1.453785	-0.437794	-0.740981
O14	O	1.283418	-0.437838	-0.570646
O15	O	1.582902	-0.338758	-0.741018
O16	O	1.582666	-0.568602	-0.441585
O17	O	1.453650	-0.568559	-0.570624
C18	C	1.245313	-0.388336	-0.506132
C19	C	1.128537	-0.388351	-0.506148
C20	C	1.518167	-0.597837	-0.506120
C21	C	1.518214	-0.687458	-0.506141
C22	C	1.073685	-0.439980	-0.573225
C23	C	0.963961	-0.439983	-0.573245
C24	C	0.963950	-0.336726	-0.439104
C25	C	1.073672	-0.336720	-0.439089
C26	C	1.518255	-0.760240	-0.506161
C27	C	1.518316	-0.851549	-0.506185
C28	C	1.518370	-0.924325	-0.506198
C29	C	1.518431	-1.015639	-0.506219
C30	C	1.792314	-0.388356	-0.506174
C31	C	1.909091	-0.388361	-0.506183
C32	C	1.518354	-0.388264	-0.780186
C33	C	1.518385	-0.388230	-0.896963
C34	C	1.518424	-0.178037	-0.506209
C35	C	1.518485	-0.088416	-0.506233
C36	C	1.451248	-0.336647	-0.951833
C37	C	1.451273	-0.336623	-1.061557
C38	C	1.585581	-0.439765	-1.061531
C39	C	1.585550	-0.439793	-0.951809
C40	C	1.518268	-0.388369	-0.233185
C41	C	1.518441	-0.388177	-0.116409
H42	H	0.919306	-0.482023	-0.627868
H43	H	1.640224	-0.481801	-0.907133
H44	H	1.118353	-0.482020	-0.627831
H45	H	1.640264	-0.481745	-1.106201
H46	H	0.919266	-0.294691	-0.384505
H47	H	1.396559	-0.294661	-0.907180
C48	C	1.134013	-0.279927	-0.365299
H49	H	1.085625	-0.249186	-0.325353
H50	H	1.176854	-0.244831	-0.405566
H51	H	1.176777	-0.310732	-0.319443
H52	H	1.396602	-0.294620	-1.106227
