data_functionalizedCrystal
_audit_creation_method	'MofGen! by Chris Wilmer'
_symmetry_space_group_name_H-M	'P1'
_symmetry_Int_Tables_number	1
_symmetry_cell_setting	triclinic
loop_
_symmetry_equiv_pos_as_xyz
  x,y,z
_cell_length_a	8.634740
_cell_length_b	10.723023
_cell_length_c	9.198806
_cell_angle_alpha	90.004776
_cell_angle_beta	89.999765
_cell_angle_gamma	87.481073
loop_
_atom_site_label
_atom_site_type_symbol
_atom_site_fract_x
_atom_site_fract_y
_atom_site_fract_z
O1	O	0.216544	-1.681726	-0.120903
O2	O	0.237273	-1.320922	-0.120901
O3	O	0.002252	-1.484245	-0.120900
O4	O	0.451565	-1.518403	-0.120905
O5	O	0.002253	-1.484228	0.120885
O6	O	0.237274	-1.320906	0.120884
O7	O	0.216545	-1.681709	0.120882
Cu8	Cu	0.226910	-1.501306	0.142960
Cu9	Cu	0.226908	-1.501325	-0.142979
O10	O	0.451566	-1.518387	0.120880
C11	C	0.235765	-1.274243	-0.000009
C12	C	0.231253	-1.135178	-0.000008
C13	C	-0.055280	-1.476498	-0.000009
C14	C	-0.226707	-1.453426	-0.000017
C15	C	0.229240	-1.073187	-0.125260
C16	C	0.224576	-0.929455	-0.125262
C17	C	0.509098	-1.526133	-0.000013
C18	C	0.680525	-1.549205	-0.000015
N19	N	0.226910	-1.501301	0.344074
C20	C	0.218053	-0.728388	-0.000010
C21	C	0.222565	-0.867454	-0.000011
C22	C	0.128020	-1.570046	0.583675
C23	C	0.128019	-1.570032	0.416263
N24	N	0.226908	-1.501330	0.655907
H25	H	0.230978	-1.126522	-0.232490
O26	O	0.327764	-1.430917	0.418093
C27	C	0.415875	-1.224603	0.464924
C28	C	0.301548	-1.304161	0.381019
H29	H	0.394740	-1.122108	0.434958
H30	H	0.397877	-1.237010	0.586757
H31	H	0.539734	-1.255817	0.435098
H32	H	0.177643	-1.272998	0.410724
H33	H	0.319680	-1.291747	0.259207
H34	H	0.311577	-1.442493	0.593809
H35	H	-0.267744	-1.648863	-0.000069
O36	O	-0.288582	-1.334594	-0.000210
C37	C	-0.450627	-1.180714	-0.125516
C38	C	-0.380674	-1.315333	-0.125460
H39	H	-0.525072	-1.165090	-0.226785
H40	H	-0.525299	-1.165020	-0.024398
H41	H	-0.353191	-1.112338	-0.125447
H42	H	-0.478009	-1.383794	-0.125581
H43	H	-0.305962	-1.330922	-0.226569
O44	O	0.222786	-0.865814	-0.253159
C45	C	0.351472	-0.719992	-0.405886
C46	C	0.353708	-0.792016	-0.261002
H47	H	0.457294	-0.660289	-0.412261
H48	H	0.353812	-0.788981	-0.500248
H49	H	0.241575	-0.657318	-0.412366
H50	H	0.463588	-0.854691	-0.254380
H51	H	0.351286	-0.722958	-0.166709
O52	O	0.224425	-0.931168	0.127837
C53	C	0.095635	-1.076867	0.280647
C54	C	0.093358	-1.004797	0.135794
H55	H	-0.010337	-1.136393	0.287140
H56	H	0.205412	-1.139683	0.287168
H57	H	0.093471	-1.007800	0.374925
H58	H	0.095465	-1.073773	0.041433
H59	H	-0.016410	-0.941962	0.129400
H60	H	0.229531	-1.081842	0.107222
O61	O	0.026943	-1.640350	0.657521
C62	C	-0.179601	-1.783732	0.641762
C63	C	-0.065178	-1.704198	0.557957
H64	H	-0.254132	-1.835353	0.561301
H65	H	-0.112285	-1.854216	0.712975
H66	H	-0.257169	-1.720425	0.713069
H67	H	0.012418	-1.767406	0.486571
H68	H	-0.132590	-1.633704	0.486835
H69	H	0.043351	-1.628857	0.354147
