data_functionalizedCrystal
_audit_creation_method	'MofGen! by Chris Wilmer'
_symmetry_space_group_name_H-M	'P1'
_symmetry_Int_Tables_number	1
_symmetry_cell_setting	triclinic
loop_
_symmetry_equiv_pos_as_xyz
  x,y,z
_cell_length_a	14.628931
_cell_length_b	31.640172
_cell_length_c	31.640172
_cell_angle_alpha	90.006226
_cell_angle_beta	120.011219
_cell_angle_gamma	60.006625
loop_
_atom_site_label
_atom_site_type_symbol
_atom_site_fract_x
_atom_site_fract_y
_atom_site_fract_z
Zr1	Zr	1.000426	-0.055505	-0.407188
O2	O	1.191136	-0.122979	-0.339696
O3	O	0.809719	-0.034821	-0.427878
O4	O	1.000400	-0.122989	-0.427877
O5	O	1.000473	0.034737	-0.339699
O6	O	1.000377	-0.122996	-0.497435
O7	O	1.000454	-0.034811	-0.339698
O8	O	0.659282	0.034720	-0.497437
O9	O	1.341568	-0.122979	-0.339697
O10	O	0.888141	-0.026005	-0.488612
O11	O	0.888172	0.025904	-0.436702
O12	O	1.112675	-0.077902	-0.436701
O13	O	1.112707	-0.025994	-0.384791
Zr14	Zr	1.000419	0.055404	-0.518127
Zr15	Zr	1.000388	-0.055517	-0.518125
Zr16	Zr	1.000456	0.055416	-0.407190
Zr17	Zr	1.240347	-0.055505	-0.407188
Zr18	Zr	0.760497	0.055404	-0.518127
O19	O	1.191125	0.034720	-0.497437
O20	O	1.191082	-0.122996	-0.497435
O21	O	1.191179	0.034737	-0.339699
O22	O	0.809709	0.122878	-0.585618
O23	O	0.809666	-0.034838	-0.585616
O24	O	0.809762	0.122895	-0.427880
O25	O	1.000371	-0.034838	-0.585616
O26	O	1.000444	0.122888	-0.497438
O27	O	1.000467	0.122895	-0.427880
O28	O	1.000390	0.034710	-0.585617
O29	O	1.341538	-0.122989	-0.427877
O30	O	0.659306	0.122888	-0.497438
O31	O	0.659277	0.122878	-0.585618
O32	O	0.659253	0.034711	-0.585617
O33	O	1.341592	-0.034812	-0.339698
O34	O	1.341562	-0.034821	-0.427878
O35	O	0.888169	0.077801	-0.488614
O36	O	0.888137	0.025893	-0.540523
O37	O	1.112672	-0.026005	-0.488612
O38	O	1.112704	0.025904	-0.436703
C39	C	0.700317	-0.000050	-0.462657
C40	C	0.598464	-0.000050	-0.462657
C41	C	0.553039	-0.025800	-0.488408
C42	C	0.447769	-0.025801	-0.488408
C43	C	1.000384	-0.138796	-0.462655
C44	C	1.000371	-0.185885	-0.462655
C45	C	1.117639	-0.505011	-0.435565
C46	C	1.117661	-0.682006	-0.435566
O47	O	1.217341	-0.727931	-0.412539
N48	N	1.000458	-0.677046	-0.462662
C49	C	0.883240	-0.627833	-0.489762
O50	O	0.783551	-0.627675	-0.512813
C51	C	0.883219	-0.450838	-0.489764
C52	C	1.000430	-0.455802	-0.462662
C53	C	1.234841	-0.509972	-0.408466
C54	C	1.234834	-0.465726	-0.408464
C55	C	1.117626	-0.416518	-0.435561
C56	C	1.000423	-0.411556	-0.462660
C57	C	0.766002	-0.401626	-0.516868
C58	C	0.766007	-0.357377	-0.516867
C59	C	0.883219	-0.362341	-0.489765
C60	C	0.883208	-0.318101	-0.489755
N61	N	1.000412	-0.323061	-0.462659
C62	C	1.117621	-0.372269	-0.435562
C63	C	0.883259	-0.720759	-0.489758
C64	C	0.883264	-0.765007	-0.489757
C65	C	1.117686	-0.819178	-0.435561
C66	C	1.117680	-0.774928	-0.435560
C67	C	1.000463	-0.725719	-0.462662
C68	C	1.117598	-0.279346	-0.435559
C69	C	1.117580	-0.235094	-0.435558
C70	C	0.883159	-0.180927	-0.489755
C71	C	0.883175	-0.225176	-0.489755
C72	C	1.000405	-0.274387	-0.462656
O73	O	0.783581	-0.272161	-0.512774
O74	O	1.217294	-0.372416	-0.412524
C75	C	1.117646	-0.549257	-0.435567
C76	C	1.000444	-0.544295	-0.462667
C77	C	0.883235	-0.495087	-0.489764
C78	C	1.000449	-0.588544	-0.462665
C79	C	1.117658	-0.637752	-0.435568
C80	C	1.234861	-0.642712	-0.408472
C81	C	1.234855	-0.598465	-0.408470
C82	C	0.766031	-0.490127	-0.516860
C83	C	0.766047	-0.534376	-0.516859
C84	C	0.883256	-0.583584	-0.489762
C85	C	1.300527	-0.000051	-0.462658
C86	C	1.402380	-0.000051	-0.462658
C87	C	1.000469	-0.000036	-0.323892
C88	C	1.000485	-0.000030	-0.276796
C89	C	1.000460	0.138695	-0.462659
C90	C	1.000473	0.185784	-0.462660
C91	C	1.000434	0.038272	0.059481
C92	C	1.000462	0.038280	-0.117503
O93	O	1.000423	0.070878	-0.140396
N94	N	1.000455	-0.000034	-0.139637
C95	C	1.000433	-0.038352	-0.117524
O96	O	1.000415	-0.070938	-0.140414
C97	C	1.000396	-0.038358	0.059457
C98	C	1.000416	-0.000044	0.081591
C99	C	1.000452	0.076583	0.081615
C100	C	1.000452	0.076579	0.125860
C101	C	1.000434	0.038264	0.147970
C102	C	1.000416	-0.000048	0.125836
C103	C	1.000364	-0.076673	0.081567
C104	C	1.000352	-0.076670	0.125814
C105	C	1.000372	-0.038356	0.147948
C106	C	1.000397	-0.038368	0.192192
N107	N	1.000404	-0.000053	0.214326
C108	C	1.000422	0.038263	0.192215
C109	C	1.000455	-0.038347	-0.210441
C110	C	1.000467	-0.038346	-0.254686
C111	C	1.000493	0.038287	-0.254662
C112	C	1.000491	0.038284	-0.210415
C113	C	1.000462	-0.000032	-0.188307
C114	C	1.000424	0.038251	0.285133
C115	C	1.000429	0.038242	0.329383
C116	C	1.000396	-0.038389	0.329354
C117	C	1.000397	-0.038382	0.285109
C118	C	1.000407	-0.000058	0.262999
O119	O	1.000422	-0.070945	0.215109
O120	O	1.000412	0.070850	0.215106
C121	C	1.000434	0.038276	0.015236
C122	C	1.000415	-0.000035	-0.006899
C123	C	1.000397	-0.038351	0.015212
C124	C	1.000427	-0.000035	-0.051143
C125	C	1.000445	0.038281	-0.073254
C126	C	1.000452	0.076596	-0.051120
C127	C	1.000452	0.076592	-0.006875
C128	C	1.000391	-0.076666	-0.006922
C129	C	1.000392	-0.076659	-0.051166
C130	C	1.000410	-0.038343	-0.073277
C131	C	1.000388	-0.000066	0.398580
C132	C	1.000411	-0.000073	0.351493
C133	C	0.700270	-0.000065	-0.601423
C134	C	0.598401	-0.000070	-0.648518
C135	C	0.700355	0.138696	-0.462659
C136	C	0.598515	0.185785	-0.462660
C137	C	0.700308	0.138681	-0.601425
C138	C	0.598452	0.185765	-0.648521
C139	C	1.300536	-0.138782	-0.323890
C140	C	1.402392	-0.185866	-0.276794
C141	C	1.300574	-0.000036	-0.323892
C142	C	1.402443	-0.000031	-0.276796
C143	C	1.300490	-0.138797	-0.462656
C144	C	1.402330	-0.185886	-0.462655
C145	C	0.550564	-0.027167	-0.643538
C146	C	0.454861	-0.027182	-0.687785
C147	C	0.406990	-0.000097	-0.737012
C148	C	0.454836	0.027001	-0.741991
C149	C	0.550544	0.027012	-0.697745
C150	C	0.550688	0.234993	-0.489757
C151	C	0.455011	0.279242	-0.489756
C152	C	0.407157	0.274283	-0.462660
C153	C	0.454994	0.225069	-0.435559
C154	C	0.550675	0.180821	-0.435558
C155	C	0.550603	0.180780	-0.697739
C156	C	0.454911	0.225016	-0.741995
C157	C	0.407065	0.274237	-0.737032
C158	C	0.454923	0.279220	-0.687809
C159	C	0.550619	0.234984	-0.643554
C160	C	1.450253	-0.180881	-0.227576
C161	C	1.545974	-0.225117	-0.183320
C162	C	1.593826	-0.274338	-0.188283
C163	C	1.545961	-0.279321	-0.237506
C164	C	1.450249	-0.235086	-0.281761
C165	C	1.450290	0.027062	-0.281777
C166	C	1.546020	0.027064	-0.237530
C167	C	1.593894	-0.000022	-0.188303
C168	C	1.546044	-0.027118	-0.183323
C169	C	1.450322	-0.027124	-0.227570
C170	C	1.450153	-0.180909	-0.489756
C171	C	1.545830	-0.225150	-0.489766
C172	C	1.593688	-0.274367	-0.462671
C173	C	1.545855	-0.279343	-0.435569
C174	C	1.450173	-0.235102	-0.435562
H175	H	0.441444	0.021994	-0.440608
C176	C	0.301789	0.322894	-0.785716
C177	C	0.249157	0.317405	-0.839854
C178	C	0.143878	0.366060	-0.888540
C179	C	0.091233	0.420204	-0.883088
C180	C	0.143866	0.425695	-0.828948
C181	C	0.249144	0.377040	-0.780263
H182	H	0.288128	0.277322	-0.843891
H183	H	0.104916	0.361995	-0.928617
H184	H	0.013300	0.456221	-0.919128
H185	H	0.104894	0.465777	-0.824911
H186	H	0.288106	0.381105	-0.740185
H187	H	0.559417	0.021996	-0.440613
H188	H	0.329248	0.310317	-0.462665
C189	C	1.000460	-0.080496	-0.279028
C190	C	0.888812	-0.086306	-0.298755
C191	C	0.888797	-0.128455	-0.323098
C192	C	1.000429	-0.164793	-0.327713
C193	C	1.112085	-0.158984	-0.307984
C194	C	1.112100	-0.116835	-0.283642
H195	H	0.806168	-0.059405	-0.295340
H196	H	0.806141	-0.132755	-0.337702
H197	H	1.000417	-0.195995	-0.345732
H198	H	1.194729	-0.185885	-0.311400
H199	H	1.194756	-0.112535	-0.269038
C200	C	0.637100	-0.528908	-0.546676
C201	C	0.540411	-0.500473	-0.605536
C202	C	0.411468	-0.495003	-0.635357
C203	C	0.379214	-0.517968	-0.606318
C204	C	0.475906	-0.546404	-0.547454
C205	C	0.604849	-0.551874	-0.517633
H206	H	0.564285	-0.483472	-0.627035
H207	H	0.339890	-0.473953	-0.678931
H208	H	0.283762	-0.513919	-0.628393
H209	H	0.452031	-0.563406	-0.525955
H210	H	0.676426	-0.572925	-0.474059
C211	C	1.397600	-0.240574	-0.335900
C212	C	1.450241	-0.294717	-0.341353
C213	C	1.397601	-0.300210	-0.395491
C214	C	1.292320	-0.251559	-0.444177
C215	C	1.239673	-0.197412	-0.438726
C216	C	1.292313	-0.191919	-0.384587
H217	H	1.528182	-0.330735	-0.305311
H218	H	1.436575	-0.340294	-0.399526
H219	H	1.253352	-0.255625	-0.484253
H220	H	1.161732	-0.161394	-0.474767
H221	H	1.253339	-0.151836	-0.380553
C222	C	0.637090	-0.436001	-0.546665
C223	C	0.540370	-0.419739	-0.605525
C224	C	0.411419	-0.365612	-0.635328
C225	C	0.379187	-0.327748	-0.606273
C226	C	0.475909	-0.344009	-0.547410
C227	C	0.604861	-0.398135	-0.517606
H228	H	0.564228	-0.447769	-0.627036
H229	H	0.339819	-0.353575	-0.678903
H230	H	0.283729	-0.287680	-0.628335
H231	H	0.452052	-0.315978	-0.525898
H232	H	0.676461	-0.410172	-0.474032
C233	C	0.603320	0.240458	-0.519563
C234	C	0.550703	0.294591	-0.549362
C235	C	0.603334	0.300061	-0.579166
C236	C	0.708581	0.251398	-0.579172
C237	C	0.761203	0.197260	-0.549371
C238	C	0.708573	0.191790	-0.519567
H239	H	0.472788	0.330619	-0.549359
H240	H	0.564379	0.340138	-0.601226
H241	H	0.747542	0.255447	-0.601235
H242	H	0.839119	0.161233	-0.549374
H243	H	0.747528	0.151713	-0.497507
C244	C	0.402233	-0.056987	-0.682299
C245	C	0.296962	-0.057008	-0.730963
C246	C	0.244336	-0.086811	-0.725476
C247	C	0.296982	-0.116594	-0.671326
C248	C	0.402259	-0.116574	-0.622659
C249	C	0.454885	-0.086771	-0.628145
H250	H	0.257985	-0.034960	-0.771052
H251	H	0.166403	-0.086826	-0.761503
H252	H	0.258026	-0.138656	-0.667264
H253	H	0.441236	-0.138622	-0.582570
H254	H	0.532818	-0.086756	-0.592118
C255	C	1.598698	-0.056905	-0.129171
C256	C	1.703972	-0.056887	-0.080506
C257	C	1.756619	-0.086669	-0.026353
C258	C	1.703992	-0.116468	-0.020864
C259	C	1.598712	-0.116487	-0.069531
C260	C	1.546065	-0.086706	-0.123684
H261	H	1.742935	-0.034826	-0.084567
H262	H	1.834554	-0.086654	0.009674
H263	H	1.742965	-0.138514	0.019223
H264	H	1.559749	-0.138548	-0.065469
H265	H	1.468130	-0.086720	-0.159710
H266	H	1.213124	-0.778975	-0.413491
H267	H	0.416074	0.319310	-0.511826
C268	C	1.699104	-0.322995	-0.139598
C269	C	1.751676	-0.317506	-0.085461
C270	C	1.856949	-0.366161	-0.036775
C271	C	1.909650	-0.420305	-0.042227
C272	C	1.857078	-0.425796	-0.096366
C273	C	1.751805	-0.377141	-0.145052
H274	H	1.712663	-0.277423	-0.081423
H275	H	1.895866	-0.362096	0.003303
H276	H	1.987580	-0.456322	-0.006186
H277	H	1.896091	-0.465878	-0.100404
H278	H	1.712888	-0.381206	-0.185130
H279	H	0.415952	0.319301	-0.683776
H280	H	1.330297	-0.682786	-0.386406
C281	C	1.598600	-0.219627	-0.129179
C282	C	1.664361	-0.191173	-0.112918
C283	C	1.716981	-0.185681	-0.058780
C284	C	1.703840	-0.208643	-0.020902
C285	C	1.638076	-0.237099	-0.037162
C286	C	1.585456	-0.242591	-0.091301
H287	H	1.674092	-0.174174	-0.140958
H288	H	1.765664	-0.164616	-0.046743
H289	H	1.742792	-0.204577	0.019175
H290	H	1.628345	-0.254098	-0.009122
H291	H	1.536773	-0.263656	-0.103337
H292	H	1.000387	-0.069587	0.347364
C293	C	1.000445	0.080391	0.353729
C294	C	0.888802	0.137809	0.321835
C295	C	0.888815	0.179957	0.346179
C296	C	1.000471	0.164688	0.402418
C297	C	1.112122	0.107267	0.434315
C298	C	1.112109	0.065119	0.409971
H299	H	0.806140	0.149115	0.280202
H300	H	0.806163	0.222464	0.322567
H301	H	1.000481	0.195888	0.420439
H302	H	1.194784	0.095962	0.475948
H303	H	1.194761	0.022613	0.433583
C304	C	0.603142	0.056829	-0.703228
C305	C	0.550465	0.086625	-0.757379
C306	C	0.603056	0.116444	-0.762867
C307	C	0.708323	0.116468	-0.714205
C308	C	0.761006	0.086671	-0.660050
C309	C	0.708416	0.056851	-0.654562
H310	H	0.472535	0.086609	-0.793406
H311	H	0.564056	0.138502	-0.802957
H312	H	0.747254	0.138542	-0.718268
H313	H	0.838937	0.086687	-0.624024
H314	H	0.747416	0.034794	-0.614473
C315	C	1.246548	-0.333474	-0.405747
C316	C	1.343241	-0.349733	-0.419890
C317	C	1.472189	-0.403860	-0.390075
C318	C	1.504444	-0.441729	-0.346116
C319	C	1.407749	-0.425472	-0.331970
C320	C	1.278800	-0.371344	-0.361786
H321	H	1.319366	-0.321699	-0.452433
H322	H	1.543769	-0.415895	-0.400546
H323	H	1.599899	-0.481798	-0.324045
H324	H	1.431624	-0.453505	-0.299427
H325	H	1.207220	-0.359309	-0.351314
C326	C	1.598518	-0.333484	-0.405762
C327	C	1.585357	-0.371357	-0.434815
C328	C	1.638032	-0.425501	-0.405006
C329	C	1.703868	-0.441771	-0.346143
C330	C	1.717032	-0.403898	-0.317087
C331	C	1.664357	-0.349754	-0.346896
H332	H	1.536619	-0.359313	-0.478392
H333	H	1.628287	-0.453537	-0.426516
H334	H	1.742861	-0.481851	-0.324077
H335	H	1.765770	-0.415941	-0.273510
H336	H	1.674102	-0.321718	-0.325386
C337	C	0.402344	0.219619	-0.405756
C338	C	0.297092	0.268295	-0.405765
C339	C	0.244434	0.262846	-0.375964
C340	C	0.297028	0.208721	-0.346154
C341	C	0.402286	0.160041	-0.346144
C342	C	0.454943	0.165490	-0.375945
H343	H	0.258153	0.308365	-0.427833
H344	H	0.166515	0.298882	-0.375972
H345	H	0.258048	0.204687	-0.324094
H346	H	0.441224	0.119971	-0.324076
H347	H	0.532862	0.129453	-0.375937
H348	H	1.411368	-0.049184	-0.223507
H349	H	0.589566	0.239050	-0.603480
C350	C	0.402153	0.056799	-0.796144
C351	C	0.415267	0.027749	-0.834022
C352	C	0.362569	0.057551	-0.888177
C353	C	0.296758	0.116403	-0.904454
C354	C	0.283641	0.145457	-0.866575
C355	C	0.336339	0.115655	-0.812421
H356	H	0.463987	-0.015821	-0.821973
H357	H	0.372279	0.036043	-0.916216
H358	H	0.257748	0.138465	-0.944542
H359	H	0.234921	0.189026	-0.878624
H360	H	0.326628	0.137162	-0.784381
C361	C	1.598630	0.056877	-0.243015
C362	C	1.545941	0.086680	-0.297165
C363	C	1.598545	0.116493	-0.302652
C364	C	1.703837	0.116505	-0.253989
C365	C	1.756531	0.086701	-0.199835
C366	C	1.703928	0.056887	-0.194348
H367	H	1.467993	0.086672	-0.333192
H368	H	1.559537	0.138556	-0.342741
H369	H	1.742777	0.138575	-0.258050
H370	H	1.834480	0.086708	-0.163808
H371	H	1.742936	0.034825	-0.154259
C372	C	1.598599	-0.333467	-0.242958
C373	C	1.506491	-0.349747	-0.271385
C374	C	1.559125	-0.403894	-0.276835
C375	C	1.703867	-0.441760	-0.253859
C376	C	1.795984	-0.425481	-0.225430
C377	C	1.743350	-0.371334	-0.219980
H378	H	1.399337	-0.321715	-0.288395
H379	H	1.490934	-0.415945	-0.297879
H380	H	1.742830	-0.481843	-0.257893
H381	H	1.903138	-0.453513	-0.208420
H382	H	1.811542	-0.359283	-0.198935
H383	H	0.415954	0.220949	-0.782071
H384	H	1.411202	-0.140838	-0.511820
H385	H	1.411318	0.049122	-0.321856
H386	H	1.000373	-0.107867	0.011077
H387	H	0.589603	0.140755	-0.413493
C388	C	1.598444	-0.219669	-0.519575
C389	C	1.545813	-0.165530	-0.549368
C390	C	1.598425	-0.160048	-0.579176
C391	C	1.703668	-0.208705	-0.579191
C392	C	1.756305	-0.262848	-0.549396
C393	C	1.703693	-0.268330	-0.519588
H394	H	1.467901	-0.129508	-0.549359
H395	H	1.559460	-0.119968	-0.601232
H396	H	1.742615	-0.204646	-0.601256
H397	H	1.834217	-0.298870	-0.549406
H398	H	1.742658	-0.308410	-0.497532
H399	H	1.671599	-0.310386	-0.462680
H400	H	0.592077	-0.047844	-0.510456
H401	H	0.408710	-0.047849	-0.510452
H402	H	1.213032	-0.239141	-0.413485
H403	H	1.330280	-0.469774	-0.386397
H404	H	1.330292	-0.550037	-0.386400
H405	H	1.671837	-0.000014	-0.152279
H406	H	1.213122	-0.859252	-0.413495
H407	H	0.787819	-0.760959	-0.511820
H408	H	0.329057	-0.000110	-0.773036
H409	H	1.000429	0.069459	0.267135
H410	H	0.787801	-0.680692	-0.511830
H411	H	1.411246	-0.239161	-0.413491
H412	H	0.670556	-0.397574	-0.538938
H413	H	0.589545	0.140706	-0.701789
H414	H	0.670553	-0.317309	-0.538938
H415	H	0.787732	-0.221133	-0.511816
H416	H	0.787730	-0.140855	-0.511816
H417	H	1.330301	-0.602514	-0.386401
H418	H	1.000462	0.107787	0.063615
C419	C	1.000455	0.118730	0.150201
C420	C	0.888806	0.176145	0.118300
C421	C	0.888802	0.218299	0.142637
C422	C	1.000446	0.203038	0.198875
C423	C	1.112103	0.145619	0.230780
C424	C	1.112107	0.103465	0.206443
H425	H	0.806153	0.187445	0.076666
H426	H	0.806146	0.260804	0.119019
H427	H	1.000443	0.234242	0.216891
H428	H	1.194756	0.134319	0.272414
H429	H	1.194764	0.060960	0.230061
C430	C	1.000500	0.080432	-0.186072
C431	C	0.888862	0.137849	-0.217972
C432	C	0.888868	0.180001	-0.193632
C433	C	1.000513	0.164736	-0.137393
C434	C	1.112160	0.107316	-0.105490
C435	C	1.112154	0.065164	-0.129829
H436	H	0.806208	0.149152	-0.259606
H437	H	0.806219	0.222507	-0.217249
H438	H	1.000517	0.195939	-0.119375
H439	H	1.194814	0.096013	-0.063855
H440	H	1.194803	0.022658	-0.106212
C441	C	1.000503	0.080437	-0.278992
C442	C	0.888849	0.137854	-0.298726
C443	C	0.888848	0.180004	-0.323061
C444	C	1.000500	0.164737	-0.327661
C445	C	1.112163	0.107318	-0.307927
C446	C	1.112164	0.065168	-0.283592
H447	H	0.806190	0.149157	-0.295321
H448	H	0.806187	0.222509	-0.337670
H449	H	1.000499	0.195939	-0.345675
H450	H	1.194822	0.096015	-0.311332
H451	H	1.194825	0.022663	-0.268983
C452	C	1.000330	-0.118816	0.057222
C453	C	1.111924	-0.155145	0.052583
C454	C	1.111886	-0.197290	0.028237
C455	C	1.000253	-0.203106	0.008530
C456	C	0.888651	-0.166776	0.013169
C457	C	0.888690	-0.124632	0.037514
H458	H	1.194569	-0.150841	0.067171
H459	H	1.194502	-0.224184	0.024804
H460	H	1.000225	-0.234304	-0.009492
H461	H	0.806006	-0.171081	-0.001420
H462	H	0.806074	-0.097738	0.040948
C463	C	1.000386	-0.080531	0.260763
C464	C	0.888737	-0.086340	0.241037
C465	C	0.888712	-0.128486	0.216691
C466	C	1.000336	-0.164823	0.212072
C467	C	1.111994	-0.159015	0.231798
C468	C	1.112019	-0.116869	0.256144
H469	H	0.806098	-0.059439	0.244456
H470	H	0.806055	-0.132785	0.202088
H471	H	1.000318	-0.196022	0.194050
H472	H	1.194633	-0.185916	0.228379
H473	H	1.194676	-0.112570	0.270747
C474	C	1.000463	0.118741	0.017467
C475	C	0.888820	0.176157	-0.014432
C476	C	0.888828	0.218309	0.009906
C477	C	1.000478	0.203045	0.066144
C478	C	1.112129	0.145625	0.098047
C479	C	1.112121	0.103473	0.073708
H480	H	0.806162	0.187459	-0.056066
H481	H	0.806175	0.260815	-0.013710
H482	H	1.000484	0.234248	0.084161
H483	H	1.194787	0.134323	0.139680
H484	H	1.194774	0.060968	0.097325
H485	H	1.000433	-0.069550	-0.192444
H486	H	1.000324	-0.107871	0.143811
H487	H	1.000473	0.107792	-0.069128
H488	H	1.000386	-0.107863	-0.069183
H489	H	0.589540	-0.049230	-0.603459
H490	H	1.411298	-0.140807	-0.223525
