data_functionalizedCrystal
_audit_creation_method	'MofGen! by Chris Wilmer'
_symmetry_space_group_name_H-M	'P1'
_symmetry_Int_Tables_number	1
_symmetry_cell_setting	triclinic
loop_
_symmetry_equiv_pos_as_xyz
  x,y,z
_cell_length_a	11.169416
_cell_length_b	11.169417
_cell_length_c	11.169409
_cell_angle_alpha	90.019513
_cell_angle_beta	90.030874
_cell_angle_gamma	90.011589
loop_
_atom_site_label
_atom_site_type_symbol
_atom_site_fract_x
_atom_site_fract_y
_atom_site_fract_z
Zn1	Zn	-0.477670	1.834962	0.678545
Zn2	Zn	-0.678410	1.834852	0.477867
Zn3	Zn	-0.477744	1.634248	0.477880
Zn4	Zn	-0.678314	1.634256	0.678513
O5	O	-0.578035	1.734579	0.578201
O6	O	-0.504308	2.002897	0.651932
O7	O	-0.651863	1.808192	0.309919
O8	O	-0.309785	1.660917	0.504518
O9	O	-0.651791	2.002816	0.504495
O10	O	-0.309730	1.808380	0.651945
O11	O	-0.504435	1.660809	0.309929
O12	O	-0.504341	1.466300	0.504487
O13	O	-0.651627	1.660929	0.846467
O14	O	-0.651699	1.466305	0.651891
O15	O	-0.504214	1.808388	0.846491
O16	O	-0.846347	1.808199	0.504464
O17	O	-0.846277	1.660822	0.651878
C18	C	-0.578019	1.422755	0.578188
C19	C	-0.578041	1.289355	0.578210
C20	C	-0.889859	1.734532	0.578192
C21	C	-1.023259	1.734621	0.578228
C22	C	-0.264992	1.734660	0.578237
C23	C	-0.131592	1.734694	0.578252
C24	C	-0.577901	1.734672	0.891244
C25	C	-0.577845	1.734711	1.024644
C26	C	-0.578052	2.047622	0.578216
C27	C	-0.578059	2.181022	0.578222
C28	C	-0.578081	1.734557	0.266377
C29	C	-0.577800	1.734750	0.132977
