data_functionalizedCrystal
_audit_creation_method	'MofGen! by Chris Wilmer'
_symmetry_space_group_name_H-M	'P1'
_symmetry_Int_Tables_number	1
_symmetry_cell_setting	triclinic
loop_
_symmetry_equiv_pos_as_xyz
  x,y,z
_cell_length_a	14.446369
_cell_length_b	14.446369
_cell_length_c	14.446369
_cell_angle_alpha	90.002029
_cell_angle_beta	59.996622
_cell_angle_gamma	60.003327
loop_
_atom_site_label
_atom_site_type_symbol
_atom_site_fract_x
_atom_site_fract_y
_atom_site_fract_z
Zr1	Zr	1.013297	0.891724	-0.121543
O2	O	1.206416	0.743917	-0.269358
O3	O	0.820178	0.937034	-0.076223
O4	O	1.013308	0.937026	-0.269353
O5	O	1.013278	0.743934	0.076109
O6	O	1.013316	1.089354	-0.269356
O7	O	1.013287	0.743926	-0.076229
O8	O	0.667842	1.089370	0.076118
O9	O	1.358752	0.743918	-0.269365
O10	O	0.899617	1.070041	-0.056904
O11	O	0.899605	0.956366	0.056785
O12	O	1.126990	0.956356	-0.170600
O13	O	1.126978	0.842680	-0.056911
Zr14	Zr	1.013297	1.134684	0.121413
Zr15	Zr	1.013311	1.134671	-0.121547
Zr16	Zr	1.013284	0.891737	0.121417
Zr17	Zr	1.256255	0.891727	-0.121554
Zr18	Zr	0.770339	1.134682	0.121424
O19	O	1.206416	1.089374	0.076093
O20	O	1.206435	1.089356	-0.269365
O21	O	1.206398	0.743935	0.076100
O22	O	0.820178	1.282492	0.269229
O23	O	0.820197	1.282473	-0.076229
O24	O	0.820159	0.937053	0.269235
O25	O	1.013316	1.282475	-0.076238
O26	O	1.013287	1.089383	0.269223
O27	O	1.013278	0.937054	0.269226
O28	O	1.013308	1.282483	0.076099
O29	O	1.358763	0.937029	-0.269369
O30	O	0.667832	1.089380	0.269239
O31	O	0.667842	1.282490	0.269236
O32	O	0.667853	1.282480	0.076115
O33	O	1.358742	0.743929	-0.076244
O34	O	1.358752	0.937039	-0.076248
O35	O	0.899605	1.070053	0.170471
O36	O	0.899617	1.183728	0.056781
O37	O	1.126990	1.070043	-0.056915
O38	O	1.126978	0.956368	0.056775
C39	C	0.709394	1.013202	-0.000051
C40	C	0.606252	1.013201	-0.000046
C41	C	1.013281	1.013221	0.303841
C42	C	1.013275	1.013226	0.406984
C43	C	1.013314	1.317094	-0.000070
C44	C	1.013320	1.420231	-0.000072
C45	C	0.459234	0.941849	0.071986
C46	C	0.566854	0.941461	0.071695
C47	C	0.655252	0.960890	-0.123587
C48	C	0.548019	0.960354	-0.123213
C49	C	0.372798	1.136913	0.050399
C50	C	0.478949	1.136731	0.052920
C51	C	1.317201	1.013207	-0.000079
C52	C	1.420343	1.013208	-0.000084
C53	C	1.013281	0.709315	-0.000059
C54	C	1.013275	0.606178	-0.000057
C55	C	1.156709	1.495211	-0.072126
C56	C	1.156805	1.387882	-0.071822
C57	C	0.942085	1.494789	0.123463
C58	C	0.942995	1.601648	0.123076
C59	C	0.940052	1.603228	-0.050531
C60	C	0.942754	1.494556	-0.053039
C61	C	1.013314	1.013188	-0.303971
C62	C	1.013320	1.013183	-0.407114
C63	C	0.869886	1.084555	0.625358
C64	C	0.869789	1.084964	0.518126
C65	C	1.084510	1.065522	0.410311
C66	C	1.083599	1.066037	0.518080
C67	C	1.086543	0.889486	0.516704
C68	C	1.083840	0.889689	0.410735
C69	C	0.709411	1.317091	-0.000056
C70	C	0.606274	1.420227	-0.000054
C71	C	0.709377	1.013218	0.303855
C72	C	0.606230	1.013222	0.407003
C73	C	0.709394	1.317107	0.303850
C74	C	0.606252	1.420249	0.406995
C75	C	1.317201	0.709301	-0.303979
C76	C	1.420343	0.606159	-0.407125
C77	C	1.317184	0.709318	-0.000073
C78	C	1.420320	0.606181	-0.000076
C79	C	1.317217	1.013191	-0.303985
C80	C	1.420365	1.013186	-0.407133
C81	C	0.459969	1.638587	0.071277
C82	C	0.566886	1.531362	0.071685
C83	C	0.479413	1.423557	0.052251
C84	C	0.372042	1.531319	0.052768
C85	C	0.547030	1.529938	-0.123801
C86	C	0.655496	1.423976	-0.123599
C87	C	0.459903	0.941180	0.481997
C88	C	0.566836	0.941480	0.374658
C89	C	0.479375	1.136751	0.481564
C90	C	0.371989	1.136369	0.588434
C91	C	0.546952	0.962773	0.590015
C92	C	0.655433	0.960261	0.481333
C93	C	0.459902	1.495242	0.625370
C94	C	0.566846	1.387909	0.518135
C95	C	0.479407	1.494788	0.410311
C96	C	0.372009	1.601651	0.518083
C97	C	0.546953	1.603267	0.516736
C98	C	0.655446	1.494591	0.410764
H99	H	0.370363	0.976753	0.163184
N100	N	1.016555	1.186603	0.584784
H101	H	0.987868	1.238917	0.544043
H102	H	0.937544	1.208992	0.662678
N103	N	0.514198	1.493591	-0.194579
H104	H	0.595935	1.444676	-0.273960
H105	H	0.477877	1.448972	-0.159483
H106	H	1.188835	1.017407	0.491423
N107	N	1.230839	1.315982	-0.192315
H108	H	1.263705	1.353883	-0.246107
H109	H	1.307563	1.238891	-0.209605
N110	N	0.509202	1.492162	0.696861
H111	H	0.534076	1.420287	0.716755
H112	H	0.588381	1.494217	0.652919
N113	N	0.599344	1.608746	0.583003
H114	H	0.621767	1.541801	0.610905
H115	H	0.680544	1.606781	0.532472
H116	H	0.529413	1.533824	0.162943
H117	H	0.522159	1.015013	0.668234
N118	N	0.599455	1.596185	-0.181680
H119	H	0.621879	1.624087	-0.137155
H120	H	0.680659	1.545647	-0.260912
N121	N	1.015046	0.837932	0.411423
H122	H	1.078187	0.767316	0.342835
H123	H	0.982370	0.817617	0.482628
N124	N	0.517202	0.987856	0.303418
H125	H	0.515822	1.057804	0.294613
H126	H	0.576856	0.928582	0.226246
N127	N	0.802335	1.530872	0.197684
H128	H	0.783813	1.499157	0.151832
H129	H	0.788776	1.501269	0.263386
N130	N	0.795297	1.038342	0.696849
H131	H	0.703523	1.085350	0.716751
H132	H	0.841282	0.957114	0.652907
N133	N	0.251766	1.189874	0.588097
H134	H	0.219390	1.270349	0.589097
H135	H	0.274495	1.144884	0.517581
N136	N	0.775350	1.424682	-0.175360
H137	H	0.797685	1.422576	-0.119027
H138	H	0.851340	1.356099	-0.245990
H139	H	0.813872	1.175254	0.680343
H140	H	0.346829	1.190330	-0.001844
H141	H	0.991553	1.443182	0.164154
H142	H	1.213044	1.334097	-0.036813
N143	N	0.507427	1.213095	-0.009381
H144	H	0.423894	1.291800	0.026512
H145	H	0.573337	1.216455	-0.004964
N146	N	1.025724	0.831622	0.582946
H147	H	1.074186	0.752395	0.532461
H148	H	1.031359	0.827638	0.649916
N149	N	0.509310	1.710053	0.025047
H150	H	0.506474	1.722082	-0.042609
H151	H	0.452088	1.785825	0.085697
N152	N	0.332296	1.211354	0.692533
H153	H	0.384566	1.244515	0.668860
H154	H	0.235912	1.274670	0.736992
N155	N	1.222506	0.813318	0.305881
H156	H	1.241637	0.857919	0.254232
H157	H	1.285309	0.782664	0.328466
N158	N	0.341201	1.711425	0.191426
H159	H	0.261860	1.723481	0.199825
H160	H	0.355928	1.672379	0.245504
H161	H	0.281284	1.581668	0.143798
N162	N	0.685165	1.316029	0.520312
H163	H	0.702866	1.238927	0.519996
H164	H	0.763669	1.307136	0.451312
H165	H	0.494994	0.851139	0.037281
N166	N	0.508855	1.319887	-0.013265
H167	H	0.454970	1.343910	-0.044865
H168	H	0.604966	1.269685	-0.077588
H169	H	1.190011	1.016043	0.332040
H170	H	0.993493	1.601435	0.163588
N171	N	0.428353	1.426409	0.407480
H172	H	0.336687	1.463693	0.478092
H173	H	0.427072	1.422561	0.338360
N174	N	1.231288	1.492093	-0.192940
H175	H	1.172828	1.562583	-0.202131
H176	H	1.310493	1.488663	-0.211508
H177	H	0.813554	1.176216	0.520584
N178	N	0.803606	1.705740	0.198080
H179	H	0.803111	1.775901	0.198414
H180	H	0.752931	1.707633	0.168157
N181	N	1.226508	0.818710	0.480332
H182	H	1.242465	0.866476	0.513013
H183	H	1.242980	0.752107	0.508769
N184	N	0.518246	0.987908	0.192195
H185	H	0.588226	0.987736	0.192236
H186	H	0.436798	1.068022	0.228565
H187	H	0.687621	1.344819	-0.181248
H188	H	1.035039	1.155686	0.408183
H189	H	1.212723	1.494177	-0.037443
H190	H	0.656238	1.532974	0.036605
N191	N	1.000845	1.608685	-0.169203
H192	H	1.076475	1.613128	-0.191448
H193	H	1.033568	1.538499	-0.223713
N194	N	0.332350	1.496021	-0.011632
H195	H	0.297103	1.451473	0.026033
H196	H	0.262398	1.565734	-0.011781
H197	H	0.655652	0.850214	0.036697
H198	H	0.440848	1.421429	0.142421
N199	N	0.601891	0.839774	-0.176697
H200	H	0.694938	0.787469	-0.200297
H201	H	0.546362	0.817421	-0.120046
H202	H	0.994695	1.443136	-0.144050
H203	H	0.656184	0.850517	0.320385
N204	N	0.803881	1.528839	0.009607
H205	H	0.784681	1.496473	0.073451
H206	H	0.741508	1.614261	0.041652
N207	N	0.800087	1.706826	0.018665
H208	H	0.784130	1.755461	0.082393
H209	H	0.783615	1.751739	-0.031463
N210	N	0.428296	1.190649	0.413212
H211	H	0.346661	1.270111	0.461926
H212	H	0.497231	1.193591	0.345390
H213	H	0.497138	0.849987	0.479662
H214	H	0.522164	1.681480	0.489290
H215	H	0.370238	1.494199	0.680346
H216	H	0.813899	1.049891	0.519741
H217	H	0.501662	1.522020	0.332045
N218	N	0.341146	0.987119	0.480612
H219	H	0.261806	1.054409	0.551556
H220	H	0.355902	1.011430	0.411796
H221	H	0.529392	1.334111	0.520582
H222	H	0.745926	0.869256	0.429908
H223	H	0.745901	1.443197	0.411329
H224	H	0.342053	1.680228	0.491428
H225	H	0.501624	1.192771	0.508794
N226	N	0.599365	0.844111	0.595477
H227	H	0.541533	0.821869	0.599924
H228	H	0.691338	0.789602	0.525287
H229	H	0.687560	1.007292	0.506854
N230	N	0.251799	1.601279	0.584762
H231	H	0.274438	1.530768	0.607025
H232	H	0.181021	1.670598	0.655249
H233	H	0.526056	1.008972	-0.179827
H234	H	0.684043	1.010368	-0.179606
H235	H	0.747557	0.870731	-0.164277
H236	H	0.687578	1.520112	0.331606
N237	N	0.248655	1.194792	0.169067
H238	H	0.221974	1.141402	0.191305
H239	H	0.264315	1.216588	0.223585
H240	H	0.439345	1.175810	0.143933
