data_functionalizedCrystal
_audit_creation_method	'MofGen! by Chris Wilmer'
_symmetry_space_group_name_H-M	'P1'
_symmetry_Int_Tables_number	1
_symmetry_cell_setting	triclinic
loop_
_symmetry_equiv_pos_as_xyz
  x,y,z
_cell_length_a	16.992694
_cell_length_b	16.992695
_cell_length_c	16.053802
_cell_angle_alpha	92.741074
_cell_angle_beta	87.249047
_cell_angle_gamma	90.668223
loop_
_atom_site_label
_atom_site_type_symbol
_atom_site_fract_x
_atom_site_fract_y
_atom_site_fract_z
O1	O	1.053959	0.163815	-0.069325
O2	O	0.825560	0.161983	-0.069350
O3	O	0.938844	0.048699	-0.069331
O4	O	0.940676	0.277099	-0.069344
O5	O	0.932607	0.054907	0.069527
O6	O	0.819323	0.168191	0.069508
O7	O	1.047722	0.170023	0.069533
Zn8	Zn	0.932532	0.170093	0.091567
Zn9	Zn	0.940750	0.161913	-0.091384
O10	O	0.934438	0.283307	0.069514
C11	C	0.793082	0.162731	0.000076
C12	C	0.705597	0.155702	0.000067
C13	C	0.659607	0.223520	0.000064
C14	C	0.577405	0.216911	0.000076
C15	C	0.541197	0.142484	0.000085
C16	C	0.587193	0.074661	0.000091
C17	C	0.669393	0.081270	0.000085
C18	C	0.295881	0.115090	0.000109
C19	C	0.213676	0.108486	0.000112
C20	C	0.203893	0.250737	0.000099
C21	C	0.286095	0.257339	0.000088
C22	C	0.332084	0.189517	0.000098
N23	N	0.457174	0.135727	0.000094
N24	N	0.416105	0.196275	0.000094
C25	C	0.933370	0.022443	0.000098
C26	C	0.926341	-0.065042	0.000097
C27	C	0.994158	-0.111032	0.000105
C28	C	0.987550	-0.193233	0.000096
C29	C	0.913123	-0.229442	0.000086
C30	C	0.845300	-0.183446	0.000075
C31	C	0.851910	-0.101246	0.000078
C32	C	0.885729	-0.474757	0.000071
C33	C	0.879124	-0.556962	0.000071
C34	C	1.021375	-0.566745	0.000091
C35	C	1.027978	-0.484543	0.000099
C36	C	0.960155	-0.438554	0.000083
N37	N	0.906366	-0.313465	0.000079
N38	N	0.966913	-0.354533	0.000084
C39	C	1.080201	0.169275	0.000105
C40	C	1.167685	0.176304	0.000109
C41	C	0.939913	0.309563	0.000084
C42	C	0.946942	0.397047	0.000079
N43	N	0.926930	0.175675	0.216427
N44	N	0.946358	0.156325	-0.216243
C45	C	0.975152	0.127492	0.260129
C46	C	0.971241	0.131404	0.347535
C47	C	0.919110	0.183504	0.391237
C48	C	0.870883	0.231689	0.347529
C49	C	0.874791	0.227772	0.260125
C50	C	0.902039	0.200593	0.652644
C51	C	0.898136	0.204508	0.740055
C52	C	0.998493	0.104222	0.740054
C53	C	1.002400	0.100313	0.652648
C54	C	0.954169	0.148494	0.608948
N55	N	0.915113	0.187507	0.480580
N56	N	0.958163	0.144487	0.519606
H57	H	0.557705	0.014061	0.000110
H58	H	0.315571	0.317945	0.000071
H59	H	0.706838	0.026046	0.000087
N60	N	1.050504	0.052255	0.787193
H61	H	1.038621	-0.004870	0.771992
H62	H	1.107600	0.064240	0.771953
N63	N	1.023259	0.079452	0.394681
H64	H	1.058362	0.113380	0.430933
H65	H	0.989326	0.044327	0.430911
N66	N	0.778769	-0.051630	0.000086
H67	H	0.780651	-0.019602	-0.051386
H68	H	0.730650	-0.087084	0.000116
H69	H	0.835522	0.267007	0.224543
N70	N	0.814658	0.287889	0.394657
H71	H	0.758901	0.274607	0.379457
H72	H	0.819566	0.283039	0.456645
N73	N	0.698661	0.303794	0.000058
H74	H	0.734851	0.307405	-0.051420
H75	H	0.657004	0.345707	0.000091
N76	N	0.850033	0.252573	0.605519
H77	H	0.860414	0.242189	0.543517
H78	H	0.792937	0.240637	0.620808
N79	N	0.765027	-0.222502	0.000066
H80	H	0.732771	-0.203757	0.051537
H81	H	0.737459	-0.208347	-0.051446
H82	H	1.017605	0.085070	0.224552
N83	N	0.527796	0.290061	0.000166
H84	H	0.563206	0.338214	0.000185
H85	H	0.495739	0.288172	-0.051275
N86	N	0.154292	0.323885	0.000089
H87	H	0.096724	0.308408	0.000095
H88	H	0.164220	0.358400	0.051563
H89	H	1.044848	0.057889	0.617067
N90	N	0.174620	0.028207	0.000117
H91	H	0.216226	-0.013756	0.000123
H92	H	0.138419	0.024672	0.051593
N93	N	0.345478	0.041943	0.000125
H94	H	0.310064	-0.006207	0.000130
H95	H	0.382105	0.039278	-0.051350
H96	H	1.054765	-0.081557	0.000119
N97	N	0.812579	-0.425162	0.000060
H98	H	0.814461	-0.393143	-0.051418
H99	H	0.764471	-0.460630	0.000086
H100	H	1.042774	-0.230676	0.000105
N101	N	0.841913	0.260704	0.787203
H102	H	0.855155	0.316466	0.771980
H103	H	0.786175	0.247357	0.771996
N104	N	1.108259	-0.445504	0.000108
H105	H	1.140512	-0.464249	-0.051364
H106	H	1.102097	-0.386459	0.000142
N107	N	1.094521	-0.616349	0.000092
H108	H	1.142672	-0.580938	0.000097
H109	H	1.092569	-0.648371	0.051566
N110	N	0.798846	-0.596019	0.000058
H111	H	0.756883	-0.554413	0.000046
H112	H	0.795326	-0.632211	-0.051419
