data_functionalizedCrystal
_audit_creation_method	'MofGen! by Chris Wilmer'
_symmetry_space_group_name_H-M	'P1'
_symmetry_Int_Tables_number	1
_symmetry_cell_setting	triclinic
loop_
_symmetry_equiv_pos_as_xyz
  x,y,z
_cell_length_a	12.594516
_cell_length_b	15.297475
_cell_length_c	15.296720
_cell_angle_alpha	91.617114
_cell_angle_beta	99.650531
_cell_angle_gamma	80.319586
loop_
_atom_site_label
_atom_site_type_symbol
_atom_site_fract_x
_atom_site_fract_y
_atom_site_fract_z
Zn1	Zn	-0.828402	1.253466	-0.726662
Zn2	Zn	-0.981670	1.278741	-0.580189
Zn3	Zn	-0.768606	1.132339	-0.554898
Zn4	Zn	-0.971207	1.106966	-0.701317
O5	O	-0.887471	1.192878	-0.640767
O6	O	-0.878137	1.379399	-0.728424
O7	O	-0.932761	1.280516	-0.454258
O8	O	-0.627605	1.148448	-0.577705
O9	O	-0.990742	1.397968	-0.620811
O10	O	-0.671537	1.237439	-0.703900
O11	O	-0.776223	1.172956	-0.435677
O12	O	-0.766078	1.006393	-0.553130
O13	O	-0.972910	1.105203	-0.827255
O14	O	-0.914928	0.987752	-0.660703
O15	O	-0.867992	1.212836	-0.845876
O16	O	-1.129215	1.255913	-0.596235
O17	O	-1.121528	1.129711	-0.685227
C18	C	-0.832880	0.965289	-0.601422
C19	C	-0.809554	0.867921	-0.584611
C20	C	-1.054189	0.554794	-0.760920
C21	C	-1.076112	0.646276	-0.776712
C22	C	-1.009475	0.701692	-0.728689
C23	C	-0.920910	0.665617	-0.664869
C24	C	-0.898991	0.574127	-0.649070
C25	C	-0.854276	0.721024	-0.616839
C26	C	-0.765712	0.684949	-0.553020
C27	C	-0.743795	0.593468	-0.537225
C28	C	-0.810433	0.538052	-0.585248
C29	C	-0.876196	0.812514	-0.632638
C30	C	-0.720997	0.831847	-0.520789
C31	C	-0.699074	0.740365	-0.504996
C32	C	-1.163997	1.192822	-0.640748
C33	C	-1.282320	1.192873	-0.640783
C34	C	-1.347423	1.124233	-0.689144
C35	C	-1.399680	1.116732	-0.605532
C36	C	-1.440883	1.200452	-0.724423
C37	C	-1.333002	1.185337	-0.557122
C38	C	-1.374217	1.269085	-0.676073
C39	C	-1.426440	1.261623	-0.592411
C40	C	-0.609875	1.192955	-0.640809
C41	C	-0.491580	1.192987	-0.640826
C42	C	-0.925954	1.153370	-0.869237
C43	C	-0.942353	1.136534	-0.966597
C44	C	-0.942277	1.421356	-0.680265
C45	C	-0.965632	1.518720	-0.697097
C46	C	-0.770087	1.313239	-1.279821
C47	C	-0.754682	1.329063	-1.188347
C48	C	-0.801598	1.280932	-1.132905
C49	C	-0.863922	1.216975	-1.168946
C50	C	-0.879335	1.201155	-1.260430
C51	C	-0.910847	1.168847	-1.113514
C52	C	-0.973170	1.104891	-1.149555
C53	C	-0.988580	1.089073	-1.241030
C54	C	-0.941664	1.137203	-1.296472
C55	C	-0.895433	1.184668	-1.022030
C56	C	-1.004682	1.072583	-1.002639
C57	C	-1.020086	1.056760	-1.094113
C58	C	-0.849074	1.232282	-0.413194
C59	C	-0.832416	1.249288	-0.315863
H60	H	-0.626964	0.710979	-0.453034
H61	H	-0.666736	0.876967	-0.481682
O62	O	-1.080483	0.994520	-1.129069
C63	C	-1.032532	0.911090	-1.091613
H64	H	-0.942212	0.911039	-1.065711
H65	H	-1.075157	0.897356	-1.034548
C66	C	-1.155510	0.838639	-1.194584
C67	C	-1.044576	0.838574	-1.162778
H68	H	-1.162944	0.793906	-1.238480
H69	H	-1.187819	0.894847	-1.219817
H70	H	-1.191019	0.827196	-1.147023
H71	H	-1.009073	0.850027	-1.210336
H72	H	-1.012261	0.782365	-1.137554
H73	H	-0.789052	1.293819	-1.058424
O74	O	-0.956825	1.121839	-1.385334
C75	C	-1.069367	1.139044	-1.419779
H76	H	-1.118206	1.133176	-1.364469
H77	H	-1.091788	1.208919	-1.448574
C78	C	-1.036057	1.078579	-1.561156
C79	C	-1.096041	1.071365	-1.493225
H80	H	-1.052511	1.036835	-1.606463
H81	H	-0.960234	1.066991	-1.537951
H82	H	-1.054747	1.136812	-1.585141
H83	H	-1.077340	1.013137	-1.469233
H84	H	-1.171861	1.082942	-1.516427
O85	O	-0.657744	0.558294	-0.475314
C86	C	-0.584812	0.496750	-0.516120
H87	H	-0.630345	0.471597	-0.580102
H88	H	-0.516006	0.530314	-0.531908
C89	C	-0.480661	0.449057	-0.374357
C90	C	-0.536587	0.418157	-0.452936
H91	H	-0.450909	0.400579	-0.335381
H92	H	-0.529794	0.490522	-0.346864
H93	H	-0.423330	0.477027	-0.387525
H94	H	-0.593925	0.390199	-0.439769
H95	H	-0.487463	0.376686	-0.480425
H96	H	-1.039339	1.037002	-1.270373
O97	O	-1.413886	1.039828	-0.570074
C98	C	-1.373529	0.967568	-0.621220
H99	H	-1.372691	0.991305	-0.691039
H100	H	-1.286967	0.938055	-0.589252
C101	C	-1.448540	0.867279	-0.540206
C102	C	-1.447519	0.896433	-0.625961
H103	H	-1.494177	0.823397	-0.543128
H104	H	-1.475726	0.915961	-0.505745
H105	H	-1.376401	0.842691	-0.513575
H106	H	-1.519656	0.921030	-0.652586
H107	H	-1.420348	0.847753	-0.660427
H108	H	-1.460800	1.319729	-0.551475
H109	H	-0.703941	1.381139	-1.159010
H110	H	-1.362260	1.333461	-0.705927
H111	H	-1.312837	1.066111	-0.729954
O112	O	-1.277444	1.177529	-0.472690
C113	C	-1.290540	1.097478	-0.435562
H114	H	-1.368163	1.075273	-0.471952
H115	H	-1.217188	1.044324	-0.442283
C116	C	-1.203737	1.139108	-0.292071
C117	C	-1.299080	1.111838	-0.336762
H118	H	-1.209000	1.147963	-0.231126
H119	H	-1.194910	1.193038	-0.317086
H120	H	-1.142621	1.094808	-0.297682
H121	H	-1.360193	1.156142	-0.331161
H122	H	-1.307918	1.057916	-0.311745
H123	H	-1.487649	1.206818	-0.795139
H124	H	-1.042887	1.033393	-0.957499
O125	O	-0.834787	1.246679	-0.986910
C126	C	-0.745151	1.205970	-0.925406
H127	H	-0.764456	1.141950	-0.900213
H128	H	-0.669917	1.190264	-0.959019
C129	C	-0.699075	1.347831	-0.877794
C130	C	-0.722790	1.269204	-0.846845
H131	H	-0.685278	1.386837	-0.829336
H132	H	-0.759462	1.375258	-0.919233
H133	H	-0.636384	1.334731	-0.905805
H134	H	-0.785488	1.282304	-0.818846
H135	H	-0.662413	1.241781	-0.805400
H136	H	-0.731902	1.352425	-1.324970
H137	H	-0.948305	0.841877	-0.684601
O138	O	-1.030958	0.790557	-0.744027
C139	C	-1.136417	0.825027	-0.726638
H140	H	-1.187631	0.769730	-0.732409
H141	H	-1.130170	0.853815	-0.656757
C142	C	-1.127970	0.966404	-0.787162
C143	C	-1.190874	0.898489	-0.794256
H144	H	-1.161561	1.011722	-0.828868
H145	H	-1.056918	0.943183	-0.798874
H146	H	-1.122769	0.990384	-0.728924
H147	H	-1.196062	0.874503	-0.852489
H148	H	-1.261928	0.921708	-0.782555
O149	O	-1.162150	0.681167	-0.838761
C150	C	-1.216282	0.612645	-0.877746
H151	H	-1.157588	0.546903	-0.869583
H152	H	-1.289298	0.608463	-0.843871
C153	C	-1.328152	0.712997	-0.987143
C154	C	-1.256061	0.632252	-0.977124
H155	H	-1.352694	0.725093	-1.048443
H156	H	-1.291686	0.759163	-0.960877
H157	H	-1.388990	0.709502	-0.958908
H158	H	-1.195219	0.635752	-1.005349
H159	H	-1.292518	0.586087	-1.003397
H160	H	-1.108442	0.509668	-0.800008
H161	H	-0.792586	0.463559	-0.572395
