data_functionalizedCrystal
_audit_creation_method	'MofGen! by Chris Wilmer'
_symmetry_space_group_name_H-M	'P1'
_symmetry_Int_Tables_number	1
_symmetry_cell_setting	triclinic
loop_
_symmetry_equiv_pos_as_xyz
  x,y,z
_cell_length_a	14.044191
_cell_length_b	14.044190
_cell_length_c	16.776229
_cell_angle_alpha	89.988781
_cell_angle_beta	89.995480
_cell_angle_gamma	93.191777
loop_
_atom_site_label
_atom_site_type_symbol
_atom_site_fract_x
_atom_site_fract_y
_atom_site_fract_z
O1	O	1.277182	0.230203	-0.066266
O2	O	1.777182	0.730203	0.433734
O3	O	1.000509	0.221891	-0.066276
O4	O	1.500509	0.721891	0.433724
O5	O	1.134689	0.087711	-0.066255
O6	O	1.634689	0.587711	0.433745
O7	O	1.143002	0.364383	-0.066287
O8	O	1.643002	0.864383	0.433713
O9	O	1.134669	0.087700	0.066321
O10	O	1.634669	0.587700	0.566321
O11	O	1.000489	0.221880	0.066301
O12	O	1.500489	0.721880	0.566301
O13	O	1.277162	0.230193	0.066310
O14	O	1.777162	0.730193	0.566310
Zn15	Zn	1.138822	0.226035	0.087355
Zn16	Zn	1.638822	0.726035	0.587355
Zn17	Zn	1.138849	0.226049	-0.087320
Zn18	Zn	1.638849	0.726049	0.412680
O19	O	1.142982	0.364373	0.066290
O20	O	1.642982	0.864373	0.566290
C21	C	0.964877	0.218249	0.000012
C22	C	1.464877	0.718249	0.500012
C23	C	0.858734	0.207401	0.000009
C24	C	1.358734	0.707401	0.500009
C25	C	0.613277	0.264502	0.000010
C26	C	1.113277	0.764502	0.500010
C27	C	0.664400	0.187585	0.000017
C28	C	1.164400	0.687585	0.500017
C29	C	0.772537	0.198614	0.000013
C30	C	1.272537	0.698614	0.500013
C31	C	0.505130	0.253475	0.000015
C32	C	1.005130	0.753475	0.500015
C33	C	1.131043	0.052083	0.000035
C34	C	1.631043	0.552083	0.500035
C35	C	1.120195	-0.054060	0.000042
C36	C	1.620195	0.445940	0.500042
C37	C	1.177296	-0.299517	0.000012
C38	C	1.677296	0.200483	0.500012
C39	C	1.100379	-0.248394	0.000015
C40	C	1.600379	0.251606	0.500015
C41	C	1.111408	-0.140257	0.000030
C42	C	1.611408	0.359743	0.500030
C43	C	1.166269	-0.407664	-0.000002
C44	C	1.666269	0.092336	0.499998
C45	C	1.312794	0.233834	0.000021
C46	C	1.812794	0.733834	0.500021
C47	C	1.418937	0.244682	0.000019
C48	C	1.918937	0.744682	0.500019
C49	C	1.146628	0.400000	-0.000002
C50	C	1.646628	0.900000	0.499998
C51	C	1.157476	0.506143	-0.000014
C52	C	1.657476	1.006143	0.499986
N53	N	1.138811	0.226025	0.206566
N54	N	1.638811	0.726025	0.706566
N55	N	1.138867	0.226051	-0.206532
N56	N	1.638867	0.726051	0.293468
C57	C	1.198248	0.166638	0.248292
C58	C	1.698248	0.666638	0.748292
C59	C	1.198253	0.166638	0.331744
C60	C	1.698253	0.666638	0.831744
C61	C	1.138826	0.226030	0.373469
C62	C	1.638826	0.726030	0.873469
C63	C	1.079382	0.285419	0.331737
C64	C	1.579382	0.785419	0.831737
C65	C	1.079373	0.285414	0.248286
C66	C	1.579373	0.785414	0.748286
C67	C	1.079418	0.285441	0.668284
C68	C	1.579418	0.785441	1.168284
C69	C	1.079434	0.285443	0.751741
C70	C	1.579434	0.785443	1.251741
C71	C	1.198299	0.166665	0.751742
C72	C	1.698299	0.666665	1.251742
C73	C	1.198289	0.166660	0.668292
C74	C	1.698289	0.666660	1.168292
C75	C	1.138842	0.226045	0.626567
C76	C	1.638842	0.726045	1.126567
C77	C	1.138836	0.226043	0.536079
C78	C	1.638836	0.726043	1.036079
C79	C	1.138836	0.226037	0.463956
C80	C	1.638836	0.726037	0.963956
H81	H	0.650720	0.338629	-0.000001
H82	H	1.150720	0.838629	0.499999
H83	H	0.626955	0.113453	-0.000030
H84	H	1.126955	0.613453	0.499970
H85	H	1.246701	0.118307	0.785723
H86	H	1.746701	0.618307	1.285723
F87	F	1.003482	-0.297335	0.000010
F88	F	1.503482	0.202665	0.500010
H89	H	1.246650	0.118280	0.365717
H90	H	1.746650	0.618280	0.865717
H91	H	1.030990	0.333773	0.365714
H92	H	1.530990	0.833773	0.865714
H93	H	1.251423	-0.262074	0.000023
H94	H	1.751423	0.237926	0.500023
H95	H	1.246645	0.118279	0.214325
H96	H	1.746645	0.618279	0.714325
H97	H	1.031038	0.333809	0.785712
H98	H	1.531038	0.833809	1.285712
H99	H	1.246684	0.118301	0.634322
H100	H	1.746684	0.618301	1.134322
H101	H	1.031016	0.333796	0.634319
H102	H	1.531016	0.833796	1.134319
H103	H	1.030972	0.333771	0.214314
H104	H	1.530972	0.833771	0.714314
