data_functionalizedCrystal
_audit_creation_method	'MofGen! by Chris Wilmer'
_symmetry_space_group_name_H-M	'P1'
_symmetry_Int_Tables_number	1
_symmetry_cell_setting	triclinic
loop_
_symmetry_equiv_pos_as_xyz
  x,y,z
_cell_length_a	9.798715
_cell_length_b	10.723024
_cell_length_c	10.723024
_cell_angle_alpha	84.467869
_cell_angle_beta	90.001978
_cell_angle_gamma	90.004017
loop_
_atom_site_label
_atom_site_type_symbol
_atom_site_fract_x
_atom_site_fract_y
_atom_site_fract_z
O1	O	-0.113498	-1.657187	-0.175024
O2	O	-0.113498	-1.294035	-0.191778
O3	O	-0.113493	-1.483988	-0.001825
O4	O	-0.113503	-1.467234	-0.364977
O5	O	0.113489	-1.483974	-0.001824
O6	O	0.113484	-1.294021	-0.191777
O7	O	0.113484	-1.657173	-0.175024
Zn8	Zn	0.149522	-1.475595	-0.183401
Zn9	Zn	-0.149537	-1.475613	-0.183401
O10	O	0.113479	-1.467220	-0.364977
C11	C	-0.000007	-1.247528	-0.190558
C12	C	-0.000007	-1.108974	-0.186911
N13	N	0.353622	-1.475591	-0.183399
N14	N	-0.353636	-1.475627	-0.183393
C15	C	-0.000010	-1.033991	-0.293198
C16	C	-0.000010	-0.890788	-0.289431
C17	C	0.421401	-1.555347	-0.103292
C18	C	0.578564	-1.555367	-0.103288
C19	C	-0.000004	-1.482762	0.044675
C20	C	-0.000009	-1.479114	0.183229
C21	C	-0.000007	-0.703680	-0.176243
C22	C	-0.000007	-0.842234	-0.179891
C23	C	-0.000014	-1.468447	-0.411477
C24	C	-0.000018	-1.472094	-0.550031
C25	C	-0.000010	-1.585401	0.258212
C26	C	-0.000015	-1.581634	0.401415
H27	H	-0.000005	-1.075814	-0.386984
H28	H	-0.000011	-1.672624	0.465848
H29	H	-0.000039	-1.067152	-0.093125
H30	H	-0.000007	-1.381099	0.385544
Cl31	Cl	0.668549	-1.660802	0.002598
H32	H	-0.000017	-1.385328	0.225051
Cl33	Cl	0.331365	-1.660468	0.002877
Cl34	Cl	0.556388	-1.370202	-0.289295
Cl35	Cl	-0.000025	-0.791315	-0.429921
Cl36	Cl	-0.000019	-1.730207	0.193653
Cl37	Cl	-0.000014	-0.941699	-0.039396
Cl38	Cl	0.443658	-1.370179	-0.289280
