data_functionalizedCrystal
_audit_creation_method	'MofGen! by Chris Wilmer'
_symmetry_space_group_name_H-M	'P1'
_symmetry_Int_Tables_number	1
_symmetry_cell_setting	triclinic
loop_
_symmetry_equiv_pos_as_xyz
  x,y,z
_cell_length_a	12.759401
_cell_length_b	12.759400
_cell_length_c	12.759393
_cell_angle_alpha	89.969349
_cell_angle_beta	89.982549
_cell_angle_gamma	90.012209
loop_
_atom_site_label
_atom_site_type_symbol
_atom_site_fract_x
_atom_site_fract_y
_atom_site_fract_z
Zn1	Zn	1.606255	-0.418229	-0.593991
Zn2	Zn	2.106255	0.081771	-0.093991
Zn3	Zn	1.606157	-0.593948	-0.418315
Zn4	Zn	2.106157	-0.093948	0.081685
Zn5	Zn	1.430560	-0.418281	-0.418331
Zn6	Zn	1.930560	0.081719	0.081669
Zn7	Zn	1.430550	-0.593864	-0.593956
Zn8	Zn	1.930550	-0.093864	-0.093956
O9	O	1.518381	-0.506081	-0.506148
O10	O	2.018381	-0.006081	-0.006148
O11	O	1.753263	-0.441552	-0.570696
O12	O	2.253263	0.058448	-0.070696
O13	O	1.582828	-0.570703	-0.271296
O14	O	2.082828	-0.070703	0.228704
O15	O	1.453912	-0.271253	-0.441654
O16	O	1.953912	0.228747	0.058346
O17	O	1.753191	-0.570653	-0.441627
O18	O	2.253191	-0.070653	0.058373
O19	O	1.582994	-0.271215	-0.570711
O20	O	2.082994	0.228785	-0.070711
O21	O	1.453817	-0.441641	-0.271307
O22	O	1.953817	0.058359	0.228693
O23	O	1.283538	-0.441559	-0.441620
O24	O	1.783538	0.058441	0.058380
O25	O	1.453895	-0.570508	-0.740982
O26	O	1.953895	-0.070508	-0.240982
O27	O	1.283531	-0.570558	-0.570651
O28	O	1.783531	-0.070558	-0.070651
O29	O	1.582984	-0.441470	-0.741008
O30	O	2.082984	0.058530	-0.241008
O31	O	1.582818	-0.740958	-0.441593
O32	O	2.082818	-0.240958	0.058407
O33	O	1.453800	-0.740896	-0.570636
O34	O	1.953800	-0.240896	-0.070636
C35	C	1.245413	-0.506056	-0.506134
C36	C	1.745413	-0.006056	-0.006134
C37	C	1.128637	-0.506071	-0.506152
C38	C	1.628637	-0.006071	-0.006152
C39	C	1.073805	-0.438975	-0.573463
C40	C	1.573805	0.061025	-0.073463
C41	C	0.964081	-0.438995	-0.573469
C42	C	1.464081	0.061005	-0.073469
C43	C	0.964030	-0.573216	-0.438853
C44	C	1.464030	-0.073216	0.061147
C45	C	1.073752	-0.573189	-0.438841
C46	C	1.573752	-0.073189	0.061159
C47	C	1.128690	-0.371856	-0.640774
C48	C	1.628690	0.128144	-0.140774
C49	C	1.073858	-0.304756	-0.708090
C50	C	1.573858	0.195244	-0.208090
C51	C	0.964134	-0.304776	-0.708097
C52	C	1.464134	0.195224	-0.208097
C53	C	0.909242	-0.371896	-0.640787
C54	C	1.409242	0.128104	-0.140787
C55	C	1.518326	-0.779048	-0.506132
C56	C	2.018326	-0.279048	-0.006132
C57	C	1.518398	-0.895825	-0.506160
C58	C	2.018398	-0.395825	-0.006160
C59	C	1.585578	-0.950587	-0.573415
C60	C	2.085578	-0.450587	-0.073415
C61	C	1.585627	-1.060311	-0.573441
C62	C	2.085627	-0.560311	-0.073441
C63	C	1.451314	-1.060501	-0.438947
C64	C	1.951314	-0.560501	0.061053
C65	C	1.451260	-0.950779	-0.438927
C66	C	1.951260	-0.450779	0.061073
C67	C	1.652716	-0.895633	-0.640647
C68	C	2.152716	-0.395633	-0.140647
C69	C	1.719901	-0.950395	-0.707907
C70	C	2.219901	-0.450395	-0.207907
C71	C	1.719950	-1.060119	-0.707933
C72	C	2.219950	-0.560119	-0.207933
C73	C	1.652813	-1.115081	-0.640699
C74	C	2.152813	-0.615081	-0.140699
C75	C	1.792414	-0.506106	-0.506164
C76	C	2.292414	-0.006106	-0.006164
C77	C	1.909191	-0.506117	-0.506170
C78	C	2.409191	-0.006117	-0.006170
C79	C	1.518449	-0.505974	-0.780182
C80	C	2.018449	-0.005974	-0.280182
C81	C	1.518478	-0.505928	-0.896959
C82	C	2.018478	-0.005928	-0.396959
C83	C	1.518465	-0.232047	-0.506188
C84	C	2.018465	0.267953	-0.006188
C85	C	1.518501	-0.115271	-0.506205
C86	C	2.018501	0.384729	-0.006205
C87	C	1.451331	-0.438713	-0.951833
C88	C	1.951331	0.061287	-0.451833
C89	C	1.451363	-0.438682	-1.061557
C90	C	1.951363	0.061318	-0.561557
C91	C	1.585698	-0.573083	-1.061523
C92	C	2.085698	-0.073083	-0.561523
C93	C	1.585660	-0.573119	-0.951801
C94	C	2.085660	-0.073119	-0.451801
C95	C	1.384149	-0.371522	-0.896990
C96	C	1.884149	0.128478	-0.396990
C97	C	1.316997	-0.304301	-0.951864
C98	C	1.816997	0.195699	-0.451864
C99	C	1.317029	-0.304269	-1.061588
C100	C	1.817029	0.195731	-0.561588
C101	C	1.384212	-0.371459	-1.116438
C102	C	1.884212	0.128541	-0.616438
C103	C	1.518373	-0.506111	-0.233181
C104	C	2.018373	-0.006111	0.266819
C105	C	1.518548	-0.505861	-0.116405
C106	C	2.018548	-0.005861	0.383595
H107	H	1.118397	-0.627825	-0.384032
H108	H	1.618397	-0.127825	0.115968
Br109	Br	1.811113	-1.134438	-0.799226
Br110	Br	2.311113	-0.634438	-0.299226
Br111	Br	0.889721	-0.213703	-0.799442
Br112	Br	1.389721	0.286297	-0.299442
Br113	Br	1.676871	-0.664263	-1.135962
Br114	Br	2.176871	-0.164263	-0.635962
Br115	Br	0.760329	-0.371909	-0.640784
Br116	Br	1.260329	0.128091	-0.140784
Br117	Br	1.360088	-0.876451	-0.347650
Br118	Br	1.860088	-0.376451	0.152350
Br119	Br	0.889534	-0.664303	-0.347511
Br120	Br	1.389534	-0.164303	0.152489
H121	H	1.218033	-0.371832	-0.640776
H122	H	1.718033	0.128168	-0.140776
Br123	Br	1.652626	-0.746722	-0.640643
Br124	Br	2.152626	-0.246722	-0.140643
H125	H	1.118559	-0.250103	-0.762885
H126	H	1.618559	0.249897	-0.262885
H127	H	1.774556	-0.905640	-0.762653
H128	H	2.274556	-0.405640	-0.262653
H129	H	1.384117	-0.371538	-0.807647
H130	H	1.884117	0.128462	-0.307647
H131	H	1.652846	-1.204426	-0.640737
H132	H	2.152846	-0.704426	-0.140737
Br133	Br	1.225819	-0.213124	-0.877429
Br134	Br	1.725819	0.286876	-0.377429
H135	H	1.262344	-0.249542	-1.106264
H136	H	1.762344	0.250458	-0.606264
Br137	Br	1.360205	-1.135091	-0.347707
Br138	Br	1.860205	-0.635091	0.152293
Br139	Br	1.384247	-0.371422	-1.265351
Br140	Br	1.884247	0.128578	-0.765351
Br141	Br	1.676781	-0.664349	-0.877322
Br142	Br	2.176781	-0.164349	-0.377322
