data_functionalizedCrystal
_audit_creation_method	'MofGen! by Chris Wilmer'
_symmetry_space_group_name_H-M	'P1'
_symmetry_Int_Tables_number	1
_symmetry_cell_setting	triclinic
loop_
_symmetry_equiv_pos_as_xyz
  x,y,z
_cell_length_a	14.853567
_cell_length_b	10.489741
_cell_length_c	13.330367
_cell_angle_alpha	89.995673
_cell_angle_beta	89.995418
_cell_angle_gamma	84.087052
loop_
_atom_site_label
_atom_site_type_symbol
_atom_site_fract_x
_atom_site_fract_y
_atom_site_fract_z
O1	O	1.197303	0.166528	-0.083354
O2	O	0.934954	0.186366	-0.083371
O3	O	1.072098	-0.009218	-0.083356
O4	O	1.060159	0.362112	-0.083369
O5	O	1.072078	-0.009223	0.083491
O6	O	0.934934	0.186361	0.083476
O7	O	1.197282	0.166524	0.083493
Cu8	Cu	1.066107	0.176442	0.098719
Cu9	Cu	1.066130	0.176447	-0.098597
O10	O	1.060139	0.362107	0.083479
C11	C	0.901351	0.185464	0.000051
C12	C	0.801252	0.182771	0.000044
C13	C	0.388003	0.055204	0.000071
C14	C	0.368025	0.287562	0.000062
C15	C	0.462072	0.290094	0.000059
C16	C	0.519090	0.175180	0.000060
C17	C	0.482060	0.057733	0.000065
C18	C	0.499110	0.407539	0.000044
C19	C	0.593163	0.410077	0.000040
C20	C	0.650183	0.295161	0.000048
C21	C	0.613147	0.177709	0.000054
C22	C	0.670164	0.062795	0.000055
C23	C	0.633130	-0.054658	0.000068
C24	C	0.539079	-0.057183	0.000073
C25	C	0.744234	0.297685	0.000043
C26	C	0.764221	0.065324	0.000049
C27	C	1.071186	-0.056742	0.000067
C28	C	1.068488	-0.198341	0.000065
C29	C	0.981228	-0.265502	0.000052
C30	C	1.022439	-0.358089	0.082319
C31	C	1.022479	-0.358060	-0.082179
C32	C	1.109735	-0.289063	0.082400
C33	C	1.109764	-0.289024	-0.082172
C34	C	1.151038	-0.381585	0.000115
C35	C	1.230886	0.167425	0.000070
C36	C	1.330985	0.170118	0.000070
C37	C	1.061051	0.409631	0.000053
C38	C	1.063748	0.551230	0.000049
N39	N	1.066096	0.176437	0.237501
N40	N	1.066147	0.176441	-0.237378
C41	C	1.005400	0.263017	0.710117
C42	C	1.126885	0.089867	0.710098
C43	C	1.126874	0.089863	0.605080
C44	C	1.066127	0.176439	0.552575
C45	C	1.005390	0.263019	0.605089
C46	C	1.187617	0.003293	0.552558
C47	C	1.187610	0.003287	0.447534
C48	C	1.126857	0.089858	0.395027
C49	C	1.066117	0.176440	0.447547
C50	C	1.005369	0.263016	0.395043
C51	C	0.944624	0.349594	0.447561
C52	C	0.944637	0.349590	0.552582
C53	C	1.126844	0.089861	0.290005
C54	C	1.005359	0.263017	0.290015
H55	H	0.623308	0.505714	0.000029
C56	C	1.248040	-0.449456	0.000182
H57	H	1.278879	-0.425850	0.058674
H58	H	1.279279	-0.424765	-0.057699
H59	H	1.245803	-0.539636	-0.000366
C60	C	0.347270	-0.073984	0.000081
H61	H	0.283091	-0.059040	0.000079
H62	H	0.366792	-0.121309	0.058262
H63	H	0.366790	-0.121298	-0.058111
C64	C	1.193700	-0.005365	0.767846
H65	H	1.229873	-0.056924	0.721527
H66	H	1.160928	-0.058539	0.808827
H67	H	1.231534	0.040621	0.808801
H68	H	1.146617	-0.258647	0.152028
C69	C	0.498344	-0.186369	0.000075
H70	H	0.545769	-0.254448	0.000083
H71	H	0.462073	-0.192177	-0.058108
H72	H	0.462066	-0.192187	0.058266
H73	H	0.321596	0.381119	0.000052
H74	H	0.955940	0.333504	0.752880
C75	C	1.159608	-0.247627	-0.176124
H76	H	1.128527	-0.270976	-0.234524
H77	H	1.219592	-0.288974	-0.176713
H78	H	1.161436	-0.157375	-0.175110
H79	H	1.237080	-0.067188	0.595311
H80	H	1.237070	-0.067210	0.404780
C81	C	0.877797	0.444778	0.610349
H82	H	0.841600	0.496319	0.564040
H83	H	0.910543	0.497975	0.651326
H84	H	0.839989	0.398741	0.651310
H85	H	0.985509	-0.388688	0.151865
C86	C	0.877808	0.444823	0.389799
H87	H	0.886505	0.432416	0.319731
H88	H	0.888144	0.529978	0.407003
H89	H	0.817549	0.430803	0.407014
H90	H	0.985555	-0.388607	-0.151736
C91	C	0.784969	0.426866	0.000025
H92	H	0.737541	0.494942	0.000026
H93	H	0.821248	0.432677	-0.058159
H94	H	0.821239	0.432687	0.058215
C95	C	1.193654	-0.005361	0.232240
H96	H	1.229832	-0.056924	0.278551
H97	H	1.231469	0.040622	0.191255
H98	H	1.160873	-0.058552	0.191286
H99	H	0.452680	0.501096	0.000033
H100	H	0.810640	-0.028255	0.000054
C101	C	0.884308	-0.197344	0.000141
H102	H	0.875317	-0.145840	-0.058341
H103	H	0.875737	-0.144688	0.058031
H104	H	0.842075	-0.259469	0.000770
C105	C	0.695855	-0.181056	0.000070
H106	H	0.757171	-0.162720	0.000067
H107	H	0.684549	-0.229213	-0.058107
H108	H	0.684553	-0.229204	0.058267
C109	C	0.938540	0.358255	0.232263
H110	H	0.947230	0.345857	0.162193
H111	H	0.948880	0.443407	0.249472
H112	H	0.878283	0.344236	0.249483
