data_functionalizedCrystal
_audit_creation_method	'MofGen! by Chris Wilmer'
_symmetry_space_group_name_H-M	'P1'
_symmetry_Int_Tables_number	1
_symmetry_cell_setting	triclinic
loop_
_symmetry_equiv_pos_as_xyz
  x,y,z
_cell_length_a	16.109301
_cell_length_b	14.472311
_cell_length_c	16.109301
_cell_angle_alpha	90.009670
_cell_angle_beta	83.461532
_cell_angle_gamma	90.001412
loop_
_atom_site_label
_atom_site_type_symbol
_atom_site_fract_x
_atom_site_fract_y
_atom_site_fract_z
O1	O	1.103131	0.076783	0.106873
O2	O	0.861069	0.076797	0.120172
O3	O	0.988749	0.076783	-0.007508
O4	O	0.975450	0.076796	0.234554
O5	O	0.988741	-0.076899	-0.007524
O6	O	0.861060	-0.076885	0.120156
O7	O	1.103122	-0.076899	0.106857
Cu8	Cu	0.982090	-0.090925	0.113505
Cu9	Cu	0.982101	0.090822	0.113524
O10	O	0.975442	-0.076886	0.234538
C11	C	0.830090	-0.000042	0.119626
C12	C	0.737794	-0.000036	0.118011
N13	N	0.982089	-0.218755	0.113491
C14	C	0.515522	-0.000043	0.190018
C15	C	0.428802	-0.000049	0.188494
C16	C	0.448676	-0.000054	0.037006
C17	C	0.535395	-0.000054	0.038530
C18	C	0.568815	-0.000044	0.115039
C19	C	0.395376	-0.000050	0.111990
C20	C	0.301350	-0.000056	0.110337
C21	C	0.662847	-0.000040	0.116693
C22	C	0.982101	-0.592847	0.113518
C23	C	1.050642	-0.553659	0.045427
C24	C	1.050464	-0.446571	0.045176
C25	C	0.982096	-0.407256	0.113505
C26	C	0.895359	-0.446142	0.094582
C27	C	0.895765	-0.553264	0.094100
C28	C	0.999516	-0.553348	0.200733
C29	C	1.001485	-0.446220	0.200149
C30	C	0.982087	-0.302367	0.113499
C31	C	0.982104	-0.697735	0.113522
C32	C	1.134101	-0.000058	0.107404
C33	C	1.226397	-0.000058	0.109019
C34	C	0.988206	-0.000057	-0.038491
C35	C	0.986591	-0.000056	-0.130786
N36	N	0.982108	0.218653	0.113532
C37	C	1.057074	-0.000044	-0.439785
C38	C	1.058600	-0.000050	-0.353064
C39	C	0.907111	-0.000053	-0.333191
C40	C	0.905586	-0.000054	-0.419910
C41	C	0.980571	-0.000045	-0.473205
C42	C	0.983620	-0.000049	-0.299766
C43	C	0.985274	-0.000055	-0.205740
C44	C	0.978917	-0.000041	-0.567237
C45	C	0.975985	-0.000043	0.265521
C46	C	0.977600	-0.000038	0.357816
H47	H	0.542730	-0.000042	0.252317
H48	H	1.120896	-0.000051	-0.325859
C49	C	0.411913	-0.000057	-0.047152
C50	C	0.432040	0.079743	-0.109420
C51	C	0.395280	0.079742	-0.193580
C52	C	0.338393	-0.000059	-0.215472
C53	C	0.318263	-0.079864	-0.153203
C54	C	0.355023	-0.079863	-0.069043
H55	H	0.474153	0.138822	-0.093215
H56	H	0.410181	0.138820	-0.239676
H57	H	0.311181	-0.000059	-0.277773
H58	H	0.276149	-0.138943	-0.169407
H59	H	0.340121	-0.138941	-0.022947
H60	H	0.843284	-0.000059	-0.447120
C61	C	0.594024	-0.000053	-0.043952
C62	C	0.557267	-0.000051	-0.128109
C63	C	0.615897	-0.000054	-0.210587
C64	C	0.711284	-0.000058	-0.208908
C65	C	0.748046	-0.000060	-0.124748
C66	C	0.689416	-0.000057	-0.042270
H67	H	0.486652	-0.000048	-0.129355
H68	H	0.588683	-0.000053	-0.272888
H69	H	0.754685	-0.000060	-0.269963
H70	H	0.818662	-0.000063	-0.123502
H71	H	0.716631	-0.000059	0.020031
H72	H	0.846062	-0.000058	-0.289788
H73	H	1.114940	-0.420279	0.056441
H74	H	1.039681	-0.580592	-0.018930
C75	C	0.370179	-0.000046	0.270973
C76	C	0.406944	-0.000038	0.355125
C77	C	0.348321	-0.000038	0.437608
C78	C	0.252933	-0.000045	0.435938
C79	C	0.216163	-0.000053	0.351782
C80	C	0.274786	-0.000054	0.269299
H81	H	0.477561	-0.000033	0.356365
H82	H	0.375542	-0.000032	0.499906
H83	H	0.209537	-0.000045	0.496996
H84	H	0.145547	-0.000059	0.350542
H85	H	0.247566	-0.000060	0.207002
H86	H	1.039340	-0.420957	-0.019548
H87	H	0.843231	-0.579187	0.141810
C88	C	1.138041	-0.588452	0.060397
C89	C	1.156653	-0.692838	0.059543
C90	C	1.244053	-0.727637	0.074517
C91	C	1.312841	-0.658051	0.090346
C92	C	1.294232	-0.553658	0.091201
C93	C	1.206831	-0.518859	0.076226
H94	H	1.105729	-0.744355	0.047825
H95	H	1.257829	-0.804916	0.073884
H96	H	1.377540	-0.683812	0.101431
H97	H	1.345155	-0.502141	0.102918
H98	H	1.193055	-0.441580	0.076859
C99	C	0.875035	-0.587039	0.008173
C100	C	0.931696	-0.559823	-0.071564
C101	C	0.910968	-0.593592	-0.157494
C102	C	0.833579	-0.654577	-0.163688
C103	C	0.776912	-0.681796	-0.083948
C104	C	0.797640	-0.648027	0.001983
H105	H	0.988988	-0.514676	-0.066981
H106	H	0.952916	-0.573442	-0.216523
H107	H	0.818234	-0.679574	-0.227298
H108	H	0.719620	-0.726944	-0.088530
H109	H	0.755692	-0.668177	0.061011
C110	C	0.824791	-0.411741	0.159792
C111	C	0.845153	-0.347786	0.231155
C112	C	0.774586	-0.313383	0.296366
C113	C	0.683658	-0.342936	0.290214
C114	C	0.663292	-0.406895	0.218848
C115	C	0.733858	-0.441297	0.153637
H116	H	0.912468	-0.325906	0.235711
H117	H	0.789663	-0.266037	0.349195
H118	H	0.631420	-0.317469	0.338487
H119	H	0.595977	-0.428775	0.214291
H120	H	0.718782	-0.488644	0.100807
C121	C	0.938407	-0.410072	0.271806
C122	C	0.969123	-0.353232	0.343145
C123	C	0.906035	-0.317084	0.414799
C124	C	0.812231	-0.337777	0.415115
C125	C	0.781511	-0.394620	0.343773
C126	C	0.844599	-0.430767	0.272119
H127	H	1.038566	-0.337911	0.342914
H128	H	0.928777	-0.275005	0.467611
H129	H	0.765530	-0.311018	0.468157
H130	H	0.712068	-0.409940	0.344004
H131	H	0.821857	-0.472846	0.219307
H132	H	0.879630	-0.419325	0.031702
C133	C	0.932000	-0.587590	0.269192
C134	C	0.935075	-0.558357	0.360710
C135	C	0.867558	-0.592606	0.429160
C136	C	0.796967	-0.656088	0.406093
C137	C	0.793889	-0.685324	0.314571
C138	C	0.861406	-0.651075	0.246120
H139	H	0.987333	-0.511360	0.377790
H140	H	0.869836	-0.570963	0.496911
H141	H	0.746987	-0.681441	0.456764
H142	H	0.741631	-0.732321	0.297491
H143	H	0.859128	-0.672718	0.178369
H144	H	1.061411	-0.580360	0.218926
H145	H	1.065292	-0.420804	0.214508
H146	H	1.118131	-0.000037	-0.483175
