data_functionalizedCrystal
_audit_creation_method	'MofGen! by Chris Wilmer'
_symmetry_space_group_name_H-M	'P1'
_symmetry_Int_Tables_number	1
_symmetry_cell_setting	triclinic
loop_
_symmetry_equiv_pos_as_xyz
  x,y,z
_cell_length_a	17.077404
_cell_length_b	12.594510
_cell_length_c	17.077402
_cell_angle_alpha	89.963297
_cell_angle_beta	90.023718
_cell_angle_gamma	89.979289
loop_
_atom_site_label
_atom_site_type_symbol
_atom_site_fract_x
_atom_site_fract_y
_atom_site_fract_z
Zn1	Zn	1.200061	-0.601831	-0.312432
Zn2	Zn	1.700061	-0.101831	0.187568
Zn3	Zn	1.199964	-0.423845	-0.443728
Zn4	Zn	1.699964	0.076155	0.056272
Zn5	Zn	1.068790	-0.423861	-0.312481
Zn6	Zn	1.568790	0.076139	0.187519
Zn7	Zn	1.068759	-0.601777	-0.443661
Zn8	Zn	1.568759	-0.101777	0.056339
O9	O	1.134393	-0.512828	-0.378076
O10	O	1.634393	-0.012828	0.121924
O11	O	1.309895	-0.578237	-0.329857
O12	O	1.809895	-0.078237	0.170143
O13	O	1.182535	-0.274901	-0.426367
O14	O	1.682535	0.225099	0.073633
O15	O	1.086257	-0.447499	-0.202628
O16	O	1.586257	0.052501	0.297372
O17	O	1.309823	-0.447472	-0.426319
O18	O	1.809823	0.052528	0.073681
O19	O	1.182701	-0.578253	-0.202592
O20	O	1.682701	-0.078253	0.297408
O21	O	1.086162	-0.274913	-0.329940
O22	O	1.586162	0.225087	0.170060
O23	O	0.958939	-0.447446	-0.329874
O24	O	1.458939	0.052554	0.170126
O25	O	1.086204	-0.750730	-0.426204
O26	O	1.586204	-0.250730	0.073796
O27	O	0.958916	-0.578160	-0.426251
O28	O	1.458916	-0.078160	0.073749
O29	O	1.182671	-0.750770	-0.329791
O30	O	1.682671	-0.250770	0.170209
O31	O	1.182506	-0.447419	-0.553566
O32	O	1.682506	0.052581	-0.053566
O33	O	1.086110	-0.578144	-0.553517
O34	O	1.586110	-0.078144	-0.053517
C35	C	0.930445	-0.512799	-0.378061
C36	C	1.430445	-0.012799	0.121939
C37	C	0.843196	-0.512812	-0.378074
C38	C	1.343196	-0.012812	0.121926
C39	C	0.802214	-0.580765	-0.428333
C40	C	1.302214	-0.080765	0.071667
C41	C	0.720234	-0.580782	-0.428335
C42	C	1.220234	-0.080782	0.071665
C43	C	0.679236	-0.512840	-0.378081
C44	C	1.179236	-0.012840	0.121919
C45	C	0.720223	-0.444883	-0.327816
C46	C	1.220223	0.055117	0.172184
C47	C	0.802202	-0.444872	-0.327811
C48	C	1.302202	0.055128	0.172189
C49	C	0.549353	-0.444909	-0.327831
C50	C	1.049353	0.055091	0.172169
C51	C	0.467369	-0.444918	-0.327837
C52	C	0.967369	0.055082	0.172163
C53	C	0.467385	-0.580819	-0.428356
C54	C	0.967385	-0.080819	0.071644
C55	C	0.549364	-0.580808	-0.428351
C56	C	1.049364	-0.080808	0.071649
C57	C	0.590345	-0.512850	-0.378087
C58	C	1.090345	-0.012850	0.121913
C59	C	1.134445	-0.790450	-0.377985
C60	C	1.634445	-0.290450	0.122015
C61	C	1.134467	-0.908755	-0.377946
C62	C	1.634467	-0.408755	0.122054
C63	C	1.186951	-0.978030	-0.325504
C64	C	1.686951	-0.478030	0.174496
C65	C	1.115360	-1.048823	-0.306290
C66	C	1.615360	-0.548823	0.193710
C67	C	1.206100	-1.048762	-0.397105
C68	C	1.706100	-0.548762	0.102895
C69	C	1.062838	-0.977990	-0.358696
C70	C	1.562838	-0.477990	0.141304
C71	C	1.153626	-0.977922	-0.449544
C72	C	1.653626	-0.477922	0.050456
C73	C	1.081986	-1.048683	-0.430358
C74	C	1.581986	-0.548683	0.069642
C75	C	1.339138	-0.512859	-0.378090
C76	C	1.839138	-0.012859	0.121910
C77	C	1.426387	-0.512871	-0.378097
C78	C	1.926387	-0.012871	0.121903
C79	C	1.134315	-0.512797	-0.582023
C80	C	1.634315	-0.012797	-0.082023
C81	C	1.134354	-0.512819	-0.669273
C82	C	1.634354	-0.012819	-0.169273
C83	C	1.134387	-0.236288	-0.378109
C84	C	1.634387	0.263712	0.121891
C85	C	1.134517	-0.117983	-0.377927
C86	C	1.634517	0.382017	0.122073
C87	C	1.184545	-0.580957	-0.710177
C88	C	1.684545	-0.080957	-0.210177
C89	C	1.184578	-0.580980	-0.792158
C90	C	1.684578	-0.080980	-0.292158
C91	C	1.134423	-0.512858	-0.833233
C92	C	1.634423	-0.012858	-0.333233
C93	C	1.084226	-0.444717	-0.792323
C94	C	1.584226	0.055283	-0.292323
C95	C	1.084190	-0.444700	-0.710344
C96	C	1.584190	0.055300	-0.210344
C97	C	1.084307	-0.444754	-0.963193
C98	C	1.584307	0.055246	-0.463193
C99	C	1.084344	-0.444769	-1.045177
C100	C	1.584344	0.055231	-0.545177
C101	C	1.184695	-0.581033	-1.045007
C102	C	1.684695	-0.081033	-0.545007
C103	C	1.184659	-0.581017	-0.963028
C104	C	1.684659	-0.081017	-0.463028
C105	C	1.134463	-0.512874	-0.922124
C106	C	1.634463	-0.012874	-0.422124
C107	C	1.134493	-0.512884	-0.173331
C108	C	1.634493	-0.012884	0.326669
C109	C	1.134535	-0.512907	-0.086081
C110	C	1.634535	-0.012907	0.413919
H111	H	0.835568	-0.389543	-0.286880
H112	H	1.335568	0.110457	0.213120
H113	H	1.225390	-0.636425	-0.676739
H114	H	1.725390	-0.136425	-0.176739
H115	H	1.225455	-0.636457	-0.825458
H116	H	1.725455	-0.136457	-0.325458
H117	H	1.002263	-0.947032	-0.342413
H118	H	1.502263	-0.447032	0.157587
H119	H	1.225502	-0.636481	-0.929585
H120	H	1.725502	-0.136481	-0.429585
Br121	Br	1.007962	-1.100089	-0.504254
Br122	Br	1.507962	-0.600089	-0.004254
Br123	Br	1.252823	-0.673507	-1.100518
Br124	Br	1.752823	-0.173507	-0.600518
H125	H	1.266658	-1.079853	-0.413316
H126	H	1.766658	-0.579853	0.086684
Br127	Br	1.180643	-0.925973	-0.550449
Br128	Br	1.680643	-0.425973	-0.050449
Br129	Br	1.016278	-0.352314	-1.100922
Br130	Br	1.516278	0.147686	-0.600922
Br131	Br	1.016184	-0.352273	-0.907680
Br132	Br	1.516184	0.147727	-0.407680
Br133	Br	1.016148	-0.352278	-0.848066
Br134	Br	1.516148	0.147722	-0.348066
Br135	Br	1.088377	-1.100734	-0.205360
Br136	Br	1.588377	-0.600734	0.294640
H137	H	1.043318	-0.389217	-0.677041
H138	H	1.543318	0.110783	-0.177041
Br139	Br	0.605004	-0.673006	-0.496561
Br140	Br	1.105004	-0.173006	0.003439
Br141	Br	0.857846	-0.672970	-0.496545
Br142	Br	1.357846	-0.172970	0.003455
H143	H	0.686870	-0.636116	-0.469262
H144	H	1.186870	-0.136116	0.030738
H145	H	0.434014	-0.636156	-0.469280
H146	H	0.934014	-0.136156	0.030720
H147	H	0.582718	-0.389580	-0.286894
H148	H	1.082718	0.110420	0.213106
Br149	Br	0.664585	-0.352684	-0.259605
Br150	Br	1.164585	0.147316	0.240395
Br151	Br	0.411729	-0.352701	-0.259640
Br152	Br	0.911729	0.147299	0.240360
Br153	Br	1.260802	-0.926318	-0.251548
Br154	Br	1.760802	-0.426318	0.248452
