data_functionalizedCrystal
_audit_creation_method	'MofGen! by Chris Wilmer'
_symmetry_space_group_name_H-M	'P1'
_symmetry_Int_Tables_number	1
_symmetry_cell_setting	triclinic
loop_
_symmetry_equiv_pos_as_xyz
  x,y,z
_cell_length_a	14.519709
_cell_length_b	9.198806
_cell_length_c	10.723024
_cell_angle_alpha	89.997988
_cell_angle_beta	84.074007
_cell_angle_gamma	90.001670
loop_
_atom_site_label
_atom_site_type_symbol
_atom_site_fract_x
_atom_site_fract_y
_atom_site_fract_z
O1	O	1.224702	-0.120699	0.163572
O2	O	0.956324	-0.120743	0.182835
O3	O	1.096704	-0.120715	-0.008431
O4	O	1.084323	-0.120728	0.354837
O5	O	1.096693	0.121070	-0.008431
O6	O	0.956313	0.121042	0.182834
O7	O	1.224691	0.121086	0.163571
Cu8	Cu	1.090501	0.143141	0.173203
Cu9	Cu	1.090514	-0.142798	0.173203
O10	O	1.084311	0.121057	0.354837
C11	C	0.921954	0.000144	0.181937
C12	C	0.819559	0.000127	0.179246
N13	N	1.090498	0.344255	0.173201
N14	N	1.090524	-0.343912	0.173194
C15	C	0.444613	0.000193	0.169343
C16	C	0.548935	0.000174	0.172093
C17	C	0.632082	0.000159	0.174294
C18	C	0.736411	0.000143	0.177045
C19	C	1.259061	0.000196	0.164469
C20	C	1.361456	0.000203	0.167159
C21	C	1.095797	0.000176	-0.054922
C22	C	1.093101	0.000170	-0.193451
C23	C	1.149440	0.416464	0.092543
C24	C	1.149454	0.583876	0.092538
C25	C	1.171651	0.000181	-0.269169
C26	C	1.168866	0.000175	-0.412346
C27	C	1.085218	0.000164	0.401328
C28	C	1.087914	0.000160	0.539857
H29	H	1.199889	0.354348	0.023486
H30	H	1.040043	0.406373	0.242249
H31	H	1.199920	0.645972	0.023488
H32	H	1.240961	0.000201	-0.227995
H33	H	1.040063	0.594001	0.242258
H34	H	1.236110	0.000191	-0.477407
H35	H	1.020666	0.000160	-0.395089
H36	H	1.023791	0.000149	-0.234625
