data_functionalizedCrystal
_audit_creation_method	'MofGen! by Chris Wilmer'
_symmetry_space_group_name_H-M	'P1'
_symmetry_Int_Tables_number	1
_symmetry_cell_setting	triclinic
loop_
_symmetry_equiv_pos_as_xyz
  x,y,z
_cell_length_a	17.077404
_cell_length_b	12.645330
_cell_length_c	17.077396
_cell_angle_alpha	89.975931
_cell_angle_beta	89.980499
_cell_angle_gamma	90.017917
loop_
_atom_site_label
_atom_site_type_symbol
_atom_site_fract_x
_atom_site_fract_y
_atom_site_fract_z
Zn1	Zn	1.200083	-0.422033	-0.443867
Zn2	Zn	1.700083	0.077967	0.056133
Zn3	Zn	1.200002	-0.599318	-0.312611
Zn4	Zn	1.700002	-0.099318	0.187389
Zn5	Zn	1.068815	-0.422070	-0.312615
Zn6	Zn	1.568815	0.077930	0.187385
Zn7	Zn	1.068795	-0.599256	-0.443834
Zn8	Zn	1.568795	-0.099256	0.056166
O9	O	1.134424	-0.510669	-0.378232
O10	O	1.634424	-0.010669	0.121768
O11	O	1.309919	-0.445561	-0.426467
O12	O	1.809919	0.054439	0.073533
O13	O	1.182574	-0.575848	-0.202764
O14	O	1.682574	-0.075848	0.297236
O15	O	1.086270	-0.273718	-0.330041
O16	O	1.586270	0.226282	0.169959
O17	O	1.309860	-0.575812	-0.330034
O18	O	1.809860	-0.075812	0.169966
O19	O	1.182712	-0.273691	-0.426471
O20	O	1.682712	0.226309	0.073529
O21	O	1.086192	-0.445624	-0.202767
O22	O	1.586192	0.054376	0.297233
O23	O	0.958965	-0.445563	-0.330009
O24	O	1.458965	0.054437	0.169991
O25	O	1.086236	-0.575705	-0.553686
O26	O	1.586236	-0.075705	-0.053686
O27	O	0.958950	-0.575741	-0.426416
O28	O	1.458950	-0.075741	0.073584
O29	O	1.182693	-0.445500	-0.553709
O30	O	1.682693	0.054500	-0.053709
O31	O	1.182555	-0.747657	-0.330003
O32	O	1.682555	-0.247657	0.169997
O33	O	1.086157	-0.747611	-0.426412
O34	O	1.586157	-0.247611	0.073588
C35	C	0.930476	-0.510650	-0.378210
C36	C	1.430476	-0.010650	0.121790
C37	C	0.843226	-0.510667	-0.378219
C38	C	1.343226	-0.010667	0.121781
C39	C	1.134366	-0.786099	-0.378221
C40	C	1.634366	-0.286099	0.121779
C41	C	1.134414	-0.903929	-0.378242
C42	C	1.634414	-0.403929	0.121758
C43	C	0.802249	-0.578553	-0.428338
C44	C	1.302249	-0.078553	0.071662
C45	C	0.720268	-0.578555	-0.428350
C46	C	1.220268	-0.078555	0.071650
C47	C	0.679267	-0.510677	-0.378240
C48	C	1.179267	-0.010677	0.121760
C49	C	0.720250	-0.442783	-0.328119
C50	C	1.220250	0.057217	0.171881
C51	C	0.802229	-0.442777	-0.328111
C52	C	1.302229	0.057223	0.171889
C53	C	0.549380	-0.442804	-0.328138
C54	C	1.049380	0.057196	0.171862
C55	C	0.467395	-0.442812	-0.328145
C56	C	0.967395	0.057188	0.171855
C57	C	0.467419	-0.578583	-0.428377
C58	C	0.967419	-0.078583	0.071623
C59	C	0.549398	-0.578576	-0.428369
C60	C	1.049398	-0.078576	0.071631
C61	C	0.590376	-0.510684	-0.378247
C62	C	1.090376	-0.010684	0.121753
C63	C	1.074020	-1.071508	-0.439080
C64	C	1.574020	-0.571508	0.060920
C65	C	1.073711	-0.948949	-0.438885
C66	C	1.573711	-0.448949	0.061115
C67	C	1.112022	-0.948522	-0.295515
C68	C	1.612022	-0.448522	0.204485
C69	C	1.111653	-1.071120	-0.295885
C70	C	1.611653	-0.571120	0.204115
C71	C	1.217568	-1.071018	-0.399460
C72	C	1.717568	-0.571018	0.100540
C73	C	1.217059	-0.948411	-0.401269
C74	C	1.717059	-0.448411	0.098731
C75	C	1.339168	-0.510689	-0.378254
C76	C	1.839168	-0.010689	0.121746
C77	C	1.426418	-0.510698	-0.378263
C78	C	1.926418	-0.010698	0.121737
C79	C	1.134471	-0.510591	-0.582976
C80	C	1.634471	-0.010591	-0.082976
C81	C	1.134491	-0.510558	-0.670226
C82	C	1.634491	-0.010558	-0.170226
C83	C	1.134502	-0.234164	-0.378260
C84	C	1.634502	0.265836	0.121740
C85	C	1.134536	-0.116334	-0.378272
C86	C	1.634536	0.383666	0.121728
C87	C	1.184718	-0.442755	-0.711230
C88	C	1.684718	0.057245	-0.211230
C89	C	1.184728	-0.442719	-0.793210
C90	C	1.684728	0.057281	-0.293210
C91	C	1.134514	-0.510493	-0.834185
C92	C	1.634514	-0.010493	-0.334185
C93	C	1.084281	-0.578300	-0.793176
C94	C	1.584281	-0.078300	-0.293176
C95	C	1.084268	-0.578329	-0.711197
C96	C	1.584268	-0.078329	-0.211197
C97	C	1.084313	-0.578236	-0.964046
C98	C	1.584313	-0.078236	-0.464046
C99	C	1.084326	-0.578208	-1.046031
C100	C	1.584326	-0.078208	-0.546031
C101	C	1.184772	-0.442627	-1.046059
C102	C	1.684772	0.057373	-0.546059
C103	C	1.184759	-0.442656	-0.964080
C104	C	1.684759	0.057344	-0.464080
C105	C	1.134528	-0.510464	-0.923076
C106	C	1.634528	-0.010464	-0.423076
C107	C	1.134421	-0.510671	-0.174284
C108	C	1.634421	-0.010671	0.325716
C109	C	1.134553	-0.510405	-0.087034
C110	C	1.634553	-0.010405	0.412966
H111	H	0.835626	-0.633831	-0.469141
H112	H	1.335626	-0.133831	0.030859
H113	H	0.434014	-0.387527	-0.287350
H114	H	0.934014	0.112473	0.212650
H115	H	1.043360	-0.633530	-0.677813
H116	H	1.543360	-0.133530	-0.177813
H117	H	1.225629	-0.387510	-0.826592
H118	H	1.725629	0.112490	-0.326592
H119	H	1.051958	-0.917910	-0.277242
H120	H	1.551958	-0.417910	0.222758
H121	H	1.233945	-0.919262	-0.462152
H122	H	1.733945	-0.419262	0.037848
H123	H	1.264520	-0.917760	-0.360204
H124	H	1.764520	-0.417760	0.139796
C125	C	1.029037	-0.652842	-0.838252
C126	C	1.529037	-0.152842	-0.338252
N127	N	0.987426	-0.708988	-0.872202
N128	N	1.487426	-0.208988	-0.372202
C129	C	0.422343	-0.653260	-0.483516
C130	C	0.922343	-0.153260	0.016484
N131	N	0.388387	-0.709506	-0.525043
N132	N	0.888387	-0.209506	-0.025043
H133	H	1.043396	-0.633436	-0.930663
H134	H	1.543396	-0.133436	-0.430663
H135	H	1.225611	-0.387568	-0.677874
H136	H	1.725611	0.112432	-0.177874
H137	H	1.225653	-0.387474	-0.930721
H138	H	1.725653	0.112526	-0.430721
H139	H	0.686908	-0.633836	-0.469161
H140	H	1.186908	-0.133836	0.030839
C141	C	0.594453	-0.368122	-0.272999
C142	C	1.094453	0.131878	0.227001
N143	N	0.628402	-0.311877	-0.231466
N144	N	1.128402	0.188123	0.268534
C145	C	0.594498	-0.653252	-0.483489
C146	C	1.094498	-0.153252	0.016511
N147	N	0.628468	-0.709498	-0.525007
N148	N	1.128468	-0.209498	-0.025007
H149	H	1.050956	-1.099811	-0.277936
H150	H	1.550956	-0.599811	0.222064
C151	C	0.847303	-0.368099	-0.272975
C152	C	1.347303	0.131901	0.227025
N153	N	0.881252	-0.311848	-0.231447
N154	N	1.381252	0.188152	0.268553
H155	H	0.686860	-0.387511	-0.287322
H156	H	1.186860	0.112489	0.212678
C157	C	0.990538	-0.909449	-0.419979
C158	C	1.490538	-0.409449	0.080021
N159	N	0.927883	-0.879699	-0.405757
N160	N	1.427883	-0.379699	0.094243
C161	C	1.092634	-0.908211	-0.521755
C162	C	1.592634	-0.408211	-0.021755
N163	N	1.106884	-0.877532	-0.584178
N164	N	1.606884	-0.377532	-0.084178
H165	H	1.087901	-1.100921	-0.500623
H166	H	1.587901	-0.600921	-0.000623
C167	C	0.991377	-1.113239	-0.420354
C168	C	1.491377	-0.613239	0.079646
N169	N	0.929129	-1.144668	-0.406244
N170	N	1.429129	-0.644668	0.093756
H171	H	1.153818	-1.100776	-0.249033
H172	H	1.653818	-0.600776	0.250967
H173	H	1.154702	-0.919362	-0.248970
H174	H	1.654702	-0.419362	0.251030
H175	H	1.237995	-1.101863	-0.458759
H176	H	1.737995	-0.601863	0.041241
C177	C	1.278478	-1.110185	-0.339631
C178	C	1.778478	-0.610185	0.160369
N179	N	1.324350	-1.139692	-0.294567
N180	N	1.824350	-0.639692	0.205433
H181	H	1.225671	-0.387413	-1.079449
H182	H	1.725671	0.112587	-0.579449
H183	H	1.043436	-0.633394	-1.079391
H184	H	1.543436	-0.133394	-0.579391
