data_functionalizedCrystal
_audit_creation_method	'MofGen! by Chris Wilmer'
_symmetry_space_group_name_H-M	'P1'
_symmetry_Int_Tables_number	1
_symmetry_cell_setting	triclinic
loop_
_symmetry_equiv_pos_as_xyz
  x,y,z
_cell_length_a	12.759401
_cell_length_b	29.839131
_cell_length_c	12.759393
_cell_angle_alpha	89.962059
_cell_angle_beta	89.980163
_cell_angle_gamma	90.042945
loop_
_atom_site_label
_atom_site_type_symbol
_atom_site_fract_x
_atom_site_fract_y
_atom_site_fract_z
Zn1	Zn	1.606060	-0.178808	-0.593974
Zn2	Zn	2.106060	0.321192	-0.093974
Zn3	Zn	1.605872	-0.253947	-0.418275
Zn4	Zn	2.105872	0.246053	0.081725
Zn5	Zn	1.430362	-0.178834	-0.418309
Zn6	Zn	1.930362	0.321166	0.081691
Zn7	Zn	1.430269	-0.253914	-0.593912
Zn8	Zn	1.930269	0.246086	-0.093912
O9	O	1.518141	-0.216376	-0.506117
O10	O	2.018141	0.283624	-0.006117
O11	O	1.753056	-0.188779	-0.570679
O12	O	2.253056	0.311221	-0.070679
O13	O	1.582551	-0.244007	-0.271258
O14	O	2.082551	0.255993	0.228742
O15	O	1.453786	-0.115963	-0.441652
O16	O	1.953786	0.384037	0.058348
O17	O	1.752918	-0.243983	-0.441593
O18	O	2.252918	0.256017	0.058407
O19	O	1.582871	-0.115945	-0.570712
O20	O	2.082871	0.384055	-0.070712
O21	O	1.453604	-0.188822	-0.271283
O22	O	1.953604	0.311178	0.228717
O23	O	1.283329	-0.188790	-0.441592
O24	O	1.783329	0.311210	0.058408
O25	O	1.453627	-0.243927	-0.740941
O26	O	1.953627	0.256073	-0.240941
O27	O	1.283260	-0.243951	-0.570606
O28	O	1.783260	0.256049	-0.070606
O29	O	1.582780	-0.188747	-0.740987
O30	O	2.082780	0.311253	-0.240987
O31	O	1.582461	-0.316810	-0.441533
O32	O	2.082461	0.183190	0.058467
O33	O	1.453445	-0.316786	-0.570573
O34	O	1.953445	0.183214	-0.070573
C35	C	1.245173	-0.216370	-0.506097
C36	C	1.745173	0.283630	-0.006097
C37	C	1.128397	-0.216379	-0.506113
C38	C	1.628397	0.283621	-0.006113
C39	C	1.517951	-0.333098	-0.506065
C40	C	2.017951	0.166902	-0.006065
C41	C	1.517966	-0.383033	-0.506078
C42	C	2.017966	0.116967	-0.006078
C43	C	1.073527	-0.245145	-0.573185
C44	C	1.573527	0.254855	-0.073185
C45	C	0.963802	-0.245147	-0.573206
C46	C	1.463802	0.254853	-0.073206
C47	C	0.963829	-0.187615	-0.439073
C48	C	1.463829	0.312385	0.060927
C49	C	1.073551	-0.187611	-0.439058
C50	C	1.573551	0.312389	0.060942
C51	C	1.585441	-0.692676	-0.439024
C52	C	2.085441	-0.192676	0.060976
C53	C	1.585571	-0.880349	-0.439065
C54	C	2.085571	-0.380349	0.060935
O55	O	1.642790	-0.904614	-0.382014
O56	O	2.142790	-0.404614	0.117986
N57	N	1.518359	-0.903818	-0.506197
N58	N	2.018359	-0.403818	-0.006197
C59	C	1.451114	-0.880365	-0.573327
C60	C	1.951114	-0.380365	-0.073327
O61	O	1.393956	-0.904633	-0.630435
O62	O	1.893956	-0.404633	-0.130435
C63	C	1.450990	-0.692693	-0.573291
C64	C	1.950990	-0.192693	-0.073291
C65	C	1.518200	-0.669227	-0.506148
C66	C	2.018200	-0.169227	-0.006148
C67	C	1.652646	-0.669210	-0.371888
C68	C	2.152646	-0.169210	0.128112
C69	C	1.652609	-0.622294	-0.371874
C70	C	2.152609	-0.122294	0.128126
C71	C	1.585367	-0.598845	-0.438997
C72	C	2.085367	-0.098845	0.061003
C73	C	1.518162	-0.622311	-0.506134
C74	C	2.018162	-0.122311	-0.006134
C75	C	1.383752	-0.669242	-0.640427
C76	C	1.883752	-0.169242	-0.140427
C77	C	1.383729	-0.622321	-0.640413
C78	C	1.883729	-0.122321	-0.140413
C79	C	1.450938	-0.598854	-0.573270
C80	C	1.950938	-0.098854	-0.073270
C81	C	1.450884	-0.551947	-0.573244
C82	C	1.950884	-0.051947	-0.073244
N83	N	1.518096	-0.528478	-0.506113
N84	N	2.018096	-0.028478	-0.006113
C85	C	1.585338	-0.551927	-0.438989
C86	C	2.085338	-0.051927	0.061011
C87	C	1.451182	-0.978896	-0.573340
C88	C	1.951182	-0.478896	-0.073340
C89	C	1.451212	-1.025814	-0.573348
C90	C	1.951212	-0.525814	-0.073348
C91	C	1.585670	-1.025794	-0.439087
C92	C	2.085670	-0.525794	0.060913
C93	C	1.585635	-0.978876	-0.439075
C94	C	2.085635	-0.478876	0.060925
C95	C	1.518394	-0.955427	-0.506209
C96	C	2.018394	-0.455427	-0.006209
C97	C	1.585254	-0.453402	-0.438965
C98	C	2.085254	0.046598	0.061035
C99	C	1.585208	-0.406482	-0.438955
C100	C	2.085208	0.093518	0.061045
C101	C	1.450753	-0.406506	-0.573219
C102	C	1.950753	0.093494	-0.073219
C103	C	1.450795	-0.453421	-0.573226
C104	C	1.950795	0.046579	-0.073226
C105	C	1.518054	-0.476868	-0.506096
C106	C	2.018054	0.023132	-0.006096
O107	O	1.393703	-0.527653	-0.630274
O108	O	1.893703	-0.027653	-0.130274
O109	O	1.642503	-0.527651	-0.381907
O110	O	2.142503	-0.027651	0.118093
C111	C	1.585478	-0.739591	-0.439038
C112	C	2.085478	-0.239591	0.060962
C113	C	1.518274	-0.763058	-0.506175
C114	C	2.018274	-0.263058	-0.006175
C115	C	1.451032	-0.739609	-0.573298
C116	C	1.951032	-0.239609	-0.073298
C117	C	1.518303	-0.809976	-0.506183
C118	C	2.018303	-0.309976	-0.006183
C119	C	1.585545	-0.833425	-0.439060
C120	C	2.085545	-0.333425	0.060940
C121	C	1.652757	-0.809956	-0.371928
C122	C	2.152757	-0.309956	0.128072
C123	C	1.652720	-0.763041	-0.371915
C124	C	2.152720	-0.263041	0.128085
C125	C	1.383820	-0.763077	-0.640430
C126	C	1.883820	-0.263077	-0.140430
C127	C	1.383862	-0.809993	-0.640437
C128	C	1.883862	-0.309993	-0.140437
C129	C	1.451103	-0.833442	-0.573314
C130	C	1.951103	-0.333442	-0.073314
C131	C	1.792174	-0.216382	-0.506139
C132	C	2.292174	0.283618	-0.006139
C133	C	1.908951	-0.216384	-0.506148
C134	C	2.408951	0.283616	-0.006148
C135	C	1.518214	-0.216330	-0.780151
C136	C	2.018214	0.283670	-0.280151
C137	C	1.518245	-0.216311	-0.896928
C138	C	2.018245	0.283689	-0.396928
C139	C	1.518360	-0.099197	-0.506193
C140	C	2.018360	0.400803	-0.006193
C141	C	1.518453	-0.049263	-0.506225
C142	C	2.018453	0.450737	-0.006225
C143	C	1.451127	-0.187571	-0.951802
C144	C	1.951127	0.312429	-0.451802
C145	C	1.451151	-0.187557	-1.061526
C146	C	1.951151	0.312443	-0.561526
C147	C	1.585422	-0.245025	-1.061492
C148	C	2.085422	0.254975	-0.561492
C149	C	1.585391	-0.245041	-0.951769
C150	C	2.085391	0.254959	-0.451769
C151	C	1.518128	-0.216389	-0.233150
C152	C	2.018128	0.283611	0.266850
C153	C	1.518301	-0.216281	-0.116374
C154	C	2.018301	0.283719	0.383626
H155	H	1.118179	-0.268568	-0.627787
H156	H	1.618179	0.231432	-0.127787
Br157	Br	1.360040	-0.148558	-1.135996
Br158	Br	1.860040	0.351442	-0.635996
Br159	Br	1.676480	-0.284051	-0.877289
Br160	Br	2.176480	0.215949	-0.377289
H161	H	1.396003	-0.387406	-0.627867
H162	H	1.896003	0.112594	-0.127867
H163	H	1.329065	-0.743989	-0.695091
H164	H	1.829065	-0.243989	-0.195091
Br165	Br	1.676545	-0.284013	-1.135926
Br166	Br	2.176545	0.215987	-0.635926
H167	H	0.919132	-0.268570	-0.627824
H168	H	1.419132	0.231430	-0.127824
Br169	Br	1.359999	-0.148582	-0.877377
Br170	Br	1.859999	0.351418	-0.377377
H171	H	0.919159	-0.164194	-0.384478
H172	H	1.419159	0.335806	0.115522
Br173	Br	1.743841	-0.590454	-0.280761
Br174	Br	2.243841	-0.090454	0.219239
H175	H	1.118227	-0.164183	-0.384440
H176	H	1.618227	0.335817	0.115560
H177	H	1.329123	-0.829095	-0.695112
H178	H	1.829123	-0.329095	-0.195112
H179	H	1.640025	-0.472486	-0.384304
H180	H	2.140025	0.027514	0.115696
Br181	Br	1.676424	-0.374638	-0.347823
Br182	Br	2.176424	0.125362	0.152177
H183	H	1.707408	-0.688297	-0.317227
H184	H	2.207408	-0.188297	0.182773
Br185	Br	1.743940	-0.731201	-0.280789
Br186	Br	2.243940	-0.231201	0.219211
Br187	Br	1.676849	-0.947033	-0.347948
Br188	Br	2.176849	-0.447033	0.152052
H189	H	1.640421	-1.044895	-0.384433
H190	H	2.140421	-0.544895	0.115567
Br191	Br	1.359980	-1.057655	-0.664459
Br192	Br	1.859980	-0.557655	-0.164459
Br193	Br	1.744009	-0.841789	-0.280828
Br194	Br	2.244009	-0.341789	0.219172
Br195	Br	1.359918	-0.947080	-0.664460
Br196	Br	1.859918	-0.447080	-0.164460
H197	H	1.328975	-0.603231	-0.695086
H198	H	1.828975	-0.103231	-0.195086
Br199	Br	1.359557	-0.485269	-0.664324
Br200	Br	1.859557	0.014731	-0.164324
Br201	Br	1.292544	-0.701077	-0.731567
Br202	Br	1.792544	-0.201077	-0.231567
