data_functionalizedCrystal
_audit_creation_method	'MofGen! by Chris Wilmer'
_symmetry_space_group_name_H-M	'P1'
_symmetry_Int_Tables_number	1
_symmetry_cell_setting	triclinic
loop_
_symmetry_equiv_pos_as_xyz
  x,y,z
_cell_length_a	12.837942
_cell_length_b	8.559649
_cell_length_c	7.088929
_cell_angle_alpha	95.324765
_cell_angle_beta	83.116986
_cell_angle_gamma	82.303802
loop_
_atom_site_label
_atom_site_type_symbol
_atom_site_fract_x
_atom_site_fract_y
_atom_site_fract_z
O1	O	-0.022928	2.100236	-0.158968
O2	O	0.029966	1.643085	-0.158976
O3	O	-0.146578	1.861525	-0.158960
O4	O	0.153616	1.881796	-0.158983
O5	O	-0.170219	1.890710	0.159017
O6	O	0.006326	1.672270	0.159001
O7	O	-0.046569	2.129421	0.159009
Cu8	Cu	-0.022280	1.903511	0.188039
Cu9	Cu	0.005678	1.868996	-0.188006
O10	O	0.129975	1.910981	0.158994
C11	C	-0.196473	1.869269	0.000027
C12	C	-0.309924	1.848842	0.000024
C13	C	0.022155	1.598758	0.000012
C14	C	0.034086	1.423194	0.000009
C15	C	-0.038757	2.173748	0.000017
C16	C	-0.050688	2.349310	0.000008
C17	C	-0.570429	2.094399	-0.000012
C18	C	-0.677027	2.075214	-0.000016
C19	C	-0.629720	1.791287	-0.000001
C20	C	-0.523122	1.810472	0.000003
C21	C	-0.493481	1.962033	0.000000
C22	C	-0.386882	1.981218	0.000017
C23	C	-0.339576	1.697291	0.000019
C24	C	-0.446174	1.678106	0.000015
C25	C	0.179871	1.903237	0.000002
C26	C	0.293322	1.923663	-0.000007
N27	N	-0.041946	1.927798	0.452529
N28	N	0.025334	1.844720	-0.452495
H29	H	-0.362752	2.104627	0.000022
H30	H	-0.111667	2.013917	0.534191
H31	H	-0.276913	1.589511	0.000044
O32	O	-0.541653	2.241616	-0.000350
C33	C	-0.537267	2.475072	-0.165026
C34	C	-0.569887	2.308358	-0.164902
H35	H	-0.560101	2.529096	-0.298032
H36	H	-0.447854	2.466124	-0.165149
H37	H	-0.579766	2.553466	-0.031893
H38	H	-0.527462	2.229873	-0.298013
H39	H	-0.659312	2.317428	-0.164680
O40	O	-0.658711	1.644191	0.000082
C41	C	-0.801966	1.488809	-0.000053
C42	C	-0.769282	1.655488	-0.000103
H43	H	-0.891361	1.497883	-0.000243
H44	H	-0.779325	1.434759	0.133058
H45	H	-0.759384	1.410368	-0.133088
H46	H	-0.811847	1.734052	0.132842
H47	H	-0.791902	1.709411	-0.133302
O48	O	-0.474860	1.530831	0.000272
C49	C	-0.479355	1.297459	0.165082
C50	C	-0.446795	1.464212	0.165002
H51	H	-0.456698	1.243561	0.298272
H52	H	-0.436797	1.218908	0.032108
H53	H	-0.568755	1.306507	0.164979
H54	H	-0.357411	1.455315	0.165173
H55	H	-0.489429	1.542698	0.297965
O56	O	-0.148172	2.433977	-0.000318
C57	C	-0.301419	2.477454	-0.164979
C58	C	-0.191026	2.381479	-0.164869
H59	H	-0.336109	2.435023	-0.297984
H60	H	-0.294056	2.608705	-0.165092
H61	H	-0.355853	2.459614	-0.031844
H62	H	-0.136532	2.399186	-0.297981
H63	H	-0.198471	2.250263	-0.164656
O64	O	0.108635	1.742178	0.450193
C65	C	0.298629	1.671473	0.388668
C66	C	0.204388	1.787741	0.498971
H67	H	0.376068	1.708249	0.428095
H68	H	0.297107	1.673461	0.228437
H69	H	0.292470	1.546550	0.427915
H70	H	0.210485	1.912718	0.459885
H71	H	0.205942	1.785614	0.659176
H72	H	-0.739676	2.183000	-0.000031
H73	H	0.115795	2.352136	-0.000012
