data_functionalizedCrystal
_audit_creation_method	'MofGen! by Chris Wilmer'
_symmetry_space_group_name_H-M	'P1'
_symmetry_Int_Tables_number	1
_symmetry_cell_setting	triclinic
loop_
_symmetry_equiv_pos_as_xyz
  x,y,z
_cell_length_a	10.968094
_cell_length_b	14.519731
_cell_length_c	10.065875
_cell_angle_alpha	98.805316
_cell_angle_beta	93.118877
_cell_angle_gamma	84.210617
loop_
_atom_site_label
_atom_site_type_symbol
_atom_site_fract_x
_atom_site_fract_y
_atom_site_fract_z
O1	O	1.613229	0.160803	0.265874
O2	O	1.263196	0.163442	0.183557
O3	O	1.447478	0.028194	0.226907
O4	O	1.428947	0.296051	0.222524
O5	O	1.412338	0.054092	0.445629
O6	O	1.228056	0.189341	0.402279
O7	O	1.578089	0.186701	0.484597
Zn8	Zn	1.397493	0.192133	0.478165
Zn9	Zn	1.443791	0.158011	0.189989
O10	O	1.393807	0.321950	0.441247
C11	C	1.200828	0.174244	0.282383
C12	C	1.067345	0.167833	0.250992
C13	C	1.429039	0.006755	0.336064
C14	C	1.426437	-0.095711	0.335453
C15	C	0.851665	0.171755	0.317850
C16	C	0.989623	0.178389	0.350307
C17	C	1.424322	-0.178926	0.334953
C18	C	1.421682	-0.283323	0.334321
C19	C	1.419586	-0.366533	0.333820
C20	C	1.416945	-0.470937	0.333191
C21	C	1.640457	0.175900	0.385768
C22	C	1.773941	0.182309	0.417150
C23	C	1.412246	0.343388	0.332087
C24	C	1.414850	0.445854	0.332689
N25	N	1.365905	0.215420	0.674840
N26	N	1.475389	0.134716	-0.006684
C27	C	1.432793	0.166107	0.758353
C28	C	1.408491	0.184037	0.909804
H29	H	0.816073	0.157803	0.208806
N30	N	1.034228	0.195883	0.487122
N31	N	1.018412	0.140085	0.566283
H32	H	1.049913	0.152442	0.662909
H33	H	1.031761	0.153887	0.141941
H34	H	0.809534	0.196252	0.526194
H35	H	1.508047	0.110610	0.717732
N36	N	1.314069	0.253647	0.960765
N37	N	1.294457	0.268110	1.083720
H38	H	1.227771	0.317270	1.119715
N39	N	1.569805	0.065084	0.942401
N40	N	1.543602	-0.002466	0.856498
H41	H	1.610286	-0.051643	0.820549
N42	N	1.271487	0.285026	0.725807
N43	N	1.251875	0.299489	0.848763
H44	H	1.185190	0.348649	0.884758
