data_functionalizedCrystal
_audit_creation_method	'MofGen! by Chris Wilmer'
_symmetry_space_group_name_H-M	'P1'
_symmetry_Int_Tables_number	1
_symmetry_cell_setting	triclinic
loop_
_symmetry_equiv_pos_as_xyz
  x,y,z
_cell_length_a	33.592126
_cell_length_b	33.591377
_cell_length_c	33.588093
_cell_angle_alpha	60.004089
_cell_angle_beta	60.008299
_cell_angle_gamma	59.994549
loop_
_atom_site_label
_atom_site_type_symbol
_atom_site_fract_x
_atom_site_fract_y
_atom_site_fract_z
O1	O	0.055297	-0.581666	0.486338
O2	O	0.388631	-0.248332	0.819672
O3	O	0.721964	0.085001	1.153005
O4	O	0.020882	-0.452873	0.391864
O5	O	0.354215	-0.119540	0.725197
O6	O	0.687549	0.213793	1.058531
O7	O	0.102445	-0.534352	0.391775
O8	O	0.435779	-0.201018	0.725109
O9	O	0.769112	0.132315	1.058442
O10	O	-0.026266	-0.500187	0.486427
O11	O	0.307067	-0.166854	0.819760
O12	O	0.640401	0.166479	1.153094
O13	O	0.129510	-0.507292	0.418747
O14	O	0.462843	-0.173959	0.752080
O15	O	0.796177	0.159375	1.085413
O16	O	0.047947	-0.425814	0.418835
O17	O	0.381280	-0.092481	0.752169
O18	O	0.714614	0.240853	1.085502
O19	O	0.082362	-0.554606	0.513309
O20	O	0.415695	-0.221273	0.846643
O21	O	0.749029	0.112060	1.179976
Cu22	Cu	0.067626	-0.487739	0.468535
Cu23	Cu	0.400959	-0.154406	0.801868
Cu24	Cu	0.734292	0.178927	1.135202
Cu25	Cu	0.035618	-0.519740	0.436638
Cu26	Cu	0.368952	-0.186407	0.769972
Cu27	Cu	0.702285	0.146926	1.103305
O28	O	0.000799	-0.473128	0.513398
O29	O	0.334132	-0.139795	0.846731
O30	O	0.667466	0.193539	1.180065
N31	N	0.090139	-0.465235	0.490972
N32	N	0.423472	-0.131902	0.824305
N33	N	0.756806	0.201432	1.157638
N34	N	0.013110	-0.542249	0.414202
N35	N	0.346443	-0.208916	0.747535
N36	N	0.679776	0.124418	1.080868
C37	C	0.124394	-0.431229	0.734914
C38	C	0.457728	-0.097895	1.068247
C39	C	0.791061	0.235438	1.401581
C40	C	0.334265	-0.431145	0.524799
C41	C	0.667598	-0.097812	0.858132
C42	C	1.000932	0.235522	1.191466
C43	C	0.124204	-0.431200	0.524965
C44	C	0.457538	-0.097867	0.858298
C45	C	0.790871	0.235466	1.191631
C46	C	0.124184	-0.221175	0.524955
C47	C	0.457517	0.112159	0.858289
C48	C	0.790850	0.445492	1.191622
C49	C	0.158017	-0.322536	0.558710
C50	C	0.491350	0.010797	0.892044
C51	C	0.824684	0.344130	1.225377
C52	C	0.158027	-0.397406	0.558711
C53	C	0.491360	-0.064073	0.892045
C54	C	0.824694	0.269260	1.225378
C55	C	0.176763	-0.378688	0.577408
C56	C	0.510096	-0.045354	0.910741
C57	C	0.843429	0.287979	1.244074
C58	C	0.258412	-0.364594	0.534386
C59	C	0.591745	-0.031261	0.867719
C60	C	0.925078	0.302072	1.201053
C61	C	0.309454	-0.381596	0.517340
C62	C	0.642788	-0.048263	0.850673
C63	C	0.976121	0.285071	1.184007
C64	C	0.309485	-0.464188	0.548836
C65	C	0.642818	-0.130855	0.882169
C66	C	0.976152	0.202478	1.215502
C67	C	0.258444	-0.447186	0.565883
C68	C	0.591777	-0.113852	0.899216
C69	C	0.925110	0.219481	1.232550
C70	C	0.170304	-0.297002	0.508532
C71	C	0.503637	0.036332	0.841866
C72	C	0.836970	0.369665	1.175199
C73	C	0.153260	-0.245956	0.491537
C74	C	0.486593	0.087377	0.824871
C75	C	0.819927	0.420710	1.158204
C76	C	0.111648	-0.245983	0.574901
C77	C	0.444981	0.087350	0.908234
C78	C	0.778314	0.420683	1.241567
C79	C	0.128691	-0.297029	0.591896
C80	C	0.462025	0.036304	0.925229
C81	C	0.795358	0.369638	1.258562
C82	C	0.107841	-0.385091	0.571080
C83	C	0.441174	-0.051757	0.904413
C84	C	0.774508	0.281576	1.237747
C85	C	0.090813	-0.402108	0.554078
C86	C	0.424147	-0.068774	0.887411
C87	C	0.757480	0.264559	1.220745
C88	C	0.174153	-0.443755	0.512351
C89	C	0.507487	-0.110422	0.845684
C90	C	0.840820	0.222911	1.179017
C91	C	0.191183	-0.426739	0.529347
C92	C	0.524516	-0.093405	0.862680
C93	C	0.857850	0.239928	1.196013
C94	C	0.107923	-0.385106	0.659111
C95	C	0.441256	-0.051773	0.992445
C96	C	0.774590	0.281561	1.325778
C97	C	0.090955	-0.402138	0.710156
C98	C	0.424288	-0.068804	1.043489
C99	C	0.757622	0.264529	1.376822
C100	C	0.174335	-0.443795	0.710087
C101	C	0.507669	-0.110462	1.043420
C102	C	0.841002	0.222872	1.376753
C103	C	0.191302	-0.426764	0.659041
C104	C	0.524635	-0.093431	0.992375
C105	C	0.857969	0.239902	1.325708
C106	C	0.158095	-0.397418	0.633555
C107	C	0.491428	-0.064085	0.966889
C108	C	0.824762	0.269248	1.300222
C109	C	0.232909	-0.397388	0.558656
C110	C	0.566242	-0.064055	0.891989
C111	C	0.899576	0.269279	1.225322
C112	C	0.105069	-0.449619	0.791057
C113	C	0.438403	-0.116286	1.124391
C114	C	0.771736	0.217047	1.457724
C115	C	0.390406	-0.449193	0.505789
C116	C	0.723740	-0.115859	0.839122
C117	C	1.057073	0.217474	1.172455
C118	C	0.104813	-0.449599	0.506607
C119	C	0.438147	-0.116266	0.839940
C120	C	0.771480	0.217068	1.173274
C121	C	0.105125	-0.165028	0.506915
C122	C	0.438458	0.168306	0.840248
C123	C	0.771792	0.501639	1.173581
C124	C	-0.020560	-0.576246	0.169890
C125	C	0.312774	-0.242913	0.503223
C126	C	0.646107	0.090420	0.836556
C127	C	-0.020889	-0.786183	0.379970
C128	C	0.312445	-0.452850	0.713303
C129	C	0.645778	-0.119517	1.046636
C130	C	-0.020859	-0.576235	0.380063
C131	C	0.312475	-0.242902	0.713397
C132	C	0.645808	0.090432	1.046730
C133	C	-0.230772	-0.576015	0.379658
C134	C	0.102561	-0.242682	0.712992
C135	C	0.435894	0.090652	1.046325
C136	C	-0.129417	-0.609898	0.346025
C137	C	0.203916	-0.276564	0.679359
C138	C	0.537249	0.056769	1.012692
C139	C	-0.054587	-0.609979	0.346172
C140	C	0.278746	-0.276645	0.679505
C141	C	0.612080	0.056688	1.012839
C142	C	-0.073269	-0.628671	0.327396
C143	C	0.260064	-0.295337	0.660729
C144	C	0.593397	0.037996	0.994062
C145	C	-0.087401	-0.710299	0.370335
C146	C	0.245933	-0.376966	0.703668
C147	C	0.579266	-0.043633	1.037001
C148	C	-0.070424	-0.761345	0.387369
C149	C	0.262909	-0.428012	0.720703
C150	C	0.596243	-0.094679	1.054036
C151	C	0.012165	-0.761428	0.356003
C152	C	0.345498	-0.428094	0.689336
C153	C	0.678831	-0.094761	1.022670
C154	C	-0.004813	-0.710383	0.338967
C155	C	0.328520	-0.377050	0.672300
C156	C	0.661854	-0.043716	1.005634
C157	C	-0.155001	-0.622196	0.396191
C158	C	0.178332	-0.288863	0.729525
C159	C	0.511665	0.044471	1.062858
C160	C	-0.206043	-0.605128	0.413125
C161	C	0.127290	-0.271794	0.746458
C162	C	0.460623	0.061539	1.079792
C163	C	-0.205914	-0.563467	0.329724
C164	C	0.127420	-0.230134	0.663057
C165	C	0.460753	0.103200	0.996391
C166	C	-0.154872	-0.580535	0.312790
C167	C	0.178462	-0.247202	0.646124
C168	C	0.511795	0.086131	0.979457
C169	C	-0.066886	-0.559797	0.333828
C170	C	0.266447	-0.226464	0.667161
C171	C	0.599780	0.106869	1.000495
C172	C	-0.049903	-0.542809	0.350903
C173	C	0.283431	-0.209476	0.684236
C174	C	0.616764	0.123857	1.017569
C175	C	-0.008321	-0.626180	0.392654
C176	C	0.325013	-0.292846	0.725987
C177	C	0.658346	0.040487	1.059321
C178	C	-0.025304	-0.643170	0.375585
C179	C	0.308029	-0.309837	0.708918
C180	C	0.641362	0.023497	1.042252
C181	C	-0.066758	-0.559805	0.245702
C182	C	0.266576	-0.226471	0.579036
C183	C	0.599909	0.106862	0.912369
C184	C	-0.049671	-0.542819	0.194658
C185	C	0.283662	-0.209485	0.527992
C186	C	0.616995	0.123848	0.861325
C187	C	-0.008026	-0.626194	0.194706
C188	C	0.325307	-0.292860	0.528040
C189	C	0.658640	0.040473	0.861373
C190	C	-0.025111	-0.643179	0.245752
C191	C	0.308222	-0.309845	0.579085
C192	C	0.641555	0.023488	0.912418
C193	C	-0.054479	-0.609983	0.271248
C194	C	0.278855	-0.276650	0.604582
C195	C	0.612188	0.056684	0.937915
C196	C	-0.054597	-0.684821	0.346135
C197	C	0.278737	-0.351487	0.679469
C198	C	0.612070	-0.018154	1.012802
C199	C	-0.002109	-0.556901	0.113746
C200	C	0.331224	-0.223568	0.447080
C201	C	0.664557	0.109765	0.780413
C202	C	-0.002869	-0.842328	0.398966
C203	C	0.330465	-0.508995	0.732300
C204	C	0.663798	-0.175661	1.065633
C205	C	-0.002496	-0.556887	0.398501
C206	C	0.330837	-0.223554	0.731834
C207	C	0.664171	0.109779	1.065167
C208	C	-0.286914	-0.556929	0.397631
C209	C	0.046419	-0.223595	0.730964
C210	C	0.379752	0.109738	1.064298
N211	N	0.436349	-0.465146	0.490703
N212	N	0.769682	-0.131813	0.824036
N213	N	1.103015	0.201520	1.157370
O214	O	0.592194	-0.469605	0.374236
O215	O	0.925527	-0.136272	0.707570
O216	O	1.258860	0.197061	1.040903
O217	O	0.592389	-0.564393	0.502890
O218	O	0.925722	-0.231060	0.836223
O219	O	1.259056	0.102274	1.169556
O220	O	0.592305	-0.564176	0.421300
O221	O	0.925639	-0.230843	0.754634
O222	O	1.258972	0.102490	1.087967
O223	O	0.592277	-0.469822	0.455826
O224	O	0.925611	-0.136489	0.789159
O225	O	1.258944	0.196845	1.122492
O226	O	0.511216	-0.537214	0.448415
O227	O	0.844549	-0.203881	0.781748
O228	O	1.177883	0.129452	1.115081
O229	O	0.511300	-0.537431	0.530004
O230	O	0.844633	-0.204098	0.863337
O231	O	1.177966	0.129236	1.196671
O232	O	0.511104	-0.442643	0.401350
O233	O	0.844438	-0.109310	0.734684
O234	O	1.177771	0.224023	1.068017
Cu235	Cu	0.503798	-0.487575	0.468153
Cu236	Cu	0.837131	-0.154242	0.801486
Cu237	Cu	1.170465	0.179091	1.134820
Cu238	Cu	0.599695	-0.519461	0.436087
Cu239	Cu	0.933029	-0.186128	0.769421
Cu240	Cu	1.266362	0.147206	1.102754
O241	O	0.511188	-0.442860	0.482940
O242	O	0.844521	-0.109527	0.816273
O243	O	1.177855	0.223807	1.149606
N244	N	0.667145	-0.541890	0.413532
N245	N	1.000478	-0.208557	0.746866
N246	N	1.333811	0.124777	1.080199
N247	N	0.090108	-0.119085	0.490958
N248	N	0.423442	0.214249	0.824291
N249	N	0.756775	0.547582	1.157625
O250	O	-0.026275	0.036848	0.486394
O251	O	0.307059	0.370182	0.819728
O252	O	0.640392	0.703515	1.153061
O253	O	0.102381	0.036888	0.391584
O254	O	0.435715	0.370221	0.724917
O255	O	0.769048	0.703555	1.058250
O256	O	0.020751	0.036852	0.391854
O257	O	0.354084	0.370186	0.725188
O258	O	0.687417	0.703519	1.058521
O259	O	0.055356	0.036884	0.486124
O260	O	0.388689	0.370217	0.819457
O261	O	0.722022	0.703551	1.152790
O262	O	0.047821	-0.044242	0.418876
O263	O	0.381155	0.289091	0.752210
O264	O	0.714488	0.622424	1.085543
O265	O	0.129452	-0.044207	0.418606
O266	O	0.462785	0.289127	0.751939
O267	O	0.796118	0.622460	1.085272
O268	O	0.000796	-0.044246	0.513417
O269	O	0.334129	0.289087	0.846750
O270	O	0.667463	0.622420	1.180083
Cu271	Cu	0.067596	-0.051631	0.468479
Cu272	Cu	0.400929	0.281702	0.801812
Cu273	Cu	0.734262	0.615036	1.135145
Cu274	Cu	0.035582	0.044273	0.436522
Cu275	Cu	0.368915	0.377606	0.769855
Cu276	Cu	0.702248	0.710939	1.103188
O277	O	0.082426	-0.044211	0.513146
O278	O	0.415760	0.289123	0.846479
O279	O	0.749093	0.622456	1.179813
N280	N	0.013063	0.111726	0.414043
N281	N	0.346396	0.445060	0.747376
N282	N	0.679729	0.778393	1.080710
N283	N	0.090453	-0.465282	0.837001
N284	N	0.423786	-0.131948	1.170334
N285	N	0.757119	0.201385	1.503668
O286	O	0.085913	-0.581648	0.992925
O287	O	0.419246	-0.248314	1.326259
O288	O	0.752580	0.085019	1.659592
O289	O	-0.008857	-0.452947	0.992970
O290	O	0.324477	-0.119614	1.326303
O291	O	0.657810	0.213719	1.659636
O292	O	-0.008635	-0.534562	0.992946
O293	O	0.324699	-0.201228	1.326280
O294	O	0.658032	0.132105	1.659613
O295	O	0.085691	-0.500033	0.992949
O296	O	0.419025	-0.166700	1.326282
O297	O	0.752358	0.166633	1.659615
O298	O	0.018365	-0.507512	0.911855
O299	O	0.351698	-0.174178	1.245188
O300	O	0.685031	0.159155	1.578522
O301	O	0.018143	-0.425898	0.911878
O302	O	0.351476	-0.092564	1.245212
O303	O	0.684810	0.240769	1.578545
O304	O	0.112912	-0.554598	0.911834
O305	O	0.446246	-0.221264	1.245167
O306	O	0.779579	0.112069	1.578501
Cu307	Cu	0.067993	-0.487778	0.904452
Cu308	Cu	0.401326	-0.154444	1.237785
Cu309	Cu	0.734660	0.178889	1.571119
Cu310	Cu	0.036063	-0.519767	1.000352
Cu311	Cu	0.369396	-0.186434	1.333685
Cu312	Cu	0.702730	0.146899	1.667018
O313	O	0.112691	-0.472984	0.911857
O314	O	0.446024	-0.139650	1.245191
O315	O	0.779357	0.193683	1.578524
N316	N	0.013602	-0.542269	1.067803
N317	N	0.346936	-0.208935	1.401136
N318	N	0.680269	0.124398	1.734469
C319	C	0.031188	-0.423114	0.392334
C320	C	0.364521	-0.089781	0.725667
C321	C	0.697855	0.243552	1.059000
C322	C	0.132194	-0.524016	0.392223
C323	C	0.465527	-0.190682	0.725557
C324	C	0.798860	0.142651	1.058890
C325	C	0.072056	-0.584366	0.512840
C326	C	0.405389	-0.251032	0.846173
C327	C	0.738723	0.082301	1.179506
C328	C	-0.028950	-0.483464	0.512950
C329	C	0.304384	-0.150131	0.846283
C330	C	0.637717	0.183202	1.179616
C331	C	0.551868	-0.563965	0.532655
C332	C	0.885201	-0.230632	0.865989
C333	C	1.218535	0.102702	1.199322
C334	C	0.551766	-0.563697	0.431617
C335	C	0.885099	-0.230364	0.764950
C336	C	1.218432	0.102970	1.098283
C337	C	0.551623	-0.443070	0.371586
C338	C	0.884956	-0.109737	0.704919
C339	C	1.218290	0.223596	1.038252
C340	C	0.551728	-0.443339	0.472623
C341	C	0.885062	-0.110006	0.805957
C342	C	1.218395	0.223327	1.139290
C343	C	0.132090	-0.003555	0.392006
C344	C	0.465424	0.329779	0.725339
C345	C	0.798757	0.663112	1.058672
C346	C	0.031035	-0.003698	0.392374
C347	C	0.364368	0.329635	0.725707
C348	C	0.697701	0.662968	1.059041
C349	C	-0.028947	-0.003703	0.512961
C350	C	0.304386	0.329630	0.846295
C351	C	0.637720	0.662963	1.179628
C352	C	0.072143	-0.003661	0.512626
C353	C	0.405476	0.329673	0.845960
C354	C	0.738809	0.663006	1.179293
C355	C	-0.008408	-0.423209	0.952430
C356	C	0.324925	-0.089875	1.285763
C357	C	0.658259	0.243458	1.619096
C358	C	-0.008128	-0.524272	0.952385
C359	C	0.325206	-0.190939	1.285718
C360	C	0.658539	0.142394	1.619052
C361	C	0.112464	-0.584336	0.952374
C362	C	0.445797	-0.251003	1.285707
C363	C	0.779130	0.082330	1.619041
C364	C	0.112190	-0.483267	0.952401
C365	C	0.445523	-0.149933	1.285734
C366	C	0.778856	0.183400	1.619067
H367	H	0.050098	-0.392105	0.730957
H368	H	0.383432	-0.058771	1.064290
H369	H	0.716765	0.274562	1.397624
H370	H	0.330218	-0.354891	0.497577
H371	H	0.663551	-0.021557	0.830910
H372	H	0.996884	0.311776	1.164243
C373	C	0.230328	-0.309815	0.526436
C374	C	0.563661	0.023518	0.859769
C375	C	0.896994	0.356851	1.193102
N376	N	0.209174	-0.268555	0.520448
N377	N	0.542507	0.064779	0.853781
N378	N	0.875841	0.398112	1.187114
H379	H	0.551560	-0.413310	0.334638
H380	H	0.884894	-0.079977	0.667972
H381	H	1.218227	0.253356	1.001305
C382	C	0.551712	-0.403295	0.482603
C383	C	0.885046	-0.069961	0.815936
C384	C	1.218379	0.263372	1.149269
N385	N	0.551699	-0.373133	0.490120
N386	N	0.885032	-0.039799	0.823453
N387	N	1.218366	0.293534	1.156787
C388	C	-0.078891	-0.473631	0.553103
C389	C	0.254442	-0.140298	0.886437
C390	C	0.587775	0.193035	1.219770
N391	N	-0.116508	-0.466224	0.583347
N392	N	0.216826	-0.132891	0.916681
N393	N	0.550159	0.200442	1.250014
H394	H	0.168963	-0.003318	0.362168
H395	H	0.502296	0.330015	0.695501
H396	H	0.835629	0.663348	1.028834
H397	H	0.023621	-0.003702	0.362756
H398	H	0.356955	0.329631	0.696090
H399	H	0.690288	0.662964	1.029423
C400	C	0.082155	-0.003652	0.552639
C401	C	0.415488	0.329681	0.885972
C402	C	0.748821	0.663015	1.219306
N403	N	0.089696	-0.003646	0.582777
N404	N	0.423030	0.329687	0.916110
N405	N	0.756363	0.663021	1.249444
H406	H	-0.065895	-0.003715	0.542725
H407	H	0.267439	0.329618	0.876058
H408	H	0.600772	0.662951	1.209392
H409	H	0.169160	-0.531297	0.362501
H410	H	0.502494	-0.197964	0.695834
H411	H	0.835827	0.135369	1.029167
C412	C	-0.048603	-0.373274	0.952446
C413	C	0.284730	-0.039941	1.285779
C414	C	0.618063	0.293393	1.619113
N415	N	-0.078879	-0.335663	0.952458
N416	N	0.254455	-0.002329	1.285792
N417	N	0.587788	0.331004	1.619125
C418	C	0.081989	-0.634348	0.552927
C419	C	0.415323	-0.301014	0.886260
C420	C	0.748656	0.032319	1.219594
N421	N	0.089471	-0.671995	0.583120
N422	N	0.422805	-0.338662	0.916454
N423	N	0.756138	-0.005328	1.249787
H424	H	-0.037749	-0.531650	0.952352
H425	H	0.295585	-0.198316	1.285685
H426	H	0.628918	0.135017	1.619019
C427	C	0.202560	-0.325059	0.472027
C428	C	0.535893	0.008274	0.805361
C429	C	0.869226	0.341608	1.138694
N430	N	0.226854	-0.346191	0.444530
N431	N	0.560188	-0.012858	0.777863
N432	N	0.893521	0.320476	1.111197
H433	H	0.551779	-0.593338	0.424228
H434	H	0.885112	-0.260005	0.757561
H435	H	1.218445	0.073329	1.090894
H436	H	0.551918	-0.593721	0.569607
H437	H	0.885252	-0.260388	0.902940
H438	H	1.218585	0.072946	1.236273
H439	H	0.141823	-0.475877	0.952395
H440	H	0.475157	-0.142543	1.285729
H441	H	0.808490	0.190790	1.619062
H442	H	0.080878	-0.361206	0.638363
H443	H	0.414211	-0.027873	0.971696
H444	H	0.747545	0.305461	1.305029
C445	C	0.210868	-0.476066	0.738116
C446	C	0.544201	-0.142733	1.071449
C447	C	0.877535	0.190601	1.404782
N448	N	0.238386	-0.500373	0.759227
N449	N	0.571720	-0.167040	1.092560
N450	N	0.905053	0.166293	1.425894
C451	C	0.246497	-0.440312	0.630933
C452	C	0.579830	-0.106979	0.964266
C453	C	0.913164	0.226355	1.297600
N454	N	0.288069	-0.450516	0.609763
N455	N	0.621402	-0.117183	0.943096
N456	N	0.954736	0.216151	1.276429
H457	H	0.142219	-0.621297	0.952354
H458	H	0.475552	-0.287963	1.285687
H459	H	0.808885	0.045370	1.619021
C460	C	0.035607	-0.388561	0.567681
C461	C	0.368940	-0.055228	0.901015
C462	C	0.702273	0.278106	1.234348
N463	N	-0.005975	-0.378357	0.577928
N464	N	0.327358	-0.045024	0.911261
N465	N	0.660692	0.288309	1.244594
C466	C	0.071366	-0.352820	0.603374
C467	C	0.404699	-0.019486	0.936708
C468	C	0.738032	0.313847	1.270041
N469	N	0.043891	-0.328511	0.627698
N470	N	0.377225	0.004822	0.961032
N471	N	0.710558	0.338156	1.294365
H472	H	0.201155	-0.467643	0.488446
H473	H	0.534488	-0.134309	0.821780
H474	H	0.867822	0.199024	1.155113
H475	H	0.232048	-0.436761	0.519270
H476	H	0.565382	-0.103428	0.852604
H477	H	0.898715	0.229906	1.185937
H478	H	0.237680	-0.473893	0.585645
H479	H	0.571013	-0.140559	0.918979
H480	H	0.904347	0.192774	1.252312
H481	H	0.330277	-0.504737	0.554712
H482	H	0.663610	-0.171404	0.888045
H483	H	0.996943	0.161930	1.221379
H484	H	0.052703	-0.782242	0.350169
H485	H	0.386036	-0.448908	0.683502
H486	H	0.719369	-0.115575	1.016836
H487	H	0.087777	-0.225214	0.601924
H488	H	0.421110	0.108119	0.935257
H489	H	0.754443	0.441452	1.268590
C490	C	0.166776	-0.217866	0.436336
C491	C	0.500109	0.115467	0.769669
C492	C	0.833442	0.448800	1.103003
N493	N	0.176957	-0.196710	0.394759
N494	N	0.510291	0.136623	0.728092
N495	N	0.843624	0.469957	1.061425
H496	H	-0.059677	-0.501957	0.173865
H497	H	0.273656	-0.168623	0.507199
H498	H	0.606990	0.164710	0.840532
C499	C	-0.099064	-0.523283	0.273747
C500	C	0.234269	-0.189950	0.607080
C501	C	0.567603	0.143383	0.940413
N502	N	-0.123396	-0.495777	0.294869
N503	N	0.209938	-0.162444	0.628203
N504	N	0.543271	0.170889	0.961536
C505	C	0.115176	-0.325119	0.647097
C506	C	0.448509	0.008215	0.980430
C507	C	0.781843	0.341548	1.313764
N508	N	0.104996	-0.346275	0.688674
N509	N	0.438329	-0.012942	1.022008
N510	N	0.771662	0.320392	1.355341
H511	H	0.015877	-0.653227	0.173952
H512	H	0.349210	-0.319894	0.507285
H513	H	0.682544	0.013439	0.840619
H514	H	-0.015108	-0.684041	0.266548
H515	H	0.318225	-0.350707	0.599882
H516	H	0.651559	-0.017374	0.933215
H517	H	0.023834	-0.386116	0.362662
H518	H	0.357168	-0.052783	0.695995
H519	H	0.690501	0.280551	1.029329
H520	H	-0.059919	-0.501948	0.340854
H521	H	0.273415	-0.168615	0.674187
H522	H	0.606748	0.164719	1.007520
C523	C	0.023909	-0.662695	0.424988
C524	C	0.357243	-0.329362	0.758321
C525	C	0.690576	0.003971	1.091655
N526	N	0.048191	-0.690200	0.449338
N527	N	0.381524	-0.356867	0.782672
N528	N	0.714857	-0.023534	1.116005
H529	H	-0.015291	-0.684031	0.385637
H530	H	0.318043	-0.350698	0.718970
H531	H	0.651376	-0.017365	1.052304
C532	C	0.031277	-0.682357	0.312350
C533	C	0.364610	-0.349024	0.645683
C534	C	0.697944	-0.015690	0.979017
N535	N	0.058460	-0.661248	0.292302
N536	N	0.391794	-0.327915	0.625635
N537	N	0.725127	0.005419	0.958969
H538	H	-0.097137	-0.782089	0.407066
H539	H	0.236197	-0.448755	0.740400
H540	H	0.569530	-0.115422	1.073733
C541	C	-0.127002	-0.654494	0.432751
C542	C	0.206331	-0.321161	0.766084
C543	C	0.539664	0.012173	1.099417
N544	N	-0.105914	-0.678821	0.460289
N545	N	0.227419	-0.345487	0.793623
N546	N	0.560753	-0.012154	1.126956
C547	C	-0.142164	-0.682185	0.378220
C548	C	0.191169	-0.348852	0.711553
C549	C	0.524503	-0.015518	1.044887
N550	N	-0.183413	-0.661009	0.384159
N551	N	0.149920	-0.327675	0.717492
N552	N	0.483254	0.005658	1.050825
H553	H	-0.090726	-0.532768	0.309877
H554	H	0.242607	-0.199435	0.643211
H555	H	0.575940	0.133898	0.976544
H556	H	-0.226875	-0.615140	0.453976
H557	H	0.106459	-0.281806	0.787310
H558	H	0.439792	0.051527	1.120643
H559	H	-0.226640	-0.539563	0.302661
H560	H	0.106694	-0.206230	0.635994
H561	H	0.440027	0.127103	0.969328
H562	H	-0.134040	-0.570516	0.271939
H563	H	0.199293	-0.237183	0.605272
H564	H	0.532626	0.096151	0.938606
