data_functionalizedCrystal
_audit_creation_method	'MofGen! by Chris Wilmer'
_symmetry_space_group_name_H-M	'P1'
_symmetry_Int_Tables_number	1
_symmetry_cell_setting	triclinic
loop_
_symmetry_equiv_pos_as_xyz
  x,y,z
_cell_length_a	19.805407
_cell_length_b	25.639239
_cell_length_c	19.805398
_cell_angle_alpha	89.970248
_cell_angle_beta	89.986879
_cell_angle_gamma	90.038686
loop_
_atom_site_label
_atom_site_type_symbol
_atom_site_fract_x
_atom_site_fract_y
_atom_site_fract_z
Zn1	Zn	1.034635	-0.208158	-0.382714
Zn2	Zn	1.367968	0.125176	-0.049381
Zn3	Zn	1.701302	0.458509	0.283952
Zn4	Zn	1.034538	-0.295593	-0.269524
Zn5	Zn	1.367872	0.037740	0.063810
Zn6	Zn	1.701205	0.371073	0.397143
Zn7	Zn	0.921462	-0.208174	-0.269539
Zn8	Zn	1.254796	0.125160	0.063795
Zn9	Zn	1.588129	0.458493	0.397128
Zn10	Zn	0.921389	-0.295564	-0.382670
Zn11	Zn	1.254722	0.037769	-0.049337
Zn12	Zn	1.588055	0.371103	0.283996
O13	O	0.978006	-0.251872	-0.326112
O14	O	1.311339	0.081461	0.007222
O15	O	1.644673	0.414795	0.340555
O16	O	1.129339	-0.219762	-0.367711
O17	O	1.462672	0.113572	-0.034378
O18	O	1.796005	0.446905	0.298955
O19	O	1.019529	-0.284016	-0.174809
O20	O	1.352862	0.049318	0.158524
O21	O	1.686195	0.382651	0.491858
O22	O	0.936546	-0.135006	-0.284576
O23	O	1.269879	0.198327	0.048757
O24	O	1.603213	0.531660	0.382090
O25	O	1.129268	-0.284000	-0.284551
O26	O	1.462601	0.049333	0.048783
O27	O	1.795934	0.382666	0.382116
O28	O	1.019693	-0.134995	-0.367726
O29	O	1.353027	0.198339	-0.034393
O30	O	1.686360	0.531672	0.298941
O31	O	0.936452	-0.219789	-0.174820
O32	O	1.269786	0.113544	0.158513
O33	O	1.603119	0.446878	0.491846
O34	O	0.826736	-0.219761	-0.284534
O35	O	1.160069	0.113573	0.048799
O36	O	1.493403	0.446906	0.382133
O37	O	0.936421	-0.283950	-0.477393
O38	O	1.269754	0.049383	-0.144060
O39	O	1.603087	0.382716	0.189274
O40	O	0.826682	-0.283966	-0.367651
O41	O	1.160015	0.049368	-0.034318
O42	O	1.493349	0.382701	0.299015
O43	O	1.019622	-0.219733	-0.477425
O44	O	1.352956	0.113600	-0.144092
O45	O	1.686289	0.446933	0.189242
O46	O	1.019457	-0.368755	-0.284508
O47	O	1.352791	-0.035421	0.048825
O48	O	1.686124	0.297912	0.382158
O49	O	0.936327	-0.368733	-0.367637
O50	O	1.269660	-0.035400	-0.034303
O51	O	1.602994	0.297934	0.299030
C52	C	0.802150	-0.251862	-0.326090
C53	C	1.135483	0.081471	0.007243
C54	C	1.468817	0.414805	0.340577
C55	C	0.726918	-0.251870	-0.326097
C56	C	1.060251	0.081463	0.007237
C57	C	1.393585	0.414796	0.340570
C58	C	0.691563	-0.285352	-0.369306
C59	C	1.024897	0.047981	-0.035972
C60	C	1.358230	0.381314	0.297361
C61	C	0.620875	-0.285353	-0.369315
C62	C	0.954208	0.047980	-0.035982
C63	C	1.287542	0.381313	0.297351
C64	C	0.585542	-0.251874	-0.326112
C65	C	0.918876	0.081459	0.007222
C66	C	1.252209	0.414792	0.340555
C67	C	0.620902	-0.218389	-0.282901
C68	C	0.954235	0.114945	0.050433
C69	C	1.287569	0.448278	0.383766
C70	C	0.691589	-0.218386	-0.282895
C71	C	1.024922	0.114948	0.050438
C72	C	1.358256	0.448281	0.383772
C73	C	0.335829	-0.218400	-0.282923
C74	C	0.669162	0.114933	0.050410
C75	C	1.002495	0.448266	0.383744
C76	C	0.265137	-0.218407	-0.282931
C77	C	0.598470	0.114926	0.050403
C78	C	0.931803	0.448259	0.383736
C79	C	0.265115	-0.285368	-0.369343
C80	C	0.598448	0.047965	-0.036010
C81	C	0.931781	0.381299	0.297323
C82	C	0.335802	-0.285365	-0.369338
C83	C	0.669135	0.047968	-0.036004
C84	C	1.002468	0.381302	0.297329
C85	C	0.371155	-0.251877	-0.326129
C86	C	0.704488	0.081456	0.007204
C87	C	1.037822	0.414789	0.340537
C88	C	0.447803	-0.251876	-0.326121
C89	C	0.781137	0.081457	0.007213
C90	C	1.114470	0.414790	0.340546
C91	C	0.508895	-0.251878	-0.326117
C92	C	0.842229	0.081455	0.007217
C93	C	1.175562	0.414789	0.340550
C94	C	0.977892	-0.387715	-0.326081
C95	C	1.311226	-0.054381	0.007253
C96	C	1.644559	0.278952	0.340586
C97	C	0.977905	-0.445829	-0.326090
C98	C	1.311239	-0.112495	0.007243
C99	C	1.644572	0.220838	0.340576
C100	C	1.021405	-0.806190	-0.282901
C101	C	1.354738	-0.472857	0.050433
C102	C	1.688072	-0.139524	0.383766
C103	C	1.021431	-0.860795	-0.282910
C104	C	1.354764	-0.527461	0.050424
C105	C	1.688098	-0.194128	0.383757
O106	O	1.058298	-0.889030	-0.246154
O107	O	1.391631	-0.555697	0.087179
O108	O	1.724965	-0.222364	0.420512
N109	N	0.978125	-0.888111	-0.326157
N110	N	1.311458	-0.554778	0.007177
N111	N	1.644792	-0.221444	0.340510
C112	C	0.934795	-0.860820	-0.369402
C113	C	1.268128	-0.527487	-0.036069
C114	C	1.601461	-0.194154	0.297264
O115	O	0.897962	-0.889069	-0.406189
O116	O	1.231295	-0.555736	-0.072855
O117	O	1.564629	-0.222402	0.260478
C118	C	0.934772	-0.806217	-0.369396
C119	C	1.268106	-0.472884	-0.036063
C120	C	1.601439	-0.139550	0.297271
C121	C	0.978076	-0.778903	-0.326141
C122	C	1.311410	-0.445570	0.007192
C123	C	1.644743	-0.112237	0.340525
C124	C	1.064706	-0.778877	-0.239650
C125	C	1.398039	-0.445543	0.093683
C126	C	1.731373	-0.112210	0.427017
C127	C	1.064679	-0.724276	-0.239640
C128	C	1.398012	-0.390943	0.093693
C129	C	1.731345	-0.057610	0.427026
C130	C	1.021350	-0.696989	-0.282881
C131	C	1.354684	-0.363656	0.050452
C132	C	1.688017	-0.030323	0.383786
C133	C	0.978049	-0.724303	-0.326132
C134	C	1.311382	-0.390970	0.007202
C135	C	1.644716	-0.057636	0.340535
C136	C	0.891446	-0.778927	-0.412645
C137	C	1.224779	-0.445594	-0.079311
C138	C	1.558112	-0.112261	0.254022
C139	C	0.891428	-0.724320	-0.412635
C140	C	1.224761	-0.390987	-0.079302
C141	C	1.558094	-0.057654	0.254031
C142	C	0.934732	-0.697007	-0.369381
C143	C	1.268065	-0.363673	-0.036047
C144	C	1.601398	-0.030340	0.297286
C145	C	0.934693	-0.642416	-0.369363
C146	C	1.268027	-0.309082	-0.036029
C147	C	1.601360	0.024251	0.297304
N148	N	0.978000	-0.615099	-0.326116
N149	N	1.311333	-0.281766	0.007218
N150	N	1.644666	0.051568	0.340551
C151	C	1.021328	-0.642386	-0.282875
C152	C	1.354661	-0.309053	0.050458
C153	C	1.687995	0.024281	0.383792
C154	C	0.934846	-0.975491	-0.369413
C155	C	1.268179	-0.642158	-0.036079
C156	C	1.601512	-0.308824	0.297254
C157	C	0.934864	-1.030093	-0.369416
C158	C	1.268197	-0.696760	-0.036083
C159	C	1.601531	-0.363427	0.297251
C160	C	1.021502	-1.030064	-0.282924
C161	C	1.354835	-0.696730	0.050409
C162	C	1.688168	-0.363397	0.383743
C163	C	1.021479	-0.975461	-0.282918
C164	C	1.354813	-0.642127	0.050415
C165	C	1.688146	-0.308794	0.383749
C166	C	0.978152	-0.948175	-0.326166
C167	C	1.311485	-0.614841	0.007168
C168	C	1.644818	-0.281508	0.340501
C169	C	1.021267	-0.527721	-0.282857
C170	C	1.354600	-0.194388	0.050476
C171	C	1.687934	0.138946	0.383809
C172	C	1.021234	-0.473116	-0.282849
C173	C	1.354567	-0.139782	0.050484
C174	C	1.687901	0.193551	0.383817
C175	C	0.934599	-0.473150	-0.369343
C176	C	1.267932	-0.139817	-0.036010
C177	C	1.601266	0.193517	0.297323
C178	C	0.934629	-0.527750	-0.369349
C179	C	1.267963	-0.194417	-0.036016
C180	C	1.601296	0.138916	0.297318
C181	C	0.977969	-0.555035	-0.326104
C182	C	1.311302	-0.221701	0.007230
C183	C	1.644635	0.111632	0.340563
O184	O	0.897847	-0.614145	-0.406101
O185	O	1.231181	-0.280812	-0.072768
O186	O	1.564514	0.052521	0.260565
O187	O	1.058161	-0.614131	-0.246101
O188	O	1.391494	-0.280797	0.087232
O189	O	1.724827	0.052536	0.420566
C190	C	1.154549	-0.251883	-0.326134
C191	C	1.487882	0.081451	0.007199
C192	C	1.821215	0.414784	0.340532
C193	C	1.229781	-0.251887	-0.326144
C194	C	1.563114	0.081446	0.007190
C195	C	1.896447	0.414780	0.340523
C196	C	0.978024	-0.251837	-0.502655
C197	C	1.311357	0.081497	-0.169321
C198	C	1.644691	0.414830	0.164012
C199	C	0.978032	-0.251822	-0.577887
C200	C	1.311365	0.081512	-0.244553
C201	C	1.644698	0.414845	0.088780
C202	C	0.978139	-0.115499	-0.326158
C203	C	1.311472	0.217834	0.007176
C204	C	1.644805	0.551168	0.340509
C205	C	0.978195	-0.057385	-0.326177
C206	C	1.311529	0.275948	0.007156
C207	C	1.644862	0.609282	0.340489
C208	C	1.021396	-0.285181	-1.039670
C209	C	1.354730	0.048152	-0.706336
C210	C	1.688063	0.381485	-0.373003
C211	C	1.021378	-0.285196	-0.968981
C212	C	1.354711	0.048138	-0.635648
C213	C	1.688044	0.381471	-0.302315
C214	C	0.978116	-0.251763	-0.933649
C215	C	1.311449	0.081571	-0.600315
C216	C	1.644783	0.414904	-0.266982
C217	C	0.934865	-0.218317	-0.969008
C218	C	1.268198	0.115016	-0.635675
C219	C	1.601532	0.448350	-0.302341
C220	C	0.934881	-0.218306	-1.039695
C221	C	1.268214	0.115027	-0.706362
C222	C	1.601548	0.448361	-0.373029
C223	C	0.934800	-0.218362	-0.683935
C224	C	1.268133	0.114971	-0.350601
C225	C	1.601466	0.448305	-0.017268
C226	C	0.934789	-0.218375	-0.613242
C227	C	1.268122	0.114959	-0.279909
C228	C	1.601455	0.448292	0.053424
C229	C	1.021297	-0.285252	-0.613221
C230	C	1.354630	0.048082	-0.279887
C231	C	1.687963	0.381415	0.053446
C232	C	1.021312	-0.285240	-0.683908
C233	C	1.354646	0.048093	-0.350574
C234	C	1.687979	0.381426	-0.017241
C235	C	0.978059	-0.251797	-0.719261
C236	C	1.311393	0.081536	-0.385928
C237	C	1.644726	0.414870	-0.052594
C238	C	0.978079	-0.251783	-0.795910
C239	C	1.311413	0.081551	-0.462576
C240	C	1.644746	0.414884	-0.129243
C241	C	0.978099	-0.251774	-0.857001
C242	C	1.311432	0.081559	-0.523668
C243	C	1.644766	0.414893	-0.190335
C244	C	0.978027	-0.251870	-0.150256
C245	C	1.311360	0.081464	0.183078
C246	C	1.644694	0.414797	0.516411
C247	C	0.978150	-0.251737	-0.075024
C248	C	1.311484	0.081596	0.258309
C249	C	1.644817	0.414929	0.591642
H250	H	0.592129	-0.191127	-0.247727
H251	H	0.925462	0.142206	0.085607
H252	H	1.258795	0.475539	0.418940
H253	H	0.856180	-0.801157	-0.447864
H254	H	1.189513	-0.467823	-0.114531
H255	H	1.522846	-0.134490	0.218803
H256	H	0.720326	-0.312617	-0.404485
H257	H	1.053660	0.020717	-0.071152
H258	H	1.386993	0.354050	0.262182
H259	H	0.236321	-0.312633	-0.404528
H260	H	0.569655	0.020700	-0.071195
H261	H	0.902988	0.354034	0.262139
O262	O	1.068021	-0.321265	-0.930843
O263	O	1.401355	0.012068	-0.597510
O264	O	1.734688	0.345402	-0.264176
H265	H	1.102463	-0.297867	-0.898642
H266	H	1.435796	0.035467	-0.565308
H267	H	1.769130	0.368800	-0.231975
H268	H	1.056560	-0.549929	-0.247644
H269	H	1.389893	-0.216596	0.085689
H270	H	1.723226	0.116737	0.419022
H271	H	0.899579	-0.191131	-0.712711
H272	H	1.232913	0.142202	-0.379377
H273	H	1.566246	0.475536	-0.046044
O274	O	0.844686	-0.694889	-0.459273
O275	O	1.178020	-0.361556	-0.125940
O276	O	1.511353	-0.028223	0.207393
H277	H	0.814576	-0.723059	-0.489343
H278	H	1.147909	-0.389726	-0.156009
H279	H	1.481243	-0.056393	0.177324
O280	O	1.111395	-0.694819	-0.192997
O281	O	1.444729	-0.361486	0.140336
O282	O	1.778062	-0.028152	0.473670
H283	H	1.141531	-0.722974	-0.162941
H284	H	1.474864	-0.389641	0.170392
H285	H	1.808198	-0.056307	0.503725
H286	H	1.099993	-0.801088	-0.204438
H287	H	1.433326	-0.467755	0.128895
H288	H	1.766660	-0.134421	0.462229
H289	H	1.056784	-1.052291	-0.247717
H290	H	1.390118	-0.718957	0.085616
H291	H	1.723451	-0.385624	0.418949
O292	O	1.067944	-0.321330	-0.575091
O293	O	1.401278	0.012003	-0.241758
O294	O	1.734611	0.345336	0.091576
H295	H	1.060662	-0.315728	-0.520002
H296	H	1.393996	0.017605	-0.186668
H297	H	1.727329	0.350939	0.146665
H298	H	0.899370	-0.549990	-0.404573
H299	H	1.232703	-0.216657	-0.071239
H300	H	1.566036	0.116676	0.262094
H301	H	0.899666	-0.191072	-1.068480
H302	H	1.233000	0.142261	-0.735147
H303	H	1.566333	0.475595	-0.401813
O304	O	1.067952	-0.443659	-0.236200
O305	O	1.401286	-0.110326	0.097133
O306	O	1.734619	0.223008	0.430466
H307	H	1.060656	-0.401105	-0.243453
H308	H	1.393989	-0.067771	0.089881
H309	H	1.727323	0.265562	0.423214
H310	H	0.720374	-0.191118	-0.247713
H311	H	1.053707	0.142215	0.085620
H312	H	1.387041	0.475548	0.418953
H313	H	0.236371	-0.191141	-0.247749
H314	H	0.569704	0.142192	0.085584
H315	H	0.903037	0.475525	0.418918
O316	O	0.888094	-0.946061	-0.416044
O317	O	1.221428	-0.612728	-0.082711
O318	O	1.554761	-0.279395	0.250622
H319	H	0.857981	-0.974234	-0.446107
H320	H	1.191314	-0.640900	-0.112773
H321	H	1.524647	-0.307567	0.220560
O322	O	0.888153	-1.059552	-0.416064
O323	O	1.221487	-0.726218	-0.082731
O324	O	1.554820	-0.392885	0.250603
H325	H	0.858026	-1.031398	-0.446131
H326	H	1.191359	-0.698065	-0.112798
H327	H	1.524692	-0.364732	0.220536
O328	O	1.068192	-0.946001	-0.236273
O329	O	1.401525	-0.612668	0.097060
O330	O	1.734859	-0.279335	0.430394
H331	H	1.098325	-0.974155	-0.206212
H332	H	1.431659	-0.640821	0.127122
H333	H	1.764992	-0.307488	0.460455
H334	H	0.899319	-0.450924	-0.404548
H335	H	1.232653	-0.117591	-0.071214
H336	H	1.565986	0.215742	0.262119
H337	H	0.899557	-0.191148	-0.584477
H338	H	1.232891	0.142185	-0.251143
H339	H	1.566224	0.475519	0.082190
O340	O	0.582740	-0.321566	-0.415789
O341	O	0.916073	0.011768	-0.082455
O342	O	1.249407	0.345101	0.250878
H343	H	0.619184	-0.344886	-0.445776
H344	H	0.952518	-0.011552	-0.112443
H345	H	1.285851	0.321781	0.220890
H346	H	1.056629	-0.312404	-1.068432
H347	H	1.389962	0.020929	-0.735099
H348	H	1.723295	0.354263	-0.401766
O349	O	0.888205	-0.182253	-0.930904
O350	O	1.221539	0.151080	-0.597571
O351	O	1.554872	0.484414	-0.264238
H352	H	0.895465	-0.187874	-0.875811
H353	H	1.228799	0.145460	-0.542478
H354	H	1.562132	0.478793	-0.209144
H355	H	1.056543	-0.312463	-0.712672
H356	H	1.389876	0.020870	-0.379339
H357	H	1.723210	0.354204	-0.046005
H358	H	0.364566	-0.312629	-0.404516
H359	H	0.697899	0.020705	-0.071183
H360	H	1.031233	0.354038	0.262151
H361	H	0.364605	-0.191137	-0.247735
H362	H	0.697938	0.142197	0.085598
H363	H	1.031271	0.475530	0.418931
