data_functionalizedCrystal
_audit_creation_method	'MofGen! by Chris Wilmer'
_symmetry_space_group_name_H-M	'P1'
_symmetry_Int_Tables_number	1
_symmetry_cell_setting	triclinic
loop_
_symmetry_equiv_pos_as_xyz
  x,y,z
_cell_length_a	26.374263
_cell_length_b	26.373608
_cell_length_c	26.370205
_cell_angle_alpha	60.005297
_cell_angle_beta	60.010839
_cell_angle_gamma	59.993700
loop_
_atom_site_label
_atom_site_type_symbol
_atom_site_fract_x
_atom_site_fract_y
_atom_site_fract_z
O1	O	0.070152	-0.740800	0.619517
O2	O	0.570152	-0.240800	1.119517
O3	O	0.026377	-0.576764	0.499159
O4	O	0.526377	-0.076764	0.999159
O5	O	0.130245	-0.680560	0.499088
O6	O	0.630245	-0.180560	0.999088
O7	O	-0.033715	-0.637003	0.619589
O8	O	0.466285	-0.137003	1.119589
O9	O	0.164701	-0.646107	0.533470
O10	O	0.664701	-0.146107	1.033470
O11	O	0.060833	-0.542310	0.533541
O12	O	0.560833	-0.042310	1.033541
O13	O	0.104608	-0.706346	0.653899
O14	O	0.604608	-0.206346	1.153899
Cu15	Cu	0.085867	-0.621182	0.596859
Cu16	Cu	0.585867	-0.121182	1.096859
Cu17	Cu	0.045119	-0.661927	0.556199
Cu18	Cu	0.545119	-0.161927	1.056199
O19	O	0.000741	-0.602549	0.653971
O20	O	0.500741	-0.102549	1.153971
N21	N	0.114528	-0.592529	0.625461
N22	N	0.614528	-0.092529	1.125461
N23	N	0.016463	-0.690587	0.527598
N24	N	0.516463	-0.190587	1.027598
C25	C	0.181428	-0.355400	0.692330
C26	C	0.681428	0.144600	1.192330
C27	C	0.181530	-0.525690	0.862573
C28	C	0.681530	-0.025690	1.362573
C29	C	0.181440	-0.525667	0.692313
C30	C	0.681440	-0.025667	1.192313
C31	C	0.351736	-0.525673	0.692271
C32	C	0.851736	-0.025673	1.192271
C33	C	0.200174	-0.411588	0.711047
C34	C	0.700174	0.088412	1.211047
C35	C	0.200232	-0.506954	0.806384
C36	C	0.700232	-0.006954	1.306384
C37	C	0.295546	-0.506943	0.711016
C38	C	0.795546	-0.006943	1.211016
C39	C	0.200182	-0.506940	0.711037
C40	C	0.700182	-0.006940	1.211037
C41	C	0.157567	-0.283881	0.668507
C42	C	0.657567	0.216119	1.168507
C43	C	0.157587	-0.549500	0.668479
C44	C	0.657587	-0.049500	1.168479
C45	C	0.224035	-0.483107	0.734871
C46	C	0.724035	0.016893	1.234871
C47	C	0.455739	-0.507754	0.637520
C48	C	0.955739	-0.007754	1.137520
C49	C	0.520749	-0.529425	0.615835
C50	C	1.020749	-0.029425	1.115835
C51	C	0.520768	-0.634611	0.655947
C52	C	1.020768	-0.134611	1.155947
C53	C	0.455759	-0.612939	0.677633
C54	C	0.955759	-0.112939	1.177633
C55	C	0.173240	-0.251367	0.604595
C56	C	0.673240	0.248633	1.104595
C57	C	0.151546	-0.186351	0.582941
C58	C	0.651546	0.313649	1.082941
C59	C	0.098512	-0.186369	0.689113
C60	C	0.598512	0.313631	1.189113
C61	C	0.120206	-0.251385	0.710768
C62	C	0.620206	0.248615	1.210768
C63	C	0.093669	-0.533798	0.684205
C64	C	0.593669	-0.033798	1.184205
C65	C	0.071992	-0.555464	0.662532
C66	C	0.571992	-0.055464	1.162532
C67	C	0.178144	-0.608536	0.609422
C68	C	0.678144	-0.108536	1.109422
C69	C	0.199825	-0.586869	0.631088
C70	C	0.699825	-0.086869	1.131088
C71	C	0.093821	-0.533842	0.966616
C72	C	0.593821	-0.033842	1.466616
C73	C	0.072187	-0.555526	1.031630
C74	C	0.572187	-0.055526	1.531630
C75	C	0.178370	-0.608608	1.031591
C76	C	0.678370	-0.108608	1.531591
C77	C	0.200004	-0.586926	0.966576
C78	C	0.700004	-0.086926	1.466576
C79	C	0.157728	-0.549541	0.934090
C80	C	0.657728	-0.049541	1.434090
C81	C	0.423247	-0.549509	0.668416
C82	C	0.923247	-0.049509	1.168416
C83	C	-0.097522	-0.709158	0.508557
C84	C	0.402478	-0.209158	1.008557
C85	C	-0.002050	-0.709295	0.413344
C86	C	0.497950	-0.209295	0.913344
C87	C	-0.002241	-0.804604	0.508735
C88	C	0.497759	-0.304604	1.008735
C89	C	-0.002225	-0.709288	0.508793
C90	C	0.497775	-0.209288	1.008793
C91	C	-0.026009	-0.733087	0.484858
C92	C	0.473991	-0.233087	0.984858
N93	N	0.552340	-0.592538	0.625346
N94	N	1.052340	-0.092538	1.125346
O95	O	0.750867	-0.598274	0.477076
O96	O	1.250867	-0.098274	0.977076
O97	O	0.751048	-0.718989	0.640960
O98	O	1.251048	-0.218989	1.140960
O99	O	0.750981	-0.718715	0.537020
O100	O	1.250981	-0.218715	1.037020
O101	O	0.750934	-0.598547	0.581017
O102	O	1.250934	-0.098547	1.081017
O103	O	0.647701	-0.684348	0.571512
O104	O	1.147701	-0.184348	1.071512
O105	O	0.647768	-0.684622	0.675452
O106	O	1.147768	-0.184622	1.175452
O107	O	0.647587	-0.563907	0.511569
O108	O	1.147587	-0.063907	1.011569
Cu109	Cu	0.638247	-0.621127	0.596660
Cu110	Cu	1.138247	-0.121127	1.096660
Cu111	Cu	0.760388	-0.661769	0.555869
Cu112	Cu	1.260388	-0.161769	1.055869
O113	O	0.647654	-0.564181	0.615509
O114	O	1.147654	-0.064181	1.115509
N115	N	0.846295	-0.690358	0.527176
N116	N	1.346295	-0.190358	1.027176
N117	N	0.114503	-0.154778	0.625499
N118	N	0.614503	0.345222	1.125499
O119	O	-0.033701	0.043855	0.619632
O120	O	0.466299	0.543855	1.119632
O121	O	0.130190	0.043858	0.498933
O122	O	0.630190	0.543858	0.998933
O123	O	0.026233	0.043841	0.499224
O124	O	0.526233	0.543841	0.999224
O125	O	0.070257	0.043872	0.619341
O126	O	0.570257	0.543872	1.119341
O127	O	0.060690	-0.059448	0.533654
O128	O	0.560690	0.440552	1.033654
O129	O	0.164647	-0.059431	0.533363
O130	O	0.664647	0.440569	1.033363
O131	O	0.000756	-0.059434	0.654062
O132	O	0.500756	0.440566	1.154062
Cu133	Cu	0.085848	-0.068863	0.596857
Cu134	Cu	0.585848	0.431137	1.096857
Cu135	Cu	0.045099	0.053287	0.556138
Cu136	Cu	0.545099	0.553287	1.056138
O137	O	0.104714	-0.059417	0.653771
O138	O	0.604714	0.440583	1.153771
N139	N	0.016435	0.139202	0.527497
N140	N	0.516435	0.639202	1.027497
N141	N	0.114760	-0.592585	1.063190
N142	N	0.614760	-0.092585	1.563190
O143	O	0.108896	-0.740779	1.261808
O144	O	0.608896	-0.240779	1.761808
O145	O	-0.011787	-0.576838	1.261822
O146	O	0.488213	-0.076838	1.761822
O147	O	-0.011509	-0.680779	1.261780
O148	O	0.488491	-0.180779	1.761780
O149	O	0.108618	-0.636838	1.261850
O150	O	0.608618	-0.136838	1.761850
O151	O	0.022916	-0.646341	1.158496
O152	O	0.522916	-0.146341	1.658496
O153	O	0.022638	-0.542399	1.158538
O154	O	0.522638	-0.042399	1.658538
O155	O	0.143321	-0.706341	1.158524
O156	O	0.643321	-0.206341	1.658524
Cu157	Cu	0.086123	-0.621225	1.149100
Cu158	Cu	0.586123	-0.121225	1.649100
Cu159	Cu	0.045411	-0.661953	1.271246
Cu160	Cu	0.545411	-0.161953	1.771246
O161	O	0.143044	-0.602399	1.158566
O162	O	0.643044	-0.102399	1.658566
N163	N	0.016774	-0.690600	1.357156
N164	N	0.516774	-0.190600	1.857156
C165	C	0.039504	-0.538867	0.499769
C166	C	0.539504	-0.038867	0.999769
C167	C	0.168130	-0.667407	0.499680
C168	C	0.668130	-0.167407	0.999680
C169	C	0.091482	-0.744243	0.653289
C170	C	0.591482	-0.244243	1.153289
C171	C	-0.037145	-0.615703	0.653378
C172	C	0.462855	-0.115703	1.153378
C173	C	0.699429	-0.718429	0.678853
C174	C	1.199429	-0.218429	1.178853
C175	C	0.699348	-0.718091	0.550135
C176	C	1.199348	-0.218091	1.050135
C177	C	0.699202	-0.564465	0.473677
C178	C	1.199202	-0.064465	0.973677
C179	C	0.699287	-0.564805	0.602393
C180	C	1.199287	-0.064805	1.102393
C181	C	0.168023	-0.007659	0.499484
C182	C	0.668023	0.492341	0.999484
C183	C	0.039327	-0.007807	0.499887
C184	C	0.539327	0.492193	0.999887
C185	C	-0.037119	-0.007789	0.653468
C186	C	0.462881	0.492211	1.153468
C187	C	0.091620	-0.007770	0.653109
C188	C	0.591620	0.492230	1.153109
C189	C	-0.011194	-0.538964	1.210181
C190	C	0.488806	-0.038964	1.710181
C191	C	-0.010843	-0.667676	1.210109
C192	C	0.489157	-0.167676	1.710109
C193	C	0.142729	-0.744214	1.210165
C194	C	0.642729	-0.244214	1.710165
C195	C	0.142386	-0.615494	1.210214
C196	C	0.642386	-0.115494	1.710214
H197	H	0.059391	-0.503396	0.940172
H198	H	0.559391	-0.003396	1.440172
N199	N	0.699489	-0.768631	0.741198
N200	N	1.199489	-0.268631	1.241198
H201	H	0.699495	-0.752706	0.768964
H202	H	1.199495	-0.252706	1.268964
H203	H	0.737795	-0.806136	0.735366
H204	H	1.237795	-0.306136	1.235366
H205	H	0.699278	-0.527058	0.611808
H206	H	1.199278	-0.027058	1.111808
H207	H	0.101045	-0.007760	0.690842
H208	H	0.601045	0.492240	1.190842
H209	H	0.030155	-0.491745	0.461969
H210	H	0.530155	0.008255	0.961969
H211	H	-0.048566	-0.677061	1.210046
H212	H	0.451434	-0.177061	1.710046
N213	N	0.192919	-0.806582	1.210169
N214	N	0.692919	-0.306582	1.710169
H215	H	0.204926	-0.826355	1.248466
H216	H	0.704926	-0.326355	1.748466
H217	H	0.230420	-0.800782	1.171866
H218	H	0.730420	-0.300782	1.671866
N219	N	0.699367	-0.768099	0.537673
N220	N	1.199367	-0.268099	1.037673
H221	H	0.737680	-0.805648	0.542565
H222	H	1.237680	-0.305648	1.042565
H223	H	0.699305	-0.751936	0.493967
H224	H	1.199305	-0.251936	0.993967
N225	N	0.026892	-0.007844	0.449885
N226	N	0.526892	0.492156	0.949885
H227	H	0.057364	-0.046143	0.437869
H228	H	0.557364	0.453857	0.937869
H229	H	0.031800	0.030460	0.412347
H230	H	0.531800	0.530460	0.912347
H231	H	0.100832	-0.791364	0.691090
H232	H	0.600832	-0.291364	1.191090
N233	N	0.699124	-0.514258	0.411337
N234	N	1.199124	-0.014258	0.911337
H235	H	0.699116	-0.530181	0.383573
H236	H	1.199116	-0.030181	0.883573
H237	H	0.737392	-0.502235	0.391600
H238	H	1.237392	-0.002235	0.891600
N239	N	0.192378	-0.603051	1.210239
N240	N	0.692378	-0.103051	1.710239
H241	H	0.176270	-0.559335	1.210249
H242	H	0.676270	-0.059335	1.710249
H243	H	0.229922	-0.608009	1.171953
H244	H	0.729922	-0.108009	1.671953
N245	N	0.230240	-0.007280	0.449161
N246	N	0.730240	0.492720	0.949161
H247	H	0.257983	-0.007187	0.465046
H248	H	0.757983	0.492813	0.965046
H249	H	0.224199	0.031092	0.411764
H250	H	0.724199	0.531092	0.911764
N251	N	0.230505	-0.679701	0.449549
N252	N	0.730505	-0.179701	0.949549
H253	H	0.258224	-0.723400	0.465541
H254	H	0.758224	-0.223400	0.965541
H255	H	0.250264	-0.649163	0.437523
H256	H	0.750264	-0.149163	0.937523
N257	N	-0.099461	-0.007796	0.703670
N258	N	0.400539	0.492204	1.203670
H259	H	-0.133086	0.030488	0.688561
H260	H	0.366914	0.530488	1.188561
H261	H	-0.099473	-0.007814	0.741984
H262	H	0.400527	0.492186	1.241984
N263	N	0.003256	-0.538586	1.066707
N264	N	0.503256	-0.038586	1.566707
H265	H	-0.020238	-0.511611	1.036259
H266	H	0.479762	-0.011611	1.536259
H267	H	-0.008033	-0.515166	1.093686
H268	H	0.491967	-0.015166	1.593686
H269	H	-0.049082	-0.491880	1.210184
H270	H	0.450918	0.008120	1.710184
H271	H	0.252044	-0.599714	0.940097
H272	H	0.752044	-0.099714	1.440097
N273	N	0.223967	-0.648917	1.066630
N274	N	0.723967	-0.148917	1.566630
H275	H	0.267735	-0.655570	1.036160
H276	H	0.767735	-0.155570	1.536160
H277	H	0.217308	-0.690333	1.093599
H278	H	0.717308	-0.190333	1.593599
H279	H	0.059274	-0.503369	0.714648
H280	H	0.559274	-0.003369	1.214648
H281	H	0.019945	-0.542665	0.675322
H282	H	0.519945	-0.042665	1.175322
N283	N	-0.099526	-0.603409	0.703501
N284	N	0.400474	-0.103409	1.203501
H285	H	-0.107580	-0.567415	0.713849
H286	H	0.392420	-0.067415	1.213849
H287	H	-0.099628	-0.641648	0.741849
H288	H	0.400372	-0.141648	1.241849
N289	N	0.223705	-0.648850	0.569101
N290	N	0.723705	-0.148850	1.069101
H291	H	0.267484	-0.655254	0.562177
H292	H	0.767484	-0.155254	1.062177
H293	H	0.216800	-0.627874	0.527809
H294	H	0.716800	-0.127874	1.027809
H295	H	0.251872	-0.599651	0.618278
H296	H	0.751872	-0.099651	1.118278
H297	H	0.429307	-0.646943	0.702793
H298	H	0.929307	-0.146943	1.202793
H299	H	0.547237	-0.686258	0.663446
H300	H	1.047237	-0.186258	1.163446
H301	H	0.547206	-0.495421	0.590679
H302	H	1.047206	0.004579	1.090679
H303	H	0.203661	-0.277820	0.570179
H304	H	0.703661	0.222180	1.070179
N305	N	0.420656	-0.439343	0.627594
N306	N	0.920656	0.060657	1.127594
H307	H	0.431944	-0.415213	0.581635
H308	H	0.931944	0.084787	1.081635
H309	H	0.431991	-0.425077	0.648511
H310	H	0.931991	0.074923	1.148511
N311	N	0.168443	-0.151270	0.514006
N312	N	0.668443	0.348730	1.014006
H313	H	0.152547	-0.162581	0.494572
H314	H	0.652547	0.337419	0.994572
H315	H	0.215077	-0.162589	0.494607
H316	H	0.715077	0.337411	0.994607
N317	N	0.058229	-0.151315	0.734692
N318	N	0.558229	0.348685	1.234692
H319	H	0.051599	-0.181781	0.778467
H320	H	0.551599	0.318219	1.278467
H321	H	0.016804	-0.124341	0.728036
H322	H	0.516804	0.375659	1.228036
H323	H	0.107441	-0.277854	0.762810
H324	H	0.607441	0.222146	1.262810
