data_functionalizedCrystal
_audit_creation_method	'MofGen! by Chris Wilmer'
_symmetry_space_group_name_H-M	'P1'
_symmetry_Int_Tables_number	1
_symmetry_cell_setting	triclinic
loop_
_symmetry_equiv_pos_as_xyz
  x,y,z
_cell_length_a	15.944551
_cell_length_b	10.868271
_cell_length_c	11.792241
_cell_angle_alpha	89.998922
_cell_angle_beta	83.846077
_cell_angle_gamma	89.999718
loop_
_atom_site_label
_atom_site_type_symbol
_atom_site_fract_x
_atom_site_fract_y
_atom_site_fract_z
O1	O	1.115186	-0.102194	0.146373
O2	O	1.448519	0.231139	0.479707
O3	O	1.781852	0.564472	0.813040
O4	O	0.870717	-0.102225	0.164420
O5	O	1.204051	0.231108	0.497754
O6	O	1.537384	0.564442	0.831087
O7	O	0.998884	-0.102200	-0.009823
O8	O	1.332217	0.231133	0.323511
O9	O	1.665551	0.564466	0.656844
O10	O	0.987019	-0.102219	0.320616
O11	O	1.320352	0.231114	0.653950
O12	O	1.653686	0.564448	0.987283
O13	O	0.998871	0.102444	-0.009815
O14	O	1.332204	0.435778	0.323518
O15	O	1.665538	0.769111	0.656852
O16	O	0.870704	0.102420	0.164428
O17	O	1.204038	0.435753	0.497761
O18	O	1.537371	0.769086	0.831095
O19	O	1.115173	0.102450	0.146381
O20	O	1.448506	0.435784	0.479714
O21	O	1.781839	0.769117	0.813047
Zn22	Zn	0.992937	0.134927	0.155405
Zn23	Zn	1.326270	0.468260	0.488739
Zn24	Zn	1.659603	0.801593	0.822072
Zn25	Zn	0.992953	-0.134701	0.155396
Zn26	Zn	1.326287	0.198632	0.488729
Zn27	Zn	1.659620	0.531965	0.822062
O28	O	0.987006	0.102426	0.320624
O29	O	1.320339	0.435759	0.653957
O30	O	1.653673	0.769092	0.987290
C31	C	0.839414	0.000093	0.163675
C32	C	1.172747	0.333427	0.497008
C33	C	1.506080	0.666760	0.830342
C34	C	0.746157	0.000082	0.161429
C35	C	1.079491	0.333415	0.494762
C36	C	1.412824	0.666749	0.828095
N37	N	0.992931	0.318941	0.155411
N38	N	1.326264	0.652274	0.488745
N39	N	1.659598	0.985607	0.822078
C40	C	0.992937	0.430278	0.155413
C41	C	1.326270	0.763612	0.488746
C42	C	1.659604	1.096945	0.822079
C43	C	0.992947	0.569956	0.155403
C44	C	1.326281	0.903289	0.488737
C45	C	1.659614	1.236623	0.822070
C46	C	0.530789	0.000112	0.048056
C47	C	0.864122	0.333446	0.381389
C48	C	1.197456	0.666779	0.714723
C49	C	0.470013	-0.100791	0.100699
C50	C	0.803346	0.232542	0.434032
C51	C	1.136680	0.565875	0.767366
C52	C	0.575413	0.000097	0.157365
C53	C	0.908747	0.333430	0.490699
C54	C	1.242080	0.666763	0.824032
C55	C	0.470023	0.100972	0.100732
C56	C	0.803356	0.434306	0.434065
C57	C	1.136689	0.767639	0.767399
C58	C	0.410483	0.000116	0.153432
C59	C	0.743816	0.333450	0.486766
C60	C	1.077149	0.666783	0.820099
C61	C	0.515865	-0.100890	0.210038
C62	C	0.849199	0.232443	0.543372
C63	C	1.182532	0.565776	0.876705
C64	C	0.515881	0.100964	0.210056
C65	C	0.849215	0.434297	0.543389
C66	C	1.182548	0.767631	0.876723
C67	C	0.455123	0.000036	0.262778
C68	C	0.788456	0.333369	0.596112
C69	C	1.121790	0.666702	0.929445
C70	C	0.670426	0.000084	0.159628
C71	C	1.003759	0.333418	0.492961
C72	C	1.337092	0.666751	0.826295
C73	C	0.315471	0.000120	0.151178
C74	C	0.648805	0.333453	0.484511
C75	C	0.982138	0.666787	0.817845
C76	C	1.146476	0.000129	0.147126
C77	C	1.479810	0.333462	0.480460
C78	C	1.813143	0.666796	0.813793
C79	C	1.239733	0.000133	0.149372
C80	C	1.573066	0.333466	0.482706
C81	C	1.906399	0.666799	0.816039
N82	N	0.992960	0.681284	0.155389
N83	N	1.326293	1.014618	0.488723
N84	N	1.659626	1.347951	0.822056
C85	C	0.998132	0.000122	-0.052104
C86	C	1.331466	0.333455	0.281230
C87	C	1.664799	0.666788	0.614563
C88	C	0.995901	0.000120	-0.178099
C89	C	1.329235	0.333453	0.155234
C90	C	1.662568	0.666787	0.488568
C91	C	0.991799	0.000099	-0.408777
C92	C	1.325133	0.333432	-0.075444
C93	C	1.658466	0.666766	0.257889
C94	C	0.994079	0.000110	-0.280411
C95	C	1.327412	0.333444	0.052922
C96	C	1.660745	0.666777	0.386256
C97	C	0.987758	0.000101	0.362905
C98	C	1.321091	0.333434	0.696238
C99	C	1.654424	0.666768	1.029571
C100	C	0.989989	0.000094	0.488900
C101	C	1.323322	0.333428	0.822233
C102	C	1.656655	0.666761	1.155567
H103	H	0.563713	-0.000007	-0.042662
H104	H	0.897046	0.333326	0.290672
H105	H	1.230379	0.666659	0.624005
H106	H	0.449699	-0.186093	0.054463
H107	H	0.783033	0.147240	0.387796
H108	H	1.116366	0.480573	0.721129
H109	H	0.422374	-0.000026	0.353590
H110	H	0.755708	0.333308	0.686923
H111	H	1.089041	0.666641	1.020256
O112	O	0.542631	-0.214033	0.271190
O113	O	0.875964	0.119300	0.604523
O114	O	1.209298	0.452634	0.937857
H115	H	0.574525	-0.185800	0.346216
H116	H	0.907859	0.147533	0.679550
H117	H	1.241192	0.480866	1.012883
H118	H	0.449722	0.186275	0.054482
H119	H	0.783056	0.519609	0.387815
H120	H	1.116389	0.852942	0.721148
O121	O	0.542839	0.213953	0.271246
O122	O	0.876173	0.547286	0.604579
O123	O	1.209506	0.880620	0.937912
H124	H	0.524688	0.297596	0.225695
H125	H	0.858021	0.630929	0.559028
H126	H	1.191354	0.964262	0.892361
