data_functionalizedCrystal
_audit_creation_method	'MofGen! by Chris Wilmer'
_symmetry_space_group_name_H-M	'P1'
_symmetry_Int_Tables_number	1
_symmetry_cell_setting	triclinic
loop_
_symmetry_equiv_pos_as_xyz
  x,y,z
_cell_length_a	14.853567
_cell_length_b	16.109318
_cell_length_c	15.186229
_cell_angle_alpha	90.002030
_cell_angle_beta	89.996484
_cell_angle_gamma	83.551747
loop_
_atom_site_label
_atom_site_type_symbol
_atom_site_fract_x
_atom_site_fract_y
_atom_site_fract_z
O1	O	0.115950	1.103288	0.073148
O2	O	0.615950	1.603288	0.573148
O3	O	0.130355	0.861248	0.073165
O4	O	0.630355	1.361248	0.573165
O5	O	-0.008087	0.988733	0.073158
O6	O	0.491913	1.488733	0.573158
O7	O	0.254393	0.975803	0.073154
O8	O	0.754393	1.475803	0.573154
O9	O	-0.008080	0.988718	-0.073299
O10	O	0.491920	1.488718	0.426701
O11	O	0.130363	0.861233	-0.073293
O12	O	0.630363	1.361233	0.426707
O13	O	0.115958	1.103273	-0.073309
O14	O	0.615958	1.603273	0.426691
Zn15	Zn	0.123162	0.982251	-0.096554
Zn16	Zn	0.623162	1.482251	0.403446
Zn17	Zn	0.123151	0.982270	0.096410
Zn18	Zn	0.623151	1.482270	0.596410
O19	O	0.254400	0.975788	-0.073303
O20	O	0.754400	1.475788	0.426697
C21	C	0.129773	0.830265	-0.000062
C22	C	0.629773	1.330265	0.499938
C23	C	0.128015	0.737968	-0.000055
C24	C	0.628015	1.237968	0.499945
C25	C	0.122334	0.438894	0.079764
C26	C	0.622334	0.938894	0.579764
C27	C	0.123980	0.525618	0.079769
C28	C	0.623980	1.025618	0.579769
C29	C	0.123976	0.525621	-0.079907
C30	C	0.623976	1.025621	0.420093
C31	C	0.122324	0.438899	-0.079911
C32	C	0.622324	0.938899	0.420089
C33	C	0.121508	0.395538	-0.000073
C34	C	0.621508	0.895538	0.499927
C35	C	0.124805	0.568983	-0.000064
C36	C	0.624805	1.068983	0.499936
C37	C	0.126589	0.663012	-0.000058
C38	C	0.626589	1.163012	0.499942
C39	C	0.119722	0.301503	-0.000078
C40	C	0.619722	0.801503	0.499922
C41	C	-0.041671	0.988140	-0.000068
C42	C	0.458329	1.488140	0.499932
C43	C	-0.141752	0.986384	-0.000060
C44	C	0.358248	1.486384	0.499940
C45	C	-0.554154	0.903233	-0.000071
C46	C	-0.054154	1.403233	0.499929
C47	C	-0.575675	1.054689	-0.000081
C48	C	-0.075675	1.554689	0.499919
C49	C	-0.481644	1.056339	-0.000076
C50	C	0.018356	1.556339	0.499924
C51	C	-0.423864	0.981436	-0.000070
C52	C	0.076136	1.481436	0.499930
C53	C	-0.460114	0.904882	-0.000068
C54	C	0.039886	1.404882	0.499932
C55	C	-0.445386	1.132892	-0.000087
C56	C	0.054614	1.632892	0.499913
C57	C	-0.351350	1.134546	-0.000082
C58	C	0.148650	1.634546	0.499918
C59	C	-0.293567	1.059642	-0.000070
C60	C	0.206433	1.559642	0.499930
C61	C	-0.329823	0.983085	-0.000067
C62	C	0.170177	1.483085	0.499933
C63	C	-0.272043	0.908181	-0.000061
C64	C	0.227957	1.408181	0.499939
C65	C	-0.308297	0.831623	-0.000052
C66	C	0.191703	1.331623	0.499948
C67	C	-0.402332	0.829978	-0.000056
C68	C	0.097668	1.329978	0.499944
C69	C	-0.199533	1.061287	-0.000066
C70	C	0.300467	1.561287	0.499934
C71	C	-0.178003	0.909830	-0.000058
C72	C	0.321997	1.409830	0.499942
C73	C	0.287984	0.976381	-0.000075
C74	C	0.787984	1.476381	0.499925
C75	C	0.388065	0.978137	-0.000077
C76	C	0.888065	1.478137	0.499923
C77	C	0.116540	1.134256	-0.000081
C78	C	0.616540	1.634256	0.499919
C79	C	0.118298	1.226553	-0.000082
C80	C	0.618298	1.726553	0.499918
N81	N	0.123168	0.982243	-0.228247
N82	N	0.623168	1.482243	0.271753
C83	C	0.177854	1.032743	-0.453974
C84	C	0.677854	1.532743	0.046026
C85	C	0.177847	1.032752	-0.546164
C86	C	0.677847	1.532752	-0.046164
C87	C	0.068446	0.931782	-0.546164
C88	C	0.568446	1.431782	-0.046164
C89	C	0.068448	0.931778	-0.453976
C90	C	0.568448	1.431778	0.046024
C91	C	0.123157	0.982257	-0.407884
C92	C	0.623157	1.482257	0.092116
C93	C	0.123149	0.982270	-0.592261
C94	C	0.623149	1.482270	-0.092261
C95	C	0.123141	0.982280	-0.692217
C96	C	0.623141	1.482280	-0.192217
C97	C	0.123164	0.982249	-0.307921
C98	C	0.623164	1.482249	0.192079
N99	N	0.123138	0.982284	0.228102
N100	N	0.623138	1.482284	0.728102
H101	H	0.124642	0.560936	-0.144908
H102	H	0.624642	1.060936	0.355092
H103	H	0.023905	0.890683	-0.583703
H104	H	0.523905	1.390683	-0.083703
H105	H	0.124651	0.560915	0.144780
H106	H	0.624651	1.060915	0.644780
F107	F	-0.116515	0.830105	-0.000045
F108	F	0.383485	1.330105	0.499955
H109	H	0.121650	0.403598	-0.144928
H110	H	0.621650	0.903598	0.355072
F111	F	0.236061	1.086488	-0.595213
F112	F	0.736061	1.586488	-0.095213
H113	H	0.222401	1.073847	-0.416449
H114	H	0.722401	1.573847	0.083551
F115	F	-0.246792	0.751908	-0.000052
F116	F	0.253208	1.251908	0.499948
F117	F	-0.440923	0.748506	-0.000044
F118	F	0.059077	1.248506	0.499956
H119	H	0.023903	0.890665	-0.416448
H120	H	0.523903	1.390665	0.083552
H121	H	-0.622725	1.115671	-0.000094
H122	H	-0.122725	1.615671	0.499906
F123	F	0.121462	0.392749	0.164734
F124	F	0.621462	0.892749	0.664734
H125	H	-0.583677	0.840902	-0.000060
H126	H	-0.083677	1.340902	0.499940
H127	H	-0.492437	1.193874	-0.000100
H128	H	0.007563	1.693874	0.499900
H129	H	-0.321840	1.196884	-0.000088
H130	H	0.178160	1.696884	0.499912
F131	F	-0.160952	1.142760	-0.000090
F132	F	0.339048	1.642760	0.499910
