data_functionalizedCrystal
_audit_creation_method	'MofGen! by Chris Wilmer'
_symmetry_space_group_name_H-M	'P1'
_symmetry_Int_Tables_number	1
_symmetry_cell_setting	triclinic
loop_
_symmetry_equiv_pos_as_xyz
  x,y,z
_cell_length_a	21.395364
_cell_length_b	12.594516
_cell_length_c	21.395355
_cell_angle_alpha	89.988593
_cell_angle_beta	89.975448
_cell_angle_gamma	90.031004
loop_
_atom_site_label
_atom_site_type_symbol
_atom_site_fract_x
_atom_site_fract_y
_atom_site_fract_z
Zn1	Zn	0.957923	-0.423441	-0.354292
Zn2	Zn	1.457923	0.076559	0.145708
Zn3	Zn	0.957852	-0.601405	-0.249528
Zn4	Zn	1.457852	-0.101405	0.250472
Zn5	Zn	0.853138	-0.423487	-0.249529
Zn6	Zn	1.353138	0.076513	0.250471
Zn7	Zn	0.853134	-0.601424	-0.354268
Zn8	Zn	1.353134	-0.101424	0.145732
O9	O	0.905512	-0.512439	-0.301904
O10	O	1.405512	-0.012439	0.198096
O11	O	1.045591	-0.447021	-0.340405
O12	O	1.545591	0.052979	0.159595
O13	O	0.943934	-0.577815	-0.161850
O14	O	1.443934	-0.077815	0.338150
O15	O	0.867069	-0.274535	-0.263437
O16	O	1.367069	0.225465	0.236563
O17	O	1.045540	-0.577770	-0.263435
O18	O	1.545540	-0.077770	0.236565
O19	O	0.944054	-0.274501	-0.340406
O20	O	1.444054	0.225499	0.159594
O21	O	0.867001	-0.447100	-0.161851
O22	O	1.367001	0.052900	0.338149
O23	O	0.765460	-0.447119	-0.263413
O24	O	1.265460	0.052881	0.236587
O25	O	0.867062	-0.577803	-0.441949
O26	O	1.367062	-0.077803	0.058051
O27	O	0.765457	-0.577848	-0.340365
O28	O	1.265457	-0.077848	0.159635
O29	O	0.944050	-0.447039	-0.441967
O30	O	1.444050	0.052961	0.058033
O31	O	0.943930	-0.750353	-0.263411
O32	O	1.443930	-0.250353	0.236589
O33	O	0.866994	-0.750367	-0.340363
O34	O	1.366994	-0.250367	0.159637
C35	C	0.742724	-0.512491	-0.301887
C36	C	1.242724	-0.012491	0.198113
C37	C	0.673083	-0.512539	-0.301894
C38	C	1.173083	-0.012539	0.198106
C39	C	0.640419	-0.444569	-0.342034
C40	C	1.140419	0.055431	0.157966
C41	C	0.574984	-0.444541	-0.342037
C42	C	1.074984	0.055459	0.157963
C43	C	0.542215	-0.512501	-0.301906
C44	C	1.042215	-0.012501	0.198094
C45	C	0.574886	-0.580476	-0.261758
C46	C	1.074886	-0.080476	0.238242
C47	C	0.640320	-0.580495	-0.261752
C48	C	1.140320	-0.080495	0.238248
C49	C	0.438505	-0.608355	-0.296875
C50	C	0.938505	-0.108355	0.203125
C51	C	0.373072	-0.608338	-0.296885
C52	C	0.873072	-0.108338	0.203115
C53	C	0.340394	-0.512443	-0.301920
C54	C	0.840394	-0.012443	0.198080
C55	C	0.373157	-0.416562	-0.306957
C56	C	0.873157	0.083438	0.193043
C57	C	0.438591	-0.416581	-0.306951
C58	C	0.938591	0.083419	0.193049
C59	C	0.471262	-0.512488	-0.301907
C60	C	0.971262	-0.012488	0.198093
C61	C	0.236778	-0.444436	-0.342065
C62	C	0.736778	0.055564	0.157935
C63	C	0.171341	-0.444406	-0.342063
C64	C	0.671341	0.055594	0.157937
C65	C	0.171245	-0.580351	-0.261787
C66	C	0.671245	-0.080351	0.238213
C67	C	0.236680	-0.580372	-0.261785
C68	C	0.736680	-0.080372	0.238215
C69	C	0.269443	-0.512416	-0.301928
C70	C	0.769443	-0.012416	0.198072
C71	C	0.905471	-0.788980	-0.301898
C72	C	1.405471	-0.288980	0.198102
C73	C	0.905510	-0.907286	-0.301917
C74	C	1.405510	-0.407286	0.198083
C75	C	0.863661	-0.976585	-0.343741
C76	C	1.363661	-0.476585	0.156259
C77	C	0.848391	-1.047432	-0.286569
C78	C	1.348391	-0.547432	0.213431
C79	C	0.920837	-1.047238	-0.359098
C80	C	1.420837	-0.547238	0.140902
C81	C	0.890211	-0.976575	-0.244714
C82	C	1.390211	-0.476575	0.255286
C83	C	0.962683	-0.976374	-0.317282
C84	C	1.462683	-0.476374	0.182718
C85	C	0.947435	-1.047189	-0.260070
C86	C	1.447435	-0.547189	0.239930
C87	C	1.068935	-0.512388	-0.301922
C88	C	1.568935	-0.012388	0.198078
C89	C	1.138576	-0.512366	-0.301930
C90	C	1.638576	-0.012366	0.198070
C91	C	0.905564	-0.512418	-0.465328
C92	C	1.405564	-0.012418	0.034672
C93	C	0.905586	-0.512409	-0.534969
C94	C	1.405586	-0.012409	-0.034969
C95	C	0.905570	-0.234818	-0.301924
C96	C	1.405570	0.265182	0.198076
C97	C	0.905595	-0.116513	-0.301933
C98	C	1.405595	0.383487	0.198067
C99	C	0.945672	-0.444317	-0.567692
C100	C	1.445672	0.055683	-0.067692
C101	C	0.945671	-0.444271	-0.633128
C102	C	1.445671	0.055729	-0.133128
C103	C	0.905591	-0.512336	-0.665837
C104	C	1.405591	-0.012336	-0.165837
C105	C	0.865497	-0.580432	-0.633106
C106	C	1.365497	-0.080432	-0.133106
C107	C	0.865495	-0.580469	-0.567672
C108	C	1.365495	-0.080469	-0.067672
C109	C	0.900629	-0.608176	-0.769510
C110	C	1.400629	-0.108176	-0.269510
C111	C	0.900636	-0.608141	-0.834943
C112	C	1.400636	-0.108141	-0.334943
C113	C	0.905595	-0.512224	-0.867658
C114	C	1.405595	-0.012224	-0.367658
C115	C	0.910560	-0.416337	-0.834933
C116	C	1.410560	0.083663	-0.334933
C117	C	0.910557	-0.416374	-0.769498
C118	C	1.410557	0.083626	-0.269498
C119	C	0.905589	-0.512304	-0.736790
C120	C	1.405589	-0.012304	-0.236790
C121	C	0.945682	-0.444077	-0.971334
C122	C	1.445682	0.055923	-0.471334
C123	C	0.945677	-0.444029	-1.036771
C124	C	1.445677	0.055971	-0.536771
C125	C	0.865506	-0.580200	-1.036748
C126	C	1.365506	-0.080200	-0.536748
C127	C	0.865508	-0.580238	-0.971312
C128	C	1.365508	-0.080238	-0.471312
C129	C	0.905599	-0.512178	-0.938610
C130	C	1.405599	-0.012178	-0.438610
C131	C	0.905496	-0.512384	-0.139117
C132	C	1.405496	-0.012384	0.360883
C133	C	0.905595	-0.512093	-0.069476
C134	C	1.405595	-0.012093	0.430524
H135	H	0.465106	-0.686449	-0.292775
H136	H	0.965106	-0.186449	0.207225
H137	H	0.263275	-0.635724	-0.229101
H138	H	0.763275	-0.135724	0.270899
H139	H	0.832865	-0.635608	-1.063379
H140	H	1.332865	-0.135608	-0.563379
H141	H	0.828207	-0.945582	-0.379060
H142	H	1.328207	-0.445582	0.120940
H143	H	0.978313	-0.388817	-0.659777
H144	H	1.478313	0.111183	-0.159777
H145	H	0.144565	-0.635686	-0.229111
H146	H	0.644565	-0.135686	0.270889
H147	H	0.800081	-1.078667	-0.273587
H148	H	1.300081	-0.578667	0.226413
H149	H	0.978317	-0.388896	-0.541070
H150	H	1.478317	0.111104	-0.041070
Br151	Br	0.917292	-0.286250	-0.725086
Br152	Br	1.417292	0.213750	-0.225086
Br153	Br	0.811087	-0.672884	-0.523258
Br154	Br	1.311087	-0.172884	-0.023258
Br155	Br	0.281245	-0.352207	-0.396538
Br156	Br	0.781245	0.147793	0.103462
H157	H	0.877226	-0.945664	-0.196349
H158	H	1.377226	-0.445664	0.303651
H159	H	0.933766	-1.078277	-0.407450
H160	H	1.433766	-0.578277	0.092550
H161	H	0.666915	-0.635846	-0.229064
H162	H	1.166915	-0.135846	0.270936
Br163	Br	0.684880	-0.352344	-0.396513
Br164	Br	1.184880	0.147656	0.103487
Br165	Br	0.811103	-0.672655	-0.926899
Br166	Br	1.311103	-0.172655	-0.426899
Br167	Br	0.917295	-0.286154	-0.879323
Br168	Br	1.417295	0.213846	-0.379323
Br169	Br	1.000088	-0.351709	-0.926948
Br170	Br	1.500088	0.148291	-0.426948
Br171	Br	1.000094	-0.351627	-1.081183
Br172	Br	1.500094	0.148373	-0.581183
H173	H	1.010982	-0.945142	-0.330292
H174	H	1.510982	-0.445142	0.169708
H175	H	0.896597	-0.686218	-0.861583
H176	H	1.396597	-0.186218	-0.361583
H177	H	0.346401	-0.686410	-0.292786
H178	H	0.846401	-0.186410	0.207214
H179	H	0.896424	-0.686263	-0.742879
H180	H	1.396424	-0.186263	-0.242879
H181	H	0.465264	-0.338511	-0.311051
H182	H	0.965264	0.161489	0.188949
Br183	Br	0.530416	-0.672701	-0.207288
Br184	Br	1.030416	-0.172701	0.292712
H185	H	0.548384	-0.389186	-0.374723
H186	H	1.048384	0.110814	0.125277
Br187	Br	0.328817	-0.286409	-0.313791
Br188	Br	0.828817	0.213591	0.186209
Br189	Br	1.006486	-1.098536	-0.201066
Br190	Br	1.506486	-0.598536	0.298934
Br191	Br	0.811098	-0.672799	-0.677496
Br192	Br	1.311098	-0.172799	-0.177496
H193	H	0.144747	-0.389051	-0.374749
H194	H	0.644747	0.110949	0.125251
