data_functionalizedCrystal
_audit_creation_method	'MofGen! by Chris Wilmer'
_symmetry_space_group_name_H-M	'P1'
_symmetry_Int_Tables_number	1
_symmetry_cell_setting	triclinic
loop_
_symmetry_equiv_pos_as_xyz
  x,y,z
_cell_length_a	18.050590
_cell_length_b	29.839131
_cell_length_c	18.050582
_cell_angle_alpha	90.033130
_cell_angle_beta	89.999233
_cell_angle_gamma	90.024397
loop_
_atom_site_label
_atom_site_type_symbol
_atom_site_fract_x
_atom_site_fract_y
_atom_site_fract_z
Zn1	Zn	1.135256	-0.179012	0.419547
Zn2	Zn	1.135152	-0.254134	0.295334
Zn3	Zn	1.011075	-0.179005	0.295405
Zn4	Zn	1.011008	-0.254101	0.419517
O5	O	1.073123	-0.216563	0.357451
O6	O	1.239167	-0.188994	0.403053
O7	O	1.118677	-0.244179	0.191419
O8	O	1.027620	-0.116138	0.311915
O9	O	1.239090	-0.244186	0.311794
O10	O	1.118855	-0.116144	0.403122
O11	O	1.027519	-0.188981	0.191471
O12	O	0.907142	-0.188950	0.311886
O13	O	1.027506	-0.244130	0.523445
O14	O	0.907093	-0.244123	0.403070
O15	O	1.118790	-0.188962	0.523468
O16	O	1.118612	-0.316997	0.311765
O17	O	1.027404	-0.316973	0.403001
C18	C	0.880171	-0.216532	0.357483
C19	C	0.797625	-0.216530	0.357514
C20	C	0.598169	-0.246619	0.406982
C21	C	0.548784	-0.205656	0.425270
C22	C	0.646495	-0.216555	0.357478
C23	C	0.548798	-0.257541	0.339189
C24	C	0.500510	-0.216583	0.357444
C25	C	0.598197	-0.175570	0.375801
C26	C	0.598215	-0.227483	0.289689
C27	C	0.548852	-0.186492	0.307951
C28	C	0.730593	-0.216540	0.357499
C29	C	0.416413	-0.216594	0.357423
C30	C	1.073010	-0.333286	0.357388
C31	C	1.073029	-0.383220	0.357386
C32	C	1.120619	-0.692831	0.405010
C33	C	1.120699	-0.880504	0.405054
O34	O	1.161051	-0.904742	0.445499
N35	N	1.073249	-0.904005	0.357533
C36	C	1.025772	-0.880585	0.310001
O37	O	0.985409	-0.904880	0.269588
C38	C	1.025688	-0.692912	0.309961
C39	C	1.073147	-0.669414	0.357480
C40	C	1.168073	-0.669333	0.452525
C41	C	1.168055	-0.622417	0.452511
C42	C	1.120583	-0.599000	0.404981
C43	C	1.073129	-0.622499	0.357465
C44	C	0.978208	-0.669493	0.262433
C45	C	0.978190	-0.622572	0.262428
C46	C	1.025648	-0.599074	0.309947
C47	C	1.025639	-0.552166	0.309920
N48	N	1.073089	-0.528665	0.357442
C49	C	1.120561	-0.552082	0.404972
C50	C	1.025820	-0.979115	0.310024
C51	C	1.025842	-1.026033	0.310033
C52	C	1.120769	-1.025949	0.405088
C53	C	1.120750	-0.979031	0.405075
C54	C	1.073270	-0.955614	0.357546
C55	C	1.120521	-0.453557	0.404937
C56	C	1.120501	-0.406637	0.404916
C57	C	1.025572	-0.406725	0.309865
C58	C	1.025594	-0.453640	0.309883
C59	C	1.073071	-0.477055	0.357425
O60	O	0.985303	-0.527900	0.269503
O61	O	1.160907	-0.527779	0.445391
C62	C	1.120636	-0.739747	0.405024
C63	C	1.073182	-0.763245	0.357509
C64	C	1.025710	-0.739828	0.309978
C65	C	1.073204	-0.810163	0.357518
C66	C	1.120676	-0.833580	0.405048
C67	C	1.168126	-0.810079	0.452569
C68	C	1.168108	-0.763164	0.452554
C69	C	0.978260	-0.763329	0.262457
C70	C	0.978282	-0.810244	0.262475
C71	C	1.025754	-0.833661	0.310005
C72	C	1.266828	-0.216594	0.357419
C73	C	1.349374	-0.216607	0.357406
C74	C	1.073152	-0.216543	0.551156
C75	C	1.073164	-0.216535	0.633702
C76	C	1.073257	-0.099385	0.357530
C77	C	1.073314	-0.049450	0.357564
C78	C	1.073137	-0.216550	0.164499
C79	C	1.073268	-0.216432	0.081953
C80	C	1.023562	-0.246494	0.833141
C81	C	1.091315	-0.257483	0.882510
C82	C	1.073201	-0.216500	0.784833
C83	C	1.005485	-0.205498	0.882545
C84	C	1.073230	-0.216468	0.930818
C85	C	1.140990	-0.227511	0.833115
C86	C	1.055114	-0.175507	0.833145
C87	C	1.122914	-0.186481	0.882492
C88	C	1.073183	-0.216520	0.700734
C89	C	1.073256	-0.216448	1.014915
H90	H	0.619805	-0.140910	0.391320
H91	H	1.159176	-0.472615	0.443656
O92	O	1.166626	-0.383881	0.451151
C93	C	1.208539	-0.414614	0.493093
H94	H	1.178129	-0.448069	0.495650
H95	H	1.264962	-0.419594	0.465936
C96	C	1.256533	-0.355176	0.568995
C97	C	1.219179	-0.396264	0.572142
H98	H	1.263099	-0.343856	0.617756
H99	H	1.228298	-0.334470	0.540737
H100	H	1.303548	-0.359332	0.546362
H101	H	1.172161	-0.392107	0.594766
H102	H	1.247407	-0.416970	0.600406
H103	H	1.206698	-0.603288	0.491207
H104	H	1.198285	-0.236842	0.811494
H105	H	0.527335	-0.161050	0.266072
O106	O	1.173120	-0.156200	0.908059
C107	C	1.208557	-0.135315	0.847627
H108	H	1.204625	-0.157887	0.796803
H109	H	1.180408	-0.101926	0.835463
C110	C	1.295435	-0.099389	0.929123
C111	C	1.290610	-0.127114	0.866701
H112	H	1.346048	-0.094328	0.940889
H113	H	1.271559	-0.113458	0.969838
H114	H	1.271972	-0.071568	0.918978
H115	H	1.314064	-0.154937	0.876850
H116	H	1.314492	-0.113049	0.825988
H117	H	0.619944	-0.236730	0.232392
O118	O	1.036691	-0.134193	0.807282
C119	C	0.965213	-0.122735	0.832438
H120	H	0.933141	-0.154562	0.846308
H121	H	0.969935	-0.100928	0.884105
C122	C	0.963474	-0.057593	0.754352
C123	C	0.924080	-0.096684	0.771382
H124	H	0.938101	-0.041521	0.716692
H125	H	1.011631	-0.065311	0.737406
H126	H	0.967406	-0.039426	0.797413
H127	H	0.920156	-0.114853	0.728324
H128	H	0.875921	-0.088968	0.788320
H129	H	0.527095	-0.292191	0.323737
O130	O	0.979482	-0.383903	0.263767
C131	C	0.989660	-0.337455	0.273940
H132	H	1.013949	-0.331016	0.331266
H133	H	1.029228	-0.324142	0.229910
C134	C	0.884683	-0.321304	0.196685
C135	C	0.914509	-0.313396	0.267095
H136	H	0.838328	-0.306462	0.192459
H137	H	0.877827	-0.352597	0.189828
H138	H	0.917664	-0.310210	0.160001
H139	H	0.881533	-0.324494	0.303777
H140	H	0.921357	-0.282104	0.273958
O141	O	0.932282	-0.833089	0.216235
C142	C	0.974590	-0.860246	0.168310
H143	H	1.033081	-0.846090	0.163745
H144	H	0.977142	-0.895792	0.191284
C145	C	0.866505	-0.878400	0.096696
C146	C	0.938343	-0.861012	0.091084
H147	H	0.844145	-0.878874	0.049061
H148	H	0.838000	-0.860105	0.128985
H149	H	0.868642	-0.908020	0.115844
H150	H	0.936205	-0.831390	0.071945
H151	H	0.966847	-0.879302	0.058790
O152	O	1.214263	-0.692006	0.498722
C153	C	1.256121	-0.661196	0.540666
H154	H	1.258684	-0.627765	0.510235
H155	H	1.228889	-0.656193	0.597052
C156	C	1.332023	-0.720519	0.588796
C157	C	1.335175	-0.679459	0.551418
H158	H	1.380786	-0.731785	0.595432
H159	H	1.303821	-0.741277	0.560540
H160	H	1.309327	-0.716344	0.635780
H161	H	1.357863	-0.683635	0.504431
H162	H	1.363383	-0.658702	0.579666
H163	H	0.986955	-0.472774	0.271183
H164	H	1.159394	-0.959901	0.443769
O165	O	1.166774	-1.048721	0.451342
C166	C	1.124460	-1.075865	0.499263
H167	H	1.065962	-1.061744	0.503802
H168	H	1.121929	-1.111433	0.476302
C169	C	1.232527	-1.093888	0.570922
C170	C	1.160680	-1.076542	0.576501
H171	H	1.254870	-1.094308	0.618565
H172	H	1.261036	-1.075602	0.538635
H173	H	1.230408	-1.123526	0.551784
H174	H	1.162801	-1.046903	0.595630
H175	H	1.132172	-1.094824	0.608793
O176	O	0.932123	-0.740655	0.216210
C177	C	0.890239	-0.771463	0.174289
H178	H	0.920676	-0.804896	0.171759
H179	H	0.833817	-0.776463	0.201444
C180	C	0.842204	-0.712138	0.098337
C181	C	0.879590	-0.753199	0.095225
H182	H	0.835632	-0.700872	0.049567
H183	H	0.870420	-0.691381	0.126582
H184	H	0.795190	-0.716310	0.120970
H185	H	0.926607	-0.749026	0.072601
H186	H	0.851382	-0.773955	0.066974
O187	O	0.932042	-0.599896	0.216188
C188	C	0.890148	-0.630701	0.174269
H189	H	0.920585	-0.664133	0.171725
H190	H	0.833733	-0.635703	0.201436
C191	C	0.842094	-0.571370	0.098341
C192	C	0.879481	-0.612431	0.095211
H193	H	0.835511	-0.560100	0.049576
H194	H	0.870316	-0.550615	0.126584
H195	H	0.795086	-0.575544	0.120984
H196	H	0.926492	-0.608255	0.072578
H197	H	0.851267	-0.633184	0.066963
O198	O	0.979677	-1.048787	0.263844
C199	C	0.937788	-1.018052	0.221882
H200	H	0.935187	-0.984597	0.252297
H201	H	0.965018	-1.013074	0.165496
C202	C	0.861954	-1.077486	0.173775
C203	C	0.858754	-1.036397	0.211133
H204	H	0.813204	-1.088803	0.167141
H205	H	0.890177	-1.098194	0.202043
H206	H	0.884650	-1.073332	0.126790
H207	H	0.836068	-1.040553	0.258120
H208	H	0.830526	-1.015691	0.182873
O209	O	0.937098	-0.194463	0.908361
C210	C	0.884933	-0.226199	0.883231
H211	H	0.906906	-0.243326	0.831218
H212	H	0.875202	-0.252352	0.928211
C213	C	0.784427	-0.181366	0.929164
C214	C	0.811412	-0.202399	0.865276
H215	H	0.739074	-0.166685	0.918091
H216	H	0.819571	-0.159985	0.946097
H217	H	0.776324	-0.203164	0.966641
H218	H	0.819523	-0.180600	0.827804
H219	H	0.776267	-0.223775	0.848336
H220	H	0.619826	-0.271999	0.448893
O221	O	1.214199	-0.832783	0.498847
C222	C	1.197896	-0.821303	0.572851
H223	H	1.169344	-0.787245	0.574365
H224	H	1.159695	-0.847710	0.597836
C225	C	1.305326	-0.860929	0.616036
C226	C	1.270264	-0.819096	0.617895
H227	H	1.349965	-0.859570	0.643822
H228	H	1.316309	-0.868665	0.566178
H229	H	1.273484	-0.882930	0.636855
H230	H	1.302102	-0.797097	0.597067
H231	H	1.259288	-0.811356	0.667750
O232	O	0.522906	-0.194715	0.493686
C233	C	0.548040	-0.226474	0.545732
H234	H	0.561906	-0.259158	0.516095
H235	H	0.599704	-0.213127	0.574622
C236	C	0.469943	-0.194903	0.639998
C237	C	0.486968	-0.235047	0.603597
H238	H	0.432274	-0.200190	0.675694
H239	H	0.453012	-0.173505	0.604935
H240	H	0.513002	-0.183785	0.664067
H241	H	0.443912	-0.246162	0.579522
H242	H	0.503891	-0.256447	0.638658
O243	O	0.973613	-0.276852	0.807319
C244	C	0.992970	-0.320009	0.832489
H245	H	1.054573	-0.320863	0.846328
H246	H	0.959448	-0.328415	0.884178
C247	C	0.900521	-0.353591	0.754470
C248	C	0.976184	-0.354642	0.771461
H249	H	0.890164	-0.374955	0.716827
H250	H	0.887477	-0.324515	0.737514
H251	H	0.872595	-0.360595	0.797549
H252	H	1.004109	-0.347632	0.728385
H253	H	0.989233	-0.383717	0.788409
O254	O	1.109482	-0.298819	0.908476
C255	C	1.051120	-0.315441	0.952522
H256	H	1.016593	-0.286262	0.974194
H257	H	1.014628	-0.338492	0.917766
C258	C	1.125711	-0.377714	0.991693
C259	C	1.083308	-0.341876	1.018316
H260	H	1.145565	-0.394022	1.032276
H261	H	1.165030	-0.366516	0.962016
H262	H	1.095294	-0.396918	0.962729
H263	H	1.113727	-0.322670	1.047271
H264	H	1.043995	-0.353071	1.048000
H265	H	0.987156	-0.960053	0.271319
H266	H	0.939562	-0.688617	0.223737
H267	H	1.206753	-0.744035	0.491249
