data_functionalizedCrystal
_audit_creation_method	'MofGen! by Chris Wilmer'
_symmetry_space_group_name_H-M	'P1'
_symmetry_Int_Tables_number	1
_symmetry_cell_setting	triclinic
loop_
_symmetry_equiv_pos_as_xyz
  x,y,z
_cell_length_a	29.019771
_cell_length_b	29.019011
_cell_length_c	29.015668
_cell_angle_alpha	60.004890
_cell_angle_beta	60.009825
_cell_angle_gamma	59.993818
loop_
_atom_site_label
_atom_site_type_symbol
_atom_site_fract_x
_atom_site_fract_y
_atom_site_fract_z
O1	O	0.063866	-0.673289	0.563007
O2	O	0.024059	-0.524205	0.453633
O3	O	0.118464	-0.618532	0.453552
O4	O	-0.030540	-0.578962	0.563088
O5	O	0.149785	-0.587215	0.484789
O6	O	0.055379	-0.492888	0.484869
O7	O	0.095186	-0.641972	0.594244
Cu8	Cu	0.078143	-0.564571	0.542409
Cu9	Cu	0.041102	-0.601606	0.505468
O10	O	0.000781	-0.547645	0.594325
N11	N	0.104196	-0.538525	0.568394
N12	N	0.015054	-0.627656	0.479483
C13	C	0.143783	-0.499167	0.850823
C14	C	0.386758	-0.499111	0.607645
C15	C	0.143618	-0.499136	0.607763
C16	C	0.143598	-0.256029	0.607770
C17	C	0.182748	-0.373362	0.646852
C18	C	0.182758	-0.460025	0.646847
C19	C	0.204440	-0.438361	0.668500
C20	C	0.298958	-0.422064	0.618723
C21	C	0.358043	-0.441753	0.599006
C22	C	0.358069	-0.537354	0.635461
C23	C	0.298985	-0.517664	0.655180
C24	C	0.196983	-0.343808	0.588767
C25	C	0.177262	-0.284720	0.569090
C26	C	0.129075	-0.284743	0.665586
C27	C	0.148797	-0.343831	0.685263
C28	C	0.124666	-0.445760	0.661149
C29	C	0.104961	-0.465454	0.641458
C30	C	0.201435	-0.513678	0.593176
C31	C	0.221143	-0.493984	0.612860
C32	C	0.124738	-0.445777	0.763064
C33	C	0.105085	-0.465488	0.822151
C34	C	0.201594	-0.513722	0.822097
C35	C	0.221247	-0.494012	0.763009
C36	C	0.182817	-0.460038	0.733494
C37	C	0.269432	-0.460018	0.646809
C38	C	0.121399	-0.520450	0.915812
C39	C	0.451745	-0.520012	0.585655
C40	C	0.121177	-0.520429	0.586502
C41	C	0.121544	-0.191035	0.586883
C42	C	-0.110592	-0.666601	0.440035
C43	C	-0.023978	-0.666709	0.440231
C44	C	-0.045598	-0.688342	0.418486
C45	C	-0.061967	-0.782825	0.468184
C46	C	-0.042323	-0.841914	0.487907
C47	C	0.053280	-0.842025	0.451623
C48	C	0.033634	-0.782937	0.431899
C49	C	-0.140218	-0.680832	0.498102
C50	C	-0.199302	-0.661065	0.517690
C51	C	-0.199129	-0.612843	0.421140
C52	C	-0.140045	-0.632610	0.401552
C53	C	-0.038209	-0.608622	0.425941
C54	C	-0.018555	-0.588961	0.445716
C55	C	0.029562	-0.685470	0.494059
C56	C	0.009908	-0.705133	0.474291
C57	C	-0.038037	-0.608631	0.323917
C58	C	-0.018247	-0.588973	0.264830
C59	C	0.029955	-0.685489	0.264893
C60	C	0.010165	-0.705145	0.323981
C61	C	-0.023833	-0.666715	0.353492
C62	C	-0.023990	-0.753339	0.440182
N63	N	0.504925	-0.538487	0.568205
O64	O	0.685342	-0.543679	0.433426
O65	O	0.685533	-0.653395	0.582361
O66	O	0.685457	-0.653145	0.487904
O67	O	0.685418	-0.543929	0.527882
O68	O	0.591592	-0.621921	0.519268
O69	O	0.591667	-0.622171	0.613725
O70	O	0.591477	-0.512455	0.464790
Cu71	Cu	0.583001	-0.564462	0.542121
Cu72	Cu	0.694008	-0.601388	0.505029
O73	O	0.591553	-0.512705	0.559246
N74	N	0.772084	-0.627363	0.478939
N75	N	0.104168	-0.137853	0.568408
O76	O	-0.030538	0.042663	0.563097
O77	O	0.118403	0.042683	0.453379
O78	O	0.023918	0.042657	0.453664
O79	O	0.063947	0.042689	0.562813
O80	O	0.055242	-0.051215	0.484950
O81	O	0.149727	-0.051189	0.484666
O82	O	0.000787	-0.051210	0.594384
Cu83	Cu	0.078117	-0.059771	0.542381
Cu84	Cu	0.041072	0.051244	0.505382
O85	O	0.095272	-0.051184	0.594099
N86	N	0.015015	0.129326	0.479356
N87	N	0.104469	-0.538576	0.968995
O88	O	0.099171	-0.673268	1.149499
O89	O	-0.010519	-0.524279	1.149527
O90	O	-0.010265	-0.618748	1.149494
O91	O	0.098916	-0.578799	1.149533
O92	O	0.021008	-0.587443	1.055625
O93	O	0.020753	-0.492974	1.055659
O94	O	0.130444	-0.641963	1.055630
Cu95	Cu	0.078454	-0.564610	1.047074
Cu96	Cu	0.041470	-0.601632	1.158084
O97	O	0.130189	-0.547494	1.055664
N98	N	0.015455	-0.627672	1.236163
C99	C	0.035988	-0.489761	0.454182
C100	C	0.152897	-0.606574	0.454082
C101	C	0.083257	-0.676417	0.593694
C102	C	-0.033653	-0.559604	0.593794
C103	C	0.638623	-0.652892	0.616806
C104	C	0.638531	-0.652583	0.499833
C105	C	0.638384	-0.512957	0.430345
C106	C	0.638480	-0.513267	0.547317
C107	C	0.152789	-0.004135	0.453875
C108	C	0.035820	-0.004282	0.454266
C109	C	-0.033639	-0.004275	0.593849
C110	C	0.083370	-0.004245	0.593498
C111	C	-0.009989	-0.489856	1.102597
C112	C	-0.009667	-0.606839	1.102536
C113	C	0.129914	-0.676386	1.102561
C114	C	0.129599	-0.559396	1.102601
H115	H	0.057789	-0.453866	0.846219
H116	H	0.195476	-0.003868	0.419344
C117	C	0.638694	-0.699426	0.674593
N118	N	0.638748	-0.734475	0.718118
H119	H	0.091761	-0.719242	0.628046
C120	C	0.210713	-0.617966	0.407612
N121	N	0.254262	-0.626546	0.372612
H122	H	0.638322	-0.478510	0.387573
H123	H	0.163899	-0.550848	1.102605
C124	C	0.638459	-0.466915	0.558874
N125	N	0.638443	-0.432002	0.567579
H126	H	0.027485	-0.446933	0.419832
H127	H	0.021738	-0.752445	0.348058
C128	C	-0.091469	-0.548212	0.640264
N129	N	-0.135017	-0.539631	0.675265
H130	H	0.638547	-0.686893	0.491276
C131	C	0.024246	-0.004306	0.407944
N132	N	0.015531	-0.004329	0.373056
C133	C	0.176405	-0.734226	1.102651
N134	N	0.211409	-0.777804	1.102757
C135	C	-0.091435	-0.004250	0.640373
N136	N	-0.134972	-0.004218	0.675410
C137	C	-0.055986	-0.618363	1.102466
N138	N	-0.090873	-0.627044	1.102411
H139	H	-0.044426	-0.447066	1.102605
C140	C	0.094948	-0.004236	0.639824
N141	N	0.103670	-0.004231	0.674718
H142	H	0.232890	-0.541375	0.846122
C143	C	0.082459	-0.408400	0.730600
N144	N	0.050616	-0.380248	0.706149
H145	H	0.268542	-0.505632	0.738936
H146	H	0.057658	-0.453826	0.653091
C147	C	0.243664	-0.551036	0.555795
N148	N	0.275473	-0.579172	0.527637
H149	H	0.137197	-0.367895	0.732563
C150	C	0.266507	-0.559419	0.686073
N151	N	0.242046	-0.590870	0.709342
C152	C	0.285046	-0.509687	0.597142
N153	N	0.333178	-0.521521	0.585309
H154	H	0.382132	-0.584293	0.642268
C155	C	0.390521	-0.400000	0.568108
N156	N	0.414985	-0.368549	0.544833
C157	C	0.067345	-0.727767	0.232439
N158	N	0.095510	-0.759613	0.207994
C159	C	0.234328	-0.376291	0.546514
N160	N	0.262455	-0.400757	0.514687
C161	C	0.192920	-0.252209	0.505190
N162	N	0.204717	-0.227723	0.457061
C163	C	0.091706	-0.252257	0.707839
N164	N	0.063548	-0.227790	0.739665
C165	C	0.266455	-0.358651	0.609514
N166	N	0.241973	-0.310888	0.602578
H167	H	-0.029822	-0.541673	0.240758
C168	C	-0.075485	-0.566351	0.388479
N169	N	-0.103562	-0.534511	0.360261
C170	C	-0.034206	-0.525062	0.429995
N171	N	-0.045994	-0.476934	0.418153
H172	H	-0.065723	-0.577332	0.347941
C173	C	0.025565	-0.769032	0.490005
N174	N	0.037361	-0.817160	0.501840
C175	C	0.075415	-0.750504	0.401099
N176	N	0.106885	-0.726076	0.377901
C177	C	0.066859	-0.727743	0.531500
N178	N	0.094956	-0.759585	0.559697
H179	H	0.093408	-0.418110	0.688821
H180	H	-0.073247	-0.865920	0.510699
C181	C	-0.125356	-0.750272	0.477296
N182	N	-0.173101	-0.725752	0.484159
C183	C	-0.107820	-0.718221	0.540435
N184	N	-0.083418	-0.746384	0.572322
C185	C	-0.231893	-0.676719	0.581571
N186	N	-0.256439	-0.688512	0.629685
C187	C	-0.231530	-0.575457	0.378807
N188	N	-0.255933	-0.547296	0.346922
C189	C	-0.107454	-0.616957	0.337672
N190	N	-0.082908	-0.605166	0.289557
C191	C	0.116670	-0.874585	0.442514
N192	N	0.164415	-0.899109	0.435651
