data_functionalizedCrystal
_audit_creation_method	'MofGen! by Chris Wilmer'
_symmetry_space_group_name_H-M	'P1'
_symmetry_Int_Tables_number	1
_symmetry_cell_setting	triclinic
loop_
_symmetry_equiv_pos_as_xyz
  x,y,z
_cell_length_a	6.817900
_cell_length_b	16.417825
_cell_length_c	14.125465
_cell_angle_alpha	95.891451
_cell_angle_beta	100.398878
_cell_angle_gamma	103.385495
loop_
_atom_site_label
_atom_site_type_symbol
_atom_site_fract_x
_atom_site_fract_y
_atom_site_fract_z
V1	V	-3.990804	-0.115165	-0.300311
V2	V	-3.657471	0.218168	0.033022
V3	V	-3.324137	0.551502	0.366355
O4	O	-3.979536	0.006275	-0.294248
O5	O	-3.646203	0.339608	0.039086
O6	O	-3.312869	0.672941	0.372419
O7	O	-3.942053	-0.229065	-0.298591
O8	O	-3.608719	0.104268	0.034742
O9	O	-3.275386	0.437602	0.368075
O10	O	-3.926955	-0.113069	-0.431135
O11	O	-3.593622	0.220265	-0.097802
O12	O	-3.260289	0.553598	0.235531
O13	O	-3.994738	-0.110525	-0.160786
O14	O	-3.661405	0.222809	0.172547
O15	O	-3.328071	0.556142	0.505881
V16	V	-4.476479	-0.100678	-0.283583
V17	V	-4.143146	0.232655	0.049751
V18	V	-3.809812	0.565989	0.383084
O19	O	-4.247341	-0.146944	-0.337008
O20	O	-3.914008	0.186389	-0.003674
O21	O	-3.580674	0.519723	0.329659
O22	O	-4.670139	-0.068899	-0.246886
O23	O	-4.336806	0.264434	0.086447
O24	O	-4.003472	0.597768	0.419780
O25	O	-4.302024	0.013222	-0.285303
O26	O	-3.968690	0.346555	0.048031
O27	O	-3.635357	0.679889	0.381364
O28	O	-4.605144	-0.222117	-0.289646
O29	O	-4.271810	0.111216	0.043687
O30	O	-3.938477	0.444549	0.377021
O31	O	-4.589942	-0.105318	-0.423108
O32	O	-4.256608	0.228015	-0.089775
O33	O	-3.923275	0.561349	0.243559
O34	O	-4.317121	-0.102774	-0.152759
O35	O	-3.983788	0.230559	0.180575
O36	O	-3.650454	0.563892	0.513908
C37	C	-3.787468	-0.256842	-0.293940
C38	C	-3.454135	0.076492	0.039394
C39	C	-3.120801	0.409825	0.372727
C40	C	-3.828792	-0.349954	-0.293405
C41	C	-3.495459	-0.016621	0.039928
C42	C	-3.162125	0.316713	0.373261
C43	C	-3.894128	-0.552433	-0.204054
C44	C	-3.560795	-0.219099	0.129279
C45	C	-3.227462	0.114234	0.462613
C46	C	-3.932978	-0.639923	-0.203559
C47	C	-3.599645	-0.306590	0.129774
C48	C	-3.266311	0.026744	0.463107
C49	C	-3.992533	-0.663411	-0.379851
C50	C	-3.659200	-0.330077	-0.046517
C51	C	-3.325867	0.003256	0.286816
C52	C	-3.953698	-0.575922	-0.380345
C53	C	-3.620365	-0.242588	-0.047011
C54	C	-3.287032	0.090745	0.286322
C55	C	-3.904485	-0.520434	-0.292443
C56	C	-3.571152	-0.187101	0.040890
C57	C	-3.237819	0.146232	0.374224
C58	C	-3.982171	-0.695414	-0.291454
C59	C	-3.648837	-0.362080	0.041879
C60	C	-3.315504	-0.028747	0.375212
C61	C	-4.024294	-0.790275	-0.290919
C62	C	-3.690960	-0.456942	0.042414
C63	C	-3.357627	-0.123608	0.375748
C64	C	-3.862363	-0.425567	-0.292978
C65	C	-3.529030	-0.092234	0.040355
C66	C	-3.195697	0.241099	0.373688
C67	C	-3.768209	-0.108876	-0.463012
C68	C	-3.434875	0.224458	-0.129678
C69	C	-3.101542	0.557791	0.203655
C70	C	-3.797287	-0.107915	-0.569963
C71	C	-3.463953	0.225418	-0.236630
C72	C	-3.130620	0.558751	0.096703
C73	C	-3.850585	-0.106154	-0.765781
C74	C	-3.517252	0.227179	-0.432448
C75	C	-3.183918	0.560512	-0.099115
C76	C	-4.036067	-0.109687	-0.818113
C77	C	-3.702733	0.223646	-0.484779
C78	C	-3.369400	0.556980	-0.151446
C79	C	-4.065724	-0.108707	-0.927073
C80	C	-3.732391	0.224626	-0.593739
C81	C	-3.399058	0.557960	-0.260406
C82	C	-3.820919	-0.107134	-0.656811
C83	C	-3.487586	0.226199	-0.323478
C84	C	-3.154253	0.559533	0.009855
C85	C	-4.119951	0.040994	-0.289952
C86	C	-3.786617	0.374328	0.043382
C87	C	-3.453284	0.707661	0.376715
C88	C	-4.057864	0.134106	-0.290492
C89	C	-3.724531	0.467439	0.042841
C90	C	-3.391197	0.800773	0.376174
C91	C	-4.139210	-0.106970	-0.120877
C92	C	-3.805877	0.226363	0.212456
C93	C	-3.472544	0.559697	0.545790
C94	C	-4.089371	-0.107926	-0.013925
C95	C	-3.756037	0.225407	0.319409
C96	C	-3.422704	0.558741	0.652742
H97	H	-3.924544	-0.665971	-0.131584
H98	H	-3.591210	-0.332638	0.201749
H99	H	-3.257877	0.000696	0.535083
H100	H	-4.172593	-0.113456	-0.781085
H101	H	-3.839260	0.219877	-0.447752
H102	H	-3.505927	0.553211	-0.114419
H103	H	-3.962145	-0.549870	-0.452326
H104	H	-3.628812	-0.216537	-0.118993
H105	H	-3.295479	0.116796	0.214340
H106	H	-4.032603	-0.708599	-0.451417
H107	H	-3.699270	-0.375265	-0.118083
H108	H	-3.365936	-0.041932	0.215250
H109	H	-3.714074	-0.102395	-0.802808
H110	H	-3.380741	0.230938	-0.469475
H111	H	-3.047408	0.564272	-0.136141
H112	H	-3.854057	-0.507256	-0.132479
H113	H	-3.520724	-0.173923	0.200855
H114	H	-3.187390	0.159410	0.534188
