data_functionalizedCrystal
_audit_creation_method	'MofGen! by Chris Wilmer'
_symmetry_space_group_name_H-M	'P1'
_symmetry_Int_Tables_number	1
_symmetry_cell_setting	triclinic
loop_
_symmetry_equiv_pos_as_xyz
  x,y,z
_cell_length_a	12.759400
_cell_length_b	17.077404
_cell_length_c	17.077396
_cell_angle_alpha	89.980499
_cell_angle_beta	90.019361
_cell_angle_gamma	89.996728
loop_
_atom_site_label
_atom_site_type_symbol
_atom_site_fract_x
_atom_site_fract_y
_atom_site_fract_z
Zn1	Zn	0.418260	1.200163	-0.443892
Zn2	Zn	0.593960	1.200115	-0.312647
Zn3	Zn	0.418297	1.068895	-0.312640
Zn4	Zn	0.593898	1.068908	-0.443871
O5	O	0.506104	1.134520	-0.378263
O6	O	0.441578	1.310003	-0.426494
O7	O	0.570700	1.182683	-0.202799
O8	O	0.271271	1.086322	-0.330057
O9	O	0.570664	1.309969	-0.330069
O10	O	0.271244	1.182764	-0.426488
O11	O	0.441640	1.086276	-0.202794
O12	O	0.441580	0.959050	-0.330037
O13	O	0.570558	1.086345	-0.553721
O14	O	0.570594	0.959059	-0.426451
O15	O	0.441517	1.182777	-0.553737
O16	O	0.740973	1.182696	-0.330048
O17	O	0.740927	1.086299	-0.426458
C18	C	0.506085	0.930572	-0.378241
C19	C	0.506102	0.843323	-0.378251
C20	C	0.573381	0.802358	-0.428373
C21	C	0.573383	0.720378	-0.428386
C22	C	0.506111	0.679363	-0.378271
C23	C	0.438825	0.720333	-0.328146
C24	C	0.438818	0.802312	-0.328138
C25	C	0.438846	0.549463	-0.328165
C26	C	0.438853	0.467479	-0.328172
C27	C	0.573410	0.467529	-0.428412
C28	C	0.573404	0.549508	-0.428404
C29	C	0.506119	0.590472	-0.378278
C30	C	0.232071	1.134547	-0.378274
C31	C	0.115294	1.134558	-0.378279
C32	C	0.060444	1.084356	-0.328076
C33	C	-0.049280	1.084367	-0.328086
C34	C	-0.049295	1.184789	-0.428506
C35	C	0.060427	1.184774	-0.428499
C36	C	0.115311	1.034140	-0.277856
C37	C	0.060461	0.983934	-0.227648
C38	C	-0.049263	0.983945	-0.227658
C39	C	-0.104137	1.034162	-0.277877
C40	C	0.779071	1.134515	-0.378269
C41	C	0.895848	1.134585	-0.378297
C42	C	0.506026	1.134568	-0.583007
C43	C	0.505993	1.134588	-0.670257
C44	C	0.506124	1.339264	-0.378285
C45	C	0.506132	1.426514	-0.378295
C46	C	0.438796	1.184802	-0.711257
C47	C	0.438761	1.184812	-0.793237
C48	C	0.505930	1.134610	-0.834217
C49	C	0.573130	1.084391	-0.793211
C50	C	0.573158	1.084378	-0.711232
C51	C	0.573066	1.084422	-0.964081
C52	C	0.573039	1.084436	-1.046066
C53	C	0.438669	1.184856	-1.046086
C54	C	0.438698	1.184843	-0.964107
C55	C	0.505900	1.134624	-0.923108
C56	C	0.506105	1.134518	-0.174315
C57	C	0.505842	1.134650	-0.087066
H58	H	0.628169	0.687028	-0.469200
H59	H	0.105147	0.943044	-0.186766
O60	O	0.638763	0.842075	-0.477130
C61	C	0.772262	0.833462	-0.576528
C62	C	0.698255	0.788389	-0.521360
H63	H	0.820396	0.790077	-0.612290
H64	H	0.724142	0.871839	-0.617679
H65	H	0.827090	0.871849	-0.540408
H66	H	0.643412	0.749960	-0.557416
H67	H	0.746439	0.750062	-0.480206
H68	H	0.627815	1.043513	-0.826583
O69	O	0.638669	0.427619	-0.477085
C70	C	0.698357	0.301348	-0.521495
C71	C	0.624381	0.346451	-0.466354
H72	H	0.686847	0.235716	-0.512827
H73	H	0.680016	0.317439	-0.584829
H74	H	0.783036	0.317505	-0.507612
H75	H	0.539677	0.330318	-0.480167
H76	H	0.642812	0.330356	-0.403037
O77	O	-0.102383	0.935150	-0.178818
C78	C	-0.090781	0.835512	-0.079246
C79	C	-0.030496	0.890743	-0.134509
H80	H	-0.032687	0.799583	-0.043419
H81	H	-0.142105	0.871512	-0.038159
H82	H	-0.142194	0.794512	-0.115295
H83	H	0.020975	0.931755	-0.098523
H84	H	0.020762	0.854695	-0.175599
O85	O	-0.210724	1.034093	-0.277771
C86	C	-0.368172	0.978964	-0.222733
C87	C	-0.247467	0.978975	-0.222761
H88	H	-0.397916	0.934394	-0.178274
H89	H	-0.398014	1.039727	-0.206410
H90	H	-0.397945	0.962725	-0.283544
H91	H	-0.217605	0.995180	-0.161969
H92	H	-0.217696	0.918205	-0.239128
H93	H	0.105087	1.225644	-0.469388
O94	O	0.373402	0.427757	-0.279471
C95	C	0.239971	0.436354	-0.180021
C96	C	0.314023	0.481436	-0.235148
H97	H	0.191959	0.479733	-0.144160
H98	H	0.185039	0.398008	-0.216099
H99	H	0.288154	0.397935	-0.138953
H100	H	0.265924	0.519897	-0.276227
H101	H	0.368957	0.519731	-0.199022
O102	O	-0.102552	1.233486	-0.477394
C103	C	-0.136123	1.271652	-0.610924
C104	C	-0.075764	1.216441	-0.555649
H105	H	-0.114471	1.257903	-0.674204
H106	H	-0.223978	1.263036	-0.602371
H107	H	-0.114548	1.334938	-0.597106
H108	H	-0.097251	1.153135	-0.569432
H109	H	0.012076	1.225125	-0.564212
H110	H	0.384027	0.835665	-0.287328
H111	H	0.627867	1.043480	-0.677851
O112	O	0.373449	1.233594	-0.671574
C113	C	0.240209	1.333227	-0.680257
C114	C	0.314149	1.277998	-0.725291
H115	H	0.192261	1.369154	-0.723667
H116	H	0.185213	1.297225	-0.641894
H117	H	0.288478	1.374229	-0.641860
H118	H	0.265965	1.236985	-0.763730
H119	H	0.369147	1.314049	-0.763604
O120	O	0.373365	1.233475	-0.833093
C121	C	0.231502	1.244058	-0.925673
C122	C	0.305494	1.188858	-0.880576
H123	H	0.176625	1.208008	-0.964086
H124	H	0.183430	1.279919	-0.882331
H125	H	0.279735	1.285124	-0.964031
H126	H	0.257343	1.147745	-0.842218
H127	H	0.353569	1.153053	-0.923960
H128	H	0.384046	0.582814	-0.287354
H129	H	0.384046	0.686933	-0.287346
H130	H	0.383950	1.225745	-1.079472
O131	O	0.638462	1.035628	-0.924374
C132	C	0.771738	0.936029	-0.933001
C133	C	0.697736	0.991246	-0.978066
H134	H	0.819664	0.900120	-0.976391
H135	H	0.826751	0.972038	-0.894656
H136	H	0.723520	0.895009	-0.894584
H137	H	0.745869	1.032277	-1.016526
H138	H	0.642720	0.955188	-1.016362
H139	H	0.627731	1.043556	-1.079429
H140	H	0.204654	1.034127	-0.277840
H141	H	0.628188	0.582899	-0.469208
H142	H	0.384010	1.225726	-0.930744
