data_functionalizedCrystal
_audit_creation_method	'MofGen! by Chris Wilmer'
_symmetry_space_group_name_H-M	'P1'
_symmetry_Int_Tables_number	1
_symmetry_cell_setting	triclinic
loop_
_symmetry_equiv_pos_as_xyz
  x,y,z
_cell_length_a	18.050582
_cell_length_b	13.032831
_cell_length_c	13.032721
_cell_angle_alpha	89.097115
_cell_angle_beta	97.158902
_cell_angle_gamma	97.186361
loop_
_atom_site_label
_atom_site_type_symbol
_atom_site_fract_x
_atom_site_fract_y
_atom_site_fract_z
Zn1	Zn	-0.611866	-1.520186	-0.609483
Zn2	Zn	-0.278533	-1.186852	-0.276150
Zn3	Zn	0.054801	-0.853519	0.057183
Zn4	Zn	-0.501217	-1.498238	-0.781442
Zn5	Zn	-0.167883	-1.164905	-0.448109
Zn6	Zn	0.165450	-0.831571	-0.114776
Zn7	Zn	-0.470225	-1.348217	-0.587626
Zn8	Zn	-0.136892	-1.014884	-0.254293
Zn9	Zn	0.196442	-0.681550	0.079040
Zn10	Zn	-0.607901	-1.326334	-0.759530
Zn11	Zn	-0.274568	-0.993001	-0.426196
Zn12	Zn	0.058766	-0.659668	-0.092863
O13	O	-0.547802	-1.423244	-0.684521
O14	O	-0.214469	-1.089910	-0.351187
O15	O	0.118864	-0.756577	-0.017854
O16	O	-0.611818	-1.661186	-0.650612
O17	O	-0.278484	-1.327853	-0.317279
O18	O	0.054849	-0.994519	0.016055
O19	O	-0.393181	-1.478310	-0.755755
O20	O	-0.059847	-1.144977	-0.422422
O21	O	0.273486	-0.811644	-0.089089
O22	O	-0.477703	-1.389372	-0.446618
O23	O	-0.144370	-1.056039	-0.113285
O24	O	0.188963	-0.722706	0.220048
O25	O	-0.530524	-1.645061	-0.776949
O26	O	-0.197191	-1.311728	-0.443616
O27	O	0.136143	-0.978395	-0.110283
O28	O	-0.581766	-1.515717	-0.462677
O29	O	-0.248433	-1.182384	-0.129343
O30	O	0.084900	-0.849050	0.203990
O31	O	-0.370411	-1.368090	-0.613360
O32	O	-0.037078	-1.034757	-0.280026
O33	O	0.296255	-0.701424	0.053307
O34	O	-0.473859	-1.201402	-0.592112
O35	O	-0.140525	-0.868069	-0.258779
O36	O	0.192808	-0.534736	0.074555
O37	O	-0.712352	-1.352076	-0.739603
O38	O	-0.379019	-1.018743	-0.406269
O39	O	-0.045685	-0.685410	-0.072936
O40	O	-0.575009	-1.185325	-0.718409
O41	O	-0.241675	-0.851992	-0.385075
O42	O	0.091658	-0.518659	-0.051742
O43	O	-0.715265	-1.494498	-0.629364
O44	O	-0.381932	-1.161165	-0.296031
O45	O	-0.048598	-0.827831	0.037302
O46	O	-0.526679	-1.457091	-0.922443
O47	O	-0.193346	-1.123758	-0.589110
O48	O	0.139987	-0.790425	-0.255776
O49	O	-0.605060	-1.330794	-0.906344
O50	O	-0.271726	-0.997461	-0.573011
O51	O	0.061607	-0.664128	-0.239677
C52	C	-0.520641	-1.156049	-0.650512
C53	C	-0.187308	-0.822716	-0.317178
C54	C	0.146026	-0.489382	0.016155
C55	C	-0.509041	-1.041739	-0.635987
C56	C	-0.175707	-0.708405	-0.302654
C57	C	0.157626	-0.375072	0.030680
C58	C	-0.568821	-1.389215	-0.951711
C59	C	-0.235488	-1.055881	-0.618377
C60	C	0.097845	-0.722548	-0.285044
C61	C	-0.577848	-1.374751	-1.066028
C62	C	-0.244514	-1.041418	-0.732694
C63	C	0.088819	-0.708084	-0.399361
C64	C	-0.741509	-1.423294	-0.684477
C65	C	-0.408175	-1.089961	-0.351144
C66	C	-0.074842	-0.756628	-0.017811
C67	C	-0.824055	-1.423316	-0.684459
C68	C	-0.490721	-1.089983	-0.351125
C69	C	-0.157388	-0.756649	-0.017792
C70	C	-1.071294	-1.345945	-0.744303
C71	C	-0.737961	-1.012612	-0.410969
C72	C	-0.404627	-0.679279	-0.077636
C73	C	-1.011962	-1.332728	-0.647302
C74	C	-0.678629	-0.999394	-0.313969
C75	C	-0.345295	-0.666061	0.019364
C76	C	-1.121172	-1.423422	-0.684319
C77	C	-0.787839	-1.090089	-0.350985
C78	C	-0.454506	-0.756755	-0.017652
C79	C	-1.033419	-1.436540	-0.781377
C80	C	-0.700085	-1.103206	-0.448043
C81	C	-0.366752	-0.769873	-0.114710
C82	C	-0.975189	-1.423367	-0.684392
C83	C	-0.641855	-1.090033	-0.351059
C84	C	-0.308522	-0.756700	-0.017726
C85	C	-1.062918	-1.410163	-0.587262
C86	C	-0.729585	-1.076829	-0.253929
C87	C	-0.396252	-0.743496	0.079404
C88	C	-1.084389	-1.514010	-0.721405
C89	C	-0.751056	-1.180677	-0.388072
C90	C	-0.417722	-0.847343	-0.054738
C91	C	-1.025078	-1.500836	-0.624345
C92	C	-0.691744	-1.167503	-0.291011
C93	C	-0.358411	-0.834169	0.042322
C94	C	-1.205269	-1.423451	-0.684277
C95	C	-0.871936	-1.090118	-0.350944
C96	C	-0.538603	-0.756785	-0.017611
C97	C	-0.891092	-1.423339	-0.684423
C98	C	-0.557759	-1.090006	-0.351090
C99	C	-0.224426	-0.756673	-0.017756
C100	C	-0.354850	-1.423262	-0.684497
C101	C	-0.021516	-1.089928	-0.351164
C102	C	0.311817	-0.756595	-0.017830
C103	C	-0.272301	-1.423476	-0.684251
C104	C	0.061032	-1.090143	-0.350918
C105	C	0.394365	-0.756810	-0.017584
C106	C	-0.575070	-1.691482	-0.718663
C107	C	-0.241737	-1.358148	-0.385330
C108	C	0.091597	-1.024815	-0.051996
C109	C	-0.586690	-1.805789	-0.733212
C110	C	-0.253357	-1.472455	-0.399879
C111	C	0.079977	-1.139122	-0.066546
C112	C	-0.553856	-0.982836	-0.692101
C113	C	-0.220523	-0.649502	-0.358768
C114	C	0.112810	-0.316169	-0.025434
C115	C	-0.541868	-0.864690	-0.677091
C116	C	-0.208535	-0.531357	-0.343757
C117	C	0.124798	-0.198023	-0.010424
C118	C	-0.543130	-1.430847	-1.124932
C119	C	-0.209797	-1.097514	-0.791598
C120	C	0.123536	-0.764180	-0.458265
C121	C	-0.552459	-1.415900	-1.243085
C122	C	-0.219125	-1.082566	-0.909751
C123	C	0.114208	-0.749233	-0.576418
C124	C	-0.526720	-1.457434	-0.416291
C125	C	-0.193387	-1.124100	-0.082957
C126	C	0.139946	-0.790767	0.250376
C127	C	-0.517736	-1.472003	-0.301987
C128	C	-0.184403	-1.138670	0.031346
C129	C	0.148930	-0.805337	0.364680
H130	H	-1.091625	-1.280414	-0.794919
H131	H	-0.758292	-0.947081	-0.461585
H132	H	-0.424959	-0.613748	-0.128252
O133	O	-0.616445	-1.031876	-0.770457
O134	O	-0.283111	-0.698543	-0.437123
O135	O	0.050222	-0.365209	-0.103790
H136	H	-0.671299	-1.013572	-0.750322
H137	H	-0.337965	-0.680239	-0.416989
H138	H	-0.004632	-0.346906	-0.083656
O139	O	-0.626365	-1.296472	-1.115090
O140	O	-0.293031	-0.963138	-0.781757
O141	O	0.040302	-0.629805	-0.448423
H142	H	-0.684835	-1.316647	-1.096716
H143	H	-0.351502	-0.983314	-0.763383
H144	H	-0.018168	-0.649981	-0.430049
H145	H	-0.980527	-1.256097	-0.615961
H146	H	-0.647194	-0.922764	-0.282627
H147	H	-0.313860	-0.589430	0.050706
O148	O	-0.479270	-0.815648	-0.598744
O149	O	-0.145937	-0.482314	-0.265411
O150	O	0.187397	-0.148981	0.067922
H151	H	-0.479668	-0.730546	-0.599263
H152	H	-0.146334	-0.397213	-0.265929
H153	H	0.186999	-0.063879	0.067404
H154	H	-1.076107	-1.398956	-0.505178
H155	H	-0.742774	-1.065623	-0.171844
H156	H	-0.409440	-0.732289	0.161489
H157	H	-0.481108	-1.531104	-1.264951
H158	H	-0.147774	-1.197770	-0.931618
H159	H	0.185559	-0.864437	-0.598284
H160	H	-1.004869	-1.566341	-0.573583
H161	H	-0.671536	-1.233008	-0.240249
H162	H	-0.338202	-0.899674	0.093084
O163	O	-0.649280	-0.854827	-0.811573
O164	O	-0.315946	-0.521494	-0.478240
O165	O	0.017387	-0.188160	-0.144907
H166	H	-0.648874	-0.939927	-0.811071
H167	H	-0.315541	-0.606594	-0.477738
H168	H	0.017792	-0.273260	-0.144405
H169	H	-0.461800	-1.004701	-0.576829
H170	H	-0.128467	-0.671368	-0.243496
H171	H	0.204867	-0.338035	0.089837
O172	O	-1.126086	-1.615458	-0.762963
O173	O	-0.792753	-1.282124	-0.429629
O174	O	-0.459420	-0.948791	-0.096296
H175	H	-1.114590	-1.626182	-0.843554
H176	H	-0.781257	-1.292848	-0.510220
H177	H	-0.447923	-0.959515	-0.176887
H178	H	-0.506504	-1.489944	-1.087893
H179	H	-0.173171	-1.156610	-0.754559
H180	H	0.160163	-0.823277	-0.421226
O181	O	-0.600974	-1.337609	-1.292137
O182	O	-0.267641	-1.004276	-0.958804
O183	O	0.065692	-0.670943	-0.625470
H184	H	-0.647289	-1.377460	-1.346876
H185	H	-0.313956	-1.044127	-1.013542
H186	H	0.019377	-0.710793	-0.680209
O187	O	-1.015814	-1.451283	-0.890058
O188	O	-0.682480	-1.117949	-0.556725
O189	O	-0.349147	-0.784616	-0.223391
H190	H	-1.034261	-1.386898	-0.939657
H191	H	-0.700927	-1.053565	-0.606323
H192	H	-0.367594	-0.720232	-0.272990
