data_functionalizedCrystal
_audit_creation_method	'MofGen! by Chris Wilmer'
_symmetry_space_group_name_H-M	'P1'
_symmetry_Int_Tables_number	1
_symmetry_cell_setting	triclinic
loop_
_symmetry_equiv_pos_as_xyz
  x,y,z
_cell_length_a	25.639242
_cell_length_b	25.639240
_cell_length_c	25.639234
_cell_angle_alpha	89.967912
_cell_angle_beta	89.978465
_cell_angle_gamma	90.025061
loop_
_atom_site_label
_atom_site_type_symbol
_atom_site_fract_x
_atom_site_fract_y
_atom_site_fract_z
Zn1	Zn	0.799284	-0.208290	-0.295607
Zn2	Zn	1.049284	0.041710	-0.045607
Zn3	Zn	1.299284	0.291710	0.204393
Zn4	Zn	1.549284	0.541710	0.454393
Zn5	Zn	0.799205	-0.295718	-0.208160
Zn6	Zn	1.049205	-0.045718	0.041840
Zn7	Zn	1.299205	0.204282	0.291840
Zn8	Zn	1.549205	0.454282	0.541840
Zn9	Zn	0.711849	-0.208287	-0.208183
Zn10	Zn	0.961849	0.041713	0.041817
Zn11	Zn	1.211849	0.291713	0.291817
Zn12	Zn	1.461849	0.541713	0.541817
Zn13	Zn	0.711814	-0.295684	-0.295562
Zn14	Zn	0.961814	-0.045684	-0.045562
Zn15	Zn	1.211814	0.204316	0.204438
Zn16	Zn	1.461814	0.454316	0.454438
O17	O	0.755538	-0.251995	-0.251878
O18	O	1.005538	-0.001995	-0.001878
O19	O	1.255538	0.248005	0.248122
O20	O	1.505538	0.498005	0.498122
O21	O	0.872438	-0.219903	-0.284016
O22	O	1.122438	0.030097	-0.034016
O23	O	1.372438	0.280097	0.215984
O24	O	1.622438	0.530097	0.465984
O25	O	0.787599	-0.284133	-0.134998
O26	O	1.037599	-0.034133	0.115002
O27	O	1.287599	0.215867	0.365002
O28	O	1.537599	0.465867	0.615002
O29	O	0.723495	-0.135122	-0.219808
O30	O	0.973495	0.114878	0.030192
O31	O	1.223495	0.364878	0.280192
O32	O	1.473495	0.614878	0.530192
O33	O	0.872381	-0.284136	-0.219770
O34	O	1.122381	-0.034136	0.030230
O35	O	1.372381	0.215864	0.280230
O36	O	1.622381	0.465864	0.530230
O37	O	0.787733	-0.135124	-0.284038
O38	O	1.037733	0.114876	-0.034038
O39	O	1.287733	0.364876	0.215962
O40	O	1.537733	0.614876	0.465962
O41	O	0.723419	-0.219898	-0.135015
O42	O	0.973419	0.030102	0.114985
O43	O	1.223419	0.280102	0.364985
O44	O	1.473419	0.530102	0.614985
O45	O	0.638679	-0.219865	-0.219765
O46	O	0.888679	0.030135	0.030235
O47	O	1.138679	0.280135	0.280235
O48	O	1.388679	0.530135	0.530235
O49	O	0.723435	-0.284079	-0.368733
O50	O	0.973435	-0.034079	-0.118733
O51	O	1.223435	0.215921	0.131267
O52	O	1.473435	0.465921	0.381267
O53	O	0.638654	-0.284076	-0.283962
O54	O	0.888654	-0.034076	-0.033962
O55	O	1.138654	0.215924	0.216038
O56	O	1.388654	0.465924	0.466038
O57	O	0.787699	-0.219870	-0.368766
O58	O	1.037699	0.030130	-0.118766
O59	O	1.287699	0.280130	0.131234
O60	O	1.537699	0.530130	0.381234
O61	O	0.787565	-0.368879	-0.219726
O62	O	1.037565	-0.118879	0.030274
O63	O	1.287565	0.131121	0.280274
O64	O	1.537565	0.381121	0.530274
O65	O	0.723359	-0.368854	-0.283940
O66	O	0.973359	-0.118854	-0.033940
O67	O	1.223359	0.131146	0.216060
O68	O	1.473359	0.381146	0.466060
C69	C	0.619695	-0.251967	-0.251861
C70	C	0.869695	-0.001967	-0.001861
C71	C	1.119695	0.248033	0.248139
C72	C	1.369695	0.498033	0.498139
C73	C	0.561581	-0.251967	-0.251867
C74	C	0.811581	-0.001967	-0.001867
C75	C	1.061581	0.248033	0.248133
C76	C	1.311581	0.498033	0.498133
C77	C	0.755464	-0.387837	-0.251837
C78	C	1.005464	-0.137837	-0.001837
C79	C	1.255464	0.112163	0.248163
C80	C	1.505464	0.362163	0.498163
C81	C	0.755480	-0.445951	-0.251837
C82	C	1.005480	-0.195951	-0.001837
C83	C	1.255480	0.054049	0.248163
C84	C	1.505480	0.304049	0.498163
C85	C	0.310426	-0.218608	-0.285392
C86	C	0.560426	0.031392	-0.035392
C87	C	0.810426	0.281392	0.214608
C88	C	1.060426	0.531392	0.464608
C89	C	0.365030	-0.218603	-0.285390
C90	C	0.615030	0.031397	-0.035390
C91	C	0.865030	0.281397	0.214610
C92	C	1.115030	0.531397	0.464610
O93	O	0.393299	-0.190217	-0.313891
O94	O	0.643299	0.059783	-0.063891
O95	O	0.893299	0.309783	0.186109
O96	O	1.143299	0.559783	0.436109
N97	N	0.392307	-0.251989	-0.251884
N98	N	0.642307	-0.001989	-0.001884
N99	N	0.892307	0.248011	0.248116
N100	N	1.142307	0.498011	0.498116
C101	C	0.364978	-0.285386	-0.218383
C102	C	0.614978	-0.035386	0.031617
C103	C	0.864978	0.214614	0.281617
C104	C	1.114978	0.464614	0.531617
O105	O	0.393193	-0.313783	-0.189885
O106	O	0.643193	-0.063783	0.060115
O107	O	0.893193	0.186217	0.310115
O108	O	1.143193	0.436217	0.560115
C109	C	0.310374	-0.285393	-0.218389
C110	C	0.560374	-0.035393	0.031611
C111	C	0.810374	0.214607	0.281611
C112	C	1.060374	0.464607	0.531611
C113	C	0.283100	-0.252001	-0.251893
C114	C	0.533100	-0.002001	-0.001893
C115	C	0.783100	0.247999	0.248107
C116	C	1.033100	0.497999	0.498107
C117	C	0.283152	-0.185219	-0.318894
C118	C	0.533152	0.064781	-0.068894
C119	C	0.783152	0.314781	0.181106
C120	C	1.033152	0.564781	0.431106
C121	C	0.228551	-0.185224	-0.318896
C122	C	0.478551	0.064776	-0.068896
C123	C	0.728551	0.314776	0.181104
C124	C	0.978551	0.564776	0.431104
C125	C	0.201225	-0.218617	-0.285397
C126	C	0.451225	0.031383	-0.035397
C127	C	0.701225	0.281383	0.214603
C128	C	0.951225	0.531383	0.464603
C129	C	0.228499	-0.252006	-0.251895
C130	C	0.478499	-0.002006	-0.001895
C131	C	0.728499	0.247994	0.248105
C132	C	0.978499	0.497994	0.498105
C133	C	0.283045	-0.318792	-0.184892
C134	C	0.533045	-0.068792	0.065108
C135	C	0.783045	0.181208	0.315108
C136	C	1.033045	0.431208	0.565108
C137	C	0.228438	-0.318797	-0.184901
C138	C	0.478438	-0.068797	0.065099
C139	C	0.728438	0.181203	0.315099
C140	C	0.978438	0.431203	0.565099
C141	C	0.201164	-0.285405	-0.218405
C142	C	0.451164	-0.035405	0.031595
C143	C	0.701164	0.214595	0.281595
C144	C	0.951164	0.464595	0.531595
C145	C	0.146573	-0.285404	-0.218398
C146	C	0.396573	-0.035404	0.031602
C147	C	0.646573	0.214596	0.281602
C148	C	0.896573	0.464596	0.531602
N149	N	0.119295	-0.252018	-0.251904
N150	N	0.369295	-0.002018	-0.001904
N151	N	0.619295	0.247982	0.248096
N152	N	0.869295	0.497982	0.498096
C153	C	0.146622	-0.218625	-0.285403
C154	C	0.396622	0.031375	-0.035403
C155	C	0.646622	0.281375	0.214597
C156	C	0.896622	0.531375	0.464597
C157	C	0.479648	-0.285368	-0.218374
C158	C	0.729648	-0.035368	0.031626
C159	C	0.979648	0.214632	0.281626
C160	C	1.229648	0.464632	0.531626
C161	C	0.534250	-0.285359	-0.218365
C162	C	0.784250	-0.035359	0.031635
C163	C	1.034250	0.214641	0.281635
C164	C	1.284250	0.464641	0.531635
C165	C	0.534299	-0.218576	-0.285372
C166	C	0.784299	0.031424	-0.035372
C167	C	1.034299	0.281424	0.214628
C168	C	1.284299	0.531424	0.464628
C169	C	0.479696	-0.218584	-0.285378
C170	C	0.729696	0.031416	-0.035378
C171	C	0.979696	0.281416	0.214622
C172	C	1.229696	0.531416	0.464622
C173	C	0.452371	-0.251982	-0.251879
C174	C	0.702371	-0.001982	-0.001879
C175	C	0.952371	0.248018	0.248121
C176	C	1.202371	0.498018	0.498121
C177	C	0.031956	-0.218637	-0.285404
C178	C	0.281956	0.031363	-0.035404
C179	C	0.531956	0.281363	0.214596
C180	C	0.781956	0.531363	0.464596
C181	C	-0.022649	-0.218643	-0.285402
C182	C	0.227351	0.031357	-0.035402
C183	C	0.477351	0.281357	0.214598
C184	C	0.727351	0.531357	0.464598
C185	C	-0.022693	-0.285427	-0.218397
C186	C	0.227307	-0.035427	0.031603
C187	C	0.477307	0.214573	0.281603
C188	C	0.727307	0.464573	0.531603
C189	C	0.031907	-0.285419	-0.218398
C190	C	0.281907	-0.035419	0.031602
C191	C	0.531907	0.214581	0.281602
C192	C	0.781907	0.464581	0.531602
C193	C	0.059231	-0.252022	-0.251905
C194	C	0.309231	-0.002022	-0.001905
C195	C	0.559231	0.247978	0.248095
C196	C	0.809231	0.497978	0.498095
O197	O	0.118269	-0.313777	-0.189913
O198	O	0.368269	-0.063777	0.060087
O199	O	0.618269	0.186223	0.310087
O200	O	0.868269	0.436223	0.560087
O201	O	0.118400	-0.190237	-0.313902
O202	O	0.368400	0.059763	-0.063902
O203	O	0.618400	0.309763	0.186098
O204	O	0.868400	0.559763	0.436098
C205	C	0.789003	-0.806277	-0.285383
C206	C	1.039003	-0.556277	-0.035383
C207	C	1.289003	-0.306277	0.214617
C208	C	1.539003	-0.056277	0.464617
C209	C	0.789019	-0.860882	-0.285394
C210	C	1.039019	-0.610882	-0.035394
C211	C	1.289019	-0.360882	0.214606
C212	C	1.539019	-0.110882	0.464606
O213	O	0.817433	-0.889087	-0.313874
O214	O	1.067433	-0.639087	-0.063874
O215	O	1.317433	-0.389087	0.186126
O216	O	1.567433	-0.139087	0.436126
N217	N	0.755611	-0.888234	-0.251929
N218	N	1.005611	-0.638234	-0.001929
N219	N	1.255611	-0.388234	0.248071
N220	N	1.505611	-0.138234	0.498071
C221	C	0.722181	-0.860979	-0.218455
C222	C	0.972181	-0.610979	0.031545
C223	C	1.222181	-0.360979	0.281545
C224	C	1.472181	-0.110979	0.531545
O225	O	0.693766	-0.889258	-0.189991
O226	O	0.943766	-0.639258	0.060009
O227	O	1.193766	-0.389258	0.310009
O228	O	1.443766	-0.139258	0.560009
C229	C	0.722163	-0.806376	-0.218447
C230	C	0.972163	-0.556376	0.031553
C231	C	1.222163	-0.306376	0.281553
C232	C	1.472163	-0.056376	0.531553
C233	C	0.755577	-0.779026	-0.251911
C234	C	1.005577	-0.529026	-0.001911
C235	C	1.255577	-0.279026	0.248089
C236	C	1.505577	-0.029026	0.498089
C237	C	0.822414	-0.778928	-0.318844
C238	C	1.072414	-0.528928	-0.068844
C239	C	1.322414	-0.278928	0.181156
C240	C	1.572414	-0.028928	0.431156
C241	C	0.822399	-0.724327	-0.318833
C242	C	1.072399	-0.474327	-0.068833
C243	C	1.322399	-0.224327	0.181167
C244	C	1.572399	0.025673	0.431167
C245	C	0.788974	-0.697076	-0.285360
C246	C	1.038974	-0.447076	-0.035360
C247	C	1.288974	-0.197076	0.214640
C248	C	1.538974	0.052924	0.464640
C249	C	0.755563	-0.724426	-0.251899
C250	C	1.005563	-0.474426	-0.001899
C251	C	1.255563	-0.224426	0.248101
C252	C	1.505563	0.025574	0.498101
C253	C	0.688732	-0.779122	-0.184976
C254	C	0.938732	-0.529122	0.065024
C255	C	1.188732	-0.279122	0.315024
C256	C	1.438732	-0.029122	0.565024
C257	C	0.688717	-0.724515	-0.184972
C258	C	0.938717	-0.474515	0.065028
C259	C	1.188717	-0.224515	0.315028
C260	C	1.438717	0.025485	0.565028
C261	C	0.722131	-0.697165	-0.218435
C262	C	0.972131	-0.447165	0.031565
C263	C	1.222131	-0.197165	0.281565
C264	C	1.472131	0.052835	0.531565
C265	C	0.722122	-0.642574	-0.218415
C266	C	0.972122	-0.392574	0.031585
C267	C	1.222122	-0.142574	0.281585
C268	C	1.472122	0.107426	0.531585
N269	N	0.755530	-0.615222	-0.251880
N270	N	1.005530	-0.365222	-0.001880
N271	N	1.255530	-0.115222	0.248120
N272	N	1.505530	0.134778	0.498120
C273	C	0.788956	-0.642473	-0.285353
C274	C	1.038956	-0.392473	-0.035353
C275	C	1.288956	-0.142473	0.214647
C276	C	1.538956	0.107527	0.464647
C277	C	0.722220	-0.975650	-0.218474
C278	C	0.972220	-0.725650	0.031526
C279	C	1.222220	-0.475650	0.281526
C280	C	1.472220	-0.225650	0.531526
C281	C	0.722240	-1.030252	-0.218478
C282	C	0.972240	-0.780252	0.031522
C283	C	1.222240	-0.530252	0.281522
C284	C	1.472240	-0.280252	0.531522
C285	C	0.789077	-1.030151	-0.285418
C286	C	1.039077	-0.780151	-0.035418
C287	C	1.289077	-0.530151	0.214582
C288	C	1.539077	-0.280151	0.464582
C289	C	0.789059	-0.975547	-0.285411
C290	C	1.039059	-0.725547	-0.035411
C291	C	1.289059	-0.475547	0.214589
C292	C	1.539059	-0.225547	0.464589
C293	C	0.755628	-0.948297	-0.251939
C294	C	1.005628	-0.698297	-0.001939
C295	C	1.255628	-0.448297	0.248061
C296	C	1.505628	-0.198297	0.498061
C297	C	0.788922	-0.527808	-0.285326
C298	C	1.038922	-0.277808	-0.035326
C299	C	1.288922	-0.027808	0.214674
C300	C	1.538922	0.222192	0.464674
C301	C	0.788906	-0.473202	-0.285310
C302	C	1.038906	-0.223202	-0.035310
C303	C	1.288906	0.026798	0.214690
C304	C	1.538906	0.276798	0.464690
C305	C	0.722067	-0.473309	-0.218372
C306	C	0.972067	-0.223309	0.031628
C307	C	1.222067	0.026691	0.281628
C308	C	1.472067	0.276691	0.531628
C309	C	0.722085	-0.527909	-0.218386
C310	C	0.972085	-0.277909	0.031614
C311	C	1.222085	-0.027909	0.281614
C312	C	1.472085	0.222091	0.531614
C313	C	0.755515	-0.555157	-0.251867
C314	C	1.005515	-0.305157	-0.001867
C315	C	1.255515	-0.055157	0.248133
C316	C	1.505515	0.194843	0.498133
O317	O	0.693720	-0.614335	-0.189951
O318	O	0.943720	-0.364335	0.060049
O319	O	1.193720	-0.114335	0.310049
O320	O	1.443720	0.135665	0.560049
O321	O	0.817361	-0.614187	-0.313816
O322	O	1.067361	-0.364187	-0.063816
O323	O	1.317361	-0.114187	0.186184
O324	O	1.567361	0.135813	0.436184
C325	C	0.891911	-0.252024	-0.251896
C326	C	1.141911	-0.002024	-0.001896
C327	C	1.391911	0.247976	0.248104
C328	C	1.641911	0.497976	0.498104
C329	C	0.950025	-0.252036	-0.251903
C330	C	1.200025	-0.002036	-0.001903
C331	C	1.450025	0.247964	0.248097
C332	C	1.700025	0.497964	0.498097
C333	C	0.755572	-0.251971	-0.388251
C334	C	1.005572	-0.001971	-0.138251
C335	C	1.255572	0.248029	0.111749
C336	C	1.505572	0.498029	0.361749
C337	C	0.755586	-0.251961	-0.446365
C338	C	1.005586	-0.001961	-0.196365
C339	C	1.255586	0.248039	0.053635
C340	C	1.505586	0.498039	0.303635
C341	C	0.755626	-0.115622	-0.251931
C342	C	1.005626	0.134378	-0.001931
C343	C	1.255626	0.384378	0.248069
C344	C	1.505626	0.634378	0.498069
C345	C	0.755664	-0.057508	-0.251953
C346	C	1.005664	0.192492	-0.001953
C347	C	1.255664	0.442492	0.248047
C348	C	1.505664	0.692492	0.498047
C349	C	0.722182	-0.218451	-0.806743
C350	C	0.972182	0.031549	-0.556743
C351	C	1.222182	0.281549	-0.306743
C352	C	1.472182	0.531549	-0.056743
C353	C	0.722185	-0.218442	-0.861347
C354	C	0.972185	0.031558	-0.611347
C355	C	1.222185	0.281558	-0.361347
C356	C	1.472185	0.531558	-0.111347
O357	O	0.693758	-0.190008	-0.889596
O358	O	0.943758	0.059992	-0.639596
O359	O	1.193758	0.309992	-0.389596
O360	O	1.443758	0.559992	-0.139596
N361	N	0.755604	-0.251879	-0.888648
N362	N	1.005604	-0.001879	-0.638648
N363	N	1.255604	0.248121	-0.388648
N364	N	1.505604	0.498121	-0.138648
C365	C	0.789018	-0.285331	-0.861342
C366	C	1.039018	-0.035331	-0.611342
C367	C	1.289018	0.214669	-0.361342
C368	C	1.539018	0.464669	-0.111342
O369	O	0.817443	-0.313772	-0.889577
O370	O	1.067443	-0.063772	-0.639577
O371	O	1.317443	0.186228	-0.389577
O372	O	1.567443	0.436228	-0.139577
C373	C	0.789012	-0.285343	-0.806739
C374	C	1.039012	-0.035343	-0.556739
C375	C	1.289012	0.214657	-0.306739
C376	C	1.539012	0.464657	-0.056739
C377	C	0.755595	-0.251900	-0.779440
C378	C	1.005595	-0.001900	-0.529440
C379	C	1.255595	0.248100	-0.279440
C380	C	1.505595	0.498100	-0.029440
C381	C	0.688768	-0.185011	-0.779445
C382	C	0.938768	0.064989	-0.529445
C383	C	1.188768	0.314989	-0.279445
C384	C	1.438768	0.564989	-0.029445
C385	C	0.688766	-0.185020	-0.724844
C386	C	0.938766	0.064980	-0.474844
C387	C	1.188766	0.314980	-0.224844
C388	C	1.438766	0.564980	0.025156
C389	C	0.722178	-0.218469	-0.697542
C390	C	0.972178	0.031531	-0.447542
C391	C	1.222178	0.281531	-0.197542
C392	C	1.472178	0.531531	0.052458
C393	C	0.755593	-0.251909	-0.724840
C394	C	1.005593	-0.001909	-0.474840
C395	C	1.255593	0.248091	-0.224840
C396	C	1.505593	0.498091	0.025160
C397	C	0.822423	-0.318798	-0.779433
C398	C	1.072423	-0.068798	-0.529433
C399	C	1.322423	0.181202	-0.279433
C400	C	1.572423	0.431202	-0.029433
C401	C	0.822414	-0.318807	-0.724826
C402	C	1.072414	-0.068807	-0.474826
C403	C	1.322414	0.181193	-0.224826
C404	C	1.572414	0.431193	0.025174
C405	C	0.788997	-0.285364	-0.697528
C406	C	1.038997	-0.035364	-0.447528
C407	C	1.288997	0.214636	-0.197528
C408	C	1.538997	0.464636	0.052472
C409	C	0.789004	-0.285367	-0.642937
C410	C	1.039004	-0.035367	-0.392937
C411	C	1.289004	0.214633	-0.142937
C412	C	1.539004	0.464633	0.107063
N413	N	0.755585	-0.251930	-0.615636
N414	N	1.005585	-0.001930	-0.365636
N415	N	1.255585	0.248070	-0.115636
N416	N	1.505585	0.498070	0.134364
C417	C	0.722173	-0.218481	-0.642938
C418	C	0.972173	0.031519	-0.392938
C419	C	1.222173	0.281519	-0.142938
C420	C	1.472173	0.531519	0.107062
C421	C	0.789027	-0.285305	-0.976013
C422	C	1.039027	-0.035305	-0.726013
C423	C	1.289027	0.214695	-0.476013
C424	C	1.539027	0.464695	-0.226013
C425	C	0.789036	-0.285291	-1.030615
C426	C	1.039036	-0.035291	-0.780615
C427	C	1.289036	0.214709	-0.530615
C428	C	1.539036	0.464709	-0.280615
C429	C	0.722202	-0.218402	-1.030616
C430	C	0.972202	0.031598	-0.780616
C431	C	1.222202	0.281598	-0.530616
C432	C	1.472202	0.531598	-0.280616
C433	C	0.722197	-0.218414	-0.976013
C434	C	0.972197	0.031586	-0.726013
C435	C	1.222197	0.281586	-0.476013
C436	C	1.472197	0.531586	-0.226013
C437	C	0.755608	-0.251868	-0.948712
C438	C	1.005608	-0.001868	-0.698712
C439	C	1.255608	0.248132	-0.448712
C440	C	1.505608	0.498132	-0.198712
C441	C	0.722171	-0.218502	-0.528273
C442	C	0.972171	0.031498	-0.278273
C443	C	1.222171	0.281498	-0.028273
C444	C	1.472171	0.531498	0.221727
C445	C	0.722174	-0.218512	-0.473668
C446	C	0.972174	0.031488	-0.223668
C447	C	1.222174	0.281488	0.026332
C448	C	1.472174	0.531488	0.276332
C449	C	0.789005	-0.285403	-0.473671
C450	C	1.039005	-0.035403	-0.223671
C451	C	1.289005	0.214597	0.026329
C452	C	1.539005	0.464597	0.276329
C453	C	0.789005	-0.285391	-0.528272
C454	C	1.039005	-0.035391	-0.278272
C455	C	1.289005	0.214609	-0.028272
C456	C	1.539005	0.464609	0.221728
C457	C	0.755584	-0.251938	-0.555571
C458	C	1.005584	-0.001938	-0.305571
C459	C	1.255584	0.248062	-0.055571
C460	C	1.505584	0.498062	0.194429
O461	O	0.817415	-0.313787	-0.614653
O462	O	1.067415	-0.063787	-0.364653
O463	O	1.317415	0.186213	-0.114653
O464	O	1.567415	0.436213	0.135347
O465	O	0.693748	-0.190050	-0.614696
O466	O	0.943748	0.059950	-0.364696
O467	O	1.193748	0.309950	-0.114696
O468	O	1.443748	0.559950	0.135304
C469	C	0.755534	-0.251981	-0.116036
C470	C	1.005534	-0.001981	0.133964
C471	C	1.255534	0.248019	0.383964
C472	C	1.505534	0.498019	0.633964
C473	C	0.755621	-0.251844	-0.057922
C474	C	1.005621	-0.001844	0.192078
C475	C	1.255621	0.248156	0.442078
C476	C	1.505621	0.498156	0.692078
H477	H	-0.044853	-0.191448	-0.312685
H478	H	0.205147	0.058552	-0.062685
H479	H	0.455147	0.308552	0.187315
H480	H	0.705147	0.558552	0.437315
H481	H	0.556558	-0.191386	-0.312649
H482	H	0.806558	0.058614	-0.062649
H483	H	1.056558	0.308614	0.187351
H484	H	1.306558	0.558614	0.437351
H485	H	0.054115	-0.312604	-0.191112
H486	H	0.304115	-0.062604	0.058888
H487	H	0.554115	0.187396	0.308888
H488	H	0.804115	0.437396	0.558888
Cl489	Cl	0.194090	-0.360790	-0.142789
Cl490	Cl	0.444090	-0.110790	0.107211
Cl491	Cl	0.694090	0.139210	0.357211
Cl492	Cl	0.944090	0.389210	0.607211
H493	H	0.694881	-0.550178	-0.191133
H494	H	0.944881	-0.300178	0.058867
H495	H	1.194881	-0.050178	0.308867
H496	H	1.444881	0.199822	0.558867
H497	H	-0.044952	-0.312612	-0.191121
H498	H	0.205048	-0.062612	0.058879
H499	H	0.455048	0.187388	0.308879
H500	H	0.705048	0.437388	0.558879
Cl501	Cl	0.680048	-0.439040	-0.176295
Cl502	Cl	0.930048	-0.189040	0.073705
Cl503	Cl	1.180048	0.060960	0.323705
Cl504	Cl	1.430048	0.310960	0.573705
H505	H	0.206349	-0.158035	-0.346181
H506	H	0.456349	0.091965	-0.096181
H507	H	0.706349	0.341965	0.153819
H508	H	0.956349	0.591965	0.403819
H509	H	0.816210	-0.312634	-0.451432
H510	H	1.066210	-0.062634	-0.201432
H511	H	1.316210	0.187366	0.048568
H512	H	1.566210	0.437366	0.298568
Cl513	Cl	0.680239	-1.064628	-0.176401
Cl514	Cl	0.930239	-0.814628	0.073599
Cl515	Cl	1.180239	-0.564628	0.323599
Cl516	Cl	1.430239	-0.314628	0.573599
Cl517	Cl	0.066298	-0.176650	-0.327528
Cl518	Cl	0.316298	0.073350	-0.077528
Cl519	Cl	0.566298	0.323350	0.172472
Cl520	Cl	0.816298	0.573350	0.422472
H521	H	0.694998	-0.953465	-0.191213
H522	H	0.944998	-0.703465	0.058787
H523	H	1.194998	-0.453465	0.308787
H524	H	1.444998	-0.203465	0.558787
H525	H	0.661491	-0.702331	-0.157715
H526	H	0.911491	-0.452331	0.092285
H527	H	1.161491	-0.202331	0.342285
H528	H	1.411491	0.047669	0.592285
Cl529	Cl	0.568532	-0.327329	-0.176235
Cl530	Cl	0.818532	-0.077329	0.073765
Cl531	Cl	1.068532	0.172671	0.323765
Cl532	Cl	1.318532	0.422671	0.573765
H533	H	0.694962	-0.191276	-0.451444
H534	H	0.944962	0.058724	-0.201444
H535	H	1.194962	0.308724	0.048556
H536	H	1.444962	0.558724	0.298556
Cl537	Cl	0.680160	-0.176443	-0.562584
Cl538	Cl	0.930160	0.073557	-0.312584
Cl539	Cl	1.180160	0.323557	-0.062584
Cl540	Cl	1.430160	0.573557	0.187416
H541	H	0.849626	-0.346047	-0.702600
H542	H	1.099626	-0.096047	-0.452600
H543	H	1.349626	0.153953	-0.202600
H544	H	1.599626	0.403953	0.047400
Cl545	Cl	0.445302	-0.327354	-0.176251
Cl546	Cl	0.695302	-0.077354	0.073749
Cl547	Cl	0.945302	0.172646	0.323749
Cl548	Cl	1.195302	0.422646	0.573749
H549	H	0.816241	-0.312544	-0.953787
H550	H	1.066241	-0.062544	-0.703787
H551	H	1.316241	0.187456	-0.453787
H552	H	1.566241	0.437456	-0.203787
Cl553	Cl	0.646750	-0.142979	-0.690534
Cl554	Cl	0.896750	0.107021	-0.440534
Cl555	Cl	1.146750	0.357021	-0.190534
Cl556	Cl	1.396750	0.607021	0.059466
Cl557	Cl	0.831024	-0.327425	-0.562590
Cl558	Cl	1.081024	-0.077425	-0.312590
Cl559	Cl	1.331024	0.172575	-0.062590
Cl560	Cl	1.581024	0.422575	0.187410
H561	H	0.661522	-0.801381	-0.157726
H562	H	0.911522	-0.551381	0.092274
H563	H	1.161522	-0.301381	0.342274
H564	H	1.411522	-0.051381	0.592274
Cl565	Cl	0.317495	-0.143234	-0.361014
Cl566	Cl	0.567495	0.106766	-0.111014
Cl567	Cl	0.817495	0.356766	0.138986
Cl568	Cl	1.067495	0.606766	0.388986
Cl569	Cl	0.830916	-0.438824	-0.327381
Cl570	Cl	1.080916	-0.188824	-0.077381
Cl571	Cl	1.330916	0.061176	0.172619
Cl572	Cl	1.580916	0.311176	0.422619
H573	H	0.457493	-0.191393	-0.312659
H574	H	0.707493	0.058607	-0.062659
H575	H	0.957493	0.308607	0.187341
H576	H	1.207493	0.558607	0.437341
Cl577	Cl	0.646751	-0.142962	-0.813758
Cl578	Cl	0.896751	0.107038	-0.563758
Cl579	Cl	1.146751	0.357038	-0.313758
Cl580	Cl	1.396751	0.607038	-0.063758
Cl581	Cl	0.830950	-0.562054	-0.327415
Cl582	Cl	1.080950	-0.312054	-0.077415
Cl583	Cl	1.330950	-0.062054	0.172585
Cl584	Cl	1.580950	0.187946	0.422585
Cl585	Cl	0.680184	-0.176371	-0.941701
Cl586	Cl	0.930184	0.073629	-0.691701
Cl587	Cl	1.180184	0.323629	-0.441701
Cl588	Cl	1.430184	0.573629	-0.191701
H589	H	0.694996	-0.191166	-1.052856
H590	H	0.944996	0.058834	-0.802856
H591	H	1.194996	0.308834	-0.552856
H592	H	1.444996	0.558834	-0.302856
H593	H	0.305243	-0.345984	-0.157609
H594	H	0.555243	-0.095984	0.092391
H595	H	0.805243	0.154016	0.342391
H596	H	1.055243	0.404016	0.592391
H597	H	0.816253	-0.312518	-1.052836
H598	H	1.066253	-0.062518	-0.802836
H599	H	1.316253	0.187482	-0.552836
H600	H	1.566253	0.437482	-0.302836
Cl601	Cl	0.864404	-0.689953	-0.360908
Cl602	Cl	1.114404	-0.439953	-0.110908
Cl603	Cl	1.364404	-0.189953	0.139092
Cl604	Cl	1.614404	0.060047	0.389092
H605	H	0.849634	-0.346031	-0.801650
H606	H	1.099634	-0.096031	-0.551650
H607	H	1.349634	0.153969	-0.301650
H608	H	1.599634	0.403969	-0.051650
H609	H	0.849633	-0.801110	-0.346105
H610	H	1.099633	-0.551110	-0.096105
H611	H	1.349633	-0.301110	0.153895
H612	H	1.599633	-0.051110	0.403895
Cl613	Cl	0.831066	-0.941171	-0.327482
Cl614	Cl	1.081066	-0.691171	-0.077482
Cl615	Cl	1.331066	-0.441171	0.172518
Cl616	Cl	1.581066	-0.191171	0.422518
H617	H	0.816293	-1.052348	-0.312674
H618	H	1.066293	-0.802348	-0.062674
H619	H	1.316293	-0.552348	0.187326
H620	H	1.566293	-0.302348	0.437326
