data_functionalizedCrystal
_audit_creation_method	'MofGen! by Chris Wilmer'
_symmetry_space_group_name_H-M	'P1'
_symmetry_Int_Tables_number	1
_symmetry_cell_setting	triclinic
loop_
_symmetry_equiv_pos_as_xyz
  x,y,z
_cell_length_a	15.698487
_cell_length_b	14.809374
_cell_length_c	14.809374
_cell_angle_alpha	60.797835
_cell_angle_beta	90.001538
_cell_angle_gamma	67.426214
loop_
_atom_site_label
_atom_site_type_symbol
_atom_site_fract_x
_atom_site_fract_y
_atom_site_fract_z
Zr1	Zr	0.940919	0.955185	-0.203638
O2	O	0.836570	1.113107	-0.350801
O3	O	0.958135	0.777418	-0.145561
O4	O	0.992980	0.926565	-0.332100
O5	O	0.791043	0.993456	-0.031865
O6	O	1.133163	0.926562	-0.332094
O7	O	0.801725	0.963960	-0.164263
O8	O	1.070832	0.659766	0.001589
O9	O	0.853375	1.260253	-0.365549
O10	O	1.087943	0.857884	-0.136451
O11	O	0.975354	0.879898	-0.037648
O12	O	1.016379	1.055499	-0.257273
O13	O	0.903790	1.077514	-0.158470
Zr14	Zr	1.147460	1.002223	0.007529
Zr15	Zr	1.164496	0.955181	-0.203630
Zr16	Zr	0.923883	1.002227	0.007521
Zr17	Zr	0.967721	1.189865	-0.227159
Zr18	Zr	1.120658	0.767543	0.031049
O19	O	1.130245	1.179990	-0.050549
O20	O	1.154467	1.113102	-0.350790
O21	O	0.812347	1.179996	-0.050561
O22	O	1.251809	0.844301	0.154692
O23	O	1.276032	0.777412	-0.145549
O24	O	0.933912	0.844306	0.154680
O25	O	1.297336	0.963952	-0.164245
O26	O	1.095400	1.030843	0.135990
O27	O	0.955216	1.030846	0.135985
O28	O	1.286654	0.993448	-0.031847
O29	O	1.031088	1.260250	-0.365542
O30	O	1.057291	0.697158	0.169432
O31	O	1.235004	0.697155	0.169439
O32	O	1.248546	0.659762	0.001596
O33	O	0.839834	1.297646	-0.197705
O34	O	1.017547	1.297642	-0.197699
O35	O	1.072000	0.901909	0.061163
O36	O	1.184589	0.879894	-0.037640
O37	O	1.113025	1.077510	-0.158462
O38	O	1.000436	1.099524	-0.059659
C39	C	1.010664	0.685155	-0.068635
C40	C	0.999286	0.585527	-0.058650
C41	C	1.050065	0.530189	-0.103211
C42	C	1.038307	0.427218	-0.092892
C43	C	0.764529	0.978709	-0.098065
C44	C	0.669615	0.978711	-0.098069
C45	C	0.592533	0.978714	-0.098067
C46	C	0.495834	0.978709	-0.098056
C47	C	1.323850	0.978699	-0.098045
C48	C	1.418764	0.978697	-0.098041
C49	C	1.065499	0.919861	-0.362183
C50	C	1.072731	0.899890	-0.451825
C51	C	1.077715	1.272253	-0.127475
C52	C	1.089093	1.371881	-0.137460
C53	C	1.040455	0.989017	-0.551727
C54	C	1.047929	0.968379	-0.644378
C55	C	1.022880	1.037547	0.166073
C56	C	1.015648	1.057518	0.255715
C57	C	1.290325	0.685150	-0.068624
C58	C	1.373861	0.585520	-0.058636
C59	C	0.989355	0.743998	0.195493
C60	C	0.970745	0.664341	0.295120
C61	C	1.269016	0.743993	0.195503
C62	C	1.345320	0.664334	0.295134
C63	C	0.819363	1.213415	-0.391613
C64	C	0.743059	1.293074	-0.491244
C65	C	0.798054	1.272258	-0.127485
C66	C	0.714518	1.371888	-0.137474
C67	C	1.099024	1.213410	-0.391603
C68	C	1.117634	1.293067	-0.491230
C69	C	1.362643	0.527242	-0.105532
C70	C	1.441129	0.433638	-0.096168
C71	C	1.530830	0.398309	-0.039901
C72	C	1.542047	0.456597	0.006996
C73	C	1.463564	0.550204	-0.002375
C74	C	1.012453	0.638424	0.393494
C75	C	0.994964	0.563593	0.487111
C76	C	0.935771	0.514673	0.482353
C77	C	0.894059	0.540596	0.383969
C78	C	0.911543	0.615433	0.290354
C79	C	1.439933	0.615434	0.290348
C80	C	1.511639	0.540598	0.383952
C81	C	1.488730	0.514656	0.482343
C82	C	1.394108	0.563564	0.487126
C83	C	1.322404	0.638406	0.393522
C84	C	0.648448	1.341985	-0.486459
C85	C	0.576745	1.416851	-0.580066
C86	C	0.599654	1.442797	-0.678457
C87	C	0.694276	1.393883	-0.683240
C88	C	0.765978	1.319025	-0.589634
C89	C	0.725738	1.430174	-0.090587
C90	C	0.647257	1.523799	-0.099977
C91	C	0.557556	1.559130	-0.156248
C92	C	0.546338	1.500839	-0.203140
C93	C	0.624820	1.407221	-0.193756
C94	C	1.176831	1.341965	-0.486438
C95	C	1.194336	1.416800	-0.580039
C96	C	1.152637	1.442744	-0.678432
C97	C	1.093437	1.393837	-0.683221
C98	C	1.075939	1.318997	-0.589621
H99	H	0.986126	0.398365	-0.047097
H100	H	1.210790	1.320856	-0.406331
H101	H	1.615093	0.427818	0.052808
H102	H	0.499705	1.456666	-0.576151
H103	H	0.541261	1.503753	-0.754669
H104	H	1.027732	1.279192	-0.593537
C105	C	0.824402	1.391326	-0.028692
H106	H	0.869544	1.327217	-0.029804
H107	H	0.841953	1.452855	-0.060904
H108	H	0.822578	1.369926	0.042827
H109	H	1.166893	1.503686	-0.754640
H110	H	1.081100	0.876788	-0.627434
H111	H	0.877580	0.636521	0.210258
C112	C	0.612463	1.343102	-0.245320
H113	H	0.547797	1.377552	-0.280164
H114	H	0.650666	1.347555	-0.295668
H115	H	0.631285	1.264643	-0.191932
H116	H	0.493660	1.635362	-0.163881
H117	H	1.141279	0.400728	-0.183249
C118	C	1.465151	0.643960	0.182131
H119	H	1.531773	0.604121	0.192701
H120	H	1.433711	0.620816	0.148662
H121	H	1.445546	0.724547	0.138273
C122	C	1.475910	0.614305	0.049215
H123	H	1.416328	0.675122	0.035574
H124	H	1.499824	0.562209	0.123804
H125	H	1.519192	0.645148	0.020073
H126	H	0.473294	1.529620	-0.248956
C127	C	0.719463	1.422422	-0.791472
H128	H	0.663202	1.473998	-0.846526
H129	H	0.761286	1.457293	-0.802539
H130	H	0.749424	1.353570	-0.792130
H131	H	1.594728	0.322085	-0.032277
C132	C	0.928794	0.546556	0.003208
H133	H	0.930134	0.482465	0.002022
H134	H	0.946094	0.525115	0.074741
H135	H	0.866655	0.608050	-0.028994
H136	H	1.007294	1.080601	-0.568663
C137	C	1.117534	0.776165	-0.428935
H138	H	1.116673	0.778525	-0.494210
H139	H	1.181188	0.736815	-0.389236
H140	H	1.082365	0.736827	-0.389246
C141	C	1.047566	1.422393	-0.791458
H142	H	1.066462	1.473981	-0.846510
H143	H	1.067443	1.353559	-0.792133
H144	H	0.980483	1.457288	-0.802515
C145	C	1.567610	0.432321	0.585299
H146	H	1.627236	0.406908	0.568348
H147	H	1.568058	0.471479	0.620338
H148	H	1.556207	0.367759	0.630721
H149	H	0.982483	1.149109	-0.761230
H150	H	1.102249	0.559038	-0.148997
H151	H	1.375468	0.542431	0.567248
C152	C	1.077552	0.692240	0.398746
H153	H	1.099869	0.666091	0.470747
H154	H	1.129962	0.670061	0.369580
H155	H	1.042970	0.773780	0.359169
H156	H	1.289612	0.556002	-0.151363
H157	H	1.028938	0.542496	0.567210
C158	C	1.428771	0.369527	-0.147745
H159	H	1.364103	0.403966	-0.182578
H160	H	1.466965	0.373997	-0.198103
H161	H	1.447606	0.291062	-0.094362
H162	H	0.921542	0.453738	0.558589
H163	H	1.588679	0.500782	0.380039
C164	C	0.828962	0.486765	0.378751
H165	H	0.824540	0.438473	0.448600
H166	H	0.767608	0.546151	0.337020
H167	H	0.854599	0.442430	0.347431
C168	C	1.218331	0.692183	0.398796
H169	H	1.178900	0.740479	0.328962
H170	H	1.200026	0.632765	0.440537
H171	H	1.211860	0.736502	0.430133
H172	H	0.629775	1.320864	-0.406352
H173	H	0.656409	1.571246	-0.061786
C174	C	0.870045	1.265214	-0.594910
H175	H	0.873410	1.291384	-0.666916
H176	H	0.906400	1.287380	-0.565735
H177	H	0.894523	1.183674	-0.555350
C178	C	1.259442	1.470599	-0.574753
H179	H	1.281751	1.444442	-0.502749
H180	H	1.311857	1.448413	-0.603911
H181	H	1.224870	1.552140	-0.614327
