data_functionalizedCrystal
_audit_creation_method	'MofGen! by Chris Wilmer'
_symmetry_space_group_name_H-M	'P1'
_symmetry_Int_Tables_number	1
_symmetry_cell_setting	triclinic
loop_
_symmetry_equiv_pos_as_xyz
  x,y,z
_cell_length_a	18.627350
_cell_length_b	18.627245
_cell_length_c	18.627297
_cell_angle_alpha	120.003066
_cell_angle_beta	89.998778
_cell_angle_gamma	120.000253
loop_
_atom_site_label
_atom_site_type_symbol
_atom_site_fract_x
_atom_site_fract_y
_atom_site_fract_z
O1	O	-0.611883	0.513834	0.021355
O2	O	-0.507488	0.366825	-0.021258
O3	O	-0.507483	0.513834	0.125752
O4	O	-0.611888	0.366826	-0.125655
O5	O	-0.388080	0.633238	0.125755
O6	O	-0.388085	0.486230	-0.021255
O7	O	-0.492480	0.633239	0.021358
Zn8	Zn	-0.421325	0.578693	0.000052
Zn9	Zn	-0.578643	0.421372	0.000048
O10	O	-0.492485	0.486231	-0.125652
C11	C	-0.612977	0.774045	0.031067
C12	C	-0.568675	0.862648	0.024974
C13	C	-0.569575	0.731047	0.031670
C14	C	-0.742979	0.644042	0.031064
C15	C	-0.837676	0.593645	0.024967
C16	C	-0.699379	0.601241	0.031667
C17	C	-0.612981	0.644038	0.031059
C18	C	-0.568682	0.593638	0.024957
C19	C	-0.699376	0.731051	0.031675
O20	O	-0.978677	0.513846	0.125770
O21	O	-1.021283	0.366837	-0.125639
O22	O	-0.874280	0.513840	0.021365
O23	O	-1.125680	0.366842	-0.021234
O24	O	-0.874275	0.633249	0.021373
O25	O	-1.021278	0.486245	-0.125631
O26	O	-0.978672	0.633255	0.125777
Zn27	Zn	-0.999974	0.578708	0.000074
Zn28	Zn	-0.999981	0.421383	0.000064
O29	O	-1.125675	0.486251	-0.021227
C30	C	-0.612987	0.356031	-0.386955
C31	C	-0.568685	0.406430	-0.431252
C32	C	-0.699387	0.269022	-0.430363
C33	C	-0.612989	0.356030	-0.256955
C34	C	-0.568688	0.406428	-0.162256
C35	C	-0.699389	0.269021	-0.300561
C36	C	-0.742990	0.226026	-0.386961
C37	C	-0.837688	0.137422	-0.431266
C38	C	-0.569583	0.398829	-0.300554
C39	C	-0.386980	0.226039	-0.030938
C40	C	-0.431280	0.137439	-0.024840
C41	C	-0.300580	0.269037	-0.031540
C42	C	-0.386982	0.356036	-0.030944
C43	C	-0.431284	0.406429	-0.024853
C44	C	-0.300582	0.398836	-0.031546
C45	C	-0.256978	0.356043	-0.030933
C46	C	-0.162280	0.406445	-0.024831
C47	C	-0.430386	0.269029	-0.031551
O48	O	-0.388082	1.104434	-0.021244
O49	O	-0.492474	0.895651	0.021374
O50	O	-0.492487	0.895626	-0.125638
O51	O	-0.388068	1.104459	0.125768
O52	O	-0.611887	0.895630	-0.125632
O53	O	-0.611873	0.895654	0.021379
O54	O	-0.507482	1.104438	-0.021238
Zn55	Zn	-0.578635	1.000047	0.000071
Zn56	Zn	-0.421320	1.000042	0.000064
O57	O	-0.507468	1.104463	0.125773
O58	O	-1.125694	-0.104389	-0.492480
O59	O	-0.874292	0.104416	-0.388069
O60	O	-1.021290	0.104419	-0.388066
O61	O	-0.978696	-0.104392	-0.492483
O62	O	-1.021287	0.104422	-0.507467
O63	O	-0.874289	0.104420	-0.507469
O64	O	-1.125691	-0.104386	-0.611881
Zn65	Zn	-0.999989	0.000017	-0.578632
Zn66	Zn	-0.999994	0.000013	-0.421317
O67	O	-0.978693	-0.104389	-0.611883
O68	O	-0.507484	0.513833	-0.611849
O69	O	-0.611885	0.366829	-0.507456
O70	O	-0.611882	0.513835	-0.507446
O71	O	-0.507487	0.366826	-0.611859
O72	O	-0.492478	0.633241	-0.388039
O73	O	-0.492481	0.486235	-0.388049
O74	O	-0.388080	0.633239	-0.492443
Zn75	Zn	-0.421323	0.578695	-0.421287
Zn76	Zn	-0.578642	0.421372	-0.578611
O77	O	-0.388083	0.486233	-0.492452
C78	C	-0.256976	0.774040	0.387061
C79	C	-0.162278	0.862644	0.431365
C80	C	-0.300579	0.731044	0.430464
C81	C	-0.386979	0.644035	0.257055
C82	C	-0.431280	0.593637	0.162356
C83	C	-0.430384	0.601237	0.300655
C84	C	-0.386979	0.644035	0.387056
C85	C	-0.431280	0.593637	0.431354
C86	C	-0.300579	0.731044	0.300660
C87	C	-1.030985	0.226033	-0.386951
C88	C	-1.024893	0.137426	-0.431259
C89	C	-1.031591	0.269031	-0.430351
C90	C	-1.030979	0.356041	-0.256939
C91	C	-1.024880	0.406440	-0.162238
C92	C	-1.031584	0.398841	-0.300537
C93	C	-1.030979	0.356042	-0.386939
C94	C	-1.024881	0.406443	-0.431235
C95	C	-1.031590	0.269029	-0.300548
C96	C	-0.968976	0.644051	0.387078
C97	C	-0.975074	0.593651	0.431374
C98	C	-0.968364	0.731063	0.430489
C99	C	-0.968976	0.644051	0.257077
C100	C	-0.975075	0.593652	0.162377
C101	C	-0.968365	0.731063	0.300686
C102	C	-0.968970	0.774060	0.387088
C103	C	-0.975062	0.862666	0.431396
C104	C	-0.968370	0.601251	0.300676
C105	C	-0.743017	0.643974	-0.386927
C106	C	-0.837717	0.593573	-0.431223
C107	C	-0.699423	0.601164	-0.430333
C108	C	-0.613004	0.773997	-0.256932
C109	C	-0.568693	0.862617	-0.162237
C110	C	-0.569607	0.730989	-0.300536
C111	C	-0.613021	0.643966	-0.386932
C112	C	-0.568728	0.593556	-0.431233
C113	C	-0.699406	0.730997	-0.300531
O114	O	-0.978674	0.633254	-0.492422
O115	O	-1.021278	0.486250	-0.388029
O116	O	-0.874276	0.633251	-0.388026
O117	O	-1.125676	0.486253	-0.492425
O118	O	-0.874282	0.513840	-0.507436
O119	O	-1.021284	0.366839	-0.507440
O120	O	-0.978680	0.513844	-0.611832
Zn121	Zn	-0.999983	0.421383	-0.578595
Zn122	Zn	-0.999975	0.578711	-0.421266
O123	O	-1.125682	0.366843	-0.611836
C124	C	-0.386937	1.356118	0.387069
C125	C	-0.431233	1.406522	0.431371
C126	C	-0.300534	1.398925	0.430468
C127	C	-0.386951	1.226092	0.257068
C128	C	-0.431262	1.137472	0.162372
C129	C	-0.300547	1.269096	0.300665
C130	C	-0.256936	1.356119	0.387061
C131	C	-0.162235	1.406525	0.431355
C132	C	-0.430351	1.269095	0.300672
H133	H	-0.498591	0.767022	0.032629
N134	N	-0.254180	1.221425	0.254305
H135	H	-0.287784	1.149425	0.236808
H136	H	-0.192721	1.261974	0.295109
H137	H	-0.734393	0.233040	-0.265553
N138	N	-0.745753	0.508506	0.032963
H139	H	-0.712153	0.524606	0.087463
H140	H	-0.748946	0.451030	-0.020989
N141	N	-0.745751	0.778705	0.032966
H142	H	-0.705002	0.840456	0.033248
H143	H	-0.763252	0.799542	0.087467
N144	N	-0.967079	0.508510	0.254284
H145	H	-1.021000	0.450985	0.251066
H146	H	-0.912553	0.524684	0.287912
N147	N	-0.475557	0.491582	-0.254166
H148	H	-0.437149	0.475498	-0.236655
H149	H	-0.472062	0.549035	-0.199886
N150	N	-1.032889	0.221363	-0.254184
H151	H	-1.087386	0.200466	-0.236681
H152	H	-0.978938	0.272127	-0.199902
H153	H	-1.032558	0.468858	-0.265521
N154	N	-0.745763	0.221357	-0.524394
H155	H	-0.705015	0.261828	-0.545392
H156	H	-0.800076	0.220965	-0.527911
H157	H	-0.967373	0.767053	0.265684
H158	H	-1.032572	0.233041	-0.501343
H159	H	-0.265527	1.468944	0.501459
N160	N	-0.475576	0.778645	-0.254174
H161	H	-0.454568	0.840407	-0.192707
H162	H	-0.437245	0.799464	-0.287849
H163	H	-0.967398	0.767036	0.501477
H164	H	-0.501342	1.233110	0.265673
H165	H	-0.265579	0.468849	-0.032523
N166	N	-0.254209	0.221373	-0.032846
H167	H	-0.294959	0.159619	-0.033133
H168	H	-0.199891	0.272159	0.021070
N169	N	-0.524417	0.221371	-0.032847
H170	H	-0.545419	0.159621	-0.033127
H171	H	-0.562750	0.200532	-0.087351
N172	N	-0.745791	0.508418	-0.524367
H173	H	-0.807258	0.487700	-0.545367
H174	H	-0.748921	0.450973	-0.527894
N175	N	-0.524376	0.508413	0.254247
H176	H	-0.545365	0.487665	0.192764
H177	H	-0.562789	0.524461	0.287856
N178	N	-0.254217	0.778715	0.254296
H179	H	-0.294980	0.738251	0.192834
H180	H	-0.199908	0.779104	0.251146
N181	N	-0.745767	0.778666	-0.254149
H182	H	-0.807240	0.738191	-0.294893
H183	H	-0.712107	0.850667	-0.236651
H184	H	-0.265570	0.767034	0.501455
