data_functionalizedCrystal
_audit_creation_method	'MofGen! by Chris Wilmer'
_symmetry_space_group_name_H-M	'P1'
_symmetry_Int_Tables_number	1
_symmetry_cell_setting	triclinic
loop_
_symmetry_equiv_pos_as_xyz
  x,y,z
_cell_length_a	10.489741
_cell_length_b	19.288857
_cell_length_c	17.766277
_cell_angle_alpha	90.007107
_cell_angle_beta	90.007022
_cell_angle_gamma	83.836141
loop_
_atom_site_label
_atom_site_type_symbol
_atom_site_fract_x
_atom_site_fract_y
_atom_site_fract_z
O1	O	-1.691842	-0.097993	-0.062552
O2	O	-1.191842	0.402007	0.437448
O3	O	-1.320438	-0.107191	-0.062564
O4	O	-0.820438	0.392809	0.437436
O5	O	-1.516877	-0.001533	-0.062548
O6	O	-1.016877	0.498467	0.437452
O7	O	-1.495403	-0.203651	-0.062567
O8	O	-0.995403	0.296349	0.437433
O9	O	-1.516841	-0.001531	0.062640
O10	O	-1.016841	0.498469	0.562640
O11	O	-1.320402	-0.107188	0.062625
O12	O	-0.820402	0.392812	0.562625
O13	O	-1.691806	-0.097990	0.062637
O14	O	-1.191806	0.402010	0.562637
Cu15	Cu	-1.506101	-0.102589	0.074061
Cu16	Cu	-1.006101	0.397411	0.574061
Cu17	Cu	-1.506144	-0.102592	-0.073988
Cu18	Cu	-1.006144	0.397408	0.426012
O19	O	-1.495367	-0.203648	0.062621
O20	O	-0.995367	0.296352	0.562621
C21	C	-1.272904	-0.106495	0.000029
C22	C	-0.772904	0.393505	0.500029
C23	C	-1.131322	-0.104417	0.000025
C24	C	-0.631322	0.395583	0.500025
C25	C	-1.516170	0.024349	0.000047
C26	C	-1.016170	0.524349	0.500047
C27	C	-1.514101	0.101467	0.000049
C28	C	-1.014101	0.601467	0.500049
C29	C	-1.739340	-0.098686	0.000042
C30	C	-1.239340	0.401314	0.500042
C31	C	-1.880923	-0.100765	0.000042
C32	C	-1.380923	0.399235	0.500042
C33	C	-1.064705	-0.037190	0.000038
C34	C	-0.564705	0.462810	0.500038
C35	C	-0.971877	-0.068948	-0.061688
C36	C	-0.471877	0.431052	0.438312
C37	C	-0.971875	-0.068962	0.061738
C38	C	-0.471875	0.431038	0.561738
C39	C	-1.040358	-0.136203	-0.061752
C40	C	-0.540358	0.363797	0.438248
C41	C	-1.040365	-0.136207	0.061729
C42	C	-0.540365	0.363793	0.561729
C43	C	-0.947563	-0.168014	-0.000011
C44	C	-0.447563	0.331986	0.499989
C45	C	-1.496075	-0.229530	0.000025
C46	C	-0.996075	0.270470	0.500025
C47	C	-1.498144	-0.306648	0.000018
C48	C	-0.998144	0.193352	0.500018
N49	N	-1.506080	-0.102586	0.178192
N50	N	-1.006080	0.397414	0.678192
C51	C	-1.513155	0.137683	-0.068192
C52	C	-1.013155	0.637683	0.431808
C53	C	-1.511192	0.210142	-0.068197
C54	C	-1.011192	0.710142	0.431803
C55	C	-1.510201	0.246384	0.000041
C56	C	-1.010201	0.746384	0.500041
C57	C	-1.511140	0.210159	0.068291
C58	C	-1.011140	0.710159	0.568291
C59	C	-1.513090	0.137701	0.068294
C60	C	-1.013090	0.637701	0.568294
C61	C	-1.581803	0.366137	0.052318
C62	C	-1.081803	0.866137	0.552318
C63	C	-1.579862	0.438594	0.052312
C64	C	-1.079862	0.938594	0.552312
C65	C	-1.504183	0.469870	0.000033
C66	C	-1.004183	0.969870	0.500033
C67	C	-1.430462	0.428681	-0.052253
C68	C	-0.930462	0.928681	0.447747
C69	C	-1.432411	0.356222	-0.052249
C70	C	-0.932411	0.856222	0.447751
C71	C	-1.508087	0.324953	0.000045
C72	C	-1.008087	0.824953	0.500045
C73	C	-1.501107	0.584655	-0.068219
C74	C	-1.001107	1.084655	0.431781
C75	C	-1.499137	0.657114	-0.068222
C76	C	-0.999137	1.157114	0.431778
C77	C	-1.499098	0.657132	0.068268
C78	C	-0.999098	1.157132	0.568268
C79	C	-1.501055	0.584672	0.068269
C80	C	-1.001055	1.084672	0.568269
C81	C	-1.502066	0.548438	0.000024
C82	C	-1.002066	1.048438	0.500024
C83	C	-1.583177	-0.145128	0.217571
C84	C	-1.083177	0.354872	0.717571
C85	C	-1.583196	-0.145126	0.296373
C86	C	-1.083196	0.354874	0.796373
C87	C	-1.506094	-0.102591	0.335792
C88	C	-1.006094	0.397409	0.835792
C89	C	-1.428992	-0.060042	0.296404
C90	C	-0.928992	0.439958	0.796404
C91	C	-1.428985	-0.060039	0.217603
C92	C	-0.928985	0.439961	0.717603
C93	C	-1.391121	-0.100064	0.460648
C94	C	-0.891121	0.399936	0.960648
C95	C	-1.391125	-0.100072	0.539447
C96	C	-0.891125	0.399928	1.039447
C97	C	-1.506118	-0.102595	0.578839
C98	C	-1.006118	0.397405	1.078839
C99	C	-1.621109	-0.105125	0.539422
C100	C	-1.121109	0.394875	1.039422
C101	C	-1.621101	-0.105123	0.460621
C102	C	-1.121101	0.394877	0.960621
C103	C	-1.506095	-0.102589	0.421238
C104	C	-1.006095	0.397411	0.921238
C105	C	-1.583243	-0.145137	0.703664
C106	C	-1.083243	0.354863	1.203664
C107	C	-1.583265	-0.145130	0.782467
C108	C	-1.083265	0.354870	1.282467
C109	C	-1.429049	-0.060050	0.782496
C110	C	-0.929049	0.439950	1.282496
C111	C	-1.429039	-0.060052	0.703695
C112	C	-0.929039	0.439948	1.203695
C113	C	-1.506134	-0.102600	0.664283
C114	C	-1.006134	0.397400	1.164283
N115	N	-1.506164	-0.102594	0.821881
N116	N	-1.006164	0.397406	1.321881
H117	H	-1.115648	0.018075	-0.000034
H118	H	-0.615648	0.518075	0.499966
H119	H	-1.297493	-0.098015	0.571534
H120	H	-0.797493	0.401985	1.071534
H121	H	-1.368837	0.454144	-0.094824
H122	H	-0.868837	0.954144	0.405176
H123	H	-1.645959	-0.179770	0.185487
H124	H	-1.145959	0.320230	0.685487
H125	H	-0.896885	-0.223338	-0.000050
H126	H	-0.396885	0.276662	0.499950
H127	H	-1.714731	-0.107182	0.428531
H128	H	-1.214731	0.392818	0.928531
H129	H	-1.639895	0.472126	0.094883
H130	H	-1.139895	0.972126	0.594883
H131	H	-1.645979	-0.179770	0.328442
H132	H	-1.145979	0.320230	0.828442
H133	H	-1.643429	0.340678	0.094896
H134	H	-1.143429	0.840678	0.594896
H135	H	-1.366253	-0.025413	0.671632
H136	H	-0.866253	0.474587	1.171632
H137	H	-1.070752	-0.164628	0.113912
H138	H	-0.570752	0.335372	0.613912
H139	H	-1.513855	0.108214	0.123866
H140	H	-1.013855	0.608214	0.623866
H141	H	-1.498360	0.686600	-0.123793
H142	H	-0.998360	1.186600	0.376207
H143	H	-0.941526	-0.040503	0.113923
H144	H	-0.441526	0.459497	0.613923
H145	H	-1.646056	-0.179770	0.814528
H146	H	-1.146056	0.320230	1.314528
H147	H	-1.297471	-0.098014	0.428582
H148	H	-0.797471	0.401986	0.928582
H149	H	-1.510330	0.239672	0.123851
H150	H	-1.010330	0.739672	0.623851
H151	H	-0.941522	-0.040504	-0.113868
H152	H	-0.441522	0.459496	0.386132
H153	H	-1.714747	-0.107184	0.571493
H154	H	-1.214747	0.392816	1.071493
H155	H	-1.366201	-0.025396	0.185541
H156	H	-0.866201	0.474604	0.685541
H157	H	-1.498281	0.686639	0.123830
H158	H	-0.998281	1.186639	0.623830
H159	H	-1.646019	-0.179781	0.671573
H160	H	-1.146019	0.320219	1.171573
H161	H	-1.070557	-0.164627	-0.113996
H162	H	-0.570557	0.335373	0.386004
H163	H	-1.366273	-0.025416	0.814591
H164	H	-0.866273	0.474584	1.314591
H165	H	-1.513974	0.108185	-0.123763
H166	H	-1.013974	0.608185	0.376237
H167	H	-1.372383	0.322688	-0.094820
H168	H	-0.872383	0.822688	0.405180
H169	H	-1.510414	0.239634	-0.123769
H170	H	-1.010414	0.739634	0.376231
H171	H	-1.501923	0.555151	-0.123788
H172	H	-1.001923	1.055151	0.376212
H173	H	-1.366217	-0.025409	0.328504
H174	H	-0.866217	0.474591	0.828504
H175	H	-1.501836	0.555186	0.123838
H176	H	-1.001836	1.055186	0.623838
