data_functionalizedCrystal
_audit_creation_method	'MofGen! by Chris Wilmer'
_symmetry_space_group_name_H-M	'P1'
_symmetry_Int_Tables_number	1
_symmetry_cell_setting	triclinic
loop_
_symmetry_equiv_pos_as_xyz
  x,y,z
_cell_length_a	10.540510
_cell_length_b	10.723022
_cell_length_c	9.798715
_cell_angle_alpha	90.002605
_cell_angle_beta	89.996061
_cell_angle_gamma	95.509732
loop_
_atom_site_label
_atom_site_type_symbol
_atom_site_fract_x
_atom_site_fract_y
_atom_site_fract_z
O1	O	1.685817	-0.175685	-0.113498
O2	O	2.185817	0.324315	0.386502
O3	O	1.316390	-0.192293	-0.113499
O4	O	1.816390	0.307707	0.386501
O5	O	1.509626	-0.002416	-0.113491
O6	O	2.009626	0.497584	0.386509
O7	O	1.492581	-0.365562	-0.113505
O8	O	1.992581	0.134438	0.386495
O9	O	1.509611	-0.002416	0.113491
O10	O	2.009611	0.497584	0.613491
O11	O	1.316376	-0.192293	0.113484
O12	O	1.816376	0.307707	0.613484
O13	O	1.685802	-0.175684	0.113484
O14	O	2.185802	0.324316	0.613484
Zn15	Zn	1.501087	-0.183989	0.149522
Zn16	Zn	2.001087	0.316011	0.649522
Zn17	Zn	1.501106	-0.183989	-0.149537
Zn18	Zn	2.001106	0.316011	0.350463
O19	O	1.492567	-0.365562	0.113477
O20	O	1.992567	0.134438	0.613477
C21	C	1.269080	-0.191055	-0.000008
C22	C	1.769080	0.308945	0.499992
C23	C	1.128132	-0.187353	-0.000008
C24	C	1.628132	0.312647	0.499992
C25	C	0.910608	-0.319260	-0.000534
C26	C	1.410608	0.180740	0.499466
C27	C	1.057202	-0.323209	-0.000015
C28	C	1.557202	0.176791	0.499985
C29	C	1.083400	-0.117807	0.129610
C30	C	1.583400	0.382193	0.629610
C31	C	0.936641	-0.114819	0.129710
C32	C	1.436641	0.385181	0.629710
C33	C	0.936852	-0.111990	-0.128411
C34	C	1.436852	0.388010	0.371589
C35	C	1.083190	-0.118434	-0.130116
C36	C	1.583190	0.381566	0.369884
C37	C	1.508379	0.044084	-0.000001
C38	C	2.008379	0.544084	0.499999
C39	C	1.504669	0.182640	-0.000004
C40	C	2.004669	0.682640	0.499996
C41	C	1.608956	0.400778	-0.000008
C42	C	2.108956	0.900778	0.499992
C43	C	1.612793	0.257573	-0.000005
C44	C	2.112793	0.757573	0.499995
C45	C	1.733112	-0.176922	-0.000010
C46	C	2.233112	0.323078	0.499990
C47	C	1.874060	-0.180625	-0.000019
C48	C	2.374060	0.319375	0.499981
C49	C	1.493814	0.587938	-0.000013
C50	C	1.993814	1.087938	0.499987
C51	C	1.497524	0.449382	-0.000010
C52	C	1.997524	0.949382	0.499990
N53	N	1.501083	-0.183987	0.353622
N54	N	2.001083	0.316013	0.853622
N55	N	1.501120	-0.183981	-0.353636
N56	N	2.001120	0.316019	0.146364
C57	C	1.582217	-0.103912	0.421402
C58	C	2.082217	0.396088	0.921402
C59	C	1.582238	-0.103907	0.578565
C60	C	2.082238	0.396093	1.078565
H61	H	1.132310	-0.019249	-0.137939
H62	H	1.632310	0.480751	0.362061
H63	H	1.651705	-0.035356	0.636853
H64	H	2.151705	0.464644	1.136853
H65	H	1.086525	-0.377617	-0.092933
H66	H	1.586525	0.122383	0.407067
H67	H	0.868633	-0.372188	-0.093491
H68	H	1.368633	0.127812	0.406509
H69	H	1.708201	0.215724	-0.000052
H70	H	2.208201	0.715724	0.499948
H71	H	0.867068	-0.371883	0.091891
H72	H	1.367068	0.128117	0.591891
H73	H	1.409257	0.224481	-0.000013
H74	H	1.909257	0.724481	0.499987
H75	H	0.914752	-0.009989	-0.129283
H76	H	1.414752	0.490011	0.370717
H77	H	1.431658	-0.252545	0.588085
H78	H	1.931658	0.247455	1.088085
H79	H	1.431631	-0.252536	0.411944
H80	H	1.931631	0.247464	0.911944
H81	H	1.651661	-0.035353	0.363082
H82	H	2.151661	0.464647	0.863082
H83	H	1.085571	-0.377947	0.093052
H84	H	1.585571	0.122053	0.593052
H85	H	1.701517	0.465184	-0.000001
H86	H	2.201517	0.965184	0.499999
H87	H	1.404963	0.384976	-0.000000
H88	H	1.904963	0.884976	0.500000
H89	H	0.896393	-0.162347	0.226597
H90	H	1.396393	0.337653	0.726597
H91	H	0.913698	-0.013207	0.135602
H92	H	1.413698	0.486793	0.635602
H93	H	1.114223	-0.166105	0.226068
H94	H	1.614223	0.333895	0.726068
H95	H	1.130842	-0.017792	0.134435
H96	H	1.630842	0.482208	0.634435
H97	H	0.894288	-0.154834	-0.226654
H98	H	1.394288	0.345166	0.273346
H99	H	1.111788	-0.169035	-0.226006
H100	H	1.611788	0.330965	0.273994
