data_functionalizedCrystal
_audit_creation_method	'MofGen! by Chris Wilmer'
_symmetry_space_group_name_H-M	'P1'
_symmetry_Int_Tables_number	1
_symmetry_cell_setting	triclinic
loop_
_symmetry_equiv_pos_as_xyz
  x,y,z
_cell_length_a	16.625547
_cell_length_b	18.101395
_cell_length_c	16.625539
_cell_angle_alpha	90.027648
_cell_angle_beta	90.024822
_cell_angle_gamma	90.031041
loop_
_atom_site_label
_atom_site_type_symbol
_atom_site_fract_x
_atom_site_fract_y
_atom_site_fract_z
Zn1	Zn	1.232632	-0.294829	0.456005
Zn2	Zn	1.732632	0.205171	0.956005
Zn3	Zn	1.232515	-0.418679	0.321173
Zn4	Zn	1.732515	0.081321	0.821173
Zn5	Zn	1.097794	-0.294855	0.321175
Zn6	Zn	1.597794	0.205145	0.821175
Zn7	Zn	1.097744	-0.418634	0.455953
Zn8	Zn	1.597744	0.081366	0.955953
O9	O	1.165171	-0.356749	0.388576
O10	O	1.665171	0.143251	0.888576
O11	O	1.345449	-0.311266	0.438140
O12	O	1.845449	0.188734	0.938140
O13	O	1.214616	-0.402283	0.208341
O14	O	1.714616	0.097717	0.708341
O15	O	1.115750	-0.191219	0.339083
O16	O	1.615750	0.308781	0.839083
O17	O	1.345363	-0.402258	0.339080
O18	O	1.845363	0.097742	0.839080
O19	O	1.214815	-0.191200	0.438141
O20	O	1.714815	0.308800	0.938141
O21	O	1.115637	-0.311310	0.208342
O22	O	1.615637	0.188690	0.708342
O23	O	0.984955	-0.311267	0.339033
O24	O	1.484955	0.188733	0.839033
O25	O	1.115665	-0.402181	0.568792
O26	O	1.615665	0.097819	1.068792
O27	O	0.984918	-0.402206	0.438054
O28	O	1.484918	0.097794	0.938054
O29	O	1.214767	-0.311223	0.568830
O30	O	1.714767	0.188777	1.068830
O31	O	1.214567	-0.522305	0.339030
O32	O	1.714567	-0.022305	0.839030
O33	O	1.115552	-0.522272	0.438052
O34	O	1.615552	-0.022272	0.938052
C35	C	0.955680	-0.356735	0.388538
C36	C	1.455680	0.143265	0.888538
C37	C	0.866059	-0.356747	0.388541
C38	C	1.366059	0.143253	0.888541
C39	C	0.793277	-0.356748	0.388551
C40	C	1.293277	0.143252	0.888551
C41	C	0.701968	-0.356752	0.388571
C42	C	1.201968	0.143248	0.888571
C43	C	0.629192	-0.356759	0.388592
C44	C	1.129192	0.143241	0.888592
C45	C	0.537878	-0.356764	0.388611
C46	C	1.037878	0.143236	0.888611
C47	C	1.165063	-0.549160	0.388553
C48	C	1.665063	-0.049160	0.888553
C49	C	1.165091	-0.631474	0.388570
C50	C	1.665091	-0.131474	0.888570
C51	C	1.165268	-0.930565	0.388613
C52	C	1.665268	-0.430565	0.888613
C53	C	1.103114	-0.899250	0.451070
C54	C	1.603114	-0.399250	0.951070
C55	C	1.102819	-0.813632	0.450874
C56	C	1.602819	-0.313632	0.950874
C57	C	1.165180	-0.782182	0.388592
C58	C	1.665180	-0.282182	0.888592
C59	C	1.142173	-0.813334	0.303613
C60	C	1.642173	-0.313334	0.803613
C61	C	1.141772	-0.898979	0.303986
C62	C	1.641772	-0.398979	0.803986
C63	C	1.250565	-0.898908	0.410388
C64	C	1.750565	-0.398908	0.910388
C65	C	1.250063	-0.813257	0.412252
C66	C	1.750063	-0.313257	0.912252
C67	C	1.165132	-0.698323	0.388575
C68	C	1.665132	-0.198323	0.888575
C69	C	1.165314	-1.014424	0.388624
C70	C	1.665314	-0.514424	0.888624
C71	C	1.375480	-0.356764	0.388615
C72	C	1.875480	0.143236	0.888615
C73	C	1.465101	-0.356771	0.388632
C74	C	1.965101	0.143229	0.888632
C75	C	1.165224	-0.356694	0.598885
C76	C	1.665224	0.143306	1.098885
C77	C	1.165246	-0.356671	0.688507
C78	C	1.665246	0.143329	1.188507
C79	C	1.165302	-0.163587	0.388618
C80	C	1.665302	0.336413	0.888618
C81	C	1.165357	-0.081273	0.388636
C82	C	1.665357	0.418727	0.888636
C83	C	1.165165	-0.356751	0.179086
C84	C	1.665165	0.143249	0.679086
C85	C	1.165299	-0.356566	0.089465
C86	C	1.665299	0.143434	0.589465
C87	C	1.165283	-0.356588	1.016683
C88	C	1.665283	0.143412	1.516683
C89	C	1.165271	-0.356613	0.925374
C90	C	1.665271	0.143387	1.425374
C91	C	1.165265	-0.356630	0.852597
C92	C	1.665265	0.143370	1.352597
C93	C	1.165252	-0.356654	0.761283
C94	C	1.665252	0.143346	1.261283
H95	H	1.117366	-0.919797	0.514285
H96	H	1.617366	-0.419797	1.014285
C97	C	1.315911	-0.784336	0.355250
C98	C	1.815911	-0.284336	0.855250
C99	C	1.386579	-0.738808	0.388951
C100	C	1.886579	-0.238808	0.888951
C101	C	1.452412	-0.709887	0.331928
C102	C	1.952412	-0.209887	0.831928
C103	C	1.447579	-0.726493	0.241202
C104	C	1.947579	-0.226493	0.741202
C105	C	1.376909	-0.772023	0.207496
C106	C	1.876909	-0.272023	0.707496
C107	C	1.311075	-0.800944	0.264520
C108	C	1.811075	-0.300944	0.764520
H109	H	1.390159	-0.726513	0.456116
H110	H	1.890159	-0.226513	0.956116
H111	H	1.504727	-0.676182	0.356880
H112	H	2.004727	-0.176182	0.856880
H113	H	1.496313	-0.705084	0.198990
H114	H	1.996313	-0.205084	0.698990
H115	H	1.373328	-0.784318	0.140332
H116	H	1.873328	-0.284318	0.640332
H117	H	1.258761	-0.834649	0.239568
H118	H	1.758761	-0.334649	0.739568
C119	C	1.273514	-0.785741	0.496734
C120	C	1.773514	-0.285741	0.996734
C121	C	1.215885	-0.735292	0.544040
C122	C	1.715885	-0.235292	1.044040
C123	C	1.239335	-0.707768	0.628521
C124	C	1.739335	-0.207768	1.128521
C125	C	1.320414	-0.730694	0.665696
C126	C	1.820414	-0.230694	1.165696
C127	C	1.378048	-0.781146	0.618390
C128	C	1.878048	-0.281146	1.118390
C129	C	1.354599	-0.808669	0.533908
C130	C	1.854599	-0.308669	1.033908
H131	H	1.155861	-0.718318	0.516521
H132	H	1.655861	-0.218318	1.016521
H133	H	1.196670	-0.670420	0.663540
H134	H	1.696670	-0.170420	1.163540
H135	H	1.337773	-0.710320	0.728234
H136	H	1.837773	-0.210320	1.228234
H137	H	1.438072	-0.798119	0.645908
H138	H	1.938072	-0.298119	1.145908
H139	H	1.397264	-0.846017	0.498889
H140	H	1.897264	-0.346017	0.998889
C141	C	1.058829	-0.784456	0.278246
C142	C	1.558829	-0.284456	0.778246
C143	C	1.049867	-0.738158	0.201081
C144	C	1.549867	-0.238158	0.701081
C145	C	0.966521	-0.709281	0.175720
C146	C	1.466521	-0.209281	0.675720
C147	C	0.892136	-0.726702	0.227524
C148	C	1.392136	-0.226702	0.727524
C149	C	0.901095	-0.773002	0.304694
C150	C	1.401095	-0.273002	0.804694
C151	C	0.984441	-0.801879	0.330055
C152	C	1.484441	-0.301879	0.830055
H153	H	1.104934	-0.725260	0.162728
H154	H	1.604934	-0.225260	0.662728
H155	H	0.959890	-0.675007	0.118593
H156	H	1.459890	-0.175007	0.618593
H157	H	0.830438	-0.705326	0.208750
H158	H	1.330438	-0.205326	0.708750
H159	H	0.846029	-0.785900	0.343046
H160	H	1.346029	-0.285900	0.843046
H161	H	0.991073	-0.836153	0.387181
H162	H	1.491073	-0.336153	0.887181
C163	C	1.313126	-0.926264	0.348940
C164	C	1.813126	-0.426264	0.848940
C165	C	1.286997	-0.977072	0.279345
C166	C	1.786997	-0.477072	0.779345
C167	C	1.349550	-1.004431	0.217894
C168	C	1.849550	-0.504431	0.717894
C169	C	1.438232	-0.980983	0.226038
C170	C	1.938232	-0.480983	0.726038
C171	C	1.464366	-0.930173	0.295635
C172	C	1.964366	-0.430173	0.795635
C173	C	1.401812	-0.902814	0.357086
C174	C	1.901812	-0.402814	0.857086
H175	H	1.221346	-0.994431	0.273314
H176	H	1.721346	-0.494431	0.773314
H177	H	1.330204	-1.042044	0.166374
H178	H	1.830204	-0.542044	0.666374
H179	H	1.484538	-1.001237	0.180548
H180	H	1.984538	-0.501237	0.680548
H181	H	1.530017	-0.912813	0.301666
H182	H	2.030017	-0.412813	0.801666
H183	H	1.421159	-0.865201	0.408607
H184	H	1.921159	-0.365201	0.908607
C185	C	1.278905	-0.928011	0.492677
C186	C	1.778905	-0.428011	0.992677
C187	C	1.288913	-1.011653	0.506239
C188	C	1.788913	-0.511653	1.006239
C189	C	1.317244	-1.040756	0.588531
C190	C	1.817244	-0.540756	1.088531
C191	C	1.335567	-0.986217	0.657260
C192	C	1.835567	-0.486217	1.157260
C193	C	1.325559	-0.902570	0.643700
C194	C	1.825559	-0.402570	1.143700
C195	C	1.297229	-0.873467	0.561408
C196	C	1.797229	-0.373467	1.061408
H197	H	1.275349	-1.052030	0.455359
H198	H	1.775349	-0.552030	0.955359
H199	H	1.324652	-1.102677	0.598568
H200	H	1.824652	-0.602677	1.098568
H201	H	1.356539	-1.007760	0.718177
H202	H	1.856539	-0.507760	1.218177
H203	H	1.339123	-0.862192	0.694580
H204	H	1.839123	-0.362192	1.194580
H205	H	1.289820	-0.811546	0.551371
H206	H	1.789820	-0.311546	1.051371
H207	H	1.039595	-0.793209	0.436450
H208	H	1.539595	-0.293209	0.936450
H209	H	1.117214	-0.792567	0.513886
H210	H	1.617214	-0.292567	1.013886
H211	H	1.040275	-0.920836	0.436827
H212	H	1.540275	-0.420836	0.936827
H213	H	1.079421	-0.919022	0.285542
H214	H	1.579421	-0.419022	0.785542
H215	H	1.185078	-0.919697	0.255864
H216	H	1.685078	-0.419697	0.755864
H217	H	1.186018	-0.792964	0.255808
H218	H	1.686018	-0.292964	0.755808
