data_functionalizedCrystal
_audit_creation_method	'MofGen! by Chris Wilmer'
_symmetry_space_group_name_H-M	'P1'
_symmetry_Int_Tables_number	1
_symmetry_cell_setting	triclinic
loop_
_symmetry_equiv_pos_as_xyz
  x,y,z
_cell_length_a	21.395362
_cell_length_b	13.032721
_cell_length_c	21.395355
_cell_angle_alpha	82.834036
_cell_angle_beta	90.043940
_cell_angle_gamma	97.222741
loop_
_atom_site_label
_atom_site_type_symbol
_atom_site_fract_x
_atom_site_fract_y
_atom_site_fract_z
Zn1	Zn	0.926247	-0.415745	0.386233
Zn2	Zn	1.426247	0.084255	0.886233
Zn3	Zn	0.912862	-0.590486	0.294757
Zn4	Zn	1.412862	-0.090486	0.794757
Zn5	Zn	0.821458	-0.415794	0.281438
Zn6	Zn	1.321458	0.084206	0.781438
Zn7	Zn	0.808142	-0.590507	0.399463
Zn8	Zn	1.308142	-0.090507	0.899463
O9	O	0.867177	-0.503133	0.340473
O10	O	1.367177	-0.003133	0.840473
O11	O	1.012151	-0.438895	0.374135
O12	O	1.512151	0.061105	0.874135
O13	O	0.900708	-0.567324	0.205313
O14	O	1.400708	-0.067324	0.705313
O15	O	0.846533	-0.269539	0.284228
O16	O	1.346533	0.230461	0.784228
O17	O	1.002318	-0.567277	0.306928
O18	O	1.502318	-0.067277	0.806928
O19	O	0.923520	-0.269504	0.361220
O20	O	1.423520	0.230496	0.861220
O21	O	0.833554	-0.438978	0.195527
O22	O	1.333554	0.061022	0.695527
O23	O	0.732011	-0.438999	0.297057
O24	O	1.232011	0.061001	0.797057
O25	O	0.823837	-0.567313	0.485385
O26	O	1.323837	-0.067313	0.985385
O27	O	0.722228	-0.567361	0.383770
O28	O	1.222228	-0.067361	0.883770
O29	O	0.910608	-0.438916	0.475665
O30	O	1.410608	0.061084	0.975665
O31	O	0.887796	-0.736737	0.319757
O32	O	1.387796	-0.236737	0.819757
O33	O	0.810859	-0.736753	0.396685
O34	O	1.310859	-0.236753	0.896685
C35	C	0.704385	-0.503188	0.340404
C36	C	1.204385	-0.003188	0.840404
C37	C	0.634740	-0.503237	0.340392
C38	C	1.134740	-0.003237	0.840392
C39	C	0.596943	-0.570163	0.385490
C40	C	1.096943	-0.070163	0.885490
C41	C	0.531509	-0.570138	0.385516
C42	C	1.031509	-0.070138	0.885516
C43	C	0.503875	-0.503197	0.340433
C44	C	1.003875	-0.003197	0.840433
C45	C	0.541681	-0.436257	0.295331
C46	C	1.041681	0.063743	0.795331
C47	C	0.607114	-0.436278	0.295311
C48	C	1.107114	0.063722	0.795311
C49	C	0.400790	-0.494778	0.283387
C50	C	0.900790	0.005222	0.783387
C51	C	0.335358	-0.494765	0.283407
C52	C	0.835358	0.005235	0.783407
C53	C	0.302059	-0.503129	0.340497
C54	C	0.802059	-0.003129	0.840497
C55	C	0.334199	-0.511527	0.397570
C56	C	0.834199	-0.011527	0.897570
C57	C	0.399631	-0.511547	0.397549
C58	C	0.899631	-0.011547	0.897549
C59	C	0.432925	-0.503167	0.340451
C60	C	0.932925	-0.003167	0.840451
C61	C	0.193311	-0.570031	0.385627
C62	C	0.693311	-0.070031	0.885627
C63	C	0.127877	-0.569998	0.385654
C64	C	0.627877	-0.069998	0.885654
C65	C	0.138050	-0.436123	0.295464
C66	C	0.638050	0.063877	0.795464
C67	C	0.203483	-0.436150	0.295443
C68	C	0.703483	0.063850	0.795443
C69	C	0.231110	-0.503110	0.340524
C70	C	0.731110	-0.003110	0.840524
C71	C	0.846447	-0.774665	0.361116
C72	C	1.346447	-0.274665	0.861116
C73	C	0.837636	-0.890828	0.369968
C74	C	1.337636	-0.390828	0.869968
C75	C	0.871809	-0.942574	0.335881
C76	C	1.371809	-0.442574	0.835881
C77	C	0.862703	-1.062634	0.345029
C78	C	1.362703	-0.562634	0.845029
C79	C	1.030605	-0.503078	0.340542
C80	C	1.530605	-0.003078	0.840542
C81	C	1.100248	-0.503055	0.340571
C82	C	1.600248	-0.003055	0.840571
C83	C	0.867231	-0.503112	0.503894
C84	C	1.367231	-0.003112	1.003894
C85	C	0.867254	-0.503103	0.573535
C86	C	1.367254	-0.003103	1.073535
C87	C	0.888005	-0.230541	0.319763
C88	C	1.388005	0.269459	0.819763
C89	C	0.896880	-0.114378	0.310937
C90	C	1.396880	0.385622	0.810937
C91	C	0.867165	-0.503079	0.177681
C92	C	1.367165	-0.003079	0.677681
C93	C	0.867286	-0.502793	0.108018
C94	C	1.367286	-0.002793	0.608018
C95	C	0.912434	-0.436244	0.601188
C96	C	1.412434	0.063756	1.101188
C97	C	0.912436	-0.436199	0.666620
C98	C	1.412436	0.063801	1.166620
C99	C	0.867264	-0.503032	0.704398
C100	C	1.367264	-0.003032	1.204398
C101	C	0.822076	-0.569895	0.676738
C102	C	1.322076	-0.069895	1.176738
C103	C	0.822070	-0.569931	0.611306
C104	C	1.322070	-0.069931	1.111306
C105	C	0.855132	-0.597135	0.815225
C106	C	1.355132	-0.097135	1.315225
C107	C	0.855142	-0.597102	0.880656
C108	C	1.355142	-0.097102	1.380656
C109	C	0.867276	-0.502921	0.906210
C110	C	1.367276	-0.002921	1.406210
C111	C	0.879414	-0.408772	0.866327
C112	C	1.379414	0.091228	1.366327
C113	C	0.879409	-0.408807	0.800895
C114	C	1.379409	0.091193	1.300895
C115	C	0.867264	-0.503000	0.775348
C116	C	1.367264	-0.003000	1.275348
C117	C	0.912462	-0.436008	1.004811
C118	C	1.412462	0.063992	1.504811
C119	C	0.912460	-0.435961	1.070245
C120	C	1.412460	0.064039	1.570245
C121	C	0.822102	-0.569667	1.080362
C122	C	1.322102	-0.069667	1.580362
C123	C	0.822101	-0.569704	1.014930
C124	C	1.322101	-0.069704	1.514930
C125	C	0.867284	-0.502876	0.977158
C126	C	1.367284	-0.002876	1.477158
H127	H	0.215806	-0.624548	0.422338
H128	H	0.715806	-0.124548	0.922338
C129	C	0.511282	-0.362622	0.245740
C130	C	1.011282	0.137378	0.745740
N131	N	0.488386	-0.307155	0.208388
N132	N	0.988386	0.192845	0.708388
H133	H	0.889296	-0.332081	0.887131
H134	H	1.389296	0.167919	1.387131
H135	H	0.801641	-0.935409	0.405926
H136	H	1.301641	-0.435409	0.905926
H137	H	0.826706	-1.107212	0.380990
H138	H	1.326706	-0.607212	0.880990
H139	H	0.785276	-0.624375	0.588793
H140	H	1.285276	-0.124375	1.088793
C141	C	0.945516	-1.054161	0.262358
C142	C	1.445516	-0.554161	0.762358
N143	N	0.982147	-1.008805	0.225768
N144	N	1.482147	-0.508805	0.725768
C145	C	0.648693	-0.362656	0.245694
C146	C	1.148693	0.137344	0.745694
N147	N	0.680010	-0.307205	0.208321
N148	N	1.180010	0.192795	0.708321
H149	H	0.097103	-0.624495	0.422382
H150	H	0.597103	-0.124495	0.922382
H151	H	0.949249	-0.381586	0.974056
H152	H	1.449249	0.118414	1.474056
C153	C	0.772383	-0.643407	0.718295
C154	C	1.272383	-0.143407	1.218295
N155	N	0.734951	-0.698775	0.749596
N156	N	1.234951	-0.198775	1.249596
H157	H	0.307088	-0.518336	0.444058
H158	H	0.807088	-0.018336	0.944058
H159	H	0.500729	-0.624637	0.422242
H160	H	1.000729	-0.124637	0.922242
C161	C	0.627328	-0.643818	0.435082
C162	C	1.127328	-0.143818	0.935082
N163	N	0.650215	-0.699294	0.472436
N164	N	1.150215	-0.199294	0.972436
C165	C	0.962129	-0.362716	0.559642
C166	C	1.462129	0.137284	1.059642
N167	N	0.999558	-0.307330	0.528348
N168	N	1.499558	0.192670	1.028348
C169	C	0.892753	-0.305244	0.757025
C170	C	1.392753	0.194756	1.257025
N171	N	0.902799	-0.227238	0.723983
N172	N	1.402799	0.272762	1.223983
H173	H	0.785316	-0.624073	1.111120
H174	H	1.285316	-0.124073	1.611120
C175	C	0.107656	-0.362486	0.245873
C176	C	0.607656	0.137514	0.745873
N177	N	0.084761	-0.307019	0.208520
N178	N	0.584761	0.192981	0.708520
C179	C	0.920441	-0.882351	0.287304
C180	C	1.420441	-0.382351	0.787304
N181	N	0.957071	-0.836992	0.250714
N182	N	1.457071	-0.336992	0.750714
C183	C	0.245062	-0.362535	0.245826
C184	C	0.745062	0.137465	0.745826
N185	N	0.276379	-0.307083	0.208452
N186	N	0.776379	0.192917	0.708452
H187	H	0.309195	-0.487933	0.236936
H188	H	0.809195	0.012067	0.736936
C189	C	0.962143	-0.362652	0.697044
C190	C	1.462143	0.137348	1.197044
N191	N	0.999584	-0.307259	0.719959
N192	N	1.499584	0.192741	1.219959
H193	H	0.949251	-0.381510	1.092757
H194	H	1.449251	0.118490	1.592757
H195	H	0.425797	-0.518383	0.444020
H196	H	0.925797	-0.018383	0.944020
H197	H	0.785314	-0.624155	0.992416
H198	H	1.285314	-0.124155	1.492416
C199	C	0.841789	-0.700667	0.924522
C200	C	1.341789	-0.200667	1.424522
N201	N	0.831730	-0.778675	0.957560
N202	N	1.331730	-0.278675	1.457560
H203	H	0.427897	-0.487962	0.236894
H204	H	0.927897	0.012038	0.736894
H205	H	0.845085	-0.673809	0.794423
H206	H	1.345085	-0.173809	1.294423
