data_functionalizedCrystal
_audit_creation_method	'MofGen! by Chris Wilmer'
_symmetry_space_group_name_H-M	'P1'
_symmetry_Int_Tables_number	1
_symmetry_cell_setting	triclinic
loop_
_symmetry_equiv_pos_as_xyz
  x,y,z
_cell_length_a	10.654550
_cell_length_b	14.519709
_cell_length_c	9.730223
_cell_angle_alpha	89.997715
_cell_angle_beta	89.996251
_cell_angle_gamma	84.082524
loop_
_atom_site_label
_atom_site_type_symbol
_atom_site_fract_x
_atom_site_fract_y
_atom_site_fract_z
O1	O	1.666589	0.129528	-0.114406
O2	O	1.300991	0.141869	-0.114384
O3	O	1.493483	0.001510	-0.114384
O4	O	1.474097	0.269887	-0.114407
O5	O	1.493481	0.001514	0.114196
O6	O	1.300989	0.141873	0.114195
O7	O	1.666586	0.129532	0.114174
Zn8	Zn	1.483787	0.135703	0.150477
Zn9	Zn	1.483790	0.135698	-0.150687
O10	O	1.474094	0.269890	0.114173
C11	C	1.254201	0.140965	-0.000092
C12	C	1.114784	0.138254	-0.000083
C13	C	1.034504	0.220895	-0.000110
C14	C	0.903507	0.218342	-0.000134
C15	C	0.933085	0.050500	-0.000108
C16	C	1.064078	0.053054	-0.000075
C17	C	1.017426	0.317797	-0.000131
C18	C	0.886430	0.315244	-0.000154
C19	C	1.492579	-0.032852	-0.000093
C20	C	1.489871	-0.135247	-0.000092
C21	C	1.479904	-0.510195	-0.000127
C22	C	1.482672	-0.405873	-0.000117
C23	C	1.484887	-0.322725	-0.000109
C24	C	1.487656	-0.218396	-0.000101
C25	C	1.713377	0.130436	-0.000122
C26	C	1.852794	0.133147	-0.000140
C27	C	1.474999	0.304253	-0.000120
C28	C	1.477707	0.406648	-0.000130
N29	N	1.483795	0.135705	0.356013
N30	N	1.483793	0.135688	-0.356224
C31	C	1.569052	0.073576	0.427939
C32	C	1.569048	0.073565	0.571822
C33	C	1.398527	0.197821	0.571840
C34	C	1.398525	0.197827	0.427959
C35	C	1.667505	0.001840	0.427931
C36	C	1.667502	0.001829	0.571814
H37	H	1.046392	0.355697	0.095532
N38	N	0.825546	0.354050	0.130543
H39	H	0.731420	0.350758	0.125749
H40	H	0.861456	0.316683	0.211600
H41	H	1.329091	0.248409	0.369398
N42	N	1.788003	0.031580	0.368796
H43	H	1.783604	0.030498	0.265129
H44	H	1.799059	0.096391	0.400922
N45	N	0.830680	0.363585	-0.126890
H46	H	0.736173	0.361764	-0.126956
H47	H	0.850631	0.430092	-0.126883
H48	H	1.329102	0.248398	0.630434
H49	H	1.646743	-0.069045	0.388884
N50	N	1.064266	0.358664	-0.130856
H51	H	1.023470	0.424160	-0.142132
H52	H	1.158907	0.358987	-0.125985
N53	N	0.878389	-0.041389	-0.000120
H54	H	0.949128	-0.093354	-0.000100
H55	H	0.824663	-0.046103	0.084606
N56	N	1.627978	-0.086908	0.630940
H57	H	1.608880	-0.129775	0.553682
H58	H	1.698551	-0.117770	0.689374
N59	N	1.795134	0.022759	0.623540
H60	H	1.813586	0.085559	0.588980
H61	H	1.795098	0.022706	0.727336
N62	N	1.150669	-0.036079	-0.000010
H63	H	1.098666	-0.090437	-0.000009
H64	H	1.205695	-0.038691	-0.084728
