data_functionalizedCrystal
_audit_creation_method	'MofGen! by Chris Wilmer'
_symmetry_space_group_name_H-M	'P1'
_symmetry_Int_Tables_number	1
_symmetry_cell_setting	triclinic
loop_
_symmetry_equiv_pos_as_xyz
  x,y,z
_cell_length_a	10.685980
_cell_length_b	12.759394
_cell_length_c	10.685880
_cell_angle_alpha	85.659907
_cell_angle_beta	99.081142
_cell_angle_gamma	94.380693
loop_
_atom_site_label
_atom_site_type_symbol
_atom_site_fract_x
_atom_site_fract_y
_atom_site_fract_z
Zn1	Zn	1.995747	-0.346170	0.866682
Zn2	Zn	1.979340	-0.509392	0.654429
Zn3	Zn	1.767187	-0.346225	0.638154
Zn4	Zn	1.783453	-0.534309	0.850333
O5	O	1.881432	-0.434024	0.752400
O6	O	2.171203	-0.357370	0.852179
O7	O	1.937524	-0.477343	0.474644
O8	O	1.797564	-0.199195	0.668499
O9	O	2.159149	-0.477289	0.696238
O10	O	1.965486	-0.199154	0.836397
O11	O	1.781656	-0.357465	0.462687
O12	O	1.591712	-0.381626	0.652647
O13	O	1.825288	-0.519757	1.030128
O14	O	1.603663	-0.519811	0.808534
O15	O	1.981259	-0.381531	1.042139
O16	O	1.953297	-0.659720	0.680386
O17	O	1.809380	-0.678027	0.824316
C18	C	1.551630	-0.453429	0.727051
C19	C	1.410541	-0.461758	0.716237
C20	C	1.881360	-0.706995	0.752373
C21	C	1.881448	-0.823768	0.752413
C22	C	2.056193	-0.823582	0.927358
C23	C	2.143606	-0.878347	1.014843
C24	C	2.143684	-0.988066	1.014876
C25	C	2.056336	-1.043022	0.927418
C26	C	1.968923	-0.988256	0.839933
C27	C	1.968858	-0.878535	0.839906
C28	C	1.794174	-0.988443	0.664996
C29	C	1.794101	-0.878724	0.664954
C30	C	1.706827	-1.043399	0.577537
C31	C	1.619418	-0.988633	0.490044
C32	C	1.619345	-0.878907	0.490013
C33	C	1.706688	-0.823958	0.577469
C34	C	2.212522	-0.414544	0.777848
C35	C	2.353613	-0.406243	0.788692
C36	C	1.906918	-0.453417	1.083478
C37	C	1.917779	-0.461682	1.224564
C38	C	1.881541	-0.159987	0.752456
C39	C	1.881588	-0.043209	0.752481
C40	C	1.856118	-0.414626	0.422615
C41	C	1.845503	-0.406052	0.281549
H42	H	1.351336	-0.515661	0.645922
H43	H	1.775304	-0.352105	1.222401
H44	H	1.412811	-0.352336	0.858994
O45	O	2.056261	-0.717005	0.927530
C46	C	2.152119	-0.680241	1.023453
H47	H	2.175596	-0.746736	1.099010
H48	H	2.240830	-0.652334	0.980294
C49	C	2.076449	-0.506284	0.991670
C50	C	2.105276	-0.587952	1.084475
H51	H	2.047558	-0.449353	1.029308
H52	H	2.011870	-0.531051	0.927041
H53	H	2.150381	-0.483041	0.955712
H54	H	2.031341	-0.611202	1.120420
H55	H	2.169842	-0.563187	1.149112
H56	H	1.987977	-0.515636	1.283718
H57	H	2.056397	-1.132362	0.927462
H58	H	2.214722	-0.833593	1.086054
H59	H	1.706892	-1.132739	0.577575
O60	O	2.228706	-1.041105	1.099918
C61	C	2.305754	-0.969084	1.177135
H62	H	2.306154	-0.887576	1.125470
H63	H	2.266594	-0.965802	1.269914
C64	C	2.441786	-1.105058	1.269403
C65	C	2.442286	-1.004951	1.205942
H66	H	2.526004	-1.127184	1.287178
H67	H	2.389875	-1.153582	1.217384
H68	H	2.409147	-1.102310	1.346711
H69	H	2.474909	-1.007703	1.128629
H70	H	2.494205	-0.956428	1.257948
O71	O	1.534256	-0.825840	0.405080
C72	C	1.409871	-0.861779	0.423043
H73	H	1.411020	-0.944444	0.471658
H74	H	1.372055	-0.806377	0.484966
C75	C	1.322124	-0.762679	0.233639
C76	C	1.323533	-0.864214	0.293338
H77	H	1.268864	-0.764177	0.153632
H78	H	1.405924	-0.738462	0.221538
H79	H	1.290613	-0.716521	0.285254
H80	H	1.355058	-0.910366	0.241731
H81	H	1.239736	-0.888438	0.305427
H82	H	1.548301	-1.033387	0.418848
O83	O	1.706383	-0.717392	0.577430
C84	C	1.587193	-0.689880	0.600618
H85	H	1.512460	-0.756193	0.573274
H86	H	1.592526	-0.676725	0.705721
C87	C	1.642533	-0.506576	0.554490
C88	C	1.550742	-0.588018	0.520896
H89	H	1.620049	-0.443740	0.505319
H90	H	1.722836	-0.525110	0.538872
H91	H	1.646968	-0.495626	0.642077
H92	H	1.546320	-0.598975	0.433315
H93	H	1.470438	-0.569484	0.536497
