data_functionalizedCrystal
_audit_creation_method	'MofGen! by Chris Wilmer'
_symmetry_space_group_name_H-M	'P1'
_symmetry_Int_Tables_number	1
_symmetry_cell_setting	triclinic
loop_
_symmetry_equiv_pos_as_xyz
  x,y,z
_cell_length_a	23.532407
_cell_length_b	9.482900
_cell_length_c	11.026607
_cell_angle_alpha	78.599815
_cell_angle_beta	84.282653
_cell_angle_gamma	80.775065
loop_
_atom_site_label
_atom_site_type_symbol
_atom_site_fract_x
_atom_site_fract_y
_atom_site_fract_z
O1	O	0.777643	-0.120705	-0.128074
O2	O	0.614021	-0.120747	-0.149356
O3	O	0.682271	-0.120724	0.037775
O4	O	0.709393	-0.120728	-0.315204
O5	O	0.668423	0.121064	-0.000387
O6	O	0.600173	0.121041	-0.187518
O7	O	0.763795	0.121083	-0.166236
Cu8	Cu	0.680720	0.143139	-0.180361
Cu9	Cu	0.697096	-0.142803	-0.135230
O10	O	0.695545	0.121060	-0.353366
C11	C	0.585824	0.000142	-0.167894
C12	C	0.522437	0.000125	-0.166261
N13	N	0.669206	0.344255	-0.212103
N14	N	0.708614	-0.343920	-0.103479
C15	C	0.133902	0.000190	-0.266790
C16	C	0.074342	0.000199	-0.265278
O17	O	0.047395	0.000251	-0.358468
N18	N	0.040015	0.000198	-0.154027
C19	C	0.065250	0.000203	-0.044283
O20	O	0.030583	0.000204	0.050483
C21	C	0.124808	0.000204	-0.045799
C22	C	0.159134	0.000191	-0.157055
C23	C	0.168227	0.000178	-0.378038
C24	C	0.227783	0.000167	-0.379549
C25	C	0.253014	0.000167	-0.269814
C26	C	0.218690	0.000179	-0.158567
C27	C	0.150042	0.000219	0.063941
C28	C	0.209604	0.000222	0.062416
C29	C	0.243930	0.000208	-0.048840
C30	C	0.303477	0.000168	-0.050343
N31	N	0.337804	0.000169	-0.161594
C32	C	0.312573	0.000169	-0.271329
C33	C	-0.059826	0.000202	-0.041109
C34	C	-0.119383	0.000190	-0.039591
C35	C	-0.110287	0.000189	-0.260586
C36	C	-0.050728	0.000191	-0.262102
C37	C	-0.025499	0.000203	-0.152360
C38	C	0.437644	0.000143	-0.274496
C39	C	0.497206	0.000125	-0.275997
C40	C	0.488104	0.000134	-0.055003
C41	C	0.428548	0.000144	-0.053500
C42	C	0.403320	0.000153	-0.163257
O43	O	0.330463	0.000122	0.042798
O44	O	0.347245	0.000187	-0.366083
C45	C	0.791992	0.000191	-0.147697
C46	C	0.855380	0.000197	-0.149328
C47	C	0.670344	0.000167	0.063845
C48	C	0.655428	0.000158	0.198380
C49	C	0.693696	0.416463	-0.144586
C50	C	0.684121	0.583877	-0.171005
C51	C	0.707473	0.000166	-0.379436
C52	C	0.722389	0.000165	-0.513970
C53	C	0.696613	0.000166	0.272681
C54	C	0.681198	0.000157	0.411731
H55	H	0.525151	0.000113	-0.366598
C56	C	0.785441	0.000195	0.432917
H57	H	0.787531	0.000211	0.346426
H58	H	0.808678	-0.084112	0.473074
H59	H	0.799010	0.084532	0.446466
H60	H	0.656061	0.645992	-0.248369
H61	H	0.608758	0.000136	0.237712
C62	C	0.631306	0.428163	-0.316616
H63	H	0.629846	0.529677	-0.320668
H64	H	0.593402	0.403300	-0.300197
H65	H	0.647298	0.403289	-0.393474
C66	C	0.731596	0.332562	-0.040072
H67	H	0.745715	0.399574	-0.001133
H68	H	0.763171	0.273173	-0.073933
H69	H	0.709276	0.273195	0.019347
H70	H	-0.022785	0.000188	-0.352697
H71	H	0.736668	0.593965	-0.026107
H72	H	0.634524	0.000135	0.451057
C73	C	0.265535	0.000163	-0.501930
H74	H	0.304623	0.000149	-0.487131
H75	H	0.252814	0.084479	-0.560387
H76	H	0.262464	-0.084165	-0.533767
C77	C	0.409903	0.000134	-0.395222
H78	H	0.438883	0.000110	-0.461682
H79	H	0.382033	0.084449	-0.412553
H80	H	0.391686	-0.084196	-0.385912
C81	C	0.237354	0.000219	0.183137
H82	H	0.208379	0.000213	0.249608
H83	H	0.255577	0.084528	0.173841
H84	H	0.265220	-0.084117	0.200451
H85	H	0.122104	0.000231	0.154538
C86	C	0.759662	0.000187	0.219560
H87	H	0.761751	0.000201	0.133070
H88	H	0.782897	-0.084122	0.259718
H89	H	0.773234	0.084522	0.233106
H90	H	0.147691	0.000183	-0.467404
H91	H	-0.147325	0.000178	0.051008
C92	C	-0.138047	0.000200	-0.381300
H93	H	-0.109076	0.000188	-0.447780
H94	H	-0.165917	0.084518	-0.398602
H95	H	-0.156266	-0.084126	-0.371988
C96	C	0.390790	0.000143	0.068880
H97	H	0.414349	0.000145	0.134016
H98	H	0.372187	-0.084164	0.087373
H99	H	0.362547	0.084480	0.060753
C100	C	-0.032078	0.000184	0.079619
H101	H	-0.061054	0.000168	0.146088
H102	H	-0.013857	0.084495	0.070332
H103	H	-0.004210	-0.084149	0.096930
C104	C	0.515865	0.000145	0.065694
H105	H	0.556251	0.000155	0.048847
H106	H	0.509065	-0.084161	0.124665
H107	H	0.499413	0.084483	0.098020
