data_functionalizedCrystal
_audit_creation_method	'MofGen! by Chris Wilmer'
_symmetry_space_group_name_H-M	'P1'
_symmetry_Int_Tables_number	1
_symmetry_cell_setting	triclinic
loop_
_symmetry_equiv_pos_as_xyz
  x,y,z
_cell_length_a	23.532407
_cell_length_b	23.532407
_cell_length_c	9.130307
_cell_angle_alpha	90.004242
_cell_angle_beta	90.000472
_cell_angle_gamma	82.848712
loop_
_atom_site_label
_atom_site_type_symbol
_atom_site_fract_x
_atom_site_fract_y
_atom_site_fract_z
O1	O	0.755259	0.069131	0.121722
O2	O	1.255259	0.569131	0.621722
O3	O	0.589395	0.079134	0.121747
O4	O	1.089395	0.579134	0.621747
O5	O	0.677329	-0.008799	0.121707
O6	O	1.177329	0.491201	0.621707
O7	O	0.667326	0.157064	0.121762
O8	O	1.167326	0.657064	0.621762
O9	O	0.677322	-0.008793	-0.121892
O10	O	1.177322	0.491207	0.378108
O11	O	0.589389	0.079140	-0.121852
O12	O	1.089389	0.579140	0.378148
O13	O	0.755252	0.069137	-0.121877
O14	O	1.255252	0.569137	0.378123
Cu15	Cu	0.672320	0.074139	-0.144107
Cu16	Cu	1.172320	0.574139	0.355893
Cu17	Cu	0.672328	0.074132	0.143977
Cu18	Cu	1.172328	0.574132	0.643977
O19	O	0.667319	0.157070	-0.121837
O20	O	1.167319	0.657070	0.378163
C21	C	0.568176	0.078882	-0.000050
C22	C	1.068176	0.578882	0.499950
C23	C	0.504959	0.078116	-0.000041
C24	C	1.004959	0.578116	0.499959
C25	C	0.238792	0.022921	-0.000099
C26	C	0.738792	0.522921	0.499901
C27	C	0.298192	0.023632	-0.000099
C28	C	0.798192	0.523632	0.499901
O29	O	0.334937	-0.020153	-0.000164
O30	O	0.834937	0.479847	0.499836
N31	N	0.320818	0.075909	-0.000071
N32	N	0.820818	0.575909	0.499929
C33	C	0.284041	0.127477	-0.000060
C34	C	0.784041	0.627477	0.499940
O35	O	0.308740	0.172007	-0.000038
O36	O	0.808740	0.672007	0.499962
C37	C	0.224642	0.126765	-0.000071
C38	C	0.724642	0.626765	0.499929
C39	C	0.202019	0.074485	-0.000083
C40	C	0.702019	0.574485	0.499917
C41	C	0.216169	-0.029354	-0.000114
C42	C	0.716169	0.470646	0.499886
C43	C	0.156772	-0.030066	-0.000111
C44	C	0.656772	0.469934	0.499889
C45	C	0.119999	0.021499	-0.000095
C46	C	0.619999	0.521499	0.499905
C47	C	0.142623	0.073774	-0.000081
C48	C	0.642623	0.573774	0.499919
C49	C	0.187865	0.178333	-0.000069
C50	C	0.687865	0.678333	0.499931
C51	C	0.128463	0.177616	-0.000082
C52	C	0.628463	0.677616	0.499918
C53	C	0.105840	0.125336	-0.000094
C54	C	0.605840	0.625336	0.499906
C55	C	0.046454	0.124627	-0.000063
C56	C	0.546454	0.624627	0.499937
N57	N	0.023828	0.072351	-0.000090
N58	N	0.523828	0.572351	0.499910
C59	C	0.060600	0.020787	-0.000106
C60	C	0.560600	0.520787	0.499894
C61	C	0.408783	0.128968	-0.000039
C62	C	0.908783	0.628968	0.499961
C63	C	0.468181	0.129681	-0.000017
C64	C	0.968181	0.629681	0.499983
C65	C	0.482328	0.025836	-0.000059
C66	C	0.982328	0.525836	0.499941
C67	C	0.422929	0.025124	-0.000070
C68	C	0.922929	0.525124	0.499930
C69	C	0.386157	0.076692	-0.000066
C70	C	0.886157	0.576692	0.499934
C71	C	-0.064136	0.019297	-0.000101
C72	C	0.435864	0.519297	0.499899
C73	C	-0.123538	0.018590	-0.000092
C74	C	0.376462	0.518590	0.499908
C75	C	-0.137680	0.122435	-0.000058
C76	C	0.362320	0.622435	0.499942
C77	C	-0.078284	0.123142	-0.000059
C78	C	0.421716	0.623142	0.499941
C79	C	-0.041512	0.071568	-0.000085
C80	C	0.458488	0.571568	0.499915
O81	O	0.009675	0.168390	-0.000003
O82	O	0.509675	0.668390	0.499997
O83	O	0.035892	-0.023737	-0.000148
O84	O	0.535892	0.476263	0.499852
C85	C	0.677071	-0.030012	-0.000096
C86	C	1.177071	0.469988	0.499904
C87	C	0.676305	-0.093229	-0.000108
C88	C	1.176305	0.406771	0.499892
C89	C	0.776472	0.069389	-0.000077
C90	C	1.276472	0.569389	0.499923
C91	C	0.839689	0.070155	-0.000076
C92	C	1.339689	0.570155	0.499924
C93	C	0.723538	-0.492332	-0.000034
C94	C	1.223538	0.007668	0.499966
C95	C	0.722827	-0.551733	-0.000023
C96	C	1.222827	-0.051733	0.499977
O97	O	0.766613	-0.588477	0.000024
O98	O	1.266613	-0.088477	0.500024
N99	N	0.670551	-0.574359	-0.000016
N100	N	1.170551	-0.074359	0.499984
C101	C	0.618982	-0.537581	-0.000006
C102	C	1.118982	-0.037581	0.499994
O103	O	0.574452	-0.562281	0.000002
O104	O	1.074452	-0.062281	0.500002
C105	C	0.619695	-0.478182	-0.000007
C106	C	1.119695	0.021818	0.499993
C107	C	0.671974	-0.455559	-0.000028
C108	C	1.171974	0.044441	0.499972
C109	C	0.775814	-0.469709	-0.000055
C110	C	1.275814	0.030291	0.499945
C111	C	0.776525	-0.410313	-0.000069
C112	C	1.276525	0.089687	0.499931
C113	C	0.724961	-0.373540	-0.000062
C114	C	1.224961	0.126460	0.499938
C115	C	0.672685	-0.396163	-0.000042
C116	C	1.172685	0.103837	0.499958
C117	C	0.568127	-0.441406	0.000014
C118	C	1.068127	0.058594	0.500014
C119	C	0.568843	-0.382003	0.000015
C120	C	1.068843	0.117997	0.500015
C121	C	0.621123	-0.359381	-0.000007
C122	C	1.121123	0.140619	0.499993
C123	C	0.621832	-0.299994	-0.000050
C124	C	1.121832	0.200006	0.499950
N125	N	0.674109	-0.277368	-0.000057
N126	N	1.174109	0.222632	0.499943
C127	C	0.725673	-0.314141	-0.000063
C128	C	1.225673	0.185859	0.499937
C129	C	0.617491	-0.662324	-0.000002
C130	C	1.117491	-0.162324	0.499998
C131	C	0.616778	-0.721722	-0.000011
C132	C	1.116778	-0.221722	0.499989
C133	C	0.720623	-0.735869	-0.000026
C134	C	1.220623	-0.235869	0.499974
C135	C	0.721335	-0.676470	-0.000027
C136	C	1.221335	-0.176470	0.499973
C137	C	0.669767	-0.639698	-0.000009
C138	C	1.169767	-0.139698	0.499991
C139	C	0.727163	-0.189404	-0.000094
C140	C	1.227163	0.310596	0.499906
C141	C	0.727869	-0.130002	-0.000114
C142	C	1.227869	0.369998	0.499886
C143	C	0.624025	-0.115860	-0.000091
C144	C	1.124025	0.384140	0.499909
C145	C	0.623318	-0.175257	-0.000079
C146	C	1.123318	0.324743	0.499921
C147	C	0.674891	-0.212028	-0.000075
C148	C	1.174891	0.287972	0.499925
O149	O	0.578069	-0.263215	-0.000091
O150	O	1.078069	0.236785	0.499909
O151	O	0.770196	-0.289433	-0.000052
O152	O	1.270196	0.210567	0.499948
C153	C	0.667577	0.178283	-0.000031
C154	C	1.167577	0.678283	0.499969
C155	C	0.668343	0.241500	-0.000010
C156	C	1.168343	0.741500	0.499990
N157	N	0.672319	0.074143	-0.346730
N158	N	1.172319	0.574143	0.153270
C159	C	0.603654	0.005383	-0.653403
C160	C	1.103654	0.505383	-0.153403
C161	C	0.569307	-0.028980	-0.576738
C162	C	1.069307	0.471020	-0.076738
C163	C	0.569297	-0.028969	-0.423404
C164	C	1.069297	0.471031	0.076596
C165	C	0.603637	0.005407	-0.346733
C166	C	1.103637	0.505407	0.153267
C167	C	0.637984	0.039770	-0.423398
C168	C	1.137984	0.539770	0.076602
C169	C	0.637989	0.039756	-0.576735
C170	C	1.137989	0.539756	-0.076735
C171	C	0.706665	0.108506	-0.423395
C172	C	1.206665	0.608506	0.076605
C173	C	0.706674	0.108499	-0.576729
C174	C	1.206674	0.608499	-0.076729
C175	C	0.741006	0.142882	-0.346724
C176	C	1.241006	0.642882	0.153276
C177	C	0.775350	0.177249	-0.423389
C178	C	1.275350	0.677249	0.076611
C179	C	0.775359	0.177237	-0.576732
C180	C	1.275359	0.677237	-0.076732
C181	C	0.741020	0.142862	-0.653394
C182	C	1.241020	0.642862	-0.153394
N183	N	0.672333	0.074123	0.346600
N184	N	1.172333	0.574123	0.846600
H185	H	0.404515	-0.017447	-0.000082
H186	H	0.904515	0.482553	0.499918
H187	H	-0.059864	0.165712	-0.000047
H188	H	0.440136	0.665712	0.499953
Cl189	Cl	-0.183920	0.187255	-0.000031
Cl190	Cl	0.316080	0.687255	0.499969
H191	H	0.770443	-0.111587	-0.000135
H192	H	1.270443	0.388413	0.499865
Cl193	Cl	0.603658	0.005374	-0.846166
Cl194	Cl	1.103658	0.505374	-0.346166
Cl195	Cl	0.528568	-0.038988	-0.000079
Cl196	Cl	1.028568	0.461012	0.499921
Cl197	Cl	0.551053	-0.750154	-0.000012
Cl198	Cl	1.051053	-0.250154	0.499988
Cl199	Cl	0.526139	-0.072193	-0.673131
Cl200	Cl	1.026139	0.427807	-0.173131
Cl201	Cl	0.362560	0.193803	-0.000015
Cl202	Cl	0.862560	0.693803	0.499985
Cl203	Cl	0.791999	-0.235622	-0.000091
Cl204	Cl	1.291999	0.264378	0.499909
H205	H	0.526850	-0.352065	0.000032
H206	H	1.026850	0.147935	0.500032
H207	H	0.819097	-0.391900	-0.000080
H208	H	1.319097	0.108100	0.499920
H209	H	0.817806	-0.499644	-0.000054
H210	H	1.317806	0.000356	0.499946
H211	H	0.575496	-0.632386	0.000001
H212	H	1.075496	-0.132386	0.500001
H213	H	0.763906	-0.658055	-0.000043
H214	H	1.263906	-0.158055	0.499957
H215	H	-0.141954	-0.023984	-0.000099
H216	H	0.358046	0.476016	0.499901
Cl217	Cl	0.128342	-0.095792	-0.000114
Cl218	Cl	0.628342	0.404208	0.499886
H219	H	0.803310	0.205232	-0.360951
H220	H	1.303310	0.705232	0.139049
H221	H	0.803330	0.205218	-0.639144
H222	H	1.303330	0.705218	-0.139144
H223	H	0.486595	0.172252	0.000013
H224	H	0.986595	0.672252	0.500013
Cl225	Cl	0.526126	-0.072176	-0.327021
Cl226	Cl	1.026126	0.427824	0.172979
Cl227	Cl	0.603632	0.005410	-0.153969
Cl228	Cl	1.103632	0.505410	0.346031
Cl229	Cl	0.502400	-0.469830	0.000051
Cl230	Cl	1.002400	0.030170	0.500051
H231	H	0.580747	-0.193677	-0.000102
H232	H	1.080747	0.306323	0.499898
Cl233	Cl	0.262388	-0.094187	-0.000135
Cl234	Cl	0.762388	0.405813	0.499865
Cl235	Cl	0.740997	0.142891	-0.153960
Cl236	Cl	1.240997	0.642891	0.346040
H237	H	0.206274	0.220904	-0.000053
H238	H	0.706274	0.720904	0.499947
H239	H	-0.034204	-0.022699	-0.000121
H240	H	0.465796	0.477301	0.499879
Cl241	Cl	0.082238	0.242449	-0.000082
Cl242	Cl	0.582238	0.742449	0.499918
H243	H	0.582043	-0.085909	-0.000091
H244	H	1.082043	0.414091	0.499909
H245	H	0.762610	-0.765821	-0.000026
H246	H	1.262610	-0.265821	0.499974
H247	H	0.741023	0.142851	-0.778246
H248	H	1.241023	0.642851	-0.278246
