data_functionalizedCrystal
_audit_creation_method	'MofGen! by Chris Wilmer'
_symmetry_space_group_name_H-M	'P1'
_symmetry_Int_Tables_number	1
_symmetry_cell_setting	triclinic
loop_
_symmetry_equiv_pos_as_xyz
  x,y,z
_cell_length_a	11.169417
_cell_length_b	19.077068
_cell_length_c	19.077174
_cell_angle_alpha	94.657148
_cell_angle_beta	87.687813
_cell_angle_gamma	92.327792
loop_
_atom_site_label
_atom_site_type_symbol
_atom_site_fract_x
_atom_site_fract_y
_atom_site_fract_z
Zn1	Zn	1.842479	-0.296659	-0.409791
Zn2	Zn	2.342479	0.203341	0.090209
Zn3	Zn	1.826830	-0.409814	-0.296635
Zn4	Zn	2.326830	0.090186	0.203365
Zn5	Zn	1.634039	-0.291947	-0.291927
Zn6	Zn	2.134039	0.208053	0.208073
Zn7	Zn	1.633960	-0.414511	-0.414486
Zn8	Zn	2.133960	0.085489	0.085514
O9	O	1.734327	-0.353233	-0.353210
O10	O	2.234327	0.146767	0.146790
O11	O	2.008353	-0.311675	-0.394786
O12	O	2.508353	0.188325	0.105214
O13	O	1.794740	-0.390241	-0.197362
O14	O	2.294740	0.109759	0.302638
O15	O	1.668272	-0.193923	-0.303626
O16	O	2.168272	0.306077	0.196374
O17	O	1.996855	-0.394810	-0.311650
O18	O	2.496855	0.105190	0.188350
O19	O	1.821412	-0.197385	-0.390220
O20	O	2.321412	0.302615	0.109780
O21	O	1.653098	-0.303644	-0.193903
O22	O	2.153098	0.196356	0.306097
O23	O	1.466079	-0.308199	-0.308179
O24	O	1.966079	0.191801	0.191821
O25	O	1.668136	-0.402816	-0.512511
O26	O	2.168136	0.097184	-0.012511
O27	O	1.466020	-0.398246	-0.398223
O28	O	1.966020	0.101754	0.101777
O29	O	1.821334	-0.316230	-0.509061
O30	O	2.321334	0.183770	-0.009061
O31	O	1.794663	-0.509086	-0.316203
O32	O	2.294663	-0.009086	0.183797
O33	O	1.652962	-0.512537	-0.402788
O34	O	2.152962	-0.012537	0.097212
C35	C	1.422502	-0.353222	-0.353200
C36	C	1.922502	0.146778	0.146800
C37	C	1.289102	-0.353235	-0.353213
C38	C	1.789102	0.146765	0.146787
C39	C	1.722139	-0.536391	-0.360532
C40	C	2.222139	-0.036391	0.139468
C41	C	1.717036	-0.614748	-0.363688
C42	C	2.217036	-0.114748	0.136312
C43	C	1.788477	-0.649742	-0.320128
C44	C	2.288477	-0.149742	0.179872
C45	C	1.783685	-0.723366	-0.323100
C46	C	2.283685	-0.223366	0.176900
C47	C	1.707445	-0.761996	-0.369629
C48	C	2.207445	-0.261996	0.130371
C49	C	1.636002	-0.726998	-0.413194
C50	C	2.136002	-0.226998	0.086806
C51	C	1.640801	-0.653374	-0.410225
C52	C	2.140801	-0.153374	0.089775
C53	C	1.685180	-0.982382	-0.383344
C54	C	2.185180	-0.482382	0.116656
C55	C	1.680384	-1.056010	-0.386308
C56	C	2.180384	-0.556010	0.113692
C57	C	1.828070	-1.052374	-0.296215
C58	C	2.328070	-0.552374	0.203785
C59	C	1.832857	-0.978749	-0.293246
C60	C	2.332857	-0.478749	0.206754
C61	C	1.761418	-0.943757	-0.336814
C62	C	2.261418	-0.443757	0.163186
N63	N	1.702542	-0.837253	-0.372667
N64	N	2.202542	-0.337253	0.127333
N65	N	1.766328	-0.868502	-0.333779
N66	N	2.266328	-0.368502	0.166221
C67	C	2.047369	-0.353244	-0.353219
C68	C	2.547369	0.146756	0.146781
C69	C	2.180769	-0.353249	-0.353224
C70	C	2.680769	0.146751	0.146776
C71	C	1.746472	-0.360573	-0.537080
C72	C	2.246472	0.139427	-0.037080
C73	C	1.751647	-0.363700	-0.615434
C74	C	2.251647	0.136300	-0.115434
C75	C	1.746596	-0.169360	-0.345874
C76	C	2.246596	0.330640	0.154126
C77	C	1.751825	-0.091004	-0.342748
C78	C	2.251825	0.408996	0.157252
C79	C	1.680336	-0.320085	-0.650444
C80	C	2.180336	0.179915	-0.150444
C81	C	1.685194	-0.323029	-0.724066
C82	C	2.185194	0.176971	-0.224066
C83	C	1.761370	-0.369587	-0.762678
C84	C	2.261370	0.130413	-0.262678
C85	C	1.832683	-0.413207	-0.727663
C86	C	2.332683	0.086793	-0.227663
C87	C	1.827818	-0.410266	-0.654042
C88	C	2.327818	0.089734	-0.154042
C89	C	1.783821	-0.383223	-0.983055
C90	C	2.283821	0.116777	-0.483055
C91	C	1.788683	-0.386160	-1.056681
C92	C	2.288683	0.113840	-0.556681
C93	C	1.641192	-0.295982	-1.053079
C94	C	2.141192	0.204018	-0.553079
C95	C	1.636339	-0.293042	-0.979457
C96	C	2.136339	0.206958	-0.479457
C97	C	1.707648	-0.336665	-0.944448
C98	C	2.207648	0.163335	-0.444448
N99	N	1.766340	-0.372597	-0.837932
N100	N	2.266340	0.127403	-0.337932
N101	N	1.702670	-0.333658	-0.869196
N102	N	2.202670	0.166342	-0.369196
C103	C	1.722302	-0.345870	-0.170053
C104	C	2.222302	0.154130	0.329947
C105	C	1.717372	-0.342544	-0.091691
C106	C	2.217372	0.157456	0.408309
H107	H	1.850554	-0.618294	-0.282235
H108	H	2.350554	-0.118294	0.217765
H109	H	1.885897	-0.445777	-0.625538
H110	H	2.385897	0.054223	-0.125538
C111	C	1.916194	-0.464581	-0.770145
C112	C	2.416194	0.035419	-0.270145
N113	N	1.978998	-0.503332	-0.802143
N114	N	2.478998	-0.003332	-0.302143
C115	C	1.862268	-0.761856	-0.275176
C116	C	2.362268	-0.261856	0.224824
N117	N	1.921459	-0.790845	-0.239076
N118	N	2.421459	-0.290845	0.260924
H119	H	1.894937	-0.947298	-0.255358
H120	H	2.394937	-0.447298	0.244642
H121	H	1.618315	-1.087462	-0.424211
H122	H	2.118315	-0.587462	0.075789
H123	H	1.850720	-0.424073	-1.088117
H124	H	2.350720	0.075927	-0.588117
H125	H	1.886233	-1.080873	-0.260746
H126	H	2.386233	-0.580873	0.239254
C127	C	1.606658	-0.943902	-0.431306
C128	C	2.106658	-0.443902	0.068694
N129	N	1.547535	-0.914917	-0.467446
N130	N	2.047535	-0.414917	0.032554
H131	H	1.574305	-0.255132	-0.948024
H132	H	2.074305	0.244868	-0.448024
C133	C	1.552132	-0.769493	-0.464375
C134	C	2.052132	-0.269493	0.035625
N135	N	1.488955	-0.801500	-0.502922
N136	N	1.988955	-0.301500	-0.002922
H137	H	1.582627	-0.624883	-0.445697
H138	H	2.082627	-0.124883	0.054303
H139	H	1.618312	-0.282168	-0.619011
H140	H	2.118312	0.217832	-0.119011
C141	C	1.606758	-0.275041	-0.762573
C142	C	2.106758	0.224959	-0.262573
N143	N	1.547681	-0.238892	-0.791576
N144	N	2.047681	0.261108	-0.291576
C145	C	1.562749	-0.248005	-1.091594
C146	C	2.062749	0.251995	-0.591594
N147	N	1.503659	-0.211868	-1.120604
N148	N	2.003659	0.288132	-0.620604
C149	C	1.862333	-0.431171	-0.944554
C150	C	2.362333	0.068829	-0.444554
N151	N	1.921497	-0.467274	-0.915552
N152	N	2.421497	0.032726	-0.415552
