data_functionalizedCrystal
_audit_creation_method	'MofGen! by Chris Wilmer'
_symmetry_space_group_name_H-M	'P1'
_symmetry_Int_Tables_number	1
_symmetry_cell_setting	triclinic
loop_
_symmetry_equiv_pos_as_xyz
  x,y,z
_cell_length_a	16.793024
_cell_length_b	16.793047
_cell_length_c	33.586455
_cell_angle_alpha	113.253857
_cell_angle_beta	66.219990
_cell_angle_gamma	112.758327
loop_
_atom_site_label
_atom_site_type_symbol
_atom_site_fract_x
_atom_site_fract_y
_atom_site_fract_z
O1	O	0.005016	-0.570216	-0.583573
O2	O	-0.034529	-0.474528	-0.453458
O3	O	0.114723	-0.474535	-0.528082
O4	O	-0.144235	-0.570209	-0.508949
O5	O	0.108729	-0.346329	-0.530229
O6	O	-0.040523	-0.346322	-0.455605
O7	O	-0.000977	-0.442010	-0.585721
Zn8	Zn	-0.021701	-0.373810	-0.521004
Zn9	Zn	-0.013805	-0.542728	-0.518175
O10	O	-0.150229	-0.442003	-0.511097
C11	C	0.005100	-0.790970	-0.238461
C12	C	0.009223	-0.693065	-0.217557
C13	C	0.003804	-0.645758	-0.241627
C14	C	-0.075059	-0.538459	-0.266316
C15	C	0.049838	-0.422849	-0.250165
C16	C	-0.040584	-0.395375	-0.435637
C17	C	-0.044693	-0.353446	-0.386631
C18	C	-0.039275	-0.401741	-0.363054
C19	C	-0.040566	-0.125547	-0.300731
C20	C	-0.044689	-0.223451	-0.321635
C21	C	-0.039266	-0.270752	-0.297563
C22	C	0.039597	-0.378051	-0.272874
C23	C	-0.085304	-0.493667	-0.289026
C24	C	0.005118	-0.521142	-0.103554
C25	C	0.009231	-0.563064	-0.152559
C26	C	0.003809	-0.514775	-0.176138
C27	C	0.010758	-0.652581	-0.172822
C28	C	0.001010	-0.556371	-0.220792
C29	C	-0.008251	-0.506059	-0.245823
C30	C	-0.046224	-0.263935	-0.366370
C31	C	-0.036476	-0.360146	-0.318399
C32	C	-0.027211	-0.410451	-0.293367
C33	C	0.815184	-0.521162	-0.508596
C34	C	0.415541	-0.125553	-0.528781
C35	C	0.375032	-0.223457	-0.531493
C36	C	0.423813	-0.270761	-0.529101
C37	C	0.149318	-0.395376	-0.530584
C38	C	0.246774	-0.353455	-0.532364
C39	C	0.294574	-0.401748	-0.529976
C40	C	0.548961	-0.790984	-0.510398
C41	C	0.286104	-0.263940	-0.532530
C42	C	0.383336	-0.360149	-0.528302
C43	C	0.432207	-0.407971	-0.525810
C44	C	0.392316	-0.497392	-0.524993
C45	C	0.303554	-0.538991	-0.526667
C46	C	0.254683	-0.491169	-0.529159
C47	C	0.263666	-0.628421	-0.525851
C48	C	0.312537	-0.676243	-0.523359
C49	C	0.401299	-0.634644	-0.521685
C50	C	0.441190	-0.545223	-0.522502
C51	C	0.529952	-0.503624	-0.520828
C52	C	0.578823	-0.551446	-0.518336
C53	C	0.538939	-0.640864	-0.517520
C54	C	0.450177	-0.682463	-0.519194
C55	C	0.587810	-0.688687	-0.515028
C56	C	0.676572	-0.647088	-0.513354
C57	C	0.716463	-0.557666	-0.514172
C58	C	0.667586	-0.509847	-0.516662
C59	C	0.569840	-0.414195	-0.521644
C60	C	0.658602	-0.372596	-0.519970
C61	C	0.707476	-0.420426	-0.517480
C62	C	0.698493	-0.283174	-0.520788
C63	C	0.649622	-0.235352	-0.523280
C64	C	0.560860	-0.276951	-0.524954
C65	C	0.520969	-0.366372	-0.524136
C66	C	0.511989	-0.229129	-0.527446
C67	C	-0.040530	-0.395407	-0.935652
C68	C	0.005063	-0.791004	-0.738448
C69	C	0.009186	-0.693099	-0.717543
C70	C	0.003779	-0.645796	-0.741620
C71	C	0.005077	-0.521171	-0.603544
C72	C	0.009198	-0.563096	-0.652550
C73	C	0.003786	-0.514804	-0.676131
C74	C	-0.040516	-0.125574	-0.800747
C75	C	0.010719	-0.652613	-0.672809
C76	C	0.000994	-0.556406	-0.720789
C77	C	-0.004621	-0.508585	-0.744908
C78	C	-0.007444	-0.419162	-0.724369
C79	C	-0.004651	-0.377560	-0.679711
C80	C	0.000964	-0.425381	-0.655592
C81	C	-0.007471	-0.288129	-0.659174
C82	C	-0.013086	-0.240308	-0.683293
C83	C	-0.015878	-0.281910	-0.727951
C84	C	-0.013056	-0.371333	-0.748490
C85	C	-0.015848	-0.412935	-0.793148
C86	C	-0.021463	-0.365114	-0.817267
C87	C	-0.024282	-0.275694	-0.796731
C88	C	-0.021490	-0.234092	-0.752073
C89	C	-0.029897	-0.227873	-0.820850
C90	C	-0.032690	-0.269476	-0.865508
C91	C	-0.029867	-0.358899	-0.886047
C92	C	-0.024255	-0.406717	-0.861925
C93	C	-0.013028	-0.502367	-0.813685
C94	C	-0.015821	-0.543969	-0.858343
C95	C	-0.021433	-0.496140	-0.882464
C96	C	-0.012998	-0.633392	-0.878882
C97	C	-0.007383	-0.681213	-0.854763
C98	C	-0.004591	-0.639611	-0.810105
C99	C	-0.007414	-0.550188	-0.789566
C100	C	0.001024	-0.687432	-0.785986
O101	O	-0.000965	0.173549	-0.277957
O102	O	-0.040516	-0.085616	-0.325254
O103	O	0.108737	0.059592	-0.327284
O104	O	-0.150219	0.028341	-0.275927
O105	O	0.114753	0.055151	-0.263265
O106	O	-0.034500	-0.090057	-0.261234
O107	O	0.005051	0.169108	-0.213937
Zn108	Zn	-0.013769	0.038820	-0.227421
Zn109	Zn	-0.021696	0.044672	-0.311770
O110	O	-0.144202	0.023900	-0.211907
O111	O	-0.034458	-0.474571	0.046517
O112	O	0.005076	-0.570190	-0.083599
O113	O	-0.144170	-0.570237	-0.008972
O114	O	0.114787	-0.474523	-0.028110
O115	O	-0.150200	-0.442024	-0.011093
O116	O	-0.000954	-0.441976	-0.085720
O117	O	-0.040488	-0.346357	0.044396
Zn118	Zn	-0.021679	-0.373810	-0.020999
Zn119	Zn	-0.013734	-0.542737	-0.018204
O120	O	0.108757	-0.346309	-0.030231
C121	C	-0.850734	0.086244	-0.289716
C122	C	-0.753280	0.087165	-0.312001
C123	C	-0.705462	0.081107	-0.288506
C124	C	-0.599592	0.000085	-0.264184
C125	C	-0.481080	0.121287	-0.283645
C126	C	-0.450996	0.035117	-0.097351
C127	C	-0.410501	0.028587	-0.146852
C128	C	-0.459292	0.034683	-0.169840
C129	C	-0.184802	0.024283	-0.235878
C130	C	-0.282257	0.023363	-0.213592
C131	C	-0.330068	0.029423	-0.237088
C132	C	-0.435938	0.110445	-0.261411
C133	C	-0.554456	-0.010759	-0.241948
C134	C	-0.584541	0.075410	-0.428242
C135	C	-0.625029	0.081943	-0.378743
C136	C	-0.576244	0.075844	-0.355753
C137	C	-0.713963	0.086424	-0.357292
C138	C	-0.616708	0.075351	-0.310510
C139	C	-0.565963	0.065400	-0.286043
C140	C	-0.321573	0.024104	-0.168302
C141	C	-0.418828	0.035176	-0.215083
C142	C	-0.469568	0.045131	-0.239552
O143	O	0.585213	0.169090	-0.504004
O144	O	0.494056	-0.090076	-0.525516
O145	O	0.488081	0.055124	-0.449918
O146	O	0.591189	0.023889	-0.579602
O147	O	0.359978	0.059584	-0.452885
O148	O	0.365953	-0.085616	-0.528483
O149	O	0.457110	0.173550	-0.506971
Zn150	Zn	0.391193	0.044675	-0.518198
Zn151	Zn	0.559974	0.038798	-0.514289
O152	O	0.463086	0.028349	-0.582569
C153	C	0.815354	-0.521094	-0.008709
C154	C	0.717898	-0.563028	-0.006927
C155	C	0.670072	-0.514739	-0.009298
C156	C	0.564182	-0.463204	-0.048354
C157	C	0.445681	-0.498945	0.013847
C158	C	0.415547	-0.125494	-0.028771
C159	C	0.375059	-0.223405	-0.031498
C160	C	0.423859	-0.270708	-0.029121
C161	C	0.149365	-0.395355	-0.030599
C162	C	0.246820	-0.353421	-0.032381
C163	C	0.294640	-0.401713	-0.030008
C164	C	0.400530	-0.453248	0.009048
C165	C	0.519038	-0.417504	-0.053155
C166	C	0.549171	-0.790955	-0.010537
C167	C	0.589653	-0.693047	-0.007809
C168	C	0.540859	-0.645741	-0.010187
C169	C	0.678588	-0.652551	-0.006775
C170	C	0.581317	-0.556344	-0.010973
C171	C	0.530562	-0.506029	-0.015250
C172	C	0.286131	-0.263897	-0.032533
C173	C	0.383402	-0.360104	-0.028335
C174	C	0.434150	-0.410423	-0.024057
O175	O	-0.620614	0.089309	0.052274
O176	O	-0.529507	0.043784	-0.078544
O177	O	-0.523494	0.194833	-0.006033
O178	O	-0.626628	-0.061740	-0.020236
O179	O	-0.395386	0.185419	-0.005549
O180	O	-0.401400	0.034370	-0.078059
O181	O	-0.492507	0.079895	0.052758
Zn182	Zn	-0.426614	0.055638	-0.012574
Zn183	Zn	-0.595401	0.068041	-0.013212
O184	O	-0.498521	-0.071154	-0.019752
C185	C	-0.437537	0.048335	0.402491
C186	C	-0.397043	0.041789	0.352989
C187	C	-0.445822	0.047883	0.329994
C188	C	-0.496646	0.126653	0.277022
C189	C	-0.465894	-0.000633	0.218811
C190	C	-0.837226	0.099430	0.210091
C191	C	-0.739773	0.100339	0.187806
C192	C	-0.691967	0.094287	0.211308
C193	C	-0.571027	0.088563	0.071568
C194	C	-0.611521	0.095108	0.121070
C195	C	-0.562739	0.089011	0.144061
C196	C	-0.511915	0.010241	0.197033
C197	C	-0.542670	0.137531	0.255247
C198	C	-0.171338	0.037467	0.263967
C199	C	-0.268788	0.036555	0.286249
C200	C	-0.316597	0.042611	0.262750
C201	C	-0.308112	0.037305	0.331542
C202	C	-0.405351	0.048369	0.284750
C203	C	-0.456092	0.058317	0.260279
C204	C	-0.700452	0.099593	0.142516
C205	C	-0.603213	0.088528	0.189308
C206	C	-0.552469	0.078578	0.213776
O207	O	-0.040608	-1.085661	-0.825229
O208	O	-0.001018	-0.826491	-0.777938
O209	O	-0.150287	-0.971682	-0.775894
O210	O	0.108661	-0.940470	-0.827272
O211	O	-0.144253	-0.976123	-0.711878
O212	O	0.005016	-0.830932	-0.713922
O213	O	-0.034575	-1.090102	-0.761213
Zn214	Zn	-0.013821	-0.961222	-0.727403
Zn215	Zn	-0.021771	-0.955371	-0.811747
O216	O	0.114695	-0.944911	-0.763256
O217	O	-0.036862	-0.230384	-0.253947
C218	C	-0.115987	-0.202041	-0.227222
H219	H	-0.171766	-0.243574	-0.244184
H220	H	-0.138525	-0.211820	-0.192195
H221	H	-0.101653	-0.127812	-0.223676
H222	H	0.107243	-0.392097	-0.234140
H223	H	-0.434254	-0.059305	0.203012
O224	O	-0.036588	-0.488963	-0.383247
C225	C	0.044324	-0.497660	-0.384082
H226	H	0.071155	-0.440230	-0.356230
H227	H	0.030654	-0.564745	-0.378209
H228	H	0.096591	-0.495039	-0.418483
O229	O	0.411281	-0.769736	-0.518482
C230	C	0.385809	-0.821423	-0.558371
H231	H	0.428159	-0.786089	-0.586077
H232	H	0.397462	-0.890695	-0.570021
H233	H	0.311209	-0.829280	-0.551270
H234	H	0.245727	-0.224039	-0.533582
H235	H	0.013390	-0.692483	-0.152899
O236	O	-0.290821	0.029578	-0.281271
C237	C	-0.265315	-0.050930	-0.307266
H238	H	-0.307875	-0.105068	-0.288962
H239	H	-0.276655	-0.074108	-0.341830
H240	H	-0.190794	-0.038714	-0.312025
H241	H	-0.738384	0.080845	-0.251490
O242	O	0.316929	-0.448107	0.037950
C243	C	0.253883	-0.486723	0.013161
H244	H	0.280915	-0.535956	-0.020340
H245	H	0.187071	-0.524055	0.033663
H246	H	0.242681	-0.431386	0.006117
H247	H	-0.142704	-0.524425	-0.305055
O248	O	-0.520016	-0.048516	0.156225
C249	C	-0.612257	-0.090568	0.159495
H250	H	-0.654822	-0.046364	0.188897
H251	H	-0.624319	-0.100622	0.126564
H252	H	-0.632220	-0.158720	0.165668
O253	O	-0.762008	0.090359	-0.380466
C254	C	-0.718322	0.167741	-0.395996
H255	H	-0.643678	0.189804	-0.398303
H256	H	-0.725228	0.151706	-0.430942
H257	H	-0.750734	0.224284	-0.371302
H258	H	0.496488	-0.236853	-0.027824
H259	H	0.261721	-0.474856	-0.029430
O260	O	0.785052	-0.242454	-0.519140
C261	C	0.809892	-0.152914	-0.520414
H262	H	0.746537	-0.129407	-0.508062
H263	H	0.854766	-0.107659	-0.497517
H264	H	0.848461	-0.149270	-0.556693
H265	H	0.718963	-0.692464	-0.005731
H266	H	-0.365918	0.157102	-0.260160
O267	O	-0.049204	-0.216238	-0.390138
C268	C	0.027481	-0.141415	-0.392510
H269	H	0.083735	-0.155127	-0.387530
H270	H	0.051478	-0.129349	-0.427119
H271	H	0.009238	-0.079266	-0.364801
H272	H	0.191099	-0.662437	-0.527221
H273	H	0.634201	-0.467612	-0.072637
O274	O	0.003905	-0.774625	-0.805990
C275	C	0.084908	-0.782922	-0.806707
H276	H	0.111650	-0.725199	-0.778912
H277	H	0.071401	-0.849795	-0.800662
H278	H	0.137171	-0.780484	-0.841126
H279	H	0.710767	-0.684484	-0.506030
O280	O	-0.273345	0.020181	-0.145217
C281	C	-0.246160	-0.060075	-0.166555
H282	H	-0.245245	-0.085233	-0.203576
H283	H	-0.175576	-0.046610	-0.164748
H284	H	-0.295675	-0.113277	-0.148597
H285	H	-0.449229	0.177371	-0.300885
H286	H	0.182115	-0.525189	-0.530531
H287	H	0.279916	-0.749353	-0.522691
H288	H	-0.669612	-0.046576	-0.265443
O289	O	0.794006	-0.379781	-0.515772
C290	C	0.795515	-0.304602	-0.477111
H291	H	0.726185	-0.313501	-0.450773
H292	H	0.848413	-0.298514	-0.462178
H293	H	0.813169	-0.241003	-0.487119
H294	H	0.001650	-0.679613	-0.278166
H295	H	0.682238	-0.162236	-0.523943
H296	H	0.003251	-0.391359	-0.619081
H297	H	-0.574318	0.196197	0.271049
H298	H	-0.503619	0.071273	-0.373665
O299	O	0.709377	-0.427441	-0.009911
C300	C	0.734837	-0.376156	0.030011
H301	H	0.743205	-0.422269	0.044612
H302	H	0.801567	-0.323025	0.021780
H303	H	0.680328	-0.341704	0.055921
H304	H	-0.586315	-0.066836	-0.224702
H305	H	0.544602	-0.156012	-0.528109
O306	O	-0.015585	-0.674023	-0.922461
C307	C	0.063544	-0.702342	-0.949215
H308	H	0.093545	-0.710704	-0.926578
H309	H	0.046277	-0.769423	-0.975465
H310	H	0.114797	-0.649799	-0.967237
H311	H	-0.531920	0.039247	-0.151930
O312	O	0.013689	-0.700230	-0.648998
C313	C	-0.062996	-0.702885	-0.610548
H314	H	-0.119244	-0.691395	-0.616645
H315	H	-0.087004	-0.771450	-0.604187
H316	H	-0.044748	-0.647958	-0.579723
O317	O	-0.004919	-0.247676	-0.615586
C318	C	-0.079432	-0.294920	-0.586876
H319	H	-0.104438	-0.367041	-0.607419
H320	H	-0.058052	-0.295553	-0.558834
H321	H	-0.136056	-0.260371	-0.571159
H322	H	-0.740818	0.102779	0.123104
O323	O	-0.015787	-0.153079	-0.663199
C324	C	-0.012128	-0.126511	-0.618423
H325	H	0.020308	-0.171467	-0.615416
H326	H	0.029804	-0.053508	-0.609680
H327	H	-0.083536	-0.133073	-0.593966
H328	H	-0.047834	-0.232081	-0.882358
O329	O	0.407550	-0.539055	0.047818
C330	C	0.321877	-0.523702	0.073241
H331	H	0.294950	-0.508609	0.051551
H332	H	0.273336	-0.586155	0.084145
H333	H	0.328066	-0.463930	0.104584
O334	O	-0.024127	-0.146825	-0.732105
C335	C	0.050353	-0.091704	-0.756906
H336	H	0.075435	-0.133820	-0.793206
H337	H	0.028902	-0.035359	-0.757214
H338	H	0.106946	-0.061358	-0.740352
O339	O	-0.731326	0.093816	0.255445
C340	C	-0.808492	0.019653	0.258888
H341	H	-0.802039	-0.034327	0.224823
H342	H	-0.814507	-0.009104	0.285884
H343	H	-0.871329	0.042417	0.268743
O344	O	0.557149	-0.377437	-0.087142
C345	C	0.642848	-0.392740	-0.112544
H346	H	0.645819	-0.455358	-0.108138
H347	H	0.654689	-0.403108	-0.149934
H348	H	0.697333	-0.332131	-0.100104
O349	O	0.454259	-0.686250	-0.011792
C350	C	0.452553	-0.761368	-0.050473
H351	H	0.515085	-0.785509	-0.061628
H352	H	0.389265	-0.817836	-0.041972
H353	H	0.451928	-0.741504	-0.079097
O354	O	0.237853	-0.216284	-0.033688
C355	C	0.160920	-0.213656	0.004674
H356	H	0.173282	-0.225156	0.032713
H357	H	0.147264	-0.145096	0.017146
H358	H	0.100006	-0.268589	-0.004818
O359	O	-0.133041	-0.620292	-0.262866
C360	C	-0.221887	-0.611719	-0.240510
H361	H	-0.226742	-0.549238	-0.244190
H362	H	-0.271048	-0.673845	-0.256253
H363	H	-0.239715	-0.605145	-0.203012
O364	O	-0.476144	0.083441	0.122634
C365	C	-0.474447	0.006033	0.085052
H366	H	-0.536977	-0.014575	0.073829
H367	H	-0.411157	0.021318	0.055961
H368	H	-0.473832	-0.051238	0.094975
H369	H	-0.283673	0.042875	0.225734
O370	O	-0.259894	0.033383	0.354633
C371	C	-0.232717	-0.046877	0.333300
H372	H	-0.231794	-0.072039	0.296278
H373	H	-0.162137	-0.033416	0.335112
H374	H	-0.282241	-0.100074	0.351260
H375	H	-0.518447	0.052455	0.347905
H376	H	-0.023718	-0.530163	-0.918978
H377	H	0.088092	-0.309407	-0.275738
O378	O	-0.488814	0.185455	0.317864
C379	C	-0.533736	0.251172	0.330280
H380	H	-0.587065	0.223518	0.311842
H381	H	-0.567719	0.269163	0.368475
H382	H	-0.482749	0.313976	0.320563
H383	H	-0.005085	-0.754331	-0.871556
O384	O	0.001421	-0.427474	-0.155928
C385	C	0.080557	-0.376168	-0.142837
H386	H	0.136327	-0.411615	-0.164359
H387	H	0.103101	-0.306728	-0.148039
H388	H	0.066236	-0.368673	-0.105528
