data_functionalizedCrystal
_audit_creation_method	'MofGen! by Chris Wilmer'
_symmetry_space_group_name_H-M	'P1'
_symmetry_Int_Tables_number	1
_symmetry_cell_setting	triclinic
loop_
_symmetry_equiv_pos_as_xyz
  x,y,z
_cell_length_a	12.759401
_cell_length_b	21.395361
_cell_length_c	12.759393
_cell_angle_alpha	89.961845
_cell_angle_beta	89.979062
_cell_angle_gamma	90.032233
loop_
_atom_site_label
_atom_site_type_symbol
_atom_site_fract_x
_atom_site_fract_y
_atom_site_fract_z
Zn1	Zn	1.606150	-0.249383	-0.593964
Zn2	Zn	1.605992	-0.354173	-0.418261
Zn3	Zn	1.430448	-0.249416	-0.418299
Zn4	Zn	1.430391	-0.354129	-0.593898
O5	O	1.518245	-0.301775	-0.506106
O6	O	1.753150	-0.263288	-0.570668
O7	O	1.582663	-0.340309	-0.271245
O8	O	1.453845	-0.161734	-0.441645
O9	O	1.753033	-0.340277	-0.441580
O10	O	1.582932	-0.161709	-0.570706
O11	O	1.453692	-0.263345	-0.271273
O12	O	1.283420	-0.263302	-0.441581
O13	O	1.453748	-0.340202	-0.740928
O14	O	1.283378	-0.340234	-0.570593
O15	O	1.582877	-0.263245	-0.740977
O16	O	1.582608	-0.441845	-0.441516
O17	O	1.453595	-0.441813	-0.570556
C18	C	1.245278	-0.301768	-0.506085
C19	C	1.128501	-0.301779	-0.506101
C20	C	1.073645	-0.341899	-0.573171
C21	C	0.963921	-0.341901	-0.573192
C22	C	0.963919	-0.261663	-0.439063
C23	C	1.073641	-0.261658	-0.439048
C24	C	1.518106	-0.464563	-0.506047
C25	C	1.518143	-0.534204	-0.506057
C26	C	1.585380	-0.566913	-0.438935
C27	C	1.585429	-0.632349	-0.438958
C28	C	1.518222	-0.665072	-0.506093
C29	C	1.450981	-0.632355	-0.573229
C30	C	1.450941	-0.566921	-0.573211
C31	C	1.423624	-0.768788	-0.514329
C32	C	1.423662	-0.834221	-0.514340
C33	C	1.518345	-0.866893	-0.506155
C34	C	1.612993	-0.834125	-0.497937
C35	C	1.612953	-0.768691	-0.497919
C36	C	1.518258	-0.736025	-0.506121
C37	C	1.585640	-0.970555	-0.439054
C38	C	1.585690	-1.035991	-0.439085
C39	C	1.451233	-1.035997	-0.573350
C40	C	1.451192	-0.970562	-0.573325
C41	C	1.518394	-0.937844	-0.506171
C42	C	1.792278	-0.301783	-0.506127
C43	C	1.909055	-0.301787	-0.506136
C44	C	1.518324	-0.301715	-0.780139
C45	C	1.518357	-0.301689	-0.896916
C46	C	1.518413	-0.138352	-0.506187
C47	C	1.518484	-0.068711	-0.506222
C48	C	1.585600	-0.261612	-0.951805
C49	C	1.585617	-0.261585	-1.061529
C50	C	1.451147	-0.341719	-1.061465
C51	C	1.451125	-0.341742	-0.951743
C52	C	1.518227	-0.301790	-0.233138
C53	C	1.518397	-0.301639	-0.116362
H54	H	1.640184	-0.658986	-0.384300
H55	H	0.919261	-0.374570	-0.627809
H56	H	1.396412	-0.374329	-1.106119
O57	O	1.650773	-0.938739	-0.373723
C58	C	1.590969	-0.900947	-0.305816
H59	H	1.508240	-0.920719	-0.299255
H60	H	1.629013	-0.900223	-0.224998
H61	H	1.587296	-0.851342	-0.338283
O62	O	1.331740	-0.866079	-0.522141
C63	C	1.318273	-0.903993	-0.432715
H64	H	1.366497	-0.884280	-0.365183
H65	H	1.231918	-0.904798	-0.409794
H66	H	1.345513	-0.953560	-0.450856
H67	H	0.919239	-0.228998	-0.384469
H68	H	1.396263	-0.659003	-0.627892
O69	O	1.126983	-0.380933	-0.638161
C70	C	1.190409	-0.421347	-0.578218
H71	H	1.157301	-0.425163	-0.495463
H72	H	1.191631	-0.469591	-0.616070
H73	H	1.273579	-0.401970	-0.574649
O74	O	1.385522	-0.535242	-0.638447
C75	C	1.326235	-0.578152	-0.697733
H76	H	1.322648	-0.624821	-0.654714
H77	H	1.243440	-0.559286	-0.708863
H78	H	1.364674	-0.585047	-0.777562
H79	H	1.396517	-1.062640	-0.628017
O80	O	1.385770	-0.380736	-0.898580
C81	C	1.326423	-0.416076	-0.970497
H82	H	1.369466	-0.418233	-1.048718
H83	H	1.315157	-0.465447	-0.938763
H84	H	1.246656	-0.393126	-0.982164
H85	H	1.118306	-0.228984	-0.384431
H86	H	1.640371	-0.228948	-1.106215
O87	O	1.650767	-0.535230	-0.373682
C88	C	1.710106	-0.578137	-0.314426
H89	H	1.713742	-0.624758	-0.357473
H90	H	1.792881	-0.559194	-0.303291
H91	H	1.671682	-0.585154	-0.234599
O92	O	1.704984	-0.736956	-0.489985
C93	C	1.788566	-0.779818	-0.482736
H94	H	1.763707	-0.826460	-0.518026
H95	H	1.859142	-0.760849	-0.527421
H96	H	1.810436	-0.786804	-0.396903
O97	O	1.704969	-0.865879	-0.490184
C98	C	1.718465	-0.903681	-0.579643
H99	H	1.670190	-0.883953	-0.647145
H100	H	1.804814	-0.904356	-0.602592
H101	H	1.691306	-0.953299	-0.561533
H102	H	1.640449	-1.062622	-0.384428
H103	H	1.396437	-0.943928	-0.627978
H104	H	1.640342	-0.228997	-0.907167
O105	O	1.331546	-0.737150	-0.522255
C106	C	1.248022	-0.780101	-0.529534
H107	H	1.272936	-0.826747	-0.494255
H108	H	1.177412	-0.761253	-0.484856
H109	H	1.226177	-0.787034	-0.615374
