data_functionalizedCrystal
_audit_creation_method	'MofGen! by Chris Wilmer'
_symmetry_space_group_name_H-M	'P1'
_symmetry_Int_Tables_number	1
_symmetry_cell_setting	triclinic
loop_
_symmetry_equiv_pos_as_xyz
  x,y,z
_cell_length_a	19.077105
_cell_length_b	12.594516
_cell_length_c	19.076919
_cell_angle_alpha	87.724265
_cell_angle_beta	89.923776
_cell_angle_gamma	87.708332
loop_
_atom_site_label
_atom_site_type_symbol
_atom_site_fract_x
_atom_site_fract_y
_atom_site_fract_z
Zn1	Zn	1.058345	-0.514931	0.440441
Zn2	Zn	1.063009	-0.686070	0.322942
Zn3	Zn	0.945560	-0.500673	0.318234
Zn4	Zn	0.940831	-0.685429	0.435695
O5	O	1.001936	-0.596776	0.379328
O6	O	1.157296	-0.543869	0.428812
O7	O	1.051361	-0.655778	0.223986
O8	O	0.960549	-0.353621	0.334461
O9	O	1.160723	-0.669604	0.342486
O10	O	1.043411	-0.364097	0.424246
O11	O	0.965072	-0.519568	0.220527
O12	O	0.846600	-0.518945	0.329859
O13	O	0.952488	-0.668510	0.534656
O14	O	0.843125	-0.654684	0.416157
O15	O	1.038825	-0.543247	0.538143
O16	O	1.046775	-0.834928	0.337883
O17	O	0.957011	-0.834457	0.420722
C18	C	0.819366	-0.585199	0.371982
C19	C	0.741261	-0.580272	0.368856
C20	C	1.001904	-0.873314	0.379315
C21	C	1.001954	-0.991624	0.379335
C22	C	0.702780	-0.648729	0.412248
C23	C	0.629392	-0.644086	0.409314
C24	C	0.594487	-0.570992	0.362984
C25	C	0.632974	-0.502528	0.319591
C26	C	0.706360	-0.507166	0.322529
C27	C	0.375197	-0.549527	0.349391
C28	C	0.301805	-0.544896	0.346455
C29	C	0.298228	-0.686453	0.436179
C30	C	0.371616	-0.691089	0.439109
C31	C	0.410096	-0.622622	0.395719
N32	N	0.519473	-0.566247	0.359983
N33	N	0.485109	-0.627362	0.398724
C34	C	1.050829	-1.061101	0.334331
C35	C	1.065420	-1.136633	0.399156
C36	C	0.987449	-1.126899	0.314555
C37	C	1.016576	-1.065601	0.444195
C38	C	0.938577	-1.055856	0.359549
C39	C	0.953142	-1.131357	0.424417
C40	C	1.185219	-0.608399	0.386703
C41	C	1.263323	-0.613352	0.389846
C42	C	0.994608	-0.607398	0.562609
C43	C	0.991485	-0.611924	0.640712
C44	C	1.001987	-0.319160	0.379358
C45	C	1.002008	-0.200856	0.379371
C46	C	1.009276	-0.586121	0.196762
C47	C	1.012535	-0.581304	0.118665
C48	C	1.034967	-0.548835	0.679222
C49	C	1.032024	-0.553084	0.752608
C50	C	0.985603	-0.620427	0.787483
C51	C	0.942117	-0.683518	0.748968
C52	C	0.945056	-0.679263	0.675583
C53	C	0.971988	-0.640140	1.006765
C54	C	0.969053	-0.644392	1.080155
C55	C	1.058960	-0.513956	1.083790
C56	C	1.061899	-0.509712	1.010404
C57	C	1.018410	-0.572799	0.971895
N58	N	0.982596	-0.624774	0.862495
N59	N	1.021414	-0.568446	0.896884
H60	H	0.598063	-0.699832	0.444647
H61	H	1.028812	-1.038647	0.499038
H62	H	1.119040	-1.171951	0.415911
O63	O	0.268007	-0.473790	0.301431
C64	C	0.317707	-0.414370	0.263751
H65	H	0.368875	-0.415721	0.294630
H66	H	0.296799	-0.328725	0.255504
H67	H	0.327634	-0.450613	0.210650
O68	O	0.902801	-0.740667	0.638280
C69	C	0.861189	-0.801007	0.684796
H70	H	0.887872	-0.809538	0.738269
H71	H	0.854538	-0.883166	0.663284
H72	H	0.807511	-0.759110	0.690448
H73	H	0.931249	-0.699233	1.108548
O74	O	0.412646	-0.483175	0.307205
C75	C	0.456886	-0.543707	0.263436
H76	H	0.466899	-0.626550	0.288569
H77	H	0.508863	-0.503038	0.256127
H78	H	0.430669	-0.550480	0.210219
O79	O	1.107041	-0.444421	0.976485
C80	C	1.154106	-0.505399	0.935825
H81	H	1.157586	-0.590782	0.958107
H82	H	1.208211	-0.470238	0.937148
H83	H	1.134580	-0.504484	0.879341
H84	H	1.094366	-0.462593	1.115151
H85	H	0.911832	-1.162019	0.462536
H86	H	0.884974	-1.020516	0.342776
O87	O	0.405409	-0.762124	0.484177
C88	C	0.355707	-0.821571	0.521834
H89	H	0.303300	-0.774819	0.522226
H90	H	0.374710	-0.837609	0.578033
H91	H	0.348920	-0.900355	0.495695
O92	O	0.599149	-0.431575	0.274493
C93	C	0.619852	-0.451756	0.205148
H94	H	0.673193	-0.495946	0.205777
H95	H	0.623617	-0.373202	0.173828
H96	H	0.579489	-0.502439	0.179766
H97	H	0.904317	-0.738346	0.777369
H98	H	0.266889	-0.742194	0.471506
O99	O	0.929709	-0.701512	0.969471
C100	C	0.888092	-0.761833	1.015991
H101	H	0.914788	-0.770400	1.069456
H102	H	0.881408	-0.843980	0.994471
H103	H	0.834428	-0.719901	1.021664
H104	H	0.731194	-0.708254	0.449972
H105	H	0.737691	-0.451416	0.287199
H106	H	1.092166	-1.030250	0.296309
H107	H	1.072771	-0.494001	0.650832
O108	O	0.972864	-1.159086	0.249132
C109	C	1.024508	-1.123340	0.201847
H110	H	1.050405	-1.051673	0.223752
H111	H	0.999057	-1.099593	0.149203
H112	H	1.065824	-1.189846	0.194349
H113	H	1.067433	-0.501713	0.783959
