data_functionalizedCrystal
_audit_creation_method	'MofGen! by Chris Wilmer'
_symmetry_space_group_name_H-M	'P1'
_symmetry_Int_Tables_number	1
_symmetry_cell_setting	triclinic
loop_
_symmetry_equiv_pos_as_xyz
  x,y,z
_cell_length_a	27.780830
_cell_length_b	27.780882
_cell_length_c	27.780936
_cell_angle_alpha	120.002201
_cell_angle_beta	89.996995
_cell_angle_gamma	119.999883
loop_
_atom_site_label
_atom_site_type_symbol
_atom_site_fract_x
_atom_site_fract_y
_atom_site_fract_z
O1	O	0.330212	-0.424595	-0.014327
O2	O	0.260214	-0.326025	0.014246
O3	O	0.260214	-0.424591	-0.084323
O4	O	0.330212	-0.326029	0.084241
O5	O	0.340273	-0.344532	-0.084324
O6	O	0.340273	-0.245966	0.014245
O7	O	0.410272	-0.344536	-0.014328
Zn8	Zn	0.387983	-0.282540	-0.000042
Zn9	Zn	0.282502	-0.388021	-0.000040
O10	O	0.410272	-0.245970	0.084240
C11	C	0.120429	-0.177735	0.029860
C12	C	0.056934	-0.211527	0.025771
C13	C	0.149664	-0.119398	0.030265
C14	C	0.207597	-0.177732	0.029863
C15	C	0.237302	-0.211522	0.025779
C16	C	0.236699	-0.119396	0.030268
C17	C	0.207595	-0.090570	0.029858
C18	C	0.237298	-0.031165	0.025768
C19	C	0.149666	-0.206429	0.030270
C20	C	0.261294	0.016828	0.022462
C21	C	0.005636	-0.238829	0.022467
C22	C	0.261301	-0.238821	0.022478
C23	C	0.291399	0.077037	0.018315
C24	C	-0.058719	-0.273079	0.018323
C25	C	0.291408	-0.273068	0.018337
O26	O	-0.080483	-0.245979	0.014226
O27	O	-0.249050	-0.344557	-0.014357
O28	O	-0.150498	-0.245986	0.084215
O29	O	-0.179034	-0.344551	-0.084347
O30	O	-0.150496	-0.326041	0.084223
O31	O	-0.249047	-0.424612	-0.014350
O32	O	-0.080480	-0.326034	0.014233
Zn33	Zn	-0.164763	-0.388034	-0.000057
Zn34	Zn	-0.164767	-0.282558	-0.000067
O35	O	-0.179032	-0.424606	-0.084340
C36	C	0.207603	-0.492830	-0.372398
C37	C	0.237306	-0.459039	-0.402102
C38	C	0.149672	-0.551167	-0.401499
C39	C	0.207603	-0.492830	-0.285232
C40	C	0.237306	-0.459039	-0.221737
C41	C	0.149673	-0.551167	-0.314465
C42	C	0.120438	-0.579995	-0.372395
C43	C	0.056943	-0.639401	-0.402097
C44	C	0.236705	-0.464135	-0.314468
C45	C	0.005646	-0.687394	-0.426092
C46	C	0.261303	-0.431739	-0.426100
C47	C	0.261303	-0.431738	-0.170440
C48	C	-0.058709	-0.747604	-0.456196
C49	C	0.291408	-0.397489	-0.456206
C50	C	0.291409	-0.397489	-0.106085
C51	C	0.462877	-0.580013	-0.029973
C52	C	0.433173	-0.639421	-0.025886
C53	C	0.520808	-0.551187	-0.030382
C54	C	0.462879	-0.492843	-0.029968
C55	C	0.433177	-0.459049	-0.025876
C56	C	0.520809	-0.464150	-0.030378
C57	C	0.550043	-0.492848	-0.029974
C58	C	0.613538	-0.459058	-0.025889
C59	C	0.433776	-0.551182	-0.030376
C60	C	0.664835	-0.431759	-0.022587
C61	C	0.409175	-0.687416	-0.022583
C62	C	0.409181	-0.431746	-0.022569
C63	C	0.729189	-0.397511	-0.018446
C64	C	0.379069	-0.747628	-0.018441
C65	C	0.379076	-0.397494	-0.018422
O66	O	0.410265	0.234703	-0.014347
O67	O	0.340264	0.094707	0.014223
O68	O	0.340269	0.094700	-0.084344
O69	O	0.410260	0.234710	0.084221
O70	O	0.260208	0.094698	-0.084348
O71	O	0.260203	0.094705	0.014220
O72	O	0.330204	0.234701	-0.014350
Zn73	Zn	0.282492	0.164703	-0.000066
Zn74	Zn	0.387976	0.164705	-0.000061
O75	O	0.330199	0.234708	0.084217
O76	O	-0.249032	-0.905270	-0.494991
O77	O	-0.080469	-0.765272	-0.425000
O78	O	-0.179032	-0.765268	-0.424991
O79	O	-0.150470	-0.905275	-0.495000
O80	O	-0.179034	-0.765270	-0.505051
O81	O	-0.080472	-0.765274	-0.505060
O82	O	-0.249034	-0.905272	-0.575052
Zn83	Zn	-0.164753	-0.835274	-0.552767
Zn84	Zn	-0.164751	-0.835271	-0.447284
O85	O	-0.150472	-0.905277	-0.575061
O86	O	0.330217	-0.326024	-0.575068
O87	O	0.260214	-0.424591	-0.505070
O88	O	0.260216	-0.326022	-0.505064
O89	O	0.330215	-0.424592	-0.575075
O90	O	0.340274	-0.245965	-0.425006
O91	O	0.340272	-0.344533	-0.425012
O92	O	0.410275	-0.245966	-0.495010
Zn93	Zn	0.387984	-0.282539	-0.447300
Zn94	Zn	0.282505	-0.388018	-0.552780
O95	O	0.410273	-0.344535	-0.495016
C96	C	0.550050	-0.090564	0.372313
C97	C	0.613544	-0.031158	0.402014
C98	C	0.520815	-0.119391	0.401417
C99	C	0.462884	-0.177730	0.285149
C100	C	0.433180	-0.211521	0.221655
C101	C	0.433782	-0.206424	0.314386
C102	C	0.462885	-0.177729	0.372316
C103	C	0.433182	-0.211519	0.402021
C104	C	0.520814	-0.119392	0.314383
C105	C	0.409186	-0.238819	0.426019
C106	C	0.664841	0.016835	0.426009
C107	C	0.409183	-0.238822	0.170358
C108	C	0.379081	-0.273068	0.456126
C109	C	0.729196	0.077045	0.456112
C110	C	0.379077	-0.273072	0.106003
C111	C	-0.134948	-0.177763	0.372282
C112	C	-0.139043	-0.211555	0.401987
C113	C	-0.134551	-0.119430	0.401379
C114	C	-0.134925	-0.177758	0.285119
C115	C	-0.138995	-0.211545	0.221627
C116	C	-0.134528	-0.119425	0.314348
C117	C	-0.134951	-0.090602	0.372274
C118	C	-0.139050	-0.031201	0.401970
C119	C	-0.134524	-0.206454	0.314356
C120	C	-0.142362	0.016788	0.425961
C121	C	-0.142353	-0.238856	0.425985
C122	C	-0.142284	-0.238842	0.170332
C123	C	-0.146516	0.076993	0.456060
C124	C	-0.146504	-0.273105	0.456092
C125	C	-0.146410	-0.273087	0.105981
C126	C	-0.194579	-0.579989	-0.372399
C127	C	-0.190481	-0.639391	-0.402095
C128	C	-0.194979	-0.551161	-0.401503
C129	C	-0.194605	-0.492833	-0.285243
C130	C	-0.190535	-0.459046	-0.221751
C131	C	-0.195005	-0.464137	-0.314480
C132	C	-0.194581	-0.492828	-0.372406
C133	C	-0.190486	-0.459036	-0.402111
C134	C	-0.195003	-0.551166	-0.314472
C135	C	-0.187176	-0.431735	-0.426109
C136	C	-0.187169	-0.687380	-0.426086
C137	C	-0.187246	-0.431749	-0.170456
C138	C	-0.183025	-0.397485	-0.456216
C139	C	-0.183015	-0.747586	-0.456184
C140	C	-0.183120	-0.397505	-0.106105
C141	C	0.120445	-0.177762	-0.372422
C142	C	0.056951	-0.211555	-0.402126
C143	C	0.149682	-0.206458	-0.401524
C144	C	0.207607	-0.090592	-0.285255
C145	C	0.237307	-0.031182	-0.221761
C146	C	0.236712	-0.119420	-0.314489
C147	C	0.207611	-0.177761	-0.372420
C148	C	0.237317	-0.211553	-0.402122
C149	C	0.149677	-0.119421	-0.314491
C150	C	0.261315	-0.238854	-0.426117
C151	C	0.005654	-0.238857	-0.426124
C152	C	0.261302	0.016815	-0.170463
C153	C	0.291423	-0.273104	-0.456221
C154	C	-0.058701	-0.273108	-0.456231
C155	C	0.291405	0.077029	-0.106108
O156	O	-0.179192	-0.344571	0.574954
O157	O	-0.150611	-0.246008	0.504951
O158	O	-0.249181	-0.344583	0.504934
O159	O	-0.080622	-0.245996	0.574972
O160	O	-0.249157	-0.424635	0.424885
O161	O	-0.150587	-0.326059	0.424902
O162	O	-0.179168	-0.424623	0.494905
Zn163	Zn	-0.164873	-0.388051	0.447194
Zn164	Zn	-0.164905	-0.282580	0.552662
O165	O	-0.080598	-0.326048	0.494922
C166	C	0.462859	0.507169	0.372293
C167	C	0.433154	0.540962	0.401996
C168	C	0.520789	0.535866	0.401397
C169	C	0.462862	0.420000	0.285128
C170	C	0.433161	0.360590	0.221634
C171	C	0.520792	0.448829	0.314364
C172	C	0.550025	0.507169	0.372295
C173	C	0.613519	0.540962	0.401998
C174	C	0.433758	0.448829	0.314363
C175	C	0.664816	0.568264	0.425996
C176	C	0.409156	0.568263	0.425992
C177	C	0.409166	0.312593	0.170336
C178	C	0.729170	0.602514	0.456102
C179	C	0.379048	0.602514	0.456096
C180	C	0.379063	0.252379	0.105981
H181	H	0.284298	-0.095271	0.030923
C182	C	0.118502	-0.269032	-0.465000
C183	C	0.156538	-0.288088	-0.484341
C184	C	0.127842	-0.345719	-0.542812
H185	H	0.084260	-0.305353	-0.467321
H186	H	0.107486	-0.258874	-0.489226
H187	H	0.167546	-0.298250	-0.460122
H188	H	0.190781	-0.251784	-0.482034
H189	H	0.116826	-0.335560	-0.567038
H190	H	0.093601	-0.382035	-0.545127
H191	H	0.153647	-0.358652	-0.555944
H192	H	0.126190	-0.095272	0.030922
C193	C	-0.133736	-0.269106	0.283099
C194	C	-0.183912	-0.322433	0.280212
C195	C	-0.183204	-0.380154	0.251427
H196	H	-0.133569	-0.282225	0.244324
H197	H	-0.099388	-0.258969	0.304315
H198	H	-0.218251	-0.332569	0.258995
H199	H	-0.184090	-0.309335	0.318979
H200	H	-0.148855	-0.370017	0.272644
H201	H	-0.183035	-0.393267	0.212654
H202	H	-0.217244	-0.416341	0.249470
C203	C	0.370333	-0.269052	0.283177
C204	C	0.351004	-0.288133	0.321200
C205	C	0.292567	-0.345832	0.292467
H206	H	0.346051	-0.258979	0.272127
H207	H	0.368088	-0.305329	0.248947
H208	H	0.353243	-0.251864	0.355419
H209	H	0.375269	-0.298220	0.332252
H210	H	0.290322	-0.382109	0.258237
H211	H	0.268290	-0.335753	0.281418
H212	H	0.279446	-0.358789	0.318259
C213	C	-0.195925	-0.401575	-0.283105
C214	C	-0.196218	-0.382508	-0.226013
C215	C	-0.197076	-0.324888	-0.197100
H216	H	-0.161931	-0.365253	-0.281030
H217	H	-0.230314	-0.411751	-0.304292
H218	H	-0.161833	-0.372328	-0.204832
H219	H	-0.230210	-0.418812	-0.228071
H220	H	-0.231464	-0.335064	-0.218287
H221	H	-0.163081	-0.288571	-0.195029
H222	H	-0.197280	-0.311947	-0.158362
C223	C	0.552002	-0.087257	0.283027
C224	C	0.520633	-0.067928	0.266817
C225	C	0.549337	-0.038344	0.237918
H226	H	0.590766	-0.048290	0.308682
H227	H	0.553977	-0.119277	0.248754
H228	H	0.518665	-0.035911	0.301085
H229	H	0.481870	-0.106883	0.241156
H230	H	0.551312	-0.070363	0.203645
H231	H	0.588101	0.000621	0.263576
H232	H	0.528055	-0.025231	0.226911
C233	C	0.552084	-0.087327	0.464858
C234	C	0.554965	-0.134605	0.468035
C235	C	0.583762	-0.105084	0.526467
H236	H	0.590860	-0.048398	0.478123
H237	H	0.530879	-0.074169	0.489075
H238	H	0.576170	-0.147752	0.443827
H239	H	0.516197	-0.173535	0.454782
H240	H	0.562557	-0.091927	0.550685
H241	H	0.622536	-0.066156	0.539728
H242	H	0.585716	-0.137159	0.528632
H243	H	0.544256	0.582811	0.448995
H244	H	-0.195661	-0.575294	-0.291000
H245	H	-0.195627	-0.575291	-0.449101
C246	C	0.370263	0.416519	0.283020
C247	C	0.334737	0.349615	0.266823
C248	C	0.276246	0.319826	0.237941
H249	H	0.356954	0.441974	0.308682
H250	H	0.367993	0.416229	0.248744
H251	H	0.337004	0.349909	0.301094
H252	H	0.348027	0.324143	0.241154
H253	H	0.273976	0.319536	0.203664
H254	H	0.262943	0.345287	0.263606
H255	H	0.252135	0.274428	0.226942
C256	C	0.300187	-0.087130	-0.283105
C257	C	0.319531	-0.029758	-0.226010
C258	C	0.378001	0.000007	-0.197087
H259	H	0.302508	-0.119056	-0.281036
H260	H	0.324411	-0.073919	-0.304282
H261	H	0.295314	-0.042971	-0.204838
H262	H	0.317225	0.002183	-0.228062
H263	H	0.402225	0.013219	-0.218264
H264	H	0.380317	-0.031924	-0.195022
H265	H	0.391136	0.038941	-0.158347
H266	H	0.386179	-0.575308	-0.031026
H267	H	0.126200	-0.575286	-0.290988
C268	C	0.118286	-0.268994	0.031185
C269	C	0.061190	-0.288065	0.031461
C270	C	0.032273	-0.345686	0.032315
H271	H	0.116219	-0.305313	-0.002807
H272	H	0.139464	-0.258818	0.065578
H273	H	0.040017	-0.298244	-0.002929
H274	H	0.063240	-0.251763	0.065450
H275	H	0.053451	-0.335510	0.066708
H276	H	0.030210	-0.382001	-0.001677
H277	H	-0.006467	-0.358630	0.032508
H278	H	-0.133869	-0.095302	0.290872
H279	H	-0.133904	-0.095306	0.448976
H280	H	0.126204	-0.575293	-0.449098
C281	C	0.118290	-0.087331	-0.283303
C282	C	0.061194	-0.125084	-0.321325
C283	C	0.032268	-0.095540	-0.292616
H284	H	0.116222	-0.087080	-0.249055
H285	H	0.139462	-0.041932	-0.272292
H286	H	0.040027	-0.170472	-0.332328
H287	H	0.063244	-0.125339	-0.355573
H288	H	0.053440	-0.050140	-0.281606
H289	H	0.030205	-0.095289	-0.258370
H290	H	-0.006473	-0.121147	-0.318412
H291	H	0.544263	0.424699	0.290891
H292	H	0.284298	-0.417180	-0.290994
H293	H	0.544280	-0.417203	-0.031029
H294	H	0.544276	-0.575318	-0.031040
