data_functionalizedCrystal
_audit_creation_method	'MofGen! by Chris Wilmer'
_symmetry_space_group_name_H-M	'P1'
_symmetry_Int_Tables_number	1
_symmetry_cell_setting	triclinic
loop_
_symmetry_equiv_pos_as_xyz
  x,y,z
_cell_length_a	10.654550
_cell_length_b	14.519709
_cell_length_c	9.130313
_cell_angle_alpha	89.994534
_cell_angle_beta	89.999724
_cell_angle_gamma	84.082538
loop_
_atom_site_label
_atom_site_type_symbol
_atom_site_fract_x
_atom_site_fract_y
_atom_site_fract_z
O1	O	1.666594	0.129532	-0.121694
O2	O	1.300997	0.141873	-0.121721
O3	O	1.493489	0.001515	-0.121693
O4	O	1.474102	0.269891	-0.121721
O5	O	1.493476	0.001510	0.121906
O6	O	1.300984	0.141869	0.121878
O7	O	1.666581	0.129528	0.121905
Cu8	Cu	1.483781	0.135698	0.144134
Cu9	Cu	1.483797	0.135703	-0.143950
O10	O	1.474089	0.269887	0.121878
C11	C	1.254201	0.140965	0.000075
C12	C	1.114784	0.138254	0.000065
C13	C	1.034504	0.220895	0.000061
C14	C	0.903507	0.218342	0.000087
C15	C	0.933084	0.050500	0.000115
C16	C	1.064078	0.053054	0.000100
C17	C	1.492579	-0.032852	0.000106
C18	C	1.489871	-0.135247	0.000107
C19	C	1.479904	-0.510195	0.000068
C20	C	1.482672	-0.405872	0.000079
C21	C	1.484887	-0.322724	0.000089
C22	C	1.487656	-0.218395	0.000097
C23	C	1.713377	0.130436	0.000106
C24	C	1.852794	0.133147	0.000106
C25	C	1.474999	0.304253	0.000075
C26	C	1.477706	0.406649	0.000065
N27	N	1.483779	0.135694	0.346757
N28	N	1.483808	0.135700	-0.346572
C29	C	1.569043	0.073570	0.423421
C30	C	1.569055	0.073570	0.576758
C31	C	1.398535	0.197827	0.576753
C32	C	1.398518	0.197822	0.423419
H33	H	1.129446	-0.014247	0.000108
H34	H	1.638466	0.022981	0.361006
H35	H	1.329119	0.248411	0.639186
O36	O	1.315641	0.258263	0.349165
C37	C	1.146458	0.381472	0.365328
C38	C	1.240265	0.313095	0.449603
H39	H	1.085474	0.425807	0.446495
H40	H	1.200701	0.427975	0.293557
H41	H	1.083692	0.341200	0.293524
H42	H	1.303055	0.353291	0.521487
H43	H	1.185944	0.266592	0.521281
H44	H	1.075783	0.290270	0.000044
H45	H	1.638483	0.022982	0.639173
O46	O	0.883972	-0.032314	-0.000063
C47	C	0.869099	-0.176522	-0.126296
C48	C	0.924823	-0.082774	-0.126251
H49	H	0.902084	-0.217337	-0.228323
H50	H	0.902187	-0.217470	-0.024418
H51	H	0.761687	-0.164128	-0.126221
H52	H	1.032237	-0.095083	-0.126378
H53	H	0.891636	-0.041856	-0.228120
H54	H	0.838147	0.285637	0.000086
