data_functionalizedCrystal
_audit_creation_method	'MofGen! by Chris Wilmer'
_symmetry_space_group_name_H-M	'P1'
_symmetry_Int_Tables_number	1
_symmetry_cell_setting	triclinic
loop_
_symmetry_equiv_pos_as_xyz
  x,y,z
_cell_length_a	13.897448
_cell_length_b	18.215407
_cell_length_c	13.897441
_cell_angle_alpha	89.982568
_cell_angle_beta	89.970373
_cell_angle_gamma	90.015136
loop_
_atom_site_label
_atom_site_type_symbol
_atom_site_fract_x
_atom_site_fract_y
_atom_site_fract_z
Zn1	Zn	-0.384059	1.125109	-0.545351
Zn2	Zn	-0.545378	1.125033	-0.384053
Zn3	Zn	-0.384092	1.002042	-0.384073
Zn4	Zn	-0.545307	1.002023	-0.545308
O5	O	-0.464709	1.063552	-0.464696
O6	O	-0.405475	1.228083	-0.523964
O7	O	-0.524027	1.108694	-0.249074
O8	O	-0.249106	1.018406	-0.405493
O9	O	-0.523995	1.228027	-0.405459
O10	O	-0.249082	1.108824	-0.523984
O11	O	-0.405530	1.018332	-0.249088
O12	O	-0.405461	0.899055	-0.405452
O13	O	-0.523873	1.018375	-0.680296
O14	O	-0.523905	0.899041	-0.523911
O15	O	-0.405406	1.108806	-0.680327
O16	O	-0.680350	1.108676	-0.405417
O17	O	-0.680298	1.018301	-0.523891
C18	C	-0.464679	0.872345	-0.464679
C19	C	-0.464690	0.790547	-0.464695
C20	C	-0.403103	0.602381	-0.526498
C21	C	-0.403112	0.525522	-0.526501
C22	C	-0.526342	0.525475	-0.402911
C23	C	-0.526328	0.602332	-0.402904
C24	C	-0.464710	0.640783	-0.464703
C25	C	-0.464732	0.487067	-0.464713
C26	C	-0.464742	0.403733	-0.464716
C27	C	-0.464699	0.724122	-0.464699
C28	C	-0.715323	1.063498	-0.464668
C29	C	-0.822537	1.063542	-0.464689
C30	C	-1.018832	1.063620	-0.464749
C31	C	-0.909600	1.063575	-0.464718
C32	C	-0.213116	1.063626	-0.464745
C33	C	-0.105902	1.063657	-0.464766
C34	C	-0.464739	1.255505	-0.464714
C35	C	-0.464752	1.337303	-0.464721
C36	C	-0.464628	1.063597	-0.716289
C37	C	-0.464593	1.063616	-0.823503
C38	C	-0.464566	1.063631	-0.910573
C39	C	-0.464523	1.063652	-1.019806
C40	C	-0.464720	1.063549	-0.214082
C41	C	-0.464483	1.063673	-0.106868
H42	H	-0.576509	0.494158	-0.352598
H43	H	-0.576496	0.633600	-0.352577
H44	H	-0.352927	0.633685	-0.576816
H45	H	-0.352944	0.494258	-0.576820
