data_functionalizedCrystal
_audit_creation_method	'MofGen! by Chris Wilmer'
_symmetry_space_group_name_H-M	'P1'
_symmetry_Int_Tables_number	1
_symmetry_cell_setting	triclinic
loop_
_symmetry_equiv_pos_as_xyz
  x,y,z
_cell_length_a	19.288840
_cell_length_b	10.654551
_cell_length_c	18.366186
_cell_angle_alpha	89.996635
_cell_angle_beta	89.983729
_cell_angle_gamma	83.805689
loop_
_atom_site_label
_atom_site_type_symbol
_atom_site_fract_x
_atom_site_fract_y
_atom_site_fract_z
O1	O	0.922389	0.156507	-0.060667
O2	O	0.720265	0.177672	-0.060641
O3	O	0.825974	-0.015750	-0.060655
O4	O	0.816680	0.349929	-0.060653
O5	O	0.825955	-0.015760	0.060444
O6	O	0.720246	0.177663	0.060458
O7	O	0.922371	0.156497	0.060432
Zn8	Zn	0.821306	0.167078	0.079672
Zn9	Zn	0.821330	0.167091	-0.079881
O10	O	0.816662	0.349919	0.060446
C11	C	0.694374	0.176992	-0.000088
C12	C	0.617256	0.174963	-0.000079
C13	C	0.581056	0.173994	-0.066092
C14	C	0.508597	0.172073	-0.066101
C15	C	0.472342	0.171097	-0.000093
C16	C	0.508550	0.172074	0.065929
C17	C	0.581007	0.174007	0.065936
C18	C	0.362505	0.094477	0.050468
C19	C	0.290049	0.092536	0.050458
C20	C	0.248859	0.165142	-0.000112
C21	C	0.280135	0.239672	-0.050684
C22	C	0.352592	0.241605	-0.050677
C23	C	0.393774	0.169002	-0.000093
C24	C	0.134090	0.162092	-0.066139
C25	C	0.061629	0.160180	-0.066145
C26	C	0.061584	0.160168	0.065886
C27	C	0.134044	0.162093	0.065891
C28	C	0.170293	0.163049	-0.000124
C29	C	0.825282	-0.062538	-0.000107
C30	C	0.823240	-0.201937	-0.000112
C31	C	0.822292	-0.267423	-0.066121
C32	C	0.820367	-0.398402	-0.066118
C33	C	0.820342	-0.398398	0.065911
C34	C	0.822261	-0.267420	0.065907
C35	C	0.822310	-0.267428	-0.142348
C36	C	0.820385	-0.398406	-0.142344
C37	C	0.948261	0.157178	-0.000122
C38	C	1.025379	0.159206	-0.000137
C39	C	0.817353	0.396707	-0.000103
C40	C	0.819395	0.536106	-0.000104
N41	N	0.821294	0.167069	0.188564
N42	N	0.821346	0.167090	-0.188772
C43	C	0.868118	0.081464	0.226658
C44	C	0.868122	0.081458	0.302886
C45	C	0.821310	0.167079	0.341016
C46	C	0.774477	0.252691	0.302913
C47	C	0.774470	0.252686	0.226687
C48	C	0.812761	0.281502	0.461778
C49	C	0.812774	0.281509	0.538003
C50	C	0.821330	0.167095	0.576124
C51	C	0.829888	0.052669	0.538010
C52	C	0.829880	0.052664	0.461784
C53	C	0.821313	0.167094	0.423671
C54	C	0.868161	0.081477	0.696873
C55	C	0.868160	0.081469	0.773102
C56	C	0.774518	0.252713	0.773128
C57	C	0.774516	0.252710	0.696900
C58	C	0.821340	0.167093	0.658777
H59	H	0.246598	0.298800	-0.091861
H60	H	0.906288	0.011752	0.804119
N61	N	0.823275	-0.196784	0.137103
H62	H	0.822366	-0.258145	0.178923
H63	H	0.867053	-0.152872	0.139975
H64	H	0.872971	-0.238952	-0.166005
N65	N	0.723985	0.345033	0.344038
H66	H	0.750793	0.400516	0.375649
H67	H	0.694330	0.399179	0.308291
N68	N	0.620051	0.175042	0.137143
H69	H	0.655374	0.098011	0.140089
H70	H	0.644807	0.253721	0.140047
H71	H	0.163605	0.162884	-0.119892
N72	N	0.022581	0.159138	-0.137349
H73	H	0.056542	0.160032	-0.179164
H74	H	-0.002219	0.080505	-0.140221
N75	N	0.839130	-0.070738	0.579122
H76	H	0.885475	-0.118588	0.565841
H77	H	0.837804	-0.053256	0.633179
N78	N	0.406926	0.016156	0.105014
H79	H	0.457573	0.028692	0.097348
H80	H	0.392382	0.043313	0.155952
N81	N	0.819293	-0.469028	0.137114
H82	H	0.817934	-0.561939	0.127102
H83	H	0.862608	-0.456562	0.165931
N84	N	0.883977	-0.461105	-0.181101
H85	H	0.882613	-0.555601	-0.181114
H86	H	0.884444	-0.429546	-0.232934
N87	N	0.469538	0.171007	-0.137300
H88	H	0.434210	0.248030	-0.140251
H89	H	0.503541	0.171858	-0.179079
H90	H	0.736339	0.322398	0.195669
H91	H	0.769732	-0.426879	-0.165996
N92	N	0.803533	0.404913	0.420665
H93	H	0.798121	0.477399	0.456374
H94	H	0.845761	0.412036	0.389022
N95	N	0.839109	-0.070742	0.420677
H96	H	0.837808	-0.053378	0.366605
H97	H	0.885449	-0.118547	0.433986
N98	N	0.918617	-0.010880	0.185540
H99	H	0.948280	-0.065114	0.221244
H100	H	0.891759	-0.066277	0.153929
N101	N	0.724023	0.345055	0.655802
H102	H	0.693039	0.297209	0.624192
H103	H	0.694413	0.399279	0.691565
N104	N	0.918647	-0.010867	0.655735
H105	H	0.968015	0.003347	0.668975
H106	H	0.910159	-0.099918	0.669019
H107	H	0.163519	0.162874	0.119646
H108	H	0.264591	0.031843	0.091634
N109	N	0.620154	0.175019	-0.137290
H110	H	0.586222	0.174112	-0.179111
H111	H	0.644955	0.253652	-0.140168
H112	H	0.906253	0.011745	0.333908
H113	H	0.736400	0.322423	0.804173
N114	N	0.469507	0.170216	0.137123
H115	H	0.418131	0.168570	0.127102
H116	H	0.487628	0.092459	0.165620
H117	H	0.774316	-0.220109	-0.171612
H118	H	0.032066	0.159381	0.119632
N119	N	0.803538	0.404917	0.579108
H120	H	0.842388	0.457105	0.565821
H121	H	0.757171	0.452665	0.565839
N122	N	0.386326	0.321981	-0.105218
H123	H	0.349243	0.367685	-0.137259
H124	H	0.412132	0.385607	-0.078561
