data_functionalizedCrystal
_audit_creation_method	'MofGen! by Chris Wilmer'
_symmetry_space_group_name_H-M	'P1'
_symmetry_Int_Tables_number	1
_symmetry_cell_setting	triclinic
loop_
_symmetry_equiv_pos_as_xyz
  x,y,z
_cell_length_a	12.594516
_cell_length_b	12.759401
_cell_length_c	12.759393
_cell_angle_alpha	89.979062
_cell_angle_beta	90.028050
_cell_angle_gamma	89.982423
loop_
_atom_site_label
_atom_site_type_symbol
_atom_site_fract_x
_atom_site_fract_y
_atom_site_fract_z
Zn1	Zn	-0.423647	-1.606257	0.594038
Zn2	Zn	-0.601663	-1.606143	0.418366
Zn3	Zn	-0.423704	-1.430555	0.418373
Zn4	Zn	-0.601589	-1.430543	0.594003
O5	O	-0.512651	-1.518375	0.506195
O6	O	-0.447269	-1.753263	0.570746
O7	O	-0.578111	-1.582809	0.271345
O8	O	-0.274751	-1.453915	0.441693
O9	O	-0.578056	-1.753179	0.441680
O10	O	-0.274709	-1.583002	0.570754
O11	O	-0.447365	-1.453805	0.271351
O12	O	-0.447293	-1.283533	0.441659
O13	O	-0.577930	-1.453894	0.741029
O14	O	-0.577985	-1.283524	0.570694
O15	O	-0.447197	-1.582990	0.741054
O16	O	-0.750599	-1.582797	0.441646
O17	O	-0.750545	-1.453784	0.570686
C18	C	-0.512638	-1.245407	0.506174
C19	C	-0.512658	-1.128631	0.506190
C20	C	-0.789192	-1.518306	0.506185
C21	C	-0.907497	-1.518372	0.506215
C22	C	-0.512549	-1.518453	0.780228
C23	C	-0.512505	-1.518487	0.897005
C24	C	-0.976759	-1.448195	0.576351
C25	C	-1.047629	-1.422594	0.480484
C26	C	-1.047427	-1.544069	0.602099
C27	C	-0.976808	-1.492721	0.410297
C28	C	-0.976600	-1.614240	0.531977
C29	C	-1.047438	-1.588675	0.436044
C30	C	-0.235030	-1.518472	0.506228
C31	C	-0.116725	-1.518514	0.506242
C32	C	-0.512665	-1.792408	0.506216
C33	C	-0.512671	-1.909184	0.506226
C34	C	-0.580812	-1.073791	0.573272
C35	C	-0.580817	-0.964067	0.573293
C36	C	-0.444509	-0.964031	0.439140
C37	C	-0.444500	-1.073753	0.439125
C38	C	-0.619008	-0.814170	0.697155
C39	C	-0.687180	-0.759328	0.764229
C40	C	-0.791053	-0.794923	0.780181
C41	C	-0.826776	-0.885359	0.729045
C42	C	-0.758611	-0.940197	0.661964
C43	C	-0.654723	-0.904603	0.646031
C44	C	-0.406319	-1.223652	0.315262
C45	C	-0.338158	-1.278491	0.248175
C46	C	-0.234283	-1.242898	0.232212
C47	C	-0.198564	-1.152458	0.283330
C48	C	-0.266725	-1.097619	0.350417
C49	C	-0.370598	-1.133220	0.366381
C50	C	-0.512676	-1.518357	0.233228
C51	C	-0.512420	-1.518527	0.116451
C52	C	-0.444422	-1.585712	0.951882
C53	C	-0.444376	-1.585730	1.061606
C54	C	-0.580506	-1.451294	1.061567
C55	C	-0.580546	-1.451272	0.951844
C56	C	-0.318796	-1.623345	1.211579
C57	C	-0.250722	-1.690586	1.266460
C58	C	-0.234401	-1.793100	1.230868
C59	C	-0.286169	-1.828392	1.140397
C60	C	-0.354251	-1.761156	1.085522
C61	C	-0.370552	-1.658628	1.121112
C62	C	-0.706127	-1.413668	0.801870
C63	C	-0.774215	-1.346436	0.746992
C64	C	-0.790547	-1.243921	0.782582
C65	C	-0.738798	-1.208632	0.873057
C66	C	-0.670709	-1.275864	0.927934
C67	C	-0.654375	-1.378378	0.892337
H68	H	-0.945724	-1.388743	0.635576
C69	C	-0.411186	-1.799963	0.986009
H70	H	-0.391715	-1.870648	0.972666
H71	H	-0.485825	-1.795689	0.995810
H72	H	-0.391121	-1.757499	0.928145
H73	H	-0.945381	-1.695229	0.553791
C74	C	-0.268217	-1.941161	1.101253
H75	H	-0.220249	-1.976146	1.146886
H76	H	-0.333996	-1.977554	1.100198
H77	H	-0.239307	-1.939350	1.032521
C78	C	-1.089331	-1.573359	0.711622
H79	H	-1.065118	-1.523379	0.761354
H80	H	-1.164748	-1.573830	0.710697
H81	H	-1.063956	-1.640934	0.730394
H82	H	-0.816362	-1.375181	0.673330
H83	H	-1.078851	-1.341587	0.458716
H84	H	-0.178972	-1.847848	1.275560
C85	C	-0.688162	-1.526436	0.762717
H86	H	-0.728747	-1.537828	0.700984
H87	H	-0.614997	-1.536426	0.747666
H88	H	-0.709684	-1.574627	0.815347
H89	H	-0.208573	-1.661842	1.340122
H90	H	-0.945916	-1.470950	0.329198
C91	C	-1.089111	-1.668929	0.355853
H92	H	-1.130559	-1.720304	0.390915
H93	H	-1.131650	-1.634092	0.305155
H94	H	-1.030827	-1.701914	0.322028
H95	H	-0.534423	-0.785187	0.684184
H96	H	-0.635905	-1.396572	1.106230
H97	H	-0.332071	-1.539868	1.240562
H98	H	-0.389016	-1.640440	0.907235
C99	C	-0.655773	-1.134153	0.647050
H100	H	-0.696355	-1.085774	0.687011
H101	H	-0.702099	-1.176927	0.606782
H102	H	-0.615100	-1.176985	0.692892
C103	C	-0.613780	-1.237046	1.027452
H104	H	-0.633251	-1.166360	1.040789
H105	H	-0.633823	-1.279513	1.085315
H106	H	-0.539137	-1.241303	1.017637
H107	H	-0.787696	-1.013828	0.620329
C108	C	-0.084302	-1.113297	0.265779
H109	H	-0.072795	-1.051576	0.305825
H110	H	-0.035501	-1.165934	0.287108
H111	H	-0.074128	-1.098202	0.193565
C112	C	-0.369553	-0.903663	0.365364
H113	H	-0.379327	-0.830462	0.374970
H114	H	-0.298054	-0.921665	0.380851
H115	H	-0.385054	-0.921610	0.294743
C116	C	-0.941042	-0.924506	0.746588
H117	H	-0.976519	-0.878900	0.793869
H118	H	-0.977856	-0.925516	0.681600
H119	H	-0.939241	-0.993256	0.775143
C120	C	-0.227439	-0.998138	0.406652
H121	H	-0.282913	-0.970573	0.448885
H122	H	-0.168279	-1.015094	0.449650
H123	H	-0.206906	-0.947363	0.356106
H124	H	-0.658084	-0.685695	0.805865
C125	C	-0.866036	-0.734602	0.853965
H126	H	-0.829883	-0.675650	0.882137
H127	H	-0.926540	-0.711600	0.815878
H128	H	-0.887924	-0.779342	0.909419
H129	H	-0.178791	-1.287553	0.177575
C130	C	-0.756758	-1.095866	0.912210
H131	H	-0.804712	-1.060877	0.866565
H132	H	-0.785666	-1.097676	0.980937
H133	H	-0.690975	-1.059469	0.913264
H134	H	-0.490900	-1.252648	0.328263
C135	C	-0.377451	-1.377969	0.191938
H136	H	-0.449075	-1.391323	0.211060
H137	H	-0.373075	-1.368112	0.118269
H138	H	-0.334449	-1.435850	0.211808
H139	H	-0.846000	-1.189186	0.737897
