data_functionalizedCrystal
_audit_creation_method	'MofGen! by Chris Wilmer'
_symmetry_space_group_name_H-M	'P1'
_symmetry_Int_Tables_number	1
_symmetry_cell_setting	triclinic
loop_
_symmetry_equiv_pos_as_xyz
  x,y,z
_cell_length_a	16.109301
_cell_length_b	27.732048
_cell_length_c	14.586319
_cell_angle_alpha	89.991275
_cell_angle_beta	89.999213
_cell_angle_gamma	83.052068
loop_
_atom_site_label
_atom_site_type_symbol
_atom_site_fract_x
_atom_site_fract_y
_atom_site_fract_z
O1	O	1.102362	0.062130	-0.076193
O2	O	1.602362	0.562130	0.423807
O3	O	0.860204	0.069862	-0.076208
O4	O	1.360204	0.569862	0.423792
O5	O	0.988804	-0.004369	-0.076183
O6	O	1.488804	0.495631	0.423817
O7	O	0.973762	0.136361	-0.076218
O8	O	1.473762	0.636361	0.423782
O9	O	0.988795	-0.004370	0.076298
O10	O	1.488795	0.495630	0.576298
O11	O	0.860195	0.069861	0.076272
O12	O	1.360195	0.569861	0.576272
O13	O	1.102353	0.062129	0.076288
O14	O	1.602353	0.562129	0.576288
Cu15	Cu	0.981273	0.065995	0.090203
Cu16	Cu	1.481273	0.565995	0.590203
Cu17	Cu	0.981283	0.065996	-0.090123
Cu18	Cu	1.481283	0.565996	0.409877
O19	O	0.973753	0.136360	0.076262
O20	O	1.473753	0.636360	0.576262
C21	C	0.829228	0.069548	0.000030
C22	C	1.329228	0.569548	0.500030
C23	C	0.736945	0.068609	0.000025
C24	C	1.236945	0.568609	0.500025
C25	C	0.988483	-0.022378	0.000060
C26	C	1.488483	0.477622	0.500060
C27	C	0.987533	-0.076037	0.000068
C28	C	1.487533	0.423963	0.500068
C29	C	0.514154	0.110473	0.000025
C30	C	1.014154	0.610473	0.500025
C31	C	0.427445	0.109587	0.000031
C32	C	0.927445	0.609587	0.500031
C33	C	0.448409	0.021514	0.000050
C34	C	0.948409	0.521514	0.500050
C35	C	0.535117	0.022401	0.000050
C36	C	1.035117	0.522401	0.500050
C37	C	0.567987	0.066882	0.000033
C38	C	1.067987	0.566882	0.500033
C39	C	0.394570	0.065109	0.000039
C40	C	0.894570	0.565109	0.500039
C41	C	0.300556	0.064148	0.000045
C42	C	0.800556	0.564148	0.500045
C43	C	0.662007	0.067843	0.000028
C44	C	1.162007	0.567843	0.500028
C45	C	1.057541	-0.414559	0.000025
C46	C	1.557541	0.085441	0.500025
C47	C	1.054013	-0.616233	0.000012
C48	C	1.554013	-0.116233	0.500012
O49	O	1.118031	-0.647221	-0.000024
O50	O	1.618031	-0.147221	0.499976
N51	N	0.977759	-0.635676	0.000008
N52	N	1.477759	-0.135676	0.500008
C53	C	0.902381	-0.604697	0.000001
C54	C	1.402381	-0.104697	0.500001
O55	O	0.837441	-0.625862	-0.000012
O56	O	1.337441	-0.125862	0.499988
C57	C	0.905910	-0.403024	0.000008
C58	C	1.405910	0.096976	0.500008
C59	C	0.982169	-0.383584	0.000021
C60	C	1.482169	0.116416	0.500021
C61	C	1.133794	-0.395119	0.000038
C62	C	1.633794	0.104881	0.500038
C63	C	1.134675	-0.344703	0.000046
C64	C	1.634675	0.155297	0.500046
C65	C	1.059303	-0.313728	0.000042
C66	C	1.559303	0.186272	0.500042
C67	C	0.983050	-0.333168	0.000029
C68	C	1.483050	0.166832	0.500029
C69	C	0.830533	-0.372045	-0.000006
C70	C	1.330533	0.127955	0.499994
C71	C	0.831422	-0.321624	-0.000006
C72	C	1.331422	0.178376	0.499994
C73	C	0.907681	-0.302184	0.000007
C74	C	1.407681	0.197816	0.500007
C75	C	0.908559	-0.251777	0.000034
C76	C	1.408559	0.248223	0.500034
N77	N	0.984814	-0.232334	0.000038
N78	N	1.484814	0.267666	0.500038
C79	C	1.060186	-0.263310	0.000042
C80	C	1.560186	0.236690	0.500042
C81	C	0.900534	-0.710579	-0.000000
C82	C	1.400534	-0.210579	0.500000
C83	C	0.899652	-0.760997	-0.000000
C84	C	1.399652	-0.260997	0.500000
C85	C	1.051284	-0.772530	0.000009
C86	C	1.551284	-0.272530	0.500009
C87	C	1.052166	-0.722111	0.000016
C88	C	1.552166	-0.222111	0.500016
C89	C	0.976789	-0.691136	0.000004
C90	C	1.476789	-0.191136	0.500004
C91	C	1.062030	-0.157433	0.000060
C92	C	1.562030	0.342567	0.500060
C93	C	1.062905	-0.107012	0.000072
C94	C	1.562905	0.392988	0.500072
C95	C	0.911273	-0.095484	0.000058
C96	C	1.411273	0.404516	0.500058
C97	C	0.910398	-0.145900	0.000051
C98	C	1.410398	0.354100	0.500051
C99	C	0.985783	-0.176874	0.000049
C100	C	1.485783	0.323126	0.500049
O101	O	0.844576	-0.220761	0.000059
O102	O	1.344576	0.279239	0.500059
O103	O	1.125116	-0.242135	0.000035
O104	O	1.625116	0.257865	0.500035
C105	C	1.056660	-0.464975	0.000017
C106	C	1.556660	0.035025	0.500017
C107	C	0.980407	-0.484415	0.000005
C108	C	1.480407	0.015585	0.500005
C109	C	0.905035	-0.453440	0.000001
C110	C	1.405035	0.046560	0.500001
C111	C	0.979525	-0.534833	0.000005
C112	C	1.479525	-0.034833	0.500005
C113	C	1.054897	-0.565808	0.000009
C114	C	1.554897	-0.065808	0.500009
C115	C	1.131151	-0.546365	0.000013
C116	C	1.631151	-0.046365	0.500013
C117	C	1.132032	-0.495950	0.000021
C118	C	1.632032	0.004050	0.500021
C119	C	0.828781	-0.472883	-0.000004
C120	C	1.328781	0.027117	0.499996
C121	C	0.827906	-0.523299	-0.000011
C122	C	1.327906	-0.023299	0.499989
C123	C	0.903278	-0.554274	-0.000007
C124	C	1.403278	-0.054274	0.499993
C125	C	1.133328	0.062443	0.000048
C126	C	1.633328	0.562443	0.500048
C127	C	1.225612	0.063382	0.000047
C128	C	1.725612	0.563382	0.500047
C129	C	0.974073	0.154369	0.000017
C130	C	1.474073	0.654369	0.500017
C131	C	0.975024	0.208028	0.000004
C132	C	1.475024	0.708028	0.500004
N133	N	0.981272	0.065994	0.217035
N134	N	1.481272	0.565994	0.717035
N135	N	0.981291	0.065994	-0.216955
N136	N	1.481291	0.565994	0.283045
C137	C	1.038234	0.033135	0.452053
C138	C	1.538234	0.533135	0.952053
C139	C	1.038237	0.033134	0.548034
C140	C	1.538237	0.533134	1.048034
C141	C	0.924323	0.098854	0.548020
C142	C	1.424323	0.598854	1.048020
C143	C	0.924317	0.098852	0.452041
C144	C	1.424317	0.598852	0.952041
C145	C	0.981278	0.065993	0.404060
C146	C	1.481278	0.565993	0.904060
C147	C	0.981286	0.065994	0.596020
C148	C	1.481286	0.565994	1.096020
C149	C	0.981288	0.065993	0.700087
C150	C	1.481288	0.565993	1.200087
C151	C	0.981275	0.065994	0.299986
C152	C	1.481275	0.565994	0.799986
H153	H	0.540913	0.146692	0.000018
H154	H	1.040913	0.646692	0.500018
H155	H	1.084615	0.006377	0.587107
H156	H	1.584615	0.506377	1.087107
C157	C	0.317772	0.159683	-0.078366
C158	C	0.817772	0.659683	0.421634
C159	C	0.368270	0.157504	0.000016
C160	C	0.868270	0.657504	0.500016
H161	H	0.281238	0.189265	-0.078370
H162	H	0.781238	0.689265	0.421630
H163	H	0.352033	0.158199	-0.131530
H164	H	0.852033	0.658199	0.368470
H165	H	0.285788	0.133065	-0.078346
H166	H	0.785788	0.633065	0.421654
H167	H	0.400259	0.184120	-0.000007
H168	H	0.900259	0.684120	0.499993
H169	H	0.334005	0.158992	0.053194
H170	H	0.834005	0.658992	0.553194
H171	H	0.877932	0.125610	0.412962
H172	H	1.377932	0.625610	0.912962
C173	C	1.131599	-0.034849	0.000094
C174	C	1.631599	0.465151	0.500094
C175	C	1.146734	-0.085644	0.000084
C176	C	1.646734	0.414356	0.500084
H177	H	1.183351	-0.021660	0.000105
H178	H	1.683351	0.478340	0.500105
H179	H	1.100602	-0.024212	-0.053077
H180	H	1.600602	0.475788	0.446923
H181	H	1.100590	-0.024227	0.053270
H182	H	1.600590	0.475773	0.553270
H183	H	1.177737	-0.096267	-0.053097
H184	H	1.677737	0.403733	0.446903
H185	H	1.177744	-0.096285	0.053260
H186	H	1.677744	0.403715	0.553260
C187	C	0.363067	-0.030574	-0.078332
C188	C	0.863067	0.469426	0.421668
C189	C	0.412276	-0.027378	0.000056
C190	C	0.912276	0.472622	0.500056
H191	H	0.340766	-0.060760	-0.078331
H192	H	0.840766	0.439240	0.421669
H193	H	0.318600	-0.004742	-0.078330
H194	H	0.818600	0.495258	0.421670
H195	H	0.396469	-0.028395	-0.131497
H196	H	0.896469	0.471605	0.368503
H197	H	0.378873	-0.029553	0.053222
H198	H	0.878873	0.470447	0.553222
H199	H	0.456750	-0.053216	0.000063
H200	H	0.956750	0.446784	0.500063
C201	C	0.547138	-0.064748	0.000058
C202	C	1.047138	0.435252	0.500058
C203	C	0.594298	-0.025519	0.000055
C204	C	1.094298	0.474481	0.500055
H205	H	0.583676	-0.094329	0.000058
H206	H	1.083676	0.405671	0.500058
H207	H	0.512885	-0.063265	0.053227
H208	H	1.012885	0.436735	0.553227
H209	H	0.512882	-0.063258	-0.053120
H210	H	1.012882	0.436742	0.446880
H211	H	0.628550	-0.027007	0.053237
H212	H	1.128550	0.472993	0.553237
H213	H	0.628566	-0.027002	-0.053120
H214	H	1.128566	0.472998	0.446880
H215	H	1.123416	-0.182646	0.000055
H216	H	1.623416	0.317354	0.500055
H217	H	1.114263	-0.706287	0.000026
H218	H	1.614263	-0.206287	0.500026
H219	H	1.196773	-0.328880	0.000053
H220	H	1.696773	0.171120	0.500053
H221	H	0.877948	0.125607	0.587097
H222	H	1.377948	0.625607	1.087097
C223	C	1.283758	-0.401440	0.000064
C224	C	1.783758	0.098560	0.500064
C225	C	1.216653	-0.429162	0.000050
C226	C	1.716653	0.070838	0.500050
H227	H	1.334915	-0.422456	0.000083
H228	H	1.834915	0.077544	0.500083
H229	H	1.280950	-0.381535	-0.053110
H230	H	1.780950	0.118465	0.446890
H231	H	1.280925	-0.381535	0.053238
H232	H	1.780925	0.118465	0.553238
H233	H	1.219483	-0.449064	-0.053127
H234	H	1.719483	0.050936	0.446873
H235	H	1.219463	-0.449075	0.053229
H236	H	1.719463	0.050925	0.553229
H237	H	0.849907	-0.070255	0.000058
H238	H	1.349907	0.429745	0.500058
H239	H	1.194130	-0.480127	0.000032
H240	H	1.694130	0.019873	0.500032
H241	H	0.837554	-0.776820	0.000005
H242	H	1.337554	-0.276820	0.500005
C243	C	1.117247	-0.854941	-0.000008
C244	C	1.617247	-0.354941	0.499992
C245	C	1.134136	-0.806584	0.000000
C246	C	1.634136	-0.306584	0.500000
H247	H	1.168394	-0.875965	-0.000026
H248	H	1.668394	-0.375965	0.499974
H249	H	1.085963	-0.860836	0.053166
H250	H	1.585963	-0.360836	0.553166
H251	H	1.085941	-0.860819	-0.053181
H252	H	1.585941	-0.360819	0.446819
H253	H	1.165436	-0.800706	0.053177
H254	H	1.665436	-0.300706	0.553177
H255	H	1.165433	-0.800687	-0.053179
H256	H	1.665433	-0.300687	0.446821
C257	C	0.750564	-0.704254	0.000004
C258	C	1.250564	-0.204254	0.500004
C259	C	0.817671	-0.676535	0.000000
C260	C	1.317671	-0.176535	0.500000
H261	H	0.699409	-0.683238	0.000014
H262	H	1.199409	-0.183238	0.500014
H263	H	0.753377	-0.724152	-0.053168
H264	H	1.253377	-0.224152	0.446832
H265	H	0.753388	-0.724167	0.053179
H266	H	1.253388	-0.224167	0.553179
H267	H	0.814850	-0.656625	-0.053179
H268	H	1.314850	-0.156625	0.446821
H269	H	0.814857	-0.656629	0.053178
H270	H	1.314857	-0.156629	0.553178
C271	C	1.281129	-0.552715	0.000025
C272	C	1.781129	-0.052715	0.500025
C273	C	1.214002	-0.580420	0.000016
C274	C	1.714002	-0.080420	0.500016
H275	H	1.332274	-0.573741	0.000029
H276	H	1.832274	-0.073741	0.500029
H277	H	1.278326	-0.532805	-0.053142
H278	H	1.778326	-0.032805	0.446858
H279	H	1.278319	-0.532815	0.053206
H280	H	1.778319	-0.032815	0.553206
H281	H	1.216809	-0.600317	-0.053168
H282	H	1.716809	-0.100317	0.446832
H283	H	1.216807	-0.600338	0.053189
H284	H	1.716807	-0.100338	0.553189
H285	H	0.768435	-0.387864	-0.000022
H286	H	1.268435	0.112136	0.499978
H287	H	0.770039	-0.296407	-0.000017
H288	H	1.270039	0.203593	0.499983
C289	C	0.760604	-0.129433	0.000033
C290	C	1.260604	0.370567	0.500033
C291	C	0.826574	-0.167271	0.000035
C292	C	1.326574	0.332729	0.500035
H293	H	0.708855	-0.142625	0.000009
H294	H	1.208855	0.357375	0.500009
H295	H	0.764094	-0.110020	0.053212
H296	H	1.264094	0.389980	0.553212
H297	H	0.764118	-0.109998	-0.053135
H298	H	1.264118	0.390002	0.446865
H299	H	0.823063	-0.186705	0.053206
H300	H	1.323063	0.313295	0.553206
H301	H	0.823082	-0.186693	-0.053150
H302	H	1.323082	0.313307	0.446850
H303	H	0.765802	-0.539121	-0.000014
H304	H	1.265802	-0.039121	0.499986
H305	H	0.767402	-0.447667	-0.000009
H306	H	1.267402	0.052333	0.499991
C307	C	1.150825	-0.031830	0.461710
C308	C	1.650825	0.468170	0.961710
C309	C	1.100836	-0.002987	0.399311
C310	C	1.600836	0.497013	0.899311
H311	H	1.189469	-0.054133	0.429149
H312	H	1.689469	0.445867	0.929149
H313	H	1.180474	-0.011705	0.499132
H314	H	1.680474	0.488295	0.999132
H315	H	1.116434	-0.049219	0.499157
H316	H	1.616434	0.450781	0.999157
H317	H	1.135228	0.014405	0.361868
H318	H	1.635228	0.514405	0.861868
H319	H	1.071186	-0.023115	0.361872
H320	H	1.571186	0.476885	0.861872
