data_functionalizedCrystal
_audit_creation_method	'MofGen! by Chris Wilmer'
_symmetry_space_group_name_H-M	'P1'
_symmetry_Int_Tables_number	1
_symmetry_cell_setting	triclinic
loop_
_symmetry_equiv_pos_as_xyz
  x,y,z
_cell_length_a	19.805407
_cell_length_b	14.908520
_cell_length_c	19.805399
_cell_angle_alpha	93.270609
_cell_angle_beta	89.980427
_cell_angle_gamma	93.320773
loop_
_atom_site_label
_atom_site_type_symbol
_atom_site_fract_x
_atom_site_fract_y
_atom_site_fract_z
Zn1	Zn	1.019204	-0.359181	-0.398269
Zn2	Zn	1.012594	-0.510047	-0.291612
Zn3	Zn	0.906017	-0.359206	-0.285095
Zn4	Zn	0.899460	-0.509999	-0.404757
O5	O	0.959319	-0.434608	-0.344934
O6	O	1.113043	-0.379203	-0.384134
O7	O	0.998435	-0.490068	-0.196033
O8	O	0.926542	-0.232958	-0.294665
O9	O	1.108187	-0.490044	-0.305773
O10	O	1.009699	-0.232939	-0.377814
O11	O	0.920133	-0.379246	-0.191244
O12	O	0.810431	-0.379199	-0.300956
O13	O	0.915366	-0.489962	-0.498612
O14	O	0.805614	-0.489986	-0.388871
O15	O	1.003341	-0.379157	-0.493845
O16	O	0.992077	-0.636286	-0.312064
O17	O	0.908957	-0.636250	-0.395191
C18	C	0.783463	-0.434591	-0.344911
C19	C	0.708231	-0.434605	-0.344918
C20	C	0.670392	-0.492379	-0.390629
C21	C	0.599704	-0.492380	-0.390639
C22	C	0.566855	-0.434612	-0.344934
C23	C	0.604699	-0.376832	-0.299220
C24	C	0.675386	-0.376827	-0.299214
C25	C	0.319625	-0.376852	-0.299244
C26	C	0.248932	-0.376864	-0.299252
C27	C	0.243942	-0.492406	-0.390668
C28	C	0.314629	-0.492400	-0.390662
C29	C	0.352467	-0.434618	-0.344952
C30	C	0.429116	-0.434615	-0.344943
C31	C	0.490208	-0.434618	-0.344939
C32	C	0.949107	-0.669002	-0.355053
C33	C	0.944800	-0.769277	-0.359405
C34	C	1.023348	-0.957679	-0.281093
C35	C	1.019304	-1.051896	-0.285180
C36	C	0.932671	-1.051929	-0.371669
C37	C	0.936715	-0.957712	-0.367582
C38	C	0.982055	-0.910590	-0.322292
C39	C	0.986095	-0.816372	-0.318202
C40	C	0.899466	-0.816407	-0.404694
C41	C	0.895421	-0.910624	-0.408781
C42	C	1.135861	-0.434626	-0.344957
C43	C	1.211092	-0.434634	-0.344967
C44	C	0.959359	-0.434551	-0.521474
C45	C	0.959376	-0.434527	-0.596705
C46	C	0.969589	-0.199299	-0.334789
C47	C	0.973966	-0.099024	-0.330466
C48	C	1.005186	-0.376828	-0.629568
C49	C	1.005194	-0.376802	-0.700255
C50	C	0.959395	-0.434480	-0.738078
C51	C	0.913581	-0.492182	-0.705210
C52	C	0.913570	-0.492203	-0.634524
C53	C	0.913622	-0.492098	-0.990280
C54	C	0.913638	-0.492074	-1.060971
C55	C	1.005247	-0.376697	-1.056011
C56	C	1.005236	-0.376718	-0.985325
C57	C	0.959419	-0.434416	-0.952463
C58	C	0.959410	-0.434442	-0.875816
C59	C	0.959407	-0.434459	-0.814725
C60	C	0.959320	-0.434600	-0.169077
C61	C	0.959445	-0.434370	-0.093836
H62	H	0.213126	-0.539452	-0.427890
H63	H	1.060261	-0.919312	-0.244211
O64	O	0.888545	-1.097609	-0.415628
C65	C	0.772149	-1.126599	-0.449611
C66	C	0.822047	-1.074798	-0.399790
H67	H	0.718373	-1.108190	-0.436815
H68	H	0.784745	-1.107993	-0.503402
H69	H	0.776390	-1.202023	-0.445470
H70	H	0.817833	-0.999363	-0.403871
H71	H	0.809435	-1.093479	-0.346020
O72	O	1.049740	-0.320926	-0.592804
C73	C	1.141611	-0.308808	-0.512459
C74	C	1.091204	-0.372226	-0.554067
H75	H	1.175138	-0.350257	-0.481119
H76	H	1.174401	-0.267576	-0.548061
H77	H	1.112572	-0.261627	-0.477357
H78	H	1.120188	-0.419461	-0.589172
H79	H	1.058414	-0.413394	-0.518425
O80	O	1.049782	-0.320811	-0.948555
C81	C	1.141637	-0.308677	-0.868192
C82	C	1.091245	-0.372103	-0.909811
H83	H	1.175163	-0.350121	-0.836847
H84	H	1.174430	-0.267437	-0.903787
H85	H	1.112587	-0.261504	-0.833095
H86	H	1.120241	-0.419331	-0.944912
H87	H	1.058453	-0.413280	-0.874177
O88	O	0.562867	-0.548548	-0.434946
C89	C	0.477783	-0.670403	-0.449156
C90	C	0.519445	-0.606834	-0.398903
H91	H	0.442676	-0.717556	-0.420034
H92	H	0.446457	-0.629100	-0.482809
H93	H	0.513413	-0.711657	-0.481834
H94	H	0.483864	-0.565567	-0.366180
H95	H	0.550778	-0.648189	-0.365296
H96	H	1.042499	-0.329820	-0.727009
O97	O	0.216945	-0.320706	-0.254942
C98	C	0.142447	-0.198885	-0.240733
C99	C	0.178624	-0.262428	-0.290986
H100	H	0.111467	-0.151738	-0.269854
H101	H	0.107499	-0.240209	-0.207091
H102	H	0.181638	-0.157623	-0.208043
H103	H	0.139481	-0.303703	-0.323720
H104	H	0.213584	-0.221052	-0.324580
O105	O	0.869210	-0.548076	-1.097817
C106	C	0.828610	-0.599140	-1.208912
C107	C	0.878964	-0.535689	-1.167267
H108	H	0.836469	-0.589134	-1.265070
H109	H	0.837315	-0.671911	-1.198202
H110	H	0.774728	-0.583303	-1.194286
H111	H	0.932866	-0.551445	-1.181869
H112	H	0.870200	-0.462937	-1.177982
H113	H	0.858509	-0.949003	-0.445657
H114	H	0.876325	-0.539092	-0.963533
O115	O	1.049722	-0.320514	-1.087854
C116	C	1.089256	-0.167049	-1.102897
C117	C	1.038862	-0.230570	-1.066780
H118	H	1.080485	-0.094316	-1.085883
H119	H	1.143153	-0.182832	-1.089677
H120	H	1.081408	-0.176981	-1.159914
H121	H	1.046649	-0.220674	-1.009756
H122	H	0.984983	-0.214772	-1.080056
O123	O	0.572830	-0.320585	-0.254888
C124	C	0.557908	-0.167072	-0.215568
C125	C	0.594030	-0.230669	-0.265825
H126	H	0.575045	-0.094363	-0.224383
H127	H	0.500880	-0.176920	-0.223419
H128	H	0.571090	-0.182865	-0.161657
H129	H	0.580902	-0.214916	-0.319756
H130	H	0.651049	-0.220810	-0.257915
O131	O	0.869155	-0.548180	-0.742053
C132	C	0.828542	-0.599246	-0.853143
C133	C	0.878901	-0.535795	-0.811504
H134	H	0.836395	-0.589242	-0.909301
H135	H	0.837248	-0.672017	-0.842433
H136	H	0.774662	-0.583409	-0.838511
H137	H	0.932801	-0.551551	-0.826112
H138	H	0.870135	-0.463043	-0.822218
O139	O	0.869053	-0.548348	-0.602707
C140	C	0.778175	-0.662772	-0.615082
C141	C	0.828564	-0.599244	-0.651199
H142	H	0.745417	-0.703924	-0.654271
H143	H	0.807160	-0.710014	-0.584053
H144	H	0.744613	-0.621355	-0.580173
H145	H	0.862139	-0.640588	-0.686142
H146	H	0.799538	-0.552000	-0.682185
O147	O	0.859420	-0.770525	-0.444691
C148	C	0.827220	-0.625395	-0.476693
C149	C	0.872623	-0.677243	-0.431374
H150	H	0.837868	-0.549967	-0.465932
H151	H	0.838281	-0.643792	-0.532096
H152	H	0.771858	-0.644051	-0.465568
H153	H	0.927999	-0.658614	-0.442439
H154	H	0.861504	-0.658841	-0.375984
H155	H	0.697132	-0.539423	-0.427846
H156	H	1.052931	-1.090232	-0.251633
O157	O	0.346511	-0.548419	-0.435154
C158	C	0.366239	-0.592440	-0.552133
C159	C	0.330108	-0.528931	-0.501816
H160	H	0.352980	-0.576720	-0.606040
H161	H	0.423269	-0.582510	-0.544336
H162	H	0.349178	-0.665160	-0.543265
H163	H	0.347114	-0.456187	-0.510653
H164	H	0.273084	-0.538940	-0.509625
O165	O	0.356271	-0.320695	-0.254778
C166	C	0.353757	-0.206043	-0.164136
C167	C	0.312168	-0.269616	-0.214447
H168	H	0.318118	-0.164715	-0.131526
H169	H	0.385023	-0.247344	-0.130426
H170	H	0.388927	-0.158960	-0.193249
H171	H	0.276960	-0.316711	-0.185390
H172	H	0.280947	-0.228259	-0.248157
H173	H	0.706194	-0.329777	-0.261995
H174	H	1.023011	-0.778006	-0.281323
