data_functionalizedCrystal
_audit_creation_method	'MofGen! by Chris Wilmer'
_symmetry_space_group_name_H-M	'P1'
_symmetry_Int_Tables_number	1
_symmetry_cell_setting	triclinic
loop_
_symmetry_equiv_pos_as_xyz
  x,y,z
_cell_length_a	12.759400
_cell_length_b	11.169417
_cell_length_c	11.169409
_cell_angle_alpha	89.978351
_cell_angle_beta	90.033794
_cell_angle_gamma	89.987093
loop_
_atom_site_label
_atom_site_type_symbol
_atom_site_fract_x
_atom_site_fract_y
_atom_site_fract_z
Zn1	Zn	-0.418231	-1.834926	0.678589
Zn2	Zn	-0.593957	-1.834800	0.477901
Zn3	Zn	-0.418287	-1.634212	0.477917
Zn4	Zn	-0.593863	-1.634204	0.678539
O5	O	-0.506084	-1.734536	0.578236
O6	O	-0.441557	-2.002859	0.651981
O7	O	-0.570716	-1.808142	0.309953
O8	O	-0.271258	-1.660893	0.504564
O9	O	-0.570662	-2.002767	0.504537
O10	O	-0.271217	-1.808357	0.651997
O11	O	-0.441653	-1.660771	0.309965
O12	O	-0.441562	-1.466261	0.504516
O13	O	-0.570503	-1.660880	0.846496
O14	O	-0.570557	-1.466256	0.651912
O15	O	-0.441466	-1.808349	0.846532
O16	O	-0.740965	-1.808135	0.504488
O17	O	-0.740897	-1.660758	0.651897
C18	C	-0.506056	-1.422711	0.578211
C19	C	-0.506069	-1.289311	0.578229
C20	C	-0.779052	-1.734464	0.578211
C21	C	-0.895828	-1.734544	0.578241
C22	C	-0.950691	-1.811368	0.501570
C23	C	-1.060415	-1.811442	0.501607
C24	C	-1.060404	-1.657857	0.654989
C25	C	-0.950682	-1.657790	0.654957
C26	C	-0.895838	-1.888122	0.424854
C27	C	-0.950701	-1.964952	0.348176
C28	C	-1.060425	-1.965025	0.348213
C29	C	-1.115286	-1.888270	0.424928
C30	C	-0.232051	-1.734640	0.578288
C31	C	-0.115274	-1.734684	0.578310
C32	C	-0.505968	-1.734628	0.891279
C33	C	-0.505918	-1.734667	1.024679
C34	C	-0.506104	-1.047578	0.578255
C35	C	-0.506086	-1.180978	0.578242
C36	C	-0.506125	-1.734513	0.266412
C37	C	-0.505879	-1.734706	0.133012
H38	H	-0.806495	-1.888067	0.424812
C39	C	-0.890360	-2.049385	0.263799
C40	C	-0.769670	-2.049309	0.263752
C41	C	-0.709331	-2.133747	0.179374
C42	C	-0.769682	-2.218260	0.095044
C43	C	-0.890379	-2.218339	0.095088
C44	C	-0.950718	-2.133901	0.179466
H45	H	-0.724988	-1.986745	0.326181
H46	H	-0.619983	-2.133688	0.179342
H47	H	-0.725016	-2.280766	0.032583
H48	H	-0.935061	-2.280903	0.032659
H49	H	-1.040066	-2.133960	0.179498
H50	H	-0.906012	-1.595233	0.717390
H51	H	-1.105080	-1.595365	0.717445
C52	C	-1.120775	-2.049538	0.263875
C53	C	-1.196315	-1.997627	0.169630
C54	C	-1.256661	-2.082138	0.085284
C55	C	-1.241468	-2.218562	0.095183
C56	C	-1.165924	-2.270480	0.189433
C57	C	-1.105578	-2.185968	0.273779
H58	H	-1.207565	-1.896632	0.162298
H59	H	-1.312584	-2.043704	0.015514
H60	H	-1.286140	-2.281122	0.032745
H61	H	-1.154674	-2.371475	0.196764
H62	H	-1.049656	-2.224403	0.343548
H63	H	-1.204631	-1.888345	0.424962
