data_functionalizedCrystal
_audit_creation_method	'MofGen! by Chris Wilmer'
_symmetry_space_group_name_H-M	'P1'
_symmetry_Int_Tables_number	1
_symmetry_cell_setting	triclinic
loop_
_symmetry_equiv_pos_as_xyz
  x,y,z
_cell_length_a	14.519709
_cell_length_b	17.038272
_cell_length_c	13.596369
_cell_angle_alpha	89.993837
_cell_angle_beta	90.000291
_cell_angle_gamma	87.395851
loop_
_atom_site_label
_atom_site_type_symbol
_atom_site_fract_x
_atom_site_fract_y
_atom_site_fract_z
O1	O	1.231711	0.102502	-0.081664
O2	O	0.964158	0.114573	-0.081694
O3	O	1.096344	-0.005280	-0.081671
O4	O	1.099525	0.222356	-0.081686
O5	O	1.096330	-0.005286	0.081912
O6	O	0.964143	0.114567	0.081889
O7	O	1.231696	0.102496	0.081919
Zn8	Zn	1.097918	0.108530	0.107877
Zn9	Zn	1.097937	0.108539	-0.107651
O10	O	1.099510	0.222349	0.081897
C11	C	0.929748	0.114008	0.000094
C12	C	0.827237	0.112322	0.000083
C13	C	0.451867	0.106116	0.000128
C14	C	0.556307	0.107839	0.000115
C15	C	0.639549	0.109219	0.000104
C16	C	0.743995	0.110942	0.000093
C17	C	1.093444	-0.034416	0.000120
C18	C	1.084814	-0.121223	0.000119
C19	C	1.164047	-0.171209	0.000129
C20	C	1.155933	-0.252773	0.000118
C21	C	1.068585	-0.284349	0.000105
C22	C	0.989347	-0.234357	0.000092
C23	C	0.997462	-0.152795	0.000096
C24	C	1.039916	-0.530153	0.000089
C25	C	1.031807	-0.611722	0.000088
C26	C	1.198394	-0.630132	0.000112
C27	C	1.206502	-0.548568	0.000122
C28	C	1.127263	-0.498583	0.000104
C29	C	1.060289	-0.367720	0.000098
C30	C	1.135560	-0.415213	0.000104
C31	C	1.266107	0.103062	0.000129
C32	C	1.368617	0.104748	0.000134
C33	C	1.102410	0.251486	0.000103
C34	C	1.111040	0.338292	0.000098
N35	N	1.097911	0.108524	0.254968
N36	N	1.097950	0.108539	-0.254743
C37	C	1.097936	0.108540	0.656259
C38	C	1.097926	0.108538	0.544608
C39	C	1.097924	0.108533	0.455617
C40	C	1.097913	0.108530	0.343959
H41	H	1.220453	-0.293468	0.000129
N42	N	1.283849	-0.684049	0.000130
H43	H	1.284203	-0.718294	-0.060511
H44	H	1.340369	-0.651617	0.000177
H45	H	0.975394	-0.489465	0.000074
N46	N	0.895138	-0.268417	0.000082
H47	H	0.860131	-0.250200	0.060717
H48	H	0.860215	-0.250185	-0.060603
H49	H	0.932942	-0.112096	0.000087
N50	N	1.229769	-0.381162	0.000127
H51	H	1.236859	-0.347723	-0.060509
H52	H	1.236768	-0.347778	0.060812
N53	N	0.966081	-0.401781	0.000100
H54	H	0.917113	-0.357741	0.000099
H55	H	0.959092	-0.435214	-0.060545
N56	N	1.258259	-0.137154	0.000152
H57	H	1.307220	-0.181200	0.000155
H58	H	1.265262	-0.103708	-0.060487
N59	N	1.300720	-0.514525	0.000134
H60	H	1.335723	-0.532742	-0.060504
H61	H	1.293771	-0.455276	0.000173
N62	N	0.937592	-0.645782	0.000073
H63	H	0.888625	-0.601741	0.000059
H64	H	0.930612	-0.679219	-0.060570
