data_functionalizedCrystal
_audit_creation_method	'MofGen! by Chris Wilmer'
_symmetry_space_group_name_H-M	'P1'
_symmetry_Int_Tables_number	1
_symmetry_cell_setting	triclinic
loop_
_symmetry_equiv_pos_as_xyz
  x,y,z
_cell_length_a	12.759401
_cell_length_b	17.640280
_cell_length_c	12.759393
_cell_angle_alpha	78.768143
_cell_angle_beta	89.982620
_cell_angle_gamma	78.801088
loop_
_atom_site_label
_atom_site_type_symbol
_atom_site_fract_x
_atom_site_fract_y
_atom_site_fract_z
Zn1	Zn	1.690805	-0.314619	-0.509515
Zn2	Zn	1.726234	-0.446816	-0.298344
Zn3	Zn	1.515121	-0.314661	-0.333844
Zn4	Zn	1.550610	-0.446755	-0.474002
O5	O	1.620692	-0.380713	-0.403926
O6	O	1.842528	-0.332163	-0.481509
O7	O	1.698204	-0.429329	-0.156021
O8	O	1.508747	-0.204048	-0.386866
O9	O	1.868557	-0.429288	-0.326362
O10	O	1.637821	-0.204017	-0.515931
O11	O	1.543101	-0.332235	-0.182102
O12	O	1.372806	-0.332175	-0.352430
O13	O	1.569232	-0.429184	-0.625746
O14	O	1.398879	-0.429224	-0.455404
O15	O	1.672233	-0.332104	-0.651837
O16	O	1.732616	-0.557415	-0.291927
O17	O	1.603586	-0.557370	-0.420982
C18	C	1.347721	-0.380698	-0.403916
C19	C	1.230948	-0.380711	-0.403931
C20	C	1.189712	-0.431325	-0.457417
C21	C	1.079990	-0.431335	-0.457426
C22	C	1.052751	-0.330114	-0.350455
C23	C	1.162469	-0.330101	-0.350453
C24	C	1.258190	-0.481935	-0.510896
C25	C	1.216955	-0.532554	-0.564385
C26	C	1.107234	-0.532564	-0.564393
C27	C	1.038748	-0.481955	-0.510913
C28	C	1.675825	-0.586072	-0.348772
C29	C	1.699507	-0.673925	-0.325211
C30	C	1.441214	-0.962885	-0.583294
C31	C	1.463469	-1.045436	-0.561122
C32	C	1.597911	-1.045418	-0.426873
C33	C	1.575671	-0.962864	-0.449037
C34	C	1.497320	-0.921604	-0.527248
C35	C	1.631777	-0.921584	-0.392991
C36	C	1.609535	-0.839038	-0.415150
C37	C	1.531186	-0.797772	-0.493355
C38	C	1.475078	-0.839058	-0.549407
C39	C	1.710122	-0.962846	-0.314775
C40	C	1.766229	-0.921565	-0.258729
C41	C	1.743992	-0.839018	-0.280893
C42	C	1.665643	-0.797752	-0.359098
C43	C	1.800100	-0.797732	-0.224841
C44	C	1.777858	-0.715185	-0.247000
C45	C	1.643400	-0.715206	-0.381257
C46	C	1.894730	-0.380728	-0.403937
C47	C	2.011508	-0.380734	-0.403942
C48	C	1.620739	-0.380632	-0.677981
C49	C	1.620759	-0.380598	-0.794767
C50	C	1.565373	-0.174552	-0.459320
C51	C	1.541800	-0.086698	-0.482925
C52	C	1.540023	-0.330032	-0.863218
C53	C	1.540048	-0.330008	-0.972949
C54	C	1.701556	-0.431119	-0.945767
C55	C	1.701525	-0.431146	-0.836038
C56	C	1.459256	-0.279483	-0.821948
C57	C	1.378514	-0.228912	-0.890400
C58	C	1.378540	-0.228889	-1.000131
C59	C	1.459307	-0.279436	-1.041409
C60	C	1.620691	-0.380736	-0.130953
C61	C	1.620815	-0.380548	-0.014227
H62	H	1.347533	-0.481934	-0.510892
H63	H	1.767279	-0.472311	-0.780305
C64	C	1.292291	-0.588220	-0.623212
N65	N	1.349033	-0.630149	-0.667520
H66	H	1.459228	-0.279495	-0.732602
C67	C	0.918051	-0.481969	-0.510927
N68	N	0.827144	-0.481983	-0.510932
C69	C	1.886272	-0.843129	-0.138801
N70	N	1.951176	-0.877322	-0.073993
C71	C	1.061879	-0.588248	-0.623227
N72	N	1.027722	-0.630197	-0.667535
C73	C	1.684090	-1.090813	-0.340839
N74	N	1.749002	-1.125004	-0.276037
H75	H	1.196042	-0.288881	-0.306910
H76	H	1.823545	-0.681575	-0.201361
C77	C	1.459329	-0.279409	-1.162117
N78	N	1.459348	-0.279384	-1.253034
H79	H	1.767315	-0.472271	-0.979385
C80	C	1.289677	-0.173312	-0.844992
N81	N	1.222764	-0.131430	-0.810793
C82	C	1.557197	-0.669815	-0.467280
N83	N	1.492262	-0.635627	-0.532060
H84	H	1.377420	-0.929289	-0.646989
C85	C	1.388874	-0.793667	-0.635429
N86	N	1.323940	-0.759479	-0.700210
C87	C	0.977414	-0.274453	-0.291623
N88	N	0.920671	-0.232530	-0.247306
C89	C	1.401745	-1.090842	-0.622789
N90	N	1.355257	-1.125041	-0.669236
H91	H	1.513070	-0.730558	-0.511388
H92	H	1.728232	-1.030060	-0.296739
H93	H	1.312790	-0.187717	-1.055861
H94	H	1.830019	-0.955171	-0.195047
