data_functionalizedCrystal
_audit_creation_method	'MofGen! by Chris Wilmer'
_symmetry_space_group_name_H-M	'P1'
_symmetry_Int_Tables_number	1
_symmetry_cell_setting	triclinic
loop_
_symmetry_equiv_pos_as_xyz
  x,y,z
_cell_length_a	14.519731
_cell_length_b	14.519731
_cell_length_c	15.455313
_cell_angle_alpha	87.313475
_cell_angle_beta	87.324322
_cell_angle_gamma	96.311147
loop_
_atom_site_label
_atom_site_type_symbol
_atom_site_fract_x
_atom_site_fract_y
_atom_site_fract_z
O1	O	-0.116957	1.227899	-0.072122
O2	O	-0.131173	0.959426	-0.072122
O3	O	0.010172	1.100771	-0.072129
O4	O	-0.258302	1.086555	-0.072116
O5	O	0.002122	1.092688	0.072134
O6	O	-0.139222	0.951343	0.072140
O7	O	-0.125007	1.219817	0.072140
Cu8	Cu	-0.132849	1.084842	0.085313
Cu9	Cu	-0.123330	1.094401	-0.085295
O10	O	-0.266351	1.078472	0.072146
C11	C	-0.134532	0.921025	0.000009
C12	C	-0.132536	0.818645	0.000008
C13	C	-0.130914	0.735501	0.000005
C14	C	-0.128887	0.631192	0.000004
C15	C	-0.127279	0.548053	0.000004
C16	C	-0.125252	0.443737	0.000002
C17	C	-0.296686	1.083179	0.000017
C18	C	-0.399067	1.085175	0.000021
C19	C	-0.482211	1.086797	0.000018
C20	C	-0.586519	1.088824	0.000010
C21	C	-0.669658	1.090433	0.000003
C22	C	-0.773973	1.092460	-0.000004
C23	C	0.040507	1.096064	-0.000001
C24	C	0.142888	1.094068	-0.000011
C25	C	-0.121648	1.258218	0.000007
C26	C	-0.123644	1.360598	0.000002
N27	N	-0.139544	1.078126	0.205308
N28	N	-0.116628	1.101125	-0.205290
C29	C	-0.079518	1.138195	0.250700
C30	C	-0.084590	1.133124	0.341508
C31	C	-0.149692	1.067988	0.386923
C32	C	-0.209721	1.007912	0.341525
C33	C	-0.204645	1.012979	0.250719
C34	C	-0.171580	1.046116	0.658505
C35	C	-0.176654	1.041055	0.749318
C36	C	-0.051521	1.166267	0.749295
C37	C	-0.046454	1.171332	0.658487
C38	C	-0.106479	1.111253	0.613097
N39	N	-0.154880	1.062805	0.479743
N40	N	-0.101287	1.116432	0.520278
H41	H	-0.026509	1.191239	0.213729
Cl42	Cl	-0.009126	1.208640	0.398573
H43	H	0.006558	1.224371	0.621511
Cl44	Cl	0.023939	1.241786	0.806360
Cl45	Cl	-0.291562	0.926021	0.398616
Cl46	Cl	-0.258507	0.959163	0.806405
Cl47	Cl	-0.247042	0.970594	0.601450
H48	H	-0.253523	0.964063	0.213762
