data_functionalizedCrystal
_audit_creation_method	'MofGen! by Chris Wilmer'
_symmetry_space_group_name_H-M	'P1'
_symmetry_Int_Tables_number	1
_symmetry_cell_setting	triclinic
loop_
_symmetry_equiv_pos_as_xyz
  x,y,z
_cell_length_a	27.732048
_cell_length_b	27.732048
_cell_length_c	7.681481
_cell_angle_alpha	84.300807
_cell_angle_beta	95.681056
_cell_angle_gamma	82.642655
loop_
_atom_site_label
_atom_site_type_symbol
_atom_site_fract_x
_atom_site_fract_y
_atom_site_fract_z
O1	O	0.636329	0.062121	-0.146225
O2	O	1.136329	0.562121	0.353775
O3	O	0.495534	0.070868	-0.146280
O4	O	0.995534	0.570868	0.353720
O5	O	0.570305	-0.003903	-0.146217
O6	O	1.070305	0.496097	0.353783
O7	O	0.561557	0.136893	-0.146288
O8	O	1.061557	0.636893	0.353712
O9	O	0.579508	-0.013127	0.146648
O10	O	1.079508	0.486873	0.646648
O11	O	0.504737	0.061645	0.146585
O12	O	1.004737	0.561645	0.646585
O13	O	0.645532	0.052897	0.146641
O14	O	1.145532	0.552897	0.646641
Zn15	Zn	0.576596	0.055807	0.193112
Zn16	Zn	1.076596	0.555807	0.693112
Zn17	Zn	0.564470	0.067959	-0.192751
Zn18	Zn	1.064470	0.567959	0.307249
O19	O	0.570761	0.127669	0.146578
O20	O	1.070761	0.627669	0.646578
C21	C	0.482128	0.066073	0.000146
C22	C	0.982128	0.566073	0.500146
C23	C	0.428473	0.065521	0.000126
C24	C	0.928473	0.565521	0.500126
C25	C	0.089659	0.106223	0.000182
C26	C	0.589659	0.606223	0.500182
C27	C	-0.112000	0.104171	0.000198
C28	C	0.388000	0.604171	0.500198
O29	O	-0.143254	0.141390	0.000256
O30	O	0.356746	0.641390	0.500256
N31	N	-0.131123	0.059836	0.000217
N32	N	0.368877	0.559836	0.500217
C33	C	-0.099827	0.016009	0.000244
C34	C	0.400173	0.516009	0.500244
O35	O	-0.120719	-0.021749	0.000279
O36	O	0.379281	0.478251	0.500279
C37	C	0.101831	0.018061	0.000240
C38	C	0.601831	0.518061	0.500240
C39	C	0.120951	0.062400	0.000203
C40	C	0.620951	0.562400	0.500203
C41	C	0.108779	0.150559	0.000147
C42	C	0.608779	0.650559	0.500147
C43	C	0.159191	0.151071	0.000133
C44	C	0.659191	0.651071	0.500133
C45	C	0.190482	0.107248	0.000154
C46	C	0.690482	0.607248	0.500154
C47	C	0.171362	0.062913	0.000189
C48	C	0.671362	0.562913	0.500189
C49	C	0.133126	-0.025765	0.000279
C50	C	0.633126	0.474235	0.500279
C51	C	0.183543	-0.025249	0.000282
C52	C	0.683543	0.474751	0.500282
C53	C	0.202663	0.019091	0.000245
C54	C	0.702663	0.519091	0.500245
C55	C	0.253065	0.019603	0.000196
C56	C	0.753065	0.519603	0.500196
N57	N	0.272188	0.063939	0.000177
N58	N	0.772188	0.563939	0.500177
C59	C	0.240897	0.107761	0.000156
C60	C	0.740897	0.607761	0.500156
C61	C	-0.205702	0.014935	0.000243
C62	C	0.294298	0.514935	0.500243
C63	C	-0.256116	0.014422	0.000241
C64	C	0.243884	0.514422	0.500241
C65	C	-0.268285	0.102585	0.000198
C66	C	0.231715	0.602585	0.500198
C67	C	-0.217870	0.103098	0.000188
C68	C	0.282130	0.603098	0.500188
C69	C	-0.186578	0.059271	0.000224
C70	C	0.313422	0.559271	0.500224
C71	C	0.346765	0.108835	0.000126
C72	C	0.846765	0.608835	0.500126
C73	C	0.397181	0.109344	0.000105
C74	C	0.897181	0.609344	0.500105
C75	C	0.409346	0.021182	0.000156
C76	C	0.909346	0.521182	0.500156
C77	C	0.358934	0.020673	0.000168
C78	C	0.858934	0.520673	0.500168
C79	C	0.327644	0.064503	0.000159
C80	C	0.827644	0.564503	0.500159
O81	O	0.284348	-0.017597	0.000159
O82	O	0.784348	0.482403	0.500159
O83	O	0.261800	0.145513	0.000160
O84	O	0.761800	0.645513	0.500160
C85	C	0.039248	0.105710	0.000195
C86	C	0.539248	0.605710	0.500195
C87	C	0.020128	0.061375	0.000230
C88	C	0.520128	0.561375	0.500230
C89	C	0.051419	0.017552	0.000252
C90	C	0.551419	0.517552	0.500252
C91	C	-0.030287	0.060862	0.000228
C92	C	0.469713	0.560862	0.500228
C93	C	-0.061578	0.104685	0.000207
C94	C	0.438422	0.604685	0.500207
C95	C	-0.042455	0.149020	0.000188
C96	C	0.457545	0.649020	0.500188
C97	C	0.007956	0.149533	0.000174
C98	C	0.507956	0.649533	0.500174
C99	C	0.032296	-0.026784	0.000271
C100	C	0.532296	0.473216	0.500271
C101	C	-0.018116	-0.027293	0.000282
C102	C	0.481884	0.472707	0.500282
C103	C	-0.049408	0.016530	0.000261
C104	C	0.450592	0.516530	0.500261
C105	C	0.574723	-0.026522	0.000220
C106	C	1.074723	0.473478	0.500220
C107	C	0.574171	-0.080177	0.000235
C108	C	1.074171	0.419823	0.500235
C109	C	0.614872	-0.418990	0.000160
C110	C	1.114872	0.081010	0.500160
C111	C	0.612821	-0.620649	0.000135
C112	C	1.112821	-0.120649	0.500135
O113	O	0.650039	-0.651903	0.000073
O114	O	1.150039	-0.151903	0.500073
N115	N	0.568485	-0.639772	0.000119
N116	N	1.068485	-0.139772	0.500119
C117	C	0.524659	-0.608477	0.000098
C118	C	1.024659	-0.108477	0.500098
O119	O	0.486901	-0.629369	0.000066
O120	O	0.986901	-0.129369	0.500066
C121	C	0.526711	-0.406819	0.000111
C122	C	1.026711	0.093181	0.500111
C123	C	0.571050	-0.387699	0.000144
C124	C	1.071050	0.112301	0.500144
C125	C	0.659208	-0.399870	0.000192
C126	C	1.159208	0.100130	0.500192
C127	C	0.659721	-0.349458	0.000208
C128	C	1.159721	0.150542	0.500208
C129	C	0.615898	-0.318167	0.000192
C130	C	1.115898	0.181833	0.500192
C131	C	0.571562	-0.337287	0.000160
C132	C	1.071562	0.162713	0.500160
C133	C	0.482884	-0.375524	0.000077
C134	C	0.982884	0.124476	0.500077
C135	C	0.483401	-0.325106	0.000076
C136	C	0.983401	0.174894	0.500076
C137	C	0.527740	-0.305987	0.000109
C138	C	1.027740	0.194013	0.500109
C139	C	0.528253	-0.255585	0.000160
C140	C	1.028253	0.244415	0.500160
N141	N	0.572588	-0.236462	0.000176
N142	N	1.072588	0.263538	0.500176
C143	C	0.616411	-0.267753	0.000192
C144	C	1.116411	0.232247	0.500192
C145	C	0.523585	-0.714351	0.000095
C146	C	1.023585	-0.214351	0.500095
C147	C	0.523072	-0.764765	0.000095
C148	C	1.023072	-0.264765	0.500095
C149	C	0.611234	-0.776934	0.000128
C150	C	1.111234	-0.276934	0.500128
C151	C	0.611747	-0.726519	0.000141
C152	C	1.111747	-0.226519	0.500141
C153	C	0.567920	-0.695228	0.000111
C154	C	1.067920	-0.195228	0.500111
C155	C	0.617485	-0.161885	0.000227
C156	C	1.117485	0.338115	0.500227
C157	C	0.617994	-0.111468	0.000251
C158	C	1.117994	0.388532	0.500251
C159	C	0.529832	-0.099304	0.000207
C160	C	1.029832	0.400696	0.500207
C161	C	0.529322	-0.149716	0.000193
C162	C	1.029322	0.350284	0.500193
C163	C	0.573153	-0.181006	0.000197
C164	C	1.073153	0.318994	0.500197
O165	O	0.491053	-0.224302	0.000203
O166	O	0.991053	0.275698	0.500203
O167	O	0.654162	-0.246850	0.000186
O168	O	1.154162	0.253150	0.500186
C169	C	0.614360	-0.469402	0.000144
C170	C	1.114360	0.030598	0.500144
C171	C	0.570024	-0.488522	0.000113
C172	C	1.070024	0.011478	0.500113
C173	C	0.526201	-0.457231	0.000097
C174	C	1.026201	0.042769	0.500097
C175	C	0.569511	-0.538936	0.000113
C176	C	1.069511	-0.038936	0.500113
C177	C	0.613334	-0.570227	0.000128
C178	C	1.113334	-0.070227	0.500128
C179	C	0.657670	-0.551104	0.000144
C180	C	1.157670	-0.051104	0.500144
C181	C	0.658182	-0.500693	0.000160
C182	C	1.158182	-0.000693	0.500160
C183	C	0.481866	-0.476354	0.000081
C184	C	0.981866	0.023646	0.500081
C185	C	0.481357	-0.526766	0.000067
C186	C	0.981357	-0.026766	0.500067
C187	C	0.525179	-0.558057	0.000083
C188	C	1.025179	-0.058057	0.500083
C189	C	0.658937	0.057693	0.000211
C190	C	1.158937	0.557693	0.500211
C191	C	0.712593	0.058245	0.000219
C192	C	1.212593	0.558245	0.500219
C193	C	0.566342	0.150288	0.000136
C194	C	1.066342	0.650288	0.500136
C195	C	0.566894	0.203944	0.000111
C196	C	1.066894	0.703944	0.500111
N197	N	0.584875	0.047512	0.456453
N198	N	1.084875	0.547512	0.956453
N199	N	0.556195	0.076250	-0.456092
N200	N	1.056195	0.576250	0.043908
H201	H	0.412745	0.145452	0.000073
H202	H	0.912745	0.645452	0.500073
N203	N	0.313023	0.156106	0.000158
N204	N	0.813023	0.656106	0.500158
H205	H	0.332792	0.184267	0.000144
H206	H	0.832792	0.684267	0.500144
H207	H	0.288419	0.161242	-0.108396
H208	H	0.788419	0.661242	0.391604
H209	H	0.614157	0.018182	0.531684
H210	H	1.114157	0.518182	1.031684
H211	H	-0.271679	-0.021682	0.000243
H212	H	0.228321	0.478318	0.500243
H213	H	0.647851	-0.710955	0.000167
H214	H	1.147851	-0.210955	0.500167
H215	H	0.693352	-0.576591	0.000165
H216	H	1.193352	-0.076591	0.500165
N217	N	-0.171960	-0.032340	0.000260
N218	N	0.328040	0.467660	0.500260
H219	H	-0.154187	-0.030676	-0.108305
H220	H	0.345813	0.469324	0.391695
H221	H	-0.147386	-0.037494	0.108898
H222	H	0.352614	0.462506	0.608898
N223	N	0.476314	-0.680604	0.000089
N224	N	0.976314	-0.180604	0.500089
H225	H	0.471143	-0.655991	-0.108476
H226	H	0.971143	-0.155991	0.391524
H227	H	0.448182	-0.700408	0.000152
H228	H	0.948182	-0.200408	0.500152
N229	N	0.517408	0.115101	0.444291
N230	N	1.017408	0.615101	0.944291
H231	H	0.523762	0.148359	0.476262
H232	H	1.023762	0.648359	0.976262
H233	H	0.518363	0.114113	0.313586
H234	H	1.018363	0.614113	0.813586
N235	N	0.433528	-0.547380	0.000051
N236	N	0.933528	-0.047380	0.500051
H237	H	0.410938	-0.532517	-0.108522
H238	H	0.910938	-0.032517	0.391478
H239	H	0.439887	-0.584064	0.000111
H240	H	0.939887	-0.084064	0.500111
N241	N	0.434597	-0.442608	0.000062
N242	N	0.934597	0.057392	0.500062
H243	H	0.406437	-0.462376	0.000050
H244	H	0.906437	0.037624	0.500050
H245	H	0.436301	-0.424852	0.108639
H246	H	0.936301	0.075148	0.608639
H247	H	0.174753	0.187177	0.000102
H248	H	0.674753	0.687177	0.500102
H249	H	0.446778	-0.391081	0.000039
H250	H	0.946778	0.108919	0.500039
H251	H	0.117568	-0.061871	0.000310
H252	H	0.617568	0.438129	0.500310
H253	H	0.654102	-0.095905	0.000283
H254	H	1.154102	0.404095	0.500283
N255	N	0.075037	0.197826	0.000224
N256	N	0.575037	0.697826	0.500224
H257	H	0.094808	0.225984	0.000235
H258	H	0.594808	0.725984	0.500235
H259	H	0.050429	0.202972	-0.108319
H260	H	0.550429	0.702972	0.391681
N261	N	0.658501	-0.810688	0.000151
N262	N	1.158501	-0.310688	0.500151
H263	H	0.651444	-0.845525	0.000145
H264	H	1.151444	-0.345525	0.500145
H265	H	0.674425	-0.801112	-0.108417
H266	H	1.174425	-0.301112	0.391583
H267	H	0.653175	-0.187355	0.000224
H268	H	1.153175	0.312645	0.500224
H269	H	-0.202306	0.139202	0.000168
H270	H	0.297694	0.639202	0.500168
H271	H	-0.293771	0.138267	0.000181
H272	H	0.206229	0.638267	0.500181
H273	H	0.343365	-0.015431	0.000172
H274	H	0.843365	0.484569	0.500172
N275	N	0.217294	-0.072520	0.000332
N276	N	0.717294	0.427480	0.500332
H277	H	0.197528	-0.100683	0.000357
H278	H	0.697528	0.399317	0.500357
H279	H	0.235061	-0.070813	-0.108238
H280	H	0.735061	0.429187	0.391762
H281	H	0.434832	-0.014498	0.000167
H282	H	0.934832	0.485502	0.500167
H283	H	0.023519	0.185639	0.000147
H284	H	0.523519	0.685639	0.500147
H285	H	-0.067942	0.184703	0.000164
H286	H	0.432058	0.684703	0.500164
N287	N	0.475251	-0.785386	0.000106
N288	N	0.975251	-0.285386	0.500106
H289	H	0.447570	-0.757909	0.000097
H290	H	0.947570	-0.257909	0.500097
H291	H	0.469701	-0.802615	-0.108460
H292	H	0.969701	-0.302615	0.391540
H293	H	-0.033679	-0.063402	0.000299
H294	H	0.466321	0.436598	0.500299
H295	H	0.057769	-0.062471	0.000292
H296	H	0.557769	0.437529	0.500292
H297	H	0.695826	-0.333896	0.000228
H298	H	1.195826	0.166104	0.500228
H299	H	0.694895	-0.425343	0.000199
H300	H	1.194895	0.074657	0.500199
H301	H	0.447712	-0.299631	0.000048
H302	H	0.947712	0.200369	0.500048
N303	N	0.481502	-0.170343	0.000181
N304	N	0.981502	0.329657	0.500181
H305	H	0.453819	-0.142868	0.000180
H306	H	0.953819	0.357132	0.500180
H307	H	0.475957	-0.187566	-0.108402
H308	H	0.975957	0.312434	0.391598
N309	N	0.706004	-0.480072	0.000177
N310	N	1.206004	0.019928	0.500177
H311	H	0.711598	-0.462852	0.108747
H312	H	1.211598	0.037148	0.608747
H313	H	0.733654	-0.507574	0.000115
H314	H	1.233654	-0.007574	0.500115
H315	H	0.494153	-0.073818	0.000201
H316	H	0.994153	0.426182	0.500201
