data_functionalizedCrystal
_audit_creation_method	'MofGen! by Chris Wilmer'
_symmetry_space_group_name_H-M	'P1'
_symmetry_Int_Tables_number	1
_symmetry_cell_setting	triclinic
loop_
_symmetry_equiv_pos_as_xyz
  x,y,z
_cell_length_a	18.215407
_cell_length_b	15.299816
_cell_length_c	18.215399
_cell_angle_alpha	80.342622
_cell_angle_beta	90.017368
_cell_angle_gamma	80.347944
loop_
_atom_site_label
_atom_site_type_symbol
_atom_site_fract_x
_atom_site_fract_y
_atom_site_fract_z
Zn1	Zn	1.175778	-0.359136	0.466830
Zn2	Zn	1.509111	-0.025802	0.800163
Zn3	Zn	1.842444	0.307531	1.133496
Zn4	Zn	1.196982	-0.509965	0.365082
Zn5	Zn	1.530315	-0.176632	0.698416
Zn6	Zn	1.863648	0.156702	1.031749
Zn7	Zn	1.052713	-0.359157	0.343785
Zn8	Zn	1.386047	-0.025824	0.677119
Zn9	Zn	1.719380	0.307509	1.010452
Zn10	Zn	1.073963	-0.509907	0.488104
Zn11	Zn	1.407297	-0.176574	0.821438
Zn12	Zn	1.740630	0.156760	1.154771
O13	O	1.124859	-0.434541	0.415951
O14	O	1.458192	-0.101208	0.749284
O15	O	1.791526	0.232125	1.082617
O16	O	1.281577	-0.379159	0.453342
O17	O	1.614910	-0.045826	0.786675
O18	O	1.948244	0.287508	1.120009
O19	O	1.177825	-0.489993	0.259278
O20	O	1.511158	-0.156660	0.592611
O21	O	1.844491	0.176673	0.925944
O22	O	1.051271	-0.232943	0.342291
O23	O	1.384604	0.100391	0.675624
O24	O	1.717938	0.433724	1.008958
O25	O	1.297155	-0.489972	0.378589
O26	O	1.630489	-0.156639	0.711922
O27	O	1.963822	0.176694	1.045255
O28	O	1.141686	-0.232927	0.432691
O29	O	1.475019	0.100406	0.766025
O30	O	1.808353	0.433740	1.099358
O31	O	1.071832	-0.379196	0.243631
O32	O	1.405165	-0.045862	0.576964
O33	O	1.738498	0.287471	0.910298
O34	O	0.952546	-0.379139	0.362920
O35	O	1.285879	-0.045806	0.696254
O36	O	1.619213	0.287527	1.029587
O37	O	1.087489	-0.489873	0.588262
O38	O	1.420822	-0.156540	0.921595
O39	O	1.754155	0.176793	1.254929
O40	O	0.968158	-0.489894	0.468951
O41	O	1.301492	-0.156561	0.802284
O42	O	1.634825	0.176772	1.135618
O43	O	1.162291	-0.379103	0.572631
O44	O	1.495625	-0.045769	0.905965
O45	O	1.828958	0.287564	1.239298
O46	O	1.198430	-0.636169	0.399218
O47	O	1.531763	-0.302836	0.732551
O48	O	1.865097	0.030498	1.065885
O49	O	1.108049	-0.636126	0.489602
O50	O	1.441382	-0.302793	0.822935
O51	O	1.774716	0.030540	1.156268
C52	C	0.933649	-0.434514	0.415934
C53	C	1.266982	-0.101180	0.749267
C54	C	1.600316	0.232153	1.082600
C55	C	0.851851	-0.434523	0.415947
C56	C	1.185185	-0.101190	0.749280
C57	C	1.518518	0.232143	1.082614
C58	C	0.655562	-0.376942	0.454962
C59	C	0.988895	-0.043608	0.788296
C60	C	1.322228	0.289725	1.121629
C61	C	0.578704	-0.376949	0.454966
C62	C	0.912037	-0.043616	0.788299
C63	C	1.245371	0.289717	1.121632
C64	C	0.594912	-0.492166	0.376955
C65	C	0.928245	-0.158833	0.710289
C66	C	1.261579	0.174500	1.043622
C67	C	0.671768	-0.492153	0.376948
C68	C	1.005101	-0.158820	0.710281
C69	C	1.338434	0.174513	1.043615
C70	C	0.702091	-0.434542	0.415956
C71	C	1.035424	-0.101209	0.749289
C72	C	1.368757	0.232124	1.082622
C73	C	0.548377	-0.434563	0.415967
C74	C	0.881711	-0.101230	0.749300
C75	C	1.215044	0.232104	1.082633
C76	C	0.465045	-0.434572	0.415970
C77	C	0.798378	-0.101238	0.749304
C78	C	1.131712	0.232095	1.082637
C79	C	0.785428	-0.434532	0.415951
C80	C	1.118761	-0.101199	0.749284
C81	C	1.452095	0.232135	1.082618
C82	C	1.157866	-0.668873	0.449046
C83	C	1.491200	-0.335540	0.782379
C84	C	1.824533	-0.002206	1.115712
C85	C	1.172054	-0.769121	0.463228
C86	C	1.505388	-0.435788	0.796562
C87	C	1.838721	-0.102454	1.129895
C88	C	1.023938	-1.052035	0.314834
C89	C	1.357271	-0.718702	0.648167
C90	C	1.690605	-0.385369	0.981500
C91	C	1.010604	-0.957847	0.301510
C92	C	1.343937	-0.624514	0.634844
C93	C	1.677271	-0.291181	0.968177
C94	C	1.050966	-0.910661	0.341938
C95	C	1.384299	-0.577328	0.675272
C96	C	1.717632	-0.243994	1.008605
C97	C	1.104663	-0.957672	0.395693
C98	C	1.437997	-0.624339	0.729026
C99	C	1.771330	-0.291006	1.062360
C100	C	1.117994	-1.051869	0.409022
C101	C	1.451328	-0.718536	0.742355
C102	C	1.784661	-0.385203	1.075689
C103	C	1.145022	-0.910495	0.436126
C104	C	1.478355	-0.577162	0.769460
C105	C	1.811689	-0.243829	1.102793
C106	C	1.198720	-0.957506	0.489881
C107	C	1.532053	-0.624173	0.823214
C108	C	1.865386	-0.290840	1.156548
C109	C	1.212049	-1.051694	0.503207
C110	C	1.545382	-0.718361	0.836541
C111	C	1.878716	-0.385028	1.169874
C112	C	1.171687	-1.098881	0.462779
C113	C	1.505021	-0.765547	0.796113
C114	C	1.838354	-0.432214	1.129446
C115	C	1.131691	-0.816298	0.422797
C116	C	1.465024	-0.482965	0.756131
C117	C	1.798357	-0.149631	1.089464
C118	C	1.225747	-0.816132	0.516986
C119	C	1.559080	-0.482799	0.850319
C120	C	1.892414	-0.149465	1.183652
C121	C	1.239081	-0.910320	0.530309
C122	C	1.572415	-0.576987	0.863643
C123	C	1.905748	-0.243653	1.196976
C124	C	1.316816	-0.434570	0.415968
C125	C	1.650149	-0.101236	0.749301
C126	C	1.983483	0.232097	1.082635
C127	C	1.398617	-0.434582	0.415975
C128	C	1.731950	-0.101249	0.749309
C129	C	2.065283	0.232085	1.082642
C130	C	1.124895	-0.434479	0.607895
C131	C	1.458228	-0.101146	0.941228
C132	C	1.791562	0.232188	1.274561
C133	C	1.124910	-0.434453	0.689690
C134	C	1.458244	-0.101119	1.023023
C135	C	1.791577	0.232214	1.356357
C136	C	1.091743	-0.199295	0.382742
C137	C	1.425076	0.134039	0.716076
C138	C	1.758410	0.467372	1.049409
C139	C	1.077631	-0.099046	0.368591
C140	C	1.410964	0.234287	0.701924
C141	C	1.744298	0.567620	1.035258
C142	C	1.124856	-0.434538	0.224744
C143	C	1.458190	-0.101205	0.558077
C144	C	1.791523	0.232129	0.891411
C145	C	1.124948	-0.434311	0.142913
C146	C	1.458281	-0.100977	0.476247
C147	C	1.791614	0.232356	0.809580
C148	C	1.163870	-0.376720	0.869739
C149	C	1.497203	-0.043387	1.203072
C150	C	1.830536	0.289946	1.536405
C151	C	1.163875	-0.376694	0.946594
C152	C	1.497208	-0.043361	1.279927
C153	C	1.830541	0.289973	1.613260
C154	C	1.085984	-0.492045	0.962859
C155	C	1.419317	-0.158712	1.296193
C156	C	1.752650	0.174621	1.629526
C157	C	1.085975	-0.492067	0.886005
C158	C	1.419308	-0.158733	1.219338
C159	C	1.752642	0.174600	1.552672
C160	C	1.124922	-0.434405	0.839447
C161	C	1.458255	-0.101072	1.172780
C162	C	1.791589	0.232261	1.506113
C163	C	1.124936	-0.434358	0.993156
C164	C	1.458269	-0.101025	1.326490
C165	C	1.791603	0.232309	1.659823
C166	C	1.124941	-0.434330	1.076486
C167	C	1.458275	-0.100997	1.409819
C168	C	1.791608	0.232337	1.743153
C169	C	1.124916	-0.434432	0.756112
C170	C	1.458249	-0.101099	1.089445
C171	C	1.791583	0.232235	1.422778
H172	H	1.040106	-0.833969	0.331086
H173	H	1.373440	-0.500636	0.664419
H174	H	1.706773	-0.167302	0.997753
H175	H	1.195580	-0.329766	0.831832
H176	H	1.528914	0.003567	1.165166
H177	H	1.862247	0.336900	1.498499
H178	H	1.282802	-0.948610	0.574077
H179	H	1.616135	-0.615277	0.907410
H180	H	1.949469	-0.281943	1.240744
H181	H	0.680247	-0.330028	0.486722
H182	H	1.013581	0.003305	0.820056
H183	H	1.346914	0.336639	1.153389
H184	H	1.054276	-0.538993	1.000776
H185	H	1.387610	-0.205660	1.334110
H186	H	1.720943	0.127674	1.667443
N187	N	1.269929	-1.102402	0.561219
N188	N	1.603263	-0.769069	0.894552
N189	N	1.936596	-0.435735	1.227885
H190	H	1.293468	-1.058221	0.584816
H191	H	1.626801	-0.724887	0.918150
H192	H	1.960134	-0.391554	1.251483
H193	H	1.309545	-1.141494	0.536850
H194	H	1.642878	-0.808161	0.870184
H195	H	1.976211	-0.474827	1.203517
H196	H	0.709653	-0.539060	0.345180
H197	H	1.042987	-0.205726	0.678514
H198	H	1.376320	0.127607	1.011847
H199	H	1.195588	-0.329720	0.971253
H200	H	1.528921	0.003614	1.304586
H201	H	1.862255	0.336947	1.637920
N202	N	1.186055	-1.200472	0.477162
N203	N	1.519389	-0.867139	0.810495
N204	N	1.852722	-0.533805	1.143829
H205	H	1.226190	-1.223096	0.517355
H206	H	1.559523	-0.889763	0.850689
H207	H	1.892857	-0.556429	1.184022
H208	H	1.202793	-1.223126	0.429872
H209	H	1.536127	-0.889793	0.763205
H210	H	1.869460	-0.556459	1.096538
H211	H	1.087969	-0.778030	0.379030
H212	H	1.421303	-0.444697	0.712364
H213	H	1.754636	-0.111363	1.045697
N214	N	1.043948	-0.554268	0.853324
N215	N	1.377281	-0.220935	1.186657
N216	N	1.710614	0.112398	1.519991
H217	H	1.019276	-0.590793	0.894479
H218	H	1.352609	-0.257460	1.227812
H219	H	1.685943	0.075874	1.561146
H220	H	1.079766	-0.596023	0.827324
H221	H	1.413100	-0.262689	1.160658
H222	H	1.746433	0.070644	1.493991
N223	N	0.528525	-0.314812	0.497033
N224	N	0.861859	0.018521	0.830367
N225	N	1.195192	0.351855	1.163700
H226	H	0.543904	-0.328897	0.551586
H227	H	0.877238	0.004437	0.884919
H228	H	1.210571	0.337770	1.218253
H229	H	0.475250	-0.323578	0.491061
H230	H	0.808584	0.009755	0.824395
H231	H	1.141917	0.343089	1.157728
N232	N	0.562206	-0.554299	0.334882
N233	N	0.895539	-0.220966	0.668215
N234	N	1.228873	0.112368	1.001549
H235	H	0.506458	-0.545569	0.340805
H236	H	0.839791	-0.212235	0.674139
H237	H	1.173124	0.121098	1.007472
H238	H	0.584728	-0.618729	0.355348
H239	H	0.918061	-0.285396	0.688681
H240	H	1.251394	0.047937	1.022014
N241	N	0.952696	-0.907144	0.243534
N242	N	1.286029	-0.573811	0.576867
N243	N	1.619362	-0.240477	0.910200
H244	H	0.929152	-0.951326	0.219942
H245	H	1.262485	-0.617993	0.553276
H246	H	1.595819	-0.284660	0.886609
H247	H	0.977144	-0.868063	0.203974
H248	H	1.310477	-0.534730	0.537308
H249	H	1.643810	-0.201397	0.870641
H250	H	0.991078	-1.090463	0.281927
H251	H	1.324411	-0.757130	0.615260
H252	H	1.657745	-0.423796	0.948593
H253	H	1.258612	-0.777714	0.549907
H254	H	1.591945	-0.444380	0.883241
H255	H	1.925278	-0.111047	1.216574
