data_functionalizedCrystal
_audit_creation_method	'MofGen! by Chris Wilmer'
_symmetry_space_group_name_H-M	'P1'
_symmetry_Int_Tables_number	1
_symmetry_cell_setting	triclinic
loop_
_symmetry_equiv_pos_as_xyz
  x,y,z
_cell_length_a	12.759401
_cell_length_b	11.169416
_cell_length_c	11.169409
_cell_angle_alpha	90.030874
_cell_angle_beta	90.021365
_cell_angle_gamma	90.011865
loop_
_atom_site_label
_atom_site_type_symbol
_atom_site_fract_x
_atom_site_fract_y
_atom_site_fract_z
Zn1	Zn	1.606303	-0.477661	0.678604
Zn2	Zn	1.606206	-0.678402	0.477926
Zn3	Zn	1.430600	-0.477737	0.477933
Zn4	Zn	1.430607	-0.678306	0.678566
O5	O	1.518429	-0.578026	0.578257
O6	O	1.753311	-0.504298	0.651997
O7	O	1.582868	-0.651854	0.309977
O8	O	1.453945	-0.309777	0.504572
O9	O	1.753240	-0.651781	0.504560
O10	O	1.583033	-0.309721	0.652004
O11	O	1.453851	-0.504427	0.309983
O12	O	1.283580	-0.504334	0.504534
O13	O	1.453956	-0.651619	0.846521
O14	O	1.283585	-0.651692	0.651938
O15	O	1.583039	-0.504206	0.846549
O16	O	1.582874	-0.846339	0.504523
O17	O	1.453862	-0.846269	0.651932
C18	C	1.245461	-0.578012	0.578234
C19	C	1.128685	-0.578034	0.578252
C20	C	1.073853	-0.654880	0.654884
C21	C	0.964129	-0.654885	0.654908
C22	C	0.964078	-0.501194	0.501657
C23	C	1.073800	-0.501184	0.501640
C24	C	1.518387	-0.889851	0.578248
C25	C	1.518465	-1.023251	0.578285
C26	C	1.792462	-0.578042	0.578282
C27	C	1.909239	-0.578049	0.578293
C28	C	1.518509	-0.577893	0.891300
C29	C	1.518544	-0.577836	1.024700
C30	C	1.518499	-0.264984	0.578293
C31	C	1.518529	-0.131584	0.578308
C32	C	1.518409	-0.578073	0.266433
C33	C	1.518578	-0.577791	0.133033
H34	H	1.118446	-0.438600	0.439236
C35	C	0.795958	-0.723135	0.722992
C36	C	0.903856	-0.739356	0.739144
H37	H	0.758751	-0.775281	0.775005
H38	H	0.777940	-0.740609	0.642336
H39	H	0.778007	-0.642514	0.740700
H40	H	0.921809	-0.819976	0.721427
H41	H	0.921881	-0.721890	0.819818
C42	C	1.197228	-0.816338	0.671276
C43	C	1.134182	-0.739344	0.739104
H44	H	1.234463	-0.868485	0.723276
H45	H	1.245587	-0.770573	0.625646
H46	H	1.154384	-0.862187	0.618920
H47	H	1.177026	-0.693488	0.791455
H48	H	1.085817	-0.785113	0.784755
C49	C	0.795859	-0.432966	0.433635
C50	C	0.903745	-0.416729	0.417443
H51	H	0.758616	-0.380823	0.381638
H52	H	0.777921	-0.415497	0.514298
H53	H	0.777870	-0.513589	0.415931
H54	H	0.921735	-0.336107	0.435156
H55	H	0.921690	-0.434189	0.336762
