data_functionalizedCrystal
_audit_creation_method	'MofGen! by Chris Wilmer'
_symmetry_space_group_name_H-M	'P1'
_symmetry_Int_Tables_number	1
_symmetry_cell_setting	triclinic
loop_
_symmetry_equiv_pos_as_xyz
  x,y,z
_cell_length_a	14.519709
_cell_length_b	11.026607
_cell_length_c	10.066281
_cell_angle_alpha	97.650714
_cell_angle_beta	99.844101
_cell_angle_gamma	96.133081
loop_
_atom_site_label
_atom_site_type_symbol
_atom_site_fract_x
_atom_site_fract_y
_atom_site_fract_z
O1	O	-1.235372	-0.143286	0.113303
O2	O	-0.969978	-0.162020	0.113344
O3	O	-1.080680	0.024047	0.113322
O4	O	-1.124670	-0.329354	0.113325
O5	O	-1.110143	-0.007689	-0.113655
O6	O	-0.999441	-0.193757	-0.113633
O7	O	-1.264835	-0.175023	-0.113674
Zn8	Zn	-1.136816	-0.189429	-0.149691
Zn9	Zn	-1.097997	-0.147615	0.149361
O10	O	-1.154133	-0.361090	-0.113652
C11	C	-1.087296	0.053408	-0.000164
C12	C	-1.063102	0.188176	-0.000155
C13	C	-0.950205	-0.177015	-0.000139
C14	C	-0.847390	-0.174395	-0.000123
C15	C	-1.284608	-0.160028	-0.000188
C16	C	-1.387421	-0.162646	-0.000195
C17	C	-0.470915	-0.164769	-0.000186
C18	C	-0.575662	-0.167442	-0.000168
C19	C	-0.659149	-0.169582	-0.000153
C20	C	-0.763903	-0.172256	-0.000138
C21	C	-1.147517	-0.390451	-0.000163
C22	C	-1.171709	-0.525217	-0.000163
N23	N	-1.163315	-0.217965	-0.353787
C24	C	-1.129903	0.261835	-0.000163
C25	C	-1.104899	0.401125	-0.000155
C26	C	-1.107204	-0.157536	-0.421587
C27	C	-1.127623	-0.179507	-0.578747
N28	N	-1.071504	-0.119069	0.353457
H29	H	-1.029192	0.441178	-0.000134
H30	H	-1.247402	0.434747	-0.000072
C31	C	-0.995375	0.090358	-0.602273
C32	C	-0.986237	-0.027269	-0.567849
H33	H	-0.942731	0.147024	-0.553692
H34	H	-1.051666	0.116195	-0.578908
H35	H	-0.997908	0.087629	-0.697565
H36	H	-0.983710	-0.024542	-0.472559
H37	H	-0.929930	-0.053112	-0.591205
C38	C	-0.903917	0.147497	-0.000121
C39	C	-0.960903	0.242237	-0.000130
H40	H	-0.840821	0.180874	-0.000096
H41	H	-0.926403	0.087631	-0.079274
H42	H	-0.905868	0.109747	0.079031
H43	H	-0.958958	0.279981	-0.079287
H44	H	-0.938411	0.302125	0.079031
H45	H	-1.226466	-0.285973	-0.412091
H46	H	-1.205605	0.221777	-0.000184
C47	C	-1.031091	0.051887	-0.377339
C48	C	-1.021942	-0.065732	-0.342900
H49	H	-0.978449	0.108561	-0.328769
H50	H	-1.087382	0.077722	-0.353971
H51	H	-1.033631	0.049148	-0.472633
H52	H	-1.019409	-0.062996	-0.247607
H53	H	-0.965636	-0.091573	-0.366259
H54	H	-1.190778	-0.247518	-0.637045
