data_functionalizedCrystal
_audit_creation_method	'MofGen! by Chris Wilmer'
_symmetry_space_group_name_H-M	'P1'
_symmetry_Int_Tables_number	1
_symmetry_cell_setting	triclinic
loop_
_symmetry_equiv_pos_as_xyz
  x,y,z
_cell_length_a	14.853567
_cell_length_b	10.540539
_cell_length_c	13.930277
_cell_angle_alpha	89.997612
_cell_angle_beta	89.995755
_cell_angle_gamma	84.080211
loop_
_atom_site_label
_atom_site_type_symbol
_atom_site_fract_x
_atom_site_fract_y
_atom_site_fract_z
O1	O	1.197288	0.165727	-0.079760
O2	O	0.934938	0.185470	-0.079776
O3	O	1.072098	-0.009174	-0.079766
O4	O	1.060128	0.360371	-0.079770
O5	O	1.072079	-0.009178	0.079895
O6	O	0.934919	0.185465	0.079886
O7	O	1.197269	0.165723	0.079902
Zn8	Zn	1.066091	0.175594	0.105244
Zn9	Zn	1.066116	0.175599	-0.105118
O10	O	1.060108	0.360367	0.079892
C11	C	0.901335	0.184573	0.000053
C12	C	0.801236	0.181892	0.000047
C13	C	0.387998	0.054938	0.000069
C14	C	0.368000	0.286179	0.000066
C15	C	0.462048	0.288700	0.000063
C16	C	0.519075	0.174338	0.000062
C17	C	0.482055	0.057455	0.000063
C18	C	0.499075	0.405580	0.000052
C19	C	0.593129	0.408105	0.000048
C20	C	0.650158	0.293742	0.000053
C21	C	0.613132	0.176855	0.000056
C22	C	0.670159	0.062493	0.000054
C23	C	0.633135	-0.054396	0.000064
C24	C	0.539084	-0.056908	0.000069
C25	C	0.744209	0.296254	0.000048
C26	C	0.764216	0.065010	0.000048
C27	C	1.071191	-0.056469	0.000063
C28	C	1.068505	-0.197388	0.000057
C29	C	0.965588	-0.379682	-0.000307
C30	C	0.968311	-0.233094	0.000052
C31	C	1.116712	-0.259578	0.091235
C32	C	1.113293	-0.406085	0.091312
C33	C	1.115353	-0.406621	-0.090254
C34	C	1.116276	-0.259649	-0.091459
C35	C	1.230872	0.166620	0.000071
C36	C	1.330971	0.169300	0.000071
C37	C	1.061016	0.407662	0.000061
C38	C	1.063702	0.548580	0.000060
N39	N	1.066080	0.175589	0.248810
N40	N	1.066134	0.175594	-0.248684
C41	C	1.005379	0.261753	0.701075
C42	C	1.126878	0.089435	0.701053
C43	C	1.126867	0.089431	0.600557
C44	C	1.066112	0.175591	0.550315
C45	C	1.005368	0.261755	0.600570
C46	C	1.187617	0.003277	0.550295
C47	C	1.187609	0.003271	0.449793
C48	C	1.126849	0.089426	0.399550
C49	C	1.066102	0.175592	0.449810
C50	C	1.005347	0.261752	0.399569
C51	C	0.944594	0.347913	0.449828
C52	C	0.944608	0.347909	0.550327
C53	C	1.126835	0.089429	0.299051
C54	C	1.005336	0.261753	0.299064
H55	H	0.508930	-0.152072	0.000099
H56	H	0.810642	-0.028119	0.000051
Br57	Br	1.239352	-0.223677	0.096898
H58	H	0.926162	-0.409458	0.064707
Br59	Br	0.710540	-0.209595	0.000050
Br60	Br	0.337755	-0.103689	0.000091
Br61	Br	1.233390	-0.487365	0.098225
Br62	Br	0.862152	0.464852	0.381632
H63	H	0.623265	0.503283	0.000040
Br64	Br	0.290607	0.441377	0.000051
Br65	Br	0.421679	0.560776	0.000033
Br66	Br	0.922926	0.378674	0.769276
Br67	Br	1.209337	-0.027481	0.769233
Br68	Br	0.794454	0.454874	0.000024
H69	H	0.930378	-0.190072	-0.065308
H70	H	1.083209	-0.216612	0.159082
Br71	Br	0.899627	-0.426614	-0.109290
Br72	Br	0.904611	-0.162787	0.109160
H73	H	1.077649	-0.433894	0.159465
H74	H	0.955858	0.331910	0.258163
H75	H	1.082933	-0.437815	-0.159360
Br76	Br	1.057988	-0.190081	-0.203901
H77	H	1.189326	-0.236231	-0.096960
H78	H	1.187723	-0.454643	-0.090862
H79	H	1.237076	-0.066887	0.408879
Br80	Br	0.862166	0.464835	0.618536
Br81	Br	1.270076	-0.113639	0.618476
Br82	Br	1.209286	-0.027484	0.230849
