data_functionalizedCrystal
_audit_creation_method	'MofGen! by Chris Wilmer'
_symmetry_space_group_name_H-M	'P1'
_symmetry_Int_Tables_number	1
_symmetry_cell_setting	triclinic
loop_
_symmetry_equiv_pos_as_xyz
  x,y,z
_cell_length_a	14.853569
_cell_length_b	14.853559
_cell_length_c	15.186229
_cell_angle_alpha	89.996359
_cell_angle_beta	89.998535
_cell_angle_gamma	96.366491
loop_
_atom_site_label
_atom_site_type_symbol
_atom_site_fract_x
_atom_site_fract_y
_atom_site_fract_z
O1	O	1.196355	-0.117713	0.073184
O2	O	1.696355	0.382287	0.573184
O3	O	0.933895	-0.131733	0.073194
O4	O	1.433895	0.368267	0.573194
O5	O	1.072140	0.006507	0.073188
O6	O	1.572140	0.506507	0.573188
O7	O	1.058110	-0.255954	0.073190
O8	O	1.558110	0.244046	0.573190
O9	O	1.072139	0.006515	-0.073270
O10	O	1.572139	0.506515	0.426730
O11	O	0.933894	-0.131725	-0.073263
O12	O	1.433894	0.368275	0.426737
O13	O	1.196354	-0.117705	-0.073273
O14	O	1.696354	0.382295	0.426727
Zn15	Zn	1.065124	-0.124714	-0.096522
Zn16	Zn	1.565124	0.375286	0.403478
Zn17	Zn	1.065125	-0.124725	0.096442
Zn18	Zn	1.565125	0.375275	0.596442
O19	O	1.058109	-0.255945	-0.073267
O20	O	1.558109	0.244055	0.426733
C21	C	0.900306	-0.131094	-0.000033
C22	C	1.400306	0.368906	0.499967
C23	C	0.800222	-0.129189	-0.000029
C24	C	1.300222	0.370811	0.499971
C25	C	0.763848	-0.046178	-0.000027
C26	C	1.263848	0.453822	0.499973
C27	C	0.742554	-0.210411	-0.000035
C28	C	1.242554	0.289589	0.499965
C29	C	0.648520	-0.208625	-0.000036
C30	C	1.148520	0.291375	0.499964
C31	C	0.612146	-0.125614	-0.000034
C32	C	1.112146	0.374386	0.499966
C33	C	0.669806	-0.044389	-0.000031
C34	C	1.169806	0.455611	0.499969
C35	C	0.590853	-0.289848	-0.000049
C36	C	1.090853	0.210152	0.499951
C37	C	0.496812	-0.288065	-0.000051
C38	C	0.996812	0.211935	0.499949
C39	C	0.460437	-0.205053	-0.000042
C40	C	0.960437	0.294947	0.499958
C41	C	0.518103	-0.123825	-0.000038
C42	C	1.018103	0.376175	0.499962
C43	C	0.481729	-0.040813	-0.000035
C44	C	0.981729	0.459187	0.499965
C45	C	0.539394	0.040416	-0.000025
C46	C	1.039394	0.540416	0.499975
C47	C	0.633430	0.038623	-0.000022
C48	C	1.133430	0.538623	0.499978
C49	C	0.366401	-0.203260	-0.000045
C50	C	0.866401	0.296740	0.499955
C51	C	0.387687	-0.039024	-0.000039
C52	C	0.887687	0.460976	0.499961
C53	C	1.071505	0.040100	-0.000039
C54	C	1.571505	0.540100	0.499961
C55	C	1.069604	0.140184	-0.000034
C56	C	1.569604	0.640184	0.499966
C57	C	1.229943	-0.118345	-0.000044
C58	C	1.729943	0.381655	0.499956
C59	C	1.330027	-0.120249	-0.000042
C60	C	1.830027	0.379751	0.499958
C61	C	1.058744	-0.289538	-0.000038
C62	C	1.558744	0.210462	0.499962
C63	C	1.060645	-0.389622	-0.000037
C64	C	1.560645	0.110378	0.499963
C65	C	1.061541	0.563355	0.079800
C66	C	1.561541	1.063355	0.579800
C67	C	1.061540	0.563358	-0.079873
C68	C	1.561540	1.063358	0.420127
C69	C	1.063333	0.469325	-0.079874
C70	C	1.563333	0.969325	0.420126
C71	C	1.064229	0.422302	-0.000037
C72	C	1.564229	0.922302	0.499963
C73	C	1.063332	0.469312	0.079802
C74	C	1.563332	0.969312	0.579802
C75	C	1.064221	0.422307	-0.159711
C76	C	1.564221	0.922307	0.340289
C77	C	1.066014	0.328267	-0.159715
C78	C	1.566014	0.828267	0.340285
C79	C	1.066916	0.281244	-0.079877
C80	C	1.566916	0.781244	0.420123
C81	C	1.066020	0.328260	-0.000035
C82	C	1.566020	0.828260	0.499965
C83	C	1.066916	0.281237	0.079802
C84	C	1.566916	0.781237	0.579802
C85	C	1.066026	0.328252	0.159645
C86	C	1.566026	0.828252	0.659645
C87	C	1.064234	0.422288	0.159640
C88	C	1.564234	0.922288	0.659640
C89	C	1.068708	0.187207	-0.079872
C90	C	1.568708	0.687207	0.420128
C91	C	1.068707	0.187194	0.079804
C92	C	1.568707	0.687194	0.579804
N93	N	1.065127	-0.124726	0.228135
N94	N	1.565127	0.375274	0.728135
N95	N	1.065129	-0.124706	-0.228214
N96	N	1.565129	0.375294	0.271786
C97	C	1.126460	-0.063631	0.453855
C98	C	1.626460	0.436369	0.953855
C99	C	1.126462	-0.063629	0.546045
C100	C	1.626462	0.436371	1.046045
C101	C	1.003793	-0.185806	0.546059
C102	C	1.503793	0.314194	1.046059
C103	C	1.003796	-0.185812	0.453871
C104	C	1.503796	0.314188	0.953871
C105	C	1.065128	-0.124720	0.407771
C106	C	1.565128	0.375280	0.907771
C107	C	1.065128	-0.124711	0.592149
C108	C	1.565128	0.375289	1.092149
C109	C	1.065130	-0.124709	0.692105
C110	C	1.565130	0.375291	1.192105
C111	C	1.065127	-0.124723	0.307809
C112	C	1.565127	0.375277	0.807809
H113	H	0.810803	0.019956	-0.000015
H114	H	1.310803	0.519956	0.499985
H115	H	1.063487	0.460599	-0.224710
H116	H	1.563487	0.960599	0.275290
H117	H	0.772176	-0.277995	-0.000043
H118	H	1.272176	0.222005	0.499957
H119	H	1.060804	0.601649	-0.144873
H120	H	1.560804	1.101649	0.355127
H121	H	1.069412	0.148929	-0.144878
H122	H	1.569412	0.648929	0.355122
H123	H	0.358079	0.028574	-0.000032
H124	H	0.858079	0.528574	0.499968
H125	H	0.509766	0.108003	-0.000017
H126	H	1.009766	0.608003	0.499983
H127	H	0.953857	-0.235545	0.583603
H128	H	1.453857	0.264455	1.083603
H129	H	1.066749	0.289953	0.224649
H130	H	1.566749	0.789953	0.724649
H131	H	0.620476	-0.357431	-0.000056
H132	H	1.120476	0.142569	0.499944
H133	H	0.680389	0.104755	-0.000015
H134	H	1.180389	0.604755	0.499985
H135	H	1.066742	0.289996	-0.224728
H136	H	1.566742	0.789996	0.275272
H137	H	1.063509	0.460576	0.224644
H138	H	1.563509	0.960576	0.724644
H139	H	1.060820	0.601639	0.144806
H140	H	1.560820	1.101639	0.644806
H141	H	1.176401	-0.013887	0.416323
H142	H	1.676401	0.486113	0.916323
H143	H	1.176405	-0.013886	0.583563
H144	H	1.676405	0.486114	1.083563
H145	H	0.449869	-0.354207	-0.000058
H146	H	0.949869	0.145793	0.499942
H147	H	0.319454	-0.269396	-0.000061
H148	H	0.819454	0.230604	0.499939
H149	H	1.069441	0.148915	0.144818
H150	H	1.569441	0.648915	0.644818
H151	H	0.953852	-0.235562	0.416347
H152	H	1.453852	0.264438	0.916347
