data_functionalizedCrystal
_audit_creation_method	'MofGen! by Chris Wilmer'
_symmetry_space_group_name_H-M	'P1'
_symmetry_Int_Tables_number	1
_symmetry_cell_setting	triclinic
loop_
_symmetry_equiv_pos_as_xyz
  x,y,z
_cell_length_a	19.121424
_cell_length_b	19.120786
_cell_length_c	19.120915
_cell_angle_alpha	89.863545
_cell_angle_beta	94.749638
_cell_angle_gamma	95.008527
loop_
_atom_site_label
_atom_site_type_symbol
_atom_site_fract_x
_atom_site_fract_y
_atom_site_fract_z
Zn1	Zn	1.048453	-0.249444	-0.341889
Zn2	Zn	1.381787	0.083889	-0.008556
Zn3	Zn	1.715120	0.417222	0.324778
Zn4	Zn	1.048803	-0.361679	-0.219634
Zn5	Zn	1.382137	-0.028346	0.113700
Zn6	Zn	1.715470	0.304988	0.447033
Zn7	Zn	0.935818	-0.249473	-0.229242
Zn8	Zn	1.269152	0.083860	0.104091
Zn9	Zn	1.602485	0.417193	0.437425
Zn10	Zn	0.925740	-0.372103	-0.341829
Zn11	Zn	1.259074	-0.038770	-0.008495
Zn12	Zn	1.592407	0.294563	0.324838
O13	O	0.989704	-0.308175	-0.283148
O14	O	1.323037	0.025158	0.050185
O15	O	1.656371	0.358492	0.383518
O16	O	1.147140	-0.259958	-0.321676
O17	O	1.480474	0.073376	0.011658
O18	O	1.813807	0.406709	0.344991
O19	O	1.038180	-0.342444	-0.122626
O20	O	1.371513	-0.009111	0.210707
O21	O	1.704847	0.324222	0.544040
O22	O	0.954831	-0.151178	-0.248231
O23	O	1.288164	0.182155	0.085102
O24	O	1.621498	0.515489	0.418436
O25	O	1.147398	-0.342416	-0.231855
O26	O	1.480731	-0.009083	0.101478
O27	O	1.814064	0.324251	0.434811
O28	O	1.037583	-0.151157	-0.330992
O29	O	1.370917	0.182177	0.002341
O30	O	1.704250	0.515510	0.335674
O31	O	0.955170	-0.260007	-0.129685
O32	O	1.288504	0.073326	0.203648
O33	O	1.621837	0.406659	0.536981
O34	O	0.835841	-0.270115	-0.248173
O35	O	1.169174	0.063218	0.085161
O36	O	1.502508	0.396551	0.418494
O37	O	0.937654	-0.360183	-0.440119
O38	O	1.270988	-0.026850	-0.106785
O39	O	1.604321	0.306484	0.226548
O40	O	0.828437	-0.360211	-0.330890
O41	O	1.161770	-0.026878	0.002444
O42	O	1.495103	0.306456	0.335777
O43	O	1.027811	-0.270066	-0.440163
O44	O	1.361145	0.063267	-0.106830
O45	O	1.694478	0.396601	0.226504
O46	O	1.028408	-0.461354	-0.231797
O47	O	1.361741	-0.128020	0.101536
O48	O	1.695074	0.205313	0.434870
O49	O	0.937994	-0.469012	-0.321573
O50	O	1.271327	-0.135679	0.011760
O51	O	1.604661	0.197654	0.345094
C52	C	0.806562	-0.316298	-0.290568
C53	C	1.139896	0.017035	0.042766
C54	C	1.473229	0.350369	0.376099
C55	C	0.728212	-0.319791	-0.293758
C56	C	1.061546	0.013543	0.039576
C57	C	1.394879	0.346876	0.372909
C58	C	0.982164	-0.490669	-0.275650
C59	C	1.315497	-0.157335	0.057683
C60	C	1.648830	0.175998	0.391016
C61	C	0.979001	-0.568738	-0.272464
C62	C	1.312335	-0.235405	0.060870
C63	C	1.645668	0.097928	0.394203
C64	C	0.284886	-0.341881	-0.314013
C65	C	0.618219	-0.008547	0.019320
C66	C	0.951552	0.324786	0.352654
C67	C	0.358504	-0.338604	-0.311002
C68	C	0.691838	-0.005270	0.022331
C69	C	1.025171	0.328063	0.355664
C70	C	0.399145	-0.289988	-0.266508
C71	C	0.732479	0.043345	0.066825
C72	C	1.065812	0.376678	0.400158
C73	C	0.366164	-0.244652	-0.225017
C74	C	0.699497	0.088682	0.108316
C75	C	1.032831	0.422015	0.441650
C76	C	0.292547	-0.247933	-0.228024
C77	C	0.625880	0.085401	0.105309
C78	C	0.959213	0.418734	0.438642
C79	C	0.621614	-0.277735	-0.255274
C80	C	0.954947	0.055598	0.078059
C81	C	1.288280	0.388932	0.411393
C82	C	0.695236	-0.274456	-0.252271
C83	C	1.028569	0.058877	0.081062
C84	C	1.361903	0.392210	0.414396
C85	C	0.687571	-0.368410	-0.338256
C86	C	1.020904	-0.035076	-0.004923
C87	C	1.354238	0.298257	0.328411
C88	C	0.613953	-0.371683	-0.341263
C89	C	0.947286	-0.038350	-0.007929
C90	C	1.280619	0.294983	0.325404
C91	C	0.580978	-0.326349	-0.299769
C92	C	0.914311	0.006984	0.033565
C93	C	1.247645	0.340317	0.366898
C94	C	0.474395	-0.286636	-0.263432
C95	C	0.807729	0.046697	0.069902
C96	C	1.141062	0.380031	0.403235
C97	C	0.505729	-0.329705	-0.302842
C98	C	0.839062	0.003628	0.030491
C99	C	1.172396	0.336961	0.363825
C100	C	1.020565	-0.605347	-0.314094
C101	C	1.353899	-0.272014	0.019240
C102	C	1.687232	0.061319	0.352573
C103	C	1.017591	-0.678702	-0.311101
C104	C	1.350924	-0.345369	0.022233
C105	C	1.684258	-0.012036	0.355566
C106	C	0.973056	-0.715447	-0.266473
C107	C	1.306389	-0.382113	0.066860
C108	C	1.639723	-0.048780	0.400193
C109	C	0.931487	-0.678833	-0.224842
C110	C	1.264821	-0.345499	0.108491
C111	C	1.598154	-0.012166	0.441825
C112	C	0.934458	-0.605479	-0.227839
C113	C	1.267792	-0.272146	0.105494
C114	C	1.601125	0.061187	0.438828
C115	C	0.961928	-0.936930	-0.255270
C116	C	1.295262	-0.603597	0.078064
C117	C	1.628595	-0.270263	0.411397
C118	C	0.958962	-1.010288	-0.252274
C119	C	1.292295	-0.676955	0.081059
C120	C	1.625629	-0.343622	0.414393
C121	C	1.045065	-1.010153	-0.338534
C122	C	1.378398	-0.676819	-0.005201
C123	C	1.711732	-0.343486	0.328133
C124	C	1.048035	-0.936798	-0.341524
C125	C	1.381368	-0.603464	-0.008191
C126	C	1.714702	-0.270131	0.325142
C127	C	1.006464	-0.900190	-0.299895
C128	C	1.339797	-0.566857	0.033438
C129	C	1.673131	-0.233524	0.366771
C130	C	0.970016	-0.790427	-0.263411
C131	C	1.303350	-0.457094	0.069922
C132	C	1.636683	-0.123760	0.403255
C133	C	1.009500	-0.825212	-0.302962
C134	C	1.342834	-0.491878	0.030372
C135	C	1.676167	-0.158545	0.363705
C136	C	1.173560	-0.300021	-0.275700
C137	C	1.506894	0.033312	0.057633
C138	C	1.840227	0.366646	0.390966
C139	C	1.251909	-0.296546	-0.272526
C140	C	1.585243	0.036787	0.060807
C141	C	1.918576	0.370121	0.394140
C142	C	0.981570	-0.316284	-0.466337
C143	C	1.314903	0.017049	-0.133004
C144	C	1.648236	0.350383	0.200330
C145	C	0.978103	-0.319739	-0.544401
C146	C	1.311437	0.013594	-0.211068
C147	C	1.644770	0.346927	0.122266
C148	C	0.997292	-0.124969	-0.290690
C149	C	1.330626	0.208365	0.042643
C150	C	1.663959	0.541698	0.375976
C151	C	1.000526	-0.046897	-0.293904
C152	C	1.333859	0.286436	0.039429
C153	C	1.667193	0.619770	0.372763
C154	C	0.956149	-0.341676	-0.985912
C155	C	1.289482	-0.008342	-0.652579
C156	C	1.622815	0.324991	-0.319246
C157	C	0.959403	-0.338419	-0.912563
C158	C	1.292737	-0.005085	-0.579230
C159	C	1.626070	0.328248	-0.245897
C160	C	1.007974	-0.289875	-0.875915
C161	C	1.341307	0.043459	-0.542582
C162	C	1.674641	0.376792	-0.209249
C163	C	1.053288	-0.244580	-0.912620
C164	C	1.386621	0.088753	-0.579287
C165	C	1.719954	0.422086	-0.245953
C166	C	1.050029	-0.247834	-0.985968
C167	C	1.383362	0.085499	-0.652635
C168	C	1.716696	0.418832	-0.319301
C169	C	1.020158	-0.277699	-0.654454
C170	C	1.353492	0.055634	-0.321120
C171	C	1.686825	0.388968	0.012213
C172	C	1.023415	-0.274450	-0.581100
C173	C	1.356748	0.058884	-0.247767
C174	C	1.690082	0.392217	0.085566
C175	C	0.929529	-0.368288	-0.581049
C176	C	1.262863	-0.034954	-0.247716
C177	C	1.596196	0.298379	0.085618
C178	C	0.926278	-0.371540	-0.654398
C179	C	1.259611	-0.038207	-0.321065
C180	C	1.592945	0.295126	0.012269
C181	C	0.971589	-0.326243	-0.691097
C182	C	1.304922	0.007090	-0.357763
C183	C	1.638256	0.340423	-0.024430
C184	C	1.011303	-0.286546	-0.800941
C185	C	1.344637	0.046787	-0.467607
C186	C	1.677970	0.380121	-0.134274
C187	C	0.968256	-0.329569	-0.766070
C188	C	1.301589	0.003764	-0.432737
C189	C	1.634922	0.337097	-0.099403
C190	C	0.997849	-0.300045	-0.100673
C191	C	1.331183	0.033288	0.232660
C192	C	1.664516	0.366621	0.565994
C193	C	1.001460	-0.296386	-0.022612
C194	C	1.334794	0.036947	0.310721
C195	C	1.668127	0.370281	0.644055
H196	H	0.251800	-0.381465	-0.350249
H197	H	0.585134	-0.048132	-0.016916
H198	H	0.918467	0.285202	0.316418
O199	O	0.461925	-0.382161	-0.350829
O200	O	0.795258	-0.048828	-0.017496
O201	O	1.128592	0.284506	0.315838
H202	H	0.428099	-0.353880	-0.389289
H203	H	0.761433	-0.020546	-0.055956
H204	H	1.094766	0.312787	0.277377
O205	O	1.089890	-1.049635	-0.383444
O206	O	1.423223	-0.716302	-0.050111
O207	O	1.756557	-0.382968	0.283223
H208	H	1.080338	-1.106816	-0.373871
H209	H	1.413671	-0.773483	-0.040538
H210	H	1.747005	-0.440149	0.292795
O211	O	0.723142	-0.417293	-0.383014
O212	O	1.056476	-0.083960	-0.049681
O213	O	1.389809	0.249373	0.283653
H214	H	0.756601	-0.450096	-0.348692
H215	H	1.089934	-0.116763	-0.015358
H216	H	1.423267	0.216571	0.317975
H217	H	0.728324	-0.234859	-0.216044
H218	H	1.061658	0.098474	0.117289
H219	H	1.394991	0.431808	0.450623
H220	H	0.594775	-0.240824	-0.221484
H221	H	0.928108	0.092510	0.111850
H222	H	1.261441	0.425843	0.445183
H223	H	0.399260	-0.205071	-0.188786
H224	H	0.732593	0.128262	0.144548
H225	H	1.065926	0.461596	0.477881
H226	H	0.265699	-0.211015	-0.194243
H227	H	0.599032	0.122319	0.139090
H228	H	0.932365	0.455652	0.472423
O229	O	0.921994	-0.830068	-0.215273
O230	O	1.255327	-0.496735	0.118060
O231	O	1.588661	-0.163402	0.451393
H232	H	0.866693	-0.819034	-0.230084
H233	H	1.200026	-0.485701	0.103249
H234	H	1.533359	-0.152367	0.436583
H235	H	0.928081	-0.907130	-0.221372
H236	H	1.261414	-0.573797	0.111961
H237	H	1.594747	-0.240463	0.445294
H238	H	0.895223	-0.708756	-0.188508
H239	H	1.228556	-0.375423	0.144825
H240	H	1.561890	-0.042089	0.478158
H241	H	0.507493	-0.247052	-0.227205
H242	H	0.840827	0.086281	0.106128
H243	H	1.174160	0.419615	0.439461
H244	H	1.092832	-0.205052	-0.882775
H245	H	1.426165	0.128281	-0.549442
H246	H	1.759499	0.461615	-0.216109
O247	O	0.873892	-0.423903	-0.693921
O248	O	1.207225	-0.090569	-0.360587
O249	O	1.540558	0.242764	-0.027254
H250	H	0.879245	-0.418563	-0.751089
H251	H	1.212578	-0.085229	-0.417756
H252	H	1.545911	0.248104	-0.084422
O253	O	0.903755	-0.394031	-1.025435
O254	O	1.237088	-0.060697	-0.692102
O255	O	1.570422	0.272636	-0.358769
H256	H	0.932332	-0.429859	-1.056098
H257	H	1.265665	-0.096526	-0.722764
H258	H	1.598999	0.236807	-0.389431
O259	O	1.068606	-0.565716	-0.362221
O260	O	1.401939	-0.232382	-0.028888
O261	O	1.735273	0.100951	0.304446
H262	H	1.097005	-0.603499	-0.390668
H263	H	1.430339	-0.270166	-0.057335
H264	H	1.763672	0.063167	0.275999
O265	O	1.062421	-0.718190	-0.356000
O266	O	1.395754	-0.384857	-0.022667
O267	O	1.729087	-0.051524	0.310667
H268	H	1.093894	-0.680316	-0.387529
H269	H	1.427227	-0.346982	-0.054195
H270	H	1.760561	-0.013649	0.279138
H271	H	1.084299	-0.906882	-0.377863
H272	H	1.417632	-0.573549	-0.044530
H273	H	1.750966	-0.240215	0.288804
H274	H	0.922693	-1.040204	-0.215933
H275	H	1.256026	-0.706870	0.117400
H276	H	1.589360	-0.373537	0.450734
O277	O	0.889636	-0.565988	-0.182933
O278	O	1.222969	-0.232655	0.150400
O279	O	1.556302	0.100679	0.483734
H280	H	0.858174	-0.603860	-0.151391
H281	H	1.191508	-0.270527	0.181943
H282	H	1.524841	0.062807	0.515276
O283	O	1.057541	-0.785586	-0.351088
O284	O	1.390875	-0.452252	-0.017755
O285	O	1.724208	-0.118919	0.315578
H286	H	1.025737	-0.755157	-0.389439
H287	H	1.359070	-0.421824	-0.056105
H288	H	1.692403	-0.088490	0.277228
H289	H	0.922513	-0.375305	-0.882685
H290	H	1.255846	-0.041972	-0.549352
H291	H	1.589180	0.291361	-0.216019
H292	H	0.892639	-0.405165	-0.551161
H293	H	1.225972	-0.071832	-0.217828
H294	H	1.559306	0.261502	0.115506
H295	H	1.062967	-0.234916	-0.551264
H296	H	1.396300	0.098418	-0.217930
H297	H	1.729634	0.431751	0.115403
O298	O	1.069034	-0.228853	-0.694032
O299	O	1.402367	0.104481	-0.360698
O300	O	1.735700	0.437814	-0.027365
H301	H	1.103360	-0.194559	-0.656223
H302	H	1.436693	0.138775	-0.322889
H303	H	1.770027	0.472108	0.010444
H304	H	1.086924	-0.210952	-1.015848
H305	H	1.420258	0.122381	-0.682515
H306	H	1.753591	0.455714	-0.349181
O307	O	0.915866	-0.381921	-0.805596
O308	O	1.249200	-0.048588	-0.472263
O309	O	1.582533	0.284745	-0.138930
H310	H	0.926291	-0.435890	-0.788757
H311	H	1.259624	-0.102557	-0.455423
H312	H	1.592957	0.230777	-0.122090
O313	O	0.394074	-0.387494	-0.355755
O314	O	0.727408	-0.054160	-0.022421
O315	O	1.060741	0.279173	0.310912
H316	H	0.353446	-0.421842	-0.387208
H317	H	0.686780	-0.088509	-0.053874
H318	H	1.020113	0.244825	0.279459
O319	O	0.570118	-0.424265	-0.389092
O320	O	0.903452	-0.090931	-0.055758
O321	O	1.236785	0.242402	0.277575
H322	H	0.605418	-0.455296	-0.417373
H323	H	0.938751	-0.121962	-0.084040
H324	H	1.272085	0.211371	0.249293
O325	O	1.063698	-0.234199	-0.761408
O326	O	1.397032	0.099134	-0.428074
O327	O	1.730365	0.432467	-0.094741
H328	H	1.035118	-0.198382	-0.730736
H329	H	1.368452	0.134952	-0.397403
H330	H	1.701785	0.468285	-0.064069
