data_functionalizedCrystal
_audit_creation_method	'MofGen! by Chris Wilmer'
_symmetry_space_group_name_H-M	'P1'
_symmetry_Int_Tables_number	1
_symmetry_cell_setting	triclinic
loop_
_symmetry_equiv_pos_as_xyz
  x,y,z
_cell_length_a	9.065218
_cell_length_b	17.699083
_cell_length_c	8.140239
_cell_angle_alpha	89.995596
_cell_angle_beta	89.997198
_cell_angle_gamma	84.149450
loop_
_atom_site_label
_atom_site_type_symbol
_atom_site_fract_x
_atom_site_fract_y
_atom_site_fract_z
O1	O	1.957109	0.110973	-0.136622
O2	O	1.527555	0.120075	-0.136624
O3	O	1.754468	0.005429	-0.136608
O4	O	1.730196	0.225619	-0.136637
O5	O	1.754455	0.005428	0.136619
O6	O	1.527542	0.120074	0.136603
O7	O	1.957097	0.110971	0.136605
Zn8	Zn	1.742317	0.115522	0.179985
Zn9	Zn	1.742334	0.115524	-0.180004
O10	O	1.730183	0.225617	0.136590
C11	C	1.472588	0.119200	-0.000011
C12	C	1.308822	0.116584	-0.000011
C13	C	1.753592	-0.022775	0.000005
C14	C	1.750983	-0.106813	0.000006
C15	C	1.884176	-0.154396	0.000009
C16	C	1.881716	-0.233358	-0.000005
C17	C	1.746060	-0.264737	-0.000011
C18	C	1.612857	-0.217149	-0.000019
C19	C	1.615319	-0.138188	-0.000017
C20	C	1.602925	-0.535589	-0.000033
C21	C	1.600474	-0.614556	-0.000031
C22	C	1.869322	-0.630760	-0.000022
C23	C	1.871784	-0.551799	-0.000019
C24	C	1.738581	-0.504217	-0.000036
C25	C	1.741251	-0.418597	-0.000023
C26	C	1.743390	-0.350355	-0.000012
C27	C	2.012064	0.111847	-0.000012
C28	C	2.175829	0.114463	-0.000022
C29	C	1.731059	0.253822	-0.000028
C30	C	1.733669	0.337860	-0.000039
N31	N	1.742317	0.115521	0.425667
N32	N	1.742346	0.115520	-0.425686
H33	H	1.994642	-0.128854	0.000024
H34	H	1.977782	-0.669510	-0.000016
H35	H	1.490001	-0.640101	-0.000032
H36	H	1.982248	-0.526255	-0.000006
O37	O	1.481044	-0.247593	-0.000320
C38	C	1.399860	-0.223349	-0.141810
H39	H	1.479198	-0.206380	-0.240712
H40	H	1.317465	-0.172464	-0.109821
C41	C	1.217866	-0.309366	-0.084504
C42	C	1.315311	-0.288531	-0.205983
H43	H	1.165705	-0.349571	-0.124087
H44	H	1.272557	-0.325698	0.010824
H45	H	1.149217	-0.266956	-0.057858
H46	H	1.383969	-0.330938	-0.232612
H47	H	1.260629	-0.272208	-0.301317
O48	O	1.485975	-0.091932	-0.000306
C49	C	1.479384	-0.045756	-0.141794
H50	H	1.554932	-0.074149	-0.240695
H51	H	1.517365	0.011909	-0.109801
C52	C	1.226034	0.000016	-0.084495
C53	C	1.318815	-0.034860	-0.205971
H54	H	1.126988	0.006740	-0.124080
H55	H	1.230475	-0.031091	0.010832
H56	H	1.257703	0.048066	-0.057845
H57	H	1.287157	-0.082913	-0.232604
H58	H	1.314365	-0.003761	-0.301304
O59	O	1.473402	-0.489484	0.000046
C60	C	1.353148	-0.534115	0.000012
H61	H	1.390812	-0.592779	0.051733
H62	H	1.311550	-0.540016	-0.131066
C63	C	1.180842	-0.423600	0.043649
C64	C	1.227099	-0.495650	0.107187
H65	H	1.103086	-0.399872	0.109752
H66	H	1.261858	-0.393530	0.043665
H67	H	1.146188	-0.428528	-0.065582
H68	H	1.261770	-0.490721	0.216407
H69	H	1.146086	-0.525718	0.107191
H70	H	1.990175	-0.272097	0.000001
