data_functionalizedCrystal
_audit_creation_method	'MofGen! by Chris Wilmer'
_symmetry_space_group_name_H-M	'P1'
_symmetry_Int_Tables_number	1
_symmetry_cell_setting	triclinic
loop_
_symmetry_equiv_pos_as_xyz
  x,y,z
_cell_length_a	9.065218
_cell_length_b	7.540329
_cell_length_c	9.065215
_cell_angle_alpha	90.002257
_cell_angle_beta	94.984675
_cell_angle_gamma	89.996214
loop_
_atom_site_label
_atom_site_type_symbol
_atom_site_fract_x
_atom_site_fract_y
_atom_site_fract_z
O1	O	-1.960393	0.147569	0.216356
O2	O	-1.460393	0.647569	0.716356
O3	O	-1.531108	0.147553	0.234102
O4	O	-1.031108	0.647553	0.734102
O5	O	-1.754626	0.147554	0.010586
O6	O	-1.254626	0.647554	0.510586
O7	O	-1.736875	0.147568	0.439871
O8	O	-1.236875	0.647568	0.939871
O9	O	-1.754618	-0.147411	0.010584
O10	O	-1.254618	0.352589	0.510584
O11	O	-1.531100	-0.147412	0.234100
O12	O	-1.031100	0.352588	0.734100
O13	O	-1.960385	-0.147396	0.216354
O14	O	-1.460385	0.352604	0.716354
Cu15	Cu	-1.745742	-0.174337	0.225227
Cu16	Cu	-1.245742	0.325663	0.725227
Cu17	Cu	-1.745751	0.174494	0.225229
Cu18	Cu	-1.245751	0.674494	0.725229
O19	O	-1.736867	-0.147397	0.439870
O20	O	-1.236867	0.352603	0.939870
C21	C	-1.476118	0.000068	0.232395
C22	C	-0.976118	0.500068	0.732395
C23	C	-1.312275	0.000062	0.227296
C24	C	-0.812275	0.500062	0.727296
N25	N	-1.745746	-0.419685	0.225224
N26	N	-1.245746	0.080315	0.725224
C27	C	-1.015376	0.000082	0.218060
C28	C	-0.515376	0.500082	0.718060
C29	C	-1.179219	0.000067	0.223159
C30	C	-0.679219	0.500067	0.723159
C31	C	-1.752917	0.000073	-0.044402
C32	C	-1.252917	0.500073	0.455598
C33	C	-1.747819	0.000078	-0.208245
C34	C	-1.247819	0.500078	0.291755
N35	N	-1.745759	0.419842	0.225219
N36	N	-1.245759	0.919842	0.725219
C37	C	-1.738576	0.000088	0.494857
C38	C	-1.238576	0.500088	0.994857
C39	C	-1.743674	0.000094	0.658700
C40	C	-1.243674	0.500094	1.158700
