data_functionalizedCrystal
_audit_creation_method	'MofGen! by Chris Wilmer'
_symmetry_space_group_name_H-M	'P1'
_symmetry_Int_Tables_number	1
_symmetry_cell_setting	triclinic
loop_
_symmetry_equiv_pos_as_xyz
  x,y,z
_cell_length_a	14.971486
_cell_length_b	16.109301
_cell_length_c	13.448316
_cell_angle_alpha	89.991973
_cell_angle_beta	89.998199
_cell_angle_gamma	83.537805
loop_
_atom_site_label
_atom_site_type_symbol
_atom_site_fract_x
_atom_site_fract_y
_atom_site_fract_z
O1	O	1.186791	0.108348	-0.082581
O2	O	1.686791	0.608348	0.417419
O3	O	0.926372	0.121323	-0.082608
O4	O	1.426372	0.621323	0.417392
O5	O	1.063736	-0.006187	-0.082584
O6	O	1.563736	0.493813	0.417416
O7	O	1.049428	0.235857	-0.082605
O8	O	1.549428	0.735857	0.417395
O9	O	1.063718	-0.006195	0.082800
O10	O	1.563718	0.493805	0.582800
O11	O	0.926355	0.121315	0.082776
O12	O	1.426355	0.621315	0.582776
O13	O	1.186774	0.108340	0.082803
O14	O	1.686774	0.608340	0.582803
Cu15	Cu	1.056563	0.114827	0.097890
Cu16	Cu	1.556563	0.614827	0.597890
Cu17	Cu	1.056583	0.114836	-0.097695
Cu18	Cu	1.556583	0.614836	0.402305
O19	O	1.049410	0.235850	0.082778
O20	O	1.549410	0.735850	0.582778
C21	C	0.893040	0.120739	0.000080
C22	C	1.393040	0.620739	0.500080
C23	C	0.793745	0.119000	0.000070
C24	C	1.293745	0.619000	0.500070
C25	C	1.063147	-0.037166	0.000109
C26	C	1.563147	0.462834	0.500109
C27	C	1.061410	-0.129464	0.000110
C28	C	1.561410	0.370536	0.500110
C29	C	0.736412	0.193908	0.000065
C30	C	1.236412	0.693908	0.500065
C31	C	0.643115	0.192269	0.000080
C32	C	1.143115	0.692269	0.500080
C33	C	0.607153	0.115721	0.000093
C34	C	1.107153	0.615721	0.500093
C35	C	0.664494	0.040807	0.000101
C36	C	1.164494	0.540807	0.500101
C37	C	0.757789	0.042447	0.000093
C38	C	1.257789	0.542447	0.500093
C39	C	0.470036	0.037395	0.000115
C40	C	0.970036	0.537395	0.500115
C41	C	0.376734	0.035755	0.000121
C42	C	0.876734	0.535755	0.500121
C43	C	0.355362	0.187217	0.000102
C44	C	0.855362	0.687217	0.500102
C45	C	0.448657	0.188857	0.000094
C46	C	0.948657	0.688857	0.500094
C47	C	0.505991	0.113942	0.000100
C48	C	1.005991	0.613942	0.500100
C49	C	1.138878	-0.351640	0.000102
C50	C	1.638878	0.148360	0.500102
C51	C	1.137239	-0.438362	0.000094
C52	C	1.637239	0.061638	0.500094
C53	C	0.974262	-0.418691	0.000081
C54	C	1.474262	0.081309	0.500081
C55	C	0.975902	-0.331970	0.000082
C56	C	1.475902	0.168030	0.500082
C57	C	1.058213	-0.298447	0.000098
C58	C	1.558213	0.201553	0.500098
C59	C	1.054933	-0.471890	0.000088
C60	C	1.554933	0.028110	0.500088
C61	C	1.053155	-0.565918	0.000079
C62	C	1.553155	-0.065918	0.500079
C63	C	1.059992	-0.204413	0.000105
C64	C	1.559992	0.295587	0.500105
C65	C	1.220106	0.108924	0.000112
C66	C	1.720106	0.608924	0.500112
C67	C	1.319401	0.110663	0.000116
C68	C	1.819401	0.610663	0.500116
C69	C	1.049999	0.266829	0.000084
C70	C	1.549999	0.766829	0.500084
C71	C	1.051736	0.359127	0.000076
C72	C	1.551736	0.859127	0.500076
N73	N	1.056555	0.114820	0.235454
N74	N	1.556555	0.614820	0.735454
N75	N	1.056598	0.114837	-0.235260
N76	N	1.556598	0.614837	0.264740
C77	C	1.117398	0.058382	0.287506
C78	C	1.617398	0.558382	0.787506
C79	C	1.117404	0.058381	0.391609
C80	C	1.617404	0.558381	0.891609
C81	C	1.056570	0.114823	0.443659
C82	C	1.556570	0.614823	0.943659
C83	C	0.995720	0.171264	0.391601
C84	C	1.495720	0.671264	0.891601
C85	C	0.995711	0.171260	0.287499
C86	C	1.495711	0.671260	0.787499
C87	C	0.995745	0.171269	0.608581
C88	C	1.495745	0.671269	1.108581
C89	C	0.995755	0.171275	0.712689
C90	C	1.495755	0.671275	1.212689
C91	C	1.117438	0.058391	0.712690
C92	C	1.617438	0.558391	1.212690
C93	C	1.117429	0.058387	0.608589
C94	C	1.617429	0.558387	1.108589
C95	C	1.056580	0.114829	0.556538
C96	C	1.556580	0.614829	1.056538
H97	H	0.765684	0.256242	0.000053
H98	H	1.265684	0.756242	0.500053
C99	C	1.229416	-0.314766	0.000109
C100	C	1.729416	0.185234	0.500109
H101	H	1.277221	-0.358870	0.000101
H102	H	1.777221	0.141130	0.500101
H103	H	1.233444	-0.281352	0.057781
H104	H	1.733444	0.218648	0.557781
H105	H	1.233445	-0.281340	-0.057572
H106	H	1.733445	0.218660	0.442428
H107	H	0.946165	0.217216	0.245120
H108	H	1.446165	0.717216	0.745120
C109	C	1.225968	-0.496874	0.000095
C110	C	1.725968	0.003126	0.500095
H111	H	1.213206	-0.553324	0.000080
H112	H	1.713206	-0.053324	0.500080
H113	H	1.259717	-0.486714	0.057770
H114	H	1.759717	0.013286	0.557770
H115	H	1.259717	-0.486690	-0.057583
H116	H	1.759717	0.013310	0.442417
C117	C	0.580052	0.274669	0.000071
C118	C	1.080052	0.774669	0.500071
H119	H	0.614831	0.320492	0.000049
H120	H	1.114831	0.820492	0.500049
H121	H	0.543216	0.277179	0.057747
H122	H	1.043216	0.777179	0.557747
H123	H	0.543210	0.277177	-0.057606
H124	H	1.043210	0.777177	0.442394
H125	H	1.166947	0.012425	0.433989
H126	H	1.666947	0.512425	0.933989
C127	C	0.883727	-0.455570	0.000077
C128	C	1.383727	0.044430	0.500077
H129	H	0.894302	-0.514836	0.000088
H130	H	1.394302	-0.014836	0.500088
H131	H	0.850514	-0.437311	-0.057596
H132	H	1.350514	0.062689	0.442404
H133	H	0.850516	-0.437321	0.057757
H134	H	1.350516	0.062679	0.557757
C135	C	0.292299	0.269622	0.000097
C136	C	0.792299	0.769622	0.500097
H137	H	0.231585	0.257685	0.000115
H138	H	0.731585	0.757685	0.500115
H139	H	0.303194	0.301005	-0.057583
H140	H	0.803194	0.801005	0.442417
H141	H	0.303201	0.301006	0.057770
H142	H	0.803201	0.801006	0.557770
C143	C	0.337173	-0.048444	0.000150
C144	C	0.837173	0.451556	0.500150
H145	H	0.273398	-0.038688	0.000144
H146	H	0.773398	0.461312	0.500144
H147	H	0.356853	-0.079287	0.057830
H148	H	0.856853	0.420713	0.557830
H149	H	0.356850	-0.079296	-0.057523
H150	H	0.856850	0.420704	0.442477
H151	H	0.910211	-0.288658	0.000075
H152	H	1.410211	0.211342	0.500075
H153	H	1.166969	0.012432	0.566210
H154	H	1.666969	0.512432	1.066210
C155	C	0.533102	-0.045009	0.000111
C156	C	1.033102	0.454991	0.500111
H157	H	0.498324	-0.090834	0.000106
H158	H	0.998324	0.409166	0.500106
H159	H	0.569949	-0.047528	0.057776
H160	H	1.069949	0.452472	0.557776
H161	H	0.569931	-0.047507	-0.057577
H162	H	1.069931	0.452493	0.442423
C163	C	1.184364	-0.003701	0.769942
C164	C	1.684364	0.496299	1.269942
H165	H	1.175650	0.004376	0.839396
H166	H	1.675650	0.504376	1.339396
H167	H	1.244052	0.005419	0.752875
H168	H	1.744052	0.505419	1.252875
H169	H	1.174662	-0.059207	0.752890
H170	H	1.674662	0.440793	1.252890
C171	C	0.928782	0.233306	0.769943
C172	C	1.428782	0.733306	1.269943
H173	H	0.892517	0.266897	0.724035
H174	H	1.392517	0.766897	1.224035
H175	H	0.960891	0.267989	0.810572
H176	H	1.460891	0.767989	1.310572
H177	H	0.891591	0.203280	0.810533
H178	H	1.391591	0.703280	1.310533
H179	H	1.166940	0.012424	0.245133
H180	H	1.666940	0.512424	0.745133
H181	H	0.477934	0.251189	0.000074
H182	H	0.977934	0.751189	0.500074
H183	H	0.946192	0.217228	0.566204
H184	H	1.446192	0.717228	1.066204
H185	H	0.635206	-0.021520	0.000126
H186	H	1.135206	0.478480	0.500126
C187	C	0.820855	-0.039952	0.000089
C188	C	1.320855	0.460048	0.500089
H189	H	0.786078	-0.085777	0.000088
H190	H	1.286078	0.414223	0.500088
H191	H	0.857699	-0.042466	0.057758
H192	H	1.357699	0.457534	0.557758
H193	H	0.857688	-0.042455	-0.057595
H194	H	1.357688	0.457545	0.442405
C195	C	0.928775	0.233325	0.448848
C196	C	1.428775	0.733325	0.948848
H197	H	0.892524	0.266925	0.402936
H198	H	1.392524	0.766925	0.902936
H199	H	0.960913	0.267997	0.489461
H200	H	1.460913	0.767997	0.989461
H201	H	0.891566	0.203331	0.489454
H202	H	1.391566	0.703331	0.989454
