data_functionalizedCrystal
_audit_creation_method	'MofGen! by Chris Wilmer'
_symmetry_space_group_name_H-M	'P1'
_symmetry_Int_Tables_number	1
_symmetry_cell_setting	triclinic
loop_
_symmetry_equiv_pos_as_xyz
  x,y,z
_cell_length_a	14.044220
_cell_length_b	23.532407
_cell_length_c	12.503572
_cell_angle_alpha	93.496478
_cell_angle_beta	86.164750
_cell_angle_gamma	88.018778
loop_
_atom_site_label
_atom_site_type_symbol
_atom_site_fract_x
_atom_site_fract_y
_atom_site_fract_z
O1	O	1.261903	0.134222	-0.089227
O2	O	0.985982	0.129269	-0.089253
O3	O	1.132262	0.049265	-0.089219
O4	O	1.115623	0.214225	-0.089260
O5	O	1.121261	0.055293	0.089420
O6	O	0.974981	0.135296	0.089386
O7	O	1.250902	0.140249	0.089413
Cu8	Cu	1.111937	0.138323	0.105711
Cu9	Cu	1.124947	0.131195	-0.105551
O10	O	1.104622	0.220253	0.089379
C11	C	0.945188	0.130115	0.000063
C12	C	0.840023	0.123648	0.000054
C13	C	0.647472	0.111828	0.000078
C14	C	0.589407	0.157687	0.000072
C15	C	0.482265	0.151110	0.000085
C16	C	0.754624	0.118404	0.000065
C17	C	1.126337	0.031040	0.000103
C18	C	1.125063	-0.032246	0.000111
C19	C	1.203641	-0.427092	0.000060
C20	C	1.202458	-0.486556	0.000051
O21	O	1.275300	-0.519354	0.000019
N22	N	1.115494	-0.513896	0.000044
C23	C	1.029708	-0.481769	0.000034
O24	O	0.955630	-0.510484	0.000026
C25	C	1.030893	-0.422305	0.000034
C26	C	1.117862	-0.394968	0.000053
C27	C	1.290603	-0.399754	0.000077
C28	C	1.291786	-0.340294	0.000087
C29	C	1.206006	-0.308170	0.000080
C30	C	1.119044	-0.335508	0.000063
C31	C	0.945109	-0.390179	0.000016
C32	C	0.946301	-0.330712	0.000016
C33	C	1.033270	-0.303375	0.000035
C34	C	1.034447	-0.243924	0.000066
N35	N	1.121411	-0.216584	0.000074
C36	C	1.207191	-0.248707	0.000081
C37	C	1.027228	-0.606646	0.000031
C38	C	1.026042	-0.666108	0.000038
C39	C	1.198792	-0.670891	0.000053
C40	C	1.199976	-0.611428	0.000054
C41	C	1.114192	-0.579306	0.000038
C42	C	1.209668	-0.123835	0.000103
C43	C	1.210842	-0.064369	0.000118
C44	C	1.038093	-0.059591	0.000097
C45	C	1.036917	-0.119052	0.000088
C46	C	1.122713	-0.151173	0.000087
O47	O	0.961644	-0.211090	0.000095
O48	O	1.281258	-0.219985	0.000075
C49	C	1.291696	0.139403	0.000094
C50	C	1.396861	0.145869	0.000096
C51	C	1.110547	0.238478	0.000054
C52	C	1.111822	0.301763	0.000039
N53	N	1.102793	0.143337	0.254301
N54	N	1.134098	0.126177	-0.254141
C55	C	1.089342	0.150717	0.473413
C56	C	1.147546	0.118799	0.526753
C57	C	1.140062	0.122905	0.648675
C58	C	1.096825	0.146611	0.351480
H59	H	1.279531	-0.149982	0.000099
N60	N	1.019785	0.188873	0.530967
N61	N	0.965059	0.218889	0.480893
H62	H	0.915934	0.245837	0.521550
H63	H	0.616718	0.067631	0.000095
H64	H	1.362605	-0.318041	0.000098
N65	N	0.627978	0.213139	0.000066
N66	N	0.675902	0.230467	0.075357
H67	H	0.703146	0.269629	0.075353
H68	H	1.202998	0.088389	0.480853
N69	N	1.299691	-0.036455	0.000145
N70	N	1.376271	-0.065148	0.000151
H71	H	1.439020	-0.045435	0.000170
N72	N	1.378242	-0.432553	0.000077
N73	N	1.455873	-0.408126	0.000088
H74	H	1.517774	-0.431286	0.000094
H75	H	1.268638	-0.697057	0.000055
N76	N	1.288811	-0.583505	0.000088
N77	N	1.341868	-0.589215	0.075401
H78	H	1.404611	-0.569497	0.075426
N79	N	0.937203	-0.694027	0.000054
N80	N	0.874870	-0.683247	0.075355
H81	H	0.812124	-0.702964	0.075364
N82	N	0.939585	-0.573845	0.000018
N83	N	0.861951	-0.598268	0.000010
H84	H	0.800053	-0.575105	-0.000002
N85	N	0.856262	-0.418085	-0.000005
N86	N	0.779689	-0.389385	-0.000023
H87	H	0.716936	-0.409092	-0.000042
H88	H	0.876442	-0.304561	0.000002
N89	N	0.948083	-0.146981	0.000109
N90	N	0.885752	-0.136209	0.075414
H91	H	0.823013	-0.155932	0.075427
N92	N	0.950483	-0.026763	0.000099
N93	N	0.951563	0.026329	0.000104
H94	H	0.889689	0.049516	0.000100
