data_functionalizedCrystal
_audit_creation_method	'MofGen! by Chris Wilmer'
_symmetry_space_group_name_H-M	'P1'
_symmetry_Int_Tables_number	1
_symmetry_cell_setting	triclinic
loop_
_symmetry_equiv_pos_as_xyz
  x,y,z
_cell_length_a	23.532407
_cell_length_b	23.532407
_cell_length_c	12.996460
_cell_angle_alpha	89.985369
_cell_angle_beta	89.999749
_cell_angle_gamma	82.848713
loop_
_atom_site_label
_atom_site_type_symbol
_atom_site_fract_x
_atom_site_fract_y
_atom_site_fract_z
O1	O	0.755260	0.069136	-0.085457
O2	O	1.088594	0.402469	0.247876
O3	O	1.421927	0.735803	0.581210
O4	O	0.589397	0.079139	-0.085490
O5	O	0.922730	0.412472	0.247843
O6	O	1.256064	0.745806	0.581177
O7	O	0.677330	-0.008794	-0.085444
O8	O	1.010664	0.324539	0.247890
O9	O	1.343997	0.657872	0.581223
O10	O	0.667327	0.157069	-0.085503
O11	O	1.000660	0.490402	0.247830
O12	O	1.333994	0.823736	0.581163
O13	O	0.677321	-0.008799	0.085690
O14	O	1.010654	0.324534	0.419023
O15	O	1.343988	0.657868	0.752357
O16	O	0.589388	0.079134	0.085644
O17	O	0.922721	0.412468	0.418977
O18	O	1.256055	0.745801	0.752310
O19	O	0.755251	0.069131	0.085677
O20	O	1.088585	0.402464	0.419010
O21	O	1.421918	0.735798	0.752343
Cu22	Cu	0.672319	0.074132	0.101286
Cu23	Cu	1.005652	0.407466	0.434619
Cu24	Cu	1.338985	0.740799	0.767953
Cu25	Cu	0.672329	0.074138	-0.101099
Cu26	Cu	1.005663	0.407471	0.232234
Cu27	Cu	1.338996	0.740805	0.565567
O28	O	0.667318	0.157064	0.085630
O29	O	1.000651	0.490398	0.418964
O30	O	1.333985	0.823731	0.752297
C31	C	0.568176	0.078882	0.000073
C32	C	0.901510	0.412215	0.333406
C33	C	1.234843	0.745549	0.666740
C34	C	0.504959	0.078116	0.000062
C35	C	0.838293	0.411449	0.333395
C36	C	1.171626	0.744783	0.666729
C37	C	0.105856	0.125350	0.000092
C38	C	0.439190	0.458683	0.333425
C39	C	0.772523	0.792016	0.666758
C40	C	0.046456	0.124638	0.000098
C41	C	0.379789	0.457971	0.333431
C42	C	0.713123	0.791305	0.666765
O43	O	0.009711	0.168424	0.000120
O44	O	0.343045	0.501757	0.333453
O45	O	0.676378	0.835091	0.666786
N46	N	0.023830	0.072362	0.000115
N47	N	0.357163	0.405695	0.333449
N48	N	0.690497	0.739028	0.666782
C49	C	0.060607	0.020794	0.000136
C50	C	0.393941	0.354127	0.333470
C51	C	0.727274	0.687460	0.666803
O52	O	0.035908	-0.023737	0.000152
O53	O	0.369241	0.309596	0.333486
O54	O	0.702574	0.642930	0.666819
C55	C	0.120006	0.021506	0.000137
C56	C	0.453340	0.354839	0.333470
C57	C	0.786673	0.688172	0.666804
C58	C	0.142629	0.073785	0.000109
C59	C	0.475962	0.407119	0.333443
C60	C	0.809296	0.740452	0.666776
C61	C	0.128480	0.177625	0.000065
C62	C	0.461813	0.510958	0.333398
C63	C	0.795146	0.844292	0.666732
C64	C	0.187876	0.178336	0.000057
C65	C	0.521209	0.511670	0.333390
C66	C	0.854542	0.845003	0.666723
C67	C	0.224649	0.126772	0.000075
C68	C	0.557982	0.460105	0.333408
C69	C	0.891315	0.793439	0.666741
C70	C	0.202025	0.074496	0.000101
C71	C	0.535359	0.407830	0.333434
C72	C	0.868692	0.741163	0.666768
C73	C	0.156783	-0.030062	0.000165
C74	C	0.490116	0.303271	0.333499
C75	C	0.823450	0.636605	0.666832
C76	C	0.216185	-0.029345	0.000167
C77	C	0.549519	0.303988	0.333500
C78	C	0.882852	0.637321	0.666834
C79	C	0.238808	0.022934	0.000139
C80	C	0.572141	0.356268	0.333473
C81	C	0.905475	0.689601	0.666806
C82	C	0.298194	0.023643	0.000110
C83	C	0.631528	0.356977	0.333444
C84	C	0.964861	0.690310	0.666777
N85	N	0.320821	0.075920	0.000093
N86	N	0.654154	0.409253	0.333427
N87	N	0.987487	0.742586	0.666760
C88	C	0.284048	0.127484	0.000075
C89	C	0.617381	0.460817	0.333409
C90	C	0.950714	0.794151	0.666742
C91	C	-0.064135	0.019302	0.000136
C92	C	0.269198	0.352635	0.333470
C93	C	0.602532	0.685969	0.666803
C94	C	-0.123533	0.018589	0.000128
C95	C	0.209800	0.351923	0.333461
C96	C	0.543134	0.685256	0.666795
C97	C	-0.137680	0.122434	0.000092
C98	C	0.195653	0.455768	0.333425
C99	C	0.528986	0.789101	0.666759
C100	C	-0.078281	0.123146	0.000093
C101	C	0.255052	0.456480	0.333426
C102	C	0.588385	0.789813	0.666759
C103	C	-0.041509	0.071578	0.000119
C104	C	0.291824	0.404912	0.333453
C105	C	0.625158	0.738245	0.666786
C106	C	0.408784	0.128974	0.000057
C107	C	0.742118	0.462307	0.333390
C108	C	1.075451	0.795640	0.666723
C109	C	0.468186	0.129680	0.000044
C110	C	0.801520	0.463014	0.333377
C111	C	1.134853	0.796347	0.666711
C112	C	0.482329	0.025836	0.000086
C113	C	0.815662	0.359169	0.333419
C114	C	1.148995	0.692503	0.666752
C115	C	0.422932	0.025129	0.000093
C116	C	0.756265	0.358462	0.333426
C117	C	1.089598	0.691796	0.666760
C118	C	0.386160	0.076702	0.000082
C119	C	0.719494	0.410036	0.333415
C120	C	1.052827	0.743369	0.666749
O121	O	0.334974	-0.020119	0.000093
O122	O	0.668307	0.313214	0.333426
O123	O	1.001640	0.646547	0.666760
O124	O	0.308756	0.172007	0.000073
O125	O	0.642089	0.505340	0.333406
O126	O	0.975422	0.838674	0.666740
C127	C	0.677071	-0.030013	0.000128
C128	C	1.010404	0.303321	0.333462
C129	C	1.343738	0.636654	0.666795
C130	C	0.676305	-0.093230	0.000144
C131	C	1.009638	0.240104	0.333477
C132	C	1.342972	0.573437	0.666810
C133	C	0.621110	-0.359397	0.000069
C134	C	0.954443	-0.026064	0.333402
C135	C	1.287776	0.307270	0.666735
C136	C	0.621821	-0.299997	0.000077
C137	C	0.955154	0.033336	0.333410
C138	C	1.288488	0.366670	0.666743
O139	O	0.578035	-0.263252	0.000035
O140	O	0.911368	0.070081	0.333369
O141	O	1.244702	0.403414	0.666702
N142	N	0.674097	-0.277371	0.000099
N143	N	1.007431	0.055963	0.333432
N144	N	1.340764	0.389296	0.666766
C145	C	0.725666	-0.314148	0.000103
C146	C	1.058999	0.019185	0.333436
C147	C	1.392332	0.352518	0.666769
O148	O	0.770196	-0.289449	0.000121
O149	O	1.103529	0.043885	0.333455
O150	O	1.436863	0.377218	0.666788
C151	C	0.724954	-0.373547	0.000087
C152	C	1.058287	-0.040214	0.333420
C153	C	1.391620	0.293119	0.666754
C154	C	0.672674	-0.396170	0.000075
C155	C	1.006007	-0.062837	0.333409
C156	C	1.339341	0.270497	0.666742
C157	C	0.568834	-0.382020	0.000056
C158	C	0.902167	-0.048687	0.333389
C159	C	1.235501	0.284646	0.666722
C160	C	0.568123	-0.441417	0.000050
C161	C	0.901456	-0.108083	0.333383
C162	C	1.234790	0.225250	0.666716
C163	C	0.619687	-0.478189	0.000056
C164	C	0.953021	-0.144856	0.333390
C165	C	1.286354	0.188477	0.666723
C166	C	0.671963	-0.455566	0.000069
C167	C	1.005296	-0.122233	0.333403
C168	C	1.338629	0.211101	0.666736
C169	C	0.776521	-0.410324	0.000083
C170	C	1.109854	-0.076990	0.333417
C171	C	1.443188	0.256343	0.666750
C172	C	0.775805	-0.469726	0.000067
C173	C	1.109138	-0.136393	0.333401
C174	C	1.442471	0.196940	0.666734
C175	C	0.723525	-0.492349	0.000056
C176	C	1.056858	-0.159016	0.333389
C177	C	1.390192	0.174318	0.666722
C178	C	0.722816	-0.551735	0.000070
C179	C	1.056149	-0.218402	0.333403
C180	C	1.389482	0.114931	0.666737
N181	N	0.670539	-0.574361	0.000048
N182	N	1.003873	-0.241028	0.333381
N183	N	1.337206	0.092305	0.666714
C184	C	0.618975	-0.537589	0.000041
C185	C	0.952309	-0.204255	0.333374
C186	C	1.285642	0.129078	0.666708
C187	C	0.727157	-0.189406	0.000133
C188	C	1.060490	0.143928	0.333466
C189	C	1.393824	0.477261	0.666800
C190	C	0.727870	-0.130008	0.000156
C191	C	1.061203	0.203326	0.333489
C192	C	1.394536	0.536659	0.666823
C193	C	0.624025	-0.115861	0.000128
C194	C	0.957358	0.217473	0.333461
C195	C	1.290691	0.550806	0.666795
C196	C	0.623313	-0.175260	0.000113
C197	C	0.956646	0.158074	0.333446
C198	C	1.289979	0.491407	0.666779
C199	C	0.674881	-0.212032	0.000111
C200	C	1.008214	0.121301	0.333444
C201	C	1.341547	0.454635	0.666778
C202	C	0.617486	-0.662325	0.000029
C203	C	0.950819	-0.328992	0.333362
C204	C	1.284152	0.004341	0.666696
C205	C	0.616779	-0.721727	0.000027
C206	C	0.950112	-0.388394	0.333360
C207	C	1.283446	-0.055061	0.666694
C208	C	0.720623	-0.735869	0.000049
C209	C	1.053957	-0.402536	0.333383
C210	C	1.387290	-0.069203	0.666716
C211	C	0.721330	-0.676473	0.000057
C212	C	1.054664	-0.343139	0.333390
C213	C	1.387997	-0.009806	0.666723
C214	C	0.669757	-0.639701	0.000043
C215	C	1.003090	-0.306368	0.333376
C216	C	1.336423	0.026965	0.666710
O217	O	0.766579	-0.588514	0.000107
O218	O	1.099912	-0.255181	0.333440
O219	O	1.433245	0.078152	0.666774
O220	O	0.574452	-0.562296	0.000009
O221	O	0.907785	-0.228963	0.333342
O222	O	1.241119	0.104370	0.666675
C223	C	0.776472	0.069388	0.000111
C224	C	1.109805	0.402722	0.333445
C225	C	1.443138	0.736055	0.666778
C226	C	0.839689	0.070154	0.000116
C227	C	1.173022	0.403487	0.333449
C228	C	1.506356	0.736821	0.666782
C229	C	0.667577	0.178283	0.000056
C230	C	1.000911	0.511616	0.333389
C231	C	1.334244	0.844949	0.666723
C232	C	0.668343	0.241500	0.000034
C233	C	1.001676	0.574833	0.333367
C234	C	1.335010	0.908166	0.666701
N235	N	0.672315	0.074128	0.243633
N236	N	1.005649	0.407461	0.576967
N237	N	1.338982	0.740795	0.910300
N238	N	0.672337	0.074138	-0.243447
N239	N	1.005671	0.407471	0.089887
N240	N	1.339004	0.740804	0.423220
C241	C	0.672329	0.074138	0.663447
C242	C	1.005662	0.407472	0.996781
C243	C	1.338995	0.740805	1.330114
C244	C	0.672323	0.074137	0.546642
C245	C	1.005657	0.407471	0.879976
C246	C	1.338990	0.740804	1.213309
C247	C	0.672322	0.074134	0.453544
C248	C	1.005656	0.407467	0.786877
C249	C	1.338989	0.740800	1.120211
C250	C	0.672316	0.074132	0.336731
C251	C	1.005650	0.407465	0.670065
C252	C	1.338983	0.740798	1.003398
H253	H	0.138374	-0.072634	0.000189
H254	H	0.471708	0.260700	0.333522
H255	H	0.805041	0.594033	0.666855
C256	C	0.510615	-0.466294	0.000022
C257	C	0.843948	-0.132961	0.333355
C258	C	1.177282	0.200373	0.666689
H259	H	0.480012	-0.435880	0.000008
H260	H	0.813345	-0.102547	0.333342
H261	H	1.146678	0.230787	0.666675
H262	H	0.508167	-0.489184	0.059692
H263	H	0.841501	-0.155850	0.393025
H264	H	1.174834	0.177483	0.726358
H265	H	0.508182	-0.489157	-0.059672
H266	H	0.841515	-0.155823	0.273661
H267	H	1.174849	0.177510	0.606995
H268	H	0.526842	-0.352085	0.000047
H269	H	0.860175	-0.018752	0.333380
H270	H	1.193509	0.314582	0.666713
H271	H	0.206289	0.220908	0.000034
H272	H	0.539622	0.554241	0.333367
H273	H	0.872956	0.887574	0.666701
C274	C	0.256632	-0.086072	0.000185
C275	C	0.589965	0.247262	0.333518
C276	C	0.923299	0.580595	0.666851
H277	H	0.234647	-0.117306	0.000191
H278	H	0.567981	0.216028	0.333525
H279	H	0.901314	0.549361	0.666858
H280	H	0.280102	-0.087958	0.059858
H281	H	0.613436	0.245376	0.393191
H282	H	0.946769	0.578709	0.726524
H283	H	0.280092	-0.087951	-0.059506
H284	H	0.613426	0.245382	0.273827
H285	H	0.946759	0.578716	0.607160
H286	H	0.098544	0.219617	0.000054
H287	H	0.431878	0.552951	0.333388
H288	H	0.765211	0.886284	0.666721
C289	C	-0.178138	0.179155	0.000081
C290	C	0.155195	0.512488	0.333415
C291	C	0.488529	0.845821	0.666748
H292	H	-0.216753	0.171239	0.000096
H293	H	0.116581	0.504572	0.333429
H294	H	0.449914	0.837905	0.666762
H295	H	-0.171316	0.200611	-0.059603
H296	H	0.162017	0.533944	0.273731
H297	H	0.495351	0.867277	0.607064
H298	H	-0.171311	0.200601	0.059761
H299	H	0.162022	0.533934	0.393095
H300	H	0.495355	0.867268	0.726428
H301	H	0.762606	-0.765820	0.000060
H302	H	1.095939	-0.432487	0.333393
H303	H	1.429272	-0.099154	0.666727
H304	H	-0.141947	-0.023982	0.000134
H305	H	0.191387	0.309352	0.333468
H306	H	0.524720	0.642685	0.666801
C307	C	0.565806	-0.200139	0.000085
C308	C	0.899139	0.133194	0.333418
C309	C	1.232473	0.466527	0.666751
H310	H	0.535201	-0.169727	0.000076
H311	H	0.868534	0.163607	0.333409
H312	H	1.201868	0.496940	0.666743
H313	H	0.563361	-0.223032	0.059752
H314	H	0.896694	0.110302	0.393085
H315	H	1.230027	0.443635	0.726418
H316	H	0.563373	-0.223000	-0.059612
H317	H	0.896707	0.110333	0.273721
H318	H	1.230040	0.443667	0.607055
C319	C	-0.023690	-0.037426	0.000143
C320	C	0.309643	0.295907	0.333476
C321	C	0.642977	0.629240	0.666810
H322	H	-0.045677	-0.068658	0.000142
H323	H	0.287656	0.264675	0.333476
H324	H	0.620990	0.598008	0.666809
H325	H	-0.000221	-0.039317	0.059818
H326	H	0.333112	0.294017	0.393151
H327	H	0.666446	0.627350	0.726485
H328	H	-0.000228	-0.039304	-0.059546
H329	H	0.333105	0.294029	0.273788
H330	H	0.666439	0.627362	0.607121
C331	C	-0.053401	0.180653	0.000072
C332	C	0.279932	0.513986	0.333405
C333	C	0.613265	0.847320	0.666738
H334	H	-0.083814	0.211258	0.000066
H335	H	0.249519	0.544591	0.333399
H336	H	0.582853	0.877925	0.666732
H337	H	-0.030522	0.183094	-0.059604
H338	H	0.302811	0.516428	0.273729
H339	H	0.636144	0.849761	0.607062
H340	H	-0.030527	0.183090	0.059759
H341	H	0.302806	0.516423	0.393093
H342	H	0.636139	0.849757	0.726426
C343	C	0.567304	-0.075403	0.000103
C344	C	0.900638	0.257931	0.333437
C345	C	1.233971	0.591264	0.666770
H346	H	0.575220	-0.036788	0.000101
H347	H	0.908554	0.296545	0.333434
H348	H	1.241887	0.629878	0.666768
H349	H	0.545844	-0.082235	0.059769
H350	H	0.879177	0.251098	0.393103
H351	H	1.212510	0.584432	0.726436
H352	H	0.545863	-0.082219	-0.059594
H353	H	0.879196	0.251114	0.273739
H354	H	1.212530	0.584447	0.607072
H355	H	0.512280	-0.016146	0.000096
H356	H	0.845613	0.317187	0.333430
H357	H	1.178946	0.650520	0.666763
H358	H	0.770441	-0.111594	0.000182
H359	H	1.103774	0.221739	0.333515
H360	H	1.437108	0.555073	0.666848
H361	H	0.769152	-0.219343	0.000139
H362	H	1.102486	0.113990	0.333472
H363	H	1.435819	0.447323	0.666806
H364	H	0.575489	-0.632392	0.000017
H365	H	0.908823	-0.299059	0.333351
H366	H	1.242156	0.034274	0.666684
C367	C	0.834028	-0.385449	0.000096
C368	C	1.167361	-0.052116	0.333429
C369	C	1.500695	0.281218	0.666763
H370	H	0.827076	-0.344806	0.000111
H371	H	1.160410	-0.011472	0.333444
H372	H	1.493743	0.321861	0.666778
H373	H	0.855245	-0.398083	-0.059580
H374	H	1.188579	-0.064750	0.273753
H375	H	1.521912	0.268583	0.607087
H376	H	0.855240	-0.398106	0.059784
H377	H	1.188573	-0.064773	0.393117
H378	H	1.521907	0.268560	0.726450
C379	C	0.832529	-0.510175	0.000066
C380	C	1.165863	-0.176842	0.333399
C381	C	1.499196	0.156492	0.666732
H382	H	0.824622	-0.548792	0.000050
H383	H	1.157956	-0.215459	0.333384
H384	H	1.491289	0.117874	0.666717
H385	H	0.853979	-0.503357	0.059746
H386	H	1.187312	-0.170024	0.393080
H387	H	1.520646	0.163309	0.726413
H388	H	0.853978	-0.503334	-0.059617
H389	H	1.187311	-0.170001	0.273716
H390	H	1.520645	0.163332	0.607049
C391	C	0.778836	-0.651586	0.000082
C392	C	1.112169	-0.318253	0.333415
C393	C	1.445503	0.015081	0.666749
H394	H	0.809443	-0.681996	0.000083
H395	H	1.142777	-0.348663	0.333416
H396	H	1.476110	-0.015330	0.666750
H397	H	0.781269	-0.628716	0.059759
H398	H	1.114603	-0.295382	0.393093
H399	H	1.447936	0.037951	0.726426
H400	H	0.781276	-0.628702	-0.059604
H401	H	1.114610	-0.295369	0.273729
H402	H	1.447943	0.037964	0.607062
C403	C	0.559271	-0.746612	0.000010
C404	C	0.892604	-0.413278	0.333343
C405	C	1.225937	-0.079945	0.666676
H406	H	0.566228	-0.787255	0.000015
H407	H	0.899562	-0.453921	0.333349
H408	H	1.232895	-0.120588	0.666682
H409	H	0.538058	-0.733959	-0.059672
H410	H	0.871391	-0.400625	0.273661
H411	H	1.204724	-0.067292	0.606994
H412	H	0.538052	-0.733979	0.059691
H413	H	0.871385	-0.400645	0.393025
H414	H	1.204718	-0.067312	0.726358
C415	C	0.493068	0.187190	0.000020
C416	C	0.826401	0.520523	0.333353
C417	C	1.159735	0.853857	0.666686
H418	H	0.462657	0.217797	0.000021
H419	H	0.795990	0.551130	0.333355
H420	H	1.129323	0.884463	0.666688
H421	H	0.515943	0.189631	-0.059661
H422	H	0.849277	0.522964	0.273672
H423	H	1.182610	0.856298	0.607006
H424	H	0.515946	0.189624	0.059703
H425	H	0.849279	0.522958	0.393036
H426	H	1.182613	0.856291	0.726369
H427	H	0.404512	-0.017441	0.000100
H428	H	0.737845	0.315892	0.333434
H429	H	1.071178	0.649225	0.666767
H430	H	0.378852	0.170970	0.000051
H431	H	0.712185	0.504303	0.333384
H432	H	1.045518	0.837637	0.666718
