data_functionalizedCrystal
_audit_creation_method	'MofGen! by Chris Wilmer'
_symmetry_space_group_name_H-M	'P1'
_symmetry_Int_Tables_number	1
_symmetry_cell_setting	triclinic
loop_
_symmetry_equiv_pos_as_xyz
  x,y,z
_cell_length_a	10.540539
_cell_length_b	23.532407
_cell_length_c	9.616153
_cell_angle_alpha	89.993077
_cell_angle_beta	89.995174
_cell_angle_gamma	83.687085
loop_
_atom_site_label
_atom_site_type_symbol
_atom_site_fract_x
_atom_site_fract_y
_atom_site_fract_z
O1	O	1.683259	0.080251	-0.115596
O2	O	1.313597	0.087813	-0.115615
O3	O	1.509575	0.001174	-0.115579
O4	O	1.487281	0.166890	-0.115631
O5	O	1.509548	0.001176	0.115712
O6	O	1.313571	0.087814	0.115677
O7	O	1.683232	0.080253	0.115695
Zn8	Zn	1.498397	0.084034	0.152408
Zn9	Zn	1.498432	0.084032	-0.152328
O10	O	1.487254	0.166892	0.115660
C11	C	1.266300	0.087246	0.000029
C12	C	1.125407	0.085550	0.000023
C13	C	0.944114	0.020541	0.000583
C14	C	1.090676	0.022261	0.000047
C15	C	1.062750	0.116006	-0.132060
C16	C	0.916277	0.113846	-0.132156
C17	C	0.915716	0.115136	0.130865
C18	C	1.062678	0.115719	0.132597
C19	C	1.508994	-0.020045	0.000070
C20	C	1.507287	-0.083273	0.000080
C21	C	1.612557	-0.481681	0.000010
C22	C	1.610971	-0.541092	-0.000001
O23	O	1.708557	-0.577192	-0.000048
N24	N	1.494462	-0.564488	-0.000006
C25	C	1.379532	-0.528469	-0.000014
O26	O	1.280287	-0.553824	-0.000021
C27	C	1.381119	-0.469060	-0.000014
C28	C	1.497635	-0.445667	0.000005
C29	C	1.729064	-0.458288	0.000027
C30	C	1.730649	-0.398882	0.000040
C31	C	1.615727	-0.362868	0.000036
C32	C	1.499220	-0.386261	0.000019
C33	C	1.266190	-0.433042	-0.000032
C34	C	1.267787	-0.373629	-0.000032
C35	C	1.384303	-0.350237	-0.000013
C36	C	1.385883	-0.290840	0.000028
N37	N	1.502392	-0.267444	0.000032
C38	C	1.617314	-0.303458	0.000037
C39	C	1.376208	-0.653234	-0.000018
C40	C	1.374620	-0.712642	-0.000009
C41	C	1.606059	-0.725261	0.000002
C42	C	1.607646	-0.665851	0.000002
C43	C	1.492717	-0.629838	-0.000013
C44	C	1.620634	-0.178700	0.000066
C45	C	1.622209	-0.119287	0.000085
C46	C	1.390770	-0.106674	0.000067
C47	C	1.389194	-0.166081	0.000055
C48	C	1.504137	-0.202093	0.000050
O49	O	1.288349	-0.254705	0.000068
O50	O	1.716543	-0.278095	0.000025
C51	C	1.730530	0.080819	0.000049
C52	C	1.871422	0.082516	0.000045
C53	C	1.487835	0.188111	0.000008
C54	C	1.489542	0.251339	-0.000012
N55	N	1.498382	0.084035	0.360383
N56	N	1.498457	0.084026	-0.360302
C57	C	1.393237	0.130226	0.580734
C58	C	1.393459	0.130399	0.419567
C59	C	1.630662	0.097553	0.418834
C60	C	1.630087	0.097880	0.580052
C61	C	1.472575	0.024176	0.580312
C62	C	1.469515	0.024564	0.419085
H63	H	0.866815	0.159363	-0.138165
F64	F	1.092355	0.176032	0.143000
H65	H	1.174194	-0.344309	-0.000047
H66	H	1.699635	-0.754594	-0.000000
H67	H	1.378260	0.011310	0.621049
H68	H	0.866988	0.160849	0.131743
H69	H	1.083578	0.162484	-0.136989
F70	F	1.268468	-0.068335	0.000063
H71	H	1.133224	-0.001874	-0.094785
F72	F	1.250607	-0.737531	-0.000004
F73	F	1.660046	0.154953	0.629170
F74	F	1.414445	0.187938	0.633628
F75	F	1.735400	0.054771	0.368730
H76	H	1.282612	-0.623914	-0.000019
F77	F	1.851390	-0.496609	0.000030
F78	F	1.414908	0.188443	0.369117
F79	F	1.342333	0.011170	0.369156
H80	H	0.888817	0.091335	-0.230875
H81	H	1.106044	0.094848	-0.230346
F82	F	0.907803	-0.012138	0.124397
F83	F	1.117033	0.086591	0.260316
H84	H	1.295109	0.122265	0.380050
H85	H	1.171310	-0.452077	-0.000056
H86	H	1.710789	0.065586	0.619054
F87	F	1.572878	-0.020771	0.630150
H88	H	0.884830	0.094655	0.230983
F89	F	1.746226	-0.094395	0.000104
H90	H	0.914735	-0.004357	-0.093599
H91	H	1.654143	0.140725	0.378431
H92	H	1.714231	-0.208014	0.000056
F93	F	1.264270	0.119752	0.631433
H94	H	1.825528	-0.379842	0.000050
F95	F	1.563253	-0.022533	0.366450
F96	F	1.731657	-0.640961	0.000022
F97	F	1.265186	-0.190978	0.000060
F98	F	1.147393	-0.009063	0.123804
