data_functionalizedCrystal
_audit_creation_method	'MofGen! by Chris Wilmer'
_symmetry_space_group_name_H-M	'P1'
_symmetry_Int_Tables_number	1
_symmetry_cell_setting	triclinic
loop_
_symmetry_equiv_pos_as_xyz
  x,y,z
_cell_length_a	18.101395
_cell_length_b	18.101398
_cell_length_c	18.101390
_cell_angle_alpha	90.028483
_cell_angle_beta	89.968664
_cell_angle_gamma	89.973721
loop_
_atom_site_label
_atom_site_type_symbol
_atom_site_fract_x
_atom_site_fract_y
_atom_site_fract_z
Zn1	Zn	-0.294897	-1.132124	-0.418922
Zn2	Zn	0.205103	-0.632124	0.081078
Zn3	Zn	-0.418754	-1.132019	-0.295084
Zn4	Zn	0.081246	-0.632019	0.204916
Zn5	Zn	-0.294920	-1.008282	-0.295075
Zn6	Zn	0.205080	-0.508282	0.204925
Zn7	Zn	-0.418690	-1.008233	-0.418864
Zn8	Zn	0.081310	-0.508233	0.081136
O9	O	-0.356815	-1.070164	-0.356986
O10	O	0.143185	-0.570164	0.143014
O11	O	-0.311343	-1.235743	-0.402522
O12	O	0.188657	-0.735743	0.097478
O13	O	-0.402363	-1.115581	-0.191450
O14	O	0.097637	-0.615581	0.308550
O15	O	-0.191284	-1.024774	-0.311524
O16	O	0.308716	-0.524774	0.188476
O17	O	-0.402340	-1.235666	-0.311539
O18	O	0.097660	-0.735666	0.188461
O19	O	-0.191267	-1.115760	-0.402514
O20	O	0.308733	-0.615760	0.097486
O21	O	-0.311383	-1.024672	-0.191443
O22	O	0.188617	-0.524672	0.308557
O23	O	-0.311322	-0.904643	-0.311468
O24	O	0.188678	-0.404643	0.188532
O25	O	-0.402233	-1.024691	-0.522505
O26	O	0.097767	-0.524691	-0.022505
O27	O	-0.402255	-0.904607	-0.402415
O28	O	0.097745	-0.404607	0.097585
O29	O	-0.311282	-1.115713	-0.522547
O30	O	0.188718	-0.615713	-0.022547
O31	O	-0.522378	-1.115534	-0.311483
O32	O	-0.022378	-0.615534	0.188517
O33	O	-0.522332	-1.024590	-0.402424
O34	O	-0.022332	-0.524590	0.097576
C35	C	-0.356785	-0.877754	-0.356935
C36	C	0.143215	-0.377754	0.143065
C37	C	-0.356790	-0.795440	-0.356930
C38	C	0.143210	-0.295440	0.143070
C39	C	-0.549226	-1.070065	-0.356964
C40	C	-0.049226	-0.570065	0.143036
C41	C	-0.631540	-1.070091	-0.356980
C42	C	-0.131540	-0.570091	0.143020
C43	C	-0.356798	-0.644731	-0.356955
C44	C	0.143202	-0.144731	0.143045
C45	C	-0.299502	-0.613375	-0.299827
C46	C	0.200498	-0.113375	0.200173
C47	C	-0.299282	-0.527757	-0.300009
C48	C	0.200718	-0.027757	0.199991
C49	C	-0.356806	-0.496349	-0.356978
C50	C	0.143194	0.003651	0.143022
C51	C	-0.335969	-0.527489	-0.435114
C52	C	0.164031	-0.027489	0.064886
C53	C	-0.335548	-0.613134	-0.434771
C54	C	0.164452	-0.113134	0.065229
C55	C	-0.435079	-0.613127	-0.336634
C56	C	0.064921	-0.113127	0.163366
C57	C	-0.434663	-0.527476	-0.334926
C58	C	0.065337	-0.027476	0.165074
C59	C	-0.356812	-0.412489	-0.356996
C60	C	0.143188	0.087511	0.143004
C61	C	-0.356790	-0.728591	-0.356942
C62	C	0.143210	-0.228591	0.143058
C63	C	-0.930631	-1.070253	-0.357020
C64	C	-0.430631	-0.570253	0.142980
C65	C	-0.899307	-1.013166	-0.414379
C66	C	-0.399307	-0.513166	0.085621
C67	C	-0.813689	-1.012895	-0.414200
C68	C	-0.313689	-0.512895	0.085800
C69	C	-0.782248	-1.070173	-0.357001
C70	C	-0.282248	-0.570173	0.142999
C71	C	-0.813403	-1.049043	-0.278948
C72	C	-0.313403	-0.549043	0.221052
C73	C	-0.899048	-1.048675	-0.279291
C74	C	-0.399048	-0.548675	0.220709
C75	C	-0.898980	-1.148595	-0.377026
C76	C	-0.398980	-0.648595	0.122974
C77	C	-0.813328	-1.148134	-0.378738
C78	C	-0.313328	-0.648134	0.121262
C79	C	-0.698389	-1.070128	-0.356985
C80	C	-0.198389	-0.570128	0.143015
C81	C	-1.014490	-1.070296	-0.357030
C82	C	-0.514490	-0.570296	0.142970
C83	C	-0.163653	-1.070284	-0.357024
C84	C	0.336347	-0.570284	0.142976
C85	C	-0.081339	-1.070335	-0.357041
C86	C	0.418661	-0.570335	0.142959
C87	C	-0.356748	-1.070208	-0.550148
C88	C	0.143252	-0.570208	-0.050148
C89	C	-0.356719	-1.070227	-0.632462
C90	C	0.143281	-0.570227	-0.132462
C91	C	-0.356835	-0.263326	-0.357024
C92	C	0.143165	0.236674	0.142976
C93	C	-0.356815	-0.345640	-0.357002
C94	C	0.143185	0.154360	0.142998
C95	C	-0.356673	-1.070267	-0.931554
C96	C	0.143327	-0.570267	-0.431554
C97	C	-0.299650	-1.127724	-0.900255
C98	C	0.200350	-0.627724	-0.400255
C99	C	-0.299439	-1.127545	-0.814637
C100	C	0.200561	-0.627545	-0.314637
C101	C	-0.356695	-1.070248	-0.783171
C102	C	0.143305	-0.570248	-0.283171
C103	C	-0.335486	-0.992231	-0.814232
C104	C	0.164514	-0.492231	-0.314232
C105	C	-0.335058	-0.992575	-0.899877
C106	C	0.164942	-0.492575	-0.399877
C107	C	-0.435051	-1.090140	-0.899971
C108	C	0.064949	-0.590140	-0.399971
C109	C	-0.434652	-1.091852	-0.814321
C110	C	0.065348	-0.591852	-0.314321
C111	C	-0.356710	-1.070232	-0.699311
C112	C	0.143290	-0.570232	-0.199311
C113	C	-0.356657	-1.070278	-1.015413
C114	C	0.143343	-0.570278	-0.515413
C115	C	-0.356829	-1.070163	-0.164576
C116	C	0.143171	-0.570163	0.335424
C117	C	-0.356649	-1.070288	-0.082262
C118	C	0.143351	-0.570288	0.417738
H119	H	-0.312283	-0.506699	-0.242082
H120	H	0.187717	-0.006699	0.257918
H121	H	-0.479614	-0.506088	-0.373472
H122	H	0.020386	-0.006088	0.126528
Br123	Br	-0.777644	-1.222782	-0.314189
Br124	Br	-0.277644	-0.722782	0.185811
H125	H	-0.312722	-1.185396	-0.793638
H126	H	0.187278	-0.685396	-0.293638
Br127	Br	-0.506229	-0.646945	-0.405965
Br128	Br	-0.006229	-0.146945	0.094035
Br129	Br	-0.935298	-0.916971	-0.392589
Br130	Br	-0.435298	-0.416971	0.107411
Br131	Br	-0.461309	-1.187549	-0.780495
Br132	Br	0.038691	-0.687549	-0.280495
Br133	Br	-0.778572	-1.034927	-0.510663
Br134	Br	-0.278572	-0.534927	-0.010663
H135	H	-0.376427	-0.507149	-0.478855
H136	H	0.123573	-0.007149	0.021145
Br137	Br	-0.202660	-1.105621	-0.780501
Br138	Br	0.297340	-0.605621	-0.280501
H139	H	-0.279388	-0.506069	-0.452591
H140	H	0.220612	-0.006069	0.047409
Br141	Br	-0.933594	-1.114961	-0.205625
Br142	Br	-0.433594	-0.614961	0.294375
Br143	Br	-0.779636	-0.916108	-0.392117
Br144	Br	-0.279636	-0.416108	0.107883
Br145	Br	-0.402107	-0.647718	-0.508168
Br146	Br	0.097893	-0.147718	-0.008168
H147	H	-0.919088	-0.991407	-0.262345
H148	H	-0.419088	-0.491407	0.237655
H149	H	-0.277764	-0.975728	-0.919864
H150	H	0.222236	-0.475728	-0.419864
H151	H	-0.792015	-0.992382	-0.261698
H152	H	-0.292015	-0.492382	0.238302
H153	H	-0.793039	-1.089314	-0.235045
H154	H	-0.293039	-0.589314	0.264955
Br155	Br	-0.509274	-1.027169	-0.778625
Br156	Br	-0.009274	-0.527169	-0.278625
Br157	Br	-0.505865	-1.020387	-0.933698
Br158	Br	-0.005865	-0.520387	-0.433698
H159	H	-0.454108	-0.634688	-0.280611
H160	H	0.045892	-0.134688	0.219389
Br161	Br	-0.460866	-0.493547	-0.239081
Br162	Br	0.039134	0.006453	0.260919
Br163	Br	-0.401256	-0.918788	-0.934386
Br164	Br	0.098744	-0.418788	-0.434386
H165	H	-0.454363	-1.146032	-0.921625
H166	H	0.045637	-0.646032	-0.421625
H167	H	-0.919852	-1.026255	-0.472442
H168	H	-0.419852	-0.526255	0.027558
Br169	Br	-0.203410	-1.106083	-0.936146
Br170	Br	0.296590	-0.606083	-0.436146
Br171	Br	-0.934890	-1.180705	-0.470275
Br172	Br	-0.434890	-0.680705	0.029725
H173	H	-0.792963	-1.164068	-0.436180
H174	H	-0.292963	-0.664068	0.063820
H175	H	-0.919236	-1.191127	-0.335249
H176	H	-0.419236	-0.691127	0.164751
H177	H	-0.312769	-1.185764	-0.920867
H178	H	0.187231	-0.685764	-0.420867
Br179	Br	-0.402582	-0.918939	-0.780269
Br180	Br	0.097418	-0.418939	-0.280269
Br181	Br	-0.320901	-0.647640	-0.202961
Br182	Br	0.179099	-0.147640	0.297039
Br183	Br	-0.202606	-0.493645	-0.322493
Br184	Br	0.297394	0.006355	0.177507
Br185	Br	-0.203368	-0.649287	-0.322020
Br186	Br	0.296632	-0.149287	0.177980
H187	H	-0.278828	-0.975078	-0.792789
H188	H	0.221172	-0.475078	-0.292789
Br189	Br	-0.240193	-0.646481	-0.463401
Br190	Br	0.259807	-0.146481	0.036599
