data_functionalizedCrystal
_audit_creation_method	'MofGen! by Chris Wilmer'
_symmetry_space_group_name_H-M	'P1'
_symmetry_Int_Tables_number	1
_symmetry_cell_setting	triclinic
loop_
_symmetry_equiv_pos_as_xyz
  x,y,z
_cell_length_a	12.837943
_cell_length_b	8.559649
_cell_length_c	7.681481
_cell_angle_alpha	85.069100
_cell_angle_beta	96.334007
_cell_angle_gamma	82.303802
loop_
_atom_site_label
_atom_site_type_symbol
_atom_site_fract_x
_atom_site_fract_y
_atom_site_fract_z
O1	O	-1.331910	-0.423878	0.146382
O2	O	-1.031718	-0.403605	0.146393
O3	O	-1.208261	-0.185166	0.146385
O4	O	-1.155367	-0.642317	0.146391
O5	O	-1.229996	-0.158212	-0.146474
O6	O	-1.053453	-0.376652	-0.146465
O7	O	-1.353645	-0.396924	-0.146477
Zn8	Zn	-1.207000	-0.382508	-0.192969
Zn9	Zn	-1.178363	-0.418021	0.192885
O10	O	-1.177102	-0.615363	-0.146468
C11	C	-1.004510	-0.383280	-0.000035
C12	C	-0.891059	-0.362854	-0.000030
C13	C	-1.223137	-0.112770	-0.000041
C14	C	-1.235068	0.062793	-0.000032
C15	C	-1.380853	-0.417250	-0.000045
C16	C	-1.494303	-0.437677	-0.000038
C17	C	-0.630553	-0.608412	-0.000052
C18	C	-0.523954	-0.589227	-0.000049
C19	C	-0.571261	-0.305300	-0.000034
C20	C	-0.677860	-0.324485	-0.000037
C21	C	-0.707501	-0.476046	-0.000043
C22	C	-0.814101	-0.495230	-0.000034
C23	C	-0.861407	-0.211304	-0.000031
C24	C	-0.754808	-0.192119	-0.000028
C25	C	-1.162226	-0.687760	-0.000038
C26	C	-1.150294	-0.863323	-0.000036
N27	N	-1.226551	-0.358272	-0.456304
N28	N	-1.158821	-0.442246	0.456221
H29	H	-0.838232	-0.618638	-0.000042
H30	H	-0.654686	-0.731819	-0.000055
F31	F	-0.442063	-0.730110	-0.000064
F32	F	-0.539697	-0.144009	-0.000048
F33	F	-1.316935	-0.246249	-0.554602
H34	H	-0.730660	-0.068720	-0.000043
H35	H	-0.924070	-0.103522	-0.000012
F36	F	-1.043493	0.043805	-0.000036
H37	H	-1.089683	-0.527957	-0.468579
H38	H	-1.316782	0.133858	-0.000049
