data_functionalizedCrystal
_audit_creation_method	'MofGen! by Chris Wilmer'
_symmetry_space_group_name_H-M	'P1'
_symmetry_Int_Tables_number	1
_symmetry_cell_setting	triclinic
loop_
_symmetry_equiv_pos_as_xyz
  x,y,z
_cell_length_a	16.992694
_cell_length_b	9.798715
_cell_length_c	16.992695
_cell_angle_alpha	89.996314
_cell_angle_beta	89.331777
_cell_angle_gamma	89.998094
loop_
_atom_site_label
_atom_site_type_symbol
_atom_site_fract_x
_atom_site_fract_y
_atom_site_fract_z
O1	O	1.050850	0.113321	-0.166915
O2	O	1.550850	0.613321	0.333085
O3	O	0.822450	0.113361	-0.165084
O4	O	1.322450	0.613361	0.334916
O5	O	0.935734	0.113331	-0.051799
O6	O	1.435734	0.613331	0.448201
O7	O	0.937565	0.113352	-0.280200
O8	O	1.437565	0.613352	0.219800
O9	O	0.935725	-0.113652	-0.051798
O10	O	1.435725	0.386348	0.448202
O11	O	0.822441	-0.113621	-0.165082
O12	O	1.322441	0.386379	0.334918
O13	O	1.050841	-0.113661	-0.166914
O14	O	1.550841	0.386339	0.333086
Zn15	Zn	0.936639	-0.149679	-0.165998
Zn16	Zn	1.436639	0.350321	0.334002
Zn17	Zn	0.936651	0.149380	-0.166000
Zn18	Zn	1.436651	0.649380	0.334000
O19	O	0.937556	-0.113630	-0.280198
O20	O	1.437556	0.386370	0.219802
C21	C	0.793085	-0.000125	-0.162727
C22	C	1.293085	0.499875	0.337273
C23	C	0.705600	-0.000110	-0.155699
C24	C	1.205600	0.499890	0.344301
C25	C	0.659610	-0.000104	-0.223517
C26	C	1.159610	0.499896	0.276483
C27	C	0.577409	-0.000124	-0.216908
C28	C	1.077409	0.499876	0.283092
C29	C	0.541201	-0.000139	-0.142480
C30	C	1.041201	0.499861	0.357520
C31	C	0.587198	-0.000148	-0.074657
C32	C	1.087198	0.499852	0.425343
C33	C	0.669397	-0.000138	-0.081267
C34	C	1.169397	0.499862	0.418733
C35	C	0.295886	-0.000178	-0.115086
C36	C	0.795886	0.499822	0.384914
C37	C	0.213681	-0.000183	-0.108481
C38	C	0.713681	0.499817	0.391519
C39	C	0.203898	-0.000162	-0.250732
C40	C	0.703898	0.499838	0.249268
C41	C	0.286099	-0.000144	-0.257336
C42	C	0.786099	0.499856	0.242664
C43	C	0.332089	-0.000160	-0.189512
C44	C	0.832089	0.499840	0.310488
N45	N	0.457178	-0.000154	-0.135723
N46	N	0.957178	0.499846	0.364277
N47	N	0.416110	-0.000154	-0.196270
N48	N	0.916110	0.499846	0.303730
N49	N	0.936637	-0.353779	-0.165997
N50	N	1.436637	0.146221	0.334003
C51	C	0.984986	-0.421561	-0.214105
C52	C	1.484986	0.078439	0.285895
C53	C	0.984998	-0.578723	-0.214104
C54	C	1.484998	-0.078723	0.285896
C55	C	1.080205	-0.000172	-0.169270
C56	C	1.580205	0.499828	0.330730
C57	C	1.167690	-0.000178	-0.176299
C58	C	1.667690	0.499822	0.323701
C59	C	0.933374	-0.000160	-0.022439
C60	C	1.433374	0.499840	0.477561
C61	C	0.926345	-0.000158	0.065046
C62	C	1.426345	0.499842	0.565046
N63	N	0.936659	0.353479	-0.165995
N64	N	1.436659	0.853479	0.334005
C65	C	0.939917	-0.000137	-0.309559
C66	C	1.439917	0.499863	0.190441
C67	C	0.946945	-0.000129	-0.397044
C68	C	1.446945	0.499871	0.102956
C69	C	0.994163	-0.000172	0.111037
C70	C	1.494163	0.499828	0.611037
C71	C	0.987554	-0.000158	0.193238
C72	C	1.487554	0.499842	0.693238
C73	C	0.913127	-0.000140	0.229446
C74	C	1.413127	0.499860	0.729446
C75	C	0.845303	-0.000122	0.183449
C76	C	1.345303	0.499878	0.683449
C77	C	0.851913	-0.000127	0.101250
C78	C	1.351913	0.499873	0.601250
C79	C	0.885732	-0.000116	0.474760
C80	C	1.385732	0.499884	0.974760
C81	C	0.879127	-0.000116	0.556966
C82	C	1.379127	0.499884	1.056966
C83	C	1.021379	-0.000149	0.566749
C84	C	1.521379	0.499851	1.066749
C85	C	1.027982	-0.000161	0.484547
C86	C	1.527982	0.499839	0.984547
C87	C	0.960159	-0.000136	0.438558
C88	C	1.460159	0.499864	0.938558
N89	N	0.906369	-0.000130	0.313468
N90	N	1.406369	0.499870	0.813468
N91	N	0.966917	-0.000137	0.354537
N92	N	1.466917	0.499863	0.854537
H93	H	0.539966	-0.000118	-0.272133
H94	H	1.039966	0.499882	0.227867
O95	O	1.034321	-0.352145	-0.263353
O96	O	1.534321	0.147855	0.236647
C97	C	1.073669	-0.308067	-0.397660
C98	C	1.573669	0.191933	0.102340
C99	C	1.017760	-0.386785	-0.341973
C100	C	1.517760	0.113215	0.158027
H101	H	1.060289	-0.336022	-0.461237
H102	H	1.560289	0.163978	0.038763
H103	H	1.137199	-0.336097	-0.384101
H104	H	1.637199	0.163903	0.115899
H105	H	1.064875	-0.193718	-0.388863
H106	H	1.564875	0.306282	0.111137
H107	H	1.026484	-0.501153	-0.350739
H108	H	1.526484	-0.001153	0.149261
H109	H	0.954251	-0.358641	-0.355546
H110	H	1.454251	0.141359	0.144454
H111	H	1.054770	-0.000194	0.081563
H112	H	1.554770	0.499806	0.581563
H113	H	0.706842	-0.000142	-0.026042
H114	H	1.206842	0.499858	0.473958
H115	H	0.557710	-0.000180	-0.014056
H116	H	1.057710	0.499820	0.485944
H117	H	0.818517	-0.000124	0.586443
H118	H	1.318517	0.499876	1.086443
O119	O	1.034493	-0.648101	-0.263204
O120	O	1.534493	-0.148101	0.236796
C121	C	1.168989	-0.692123	-0.301895
C122	C	1.668989	-0.192123	0.198105
C123	C	1.113023	-0.613441	-0.246251
C124	C	1.613023	-0.113441	0.253749
H125	H	1.232493	-0.664151	-0.288197
H126	H	1.732493	-0.164151	0.211803
H127	H	1.155743	-0.664077	-0.365491
H128	H	1.655743	-0.164077	0.134509
H129	H	1.160160	-0.806478	-0.293153
H130	H	1.660160	-0.306478	0.206847
H131	H	1.121821	-0.499068	-0.254922
H132	H	1.621821	0.000932	0.245078
H133	H	1.126283	-0.641601	-0.182675
H134	H	1.626283	-0.141601	0.317325
O135	O	0.340517	0.000058	-0.049180
O136	O	0.840517	0.500058	0.450820
C137	C	0.373977	0.117596	0.070408
C138	C	0.873977	0.617596	0.570408
C139	C	0.323397	0.117515	-0.004212
C140	C	0.823397	0.617515	0.495788
H141	H	0.360143	0.212535	0.106793
H142	H	0.860143	0.712535	0.606793
H143	H	0.438962	0.117687	0.052956
H144	H	0.938962	0.617687	0.552956
H145	H	0.360233	0.022556	0.106745
H146	H	0.860233	0.522556	0.606745
H147	H	0.337073	0.212538	-0.040583
H148	H	0.837073	0.712538	0.459417
H149	H	0.258428	0.117353	0.013294
H150	H	0.758428	0.617353	0.513294
H151	H	0.895260	-0.588239	-0.124810
H152	H	1.395260	-0.088239	0.375190
H153	H	0.830505	-0.000097	0.437325
H154	H	1.330505	0.499903	0.937325
H155	H	0.895255	-0.412101	-0.124807
H156	H	1.395255	0.087899	0.375193
O157	O	0.159340	-0.000096	-0.316691
O158	O	0.659340	0.499904	0.183309
C159	C	0.158313	-0.000166	-0.458482
C160	C	0.658313	0.499834	0.041518
C161	C	0.208867	-0.000203	-0.383845
C162	C	0.708867	0.499797	0.116155
H163	H	0.198335	-0.000282	-0.512794
H164	H	0.698335	0.499718	-0.012794
H165	H	0.119597	0.094843	-0.459002
H166	H	0.619597	0.594843	0.040998
H167	H	0.119572	-0.095140	-0.458900
H168	H	0.619572	0.404860	0.041100
H169	H	0.247655	0.094706	-0.383378
H170	H	0.747655	0.594706	0.116622
H171	H	0.247531	-0.095276	-0.383354
H172	H	0.747531	0.404724	0.116646
H173	H	0.784703	-0.000099	0.212936
H174	H	1.284703	0.499901	0.712936
H175	H	0.796688	-0.000116	0.063804
H176	H	1.296688	0.499884	0.563804
O177	O	1.053513	-0.000240	0.237796
O178	O	1.553513	0.499760	0.737796
C179	C	1.195303	-0.000213	0.238825
C180	C	1.695303	0.499787	0.738825
C181	C	1.120667	-0.000150	0.188269
C182	C	1.620667	0.499850	0.688269
H183	H	1.249616	-0.000111	0.198804
H184	H	1.749616	0.499889	0.698804
H185	H	1.195812	-0.095225	0.277541
H186	H	1.695812	0.404775	0.777541
H187	H	1.195732	0.094759	0.277566
H188	H	1.695732	0.594759	0.777566
H189	H	1.120189	-0.095057	0.149482
H190	H	1.620189	0.404943	0.649482
H191	H	1.120188	0.094925	0.149606
H192	H	1.620188	0.594925	0.649606
O193	O	1.100262	-0.000410	0.449337
O194	O	1.600262	0.499590	0.949337
C195	C	1.190249	-0.117977	0.362170
C196	C	1.690249	0.382023	0.862170
C197	C	1.108376	-0.117876	0.402012
C198	C	1.608376	0.382124	0.902012
H199	H	1.196830	-0.212923	0.323886
H200	H	1.696830	0.287077	0.823886
H201	H	1.237625	-0.118069	0.409125
H202	H	1.737625	0.381931	0.909125
H203	H	1.196885	-0.022944	0.323961
H204	H	1.696885	0.477056	0.823961
H205	H	1.101664	-0.212892	0.440218
H206	H	1.601664	0.287108	0.940218
H207	H	1.061041	-0.117712	0.355018
H208	H	1.561041	0.382288	0.855018
O209	O	0.694652	-0.000148	-0.295877
O210	O	1.194652	0.499852	0.204123
C211	C	0.676263	-0.000054	-0.436272
C212	C	1.176263	0.499946	0.063728
C213	C	0.636480	-0.000031	-0.354371
C214	C	1.136480	0.499969	0.145629
H215	H	0.629249	0.000070	-0.483586
H216	H	1.129249	0.500070	0.016414
H217	H	0.714483	-0.095063	-0.442976
H218	H	1.214483	0.404937	0.057024
H219	H	0.714521	0.094921	-0.442883
H220	H	1.214521	0.594921	0.057117
H221	H	0.598183	-0.094942	-0.347705
H222	H	1.098183	0.405058	0.152295
H223	H	0.598308	0.095040	-0.347704
H224	H	1.098308	0.595040	0.152296
O225	O	0.321294	0.000144	-0.329623
O226	O	0.821294	0.500144	0.170377
C227	C	0.408414	0.117807	-0.419617
C228	C	0.908414	0.617807	0.080383
C229	C	0.368601	0.117635	-0.337730
C230	C	0.868601	0.617635	0.162270
H231	H	0.446684	0.212773	-0.426192
H232	H	0.946684	0.712773	0.073808
H233	H	0.361443	0.117910	-0.466976
H234	H	0.861443	0.617910	0.033024
H235	H	0.446633	0.022794	-0.426286
H236	H	0.946633	0.522794	0.073714
H237	H	0.330386	0.212631	-0.330985
H238	H	0.830386	0.712631	0.169015
H239	H	0.415612	0.117460	-0.290412
H240	H	0.915612	0.617460	0.209588
H241	H	1.076596	-0.000166	0.604202
H242	H	1.576596	0.499834	1.104202
H243	H	0.184203	-0.000194	-0.047870
H244	H	0.684203	0.499806	0.452130
