data_functionalizedCrystal
_audit_creation_method	'MofGen! by Chris Wilmer'
_symmetry_space_group_name_H-M	'P1'
_symmetry_Int_Tables_number	1
_symmetry_cell_setting	triclinic
loop_
_symmetry_equiv_pos_as_xyz
  x,y,z
_cell_length_a	29.839134
_cell_length_b	29.839131
_cell_length_c	29.839125
_cell_angle_alpha	90.017709
_cell_angle_beta	89.978020
_cell_angle_gamma	89.963719
loop_
_atom_site_label
_atom_site_type_symbol
_atom_site_fract_x
_atom_site_fract_y
_atom_site_fract_z
Zn1	Zn	0.686720	0.178978	-0.254125
Zn2	Zn	0.936720	0.428978	-0.004125
Zn3	Zn	1.186720	0.678978	0.245875
Zn4	Zn	1.436720	0.928978	0.495875
Zn5	Zn	0.686652	0.254090	-0.178995
Zn6	Zn	0.936652	0.504090	0.071005
Zn7	Zn	1.186652	0.754090	0.321005
Zn8	Zn	1.436652	1.004090	0.571005
Zn9	Zn	0.611602	0.178968	-0.178995
Zn10	Zn	0.861602	0.428968	0.071005
Zn11	Zn	1.111602	0.678968	0.321005
Zn12	Zn	1.361602	0.928968	0.571005
Zn13	Zn	0.611550	0.254075	-0.254083
Zn14	Zn	0.861550	0.504075	-0.004083
Zn15	Zn	1.111550	0.754075	0.245917
Zn16	Zn	1.361550	1.004075	0.495917
O17	O	0.649131	0.216528	-0.216549
O18	O	0.899131	0.466528	0.033451
O19	O	1.149131	0.716528	0.283451
O20	O	1.399131	0.966528	0.533451
O21	O	0.749578	0.188952	-0.244176
O22	O	0.999578	0.438952	0.005824
O23	O	1.249578	0.688952	0.255824
O24	O	1.499578	0.938952	0.505824
O25	O	0.676690	0.244127	-0.116128
O26	O	0.926690	0.494127	0.133872
O27	O	1.176690	0.744127	0.383872
O28	O	1.426690	0.994127	0.633872
O29	O	0.621617	0.116102	-0.188978
O30	O	0.871617	0.366102	0.061022
O31	O	1.121617	0.616102	0.311022
O32	O	1.371617	0.866102	0.561022
O33	O	0.749528	0.244137	-0.188979
O34	O	0.999528	0.494137	0.061021
O35	O	1.249528	0.744137	0.311021
O36	O	1.499528	0.994137	0.561021
O37	O	0.676805	0.116109	-0.244176
O38	O	0.926805	0.366109	0.005824
O39	O	1.176805	0.616109	0.255824
O40	O	1.426805	0.866109	0.505824
O41	O	0.621551	0.188935	-0.116127
O42	O	0.871551	0.438935	0.133873
O43	O	1.121551	0.688935	0.383873
O44	O	1.371551	0.938935	0.633873
O45	O	0.548728	0.188921	-0.188938
O46	O	0.798728	0.438921	0.061062
O47	O	1.048728	0.688921	0.311062
O48	O	1.298728	0.938921	0.561062
O49	O	0.621528	0.244111	-0.316956
O50	O	0.871528	0.494111	-0.066956
O51	O	1.121528	0.744111	0.183044
O52	O	1.371528	0.994111	0.433044
O53	O	0.548690	0.244101	-0.244105
O54	O	0.798690	0.494101	0.005895
O55	O	1.048690	0.744101	0.255895
O56	O	1.298690	0.994101	0.505895
O57	O	0.676755	0.188937	-0.316987
O58	O	0.926755	0.438937	-0.066987
O59	O	1.176755	0.688937	0.183013
O60	O	1.426755	0.938937	0.433013
O61	O	0.676639	0.316955	-0.188938
O62	O	0.926639	0.566955	0.061062
O63	O	1.176639	0.816955	0.311062
O64	O	1.426639	1.066955	0.561062
O65	O	0.621462	0.316944	-0.244105
O66	O	0.871462	0.566944	0.005895
O67	O	1.121462	0.816944	0.255895
O68	O	1.371462	1.066944	0.505895
C69	C	0.532408	0.216509	-0.216517
C70	C	0.782408	0.466509	0.033483
C71	C	1.032408	0.716509	0.283483
C72	C	1.282408	0.966509	0.533483
C73	C	0.482474	0.216511	-0.216514
C74	C	0.732474	0.466511	0.033486
C75	C	0.982474	0.716511	0.283486
C76	C	1.232474	0.966511	0.533486
C77	C	0.649050	0.333250	-0.216527
C78	C	0.899050	0.583250	0.033473
C79	C	1.149050	0.833250	0.283473
C80	C	1.399050	1.083250	0.533473
C81	C	0.649056	0.383185	-0.216533
C82	C	0.899056	0.633185	0.033467
C83	C	1.149056	0.883185	0.283467
C84	C	1.399056	1.133185	0.533467
C85	C	0.649143	0.216524	-0.333728
C86	C	0.899143	0.466524	-0.083728
C87	C	1.149143	0.716524	0.166272
C88	C	1.399143	0.966524	0.416272
C89	C	0.649148	0.216522	-0.383662
C90	C	0.899148	0.466522	-0.133662
C91	C	1.149148	0.716522	0.116338
C92	C	1.399148	0.966522	0.366338
C93	C	0.172820	0.245303	-0.245240
C94	C	0.422820	0.495303	0.004760
C95	C	0.672820	0.745303	0.254760
C96	C	0.922820	0.995303	0.504760
C97	C	-0.014853	0.245315	-0.245260
C98	C	0.235147	0.495315	0.004740
C99	C	0.485147	0.745315	0.254740
C100	C	0.735147	0.995315	0.504740
O101	O	-0.039127	0.269774	-0.269665
O102	O	0.210873	0.519774	-0.019665
O103	O	0.460873	0.769774	0.230335
O104	O	0.710873	1.019774	0.480335
N105	N	-0.038311	0.216544	-0.216583
N106	N	0.211689	0.466544	0.033417
N107	N	0.461689	0.716544	0.283417
N108	N	0.711689	0.966544	0.533417
C109	C	-0.014848	0.187766	-0.187902
C110	C	0.235152	0.437766	0.062098
C111	C	0.485152	0.687766	0.312098
C112	C	0.735152	0.937766	0.562098
O113	O	-0.039107	0.163291	-0.163514
O114	O	0.210893	0.413291	0.086486
O115	O	0.460893	0.663291	0.336486
O116	O	0.710893	0.913291	0.586486
C117	C	0.172824	0.187751	-0.187884
C118	C	0.422824	0.437751	0.062116
C119	C	0.672824	0.687751	0.312116
C120	C	0.922824	0.937751	0.562116
C121	C	0.196280	0.216527	-0.216560
C122	C	0.446280	0.466527	0.033440
C123	C	0.696280	0.716527	0.283440
C124	C	0.946280	0.966527	0.533440
C125	C	0.196276	0.274076	-0.273913
C126	C	0.446276	0.524076	-0.023913
C127	C	0.696276	0.774076	0.226087
C128	C	0.946276	1.024076	0.476087
C129	C	0.243191	0.274075	-0.273906
C130	C	0.493191	0.524075	-0.023906
C131	C	0.743191	0.774075	0.226094
C132	C	0.993191	1.024075	0.476094
C133	C	0.266651	0.245299	-0.245226
C134	C	0.516651	0.495299	0.004774
C135	C	0.766651	0.745299	0.254774
C136	C	1.016651	0.995299	0.504774
C137	C	0.243195	0.216526	-0.216553
C138	C	0.493195	0.466526	0.033447
C139	C	0.743195	0.716526	0.283447
C140	C	0.993195	0.966526	0.533447
C141	C	0.196286	0.158971	-0.159205
C142	C	0.446286	0.408971	0.090795
C143	C	0.696286	0.658971	0.340795
C144	C	0.946286	0.908971	0.590795
C145	C	0.243207	0.158969	-0.159204
C146	C	0.493207	0.408969	0.090796
C147	C	0.743207	0.658969	0.340796
C148	C	0.993207	0.908969	0.590796
C149	C	0.266663	0.187745	-0.187880
C150	C	0.516663	0.437745	0.062120
C151	C	0.766663	0.687745	0.312120
C152	C	1.016663	0.937745	0.562120
C153	C	0.313570	0.187749	-0.187865
C154	C	0.563570	0.437749	0.062135
C155	C	0.813570	0.687749	0.312135
C156	C	1.063570	0.937749	0.562135
N157	N	0.337029	0.216520	-0.216542
N158	N	0.587029	0.466520	0.033458
N159	N	0.837029	0.716520	0.283458
N160	N	1.087029	0.966520	0.533458
C161	C	0.313569	0.245295	-0.245222
C162	C	0.563569	0.495295	0.004778
C163	C	0.813569	0.745295	0.254778
C164	C	1.063569	0.995295	0.504778
C165	C	-0.113379	0.187776	-0.187912
C166	C	0.136621	0.437776	0.062088
C167	C	0.386621	0.687776	0.312088
C168	C	0.636621	0.937776	0.562088
C169	C	-0.160297	0.187780	-0.187916
C170	C	0.089703	0.437780	0.062084
C171	C	0.339703	0.687780	0.312084
C172	C	0.589703	0.937780	0.562084
C173	C	-0.160298	0.245329	-0.245275
C174	C	0.089702	0.495329	0.004725
C175	C	0.339702	0.745329	0.254725
C176	C	0.589702	0.995329	0.504725
C177	C	-0.113380	0.245327	-0.245269
C178	C	0.136620	0.495327	0.004731
C179	C	0.386620	0.745327	0.254731
C180	C	0.636620	0.995327	0.504731
C181	C	-0.089921	0.216547	-0.216589
C182	C	0.160079	0.466547	0.033411
C183	C	0.410079	0.716547	0.283411
C184	C	0.660079	0.966547	0.533411
C185	C	0.412095	0.245290	-0.245205
C186	C	0.662095	0.495290	0.004795
C187	C	0.912095	0.745290	0.254795
C188	C	1.162095	0.995290	0.504795
C189	C	0.459014	0.245287	-0.245194
C190	C	0.709014	0.495287	0.004806
C191	C	0.959014	0.745287	0.254806
C192	C	1.209014	0.995287	0.504806
C193	C	0.459012	0.187736	-0.187837
C194	C	0.709012	0.437736	0.062163
C195	C	0.959012	0.687736	0.312163
C196	C	1.209012	0.937736	0.562163
C197	C	0.412096	0.187740	-0.187846
C198	C	0.662096	0.437740	0.062154
C199	C	0.912096	0.687740	0.312154
C200	C	1.162096	0.937740	0.562154
C201	C	0.388639	0.216519	-0.216534
C202	C	0.638639	0.466519	0.033466
C203	C	0.888639	0.716519	0.283466
C204	C	1.138639	0.966519	0.533466
O205	O	0.337873	0.163299	-0.163477
O206	O	0.587873	0.413299	0.086523
O207	O	0.837873	0.663299	0.336523
O208	O	1.087873	0.913299	0.586523
O209	O	0.337836	0.269759	-0.269613
O210	O	0.587836	0.519759	-0.019613
O211	O	0.837836	0.769759	0.230387
O212	O	1.087836	1.019759	0.480387
C213	C	0.125905	0.245304	-0.245247
C214	C	0.375905	0.495304	0.004753
C215	C	0.625905	0.745304	0.254753
C216	C	0.875905	0.995304	0.504753
C217	C	0.102449	0.216531	-0.216574
C218	C	0.352449	0.466531	0.033426
C219	C	0.602449	0.716531	0.283426
C220	C	0.852449	0.966531	0.533426
C221	C	0.125909	0.187755	-0.187893
C222	C	0.375909	0.437755	0.062107
C223	C	0.625909	0.687755	0.312107
C224	C	0.875909	0.937755	0.562107
C225	C	0.055531	0.216535	-0.216577
C226	C	0.305531	0.466535	0.033423
C227	C	0.555531	0.716535	0.283423
C228	C	0.805531	0.966535	0.533423
C229	C	0.032071	0.245310	-0.245258
C230	C	0.282071	0.495310	0.004742
C231	C	0.532071	0.745310	0.254742
C232	C	0.782071	0.995310	0.504742
C233	C	0.055529	0.274082	-0.273934
C234	C	0.305529	0.524082	-0.023934
C235	C	0.555529	0.774082	0.226066
C236	C	0.805529	1.024082	0.476066
C237	C	0.102445	0.274080	-0.273927
C238	C	0.352445	0.524080	-0.023927
C239	C	0.602445	0.774080	0.226073
C240	C	0.852445	1.024080	0.476073
C241	C	0.102451	0.158984	-0.159217
C242	C	0.352451	0.408984	0.090783
C243	C	0.602451	0.658984	0.340783
C244	C	0.852451	0.908984	0.590783
C245	C	0.055535	0.158989	-0.159226
C246	C	0.305535	0.408989	0.090774
C247	C	0.555535	0.658989	0.340774
C248	C	0.805535	0.908989	0.590774
C249	C	0.032075	0.187764	-0.187906
C250	C	0.282075	0.437764	0.062094
C251	C	0.532075	0.687764	0.312094
C252	C	0.782075	0.937764	0.562094
C253	C	0.766309	0.216547	-0.216582
C254	C	1.016309	0.466547	0.033418
C255	C	1.266309	0.716547	0.283418
C256	C	1.516309	0.966547	0.533418
C257	C	0.816244	0.216555	-0.216596
C258	C	1.066244	0.466555	0.033404
C259	C	1.316244	0.716555	0.283404
C260	C	1.566244	0.966555	0.533404
C261	C	0.649225	0.099349	-0.216582
C262	C	0.899225	0.349349	0.033418
C263	C	1.149225	0.599349	0.283418
C264	C	1.399225	0.849349	0.533418
C265	C	0.649265	0.049415	-0.216595
C266	C	0.899265	0.299415	0.033405
C267	C	1.149265	0.549415	0.283405
C268	C	1.399265	0.799415	0.533405
C269	C	0.677914	0.692821	-0.187866
C270	C	0.927914	0.942821	0.062134
C271	C	1.177914	1.192821	0.312134
C272	C	1.427914	1.442821	0.562134
C273	C	0.677969	0.880494	-0.187883
C274	C	0.927969	1.130494	0.062117
C275	C	1.177969	1.380494	0.312117
C276	C	1.427969	1.630494	0.562117
O277	O	0.702441	0.904753	-0.163493
O278	O	0.952441	1.154753	0.086507
O279	O	1.202441	1.404753	0.336507
O280	O	1.452441	1.654753	0.586507
N281	N	0.649224	0.903970	-0.216583
N282	N	0.899224	1.153970	0.033417
N283	N	1.149224	1.403970	0.283417
N284	N	1.399224	1.653970	0.533417
C285	C	0.620465	0.880524	-0.245283
C286	C	0.870465	1.130524	0.004717
C287	C	1.120465	1.380524	0.254717
C288	C	1.370465	1.630524	0.504717
O289	O	0.596020	0.904798	-0.269698
O290	O	0.846020	1.154798	-0.019698
O291	O	1.096020	1.404798	0.230302
O292	O	1.346020	1.654798	0.480302
C293	C	0.620412	0.692852	-0.245268
C294	C	0.870412	0.942852	0.004732
C295	C	1.120412	1.192852	0.254732
C296	C	1.370412	1.442852	0.504732
C297	C	0.649156	0.669379	-0.216563
C298	C	0.899156	0.919379	0.033437
C299	C	1.149156	1.169379	0.283437
C300	C	1.399156	1.419379	0.533437
C301	C	0.706656	0.669348	-0.159164
C302	C	0.956656	0.919348	0.090836
C303	C	1.206656	1.169348	0.340836
C304	C	1.456656	1.419348	0.590836
C305	C	0.706640	0.622433	-0.159158
C306	C	0.956640	0.872433	0.090842
C307	C	1.206640	1.122433	0.340842
C308	C	1.456640	1.372433	0.590842
C309	C	0.677882	0.598990	-0.187854
C310	C	0.927882	0.848990	0.062146
C311	C	1.177882	1.098990	0.312146
C312	C	1.427882	1.348990	0.562146
C313	C	0.649140	0.622463	-0.216557
C314	C	0.899140	0.872463	0.033443
C315	C	1.149140	1.122463	0.283443
C316	C	1.399140	1.372463	0.533443
C317	C	0.591656	0.669407	-0.273969
C318	C	0.841656	0.919407	-0.023969
C319	C	1.091656	1.169407	0.226031
C320	C	1.341656	1.419407	0.476031
C321	C	0.591646	0.622486	-0.273964
C322	C	0.841646	0.872486	-0.023964
C323	C	1.091646	1.122486	0.226036
C324	C	1.341646	1.372486	0.476036
C325	C	0.620390	0.599013	-0.245259
C326	C	0.870390	0.849013	0.004741
C327	C	1.120390	1.099013	0.254741
C328	C	1.370390	1.349013	0.504741
C329	C	0.620367	0.552106	-0.245248
C330	C	0.870367	0.802106	0.004752
C331	C	1.120367	1.052106	0.254752
C332	C	1.370367	1.302106	0.504752
N333	N	0.649112	0.528630	-0.216548
N334	N	0.899112	0.778630	0.033452
N335	N	1.149112	1.028630	0.283452
N336	N	1.399112	1.278630	0.533452
C337	C	0.677869	0.552072	-0.187851
C338	C	0.927869	0.802072	0.062149
C339	C	1.177869	1.052072	0.312149
C340	C	1.427869	1.302072	0.562149
C341	C	0.620494	0.979055	-0.245289
C342	C	0.870494	1.229055	0.004711
C343	C	1.120494	1.479055	0.254711
C344	C	1.370494	1.729055	0.504711
C345	C	0.620507	1.025973	-0.245292
C346	C	0.870507	1.275973	0.004708
C347	C	1.120507	1.525973	0.254708
C348	C	1.370507	1.775973	0.504708
C349	C	0.678012	1.025939	-0.187893
C350	C	0.928012	1.275939	0.062107
C351	C	1.178012	1.525939	0.312107
C352	C	1.428012	1.775939	0.562107
C353	C	0.677996	0.979021	-0.187887
C354	C	0.927996	1.229021	0.062113
C355	C	1.177996	1.479021	0.312113
C356	C	1.427996	1.729021	0.562113
C357	C	0.649239	0.955579	-0.216589
C358	C	0.899239	1.205579	0.033411
C359	C	1.149239	1.455579	0.283411
C360	C	1.399239	1.705579	0.533411
C361	C	0.677834	0.453547	-0.187841
C362	C	0.927834	0.703547	0.062159
C363	C	1.177834	0.953547	0.312159
C364	C	1.427834	1.203547	0.562159
C365	C	0.677814	0.406627	-0.187836
C366	C	0.927814	0.656627	0.062164
C367	C	1.177814	0.906627	0.312164
C368	C	1.427814	1.156627	0.562164
C369	C	0.620311	0.406664	-0.245237
C370	C	0.870311	0.656664	0.004763
C371	C	1.120311	0.906664	0.254763
C372	C	1.370311	1.156664	0.504763
C373	C	0.620329	0.453580	-0.245240
C374	C	0.870329	0.703580	0.004760
C375	C	1.120329	0.953580	0.254760
C376	C	1.370329	1.203580	0.504760
C377	C	0.649094	0.477020	-0.216540
C378	C	0.899094	0.727020	0.033460
C379	C	1.149094	0.977020	0.283460
C380	C	1.399094	1.227020	0.533460
O381	O	0.595912	0.527818	-0.269629
O382	O	0.845912	0.777818	-0.019629
O383	O	1.095912	1.027818	0.230371
O384	O	1.345912	1.277818	0.480371
O385	O	0.702318	0.527791	-0.163447
O386	O	0.952318	0.777791	0.086553
O387	O	1.202318	1.027791	0.336553
O388	O	1.452318	1.277791	0.586553
C389	C	0.677930	0.739737	-0.187872
C390	C	0.927930	0.989737	0.062128
C391	C	1.177930	1.239737	0.312128
C392	C	1.427930	1.489737	0.562128
C393	C	0.649188	0.763210	-0.216574
C394	C	0.899188	1.013210	0.033426
C395	C	1.149188	1.263210	0.283426
C396	C	1.399188	1.513210	0.533426
C397	C	0.620430	0.739767	-0.245271
C398	C	0.870430	0.989767	0.004729
C399	C	1.120430	1.239767	0.254729
C400	C	1.370430	1.489767	0.504729
C401	C	0.649200	0.810128	-0.216578
C402	C	0.899200	1.060128	0.033422
C403	C	1.149200	1.310128	0.283422
C404	C	1.399200	1.560128	0.533422
C405	C	0.677958	0.833570	-0.187881
C406	C	0.927958	1.083570	0.062119
C407	C	1.177958	1.333570	0.312119
C408	C	1.427958	1.583570	0.562119
C409	C	0.706703	0.810094	-0.159181
C410	C	0.956703	1.060094	0.090819
C411	C	1.206703	1.310094	0.340819
C412	C	1.456703	1.560094	0.590819
C413	C	0.706687	0.763179	-0.159175
C414	C	0.956687	1.013179	0.090825
C415	C	1.206687	1.263179	0.340825
C416	C	1.456687	1.513179	0.590825
C417	C	0.591685	0.763243	-0.273971
C418	C	0.841685	1.013243	-0.023971
C419	C	1.091685	1.263243	0.226029
C420	C	1.341685	1.513243	0.476029
C421	C	0.591703	0.810158	-0.273974
C422	C	0.841703	1.060158	-0.023974
C423	C	1.091703	1.310158	0.226026
C424	C	1.341703	1.560158	0.476026
C425	C	0.620461	0.833601	-0.245277
C426	C	0.870461	1.083601	0.004723
C427	C	1.120461	1.333601	0.254723
C428	C	1.370461	1.583601	0.504723
C429	C	0.677935	0.187718	-0.693325
C430	C	0.927935	0.437718	-0.443325
C431	C	1.177935	0.687718	-0.193325
C432	C	1.427935	0.937718	0.056675
C433	C	0.677957	0.187680	-0.880998
C434	C	0.927957	0.437680	-0.630998
C435	C	1.177957	0.687680	-0.380998
C436	C	1.427957	0.937680	-0.130998
O437	O	0.702399	0.163232	-0.905279
O438	O	0.952399	0.413232	-0.655279
O439	O	1.202399	0.663232	-0.405279
O440	O	1.452399	0.913232	-0.155279
N441	N	0.649208	0.216402	-0.904448
N442	N	0.899208	0.466402	-0.654448
N443	N	1.149208	0.716402	-0.404448
N444	N	1.399208	0.966402	-0.154448
C445	C	0.620449	0.245133	-0.880976
C446	C	0.870449	0.495133	-0.630976
C447	C	1.120449	0.745133	-0.380976
C448	C	1.370449	0.995133	-0.130976
O449	O	0.595993	0.269559	-0.905228
O450	O	0.845993	0.519559	-0.655228
O451	O	1.095993	0.769559	-0.405228
O452	O	1.345993	1.019559	-0.155228
C453	C	0.620424	0.245169	-0.693304
C454	C	0.870424	0.495169	-0.443304
C455	C	1.120424	0.745169	-0.193304
C456	C	1.370424	0.995169	0.056696
C457	C	0.649179	0.216448	-0.669857
C458	C	0.899179	0.466448	-0.419857
C459	C	1.149179	0.716448	-0.169857
C460	C	1.399179	0.966448	0.080143
C461	C	0.706687	0.158999	-0.669877
C462	C	0.956687	0.408999	-0.419877
C463	C	1.206687	0.658999	-0.169877
C464	C	1.456687	0.908999	0.080123
C465	C	0.706683	0.159011	-0.622962
C466	C	0.956683	0.409011	-0.372962
C467	C	1.206683	0.659011	-0.122962
C468	C	1.456683	0.909011	0.127038
C469	C	0.677927	0.187741	-0.599494
C470	C	0.927927	0.437741	-0.349494
C471	C	1.177927	0.687741	-0.099494
C472	C	1.427927	0.937741	0.150506
C473	C	0.649175	0.216460	-0.622941
C474	C	0.899175	0.466460	-0.372941
C475	C	1.149175	0.716460	-0.122941
C476	C	1.399175	0.966460	0.127059
C477	C	0.591663	0.273898	-0.669833
C478	C	0.841663	0.523898	-0.419833
C479	C	1.091663	0.773898	-0.169833
C480	C	1.341663	1.023898	0.080167
C481	C	0.591659	0.273903	-0.622912
C482	C	0.841659	0.523903	-0.372912
C483	C	1.091659	0.773903	-0.122912
C484	C	1.341659	1.023903	0.127088
C485	C	0.620414	0.245183	-0.599465
C486	C	0.870414	0.495183	-0.349465
C487	C	1.120414	0.745183	-0.099465
C488	C	1.370414	0.995183	0.150535
C489	C	0.620415	0.245202	-0.552558
C490	C	0.870415	0.495202	-0.302558
C491	C	1.120415	0.745202	-0.052558
C492	C	1.370415	0.995202	0.197442
N493	N	0.649164	0.216480	-0.529108
N494	N	0.899164	0.466480	-0.279108
N495	N	1.149164	0.716480	-0.029108
N496	N	1.399164	0.966480	0.220892
C497	C	0.677920	0.187749	-0.552576
C498	C	0.927920	0.437749	-0.302576
C499	C	1.177920	0.687749	-0.052576
C500	C	1.427920	0.937749	0.197424
C501	C	0.620464	0.245113	-0.979507
C502	C	0.870464	0.495113	-0.729507
C503	C	1.120464	0.745113	-0.479507
C504	C	1.370464	0.995113	-0.229507
C505	C	0.620471	0.245105	-1.026425
C506	C	0.870471	0.495105	-0.776425
C507	C	1.120471	0.745105	-0.526425
C508	C	1.370471	0.995105	-0.276425
C509	C	0.677979	0.187650	-1.026443
C510	C	0.927979	0.437650	-0.776443
C511	C	1.177979	0.687650	-0.526443
C512	C	1.427979	0.937650	-0.276443
C513	C	0.677974	0.187661	-0.979524
C514	C	0.927974	0.437661	-0.729524
C515	C	1.177974	0.687661	-0.479524
C516	C	1.427974	0.937661	-0.229524
C517	C	0.649214	0.216391	-0.956057
C518	C	0.899214	0.466391	-0.706057
C519	C	1.149214	0.716391	-0.456057
C520	C	1.399214	0.966391	-0.206057
C521	C	0.677910	0.187776	-0.454050
C522	C	0.927910	0.437776	-0.204050
C523	C	1.177910	0.687776	0.045950
C524	C	1.427910	0.937776	0.295950
C525	C	0.677904	0.187792	-0.407130
C526	C	0.927904	0.437792	-0.157130
C527	C	1.177904	0.687792	0.092870
C528	C	1.427904	0.937792	0.342870
C529	C	0.620395	0.245244	-0.407116
C530	C	0.870395	0.495244	-0.157116
C531	C	1.120395	0.745244	0.092884
C532	C	1.370395	0.995244	0.342884
C533	C	0.620401	0.245230	-0.454032
C534	C	0.870401	0.495230	-0.204032
C535	C	1.120401	0.745230	0.045968
C536	C	1.370401	0.995230	0.295968
C537	C	0.649161	0.216493	-0.477497
C538	C	0.899161	0.466493	-0.227497
C539	C	1.149161	0.716493	0.022503
C540	C	1.399161	0.966493	0.272503
O541	O	0.595982	0.269633	-0.528248
O542	O	0.845982	0.519633	-0.278248
O543	O	1.095982	0.769633	-0.028248
O544	O	1.345982	1.019633	0.221752
O545	O	0.702366	0.163320	-0.528316
O546	O	0.952366	0.413320	-0.278316
O547	O	1.202366	0.663320	-0.028316
O548	O	1.452366	0.913320	0.221684
C549	C	0.677939	0.187706	-0.740240
C550	C	0.927939	0.437706	-0.490240
C551	C	1.177939	0.687706	-0.240240
C552	C	1.427939	0.937706	0.009760
C553	C	0.649187	0.216425	-0.763688
C554	C	0.899187	0.466425	-0.513688
C555	C	1.149187	0.716425	-0.263688
C556	C	1.399187	0.966425	-0.013688
C557	C	0.620431	0.245155	-0.740219
C558	C	0.870431	0.495155	-0.490219
C559	C	1.120431	0.745155	-0.240219
C560	C	1.370431	0.995155	0.009781
C561	C	0.649194	0.216417	-0.810605
C562	C	0.899194	0.466417	-0.560605
C563	C	1.149194	0.716417	-0.310605
C564	C	1.399194	0.966417	-0.060605
C565	C	0.677950	0.187686	-0.834074
C566	C	0.927950	0.437686	-0.584074
C567	C	1.177950	0.687686	-0.334074
C568	C	1.427950	0.937686	-0.084074
C569	C	0.706699	0.158964	-0.810624
C570	C	0.956699	0.408964	-0.560624
C571	C	1.206699	0.658964	-0.310624
C572	C	1.456699	0.908964	-0.060624
C573	C	0.706695	0.158976	-0.763708
C574	C	0.956695	0.408976	-0.513708
C575	C	1.206695	0.658976	-0.263708
C576	C	1.456695	0.908976	-0.013708
C577	C	0.591682	0.273877	-0.763669
C578	C	0.841682	0.523877	-0.513669
C579	C	1.091682	0.773877	-0.263669
C580	C	1.341682	1.023877	-0.013669
C581	C	0.591689	0.273864	-0.810585
C582	C	0.841689	0.523864	-0.560585
C583	C	1.091689	0.773864	-0.310585
C584	C	1.341689	1.023864	-0.060585
C585	C	0.620445	0.245133	-0.834053
C586	C	0.870445	0.495133	-0.584053
C587	C	1.120445	0.745133	-0.334053
C588	C	1.370445	0.995133	-0.084053
C589	C	0.649145	0.216499	-0.099827
C590	C	0.899145	0.466499	0.150173
C591	C	1.149145	0.716499	0.400173
C592	C	1.399145	0.966499	0.650173
C593	C	0.649227	0.216374	-0.049893
C594	C	0.899227	0.466374	0.200107
C595	C	1.149227	0.716374	0.450107
C596	C	1.399227	0.966374	0.700107
H597	H	0.478110	0.268721	-0.268545
H598	H	0.728110	0.518721	-0.018545
H599	H	0.978110	0.768721	0.231455
H600	H	1.228110	1.018721	0.481455
H601	H	0.597097	1.045080	-0.268662
H602	H	0.847097	1.295080	-0.018662
H603	H	1.097097	1.545080	0.231338
H604	H	1.347097	1.795080	0.481338
Br605	Br	0.552665	0.312850	-0.842400
Br606	Br	0.802665	0.562850	-0.592400
Br607	Br	1.052665	0.812850	-0.342400
Br608	Br	1.302665	1.062850	-0.092400
H609	H	0.568292	0.829266	-0.297349
H610	H	0.818292	1.079266	-0.047349
H611	H	1.068292	1.329266	0.202651
H612	H	1.318292	1.579266	0.452651
H613	H	0.393001	0.268723	-0.268566
H614	H	0.643001	0.518723	-0.018566
H615	H	0.893001	0.768723	0.231434
H616	H	1.143001	1.018723	0.481434
H617	H	0.121547	0.135551	-0.135861
H618	H	0.371547	0.385551	0.114139
H619	H	0.621547	0.635551	0.364139
H620	H	0.871547	0.885551	0.614139
H621	H	0.596984	0.268637	-0.388000
H622	H	0.846984	0.518637	-0.138000
H623	H	1.096984	0.768637	0.112000
H624	H	1.346984	1.018637	0.362000
H625	H	0.568265	0.297274	-0.744566
H626	H	0.818265	0.547274	-0.494566
H627	H	1.068265	0.797274	-0.244566
H628	H	1.318265	1.047274	0.005434
Br629	Br	0.552623	0.312894	-0.591066
Br630	Br	0.802623	0.562894	-0.341066
Br631	Br	1.052623	0.812894	-0.091066
Br632	Br	1.302623	1.062894	0.158934
Br633	Br	0.581381	0.284212	-0.485854
Br634	Br	0.831381	0.534212	-0.235854
Br635	Br	1.081381	0.784212	0.014146
Br636	Br	1.331381	1.034212	0.264146
Br637	Br	0.716937	0.148772	-0.485889
Br638	Br	0.966937	0.398772	-0.235889
Br639	Br	1.216937	0.648772	0.014111
Br640	Br	1.466937	0.898772	0.264111
H641	H	-0.094283	0.164339	-0.164556
H642	H	0.155717	0.414339	0.085444
H643	H	0.405717	0.664339	0.335444
H644	H	0.655717	0.914339	0.585444
H645	H	0.701402	0.959912	-0.164514
H646	H	0.951402	1.209912	0.085486
H647	H	1.201402	1.459912	0.335486
H648	H	1.451402	1.709912	0.585486
Br649	Br	0.745658	0.590584	-0.120205
Br650	Br	0.995658	0.840584	0.129795
Br651	Br	1.245658	1.090584	0.379795
Br652	Br	1.495658	1.340584	0.629795
H653	H	0.262285	0.297506	-0.297258
H654	H	0.512285	0.547506	-0.047258
H655	H	0.762285	0.797506	0.202742
H656	H	1.012285	1.047506	0.452742
H657	H	0.596895	0.387570	-0.268600
H658	H	0.846895	0.637570	-0.018600
H659	H	1.096895	0.887570	0.231400
H660	H	1.346895	1.137570	0.481400
Br661	Br	0.275042	0.119906	-0.120281
Br662	Br	0.525042	0.369906	0.129719
Br663	Br	0.775042	0.619906	0.379719
Br664	Br	1.025042	0.869906	0.629719
H665	H	0.177180	0.297509	-0.297271
H666	H	0.427180	0.547509	-0.047271
H667	H	0.677180	0.797509	0.202729
H668	H	0.927180	1.047509	0.452729
Br669	Br	0.745706	0.120028	-0.591148
Br670	Br	0.995706	0.370028	-0.341148
Br671	Br	1.245706	0.620028	-0.091148
Br672	Br	1.495706	0.870028	0.158852
Br673	Br	0.552639	0.312881	-0.701643
Br674	Br	0.802639	0.562881	-0.451643
Br675	Br	1.052639	0.812881	-0.201643
Br676	Br	1.302639	1.062881	0.048357
H677	H	-0.094285	0.268759	-0.268619
H678	H	0.155715	0.518759	-0.018619
H679	H	0.405715	0.768759	0.231381
H680	H	0.655715	1.018759	0.481381
H681	H	0.730110	0.135588	-0.744622
H682	H	0.980110	0.385588	-0.494622
H683	H	1.230110	0.635588	-0.244622
H684	H	1.480110	0.885588	0.005378
Br685	Br	0.490859	0.148686	-0.148915
Br686	Br	0.740859	0.398686	0.101085
Br687	Br	0.990859	0.648686	0.351085
Br688	Br	1.240859	0.898686	0.601085
Br689	Br	0.581463	0.947248	-0.284244
Br690	Br	0.831463	1.197248	-0.034244
Br691	Br	1.081463	1.447248	0.215756
Br692	Br	1.331463	1.697248	0.465756
H693	H	0.597044	0.268511	-0.960404
H694	H	0.847044	0.518511	-0.710404
H695	H	1.097044	0.768511	-0.460404
H696	H	1.347044	1.018511	-0.210404
H697	H	0.392998	0.164309	-0.164496
H698	H	0.642998	0.414309	0.085504
H699	H	0.892998	0.664309	0.335504
H700	H	1.142998	0.914309	0.585504
H701	H	0.121538	0.297512	-0.297278
H702	H	0.371538	0.547512	-0.047278
H703	H	0.621538	0.797512	0.202722
H704	H	0.871538	1.047512	0.452722
Br705	Br	0.745727	0.119976	-0.842483
Br706	Br	0.995727	0.369976	-0.592483
Br707	Br	1.245727	0.619976	-0.342483
Br708	Br	1.495727	0.869976	-0.092483
Br709	Br	0.716825	0.374773	-0.148876
Br710	Br	0.966825	0.624773	0.101124
Br711	Br	1.216825	0.874773	0.351124
Br712	Br	1.466825	1.124773	0.601124
Br713	Br	0.745690	0.701154	-0.120214
Br714	Br	0.995690	0.951154	0.129786
Br715	Br	1.245690	1.201154	0.379786
Br716	Br	1.495690	1.451154	0.629786
H717	H	-0.179407	0.268759	-0.268628
H718	H	0.070593	0.518759	-0.018628
H719	H	0.320593	0.768759	0.231372
H720	H	0.570593	1.018759	0.481372
H721	H	0.701427	1.045034	-0.164527
H722	H	0.951427	1.295034	0.085473
H723	H	1.201427	1.545034	0.335473
H724	H	1.451427	1.795034	0.585473
Br725	Br	-0.192123	0.148732	-0.148991
Br726	Br	0.057877	0.398732	0.101009
Br727	Br	0.307877	0.648732	0.351009
Br728	Br	0.557877	0.898732	0.601009
H729	H	0.036420	0.297513	-0.297286
H730	H	0.286420	0.547513	-0.047286
H731	H	0.536420	0.797513	0.202714
H732	H	0.786420	1.047513	0.452714
Br733	Br	0.164465	0.119912	-0.120289
Br734	Br	0.414465	0.369912	0.129711
Br735	Br	0.664465	0.619912	0.379711
Br736	Br	0.914465	0.869912	0.629711
Br737	Br	0.023708	0.119933	-0.120303
Br738	Br	0.273708	0.369933	0.129697
Br739	Br	0.523708	0.619933	0.379697
Br740	Br	0.773708	0.869933	0.629697
H741	H	0.701258	0.472626	-0.164472
H742	H	0.951258	0.722626	0.085528
H743	H	1.201258	0.972626	0.335528
H744	H	1.451258	1.222626	0.585528
Br745	Br	0.581453	0.284093	-1.058240
Br746	Br	0.831453	0.534093	-0.808240
Br747	Br	1.081453	0.784093	-0.558240
Br748	Br	1.331453	1.034093	-0.308240
H749	H	0.568248	0.688511	-0.297342
H750	H	0.818248	0.938511	-0.047342
H751	H	1.068248	1.188511	0.202658
H752	H	1.318248	1.438511	0.452658
Br753	Br	0.552654	0.731436	-0.312921
Br754	Br	0.802654	0.981436	-0.062921
Br755	Br	1.052654	1.231436	0.187079
Br756	Br	1.302654	1.481436	0.437079
H757	H	0.568229	0.603402	-0.297337
H758	H	0.818229	0.853402	-0.047337
H759	H	1.068229	1.103402	0.202663
H760	H	1.318229	1.353402	0.452663
H761	H	0.701321	0.164403	-0.388042
H762	H	0.951321	0.414403	-0.138042
H763	H	1.201321	0.664403	0.111958
H764	H	1.451321	0.914403	0.361958
H765	H	0.596925	0.472692	-0.268615
H766	H	0.846925	0.722692	-0.018615
H767	H	1.096925	0.972692	0.231385
H768	H	1.346925	1.222692	0.481385
H769	H	0.730093	0.744071	-0.135801
H770	H	0.980093	0.994071	0.114199
H771	H	1.230093	1.244071	0.364199
H772	H	1.480093	1.494071	0.614199
H773	H	0.730117	0.829189	-0.135814
H774	H	0.980117	1.079189	0.114186
H775	H	1.230117	1.329189	0.364186
H776	H	1.480117	1.579189	0.614186
Br777	Br	0.745724	0.120008	-0.701718
Br778	Br	0.995724	0.370008	-0.451718
Br779	Br	1.245724	0.620008	-0.201718
Br780	Br	1.495724	0.870008	0.048282
H781	H	0.701393	0.164257	-1.045559
H782	H	0.951393	0.414257	-0.795559
H783	H	1.201393	0.664257	-0.545559
H784	H	1.451393	0.914257	-0.295559
Br785	Br	0.716999	0.148682	-0.947708
Br786	Br	0.966999	0.398682	-0.697708
Br787	Br	1.216999	0.648682	-0.447708
Br788	Br	1.466999	0.898682	-0.197708
