data_functionalizedCrystal
_audit_creation_method	'MofGen! by Chris Wilmer'
_symmetry_space_group_name_H-M	'P1'
_symmetry_Int_Tables_number	1
_symmetry_cell_setting	triclinic
loop_
_symmetry_equiv_pos_as_xyz
  x,y,z
_cell_length_a	8.597187
_cell_length_b	7.681481
_cell_length_c	16.956984
_cell_angle_alpha	95.312825
_cell_angle_beta	80.732799
_cell_angle_gamma	91.833072
loop_
_atom_site_label
_atom_site_type_symbol
_atom_site_fract_x
_atom_site_fract_y
_atom_site_fract_z
O1	O	2.018202	0.452615	0.141860
O2	O	1.567456	0.384235	0.147511
O3	O	1.819911	0.422521	0.029029
O4	O	1.765748	0.414329	0.260342
O5	O	1.850988	0.134376	0.014412
O6	O	1.598534	0.096090	0.132894
O7	O	2.049280	0.164470	0.127243
Zn8	Zn	1.828841	0.084531	0.127748
Zn9	Zn	1.787895	0.464174	0.147007
O10	O	1.796825	0.126184	0.245725
C11	C	1.525589	0.231454	0.138781
C12	C	1.354540	0.205505	0.134536
N13	N	1.856797	-0.174564	0.114604
C14	C	2.091146	0.317255	0.135973
C15	C	2.262195	0.343215	0.140219
C16	C	1.838223	0.278870	-0.007944
C17	C	1.846468	0.280122	-0.096336
N18	N	1.759953	0.723271	0.160145
C19	C	1.708605	0.259216	-0.130573
C20	C	1.716362	0.260388	-0.213627
C21	C	1.861983	0.282479	-0.262442
C22	C	1.999857	0.303382	-0.228200
C23	C	1.992100	0.302197	-0.145147
C24	C	1.900383	0.288316	-0.511614
C25	C	1.908130	0.289505	-0.594671
C26	C	1.624634	0.246507	-0.580094
C27	C	1.616889	0.245335	-0.497040
C28	C	1.754763	0.266228	-0.462805
N29	N	1.869915	0.283683	-0.347337
N30	N	1.746831	0.265012	-0.377913
C31	C	1.778513	0.269839	0.282699
C32	C	1.770266	0.268598	0.371091
H33	H	1.314000	0.480966	0.148333
H34	H	1.661095	-0.216525	0.206627
C35	C	1.307544	-0.073689	0.187820
C36	C	1.284619	0.019552	0.123591
H37	H	1.264360	-0.188486	0.181063
H38	H	1.417166	-0.080071	0.189321
H39	H	1.256626	-0.015756	0.236636
H40	H	1.335547	-0.038375	0.074775
H41	H	1.174976	0.025926	0.122082
C42	C	1.970658	-0.214383	-0.024602
C43	C	1.990267	-0.255831	0.051850
H44	H	2.053061	-0.264548	-0.063342
H45	H	1.871958	-0.259516	-0.036293
H46	H	1.973685	-0.090970	-0.026022
H47	H	1.987229	-0.379245	0.053271
H48	H	2.088993	-0.210706	0.063544
C49	C	1.429166	0.216820	-0.124515
C50	C	1.548531	0.234931	-0.076920
H51	H	1.330344	0.201814	-0.091392
H52	H	1.427250	0.318652	-0.152109
H53	H	1.448941	0.117689	-0.162316
H54	H	1.528762	0.334070	-0.039123
H55	H	1.550444	0.133088	-0.049313
H56	H	1.604098	0.243376	-0.241499
C57	C	1.337448	0.202910	-0.490978
C58	C	1.456820	0.221026	-0.443386
H59	H	1.238630	0.187894	-0.457853
H60	H	1.335522	0.304745	-0.518569
H61	H	1.357226	0.103784	-0.528781
H62	H	1.437048	0.320161	-0.405587
H63	H	1.458743	0.119180	-0.415783
C64	C	2.279299	0.345760	-0.234261
C65	C	2.159929	0.327666	-0.281854
H66	H	2.378122	0.360747	-0.267386
H67	H	2.259540	0.444877	-0.196464
H68	H	2.281205	0.243909	-0.206666
H69	H	2.158015	0.429523	-0.309444
H70	H	2.179694	0.228540	-0.319666
C71	C	1.510643	0.229214	-0.700934
C72	C	1.473091	0.223518	-0.617728
H73	H	1.417081	0.215005	-0.724166
H74	H	1.559299	0.338720	-0.712434
H75	H	1.580997	0.137757	-0.722632
H76	H	1.402746	0.314983	-0.596029
H77	H	1.424410	0.113998	-0.606222
H78	H	2.026717	0.307506	-0.634415
H79	H	2.012650	0.305334	-0.483751
C80	C	2.131854	0.473933	-0.052674
C81	C	2.143638	0.325184	-0.107506
H82	H	2.225408	0.488109	-0.029434
H83	H	2.118165	0.573968	-0.079670
H84	H	2.044009	0.460584	-0.011723
H85	H	2.231476	0.338538	-0.148461
H86	H	2.157345	0.225125	-0.080509
