data_functionalizedCrystal
_audit_creation_method	'MofGen! by Chris Wilmer'
_symmetry_space_group_name_H-M	'P1'
_symmetry_Int_Tables_number	1
_symmetry_cell_setting	triclinic
loop_
_symmetry_equiv_pos_as_xyz
  x,y,z
_cell_length_a	16.625548
_cell_length_b	12.645330
_cell_length_c	16.625525
_cell_angle_alpha	89.911590
_cell_angle_beta	89.938871
_cell_angle_gamma	90.018760
loop_
_atom_site_label
_atom_site_type_symbol
_atom_site_fract_x
_atom_site_fract_y
_atom_site_fract_z
Zn1	Zn	1.233030	-0.421336	-0.455933
Zn2	Zn	1.483030	-0.171336	-0.205933
Zn3	Zn	1.733030	0.078664	0.044067
Zn4	Zn	1.983030	0.328664	0.294067
Zn5	Zn	1.232849	-0.598820	-0.321110
Zn6	Zn	1.482849	-0.348820	-0.071110
Zn7	Zn	1.732849	-0.098820	0.178890
Zn8	Zn	1.982849	0.151180	0.428890
Zn9	Zn	1.098096	-0.421575	-0.321113
Zn10	Zn	1.348096	-0.171575	-0.071113
Zn11	Zn	1.598096	0.078425	0.178887
Zn12	Zn	1.848096	0.328425	0.428887
Zn13	Zn	1.098174	-0.598561	-0.455900
Zn14	Zn	1.348174	-0.348561	-0.205900
Zn15	Zn	1.598174	-0.098561	0.044100
Zn16	Zn	1.848174	0.151439	0.294100
O17	O	1.165537	-0.510073	-0.388514
O18	O	1.415537	-0.260073	-0.138514
O19	O	1.665537	-0.010073	0.111486
O20	O	1.915537	0.239927	0.361486
O21	O	1.345839	-0.444888	-0.438061
O22	O	1.595839	-0.194888	-0.188061
O23	O	1.845839	0.055112	0.061939
O24	O	2.095839	0.305112	0.311939
O25	O	1.214866	-0.575517	-0.208277
O26	O	1.464866	-0.325517	0.041723
O27	O	1.714866	-0.075517	0.291723
O28	O	1.964866	0.174483	0.541723
O29	O	1.116039	-0.273196	-0.339013
O30	O	1.366039	-0.023196	-0.089013
O31	O	1.616039	0.226804	0.160987
O32	O	1.866039	0.476804	0.410987
O33	O	1.345706	-0.575285	-0.339007
O34	O	1.595706	-0.325285	-0.089007
O35	O	1.845706	-0.075285	0.160993
O36	O	2.095706	0.174715	0.410993
O37	O	1.215174	-0.273020	-0.438065
O38	O	1.465174	-0.023020	-0.188065
O39	O	1.715174	0.226980	0.061935
O40	O	1.965174	0.476980	0.311935
O41	O	1.115864	-0.445295	-0.208280
O42	O	1.365864	-0.195295	0.041720
O43	O	1.615864	0.054705	0.291720
O44	O	1.865864	0.304705	0.541720
O45	O	0.985274	-0.445044	-0.338981
O46	O	1.235274	-0.195044	-0.088981
O47	O	1.485274	0.054956	0.161019
O48	O	1.735274	0.304956	0.411019
O49	O	1.116171	-0.574843	-0.568737
O50	O	1.366171	-0.324843	-0.318737
O51	O	1.616171	-0.074843	-0.068737
O52	O	1.866171	0.175157	0.181263
O53	O	0.985331	-0.575075	-0.438008
O54	O	1.235331	-0.325075	-0.188008
O55	O	1.485331	-0.075075	0.061992
O56	O	1.735331	0.174925	0.311992
O57	O	1.215249	-0.444637	-0.568762
O58	O	1.465249	-0.194637	-0.318762
O59	O	1.715249	0.055363	-0.068762
O60	O	1.965249	0.305363	0.181238
O61	O	1.214941	-0.747133	-0.338974
O62	O	1.464941	-0.497133	-0.088974
O63	O	1.714941	-0.247133	0.161026
O64	O	1.964941	0.002867	0.411026
O65	O	1.115995	-0.746943	-0.438004
O66	O	1.365995	-0.496943	-0.188004
O67	O	1.615995	-0.246943	0.061996
O68	O	1.865995	0.003057	0.311996
C69	C	0.956046	-0.510058	-0.388491
C70	C	1.206046	-0.260058	-0.138491
C71	C	1.456046	-0.010058	0.111509
C72	C	1.706046	0.239942	0.361509
C73	C	0.866425	-0.510077	-0.388501
C74	C	1.116425	-0.260077	-0.138501
C75	C	1.366425	-0.010077	0.111499
C76	C	1.616425	0.239923	0.361499
C77	C	0.538250	-0.510084	-0.388535
C78	C	0.788250	-0.260084	-0.138535
C79	C	1.038250	-0.010084	0.111465
C80	C	1.288250	0.239916	0.361465
C81	C	0.629558	-0.510079	-0.388523
C82	C	0.879558	-0.260079	-0.138523
C83	C	1.129558	-0.010079	0.111477
C84	C	1.379558	0.239921	0.361477
C85	C	0.702335	-0.510081	-0.388518
C86	C	0.952335	-0.260081	-0.138518
C87	C	1.202335	-0.010081	0.111482
C88	C	1.452335	0.239919	0.361482
C89	C	0.793649	-0.510075	-0.388507
C90	C	1.043649	-0.260075	-0.138507
C91	C	1.293649	-0.010075	0.111493
C92	C	1.543649	0.239925	0.361493
C93	C	1.165478	-0.785503	-0.388503
C94	C	1.415478	-0.535503	-0.138503
C95	C	1.665478	-0.285503	0.111497
C96	C	1.915478	-0.035503	0.361497
C97	C	1.165527	-0.903333	-0.388525
C98	C	1.415527	-0.653333	-0.138525
C99	C	1.665527	-0.403333	0.111475
C100	C	1.915527	-0.153333	0.361475
C101	C	1.103537	-1.070821	-0.451017
C102	C	1.353537	-0.820821	-0.201017
C103	C	1.603537	-0.570821	0.048983
C104	C	1.853537	-0.320821	0.298983
C105	C	1.103220	-0.948262	-0.450816
C106	C	1.353220	-0.698262	-0.200816
C107	C	1.603220	-0.448262	0.049184
C108	C	1.853220	-0.198262	0.299184
C109	C	1.142465	-0.948051	-0.303549
C110	C	1.392465	-0.698051	-0.053549
C111	C	1.642465	-0.448051	0.196451
C112	C	1.892465	-0.198051	0.446451
C113	C	1.142087	-1.070649	-0.303929
C114	C	1.392087	-0.820649	-0.053929
C115	C	1.642087	-0.570649	0.196071
C116	C	1.892087	-0.320649	0.446071
C117	C	1.250958	-1.070388	-0.410319
C118	C	1.500958	-0.820388	-0.160319
C119	C	1.750958	-0.570388	0.089681
C120	C	2.000958	-0.320388	0.339681
C121	C	1.250435	-0.947779	-0.412178
C122	C	1.500435	-0.697779	-0.162178
C123	C	1.750435	-0.447779	0.087822
C124	C	2.000435	-0.197779	0.337822
C125	C	1.375846	-0.510089	-0.388537
C126	C	1.625846	-0.260089	-0.138537
C127	C	1.875846	-0.010089	0.111463
C128	C	2.125846	0.239911	0.361463
C129	C	1.465467	-0.510096	-0.388547
C130	C	1.715467	-0.260096	-0.138547
C131	C	1.965467	-0.010096	0.111453
C132	C	2.215467	0.239904	0.361453
C133	C	1.165739	-0.509684	-0.598824
C134	C	1.415739	-0.259684	-0.348824
C135	C	1.665739	-0.009684	-0.098824
C136	C	1.915739	0.240316	0.151176
C137	C	1.165825	-0.509519	-0.688445
C138	C	1.415825	-0.259519	-0.438445
C139	C	1.665825	-0.009519	-0.188445
C140	C	1.915825	0.240481	0.061555
C141	C	1.165618	-0.233568	-0.388543
C142	C	1.415618	0.016432	-0.138543
C143	C	1.665618	0.266432	0.111457
C144	C	1.915618	0.516432	0.361457
C145	C	1.165653	-0.115738	-0.388555
C146	C	1.415653	0.134262	-0.138555
C147	C	1.665653	0.384262	0.111445
C148	C	1.915653	0.634262	0.361445
C149	C	1.165383	-0.510384	-0.179023
C150	C	1.415383	-0.260384	0.070977
C151	C	1.665383	-0.010384	0.320977
C152	C	1.915383	0.239616	0.570977
C153	C	1.165454	-0.510251	-0.089402
C154	C	1.415454	-0.260251	0.160598
C155	C	1.665454	-0.010251	0.410598
C156	C	1.915454	0.239749	0.660598
C157	C	1.165524	-0.510126	-0.016620
C158	C	1.415524	-0.260126	0.233380
C159	C	1.665524	-0.010126	0.483380
C160	C	1.915524	0.239874	0.733380
C161	C	1.165610	-0.509960	0.074689
C162	C	1.415610	-0.259960	0.324689
C163	C	1.665610	-0.009960	0.574689
C164	C	1.915610	0.240040	0.824689
C165	C	1.165675	-0.509822	0.147465
C166	C	1.415675	-0.259822	0.397465
C167	C	1.665675	-0.009822	0.647465
C168	C	1.915675	0.240178	0.897465
C169	C	1.165760	-0.509657	0.238779
C170	C	1.415760	-0.259657	0.488779
C171	C	1.665760	-0.009657	0.738779
C172	C	1.915760	0.240343	0.988779
H173	H	1.117656	-0.918015	-0.513824
H174	H	1.367656	-0.668015	-0.263824
H175	H	1.617656	-0.418015	-0.013824
H176	H	1.867656	-0.168015	0.236176
H177	H	1.271984	-1.101143	-0.471230
H178	H	1.521984	-0.851143	-0.221230
H179	H	1.771984	-0.601143	0.028770
H180	H	2.021984	-0.351143	0.278770
H181	H	1.080755	-0.917469	-0.284779
H182	H	1.330755	-0.667469	-0.034779
H183	H	1.580755	-0.417469	0.215221
H184	H	1.830755	-0.167469	0.465221
H185	H	1.117841	-1.100140	-0.514232
H186	H	1.367841	-0.850140	-0.264232
H187	H	1.617841	-0.600140	-0.014232
H188	H	1.867841	-0.350140	0.235768
N189	N	1.273480	-0.909048	-0.495014
N190	N	1.523480	-0.659048	-0.245014
N191	N	1.773480	-0.409048	0.004986
N192	N	2.023480	-0.159048	0.254986
H193	H	1.229112	-0.862901	-0.517133
H194	H	1.479112	-0.612901	-0.267133
H195	H	1.729112	-0.362901	-0.017133
H196	H	1.979112	-0.112901	0.232867
H197	H	1.324900	-0.866758	-0.491547
H198	H	1.574900	-0.616758	-0.241547
H199	H	1.824900	-0.366758	0.008453
H200	H	2.074900	-0.116758	0.258453
H201	H	1.040693	-1.101744	-0.436782
H202	H	1.290693	-0.851744	-0.186782
H203	H	1.540693	-0.601744	0.063218
H204	H	1.790693	-0.351744	0.313218
H205	H	1.299156	-0.917189	-0.369997
H206	H	1.549156	-0.667189	-0.119997
H207	H	1.799156	-0.417189	0.130003
H208	H	2.049156	-0.167189	0.380003
N209	N	1.312263	-1.108864	-0.350062
N210	N	1.562263	-0.858864	-0.100062
N211	N	1.812263	-0.608864	0.149938
N212	N	2.062263	-0.358864	0.399938
H213	H	1.284958	-1.155442	-0.308863
H214	H	1.534958	-0.905442	-0.058863
H215	H	1.784958	-0.655442	0.191137
H216	H	2.034958	-0.405442	0.441137
H217	H	1.355305	-1.150645	-0.378814
H218	H	1.605305	-0.900645	-0.128814
H219	H	1.855305	-0.650645	0.121186
H220	H	2.105305	-0.400645	0.371186
H221	H	1.185363	-1.100376	-0.255803
H222	H	1.435363	-0.850376	-0.005803
H223	H	1.685363	-0.600376	0.244197
H224	H	1.935363	-0.350376	0.494197
H225	H	1.039980	-0.919049	-0.436397
H226	H	1.289980	-0.669049	-0.186397
H227	H	1.539980	-0.419049	0.063603
H228	H	1.789980	-0.169049	0.313603
N229	N	1.059488	-1.108703	-0.279504
N230	N	1.309488	-0.858703	-0.029504
N231	N	1.559488	-0.608703	0.220496
N232	N	1.809488	-0.358703	0.470496
H233	H	1.023665	-1.045837	-0.268594
H234	H	1.273665	-0.795837	-0.018594
H235	H	1.523665	-0.545837	0.231406
H236	H	1.773665	-0.295837	0.481406
H237	H	1.035704	-1.152479	-0.324333
H238	H	1.285704	-0.902479	-0.074333
H239	H	1.535704	-0.652479	0.175667
H240	H	1.785704	-0.402479	0.425667
N241	N	1.200485	-0.909527	-0.240213
N242	N	1.450485	-0.659527	0.009787
N243	N	1.700485	-0.409527	0.259787
N244	N	1.950485	-0.159527	0.509787
H245	H	1.242377	-0.862602	-0.266056
H246	H	1.492377	-0.612602	-0.016056
H247	H	1.742377	-0.362602	0.233944
H248	H	1.992377	-0.112602	0.483944
H249	H	1.170142	-0.868100	-0.198085
H250	H	1.420142	-0.618100	0.051915
H251	H	1.670142	-0.368100	0.301915
H252	H	1.920142	-0.118100	0.551915
