data_functionalizedCrystal
_audit_creation_method	'MofGen! by Chris Wilmer'
_symmetry_space_group_name_H-M	'P1'
_symmetry_Int_Tables_number	1
_symmetry_cell_setting	triclinic
loop_
_symmetry_equiv_pos_as_xyz
  x,y,z
_cell_length_a	23.532407
_cell_length_b	23.532357
_cell_length_c	15.072220
_cell_angle_alpha	89.993295
_cell_angle_beta	89.992868
_cell_angle_gamma	82.838485
loop_
_atom_site_label
_atom_site_type_symbol
_atom_site_fract_x
_atom_site_fract_y
_atom_site_fract_z
O1	O	0.755254	0.069133	-0.073682
O2	O	1.088587	0.402466	0.259651
O3	O	1.421921	0.735799	0.592984
O4	O	0.589389	0.079136	-0.073710
O5	O	0.922722	0.412469	0.259623
O6	O	1.256056	0.745803	0.592957
O7	O	0.677338	-0.008799	-0.073677
O8	O	1.010671	0.324534	0.259656
O9	O	1.344005	0.657867	0.592990
O10	O	0.667305	0.157068	-0.073715
O11	O	1.000638	0.490401	0.259618
O12	O	1.333972	0.823735	0.592951
O13	O	0.677316	-0.008794	0.073888
O14	O	1.010650	0.324539	0.407221
O15	O	1.343983	0.657872	0.740555
O16	O	0.589367	0.079141	0.073855
O17	O	0.922701	0.412474	0.407189
O18	O	1.256034	0.745808	0.740522
O19	O	0.755233	0.069138	0.073883
O20	O	1.088566	0.402471	0.407216
O21	O	1.421899	0.735804	0.740549
Zn22	Zn	0.672296	0.074140	0.097298
Zn23	Zn	1.005630	0.407474	0.430631
Zn24	Zn	1.338963	0.740807	0.763965
Zn25	Zn	0.672325	0.074134	-0.097125
Zn26	Zn	1.005658	0.407467	0.236208
Zn27	Zn	1.338992	0.740800	0.569541
O28	O	0.667283	0.157073	0.073850
O29	O	1.000617	0.490406	0.407183
O30	O	1.333950	0.823740	0.740517
C31	C	0.568162	0.078884	0.000069
C32	C	0.901495	0.412217	0.333403
C33	C	1.234829	0.745551	0.666736
C34	C	0.504945	0.078118	0.000060
C35	C	0.838279	0.411451	0.333393
C36	C	1.171612	0.744785	0.666726
C37	C	0.105834	0.125353	0.000089
C38	C	0.439167	0.458686	0.333422
C39	C	0.772500	0.792019	0.666756
C40	C	0.046434	0.124641	0.000095
C41	C	0.379767	0.457974	0.333428
C42	C	0.713100	0.791308	0.666761
O43	O	0.009681	0.168428	0.000117
O44	O	0.343015	0.501761	0.333450
O45	O	0.676348	0.835095	0.666783
N46	N	0.023817	0.072364	0.000105
N47	N	0.357150	0.405697	0.333438
N48	N	0.690483	0.739030	0.666772
C49	C	0.060604	0.020794	0.000119
C50	C	0.393937	0.354127	0.333452
C51	C	0.727270	0.687461	0.666786
O52	O	0.035912	-0.023737	0.000129
O53	O	0.369245	0.309596	0.333463
O54	O	0.702579	0.642929	0.666796
C55	C	0.120003	0.021506	0.000120
C56	C	0.453336	0.354839	0.333453
C57	C	0.786669	0.688173	0.666787
C58	C	0.142616	0.073787	0.000100
C59	C	0.475949	0.407120	0.333434
C60	C	0.809283	0.740454	0.666767
C61	C	0.128448	0.177629	0.000070
C62	C	0.461781	0.510963	0.333404
C63	C	0.795114	0.844296	0.666737
C64	C	0.187844	0.178341	0.000063
C65	C	0.521177	0.511674	0.333397
C66	C	0.854510	0.845007	0.666730
C67	C	0.224626	0.126775	0.000075
C68	C	0.557959	0.460108	0.333408
C69	C	0.891292	0.793442	0.666741
C70	C	0.202012	0.074498	0.000093
C71	C	0.535345	0.407832	0.333426
C72	C	0.868679	0.741165	0.666760
C73	C	0.156788	-0.030063	0.000140
C74	C	0.490122	0.303271	0.333474
C75	C	0.823455	0.636604	0.666807
C76	C	0.216191	-0.029346	0.000142
C77	C	0.549524	0.303987	0.333475
C78	C	0.882857	0.637321	0.666808
C79	C	0.238804	0.022935	0.000122
C80	C	0.572137	0.356268	0.333455
C81	C	0.905471	0.689601	0.666789
C82	C	0.298190	0.023644	0.000097
C83	C	0.631523	0.356977	0.333430
C84	C	0.964857	0.690311	0.666764
N85	N	0.320807	0.075922	0.000087
N86	N	0.654140	0.409255	0.333420
N87	N	0.987474	0.742588	0.666753
C88	C	0.284025	0.127487	0.000075
C89	C	0.617358	0.460820	0.333409
C90	C	0.950691	0.794154	0.666742
C91	C	-0.064139	0.019303	0.000119
C92	C	0.269195	0.352636	0.333452
C93	C	0.602528	0.685969	0.666786
C94	C	-0.123536	0.018590	0.000112
C95	C	0.209797	0.351923	0.333445
C96	C	0.543130	0.685257	0.666779
C97	C	-0.137702	0.122437	0.000089
C98	C	0.195631	0.455771	0.333422
C99	C	0.528964	0.789104	0.666756
C100	C	-0.078303	0.123149	0.000090
C101	C	0.255030	0.456483	0.333423
C102	C	0.588363	0.789816	0.666757
C103	C	-0.041522	0.071580	0.000109
C104	C	0.291811	0.404914	0.333442
C105	C	0.625145	0.738247	0.666775
C106	C	0.408761	0.128977	0.000059
C107	C	0.742095	0.462310	0.333393
C108	C	1.075428	0.795644	0.666726
C109	C	0.468163	0.129684	0.000048
C110	C	0.801496	0.463017	0.333382
C111	C	1.134830	0.796350	0.666715
C112	C	0.482324	0.025837	0.000076
C113	C	0.815657	0.359170	0.333409
C114	C	1.148991	0.692503	0.666743
C115	C	0.422927	0.025130	0.000082
C116	C	0.756261	0.358463	0.333415
C117	C	1.089594	0.691796	0.666749
C118	C	0.386147	0.076704	0.000077
C119	C	0.719480	0.410038	0.333410
C120	C	1.052813	0.743371	0.666744
O121	O	0.334977	-0.020120	0.000079
O122	O	0.668310	0.313213	0.333412
O123	O	1.001644	0.646547	0.666745
O124	O	0.308725	0.172011	0.000077
O125	O	0.642058	0.505345	0.333410
O126	O	0.975391	0.838678	0.666743
C127	C	0.677076	-0.030013	0.000108
C128	C	1.010410	0.303320	0.333442
C129	C	1.343743	0.636653	0.666775
C130	C	0.676322	-0.093232	0.000116
C131	C	1.009655	0.240101	0.333450
C132	C	1.342988	0.573435	0.666783
C133	C	0.671597	-0.485246	-0.080370
C134	C	1.004930	-0.151913	0.252963
C135	C	1.338263	0.181421	0.586297
C136	C	0.670880	-0.544645	-0.080375
C137	C	1.004213	-0.211312	0.252958
C138	C	1.337546	0.122021	0.586291
O139	O	0.670499	-0.575364	-0.148784
O140	O	1.003833	-0.242031	0.184549
O141	O	1.337166	0.091303	0.517882
N142	N	0.670512	-0.574354	0.000061
N143	N	1.003845	-0.241021	0.333395
N144	N	1.337179	0.092313	0.666728
C145	C	0.670856	-0.544659	0.080508
C146	C	1.004189	-0.211326	0.413842
C147	C	1.337523	0.122008	0.747175
O148	O	0.670477	-0.575383	0.148925
O149	O	1.003811	-0.242049	0.482259
O150	O	1.337144	0.091284	0.815592
C151	C	0.671569	-0.485260	0.080513
C152	C	1.004903	-0.151927	0.413846
C153	C	1.338236	0.181407	0.747179
C154	C	0.671943	-0.455556	0.000071
C155	C	1.005276	-0.122222	0.333404
C156	C	1.338609	0.211111	0.666737
C157	C	0.671969	-0.455541	-0.160805
C158	C	1.005303	-0.122208	0.172528
C159	C	1.338636	0.211125	0.505861
C160	C	0.672688	-0.396146	-0.160800
C161	C	1.006021	-0.062813	0.172534
C162	C	1.339354	0.270521	0.505867
C163	C	0.673033	-0.366456	-0.080359
C164	C	1.006367	-0.033122	0.252974
C165	C	1.339700	0.300211	0.586308
C166	C	0.672661	-0.396160	0.000076
C167	C	1.005994	-0.062827	0.333410
C168	C	1.339327	0.270506	0.666743
C169	C	0.671909	-0.455566	0.160959
C170	C	1.005242	-0.122233	0.494292
C171	C	1.338576	0.211101	0.827625
C172	C	0.672622	-0.396163	0.160956
C173	C	1.005955	-0.062829	0.494289
C174	C	1.339289	0.270504	0.827623
C175	C	0.672995	-0.366458	0.080514
C176	C	1.006328	-0.033125	0.413848
C177	C	1.339662	0.300208	0.747181
C178	C	0.673725	-0.307075	0.080523
C179	C	1.007058	0.026259	0.413856
C180	C	1.340391	0.359592	0.747189
N181	N	0.674092	-0.277366	0.000086
N182	N	1.007425	0.055967	0.333419
N183	N	1.340759	0.389300	0.666753
C184	C	0.673746	-0.307057	-0.080355
C185	C	1.007080	0.026277	0.252979
C186	C	1.340413	0.359610	0.586312
C187	C	0.669357	-0.669401	0.080493
C188	C	1.002691	-0.336067	0.413827
C189	C	1.336024	-0.002734	0.747160
C190	C	0.668648	-0.728799	0.080490
C191	C	1.001982	-0.395466	0.413823
C192	C	1.335315	-0.062132	0.747157
C193	C	0.668671	-0.728781	-0.080394
C194	C	1.002004	-0.395448	0.252939
C195	C	1.335338	-0.062114	0.586273
C196	C	0.669384	-0.669382	-0.080390
C197	C	1.002717	-0.336049	0.252944
C198	C	1.336051	-0.002716	0.586277
C199	C	0.669725	-0.639692	0.000057
C200	C	1.003058	-0.306359	0.333390
C201	C	1.336392	0.026974	0.666723
C202	C	0.675255	-0.182323	-0.080337
C203	C	1.008589	0.151011	0.252996
C204	C	1.341922	0.484344	0.586330
C205	C	0.675976	-0.122922	-0.080324
C206	C	1.009309	0.210411	0.253009
C207	C	1.342643	0.543744	0.586342
C208	C	0.675951	-0.122945	0.080559
C209	C	1.009284	0.210388	0.413892
C210	C	1.342617	0.543722	0.747226
C211	C	0.675233	-0.182340	0.080547
C212	C	1.008566	0.150993	0.413880
C213	C	1.341900	0.484326	0.747214
C214	C	0.674883	-0.212027	0.000092
C215	C	1.008217	0.121306	0.333425
C216	C	1.341550	0.454639	0.666758
O217	O	0.674103	-0.276318	0.148897
O218	O	1.007436	0.057015	0.482230
O219	O	1.340770	0.390349	0.815564
O220	O	0.674118	-0.276325	-0.148760
O221	O	1.007451	0.057008	0.184573
O222	O	1.340785	0.390342	0.517906
C223	C	0.776459	0.069390	0.000101
C224	C	1.109793	0.402723	0.333435
C225	C	1.443126	0.736057	0.666768
C226	C	0.839676	0.070156	0.000105
C227	C	1.173010	0.403489	0.333439
C228	C	1.506343	0.736822	0.666772
C229	C	0.667545	0.178287	0.000063
C230	C	1.000879	0.511620	0.333396
C231	C	1.334212	0.844954	0.666729
C232	C	0.668300	0.241506	0.000049
C233	C	1.001633	0.574839	0.333382
C234	C	1.334966	0.908172	0.666715
N235	N	0.672281	0.074144	0.229987
N236	N	1.005615	0.407478	0.563320
N237	N	1.338948	0.740811	0.896654
N238	N	0.672345	0.074125	-0.229814
N239	N	1.005678	0.407458	0.103519
N240	N	1.339012	0.740792	0.436853
C241	C	0.672324	0.074131	0.589188
C242	C	1.005657	0.407465	0.922522
C243	C	1.338991	0.740798	1.255855
C244	C	0.625108	0.121028	0.551564
C245	C	0.958441	0.454361	0.884897
C246	C	1.291774	0.787695	1.218231
C247	C	0.625214	0.121198	0.448738
C248	C	0.958548	0.454531	0.782071
C249	C	1.291881	0.787864	1.115405
C250	C	0.672302	0.074138	0.410984
C251	C	1.005636	0.407471	0.744318
C252	C	1.338969	0.740805	1.077651
C253	C	0.731651	0.086781	0.448282
C254	C	1.064984	0.420114	0.781615
C255	C	1.398317	0.753448	1.114949
C256	C	0.731386	0.087114	0.551140
C257	C	1.064719	0.420447	0.884473
C258	C	1.398052	0.753781	1.217806
C259	C	0.660722	0.014450	0.551300
C260	C	0.994055	0.347784	0.884633
C261	C	1.327389	0.681117	1.217967
C262	C	0.659356	0.014857	0.448436
C263	C	0.992690	0.348190	0.781770
C264	C	1.326023	0.681523	1.115103
C265	C	0.672294	0.074140	0.310271
C266	C	1.005627	0.407474	0.643604
C267	C	1.338960	0.740807	0.976938
C268	C	0.672336	0.074130	0.689902
C269	C	1.005670	0.407463	1.023235
C270	C	1.339003	0.740797	1.356568
H271	H	0.098505	0.219623	0.000064
H272	H	0.431838	0.552956	0.333398
H273	H	0.765171	0.886289	0.666731
O274	O	0.668260	-0.760837	0.167252
O275	O	1.001593	-0.427504	0.500585
O276	O	1.334926	-0.094171	0.833918
H277	H	0.629114	-0.782604	0.171096
H278	H	0.962447	-0.449271	0.504430
H279	H	1.295780	-0.115938	0.837763
H280	H	-0.141942	-0.023982	0.000114
H281	H	0.191391	0.309351	0.333447
H282	H	0.524724	0.642684	0.666781
H283	H	0.691539	-0.021650	0.422741
H284	H	1.024872	0.311683	0.756074
H285	H	1.358205	0.645016	1.089408
O286	O	0.674842	-0.214377	0.167314
O287	O	1.008175	0.118956	0.500647
O288	O	1.341509	0.452290	0.833981
H289	H	0.713340	-0.246736	0.171170
H290	H	1.046673	0.086597	0.504503
H291	H	1.380006	0.419930	0.837836
O292	O	0.212232	0.234729	0.000051
O293	O	0.545565	0.568062	0.333385
O294	O	0.878899	0.901395	0.666718
H295	H	0.238953	0.237536	0.060194
H296	H	0.572286	0.570869	0.393527
H297	H	0.905619	0.904202	0.726860
H298	H	0.246136	-0.071341	0.000157
H299	H	0.579470	0.261992	0.333491
H300	H	0.912803	0.595326	0.666824
H301	H	0.404515	-0.017442	0.000085
H302	H	0.737848	0.315891	0.333418
H303	H	1.071181	0.649225	0.666752
H304	H	0.674968	-0.206486	-0.145851
H305	H	1.008301	0.126847	0.187482
H306	H	1.341635	0.460180	0.520815
O307	O	0.669741	-0.637380	0.167265
O308	O	1.003074	-0.304047	0.500599
O309	O	1.336407	0.029287	0.833932
H310	H	0.669372	-0.668023	0.223190
H311	H	1.002706	-0.334690	0.556524
H312	H	1.336039	-0.001356	0.889857
O313	O	0.676370	-0.090885	-0.167092
O314	O	1.009703	0.242449	0.166241
O315	O	1.343036	0.575782	0.499574
H316	H	0.715056	-0.107587	-0.205666
H317	H	1.048389	0.225747	0.127667
H318	H	1.381722	0.559080	0.461001
H319	H	0.378821	0.170974	0.000058
H320	H	0.712154	0.504307	0.333391
H321	H	1.045488	0.837641	0.666724
O322	O	0.673085	-0.364114	-0.247566
O323	O	1.006418	-0.030781	0.085767
O324	O	1.339751	0.302553	0.419101
H325	H	0.673644	-0.317821	-0.234063
H326	H	1.006977	0.015512	0.099270
H327	H	1.340311	0.348846	0.432603
H328	H	0.676235	-0.098761	0.146052
H329	H	1.009568	0.234573	0.479385
H330	H	1.342901	0.567906	0.812718
H331	H	0.581089	0.113714	0.423522
H332	H	0.914422	0.447048	0.756855
H333	H	1.247755	0.780381	1.090189
H334	H	0.632587	0.165493	0.424116
H335	H	0.965920	0.498826	0.757449
H336	H	1.299254	0.832159	1.090782
O337	O	0.601526	0.002134	0.416164
O338	O	0.934859	0.335467	0.749498
O339	O	1.268193	0.668801	1.082831
H340	H	0.582082	0.037876	0.373621
H341	H	0.915415	0.371210	0.706954
H342	H	1.248749	0.704543	1.040288
H343	H	0.695159	-0.020444	0.575631
H344	H	1.028492	0.312889	0.908965
H345	H	1.361825	0.646222	1.242298
H346	H	0.671606	-0.479741	0.226463
H347	H	1.004939	-0.146408	0.559797
H348	H	1.338273	0.186925	0.893130
O349	O	0.566465	0.111299	0.584365
O350	O	0.899798	0.444632	0.917699
O351	O	1.233131	0.777966	1.251032
H352	H	0.570342	0.072937	0.627840
H353	H	0.903675	0.406270	0.961173
H354	H	1.237008	0.739604	1.294506
O355	O	0.744997	0.144752	0.582907
O356	O	1.078331	0.478085	0.916241
O357	O	1.411664	0.811418	1.249574
H358	H	0.751704	0.172126	0.524804
H359	H	1.085037	0.505459	0.858138
H360	H	1.418370	0.838793	1.191471
O361	O	-0.024467	-0.036322	0.000126
O362	O	0.308867	0.297012	0.333459
O363	O	0.642200	0.630345	0.666793
H364	H	-0.050178	-0.072789	0.000126
H365	H	0.283155	0.260545	0.333459
H366	H	0.616489	0.593878	0.666793
O367	O	-0.053918	0.179539	0.000087
O368	O	0.279416	0.512872	0.333420
O369	O	0.612749	0.846205	0.666754
H370	H	-0.068715	0.204301	-0.060059
H371	H	0.264619	0.537635	0.273274
H372	H	0.597952	0.870968	0.606608
O373	O	0.492550	0.186076	0.000042
O374	O	0.825883	0.519410	0.333375
O375	O	1.159217	0.852743	0.666709
H376	H	0.477749	0.210840	-0.060101
H377	H	0.811083	0.544174	0.273233
H378	H	1.144416	0.877507	0.606566
O379	O	-0.177380	0.178058	0.000092
O380	O	0.155954	0.511391	0.333425
O381	O	0.489287	0.844725	0.666759
H382	H	-0.222481	0.168775	0.000107
H383	H	0.110852	0.502108	0.333441
H384	H	0.444186	0.835441	0.666774
H385	H	0.671686	-0.479709	-0.226313
H386	H	1.005019	-0.146375	0.107020
H387	H	1.338353	0.186958	0.440353
O388	O	0.668283	-0.760803	-0.167165
O389	O	1.001617	-0.427469	0.166169
O390	O	1.334950	-0.094136	0.499502
H391	H	0.706774	-0.793171	-0.171019
H392	H	1.040107	-0.459837	0.162314
H393	H	1.373441	-0.126504	0.495647
O394	O	0.132406	-0.086452	0.000180
O395	O	0.465740	0.246882	0.333513
O396	O	0.799073	0.580215	0.666846
H397	H	0.167971	-0.122183	0.000204
H398	H	0.501304	0.211151	0.333538
H399	H	0.834638	0.544484	0.666871
O400	O	0.522001	-0.029780	0.000101
O401	O	0.855334	0.303553	0.333434
O402	O	1.188667	0.636887	0.666767
H403	H	0.567102	-0.020497	0.000107
H404	H	0.900435	0.312837	0.333440
H405	H	1.233769	0.646170	0.666774
H406	H	0.672891	-0.371991	0.226467
H407	H	1.006224	-0.038658	0.559800
H408	H	1.339558	0.294676	0.893133
O409	O	0.634732	0.179376	0.585765
O410	O	0.968066	0.512710	0.919098
O411	O	1.301399	0.846043	1.252431
H412	H	0.672999	0.175121	0.629442
H413	H	1.006333	0.508454	0.962775
H414	H	1.339666	0.841788	1.296109
H415	H	0.669687	-0.645201	-0.145893
H416	H	1.003020	-0.311867	0.187441
H417	H	1.336354	0.021466	0.520774
O418	O	0.779301	0.043574	0.584118
O419	O	1.112634	0.376907	0.917452
O420	O	1.445968	0.710240	1.250785
H421	H	0.802562	0.022377	0.526598
H422	H	1.135895	0.355710	0.859931
H423	H	1.469229	0.689043	1.193265
H424	H	0.767611	0.053519	0.423826
H425	H	1.100944	0.386852	0.757159
H426	H	1.434277	0.720185	1.090492
O427	O	0.745603	0.143764	0.414156
O428	O	1.078936	0.477098	0.747489
O429	O	1.412270	0.810431	1.080822
H430	H	0.710363	0.163167	0.370641
H431	H	1.043697	0.496500	0.703975
H432	H	1.377030	0.829834	1.037308
H433	H	0.618404	0.002210	0.577287
H434	H	0.951737	0.335543	0.910620
H435	H	1.285071	0.668876	1.243953
