data_functionalizedCrystal
_audit_creation_method	'MofGen! by Chris Wilmer'
_symmetry_space_group_name_H-M	'P1'
_symmetry_Int_Tables_number	1
_symmetry_cell_setting	triclinic
loop_
_symmetry_equiv_pos_as_xyz
  x,y,z
_cell_length_a	12.837943
_cell_length_b	17.038272
_cell_length_c	11.892095
_cell_angle_alpha	94.170821
_cell_angle_beta	85.689438
_cell_angle_gamma	92.970248
loop_
_atom_site_label
_atom_site_type_symbol
_atom_site_fract_x
_atom_site_fract_y
_atom_site_fract_z
O1	O	1.399724	0.200065	-0.093986
O2	O	1.097028	0.189958	-0.093992
O3	O	1.246576	0.081062	-0.093980
O4	O	1.250175	0.308961	-0.093998
O5	O	1.234106	0.090126	0.094026
O6	O	1.084557	0.199022	0.094014
O7	O	1.387254	0.209129	0.094021
Zn8	Zn	1.233926	0.205514	0.123868
Zn9	Zn	1.250356	0.193572	-0.123839
O10	O	1.237705	0.318025	0.094009
C11	C	1.051871	0.191076	0.000010
C12	C	0.935896	0.180893	0.000008
C13	C	0.705733	0.303310	0.000015
C14	C	0.596764	0.293746	0.000013
C15	C	0.608986	0.152201	0.000012
C16	C	0.717955	0.161765	0.000014
C17	C	0.766325	0.237322	0.000013
C18	C	0.875296	0.246885	0.000006
C19	C	0.887516	0.105342	0.000013
C20	C	0.778547	0.095777	0.000012
C21	C	1.237069	0.056221	0.000023
C22	C	1.227305	-0.031301	0.000022
C23	C	1.316945	-0.074719	0.000026
C24	C	1.307766	-0.156956	0.000015
C25	C	1.208945	-0.195773	0.000009
C26	C	1.119299	-0.152349	0.000002
C27	C	1.128480	-0.070114	0.000005
C28	C	1.176511	-0.443954	-0.000008
C29	C	1.167337	-0.526195	-0.000007
C30	C	1.355805	-0.530796	0.000003
C31	C	1.364977	-0.448559	0.000013
C32	C	1.275331	-0.405143	0.000001
C33	C	1.199560	-0.279832	0.000001
C34	C	1.284718	-0.321086	0.000000
C35	C	1.432411	0.208011	0.000016
C36	C	1.548386	0.218194	0.000011
C37	C	1.247213	0.342865	0.000003
C38	C	1.256977	0.430387	-0.000004
N39	N	1.222720	0.213665	0.292921
N40	N	1.261569	0.185416	-0.292892
C41	C	1.339540	0.128657	0.529578
C42	C	1.331715	0.134361	0.647919
C43	C	1.199241	0.230770	0.647947
C44	C	1.207066	0.225067	0.529605
C45	C	1.277219	0.174010	0.470425
C46	C	1.285048	0.168311	0.352082
C47	C	1.152569	0.264716	0.352111
C48	C	1.144745	0.270419	0.470453
H49	H	0.745116	0.364831	0.000012
C50	C	1.020258	0.265190	0.684439
C51	C	1.122123	0.286875	0.713020
H52	H	0.972647	0.299823	0.724622
H53	H	1.016002	0.268301	0.605506
H54	H	1.003038	0.212743	0.703826
H55	H	1.139346	0.339321	0.693625
H56	H	1.126382	0.283772	0.791970
H57	H	1.428789	-0.566154	0.000011
C58	C	0.981959	-0.513393	-0.000052
C59	C	1.058706	-0.568865	-0.000032
H60	H	0.914901	-0.539738	-0.000075
H61	H	0.985095	-0.478258	0.065508
H62	H	0.993825	-0.484570	-0.065616
H63	H	1.046845	-0.597684	0.065538
H64	H	1.055567	-0.604013	-0.065598
C65	C	0.447363	0.074701	0.000031
C66	C	0.555804	0.069155	0.000024
H67	H	0.414533	0.023431	0.000033
H68	H	0.422662	0.105371	0.065587
H69	H	0.431350	0.099053	-0.065537
H70	H	0.571818	0.044809	0.065596
H71	H	0.580513	0.038473	-0.065539
C72	C	0.965767	0.304860	0.506935
C73	C	1.067634	0.326536	0.535515
H74	H	0.918163	0.339503	0.547107
H75	H	0.961514	0.307962	0.428000
H76	H	0.948533	0.252417	0.526335
H77	H	1.084871	0.378976	0.516107
H78	H	1.071890	0.323441	0.614467
H79	H	1.101826	0.301647	0.303936
H80	H	0.547433	0.347480	0.000018
C81	C	1.378565	0.004459	0.684341
C82	C	1.400221	0.084509	0.712941
H83	H	1.420864	-0.026318	0.724479
H84	H	1.306896	-0.008361	0.703757
H85	H	1.393267	-0.006234	0.605389
H86	H	1.385511	0.095203	0.791892
H87	H	1.471907	0.097333	0.693533
H88	H	1.397415	-0.043120	0.000037
H89	H	0.936862	0.051609	0.000004
C90	C	0.761824	-0.032464	-0.096643
C91	C	0.725374	0.012728	0.000007
H92	H	0.729003	-0.083737	-0.096643
H93	H	0.745796	-0.008107	-0.162189
H94	H	0.835395	-0.036205	-0.096632
H95	H	0.651804	0.016474	-0.000009
H96	H	0.741395	-0.011635	0.065570
C97	C	1.494975	-0.153242	0.000052
C98	C	1.406300	-0.204680	0.000031
H99	H	1.555807	-0.182707	0.000069
H100	H	1.498992	-0.124231	-0.065506
H101	H	1.490269	-0.117913	0.065619
H102	H	1.411002	-0.240006	-0.065541
H103	H	1.402283	-0.233704	0.065595
C104	C	1.550348	-0.461371	0.000022
C105	C	1.473604	-0.405894	0.000021
H106	H	1.617409	-0.435029	0.000026
H107	H	1.538495	-0.490193	0.065575
H108	H	1.547196	-0.496507	-0.065549
H109	H	1.476751	-0.370762	0.065597
H110	H	1.485461	-0.377059	-0.065539
H111	H	1.103515	-0.408614	-0.000017
C112	C	1.021540	-0.276364	0.000007
C113	C	1.010672	-0.195015	-0.000000
H114	H	0.954475	-0.302700	0.000015
H115	H	1.063094	-0.293942	-0.065551
H116	H	1.054408	-0.287619	0.065574
H117	H	0.977811	-0.183758	-0.065572
H118	H	0.969102	-0.177430	0.065564
C119	C	0.941266	-0.073820	0.000003
C120	C	1.029945	-0.022386	0.000005
H121	H	0.880434	-0.044353	0.000005
H122	H	0.945956	-0.109147	-0.065554
H123	H	0.937261	-0.102833	0.065571
H124	H	1.033954	0.006623	-0.065567
H125	H	1.025254	0.012955	0.065569
C126	C	1.415195	0.073580	0.363946
C127	C	1.362153	0.112187	0.287028
H128	H	1.462791	0.038926	0.323784
H129	H	1.452569	0.111375	0.410089
H130	H	1.366196	0.044247	0.410117
H131	H	1.411152	0.141525	0.240861
H132	H	1.324778	0.074387	0.240865
H133	H	1.365179	-0.289479	-0.000020
H134	H	0.914677	0.308407	0.000008
H135	H	1.119099	-0.311445	-0.000001
H136	H	1.396668	0.087090	0.481393
