data_functionalizedCrystal
_audit_creation_method	'MofGen! by Chris Wilmer'
_symmetry_space_group_name_H-M	'P1'
_symmetry_Int_Tables_number	1
_symmetry_cell_setting	triclinic
loop_
_symmetry_equiv_pos_as_xyz
  x,y,z
_cell_length_a	17.038272
_cell_length_b	17.038272
_cell_length_c	16.098678
_cell_angle_alpha	87.070750
_cell_angle_beta	92.926035
_cell_angle_gamma	91.111556
loop_
_atom_site_label
_atom_site_type_symbol
_atom_site_fract_x
_atom_site_fract_y
_atom_site_fract_z
O1	O	1.045484	0.173807	-0.069152
O2	O	1.545484	0.673807	0.430848
O3	O	0.817671	0.171100	-0.069177
O4	O	1.317671	0.671100	0.430823
O5	O	0.930224	0.058547	-0.069158
O6	O	1.430224	0.558547	0.430842
O7	O	0.932931	0.286359	-0.069171
O8	O	1.432931	0.786359	0.430829
O9	O	0.936764	0.051993	0.069353
O10	O	1.436764	0.551993	0.569353
O11	O	0.824212	0.164546	0.069335
O12	O	1.324212	0.664546	0.569335
O13	O	1.052024	0.167253	0.069359
O14	O	1.552024	0.667253	0.569359
Zn15	Zn	0.939156	0.164859	0.091338
Zn16	Zn	1.439156	0.664859	0.591338
Zn17	Zn	0.930539	0.173494	-0.091156
Zn18	Zn	1.430539	0.673494	0.408844
O19	O	0.939472	0.279805	0.069340
O20	O	1.439472	0.779805	0.569340
C21	C	0.791649	0.165360	0.000076
C22	C	1.291649	0.665360	0.500076
C23	C	0.704365	0.158013	0.000067
C24	C	1.204365	0.658013	0.500067
C25	C	0.931031	0.025978	0.000097
C26	C	1.431031	0.525978	0.500097
C27	C	0.923683	-0.061306	0.000096
C28	C	1.423683	0.438694	0.500096
C29	C	0.658755	0.225476	0.000064
C30	C	1.158755	0.725476	0.500064
C31	C	0.576744	0.218567	0.000075
C32	C	1.076744	0.718567	0.500075
C33	C	0.540343	0.144193	0.000085
C34	C	1.040343	0.644193	0.500085
C35	C	0.585959	0.076724	0.000090
C36	C	1.085959	0.576724	0.500090
C37	C	0.667969	0.083634	0.000084
C38	C	1.167969	0.583634	0.500084
C39	C	0.292956	0.119781	0.000108
C40	C	0.792956	0.619781	0.500108
C41	C	0.210940	0.112877	0.000112
C42	C	0.710940	0.612877	0.500112
C43	C	0.201731	0.254720	0.000098
C44	C	0.701731	0.754720	0.500098
C45	C	0.283743	0.261624	0.000088
C46	C	0.783743	0.761624	0.500088
C47	C	0.329351	0.194154	0.000098
C48	C	0.829351	0.694154	0.500098
C49	C	0.456514	0.137129	0.000094
C50	C	0.956514	0.637129	0.500094
C51	C	0.413179	0.201219	0.000094
C52	C	0.913179	0.701219	0.500094
C53	C	0.991147	-0.106916	0.000104
C54	C	1.491147	0.393084	0.500104
C55	C	0.984238	-0.188927	0.000096
C56	C	1.484238	0.311073	0.500096
C57	C	0.909864	-0.225328	0.000085
C58	C	1.409864	0.274672	0.500085
C59	C	0.842395	-0.179712	0.000074
C60	C	1.342395	0.320288	0.500074
C61	C	0.849305	-0.097702	0.000077
C62	C	1.349305	0.402298	0.500077
C63	C	0.885453	-0.472715	0.000071
C64	C	1.385453	0.027285	0.500071
C65	C	0.878548	-0.554731	0.000071
C66	C	1.378548	-0.054731	0.500071
C67	C	1.020392	-0.563941	0.000091
C68	C	1.520392	-0.063941	0.500091
C69	C	1.027295	-0.481929	0.000098
C70	C	1.527295	0.018071	0.500098
C71	C	0.959826	-0.436320	0.000083
C72	C	1.459826	0.063680	0.500083
C73	C	0.902800	-0.309157	0.000079
C74	C	1.402800	0.190843	0.500079
C75	C	0.966890	-0.352492	0.000084
C76	C	1.466890	0.147508	0.500084
C77	C	1.078047	0.172993	0.000105
C78	C	1.578047	0.672993	0.500105
C79	C	1.165331	0.180340	0.000108
C80	C	1.665331	0.680340	0.500108
C81	C	0.938664	0.312375	0.000083
C82	C	1.438664	0.812375	0.500083
C83	C	0.946012	0.399659	0.000079
C84	C	1.446012	0.899659	0.500079
N85	N	0.945043	0.158965	0.215886
N86	N	1.445043	0.658965	0.715886
N87	N	0.924659	0.179381	-0.215704
N88	N	1.424659	0.679381	0.284296
C89	C	0.897260	0.206718	0.259484
C90	C	1.397260	0.706718	0.759484
C91	C	0.901400	0.202593	0.346672
C92	C	1.401400	0.702593	0.846672
C93	C	0.953321	0.150712	0.390260
C94	C	1.453321	0.650712	0.890260
C95	C	1.001109	0.102958	0.346657
C96	C	1.501109	0.602958	0.846657
C97	C	0.996972	0.107087	0.259470
C98	C	1.496972	0.607087	0.759470
C99	C	0.968310	0.135756	0.653506
C100	C	1.468310	0.635756	1.153506
C101	C	0.972442	0.131629	0.740699
C102	C	1.472442	0.631629	1.240699
C103	C	0.872734	0.231266	0.740708
C104	C	1.372734	0.731266	1.240708
C105	C	0.868598	0.235387	0.653520
C106	C	1.368598	0.735387	1.153520
C107	C	0.916389	0.187636	0.609924
C108	C	1.416389	0.687636	1.109924
C109	C	0.957552	0.146493	0.479380
C110	C	1.457552	0.646493	0.979380
C111	C	0.912161	0.191859	0.520805
C112	C	1.412161	0.691859	1.020805
H113	H	0.688386	0.286039	0.000056
H114	H	1.188386	0.786039	0.500056
Br115	Br	0.801866	-0.358564	0.000056
Br116	Br	1.301866	0.141436	0.500056
Br117	Br	0.741457	-0.229111	0.000046
Br118	Br	1.241457	0.270889	0.500046
H119	H	0.817982	-0.584366	0.000075
H120	H	1.317982	-0.084366	0.500075
H121	H	0.854978	0.248961	0.224000
H122	H	1.354978	0.748961	0.724000
H123	H	0.539612	0.273503	0.000072
H124	H	1.039612	0.773503	0.500072
H125	H	0.330081	0.064843	0.000117
H126	H	0.830081	0.564843	0.500117
Br127	Br	0.807879	0.296070	0.799877
Br128	Br	1.307879	0.796070	1.299877
Br129	Br	0.836554	0.267404	0.405843
Br130	Br	1.336554	0.767404	0.905843
H131	H	1.035883	0.068203	0.223974
H132	H	1.535883	0.568203	0.723974
Br133	Br	0.798131	0.305795	0.594362
Br134	Br	1.298131	0.805795	1.094362
H135	H	1.043388	0.060717	0.382152
H136	H	1.543388	0.560717	0.882152
H137	H	0.830514	-0.435590	0.000059
H138	H	1.330514	0.064410	0.500059
Br139	Br	1.028015	0.076083	0.538540
Br140	Br	1.528015	0.576083	1.038540
H141	H	1.007222	0.096874	0.618017
H142	H	1.507222	0.596874	1.118017
H143	H	1.075321	-0.601084	0.000101
H144	H	1.575321	-0.101084	0.500101
H145	H	0.869890	0.234104	0.485313
H146	H	1.369890	0.734104	0.985313
H147	H	1.014723	0.089378	0.776185
H148	H	1.514723	0.589378	1.276185
Br149	Br	1.128233	-0.432533	0.000086
Br150	Br	1.628233	0.067467	0.500086
Br151	Br	0.757742	-0.035801	0.000059
Br152	Br	1.257742	0.464199	0.500059
H153	H	0.313374	0.322187	0.000070
H154	H	0.813374	0.822187	0.500070
H155	H	0.181306	0.052310	0.000118
H156	H	0.681306	0.552310	0.500118
Br157	Br	0.139830	0.346280	0.000086
Br158	Br	0.639830	0.846280	0.500086
H159	H	1.039175	-0.226059	0.000104
H160	H	1.539175	0.273941	0.500104
H161	H	0.426869	0.076572	0.000125
H162	H	0.926869	0.576572	0.500125
Br163	Br	1.067823	-0.303090	0.000091
Br164	Br	1.567823	0.196910	0.500091
H165	H	0.556315	0.016167	0.000110
H166	H	1.056315	0.516167	0.500110
Br167	Br	0.462581	0.302152	0.000087
Br168	Br	0.962581	0.802152	0.500087
H169	H	1.051710	-0.077285	0.000118
H170	H	1.551710	0.422715	0.500118
H171	H	0.705103	0.028698	0.000086
H172	H	1.205103	0.528698	0.500086
