data_functionalizedCrystal
_audit_creation_method	'MofGen! by Chris Wilmer'
_symmetry_space_group_name_H-M	'P1'
_symmetry_Int_Tables_number	1
_symmetry_cell_setting	triclinic
loop_
_symmetry_equiv_pos_as_xyz
  x,y,z
_cell_length_a	14.044220
_cell_length_b	14.472310
_cell_length_c	14.044220
_cell_angle_alpha	90.001238
_cell_angle_beta	93.188878
_cell_angle_gamma	90.008418
loop_
_atom_site_label
_atom_site_type_symbol
_atom_site_fract_x
_atom_site_fract_y
_atom_site_fract_z
O1	O	1.277180	0.076746	0.230162
O2	O	1.610513	0.410080	0.563495
O3	O	1.943847	0.743413	0.896829
O4	O	1.000508	0.076770	0.221856
O5	O	1.333842	0.410103	0.555190
O6	O	1.667175	0.743436	0.888523
O7	O	1.134691	0.076749	0.087673
O8	O	1.468025	0.410083	0.421007
O9	O	1.801358	0.743416	0.754340
O10	O	1.142997	0.076767	0.364345
O11	O	1.476330	0.410100	0.697678
O12	O	1.809664	0.743433	1.031012
O13	O	1.134654	-0.076933	0.087679
O14	O	1.467988	0.256401	0.421012
O15	O	1.801321	0.589734	0.754345
O16	O	1.000471	-0.076912	0.221862
O17	O	1.333805	0.256421	0.555195
O18	O	1.667138	0.589754	0.888528
O19	O	1.277143	-0.076936	0.230167
O20	O	1.610476	0.256398	0.563501
O21	O	1.943810	0.589731	0.896834
Cu22	Cu	1.138804	-0.090956	0.226015
Cu23	Cu	1.472137	0.242377	0.559348
Cu24	Cu	1.805470	0.575710	0.892682
Cu25	Cu	1.138848	0.090790	0.226009
Cu26	Cu	1.472181	0.424124	0.559342
Cu27	Cu	1.805514	0.757457	0.892675
O28	O	1.142960	-0.076915	0.364350
O29	O	1.476293	0.256418	0.697684
O30	O	1.809627	0.589751	1.031017
C31	C	0.964868	-0.000069	0.218223
C32	C	1.298201	0.333265	0.551557
C33	C	1.631535	0.666598	0.884890
C34	C	0.858725	-0.000060	0.207379
C35	C	1.192059	0.333273	0.540712
C36	C	1.525392	0.666607	0.874045
N37	N	1.138780	-0.218787	0.226019
N38	N	1.472113	0.114546	0.559353
N39	N	1.805447	0.447879	0.892686
C40	C	0.664388	-0.000079	0.187553
C41	C	0.997721	0.333254	0.520886
C42	C	1.331054	0.666587	0.854219
C43	C	0.613258	-0.000078	0.264467
C44	C	0.946591	0.333255	0.597800
C45	C	1.279924	0.666588	0.931134
C46	C	0.505122	-0.000089	0.253435
C47	C	0.838455	0.333244	0.586769
C48	C	1.171788	0.666577	0.920102
C49	C	0.772534	-0.000069	0.198583
C50	C	1.105867	0.333265	0.531916
C51	C	1.439200	0.666598	0.865249
C52	C	1.138846	-0.592879	0.226005
C53	C	1.472179	-0.259545	0.559338
C54	C	1.805513	0.073788	0.892671
C55	C	1.066762	-0.553702	0.297518
C56	C	1.400095	-0.220368	0.630851
C57	C	1.733429	0.112965	0.964185
C58	C	1.066968	-0.446614	0.297819
C59	C	1.400301	-0.113280	0.631152
C60	C	1.733634	0.220053	0.964485
C61	C	1.138812	-0.407287	0.226012
C62	C	1.472146	-0.073954	0.559345
C63	C	1.805479	0.259379	0.892679
C64	C	1.240266	-0.446131	0.256192
C65	C	1.573600	-0.112798	0.589525
C66	C	1.906933	0.220535	0.922859
C67	C	1.239871	-0.553253	0.256710
C68	C	1.573205	-0.219920	0.590044
C69	C	1.906538	0.113414	0.923377
C70	C	1.110345	-0.553412	0.124155
C71	C	1.443678	-0.220079	0.457488
C72	C	1.777012	0.113255	0.790822
C73	C	1.108117	-0.446285	0.124630
C74	C	1.441450	-0.112951	0.457963
C75	C	1.774783	0.220382	0.791296
C76	C	1.138800	-0.302399	0.226015
C77	C	1.472133	0.030934	0.559348
C78	C	1.805466	0.364267	0.892681
C79	C	1.138866	-0.697767	0.226005
C80	C	1.472199	-0.364433	0.559338
C81	C	1.805532	-0.031100	0.892671
C82	C	1.312783	-0.000096	0.233800
C83	C	1.646117	0.333238	0.567134
C84	C	1.979450	0.666571	0.900467
C85	C	1.418926	-0.000098	0.244645
C86	C	1.752259	0.333235	0.577978
C87	C	2.085593	0.666569	0.911312
C88	C	1.131037	-0.000092	0.052054
C89	C	1.464371	0.333241	0.385388
C90	C	1.797704	0.666575	0.718721
C91	C	1.120193	-0.000092	-0.054088
C92	C	1.453526	0.333241	0.279245
C93	C	1.786859	0.666575	0.612578
N94	N	1.138878	0.218621	0.225997
N95	N	1.472212	0.551955	0.559331
N96	N	1.805545	0.885288	0.892664
C97	C	1.100366	-0.000077	-0.248426
C98	C	1.433700	0.333256	0.084907
C99	C	1.767033	0.666590	0.418241
C100	C	1.177281	-0.000081	-0.299556
C101	C	1.510614	0.333253	0.033777
C102	C	1.843947	0.666586	0.367111
C103	C	1.166249	-0.000072	-0.407692
C104	C	1.499582	0.333261	-0.074359
C105	C	1.832916	0.666594	0.258974
C106	C	1.111397	-0.000085	-0.140280
C107	C	1.444730	0.333248	0.193053
C108	C	1.778063	0.666581	0.526387
C109	C	1.146614	-0.000072	0.399969
C110	C	1.479948	0.333261	0.733303
C111	C	1.813281	0.666595	1.066636
C112	C	1.157459	-0.000066	0.506112
C113	C	1.490792	0.333267	0.839446
C114	C	1.824125	0.666601	1.172779
H115	H	0.650697	-0.000069	0.338600
H116	H	0.984030	0.333264	0.671934
H117	H	1.317364	0.666597	1.005267
Br118	Br	1.332577	-0.596451	0.173815
Br119	Br	1.665911	-0.263118	0.507148
Br120	Br	1.999244	0.070216	0.840482
Br121	Br	0.601990	-0.000092	0.063998
Br122	Br	0.935323	0.333241	0.397332
Br123	Br	1.268657	0.666575	0.730665
Br124	Br	0.976812	-0.000059	-0.310824
Br125	Br	1.310145	0.333275	0.022509
Br126	Br	1.643479	0.666608	0.355843
H127	H	0.991826	-0.420352	0.278595
H128	H	1.325160	-0.087019	0.611928
H129	H	1.658493	0.246314	0.945261
Br130	Br	1.300843	-0.000099	-0.237160
Br131	Br	1.634176	0.333234	0.096173
Br132	Br	1.967510	0.666568	0.429506
H133	H	0.991399	-0.579484	0.278487
H134	H	1.324732	-0.246151	0.611821
H135	H	1.658066	0.087182	0.945154
H136	H	1.295538	-0.420656	0.205843
H137	H	1.628871	-0.087323	0.539176
H138	H	1.962205	0.246011	0.872510
H139	H	1.085627	-0.580608	0.372490
H140	H	1.418960	-0.247275	0.705824
H141	H	1.752293	0.086059	1.039157
H142	H	1.086045	-0.420976	0.373224
H143	H	1.419378	-0.087643	0.706558
H144	H	1.752711	0.245691	1.039891
Br145	Br	1.279588	-0.594881	0.380940
Br146	Br	1.612922	-0.261548	0.714274
Br147	Br	1.946255	0.071785	1.047607
H148	H	1.264447	-0.419291	0.329931
H149	H	1.597780	-0.085958	0.663264
H150	H	1.931114	0.247375	0.996597
H151	H	1.033443	-0.420897	0.101922
H152	H	1.366776	-0.087564	0.435255
H153	H	1.700110	0.245770	0.768589
Br154	Br	1.188870	-0.401687	0.030686
Br155	Br	1.522203	-0.068354	0.364019
Br156	Br	1.855537	0.264979	0.697352
Br157	Br	0.988937	-0.598486	0.079286
Br158	Br	1.322270	-0.265152	0.412620
Br159	Br	1.655603	0.068181	0.745953
H160	H	1.162814	-0.578746	0.070838
H161	H	1.496147	-0.245413	0.404171
H162	H	1.829480	0.087920	0.737504
