data_functionalizedCrystal
_audit_creation_method	'MofGen! by Chris Wilmer'
_symmetry_space_group_name_H-M	'P1'
_symmetry_Int_Tables_number	1
_symmetry_cell_setting	triclinic
loop_
_symmetry_equiv_pos_as_xyz
  x,y,z
_cell_length_a	17.019383
_cell_length_b	16.098538
_cell_length_c	17.038272
_cell_angle_alpha	92.920305
_cell_angle_beta	92.753117
_cell_angle_gamma	96.605849
loop_
_atom_site_label
_atom_site_type_symbol
_atom_site_fract_x
_atom_site_fract_y
_atom_site_fract_z
O1	O	1.060268	0.145222	-0.092325
O2	O	0.830675	0.128774	-0.105844
O3	O	0.944107	0.136894	0.014725
O4	O	0.946836	0.137103	-0.212893
O5	O	0.937479	-0.002094	0.007709
O6	O	0.824047	-0.010213	-0.112859
O7	O	1.053640	0.006235	-0.099340
Zn8	Zn	0.937791	-0.024056	-0.107214
Zn9	Zn	0.946524	0.159065	-0.097970
O10	O	0.940208	-0.001885	-0.219909
C11	C	0.797839	0.057166	-0.108975
C12	C	0.709872	0.050864	-0.107844
N13	N	0.931837	-0.149032	-0.113521
C14	C	0.672151	0.123659	-0.103491
C15	C	0.589496	0.117725	-0.102441
C16	C	0.544564	0.038995	-0.105740
C17	C	0.582290	-0.033805	-0.110096
C18	C	0.664944	-0.027871	-0.111151
C19	C	0.294823	0.017287	-0.102751
C20	C	0.212164	0.011358	-0.101693
C21	C	0.219375	0.162889	-0.094040
C22	C	0.302030	0.168816	-0.095091
C23	C	0.339749	0.096016	-0.099451
C24	C	0.460077	0.032928	-0.104665
C25	C	0.424235	0.102083	-0.100532
C26	C	0.980002	-0.189169	-0.062365
C27	C	0.975845	-0.276656	-0.066785
C28	C	0.923526	-0.324003	-0.122366
C29	C	0.875355	-0.283860	-0.173524
C30	C	0.879509	-0.196375	-0.169100
C31	C	0.908467	-0.588331	-0.138391
C32	C	0.904319	-0.675821	-0.142813
C33	C	1.004807	-0.668611	-0.036072
C34	C	1.008960	-0.581125	-0.031656
C35	C	0.960787	-0.540990	-0.082812
C36	C	0.919277	-0.413428	-0.126887
C37	C	0.965032	-0.451566	-0.078287
C38	C	1.086476	0.077845	-0.096209
C39	C	1.174443	0.084153	-0.097340
N40	N	0.952484	0.284041	-0.091656
C41	C	0.938310	0.067222	0.040334
C42	C	0.930905	0.066692	0.127094
C43	C	0.946005	0.067788	-0.245518
C44	C	0.953410	0.068324	-0.332278
C45	C	0.998896	0.071562	0.177509
C46	C	0.991934	0.071071	0.259029
C47	C	0.916979	0.065704	0.290133
C48	C	0.848982	0.060836	0.239712
C49	C	0.855946	0.061333	0.158194
C50	C	0.892378	0.063953	0.535783
C51	C	0.885419	0.063454	0.617307
C52	C	1.028371	0.073691	0.636619
C53	C	1.035328	0.074182	0.555098
C54	C	0.967332	0.069319	0.504684
C55	C	0.909860	0.065200	0.373459
C56	C	0.974452	0.069829	0.421360
H57	H	0.708729	0.187769	-0.100803
Cl58	Cl	0.542078	0.209244	-0.096969
Cl59	Cl	1.030799	-0.392044	-0.008414
Cl60	Cl	0.853507	-0.472954	-0.196760
H61	H	1.015064	-0.309335	-0.025130
Cl62	Cl	1.065362	-0.719071	0.028237
H63	H	0.338609	0.232926	-0.092399
Cl64	Cl	1.068678	0.076580	0.382257
H65	H	0.848831	0.060828	0.398793
Cl66	Cl	0.770467	0.055214	0.094815
Cl67	Cl	0.838541	-0.735339	-0.212693
H68	H	0.832752	-0.322416	-0.218776
H69	H	0.824378	0.059070	0.642627
H70	H	0.188655	0.222158	-0.090492
H71	H	0.787952	0.056472	0.265043
Cl72	Cl	0.155680	-0.087624	-0.105824
H73	H	0.837010	0.059993	0.494745
Cl74	Cl	0.712365	-0.119389	-0.116627
H75	H	1.047300	0.075035	0.300074
H76	H	0.840287	-0.163697	-0.210756
H77	H	1.083730	0.077652	0.677674
H78	H	0.545700	-0.097909	-0.112786
Cl79	Cl	1.093130	0.078301	0.138415
H80	H	0.325524	-0.041993	-0.106296
H81	H	0.423484	-0.031174	-0.107348
Cl82	Cl	1.045782	-0.129655	0.007507
Cl83	Cl	0.480721	0.201054	-0.096388
Cl84	Cl	1.074734	-0.521602	0.038216
H85	H	0.869244	-0.555660	-0.180045
H86	H	1.096364	0.078552	0.529780
