data_functionalizedCrystal
_audit_creation_method	'MofGen! by Chris Wilmer'
_symmetry_space_group_name_H-M	'P1'
_symmetry_Int_Tables_number	1
_symmetry_cell_setting	triclinic
loop_
_symmetry_equiv_pos_as_xyz
  x,y,z
_cell_length_a	16.974829
_cell_length_b	14.750779
_cell_length_c	15.625429
_cell_angle_alpha	120.092833
_cell_angle_beta	82.694513
_cell_angle_gamma	80.912395
loop_
_atom_site_label
_atom_site_type_symbol
_atom_site_fract_x
_atom_site_fract_y
_atom_site_fract_z
O1	O	1.002844	0.216188	0.167965
O2	O	0.775603	0.202456	0.179225
O3	O	0.905798	0.160782	0.030444
O4	O	0.872650	0.257863	0.316746
O5	O	0.942602	-0.010648	-0.011610
O6	O	0.812407	0.031026	0.137171
O7	O	1.039648	0.044758	0.125911
Zn8	Zn	0.931871	0.010674	0.124864
Zn9	Zn	0.883380	0.236540	0.180272
O10	O	0.909454	0.086433	0.274692
C11	C	0.765119	0.114076	0.156986
C12	C	0.679047	0.106130	0.153365
C13	C	0.196700	0.051381	0.130552
C14	C	0.277573	0.058849	0.133955
C15	C	0.297949	0.156029	0.158573
C16	C	0.237445	0.245749	0.179799
C17	C	0.156572	0.238283	0.176403
C18	C	0.537669	0.188383	0.171195
C19	C	0.618550	0.195842	0.174587
C20	C	0.658673	0.008942	0.128744
C21	C	0.577797	0.001482	0.125344
C22	C	0.517299	0.091204	0.146575
N23	N	0.380615	0.163664	0.162049
N24	N	0.434634	0.083570	0.143106
N25	N	0.964971	-0.143473	0.087049
C26	C	0.757848	-0.429025	0.323647
C27	C	0.781048	-0.536943	0.297155
C28	C	0.896353	-0.573790	0.165460
C29	C	0.873161	-0.465874	0.191937
C30	C	0.803909	-0.393499	0.271032
C31	C	0.919222	-0.430348	0.139322
C32	C	0.896034	-0.322440	0.165801
C33	C	0.826786	-0.250058	0.244895
C34	C	0.780721	-0.285591	0.297511
C35	C	0.988477	-0.502723	0.060232
C36	C	1.034537	-0.467197	0.007617
C37	C	1.011346	-0.359289	0.034091
C38	C	0.942098	-0.286907	0.113185
C39	C	1.057411	-0.323756	-0.018525
C40	C	1.034223	-0.215848	0.007954
C41	C	0.918910	-0.178999	0.139664
C42	C	1.050133	0.133141	0.148150
C43	C	1.136203	0.141094	0.151773
N44	N	0.850288	0.390685	0.218079
C45	C	0.926348	0.062469	-0.027260
C46	C	0.932740	0.024932	-0.136545
C47	C	0.853440	0.368667	-0.381365
C48	C	0.859450	0.333363	-0.484063
C49	C	0.899572	0.146482	-0.529894
C50	C	0.893569	0.181771	-0.427198
C51	C	0.870502	0.292865	-0.352941
C52	C	0.910631	0.105968	-0.398774
C53	C	0.904625	0.141255	-0.296087
C54	C	0.881556	0.252344	-0.221824
C55	C	0.864496	0.328151	-0.250254
C56	C	0.933692	-0.005125	-0.473032
C57	C	0.950754	-0.080927	-0.444608
C58	C	0.944753	-0.045641	-0.341920
C59	C	0.921685	0.065448	-0.267657
C60	C	0.961814	-0.121448	-0.313490
C61	C	0.955807	-0.086162	-0.210803
C62	C	0.915679	0.100734	-0.164970
C63	C	0.888903	0.184748	0.332396
C64	C	0.882509	0.222292	0.441684
H65	H	0.807909	-0.162192	0.266456
N66	N	0.174730	-0.053439	0.103990
H67	H	0.225448	-0.109362	0.090380
H68	H	0.131743	-0.040419	0.162713
H69	H	0.918350	0.056029	-0.590366
H70	H	1.113802	-0.382695	-0.082918
N71	N	0.683148	-0.350955	0.408948
H72	H	0.657481	-0.389833	0.438261
H73	H	0.700095	-0.288757	0.464049
H74	H	0.969532	-0.171380	-0.505081
N75	N	0.342817	-0.037924	0.111054
H76	H	0.387982	-0.059341	0.050592
H77	H	0.366487	-0.018583	0.172342
N78	N	0.986695	-0.241265	-0.393585
H79	H	0.941392	-0.261406	-0.430170
H80	H	1.038786	-0.258648	-0.444185
N81	N	0.940167	-0.043202	-0.583791
H82	H	0.885046	-0.016341	-0.592484
H83	H	0.982463	-0.013687	-0.606516
N84	N	0.974203	-0.167914	-0.180135
H85	H	0.989729	-0.243645	-0.242758
H86	H	1.021275	-0.156010	-0.145567
H87	H	0.724324	-0.226662	0.361911
H88	H	1.090925	-0.526136	-0.056780
H89	H	0.561219	-0.077659	0.105275
N90	N	0.723925	-0.087814	0.105862
H91	H	0.707902	-0.109610	0.156104
H92	H	0.729313	-0.150256	0.034380
H93	H	0.107314	0.311337	0.193687
H94	H	0.635133	0.274984	0.194643
H95	H	0.845548	0.395099	-0.507197
H96	H	0.488420	0.261440	0.188480
H97	H	0.896902	0.191198	-0.104505
N98	N	0.259412	0.350569	0.206352
H99	H	0.281360	0.378186	0.269631
H100	H	0.302761	0.337401	0.147873
N101	N	0.844209	-0.100934	0.224966
H102	H	0.852111	-0.095031	0.290396
H103	H	0.836551	-0.027231	0.233663
N104	N	0.731372	-0.575271	0.353904
H105	H	0.731213	-0.531815	0.428545
H106	H	0.673075	-0.565068	0.345984
N107	N	0.971047	-0.651851	0.080158
H108	H	0.978750	-0.725601	0.071367
H109	H	0.963088	-0.657660	0.014784
N110	N	1.083901	-0.177519	-0.048787
H111	H	1.131289	-0.239743	-0.102912
H112	H	1.047710	-0.150170	-0.081911
H113	H	0.876658	0.281072	-0.138209
N114	N	1.013486	-0.619109	0.031675
H115	H	1.012634	-0.668959	-0.041805
H116	H	1.070775	-0.635610	0.040754
H117	H	0.845720	0.418615	-0.189789
H118	H	0.834664	0.459131	-0.320901
