data_functionalizedCrystal
_audit_creation_method	'MofGen! by Chris Wilmer'
_symmetry_space_group_name_H-M	'P1'
_symmetry_Int_Tables_number	1
_symmetry_cell_setting	triclinic
loop_
_symmetry_equiv_pos_as_xyz
  x,y,z
_cell_length_a	19.188933
_cell_length_b	19.188930
_cell_length_c	10.065875
_cell_angle_alpha	98.754308
_cell_angle_beta	81.284263
_cell_angle_gamma	83.145175
loop_
_atom_site_label
_atom_site_type_symbol
_atom_site_fract_x
_atom_site_fract_y
_atom_site_fract_z
O1	O	0.936388	0.076883	-0.113461
O2	O	1.436388	0.576883	0.386539
O3	O	0.733078	0.088614	-0.113476
O4	O	1.233078	0.588614	0.386524
O5	O	0.840598	-0.018904	-0.113441
O6	O	1.340598	0.481096	0.386559
O7	O	0.828868	0.184402	-0.113495
O8	O	1.328868	0.684402	0.386505
O9	O	0.820095	0.001680	0.113541
O10	O	1.320095	0.501680	0.613541
O11	O	0.712575	0.109199	0.113507
O12	O	1.212575	0.609199	0.613507
O13	O	0.915885	0.097467	0.113521
O14	O	1.415885	0.597467	0.613521
Zn15	Zn	0.810975	0.106601	0.149552
Zn16	Zn	1.310975	0.606601	0.649552
Zn17	Zn	0.837988	0.079480	-0.149506
Zn18	Zn	1.337988	0.579480	0.350494
O19	O	0.808366	0.204986	0.113487
O20	O	1.308366	0.704986	0.613487
C21	C	0.696816	0.098526	0.000014
C22	C	1.196816	0.598526	0.500014
C23	C	0.619312	0.097385	0.000010
C24	C	1.119312	0.597385	0.500010
C25	C	0.077231	0.078020	-0.123702
C26	C	0.577231	0.578020	0.376298
C27	C	0.150056	0.079088	-0.123707
C28	C	0.650056	0.579088	0.376293
C29	C	0.175297	0.090846	0.000020
C30	C	0.675297	0.590846	0.500020
C31	C	0.127709	0.101519	0.123762
C32	C	0.627709	0.601519	0.623762
C33	C	0.054886	0.100444	0.123764
C34	C	0.554886	0.600444	0.623764
N35	N	0.275999	0.140615	0.092105
N36	N	0.775999	0.640615	0.592105
N37	N	0.345177	0.141637	0.092095
N38	N	0.845177	0.641637	0.592095
C39	C	0.394705	0.094084	0.000022
C40	C	0.894705	0.594084	0.500022
N41	N	0.372442	0.045477	-0.092062
N42	N	0.872442	0.545477	0.407938
N43	N	0.303257	0.044458	-0.092055
N44	N	0.803257	0.544458	0.407945
C45	C	0.254259	0.092012	0.000032
C46	C	0.754259	0.592012	0.500032
C47	C	0.521250	0.084564	-0.123719
C48	C	1.021250	0.584564	0.376281
C49	C	0.594076	0.085628	-0.123719
C50	C	1.094076	0.585628	0.376281
C51	C	0.571726	0.108066	0.123754
C52	C	1.071726	0.608066	0.623754
C53	C	0.498902	0.106995	0.123751
C54	C	0.998902	0.606995	0.623751
C55	C	0.473668	0.095247	0.000011
C56	C	0.973668	0.595247	0.500011
C57	C	0.829966	-0.034623	0.000054
C58	C	1.329966	0.465377	0.500054
C59	C	0.828824	-0.112126	0.000066
C60	C	1.328824	0.387874	0.500066
C61	C	0.891914	-0.157049	0.000077
C62	C	1.391914	0.342951	0.500077
C63	C	0.890844	-0.229875	0.000055
C64	C	1.390844	0.270125	0.500055
C65	C	0.826679	-0.257772	0.000049
C66	C	1.326679	0.242228	0.500049
C67	C	0.763581	-0.212841	0.000030
C68	C	1.263581	0.287159	0.500030
C69	C	0.764654	-0.140018	0.000039
C70	C	1.264654	0.359982	0.500039
N71	N	0.770654	-0.358773	0.077292
N72	N	1.270654	0.141227	0.577292
N73	N	0.769639	-0.427952	0.077287
N74	N	1.269639	0.072048	0.577287
C75	C	0.823443	-0.477183	0.000021
C76	C	1.323443	0.022817	0.500021
N77	N	0.878309	-0.454623	-0.077222
N78	N	1.378309	0.045377	0.422778
N79	N	0.879326	-0.385437	-0.077211
N80	N	1.379326	0.114563	0.422789
C81	C	0.825509	-0.336736	0.000039
C82	C	1.325509	0.163264	0.500039
C83	C	0.885378	-0.601073	0.000007
C84	C	1.385378	-0.101073	0.500007
C85	C	0.884306	-0.673900	-0.000024
C86	C	1.384306	-0.173900	0.499976
C87	C	0.757040	-0.656863	-0.000034
C88	C	1.257040	-0.156863	0.499966
C89	C	0.758115	-0.584039	-0.000018
C90	C	1.258115	-0.084039	0.499982
C91	C	0.822285	-0.556147	0.000009
C92	C	1.322285	-0.056147	0.500009
C93	C	0.952148	0.087555	0.000029
C94	C	1.452148	0.587555	0.500029
C95	C	1.029653	0.088696	0.000024
C96	C	1.529653	0.588696	0.500024
C97	C	0.818998	0.220704	-0.000011
C98	C	1.318998	0.720704	0.499989
C99	C	0.820140	0.298207	-0.000032
C100	C	1.320140	0.798207	0.499968
N101	N	0.792544	0.125110	0.353652
N102	N	1.292544	0.625110	0.853652
N103	N	0.856425	0.060966	-0.353606
N104	N	1.356425	0.560966	0.146394
C105	C	0.831571	0.085916	0.421443
C106	C	1.331571	0.585916	0.921443
C107	C	0.817392	0.100166	0.578606
C108	C	1.317392	0.600166	1.078606
H109	H	0.460162	0.115691	0.224502
H110	H	0.960162	0.615691	0.724502
C111	C	0.876613	-0.039124	0.377114
C112	C	1.376613	0.460876	0.877114
C113	C	0.890852	0.026385	0.342699
C114	C	1.390852	0.526385	0.842699
H115	H	0.913211	-0.075872	0.328485
H116	H	1.413211	0.424128	0.828485
H117	H	0.874878	-0.037372	0.472386
H118	H	1.374878	0.462628	0.972386
H119	H	0.832095	-0.048558	0.353788
H120	H	1.332095	0.451442	0.853788
H121	H	0.935368	0.035822	0.366035
H122	H	1.435368	0.535822	0.866035
H123	H	0.892595	0.024634	0.247406
H124	H	1.392595	0.524634	0.747406
H125	H	0.148264	0.111091	0.224502
H126	H	0.648264	0.611091	0.724502
H127	H	0.935684	-0.710477	-0.000022
H128	H	1.435684	-0.210477	0.499978
C129	C	0.040111	0.122732	0.368378
C130	C	0.540111	0.622732	0.868378
C131	C	0.002582	0.112187	0.259774
C132	C	0.502582	0.612187	0.759774
H133	H	0.007817	0.129987	0.452343
H134	H	0.507817	0.629987	0.952343
H135	H	0.074423	0.081980	0.363241
H136	H	0.574423	0.581980	0.863241
H137	H	0.063535	0.163390	0.363213
H138	H	0.563535	0.663390	0.863213
H139	H	-0.020838	0.071526	0.264933
H140	H	0.479162	0.571526	0.764933
H141	H	-0.031743	0.152943	0.264913
H142	H	0.468257	0.652943	0.764913
H143	H	0.773476	0.144272	0.636913
H144	H	1.273476	0.644272	1.136913
C145	C	0.901327	-0.064069	0.602522
C146	C	1.401327	0.435931	1.102522
C147	C	0.915689	0.001358	0.567863
C148	C	1.415689	0.501358	1.067863
H149	H	0.937907	-0.100884	0.554082
H150	H	1.437907	0.399116	1.054082
H151	H	0.899520	-0.062216	0.697834
H152	H	1.399520	0.437784	1.197834
H153	H	0.856816	-0.073481	0.579132
H154	H	1.356816	0.426519	1.079132
H155	H	0.960198	0.010773	0.591262
H156	H	1.460198	0.510773	1.091262
H157	H	0.917504	-0.000493	0.472529
H158	H	1.417504	0.499507	0.972529
C159	C	0.550653	0.062492	-0.368333
C160	C	1.050653	0.562492	0.131667
C161	C	0.493507	0.071646	-0.259729
C162	C	0.993507	0.571646	0.240271
H163	H	0.533526	0.054514	-0.452299
H164	H	1.033526	0.554514	0.047701
H165	H	0.573145	0.104078	-0.363193
H166	H	1.073145	0.604078	0.136807
H167	H	0.584038	0.022668	-0.363172
H168	H	1.084038	0.522668	0.136828
H169	H	0.460124	0.111474	-0.264885
H170	H	0.960124	0.611474	0.235115
H171	H	0.471004	0.030055	-0.264872
H172	H	0.971004	0.530055	0.235128
H173	H	0.713277	-0.103441	0.000030
H174	H	1.213277	0.396559	0.500030
H175	H	0.748632	0.169213	0.411964
H176	H	1.248632	0.669213	0.911964
H177	H	0.056691	0.068451	-0.224461
H178	H	0.556691	0.568451	0.275539
C179	C	0.658781	-0.675330	-0.116734
C180	C	1.158781	-0.175330	0.383266
C181	C	0.686507	-0.687520	-0.000047
C182	C	1.186507	-0.187520	0.499953
H183	H	0.615238	-0.694263	-0.116747
H184	H	1.115238	-0.194263	0.383253
H185	H	0.650391	-0.625534	-0.116715
H186	H	1.150391	-0.125534	0.383285
H187	H	0.691907	-0.697938	-0.195876
H188	H	1.191907	-0.197938	0.304124
H189	H	0.653383	-0.664907	0.079096
H190	H	1.153383	-0.164907	0.579096
H191	H	0.694894	-0.737325	-0.000053
H192	H	1.194894	-0.237325	0.499947
H193	H	0.188801	0.070398	-0.224463
H194	H	0.688801	0.570398	0.275537
H195	H	0.706739	-0.547461	-0.000019
H196	H	1.206739	-0.047461	0.499981
C197	C	0.705429	-0.316908	0.000034
C198	C	1.205429	0.183092	0.500034
C199	C	0.693049	-0.243502	0.000030
C200	C	1.193049	0.256498	0.500030
H201	H	0.661882	-0.335834	0.000038
H202	H	1.161882	0.164166	0.500038
H203	H	0.738542	-0.339509	-0.079112
H204	H	1.238542	0.160491	0.420888
H205	H	0.724247	-0.325161	0.079196
H206	H	1.224247	0.174839	0.579196
H207	H	0.674235	-0.235249	-0.079138
H208	H	1.174235	0.264751	0.420862
H209	H	0.659923	-0.220894	0.079184
H210	H	1.159923	0.279106	0.579184
C211	C	0.977494	-0.095614	-0.116591
C212	C	1.477494	0.404386	0.383409
C213	C	0.962451	-0.126393	0.000087
C214	C	1.462451	0.373607	0.500087
H215	H	1.021039	-0.076685	-0.116581
H216	H	1.521039	0.423315	0.383419
H217	H	0.981580	-0.130840	-0.195731
H218	H	1.481580	0.369160	0.304269
H219	H	0.940070	-0.058433	-0.116578
H220	H	1.440070	0.441567	0.383422
H221	H	0.999873	-0.163578	0.000069
H222	H	1.499873	0.336422	0.500069
H223	H	0.958370	-0.091164	0.079247
H224	H	1.458370	0.408836	0.579247
C225	C	0.952913	-0.311084	0.116758
C226	C	1.452913	0.188916	0.616758
C227	C	0.960196	-0.279265	0.000077
C228	C	1.460196	0.220735	0.500077
H229	H	0.995726	-0.341577	0.116766
H230	H	1.495726	0.158423	0.616766
H231	H	0.943537	-0.275149	0.195896
H232	H	1.443537	0.224851	0.695896
H233	H	0.914541	-0.338116	0.116728
H234	H	1.414541	0.161884	0.616728
H235	H	0.998564	-0.252229	0.000112
H236	H	1.498564	0.247771	0.500112
H237	H	0.969580	-0.315205	-0.079082
H238	H	1.469580	0.184795	0.420918
C239	C	0.715629	0.077309	-0.233605
C240	C	1.215629	0.577309	0.266395
C241	C	0.646379	0.073891	-0.259729
C242	C	1.146379	0.573891	0.240271
H243	H	0.747918	0.070060	-0.317575
H244	H	1.247918	0.570060	0.182425
H245	H	0.717522	0.122794	-0.182775
H246	H	1.217522	0.622794	0.317225
H247	H	0.728413	0.041382	-0.182766
H248	H	1.228413	0.541382	0.317234
H249	H	0.633593	0.109822	-0.310560
H250	H	1.133593	0.609822	0.189440
H251	H	0.644484	0.028400	-0.310581
H252	H	1.144484	0.528400	0.189419
C253	C	0.673429	0.119676	0.233634
C254	C	1.173429	0.619676	0.733634
C255	C	0.599462	0.120988	0.259760
C256	C	1.099462	0.620988	0.759760
H257	H	0.690553	0.127655	0.317603
H258	H	1.190553	0.627655	0.817603
H259	H	0.695397	0.074541	0.182809
H260	H	1.195397	0.574541	0.682809
H261	H	0.684500	0.155951	0.182788
H262	H	1.184500	0.655951	0.682788
H263	H	0.588392	0.084709	0.310597
H264	H	1.088392	0.584709	0.810597
H265	H	0.577488	0.166129	0.310607
H266	H	1.077488	0.666129	0.810607
C267	C	1.011069	-0.625228	-0.000017
C268	C	1.511069	-0.125228	0.499983
C269	C	0.955914	-0.570412	0.000003
C270	C	1.455914	-0.070412	0.500003
H271	H	1.054615	-0.606300	-0.000032
H272	H	1.554615	-0.106300	0.499968
H273	H	1.000860	-0.646106	0.079129
H274	H	1.500860	-0.146106	0.579129
H275	H	1.015142	-0.660448	-0.079179
H276	H	1.515142	-0.160448	0.420821
H277	H	0.951837	-0.535194	0.079170
H278	H	1.451837	-0.035194	0.579170
H279	H	0.966125	-0.549523	-0.079151
H280	H	1.466125	-0.049523	0.420849
