data_functionalizedCrystal
_audit_creation_method	'MofGen! by Chris Wilmer'
_symmetry_space_group_name_H-M	'P1'
_symmetry_Int_Tables_number	1
_symmetry_cell_setting	triclinic
loop_
_symmetry_equiv_pos_as_xyz
  x,y,z
_cell_length_a	6.817900
_cell_length_b	15.866870
_cell_length_c	16.015572
_cell_angle_alpha	95.305972
_cell_angle_beta	104.485554
_cell_angle_gamma	102.655915
loop_
_atom_site_label
_atom_site_type_symbol
_atom_site_fract_x
_atom_site_fract_y
_atom_site_fract_z
V1	V	-3.996844	-0.034800	-0.280476
O2	O	-3.966447	0.088700	-0.236015
O3	O	-3.966340	-0.152703	-0.316185
O4	O	-3.927287	0.003921	-0.385636
O5	O	-4.005770	-0.069009	-0.166083
V6	V	-4.480895	-0.024540	-0.262223
O7	O	-4.256945	-0.057306	-0.320516
O8	O	-4.670991	-0.002034	-0.222183
O9	O	-4.288193	0.093362	-0.226515
O10	O	-4.628689	-0.148040	-0.306685
O11	O	-4.589366	0.009668	-0.376616
O12	O	-4.327246	-0.063262	-0.157064
C13	C	-3.816378	-0.182638	-0.321469
C14	C	-3.872583	-0.278779	-0.351366
C15	C	-3.917279	-0.657597	-0.074048
C16	C	-3.970096	-0.747931	-0.102166
C17	C	-4.026156	-0.722870	-0.252428
C18	C	-3.973333	-0.632531	-0.224321
C19	C	-3.918899	-0.599902	-0.135131
C20	C	-3.974953	-0.574837	-0.285404
C21	C	-3.922145	-0.484506	-0.257300
C22	C	-3.867716	-0.451870	-0.168113
C23	C	-3.866091	-0.509571	-0.107027
C24	C	-4.029402	-0.607468	-0.374595
C25	C	-4.031022	-0.549773	-0.435678
C26	C	-3.978199	-0.459441	-0.407574
C27	C	-3.923770	-0.426804	-0.318387
C28	C	-3.979824	-0.401739	-0.468660
C29	C	-3.927016	-0.311408	-0.440556
C30	C	-3.870962	-0.336474	-0.290283
C31	C	-3.766562	0.017152	-0.410059
C32	C	-3.791093	0.048031	-0.496274
C33	C	-4.121327	-0.226050	-0.961199
C34	C	-4.144378	-0.197007	-1.042199
C35	C	-4.044584	-0.046745	-0.969635
C36	C	-4.021514	-0.075776	-0.888628
C37	C	-4.059892	-0.165429	-0.884418
C38	C	-3.960078	-0.015155	-0.811846
C39	C	-3.937021	-0.044184	-0.730846
C40	C	-3.975400	-0.133834	-0.726628
C41	C	-4.036835	-0.194459	-0.803418
C42	C	-3.921715	0.074498	-0.816058
C43	C	-3.860280	0.135118	-0.739276
C44	C	-3.837207	0.106090	-0.658274
C45	C	-3.875586	0.016440	-0.654056
C46	C	-3.775772	0.166714	-0.581484
C47	C	-3.752715	0.137685	-0.500484
C48	C	-3.852529	-0.012589	-0.573056
C49	C	-4.101498	0.123292	-0.221230
C50	C	-4.024530	0.219434	-0.191339
C51	C	-4.151314	-0.076497	-0.132637
C52	C	-4.106021	-0.107372	-0.046420
H53	H	-4.070490	-0.749450	-0.325048
H54	H	-4.152551	-0.299054	-0.957772
N55	N	-4.003185	0.049947	-0.974188
H56	H	-3.853597	0.079729	-0.940610
H57	H	-4.101220	0.075686	-0.947865
N58	N	-3.734393	0.263406	-0.586040
H59	H	-3.584807	0.293194	-0.552464
H60	H	-3.832436	0.289139	-0.559717
H61	H	-4.024171	-0.428320	-0.541280
H62	H	-3.821734	-0.483003	-0.034398
H63	H	-3.968765	-0.794905	-0.052418
N64	N	-3.810734	-0.354440	-0.137807
H65	H	-3.663229	-0.335540	-0.097948
H66	H	-3.910902	-0.339727	-0.105169
H67	H	-4.194399	-0.246378	-1.104718
H68	H	-4.075357	-0.576353	-0.508298
N69	N	-3.928771	-0.249173	-0.506434
H70	H	-3.971262	-0.283550	-0.567200
H71	H	-3.784302	-0.209078	-0.494452
N72	N	-4.086380	-0.704896	-0.404912
H73	H	-3.964321	-0.729511	-0.378598
H74	H	-4.121168	-0.716737	-0.470683
H75	H	-4.068059	-0.267463	-0.799991
H76	H	-3.883753	-0.085593	-0.569629
H77	H	-3.956629	-0.157468	-0.660671
H78	H	-3.940461	0.098131	-0.882015
H79	H	-3.829045	0.208115	-0.742717
N80	N	-3.686437	0.203051	-0.417654
H81	H	-3.792370	0.238968	-0.419494
H82	H	-3.544835	0.242879	-0.412305
N83	N	-3.812239	-0.301273	-0.194083
H84	H	-3.932950	-0.324539	-0.169716
H85	H	-3.778998	-0.235297	-0.185625
N86	N	-3.858554	-0.622393	0.022151
H87	H	-3.865534	-0.672648	0.056587
H88	H	-3.959214	-0.587531	0.033487
