data_functionalizedCrystal
_audit_creation_method	'MofGen! by Chris Wilmer'
_symmetry_space_group_name_H-M	'P1'
_symmetry_Int_Tables_number	1
_symmetry_cell_setting	triclinic
loop_
_symmetry_equiv_pos_as_xyz
  x,y,z
_cell_length_a	27.435584
_cell_length_b	27.434948
_cell_length_c	27.431174
_cell_angle_alpha	60.005483
_cell_angle_beta	60.011353
_cell_angle_gamma	59.993028
loop_
_atom_site_label
_atom_site_type_symbol
_atom_site_fract_x
_atom_site_fract_y
_atom_site_fract_z
O1	O	0.067437	-0.712144	0.595551
O2	O	0.025356	-0.554453	0.479848
O3	O	0.125206	-0.654236	0.479781
O4	O	-0.032412	-0.612361	0.595618
O5	O	0.158328	-0.621117	0.512835
O6	O	0.058479	-0.521333	0.512902
O7	O	0.100560	-0.679025	0.628605
Zn8	Zn	0.084778	-0.594921	0.576001
Zn9	Zn	0.041138	-0.638557	0.532452
O10	O	0.000710	-0.579241	0.628672
N11	N	0.114563	-0.565144	0.605726
N12	N	0.011358	-0.668338	0.502727
C13	C	0.156385	-0.523520	0.904506
C14	C	0.413419	-0.523497	0.647322
C15	C	0.156253	-0.523488	0.647384
C16	C	0.156238	-0.266354	0.647407
C17	C	0.197637	-0.390463	0.688753
C18	C	0.197646	-0.482126	0.688741
C19	C	0.220575	-0.459215	0.711654
C20	C	0.320555	-0.441991	0.659023
C21	C	0.383051	-0.462825	0.638179
C22	C	0.383069	-0.563942	0.676737
C23	C	0.320575	-0.543107	0.697583
C24	C	0.212704	-0.359206	0.627313
C25	C	0.191849	-0.296705	0.606496
C26	C	0.140866	-0.296722	0.708562
C27	C	0.161721	-0.359223	0.729379
C28	C	0.136200	-0.467030	0.703858
C29	C	0.115361	-0.487857	0.683021
C30	C	0.217408	-0.538877	0.631968
C31	C	0.238249	-0.518050	0.652796
C32	C	0.136259	-0.467047	0.811668
C33	C	0.115461	-0.487892	0.874167
C34	C	0.217537	-0.538923	0.874131
C35	C	0.238333	-0.518080	0.811631
C36	C	0.197693	-0.482140	0.780401
C37	C	0.289320	-0.482131	0.688723
C38	C	0.132699	-0.546027	0.973247
C39	C	0.482158	-0.545613	0.624075
C40	C	0.132521	-0.546006	0.624886
C41	C	0.132917	-0.197607	0.625310
C42	C	-0.098217	-0.686189	0.484419
C43	C	-0.006438	-0.686322	0.392891
C44	C	-0.006621	-0.777944	0.484592
C45	C	-0.006606	-0.686315	0.484649
C46	C	-0.029470	-0.709193	0.461638
N47	N	0.538410	-0.565162	0.605628
O48	O	0.742647	-0.575135	0.458625
O49	O	0.742821	-0.691181	0.616169
O50	O	0.742757	-0.690917	0.516248
O51	O	0.742711	-0.575399	0.558546
O52	O	0.643472	-0.657878	0.549405
O53	O	0.643536	-0.658142	0.649326
O54	O	0.643362	-0.542096	0.491782
Zn55	Zn	0.627685	-0.594873	0.575818
Zn56	Zn	0.758498	-0.638404	0.532133
O57	O	0.643426	-0.542360	0.591702
N58	N	0.847774	-0.668115	0.502317
N59	N	0.114542	-0.141354	0.605766
O60	O	-0.032397	0.062987	0.595660
O61	O	0.125155	0.062987	0.479633
O62	O	0.025219	0.062974	0.479910
O63	O	0.067539	0.063001	0.595383
O64	O	0.058343	-0.036320	0.513009
O65	O	0.158279	-0.036306	0.512732
O66	O	0.000728	-0.036306	0.628759
Zn67	Zn	0.084763	-0.052071	0.576000
Zn68	Zn	0.041120	0.078752	0.532392
O69	O	0.100664	-0.036292	0.628482
N70	N	0.011333	0.168036	0.502628
N71	N	0.114782	-0.565197	1.029501
O72	O	0.104681	-0.712124	1.233827
O73	O	-0.011334	-0.554523	1.233839
O74	O	-0.011066	-0.654443	1.233797
O75	O	0.104414	-0.612204	1.233869
O76	O	0.022028	-0.621336	1.134509
O77	O	0.021760	-0.521417	1.134551
O78	O	0.137775	-0.679018	1.134539
Zn79	Zn	0.085022	-0.594961	1.118780
Zn80	Zn	0.041420	-0.638580	1.249597
O81	O	0.137508	-0.579098	1.134580
N82	N	0.011658	-0.668350	1.338876
C83	C	0.037974	-0.518023	0.480435
C84	C	0.161625	-0.641592	0.480351
C85	C	0.087941	-0.715455	0.628017
C86	C	-0.035710	-0.591885	0.628101
C87	C	0.693199	-0.690642	0.652596
C88	C	0.693122	-0.690315	0.528855
C89	C	0.692981	-0.542634	0.455356
C90	C	0.693062	-0.542961	0.579095
C91	C	0.161524	0.013463	0.480164
C92	C	0.037807	0.013324	0.480547
C93	C	-0.035683	0.013341	0.628188
C94	C	0.088076	0.013357	0.627845
C95	C	-0.010764	-0.518114	1.184196
C96	C	-0.010426	-0.641846	1.184125
C97	C	0.137205	-0.715426	1.184182
C98	C	0.136875	-0.591687	1.184231
H99	H	0.103160	-0.437777	0.786243
O100	O	-0.089663	0.013425	0.671668
C101	C	-0.177273	0.064899	0.736916
C102	C	-0.116146	0.064869	0.687685
H103	H	-0.198708	0.106493	0.749871
H104	H	-0.171013	0.023379	0.777666
H105	H	-0.207371	0.064863	0.719625
H106	H	-0.086017	0.064926	0.704920
H107	H	-0.122451	0.106385	0.646945
O108	O	0.693034	-0.733557	0.518068
C109	C	0.641614	-0.762059	0.491773
C110	C	0.641632	-0.713043	0.503988
H111	H	0.600066	-0.745488	0.480374
H112	H	0.641627	-0.803770	0.533167
H113	H	0.683166	-0.773194	0.452690
H114	H	0.600088	-0.701857	0.543050
H115	H	0.641650	-0.671363	0.462563
O116	O	0.098650	-0.769539	0.671317
C117	C	0.124857	-0.875758	0.699936
C118	C	0.112731	-0.814545	0.650854
H119	H	0.136256	-0.912163	0.683405
H120	H	0.083425	-0.875998	0.741602
H121	H	0.163912	-0.884431	0.711125
H122	H	0.073696	-0.805833	0.639613
H123	H	0.154193	-0.814335	0.609219
H124	H	-0.080982	-0.582959	0.664476
H125	H	-0.046689	-0.650868	1.184063
H126	H	0.693242	-0.727072	0.697844
O127	O	0.180144	-0.580975	1.184353
C128	C	0.245297	-0.609730	1.235791
C129	C	0.196287	-0.621917	1.235736
H130	H	0.258373	-0.642832	1.277324
H131	H	0.227813	-0.562307	1.235839
H132	H	0.286021	-0.615054	1.194222
H133	H	0.155547	-0.616626	1.277298
H134	H	0.213819	-0.669335	1.235657
O135	O	-0.054162	-0.464093	1.184225
C136	C	-0.081902	-0.365732	1.184215
C137	C	-0.032706	-0.426889	1.184197
H138	H	-0.064569	-0.335631	1.184180
H139	H	-0.122620	-0.371961	1.225768
H140	H	-0.094928	-0.344315	1.142664
H141	H	-0.019630	-0.448339	1.225720
H142	H	0.007979	-0.420621	1.142616
H143	H	0.097136	0.013366	0.664120
H144	H	0.173631	-0.760687	1.184171
O145	O	0.692940	-0.499239	0.401340
C146	C	0.692812	-0.471465	0.303021
C147	C	0.692874	-0.520666	0.364161
H148	H	0.692746	-0.488766	0.272949
H149	H	0.734349	-0.458418	0.281522
H150	H	0.651248	-0.430764	0.309347
H151	H	0.734410	-0.561399	0.357888
H152	H	0.651310	-0.533663	0.385640
H153	H	0.065433	-0.475593	0.899616
H154	H	0.693053	-0.506675	0.588146
H155	H	0.206679	0.013739	0.443646
O156	O	0.026920	0.013271	0.437347
C157	C	-0.044022	0.013254	0.410056
C158	C	-0.031771	0.013311	0.459033
H159	H	-0.091477	0.013299	0.427566
H160	H	-0.011003	-0.028320	0.397030
H161	H	-0.038664	0.054788	0.369293
H162	H	-0.037138	-0.028194	0.499828
H163	H	-0.064788	0.054913	0.472008
H164	H	0.250633	-0.568176	0.899553
O165	O	0.215628	-0.652334	0.436971
C166	C	0.287493	-0.712704	0.373971
C167	C	0.226331	-0.700612	0.423109
H168	H	0.296160	-0.751728	0.362739
H169	H	0.323962	-0.724084	0.390408
H170	H	0.287618	-0.671216	0.332353
H171	H	0.226148	-0.742079	0.464744
H172	H	0.189888	-0.689207	0.406623
O173	O	0.027320	-0.463960	0.437096
C174	C	0.056170	-0.376215	0.371856
C175	C	0.068292	-0.437423	0.420945
H176	H	0.089296	-0.354748	0.358774
H177	H	0.008762	-0.346165	0.389266
H178	H	0.061503	-0.382441	0.331152
H179	H	0.062992	-0.431254	0.461665
H180	H	0.115695	-0.467452	0.403487
H181	H	0.288361	-0.530376	0.786177
H182	H	0.065328	-0.475552	0.695316
O183	O	0.096733	-0.432047	0.738681
C184	C	0.015840	-0.340075	0.746708
C185	C	0.060515	-0.379628	0.707200
H186	H	-0.013462	-0.297692	0.721277
H187	H	0.041256	-0.327732	0.758994
H188	H	-0.013376	-0.365547	0.789126
H189	H	0.089742	-0.354193	0.664757
H190	H	0.035062	-0.391975	0.694963
O191	O	0.256933	-0.573749	0.597040
C192	C	0.360354	-0.622188	0.548635
C193	C	0.315655	-0.582681	0.588185
H194	H	0.407840	-0.629432	0.541473
H195	H	0.353176	-0.599290	0.503660
H196	H	0.353131	-0.667129	0.571529
H197	H	0.322851	-0.537733	0.565344
H198	H	0.322845	-0.605626	0.633158
H199	H	0.288283	-0.530335	0.640482
H200	H	0.408519	-0.613593	0.683941
O201	O	0.290204	-0.582090	0.726527
C202	C	0.219652	-0.623811	0.817323
C203	C	0.254019	-0.579651	0.784618
H204	H	0.190378	-0.621845	0.864291
H205	H	0.252700	-0.670988	0.820120
H206	H	0.190402	-0.611261	0.791748
H207	H	0.283269	-0.592146	0.810166
H208	H	0.220938	-0.532485	0.781815
O209	O	0.413365	-0.423795	0.609236
C210	C	0.432420	-0.337141	0.525020
C211	C	0.398061	-0.381310	0.557731
H212	H	0.420049	-0.302774	0.483378
H213	H	0.482463	-0.362470	0.511595
H214	H	0.420151	-0.313457	0.555901
H215	H	0.410280	-0.405007	0.526883
H216	H	0.348026	-0.355950	0.571165
O217	O	0.290131	-0.382783	0.650522
C218	C	0.219614	-0.307153	0.696575
C219	C	0.254022	-0.374224	0.706287
H220	H	0.190422	-0.300210	0.741652
H221	H	0.190296	-0.289532	0.669136
H222	H	0.252689	-0.282055	0.671740
H223	H	0.220990	-0.399371	0.731138
H224	H	0.283349	-0.391798	0.733701
O225	O	0.105967	-0.266465	0.748105
C226	C	0.057646	-0.273075	0.851538
C227	C	0.097162	-0.307414	0.806822
H228	H	0.050526	-0.306167	0.899021
H229	H	0.012653	-0.243834	0.844403
H230	H	0.080543	-0.243794	0.844289
H231	H	0.074318	-0.336727	0.814044
H232	H	0.142154	-0.336617	0.813968
H233	H	0.204115	-0.271255	0.556464
O234	O	0.247562	-0.389461	0.587771
C235	C	0.295946	-0.382847	0.484336
C236	C	0.256455	-0.348510	0.529054
H237	H	0.303159	-0.349753	0.436854
H238	H	0.273056	-0.412091	0.491500
H239	H	0.340898	-0.412124	0.491555
H240	H	0.211496	-0.319201	0.521863
H241	H	0.279392	-0.319303	0.521880
H242	H	0.149444	-0.384673	0.779411
