data_functionalizedCrystal
_audit_creation_method	'MofGen! by Chris Wilmer'
_symmetry_space_group_name_H-M	'P1'
_symmetry_Int_Tables_number	1
_symmetry_cell_setting	triclinic
loop_
_symmetry_equiv_pos_as_xyz
  x,y,z
_cell_length_a	21.295417
_cell_length_b	13.897449
_cell_length_c	21.295411
_cell_angle_alpha	89.973954
_cell_angle_beta	89.978356
_cell_angle_gamma	90.031333
loop_
_atom_site_label
_atom_site_type_symbol
_atom_site_fract_x
_atom_site_fract_y
_atom_site_fract_z
Zn1	Zn	-0.250667	1.474642	-0.355936
Zn2	Zn	0.249333	1.974642	0.144064
Zn3	Zn	-0.355919	1.474492	-0.250662
Zn4	Zn	0.144081	1.974492	0.249338
Zn5	Zn	-0.250669	1.313324	-0.250679
Zn6	Zn	0.249331	1.813324	0.249321
Zn7	Zn	-0.355904	1.313277	-0.355891
Zn8	Zn	0.144096	1.813277	0.144109
O9	O	-0.303290	1.393934	-0.303292
O10	O	0.196710	1.893934	0.196708
O11	O	-0.264634	1.609604	-0.341983
O12	O	0.235366	2.109604	0.158017
O13	O	-0.341964	1.453070	-0.162575
O14	O	0.158036	1.953070	0.337425
O15	O	-0.162579	1.334805	-0.264667
O16	O	0.337421	1.834805	0.235333
O17	O	-0.341962	1.609494	-0.264639
O18	O	0.158038	2.109494	0.235361
O19	O	-0.162578	1.453325	-0.342000
O20	O	0.337422	1.953325	0.158000
O21	O	-0.264638	1.334660	-0.162587
O22	O	0.235362	1.834660	0.337413
O23	O	-0.264623	1.178336	-0.264623
O24	O	0.235377	1.678336	0.235377
O25	O	-0.341937	1.334725	-0.443986
O26	O	0.158063	1.834725	0.056014
O27	O	-0.341939	1.178301	-0.341922
O28	O	0.158061	1.678301	0.158078
O29	O	-0.264620	1.453279	-0.444020
O30	O	0.235380	1.953279	0.055980
O31	O	-0.444006	1.453025	-0.264594
O32	O	0.055994	1.953025	0.235406
O33	O	-0.443995	1.334580	-0.341906
O34	O	0.056005	1.834580	0.158094
C35	C	-0.303280	1.143319	-0.303270
C36	C	0.196720	1.643319	0.196730
C37	C	-0.303291	1.036105	-0.303275
C38	C	0.196709	1.536105	0.196725
C39	C	-0.303293	0.949036	-0.303286
C40	C	0.196707	1.449036	0.196714
C41	C	-0.303298	0.839803	-0.303305
C42	C	0.196702	1.339803	0.196695
C43	C	-0.466841	1.393807	-0.303257
C44	C	0.033159	1.893807	0.196743
C45	C	-0.536809	1.393841	-0.303263
C46	C	-0.036809	1.893841	0.196737
C47	C	-0.569661	1.455570	-0.263048
C48	C	-0.069661	1.955570	0.236952
C49	C	-0.635403	1.455615	-0.263063
C50	C	-0.135403	1.955615	0.236937
C51	C	-0.668292	1.393915	-0.303285
C52	C	-0.168292	1.893915	0.196715
C53	C	-0.635432	1.332181	-0.343507
C54	C	-0.135432	1.832181	0.156493
C55	C	-0.569691	1.332145	-0.343497
C56	C	-0.069691	1.832145	0.156503
N57	N	-0.771559	1.309534	-0.308076
N58	N	-0.271559	1.809534	0.191924
N59	N	-0.834011	1.309571	-0.308083
N60	N	-0.334011	1.809571	0.191917
C61	C	-0.866367	1.394023	-0.303321
C62	C	-0.366367	1.894023	0.196679
N63	N	-0.833912	1.478437	-0.298540
N64	N	-0.333912	1.978437	0.201460
N65	N	-0.771455	1.478398	-0.298530
N66	N	-0.271455	1.978398	0.201470
C67	C	-0.739577	1.393948	-0.303301
C68	C	-0.239577	1.893948	0.196699
C69	C	-0.970504	1.455806	-0.263119
C70	C	-0.470504	1.955806	0.236881
C71	C	-1.036247	1.455853	-0.263138
C72	C	-0.536247	1.955853	0.236862
C73	C	-1.036275	1.332410	-0.343580
C74	C	-0.536275	1.832410	0.156420
C75	C	-0.970533	1.332372	-0.343564
C76	C	-0.470533	1.832372	0.156436
C77	C	-0.937651	1.394068	-0.303331
C78	C	-0.437651	1.894068	0.196669
C79	C	-0.139099	1.394087	-0.303341
C80	C	0.360901	1.894087	0.196659
C81	C	-0.069131	1.394152	-0.303361
C82	C	0.430869	1.894152	0.196639
C83	C	-0.303276	1.394014	-0.467482
C84	C	0.196724	1.894014	0.032518
C85	C	-0.303271	1.394048	-0.537450
C86	C	0.196729	1.894048	-0.037450
C87	C	-0.303300	1.645527	-0.303314
C88	C	0.196700	2.145527	0.196686
C89	C	-0.303304	1.752741	-0.303324
C90	C	0.196696	2.252741	0.196676
C91	C	-0.263010	1.455776	-0.570335
C92	C	0.236990	1.955776	-0.070335
C93	C	-0.262983	1.455775	-0.636078
C94	C	0.237017	1.955775	-0.136078
C95	C	-0.303227	1.394055	-0.668933
C96	C	0.196773	1.894055	-0.168933
C97	C	-0.343491	1.332315	-0.636040
C98	C	0.156509	1.832315	-0.136040
C99	C	-0.343513	1.332311	-0.570299
C100	C	0.156487	1.832311	-0.070299
N101	N	-0.358295	1.386613	-0.772148
N102	N	0.141705	1.886613	-0.272148
N103	N	-0.358273	1.386622	-0.834600
N104	N	0.141727	1.886622	-0.334600
C105	C	-0.303164	1.394061	-0.867008
C106	C	0.196836	1.894061	-0.367008
N107	N	-0.248076	1.401510	-0.834605
N108	N	0.251924	1.901510	-0.334605
N109	N	-0.248099	1.401505	-0.772148
N110	N	0.251901	1.901505	-0.272148
C111	C	-0.303208	1.394052	-0.740218
C112	C	0.196792	1.894052	-0.240218
C113	C	-0.262870	1.455792	-0.971178
C114	C	0.237130	1.955792	-0.471178
C115	C	-0.262841	1.455784	-1.036922
C116	C	0.237159	1.955784	-0.536922
C117	C	-0.343355	1.332328	-1.036883
C118	C	0.156645	1.832328	-0.536883
C119	C	-0.343378	1.332332	-0.971140
C120	C	0.156622	1.832332	-0.471140
C121	C	-0.303136	1.394068	-0.938292
C122	C	0.196864	1.894068	-0.438292
C123	C	-0.303258	1.393909	-0.139740
C124	C	0.196742	1.893909	0.360260
C125	C	-0.303086	1.394062	-0.069773
C126	C	0.196914	1.894062	0.430227
H127	H	-0.542890	1.505809	-0.230290
H128	H	-0.042890	2.005809	0.269710
H129	H	-0.662156	1.505886	-0.230315
H130	H	-0.162156	2.005886	0.269685
C131	C	-0.934395	1.264484	-0.387817
C132	C	-0.434395	1.764484	0.112183
N133	N	-0.907176	1.213358	-0.421158
N134	N	-0.407176	1.713358	0.078842
C135	C	-0.671611	1.264307	-0.387750
C136	C	-0.171611	1.764307	0.112250
N137	N	-0.698861	1.213182	-0.421075
N138	N	-0.198861	1.713182	0.078925
H139	H	-1.063052	1.282176	-0.376332
H140	H	-0.563052	1.782176	0.123668
H141	H	-0.230241	1.506046	-0.543594
H142	H	0.269759	2.006046	-0.043594
C143	C	-0.218548	1.523692	-1.073096
C144	C	0.281452	2.023692	-0.573096
N145	N	-0.185185	1.574843	-1.100342
N146	N	0.314815	2.074843	-0.600342
C147	C	-0.533553	1.264247	-0.387746
C148	C	-0.033553	1.764247	0.112254
N149	N	-0.506334	1.213109	-0.421078
N150	N	-0.006334	1.713109	0.078922
C151	C	-0.218695	1.523690	-0.672259
C152	C	0.281305	2.023690	-0.172259
N153	N	-0.185339	1.574846	-0.699509
N154	N	0.314661	2.074846	-0.199509
C155	C	-0.387806	1.264404	-0.534124
C156	C	0.112194	1.764404	-0.034124
N157	N	-0.421170	1.213257	-0.506876
N158	N	0.078830	1.713257	-0.006876
C159	C	-0.387626	1.264436	-1.073019
C160	C	0.112374	1.764436	-0.573019
N161	N	-0.420971	1.213298	-1.100241
N162	N	0.079029	1.713298	-0.600241
C163	C	-0.934331	1.523687	-0.218872
C164	C	-0.434331	2.023687	0.281128
N165	N	-0.907088	1.574819	-0.185546
N166	N	-0.407088	2.074819	0.314454
C167	C	-1.072384	1.523762	-0.218896
C168	C	-0.572384	2.023762	0.281104
N169	N	-1.099602	1.574911	-0.185570
N170	N	-0.599602	2.074911	0.314430
H171	H	-0.376257	1.282059	-0.662795
H172	H	0.123743	1.782059	-0.162795
C173	C	-0.387672	1.264428	-0.934965
C174	C	0.112328	1.764428	-0.434965
N175	N	-0.421034	1.213278	-0.907718
N176	N	0.078966	1.713278	-0.407718
H177	H	-0.230099	1.506056	-0.944432
H178	H	0.269901	2.006056	-0.444432
