data_functionalizedCrystal
_audit_creation_method	'MofGen! by Chris Wilmer'
_symmetry_space_group_name_H-M	'P1'
_symmetry_Int_Tables_number	1
_symmetry_cell_setting	triclinic
loop_
_symmetry_equiv_pos_as_xyz
  x,y,z
_cell_length_a	18.426585
_cell_length_b	21.606444
_cell_length_c	21.606444
_cell_angle_alpha	59.998382
_cell_angle_beta	90.000908
_cell_angle_gamma	59.994711
loop_
_atom_site_label
_atom_site_type_symbol
_atom_site_fract_x
_atom_site_fract_y
_atom_site_fract_z
Zr1	Zr	0.698971	0.677582	-0.081325
O2	O	0.583068	0.806713	-0.180162
O3	O	0.734520	0.548445	-0.051014
O4	O	0.734493	0.677579	-0.180148
O5	O	0.583094	0.677583	0.050822
O6	O	0.853919	0.677583	-0.180151
O7	O	0.583094	0.677579	-0.051028
O8	O	0.853966	0.446586	0.050847
O9	O	0.583047	0.908581	-0.180176
O10	O	0.838785	0.601566	-0.038103
O11	O	0.749658	0.601566	0.037908
O12	O	0.749627	0.753605	-0.114131
O13	O	0.660501	0.753605	-0.038120
Zr14	Zr	0.889441	0.677596	0.081110
Zr15	Zr	0.889441	0.677589	-0.081329
Zr16	Zr	0.698970	0.677589	0.081114
Zr17	Zr	0.698937	0.840049	-0.081347
Zr18	Zr	0.889474	0.515128	0.081131
O19	O	0.853892	0.806733	0.050799
O20	O	0.853892	0.806723	-0.180168
O21	O	0.583067	0.806723	0.050805
O22	O	1.005344	0.548464	0.179947
O23	O	1.005344	0.548454	-0.051020
O24	O	0.734519	0.548455	0.179953
O25	O	1.005317	0.677594	-0.051037
O26	O	0.853918	0.677599	0.179933
O27	O	0.734492	0.677594	0.179935
O28	O	1.005317	0.677599	0.050813
O29	O	0.734445	0.908586	-0.180179
O30	O	0.853966	0.446591	0.179964
O31	O	1.005365	0.446597	0.179960
O32	O	1.005365	0.446591	0.050843
O33	O	0.583046	0.908586	-0.051059
O34	O	0.734445	0.908592	-0.051062
O35	O	0.838784	0.601572	0.113915
O36	O	0.927911	0.601572	0.037904
O37	O	0.838753	0.753611	-0.038123
O38	O	0.749627	0.753611	0.037888
C39	C	0.555956	0.677580	-0.000103
C40	C	0.475096	0.677577	-0.000101
C41	C	0.794205	0.677597	0.203078
C42	C	0.794205	0.677600	0.272038
C43	C	0.794164	0.880810	-0.000135
C44	C	0.794149	0.949782	-0.000144
C45	C	0.178982	0.677603	-0.000114
C46	C	0.261368	0.677600	-0.000112
C47	C	0.327036	0.677590	-0.000108
C48	C	0.409428	0.677587	-0.000105
C49	C	1.032455	0.677597	-0.000113
C50	C	1.113315	0.677600	-0.000115
C51	C	0.794248	0.474367	-0.000081
C52	C	0.794262	0.405395	-0.000071
C53	C	0.747632	0.982177	0.039537
C54	C	0.747651	1.046958	0.039551
C55	C	0.794183	1.079347	-0.000121
C56	C	0.840706	1.046946	-0.039803
C57	C	0.840692	0.982162	-0.039812
C58	C	0.840767	1.308213	-0.039767
C59	C	0.840775	1.373004	-0.039757
C60	C	0.747725	1.373009	0.039596
C61	C	0.747711	1.308225	0.039587
C62	C	0.794238	1.275826	-0.000092
C63	C	0.794218	1.205582	-0.000105
C64	C	0.794198	1.149595	-0.000113
C65	C	0.794206	0.677580	-0.203294
C66	C	0.794206	0.677577	-0.272253
C67	C	0.747668	0.756963	0.264751
C68	C	0.747664	0.756960	0.329549
C69	C	0.794203	0.677595	0.401632
C70	C	0.840742	0.598226	0.408916
C71	C	0.840740	0.598230	0.344120
C72	C	0.840749	0.598211	0.670235
C73	C	0.840750	0.598214	0.735033
C74	C	0.747672	0.756942	0.655663
C75	C	0.747671	0.756945	0.590867
C76	C	0.794206	0.677577	0.598157
C77	C	0.794208	0.677581	0.527896
C78	C	0.794206	0.677590	0.471892
C79	C	1.032497	0.474376	-0.000086
C80	C	1.113371	0.405407	-0.000078
C81	C	0.794247	0.474376	0.203105
C82	C	0.794262	0.405407	0.272074
C83	C	1.032497	0.474384	0.203100
C84	C	1.113371	0.405419	0.272067
C85	C	0.555914	0.880793	-0.203316
C86	C	0.475041	0.949759	-0.272282
C87	C	0.555914	0.880802	-0.000130
C88	C	0.475040	0.949771	-0.000137
C89	C	0.794164	0.880802	-0.203321
C90	C	0.794150	0.949770	-0.272289
C91	C	1.104828	0.373015	-0.039757
C92	C	1.180810	0.308221	-0.039765
C93	C	1.265335	0.275815	-0.000090
C94	C	1.273877	0.308213	0.039590
C95	C	1.197896	0.373011	0.039593
C96	C	0.840791	0.373022	0.344144
C97	C	0.840801	0.308228	0.408954
C98	C	0.794286	0.275815	0.401691
C99	C	0.747751	0.308207	0.329614
C100	C	0.747736	0.373004	0.264806
C101	C	1.197881	0.373032	0.264778
C102	C	1.273878	0.308240	0.329573
C103	C	1.265363	0.275832	0.401657
C104	C	1.180844	0.308226	0.408945
C105	C	1.104849	0.373020	0.344151
C106	C	0.390530	0.982154	-0.264993
C107	C	0.314533	1.046965	-0.329788
C108	C	0.323049	1.079377	-0.401873
C109	C	0.407568	1.046979	-0.409161
C110	C	0.483563	0.982173	-0.344366
C111	C	0.483584	0.982169	0.039534
C112	C	0.407601	1.046981	0.039525
C113	C	0.323076	1.079390	-0.000153
C114	C	0.314534	1.046988	-0.039829
C115	C	0.390516	0.982182	-0.039823
C116	C	0.840674	0.982162	-0.265003
C117	C	0.840678	1.046957	-0.329800
C118	C	0.794152	1.079363	-0.401883
C119	C	0.747627	1.046965	-0.409168
C120	C	0.747628	0.982167	-0.344372
H121	H	0.709735	0.955814	0.071838
F122	F	0.890197	0.947685	-0.188292
H123	H	0.878563	1.073329	-0.323853
H124	H	0.878644	0.533585	0.676181
F125	F	0.381447	0.947669	-0.188281
F126	F	0.698108	1.081468	-0.485891
F127	F	0.794157	1.148329	-0.470839
H128	H	0.709844	1.399393	0.071907
F129	F	1.363821	0.273773	0.321801
H130	H	0.878648	0.533581	0.793728
H131	H	0.414491	1.073377	-0.467859
F132	F	0.416711	1.081451	0.081758
F133	F	1.363843	0.273713	0.081814
F134	F	0.242217	1.148363	-0.000151
H135	H	0.878699	0.281862	0.467636
F136	F	0.698101	0.947706	-0.352138
H137	H	0.794305	0.223053	0.454468
H138	H	1.327197	0.223052	-0.000098
F139	F	0.698147	1.081426	0.081791
F140	F	0.890263	1.273758	-0.082015
H141	H	1.327250	0.223072	0.454411
F142	F	1.014908	0.407478	0.351920
F143	F	0.224591	1.081431	-0.322016
F144	F	1.207002	0.407473	0.081832
F145	F	0.698182	1.273760	0.081808
F146	F	0.890304	1.407473	-0.081983
H147	H	0.878573	0.955785	-0.072123
F148	F	0.890233	1.081417	-0.082023
H149	H	0.709880	0.281807	0.323712
F150	F	0.698215	0.407460	0.188105
F151	F	0.242159	1.148349	-0.470827
F152	F	0.890305	0.407504	0.351891
F153	F	0.573503	0.947698	-0.352136
H154	H	0.709773	0.821591	0.206061
H155	H	0.709769	0.821585	0.323609
F156	F	0.698140	0.841416	0.514152
H157	H	1.173923	0.281830	0.467645
H158	H	0.709778	0.821567	0.649733
H159	H	0.383547	0.955804	-0.072127
H160	H	1.036010	0.399399	-0.072074
F161	F	1.206964	0.407515	0.188066
H162	H	0.878631	0.533606	0.467612
H163	H	1.173838	0.281850	-0.072076
F164	F	0.890270	0.513762	0.351877
H165	H	0.552402	0.955787	0.071850
H166	H	0.245704	1.073385	-0.072133
