data_functionalizedCrystal
_audit_creation_method	'MofGen! by Chris Wilmer'
_symmetry_space_group_name_H-M	'P1'
_symmetry_Int_Tables_number	1
_symmetry_cell_setting	triclinic
loop_
_symmetry_equiv_pos_as_xyz
  x,y,z
_cell_length_a	16.959453
_cell_length_b	17.639155
_cell_length_c	16.959447
_cell_angle_alpha	78.792078
_cell_angle_beta	89.968936
_cell_angle_gamma	101.173506
loop_
_atom_site_label
_atom_site_type_symbol
_atom_site_fract_x
_atom_site_fract_y
_atom_site_fract_z
Zn1	Zn	-0.558739	-1.208246	-0.202211
Zn2	Zn	-0.690916	-1.208169	-0.070047
Zn3	Zn	-0.532074	-1.076090	-0.096813
Zn4	Zn	-0.664176	-1.076055	-0.228941
O5	O	-0.611476	-1.142140	-0.149503
O6	O	-0.598622	-1.318834	-0.162291
O7	O	-0.669876	-1.190631	0.037010
O8	O	-0.425010	-1.093668	-0.110810
O9	O	-0.695732	-1.318778	-0.065190
O10	O	-0.444600	-1.190763	-0.188245
O11	O	-0.553176	-1.093593	0.017345
O12	O	-0.527248	-0.965487	-0.136728
O13	O	-0.650158	-1.093608	-0.336002
O14	O	-0.624302	-0.965461	-0.233802
O15	O	-0.572694	-1.190729	-0.316364
O16	O	-0.797970	-1.190597	-0.091109
O17	O	-0.778324	-1.093533	-0.207848
C18	C	-0.569980	-0.936797	-0.191071
C19	C	-0.552247	-0.848951	-0.208872
C20	C	-0.746344	-0.559915	-0.014242
C21	C	-0.729670	-0.477370	-0.030977
C22	C	-0.628713	-0.477428	-0.132238
C23	C	-0.645375	-0.559975	-0.115509
C24	C	-0.704192	-0.601212	-0.056511
C25	C	-0.603223	-0.601272	-0.157779
C26	C	-0.619888	-0.683812	-0.141054
C27	C	-0.678703	-0.725054	-0.082061
C28	C	-0.720856	-0.683752	-0.039787
C29	C	-0.544411	-0.560033	-0.216780
C30	C	-0.502259	-0.601330	-0.259049
C31	C	-0.518919	-0.683871	-0.242321
C32	C	-0.577735	-0.725114	-0.183328
C33	C	-0.476766	-0.725174	-0.284595
C34	C	-0.493431	-0.807714	-0.267870
C35	C	-0.594399	-0.807654	-0.166603
C36	C	-0.816829	-1.142074	-0.149487
C37	C	-0.904694	-1.142118	-0.149492
C38	C	-1.286330	-1.192762	-0.189906
C39	C	-1.266064	-1.091739	-0.109172
C40	C	-1.183512	-1.091709	-0.109160
C41	C	-1.152365	-1.142206	-0.149522
C42	C	-1.203770	-1.192733	-0.189897
C43	C	-1.132100	-1.041179	-0.068793
C44	C	-1.049542	-1.041147	-0.068780
C45	C	-1.018395	-1.091648	-0.109138
C46	C	-1.069806	-1.142177	-0.149514
C47	C	-1.038659	-1.192674	-0.189876
C48	C	-1.090069	-1.243207	-0.230247
C49	C	-1.172623	-1.243234	-0.230255
C50	C	-0.935841	-1.091621	-0.109130
C51	C	-0.956099	-1.192644	-0.189867
C52	C	-0.405325	-1.142228	-0.149531
C53	C	-0.317476	-1.142265	-0.149544
C54	C	-0.611417	-1.142173	-0.355664
C55	C	-0.611392	-1.142187	-0.443518
C56	C	-0.653130	-0.348285	-0.107767
C57	C	-0.670868	-0.436131	-0.089964
C58	C	-0.651660	-1.091715	-0.825202
C59	C	-0.570996	-1.192848	-0.804748
C60	C	-0.571008	-1.192827	-0.722206
C61	C	-0.611348	-1.142250	-0.691159
C62	C	-0.651676	-1.091694	-0.742653
C63	C	-0.530689	-1.243387	-0.670705
C64	C	-0.530700	-1.243369	-0.588158
C65	C	-0.571036	-1.192787	-0.557110
C66	C	-0.611364	-1.142229	-0.608609
C67	C	-0.651704	-1.091652	-0.577562
C68	C	-0.692028	-1.041089	-0.629061
C69	C	-0.692011	-1.041113	-0.711605
C70	C	-0.571052	-1.192764	-0.474566
C71	C	-0.651720	-1.091631	-0.495012
C72	C	-0.611487	-1.142153	0.055866
C73	C	-0.611320	-1.142292	0.143750
H74	H	-0.692264	-0.792264	-0.068438
O75	O	-0.565273	-0.432942	-0.195863
H76	H	-0.582104	-0.448796	-0.254666
O77	O	-0.784293	-0.728240	0.023848
H78	H	-0.810809	-0.685659	0.050433
H79	H	-0.642289	-0.841231	-0.118556
O80	O	-1.165704	-0.986732	-0.025251
H81	H	-1.195208	-0.946521	-0.068737
O82	O	-0.487208	-1.297897	-0.532614
H83	H	-0.459152	-1.333067	-0.568073
H84	H	-0.724877	-0.999913	-0.603771
O85	O	-0.735500	-0.986580	-0.767147
H86	H	-0.728717	-0.995098	-0.829759
H87	H	-0.538224	-1.233933	-0.432639
O88	O	-0.880396	-1.037122	-0.065592
H89	H	-0.817757	-1.045582	-0.072368
H90	H	-0.794233	-0.593493	0.033805
H91	H	-0.764001	-0.443749	0.003447
O92	O	-1.228072	-1.297719	-0.273809
H93	H	-1.273820	-1.337960	-0.230331
O94	O	-0.526431	-0.471007	-0.234814
H95	H	-0.538096	-0.449257	-0.298807
O96	O	-0.438820	-0.556844	-0.322675
H97	H	-0.455650	-0.572698	-0.381477
O98	O	-0.695148	-1.037177	-0.880739
H99	H	-0.688363	-1.045685	-0.943355
H100	H	-0.538158	-1.234029	-0.830031
H101	H	-1.328192	-1.233907	-0.222772
H102	H	-1.064699	-1.284319	-0.263114
H103	H	-0.428884	-0.691586	-0.332636
H104	H	-0.459105	-0.841338	-0.302288
O105	O	-0.487146	-1.297907	-0.704193
H106	H	-0.493889	-1.289408	-0.770247
O107	O	-1.299654	-1.037286	-0.065627
H108	H	-1.365697	-1.045802	-0.072409
O109	O	-0.994097	-0.986660	-0.025225
H110	H	-1.029627	-0.951558	0.002847
O111	O	-0.922507	-1.247119	-0.233390
H112	H	-0.972126	-1.282259	-0.261461
O113	O	-0.695208	-1.037062	-0.461529
H114	H	-0.723239	-1.001907	-0.511209
