data_functionalizedCrystal
_audit_creation_method	'MofGen! by Chris Wilmer'
_symmetry_space_group_name_H-M	'P1'
_symmetry_Int_Tables_number	1
_symmetry_cell_setting	triclinic
loop_
_symmetry_equiv_pos_as_xyz
  x,y,z
_cell_length_a	10.723024
_cell_length_b	14.044190
_cell_length_c	9.798715
_cell_angle_alpha	89.992011
_cell_angle_beta	89.996609
_cell_angle_gamma	88.829823
loop_
_atom_site_label
_atom_site_type_symbol
_atom_site_fract_x
_atom_site_fract_y
_atom_site_fract_z
O1	O	1.670502	0.133040	-0.113499
O2	O	1.308624	0.145775	-0.113506
O3	O	1.484127	0.001387	-0.113476
O4	O	1.494999	0.277427	-0.113529
O5	O	1.484112	0.001387	0.113507
O6	O	1.308610	0.145774	0.113477
O7	O	1.670488	0.133040	0.113483
Zn8	Zn	1.489546	0.139407	0.149518
Zn9	Zn	1.489565	0.139407	-0.149541
O10	O	1.494985	0.277427	0.113453
C11	C	1.262025	0.144848	-0.000015
C12	C	1.123193	0.142075	-0.000016
C13	C	1.479363	-0.033958	0.000019
C14	C	1.465175	-0.139277	0.000031
C15	C	1.056296	0.222867	-0.000033
C16	C	0.912806	0.220003	-0.000034
C17	C	1.539861	-0.389077	-0.000021
C18	C	1.439257	-0.332103	-0.000013
C19	C	1.453681	-0.224804	0.000011
C20	C	1.525438	-0.496386	-0.000046
C21	C	1.717087	0.133967	-0.000011
C22	C	1.855919	0.136739	-0.000018
C23	C	1.499749	0.312773	-0.000045
C24	C	1.513937	0.418091	-0.000066
N25	N	1.489543	0.139406	0.353618
N26	N	1.489578	0.139401	-0.353640
C27	C	1.563205	0.078515	0.421407
C28	C	1.563224	0.078511	0.578570
H29	H	1.105252	0.294155	-0.000039
H30	H	1.342294	-0.363909	-0.000023
H31	H	0.855295	0.289167	-0.000054
H32	H	1.636816	-0.357273	-0.000005
H33	H	1.626251	0.026381	0.363095
H34	H	1.626294	0.026383	0.636866
H35	H	1.074236	0.070786	-0.000037
H36	H	1.426487	0.191532	0.411931
H37	H	0.913422	0.067572	-0.000013
H38	H	1.426515	0.191539	0.588072
