data_functionalizedCrystal
_audit_creation_method	'MofGen! by Chris Wilmer'
_symmetry_space_group_name_H-M	'P1'
_symmetry_Int_Tables_number	1
_symmetry_cell_setting	triclinic
loop_
_symmetry_equiv_pos_as_xyz
  x,y,z
_cell_length_a	21.295420
_cell_length_b	21.295412
_cell_length_c	21.295418
_cell_angle_alpha	90.028980
_cell_angle_beta	89.974349
_cell_angle_gamma	89.976352
loop_
_atom_site_label
_atom_site_type_symbol
_atom_site_fract_x
_atom_site_fract_y
_atom_site_fract_z
Zn1	Zn	0.962362	-0.355921	0.250654
Zn2	Zn	1.295696	-0.022588	0.583988
Zn3	Zn	1.629029	0.310746	0.917321
Zn4	Zn	0.962272	-0.250650	0.355923
Zn5	Zn	1.295606	0.082684	0.689256
Zn6	Zn	1.628939	0.416017	1.022589
Zn7	Zn	0.857088	-0.250666	0.250668
Zn8	Zn	1.190421	0.082668	0.584001
Zn9	Zn	1.523754	0.416001	0.917335
Zn10	Zn	0.857061	-0.355881	0.355886
Zn11	Zn	1.190394	-0.022548	0.689220
Zn12	Zn	1.523727	0.310786	1.022553
O13	O	0.909696	-0.303279	0.303283
O14	O	1.243029	0.030054	0.636616
O15	O	1.576362	0.363387	0.969949
O16	O	1.050440	-0.341966	0.264628
O17	O	1.383773	-0.008633	0.597961
O18	O	1.717107	0.324700	0.931294
O19	O	0.948293	-0.162562	0.341981
O20	O	1.281626	0.170771	0.675315
O21	O	1.614960	0.504104	1.008648
O22	O	0.871101	-0.264652	0.162577
O23	O	1.204435	0.068682	0.495910
O24	O	1.537768	0.402015	0.829244
O25	O	1.050374	-0.264624	0.341968
O26	O	1.383707	0.068709	0.675301
O27	O	1.717040	0.402043	1.008635
O28	O	0.948446	-0.341982	0.162567
O29	O	1.281780	-0.008649	0.495900
O30	O	1.615113	0.324684	0.829233
O31	O	0.871014	-0.162574	0.264651
O32	O	1.204347	0.170759	0.597985
O33	O	1.537681	0.504092	0.931318
O34	O	0.768995	-0.264613	0.264616
O35	O	1.102328	0.068720	0.597949
O36	O	1.435661	0.402054	0.931283
O37	O	0.871056	-0.443976	0.341906
O38	O	1.204389	-0.110642	0.675239
O39	O	1.537722	0.222691	1.008573
O40	O	0.768975	-0.341914	0.341919
O41	O	1.102308	-0.008581	0.675253
O42	O	1.435642	0.324753	1.008586
O43	O	0.948420	-0.444005	0.264592
O44	O	1.281754	-0.110672	0.597926
O45	O	1.615087	0.222662	0.931259
O46	O	0.948267	-0.264585	0.444007
O47	O	1.281600	0.068748	0.777341
O48	O	1.614934	0.402082	1.110674
O49	O	0.870968	-0.341898	0.443981
O50	O	1.204302	-0.008565	0.777314
O51	O	1.537635	0.324768	1.110647
C52	C	0.746144	-0.303261	0.303266
C53	C	1.079478	0.030072	0.636599
C54	C	1.412811	0.363405	0.969932
C55	C	0.676176	-0.303268	0.303274
C56	C	1.009509	0.030065	0.636607
C57	C	1.342843	0.363398	0.969940
C58	C	0.176724	-0.343491	0.343609
C59	C	0.510058	-0.010158	0.676942
C60	C	0.843391	0.323176	1.010275
C61	C	0.242467	-0.343484	0.343609
C62	C	0.575800	-0.010151	0.676942
C63	C	0.909134	0.323182	1.010276
C64	C	0.275337	-0.303299	0.303297
C65	C	0.608670	0.030034	0.636630
C66	C	0.942003	0.363368	0.969964
C67	C	0.242459	-0.263106	0.262993
C68	C	0.575792	0.070227	0.596327
C69	C	0.909125	0.403561	0.929660
C70	C	0.176717	-0.263109	0.262999
C71	C	0.510051	0.070224	0.596332
C72	C	0.843384	0.403557	0.929665
N73	N	0.378574	-0.298565	0.248180
N74	N	0.711908	0.034768	0.581514
N75	N	1.045241	0.368102	0.914847
N76	N	0.441026	-0.298565	0.248177
N77	N	0.774359	0.034768	0.581510
N78	N	1.107693	0.368101	0.914844
C79	C	0.473411	-0.303286	0.303279
C80	C	0.806745	0.030048	0.636613
C81	C	1.140078	0.363381	0.969946
N82	N	0.440986	-0.308018	0.358386
N83	N	0.774319	0.025316	0.691720
N84	N	1.107653	0.358649	1.025053
N85	N	0.378529	-0.308021	0.358389
N86	N	0.711862	0.025313	0.691722
N87	N	1.045196	0.358646	1.025056
C88	C	0.346622	-0.303291	0.303287
C89	C	0.679955	0.030043	0.636620
C90	C	1.013289	0.363376	0.969954
C91	C	0.577567	-0.343466	0.343584
C92	C	0.910900	-0.010133	0.676917
C93	C	1.244234	0.323201	1.010251
C94	C	0.643311	-0.343455	0.343585
C95	C	0.976644	-0.010122	0.676919
C96	C	1.309978	0.323212	1.010252
C97	C	0.643301	-0.263080	0.262964
C98	C	0.976635	0.070253	0.596297
C99	C	1.309968	0.403587	0.929631
C100	C	0.577559	-0.263088	0.262968
C101	C	0.910892	0.070246	0.596302
C102	C	1.244225	0.403579	0.929635
C103	C	0.544696	-0.303284	0.303277
C104	C	0.878029	0.030049	0.636611
C105	C	1.211362	0.363383	0.969944
C106	C	0.909745	-0.467470	0.303244
C107	C	1.243078	-0.134136	0.636577
C108	C	1.576412	0.199197	0.969910
C109	C	0.909766	-0.537438	0.303227
C110	C	1.243099	-0.204104	0.636560
C111	C	1.576433	0.129229	0.969894
C112	C	0.869538	-0.570301	0.262957
C113	C	1.202871	-0.236967	0.596290
C114	C	1.536204	0.096366	0.929623
C115	C	0.869535	-0.636043	0.262945
C116	C	1.202869	-0.302710	0.596278
C117	C	1.536202	0.030623	0.929612
C118	C	0.909773	-0.668920	0.303197
C119	C	1.243106	-0.335587	0.636530
C120	C	1.576439	-0.002254	0.969864
C121	C	0.950004	-0.636049	0.343475
C122	C	1.283337	-0.302716	0.676808
C123	C	1.616671	0.030617	1.010142
C124	C	0.950001	-0.570308	0.343490
C125	C	1.283334	-0.236975	0.676823
C126	C	1.616667	0.096358	1.010157
N127	N	0.964878	-0.772159	0.308006
N128	N	1.298211	-0.438826	0.641340
N129	N	1.631544	-0.105492	0.974673
N130	N	0.964879	-0.834610	0.307988
N131	N	1.298212	-0.501277	0.641322
N132	N	1.631546	-0.167944	0.974655
C133	C	0.909784	-0.866995	0.303155
C134	C	1.243118	-0.533662	0.636488
C135	C	1.576451	-0.200329	0.969822
N136	N	0.854687	-0.834569	0.298328
N137	N	1.188021	-0.501236	0.631662
N138	N	1.521354	-0.167903	0.964995
N139	N	0.854687	-0.772112	0.298343
N140	N	1.188020	-0.438779	0.631676
N141	N	1.521353	-0.105445	0.965010
C142	C	0.909781	-0.740206	0.303185
C143	C	1.243114	-0.406872	0.636519
C144	C	1.576447	-0.073539	0.969852
C145	C	0.869550	-0.971144	0.262870
C146	C	1.202884	-0.637810	0.596203
C147	C	1.536217	-0.304477	0.929537
C148	C	0.869547	-1.036888	0.262863
C149	C	1.202880	-0.703554	0.596196
C150	C	1.536214	-0.370221	0.929529
C151	C	0.950021	-1.036892	0.343389
C152	C	1.283354	-0.703559	0.676723
C153	C	1.616688	-0.370226	1.010056
C154	C	0.950019	-0.971150	0.343400
C155	C	1.283352	-0.637817	0.676733
C156	C	1.616686	-0.304483	1.010067
C157	C	0.909784	-0.938280	0.303137
C158	C	1.243118	-0.604946	0.636470
C159	C	1.576451	-0.271613	0.969804
C160	C	1.073886	-0.303298	0.303300
C161	C	1.407219	0.030035	0.636634
C162	C	1.740553	0.363369	0.969967
C163	C	1.143854	-0.303306	0.303308
C164	C	1.477187	0.030028	0.636641
C165	C	1.810521	0.363361	0.969975
C166	C	0.909622	-0.303249	0.466834
C167	C	1.242955	0.030084	0.800168
C168	C	1.576289	0.363417	1.133501
C169	C	0.909648	-0.303258	0.536803
C170	C	1.242982	0.030076	0.870136
C171	C	1.576315	0.363409	1.203469
C172	C	0.909683	-0.139728	0.303276
C173	C	1.243016	0.193606	0.636610
C174	C	1.576350	0.526939	0.969943
C175	C	0.909784	-0.069760	0.303116
C176	C	1.243117	0.263573	0.636449
C177	C	1.576451	0.596907	0.969782
C178	C	0.909787	-0.303323	0.139093
C179	C	1.243120	0.030010	0.472426
C180	C	1.576454	0.363343	0.805759
C181	C	0.909826	-0.303342	0.069124
C182	C	1.243159	0.029991	0.402458
C183	C	1.576492	0.363325	0.735791
C184	C	0.950096	-0.263124	1.036253
C185	C	1.283430	0.070209	1.369587
C186	C	1.616763	0.403543	1.702920
C187	C	0.950072	-0.263109	0.970511
C188	C	1.283406	0.070224	1.303844
C189	C	1.616739	0.403558	1.637178
C190	C	0.909784	-0.303323	0.937642
C191	C	1.243118	0.030010	1.270975
C192	C	1.576451	0.363343	1.604309
C193	C	0.869506	-0.343544	0.970521
C194	C	1.202839	-0.010211	1.303854
C195	C	1.536173	0.323122	1.637188
C196	C	0.869527	-0.343554	1.036262
C197	C	1.202860	-0.010220	1.369595
C198	C	1.536193	0.323113	1.702929
N199	N	0.904894	-0.358406	0.834390
N200	N	1.238228	-0.025073	1.167723
N201	N	1.571561	0.308260	1.501057
N202	N	0.904879	-0.358396	0.771939
N203	N	1.238212	-0.025062	1.105272
N204	N	1.571545	0.308271	1.438605
C205	C	0.909719	-0.303297	0.739567
C206	C	1.243052	0.030036	1.072901
C207	C	1.576386	0.363370	1.406234
N208	N	0.914588	-0.248208	0.772006
N209	N	1.247921	0.085125	1.105340
N210	N	1.581255	0.418459	1.438673
N211	N	0.914607	-0.248219	0.834464
N212	N	1.247941	0.085114	1.167797
N213	N	1.581274	0.418447	1.501130
C214	C	0.909757	-0.303318	0.866357
C215	C	1.243091	0.030016	1.199690
C216	C	1.576424	0.363349	1.533023
C217	C	0.949966	-0.263059	0.635411
C218	C	1.283299	0.070274	0.968744
C219	C	1.616632	0.403607	1.302077
C220	C	0.949937	-0.263043	0.569667
C221	C	1.283271	0.070290	0.903000
C222	C	1.616604	0.403623	1.236334
C223	C	0.869374	-0.343484	0.569678
C224	C	1.202708	-0.010151	0.903012
C225	C	1.536041	0.323182	1.236345
C226	C	0.869399	-0.343495	0.635421
C227	C	1.202733	-0.010161	0.968754
C228	C	1.536066	0.323172	1.302087
C229	C	0.909698	-0.303283	0.668283
C230	C	1.243032	0.030050	1.001616
C231	C	1.576365	0.363384	1.334950
H232	H	0.550809	-0.376195	0.376407
H233	H	0.884142	-0.042862	0.709740
H234	H	1.217475	0.290471	1.043073
H235	H	0.982728	-0.230290	0.542903
H236	H	1.316062	0.103044	0.876236
H237	H	1.649395	0.436377	1.209570
H238	H	0.982866	-0.230357	0.943742
H239	H	1.316200	0.102976	1.277076
H240	H	1.649533	0.436309	1.610409
N241	N	0.828447	-0.937553	0.221759
N242	N	1.161780	-0.604220	0.555093
N243	N	1.495114	-0.270886	0.888426
N244	N	0.828450	-0.878856	0.221777
N245	N	1.161783	-0.545523	0.555110
N246	N	1.495116	-0.212189	0.888444
H247	H	0.799420	-0.855133	0.192744
H248	H	1.132753	-0.521800	0.526077
H249	H	1.466086	-0.188466	0.859410
N250	N	0.991120	-0.669620	0.384585
N251	N	1.324454	-0.336286	0.717918
N252	N	1.657787	-0.002953	1.051252
N253	N	1.027043	-0.640266	0.420534
N254	N	1.360376	-0.306933	0.753867
N255	N	1.693710	0.026400	1.087200
H256	H	1.056084	-0.663974	0.449569
H257	H	1.389418	-0.330640	0.782902
H258	H	1.722751	0.002693	1.116235
N259	N	0.991268	-0.222051	1.069810
N260	N	1.324601	0.111283	1.403144
N261	N	1.657934	0.444616	1.736477
N262	N	1.027224	-0.186146	1.040448
N263	N	1.360557	0.147187	1.373781
N264	N	1.693891	0.480521	1.707115
H265	H	1.056303	-0.157138	1.064148
H266	H	1.389636	0.176195	1.397482
H267	H	1.722970	0.509528	1.730815
H268	H	0.836702	-0.376286	0.943756
H269	H	1.170035	-0.042953	1.277089
H270	H	1.503369	0.290380	1.610422
H271	H	0.982762	-0.543551	0.376282
H272	H	1.316096	-0.210218	0.709616
H273	H	1.649429	0.123115	1.042949
H274	H	0.269235	-0.376210	0.376427
H275	H	0.602568	-0.042877	0.709760
H276	H	0.935902	0.290457	1.043094
H277	H	0.982779	-0.230316	0.662169
H278	H	1.316112	0.103018	0.995502
H279	H	1.649445	0.436351	1.328835
N280	N	0.828214	-0.384562	0.536119
N281	N	1.161547	-0.051229	0.869453
N282	N	1.494880	0.282104	1.202786
N283	N	0.770132	-0.380333	0.543509
N284	N	1.103465	-0.047000	0.876843
N285	N	1.436799	0.286333	1.210176
H286	H	0.741059	-0.409344	0.519806
H287	H	1.074393	-0.076011	0.853139
H288	H	1.407726	0.257322	1.186472
H289	H	0.550796	-0.230367	0.230149
H290	H	0.884129	0.102967	0.563482
H291	H	1.217462	0.436300	0.896815
N292	N	0.828383	-0.384639	1.069833
N293	N	1.161717	-0.051306	1.403166
N294	N	1.495050	0.282027	1.736499
N295	N	0.792409	-0.420539	1.040482
N296	N	1.125743	-0.087206	1.373815
N297	N	1.459076	0.246128	1.707148
H298	H	0.763351	-0.449557	1.064191
H299	H	1.096684	-0.116224	1.397525
H300	H	1.430018	0.217110	1.730858
N301	N	0.143170	-0.384544	0.384798
N302	N	0.476503	-0.051211	0.718131
N303	N	0.809836	0.282122	1.051464
N304	N	0.150497	-0.380264	0.442876
N305	N	0.483831	-0.046931	0.776210
N306	N	0.817164	0.286403	1.109543
H307	H	0.126800	-0.409257	0.471969
H308	H	0.460133	-0.075924	0.805302
H309	H	0.793466	0.257409	1.138636
H310	H	0.836608	-0.376246	0.662185
H311	H	1.169942	-0.042913	0.995518
H312	H	1.503275	0.290420	1.328851
N313	N	0.828442	-1.070449	0.221727
N314	N	1.161776	-0.737115	0.555060
N315	N	1.495109	-0.403782	0.888394
N316	N	0.792523	-1.041089	0.185785
N317	N	1.125856	-0.707756	0.519119
N318	N	1.459190	-0.374423	0.852452
H319	H	0.763491	-1.064792	0.156732
H320	H	1.096824	-0.731459	0.490066
H321	H	1.430158	-0.398125	0.823399
H322	H	0.836778	-0.662806	0.230149
H323	H	1.170111	-0.329472	0.563482
H324	H	1.503444	0.003861	0.896816
N325	N	0.276041	-0.222058	0.221823
N326	N	0.609374	0.111276	0.555157
N327	N	0.942707	0.444609	0.888490
N328	N	0.334738	-0.222060	0.221823
N329	N	0.668071	0.111273	0.555157
N330	N	1.001404	0.444607	0.888490
H331	H	0.358456	-0.193066	0.192748
H332	H	0.691789	0.140267	0.526081
H333	H	1.025122	0.473600	0.859415
N334	N	0.676880	-0.384504	0.384763
N335	N	1.010213	-0.051171	0.718097
N336	N	1.343546	0.282162	1.051430
N337	N	0.647527	-0.420387	0.420749
N338	N	0.980860	-0.087053	0.754082
N339	N	1.314193	0.246280	1.087416
H340	H	0.671234	-0.449379	0.449833
H341	H	1.004568	-0.116045	0.783166
H342	H	1.337901	0.217288	1.116499
N343	N	0.143128	-0.222072	0.221825
N344	N	0.476461	0.111261	0.555158
N345	N	0.809795	0.444594	0.888492
N346	N	0.084431	-0.222086	0.221831
N347	N	0.417764	0.111247	0.555165
N348	N	0.751098	0.444581	0.888498
H349	H	0.060706	-0.193105	0.192750
H350	H	0.394040	0.140228	0.526084
H351	H	0.727373	0.473561	0.859417
H352	H	0.670063	-0.230358	0.230143
H353	H	1.003396	0.102975	0.563477
H354	H	1.336730	0.436309	0.896810
H355	H	0.836773	-0.543542	0.230174
H356	H	1.170106	-0.210208	0.563507
H357	H	1.503440	0.123125	0.896840
N358	N	0.991117	-0.937587	0.384539
N359	N	1.324450	-0.604254	0.717872
N360	N	1.657783	-0.270920	1.051206
N361	N	1.027038	-0.966946	0.420479
N362	N	1.360372	-0.633613	0.753812
N363	N	1.693705	-0.300280	1.087145
H364	H	1.056064	-0.943243	0.449537
H365	H	1.389398	-0.609910	0.782870
H366	H	1.722731	-0.276577	1.116204
H367	H	0.982785	-1.063660	0.376162
H368	H	1.316118	-0.730327	0.709495
H369	H	1.649451	-0.396994	1.042829
