data_functionalizedCrystal
_audit_creation_method	'MofGen! by Chris Wilmer'
_symmetry_space_group_name_H-M	'P1'
_symmetry_Int_Tables_number	1
_symmetry_cell_setting	triclinic
loop_
_symmetry_equiv_pos_as_xyz
  x,y,z
_cell_length_a	14.519709
_cell_length_b	13.262390
_cell_length_c	11.804673
_cell_angle_alpha	61.245749
_cell_angle_beta	76.721301
_cell_angle_gamma	84.070969
loop_
_atom_site_label
_atom_site_type_symbol
_atom_site_fract_x
_atom_site_fract_y
_atom_site_fract_z
O1	O	0.223119	1.505074	-0.586487
O2	O	0.218836	1.179338	-0.480991
O3	O	0.087228	1.350840	-0.536525
O4	O	0.354727	1.333572	-0.530954
O5	O	0.051622	1.310457	-0.325396
O6	O	0.183229	1.138955	-0.269863
O7	O	0.187513	1.464691	-0.375359
Cu8	Cu	0.182120	1.298136	-0.303333
Cu9	Cu	0.224228	1.345893	-0.553017
O10	O	0.319120	1.293189	-0.319825
C11	C	0.197999	1.117459	-0.361925
C12	C	0.188948	0.993242	-0.321695
C13	C	0.241062	0.731159	-0.668657
C14	C	0.249562	0.847868	-0.706458
C15	C	0.234409	0.884217	-0.610271
C16	C	0.210755	0.803846	-0.476276
C17	C	0.202248	0.687127	-0.438472
C18	C	0.195595	0.840185	-0.380085
C19	C	0.171941	0.759814	-0.246091
C20	C	0.163435	0.643107	-0.208293
C21	C	0.178588	0.606757	-0.304481
C22	C	0.204102	0.956904	-0.417889
C23	C	0.165288	0.912873	-0.187704
C24	C	0.156789	0.796164	-0.149903
C25	C	0.035019	1.329844	-0.430700
C26	C	-0.067499	1.327431	-0.429918
C27	C	-0.442894	1.318557	-0.427075
C28	C	-0.338448	1.321021	-0.427864
C29	C	-0.255200	1.322994	-0.428495
C30	C	-0.150747	1.325459	-0.429287
C31	C	0.371330	1.314186	-0.425653
C32	C	0.473849	1.316600	-0.426443
C33	C	0.208350	1.526571	-0.494427
C34	C	0.217402	1.650789	-0.534666
N35	N	0.152503	1.264554	-0.127721
N36	N	0.253839	1.379484	-0.728632
C37	C	0.081368	1.183878	-0.039258
C38	C	0.058958	1.158453	0.093634
C39	C	0.107676	1.213709	0.138074
C40	C	0.178808	1.294393	0.049609
C41	C	0.201225	1.319814	-0.083294
C42	C	0.227533	1.349645	0.094038
C43	C	0.298665	1.430329	0.005573
C44	C	0.321078	1.455746	-0.127317
C45	C	0.272360	1.400490	-0.171757
C46	C	0.205116	1.324224	0.226941
C47	C	0.324974	1.460160	0.182906
C48	C	0.347383	1.485585	0.050013
H49	H	0.223363	1.022332	-0.526988
H50	H	0.089425	1.193004	0.246282
C51	C	0.041060	1.004215	-0.019475
C52	C	0.027829	1.123147	-0.088116
H53	H	0.008010	0.966723	-0.049646
H54	H	0.017520	0.977536	0.072319
H55	H	0.106626	0.987730	-0.034566
H56	H	-0.037737	1.139633	-0.073016
H57	H	0.051364	1.149836	-0.179931
C58	C	0.041127	1.272176	0.282182
C59	C	0.126927	1.235548	0.324173
H60	H	-0.007147	1.217430	0.342215
H61	H	0.047511	1.279401	0.196686
H62	H	0.024822	1.344530	0.279187
H63	H	0.143236	1.163197	0.327158
H64	H	0.120543	1.228309	0.409691
C65	C	0.365308	1.639843	0.163078
C66	C	0.378532	1.520911	0.231733
H67	H	0.398377	1.677340	0.193224
H68	H	0.299754	1.656337	0.178174
H69	H	0.388842	1.666511	0.071273
H70	H	0.354992	1.494240	0.323537
H71	H	0.444100	1.504408	0.216647
C72	C	0.360898	1.634816	-0.325528
C73	C	0.399276	1.544418	-0.224564
H74	H	0.409178	1.689550	-0.385566
H75	H	0.312413	1.670673	-0.288510
H76	H	0.335088	1.605528	-0.370993
H77	H	0.425080	1.573705	-0.179092
H78	H	0.447778	1.508556	-0.261585
H79	H	0.171672	0.511725	-0.273710
C80	C	-0.090703	1.122642	0.245442
C81	C	-0.019227	1.069775	0.190876
H82	H	-0.138971	1.067889	0.305484
H83	H	-0.116732	1.183962	0.176952
H84	H	-0.064882	1.151910	0.290916
H85	H	-0.045047	1.040514	0.145393
H86	H	0.006804	1.008433	0.259377
H87	H	0.241332	0.979248	-0.641056
H88	H	0.405301	1.551279	-0.022033
H89	H	0.290599	1.421192	-0.279969
C90	C	0.363766	0.908908	-0.910276
C91	C	0.275564	0.936205	-0.853737
H92	H	0.379821	0.963450	-1.001203
H93	H	0.360864	0.834206	-0.901526
H94	H	0.410435	0.910576	-0.866454
H95	H	0.228894	0.934529	-0.897553
H96	H	0.278461	1.010926	-0.862496
C97	C	0.126511	0.597700	0.010239
C98	C	0.130778	0.707814	-0.002619
H99	H	0.110447	0.543160	0.101166
H100	H	0.186344	0.579202	-0.028126
H101	H	0.079834	0.596059	-0.033587
H102	H	0.177460	0.709457	0.041199
H103	H	0.070937	0.726317	0.035763
H104	H	0.152948	0.942467	-0.109380
H105	H	0.253388	0.701552	-0.746959
H106	H	0.144158	0.577673	-0.099187
