data_functionalizedCrystal
_audit_creation_method	'MofGen! by Chris Wilmer'
_symmetry_space_group_name_H-M	'P1'
_symmetry_Int_Tables_number	1
_symmetry_cell_setting	triclinic
loop_
_symmetry_equiv_pos_as_xyz
  x,y,z
_cell_length_a	19.077105
_cell_length_b	13.897447
_cell_length_c	19.076919
_cell_angle_alpha	87.725848
_cell_angle_beta	89.923776
_cell_angle_gamma	87.715989
loop_
_atom_site_label
_atom_site_type_symbol
_atom_site_fract_x
_atom_site_fract_y
_atom_site_fract_z
Zn1	Zn	1.058299	-0.466652	0.440432
Zn2	Zn	1.062948	-0.621745	0.322930
Zn3	Zn	0.945516	-0.453730	0.318225
Zn4	Zn	0.940770	-0.621163	0.435682
O5	O	1.001883	-0.540823	0.379317
O6	O	1.157248	-0.492877	0.428802
O7	O	1.051303	-0.594293	0.223974
O8	O	0.960517	-0.320466	0.334455
O9	O	1.160664	-0.606823	0.342473
O10	O	1.043378	-0.329959	0.424240
O11	O	0.965026	-0.470853	0.220518
O12	O	0.846554	-0.470289	0.329849
O13	O	0.952429	-0.605831	0.534644
O14	O	0.843068	-0.593302	0.416145
O15	O	1.038777	-0.492313	0.538133
O16	O	1.046701	-0.756646	0.337868
O17	O	0.956937	-0.756219	0.420707
C18	C	0.819315	-0.530331	0.371971
C19	C	0.741210	-0.525867	0.368845
C20	C	0.702722	-0.587905	0.412236
C21	C	0.629335	-0.583697	0.409302
C22	C	0.594436	-0.517456	0.362974
C23	C	0.632929	-0.455412	0.319582
C24	C	0.706316	-0.459615	0.322520
C25	C	0.375148	-0.498003	0.349381
C26	C	0.301757	-0.493807	0.346445
C27	C	0.298167	-0.622092	0.436166
C28	C	0.371555	-0.626293	0.439097
C29	C	0.410041	-0.564245	0.395707
N30	N	0.519423	-0.513156	0.359972
N31	N	0.485054	-0.568541	0.398713
C32	C	1.001827	-0.791433	0.379299
C33	C	1.001866	-0.898650	0.379317
C34	C	1.001899	-0.985722	0.379334
C35	C	1.001948	-1.094959	0.379354
C36	C	1.185165	-0.551356	0.386692
C37	C	1.263269	-0.555845	0.389835
C38	C	0.994555	-0.550448	0.562598
C39	C	0.991431	-0.554550	0.640701
C40	C	1.001959	-0.289236	0.379352
C41	C	1.001991	-0.182024	0.379367
C42	C	1.009224	-0.531167	0.196751
C43	C	1.012483	-0.526801	0.118654
C44	C	1.034919	-0.497377	0.679212
C45	C	1.031976	-0.501227	0.752598
C46	C	0.985548	-0.562256	0.787472
C47	C	0.942056	-0.619432	0.748955
C48	C	0.944996	-0.615576	0.675571
C49	C	0.971932	-0.580121	1.006753
C50	C	0.968996	-0.583974	1.080143
C51	C	1.058915	-0.465768	1.083780
C52	C	1.061854	-0.461922	1.010394
C53	C	1.018359	-0.519094	0.971884
N54	N	0.982541	-0.566195	0.862484
N55	N	1.021364	-0.515149	0.896873
H56	H	0.406475	-0.447487	0.314045
H57	H	0.604509	-0.401473	0.281864
H58	H	0.936525	-0.626689	0.975408
H59	H	0.904252	-0.669120	0.777355
H60	H	1.099662	-0.412228	0.982005
N61	N	0.898085	-0.677239	0.634037
H62	H	0.908463	-0.747456	0.647235
H63	H	0.907008	-0.665456	0.582269
N64	N	0.740360	-0.659357	0.462199
H65	H	0.704840	-0.698018	0.489242
H66	H	0.769522	-0.623620	0.495987
H67	H	0.598001	-0.634216	0.444634
N68	N	0.409194	-0.697744	0.489061
H69	H	0.373676	-0.736408	0.516104
H70	H	0.438357	-0.662009	0.522849
N71	N	0.918904	-0.649767	1.117772
H72	H	0.946218	-0.697710	1.149370
H73	H	0.891795	-0.685335	1.082208
N74	N	0.256658	-0.689011	0.482962
H75	H	0.204872	-0.676300	0.474074
H76	H	0.267492	-0.677477	0.533680
N77	N	0.747831	-0.392697	0.275726
H78	H	0.714589	-0.350095	0.245931
H79	H	0.779570	-0.431918	0.244375
N80	N	0.264104	-0.422373	0.296470
H81	H	0.276434	-0.354777	0.307975
H82	H	0.211789	-0.429235	0.301223
N83	N	1.085000	-0.431562	0.641599
H84	H	1.073599	-0.362685	0.653936
H85	H	1.080242	-0.437883	0.589279
N86	N	1.078866	-0.439542	0.794135
H87	H	1.108722	-0.400294	0.760907
H88	H	1.110155	-0.482258	0.825897
H89	H	1.094325	-0.419221	1.115143
