data_functionalizedCrystal
_audit_creation_method	'MofGen! by Chris Wilmer'
_symmetry_space_group_name_H-M	'P1'
_symmetry_Int_Tables_number	1
_symmetry_cell_setting	triclinic
loop_
_symmetry_equiv_pos_as_xyz
  x,y,z
_cell_length_a	12.759401
_cell_length_b	12.759400
_cell_length_c	12.759393
_cell_angle_alpha	90.030609
_cell_angle_beta	90.018364
_cell_angle_gamma	90.014845
loop_
_atom_site_label
_atom_site_type_symbol
_atom_site_fract_x
_atom_site_fract_y
_atom_site_fract_z
Zn1	Zn	1.606254	-0.418210	0.593981
Zn2	Zn	1.606149	-0.593926	0.418301
Zn3	Zn	1.430556	-0.418262	0.418321
Zn4	Zn	1.430545	-0.593848	0.593943
O5	O	1.518376	-0.506061	0.506137
O6	O	1.753261	-0.441530	0.570685
O7	O	1.582817	-0.570678	0.271283
O8	O	1.453912	-0.271234	0.441647
O9	O	1.753184	-0.570627	0.441614
O10	O	1.582996	-0.271196	0.570704
O11	O	1.453810	-0.441618	0.271297
O12	O	1.283534	-0.441543	0.441609
O13	O	1.453892	-0.570495	0.740969
O14	O	1.283525	-0.570545	0.570638
O15	O	1.582985	-0.441454	0.740997
O16	O	1.582806	-0.740936	0.441577
O17	O	1.453790	-0.740879	0.570620
C18	C	1.245409	-0.506042	0.506122
C19	C	1.128632	-0.506059	0.506141
C20	C	1.073793	-0.573338	0.573215
C21	C	0.964069	-0.573351	0.573227
C22	C	0.964033	-0.438804	0.439081
C23	C	1.073755	-0.438786	0.439075
C24	C	1.073813	-0.651021	0.650660
C25	C	0.964089	-0.651035	0.650672
C26	C	1.518314	-0.779029	0.506115
C27	C	1.518383	-0.895805	0.506140
C28	C	1.585636	-0.950662	0.439022
C29	C	1.585701	-1.060386	0.439054
C30	C	1.451250	-1.060387	0.573327
C31	C	1.451192	-0.950665	0.573299
C32	C	1.663257	-0.950663	0.361498
C33	C	1.663321	-1.060387	0.361530
C34	C	1.792409	-0.506081	0.506152
C35	C	1.909186	-0.506090	0.506158
C36	C	1.518449	-0.505960	0.780170
C37	C	1.518480	-0.505917	0.896947
C38	C	1.518467	-0.232028	0.506182
C39	C	1.518506	-0.115251	0.506201
C40	C	1.518364	-0.506086	0.233169
C41	C	1.518536	-0.505834	0.116393
C42	C	1.585731	-0.438669	1.061550
C43	C	1.585706	-0.438712	0.951826
C44	C	1.451282	-0.573089	0.951797
C45	C	1.451314	-0.573050	1.061520
C46	C	1.663336	-0.361084	1.061566
C47	C	1.663311	-0.361127	0.951842
H48	H	0.934294	-0.732384	0.628740
H49	H	1.118401	-0.383994	0.384464
H50	H	1.634220	-0.283778	1.095611
H51	H	1.641584	-1.090248	0.280150
H52	H	1.396439	-0.906001	0.627961
O53	O	1.378842	-0.645492	1.120677
H54	H	1.332086	-0.692227	1.064084
O55	O	1.634466	-0.253360	0.912407
H56	H	1.634478	-0.253460	0.825416
H57	H	1.744708	-0.382868	1.091341
O58	O	0.919039	-0.612559	0.753123
H59	H	0.983887	-0.592157	0.807435
O60	O	1.378770	-0.645577	0.892614
H61	H	1.390031	-0.634317	0.807103
O62	O	1.113309	-0.622276	0.758486
H63	H	1.161641	-0.550121	0.753358
O64	O	1.118880	-0.753345	0.611869
H65	H	1.167856	-0.788883	0.674354
O66	O	1.765679	-0.399738	0.906755
H67	H	1.780258	-0.481154	0.933653
O68	O	0.904845	-0.366272	0.366721
H69	H	0.819335	-0.377597	0.377981
O70	O	1.770999	-0.911097	0.390440
H71	H	1.792146	-0.940034	0.469693
O72	O	1.378766	-1.119555	0.645746
H73	H	1.390097	-1.205068	0.634484
H74	H	1.740625	-1.094332	0.390742
H75	H	1.634132	-0.916714	0.284172
