data_functionalizedCrystal
_audit_creation_method	'MofGen! by Chris Wilmer'
_symmetry_space_group_name_H-M	'P1'
_symmetry_Int_Tables_number	1
_symmetry_cell_setting	triclinic
loop_
_symmetry_equiv_pos_as_xyz
  x,y,z
_cell_length_a	19.805407
_cell_length_b	12.759400
_cell_length_c	19.805399
_cell_angle_alpha	89.975356
_cell_angle_beta	89.983114
_cell_angle_gamma	90.014685
loop_
_atom_site_label
_atom_site_type_symbol
_atom_site_fract_x
_atom_site_fract_y
_atom_site_fract_z
Zn1	Zn	1.034773	-0.418276	-0.382740
Zn2	Zn	1.034716	-0.593974	-0.269560
Zn3	Zn	0.921593	-0.418309	-0.269565
Zn4	Zn	0.921574	-0.593914	-0.382707
O5	O	0.978164	-0.506118	-0.326143
O6	O	1.129482	-0.441594	-0.367739
O7	O	1.019694	-0.570711	-0.174844
O8	O	0.936638	-0.271284	-0.284593
O9	O	1.129440	-0.570678	-0.284586
O10	O	1.019791	-0.271259	-0.367743
O11	O	0.936583	-0.441651	-0.174848
O12	O	0.826874	-0.441592	-0.284561
O13	O	0.936606	-0.570576	-0.477428
O14	O	0.826860	-0.570608	-0.367687
O15	O	1.019773	-0.441536	-0.477452
O16	O	1.019676	-0.740987	-0.284554
O17	O	0.936551	-0.740943	-0.367682
C18	C	0.802308	-0.506098	-0.326121
C19	C	0.727076	-0.506115	-0.326128
C20	C	0.691742	-0.573394	-0.369341
C21	C	0.621054	-0.573396	-0.369351
C22	C	0.585700	-0.506123	-0.326143
C23	C	0.621039	-0.438836	-0.282928
C24	C	0.691726	-0.438830	-0.282922
C25	C	0.335966	-0.438859	-0.282950
C26	C	0.265274	-0.438873	-0.282958
C27	C	0.265294	-0.573426	-0.369379
C28	C	0.335981	-0.573419	-0.369373
C29	C	0.371313	-0.506129	-0.326161
C30	C	0.447961	-0.506126	-0.326152
C31	C	0.509053	-0.506130	-0.326148
C32	C	0.978124	-0.779086	-0.326129
C33	C	0.978169	-0.895862	-0.326146
C34	C	1.021500	-0.950712	-0.282908
C35	C	1.021541	-1.060436	-0.282929
C36	C	0.934915	-1.060450	-0.369426
C37	C	0.934877	-0.950728	-0.369408
C38	C	1.064791	-0.895846	-0.239646
C39	C	1.108125	-0.950696	-0.196404
C40	C	1.108167	-1.060420	-0.196425
C41	C	1.064874	-1.115294	-0.239687
C42	C	1.154707	-0.506139	-0.326165
C43	C	1.229939	-0.506148	-0.326175
C44	C	0.978194	-0.506045	-0.502686
C45	C	0.978206	-0.506014	-0.577918
C46	C	0.978223	-0.232085	-0.326172
C47	C	0.978248	-0.115308	-0.326184
C48	C	0.934943	-0.438806	-0.613263
C49	C	0.934952	-0.438786	-0.683952
C50	C	0.978229	-0.505969	-0.719294
C51	C	1.021495	-0.573184	-0.683943
C52	C	1.021481	-0.573209	-0.613256
C53	C	1.021548	-0.573086	-0.969017
C54	C	1.021560	-0.573053	-1.039709
C55	C	0.935019	-0.438663	-1.039712
C56	C	0.935006	-0.438688	-0.969025
C57	C	0.978268	-0.505906	-0.933681
C58	C	0.978257	-0.505929	-0.857033
C59	C	0.978244	-0.505941	-0.795941
C60	C	0.978173	-0.506115	-0.150287
C61	C	0.978292	-0.505850	-0.075055
H62	H	0.236491	-0.384084	-0.247773
C63	C	0.374817	-0.364850	-0.235406
C64	C	0.423431	-0.282401	-0.264807
C65	C	0.462282	-0.208389	-0.217256
C66	C	0.452520	-0.216827	-0.140305
C67	C	0.403905	-0.299279	-0.110900
C68	C	0.365054	-0.373291	-0.158451
H69	H	0.430659	-0.276152	-0.321775
H70	H	0.498270	-0.147352	-0.239024
H71	H	0.481280	-0.162039	-0.105105
H72	H	0.396677	-0.305529	-0.053932
H73	H	0.329065	-0.434328	-0.136683
H74	H	0.592248	-0.384056	-0.247750
C75	C	0.582190	-0.647414	-0.416883
C76	C	0.533573	-0.729842	-0.387463
C77	C	0.494711	-0.803865	-0.434997
C78	C	0.504466	-0.795461	-0.511951
C79	C	0.553085	-0.713031	-0.541375
C80	C	0.591947	-0.639007	-0.493841
H81	H	0.526350	-0.736066	-0.330494
H82	H	0.458719	-0.864886	-0.413216
H83	H	0.475698	-0.850258	-0.547139
H84	H	0.560309	-0.706807	-0.598344
H85	H	0.627939	-0.577987	-0.515622
H86	H	0.364762	-0.628204	-0.404555
C87	C	1.069168	-0.646993	-0.930159
C88	C	1.122315	-0.601458	-0.881595
C89	C	1.169951	-0.675357	-0.842741
C90	C	1.164440	-0.794791	-0.852450
C91	C	1.111291	-0.840333	-0.901016
C92	C	1.063655	-0.766434	-0.939870
H93	H	1.126396	-0.513039	-0.874406
H94	H	1.209295	-0.641643	-0.806790
H95	H	1.199703	-0.849496	-0.823688
H96	H	1.107210	-0.928752	-0.908206
H97	H	1.024310	-0.800148	-0.975822
H98	H	0.899720	-0.384063	-0.712727
C99	C	0.887421	-0.364728	-1.078592
C100	C	0.892973	-0.245297	-1.068889
C101	C	0.845379	-0.171362	-1.107766
C102	C	0.792232	-0.216859	-1.156346
C103	C	0.786678	-0.336296	-1.166050
C104	C	0.834273	-0.410231	-1.127173
H105	H	0.932317	-0.211612	-1.032926
H106	H	0.849490	-0.082946	-1.100582
H107	H	0.757000	-0.162128	-1.185125
H108	H	0.747335	-0.369981	-1.202014
H109	H	0.830161	-0.498647	-1.134358
H110	H	0.720494	-0.384038	-0.247737
C111	C	0.887399	-0.364788	-0.930150
C112	C	0.839804	-0.290864	-0.969028
C113	C	0.792194	-0.216967	-0.930154
C114	C	0.792178	-0.216994	-0.852401
C115	C	0.839774	-0.290921	-0.813518
C116	C	0.887385	-0.364818	-0.852392
H117	H	0.839814	-0.290842	-1.026590
H118	H	0.756960	-0.162242	-0.958938
H119	H	0.756934	-0.162291	-0.823624
H120	H	0.839764	-0.290943	-0.755956
H121	H	0.922619	-0.419543	-0.823608
C122	C	0.887292	-1.120808	-0.417008
C123	C	0.887330	-1.241498	-0.417027
C124	C	0.839705	-1.301855	-0.464608
C125	C	0.792040	-1.241521	-0.512170
C126	C	0.792000	-1.120825	-0.512153
C127	C	0.839626	-1.060468	-0.464572
H128	H	0.922616	-1.286167	-0.381817
H129	H	0.839735	-1.391203	-0.464620
H130	H	0.756785	-1.286201	-0.547392
H131	H	0.756715	-1.076156	-0.547363
H132	H	0.839595	-0.971120	-0.464560
C133	C	1.069074	-0.647137	-0.574373
C134	C	1.116680	-0.721035	-0.613245
C135	C	1.164271	-0.794969	-0.574363
C136	C	1.164256	-0.795004	-0.496610
C137	C	1.116648	-0.721103	-0.457734
C138	C	1.069057	-0.647169	-0.496616
H139	H	1.116692	-0.721012	-0.670806
H140	H	1.199513	-0.849676	-0.603142
H141	H	1.199486	-0.849735	-0.467827
H142	H	1.116635	-0.721126	-0.400173
H143	H	1.033814	-0.592462	-0.467837
C144	C	0.887210	-0.890381	-0.416964
C145	C	0.810273	-0.905558	-0.411369
C146	C	0.762606	-0.845209	-0.458926
C147	C	0.791877	-0.769682	-0.512078
C148	C	0.868818	-0.754502	-0.517675
C149	C	0.916484	-0.814851	-0.470118
H150	H	0.788601	-0.961471	-0.372020
H151	H	0.705649	-0.856447	-0.454782
H152	H	0.756591	-0.725008	-0.547282
H153	H	0.890489	-0.698589	-0.557023
H154	H	0.973441	-0.803613	-0.474262
H155	H	0.720522	-0.628180	-0.404524
C156	C	1.069164	-0.646965	-1.078586
C157	C	1.063606	-0.766404	-1.068859
C158	C	1.111208	-0.840309	-1.107736
C159	C	1.164370	-0.794775	-1.156341
C160	C	1.169931	-0.675329	-1.166070
C161	C	1.122328	-0.601424	-1.127193
H162	H	1.024250	-0.800117	-1.032877
H163	H	1.107091	-0.928731	-1.100533
H164	H	1.199608	-0.849484	-1.185120
H165	H	1.209286	-0.641617	-1.202053
H166	H	1.126445	-0.513002	-1.134396
H167	H	1.056728	-0.627891	-0.712724
H168	H	0.236518	-0.628213	-0.404567
H169	H	1.143377	-0.906012	-0.161186
C170	C	1.155836	-1.120758	-0.148866
C171	C	1.203454	-1.060402	-0.101283
C172	C	1.251123	-1.120737	-0.053720
C173	C	1.251173	-1.241427	-0.053741
C174	C	1.203553	-1.301789	-0.101326
C175	C	1.155884	-1.241454	-0.148888
H176	H	1.203419	-0.971054	-0.101266
H177	H	1.286374	-1.076053	-0.018495
H178	H	1.286460	-1.286090	-0.018532
H179	H	1.203588	-1.391137	-0.101342
H180	H	1.120632	-1.286139	-0.184114
H181	H	1.064760	-0.806503	-0.239622
H182	H	0.899705	-0.384092	-0.584493
H183	H	1.064917	-1.204639	-0.239706
