data_functionalizedCrystal
_audit_creation_method	'MofGen! by Chris Wilmer'
_symmetry_space_group_name_H-M	'P1'
_symmetry_Int_Tables_number	1
_symmetry_cell_setting	triclinic
loop_
_symmetry_equiv_pos_as_xyz
  x,y,z
_cell_length_a	18.050590
_cell_length_b	25.639233
_cell_length_c	18.050589
_cell_angle_alpha	90.012113
_cell_angle_beta	89.976137
_cell_angle_gamma	90.002280
loop_
_atom_site_label
_atom_site_type_symbol
_atom_site_fract_x
_atom_site_fract_y
_atom_site_fract_z
Zn1	Zn	1.135248	-0.295425	0.295965
Zn2	Zn	1.635248	0.204575	0.795965
Zn3	Zn	1.135148	-0.208000	0.420135
Zn4	Zn	1.635148	0.292000	0.920135
Zn5	Zn	1.011070	-0.208027	0.295940
Zn6	Zn	1.511070	0.291973	0.795940
Zn7	Zn	1.011001	-0.295427	0.420094
Zn8	Zn	1.511001	0.204573	0.920094
O9	O	1.073117	-0.251720	0.358033
O10	O	1.573117	0.248280	0.858033
O11	O	1.239159	-0.283816	0.312464
O12	O	1.739159	0.216184	0.812464
O13	O	1.118676	-0.134838	0.403667
O14	O	1.618676	0.365162	0.903667
O15	O	1.027614	-0.219631	0.192019
O16	O	1.527614	0.280369	0.692019
O17	O	1.239086	-0.219585	0.403691
O18	O	1.739086	0.280415	0.903691
O19	O	1.118846	-0.283842	0.192037
O20	O	1.618846	0.216158	0.692037
O21	O	1.027517	-0.134858	0.312422
O22	O	1.527517	0.365142	0.812422
O23	O	0.907137	-0.219633	0.312382
O24	O	1.407137	0.280367	0.812382
O25	O	1.027496	-0.368592	0.403621
O26	O	1.527496	0.131408	0.903621
O27	O	0.907086	-0.283845	0.403597
O28	O	1.407086	0.216155	0.903597
O29	O	1.118779	-0.368591	0.312424
O30	O	1.618779	0.131409	0.812424
O31	O	1.118609	-0.219587	0.524054
O32	O	1.618609	0.280413	1.024054
O33	O	1.027399	-0.283819	0.524024
O34	O	1.527399	0.216181	1.024024
C35	C	0.880165	-0.251742	0.357983
C36	C	1.380165	0.248258	0.857983
C37	C	0.797619	-0.251764	0.357979
C38	C	1.297619	0.248236	0.857979
C39	C	0.598162	-0.286600	0.407724
C40	C	1.098162	0.213400	0.907724
C41	C	0.548776	-0.299462	0.340011
C42	C	1.048776	0.200538	0.840011
C43	C	0.646489	-0.251739	0.358020
C44	C	1.146489	0.248261	0.858020
C45	C	0.548793	-0.238876	0.425772
C46	C	1.048793	0.261124	0.925772
C47	C	0.500503	-0.251715	0.358066
C48	C	1.000503	0.248285	0.858066
C49	C	0.598190	-0.264626	0.290271
C50	C	1.098190	0.235374	0.790271
C51	C	0.598211	-0.204017	0.376078
C52	C	1.098211	0.295983	0.876078
C53	C	0.548847	-0.216861	0.308319
C54	C	1.048847	0.283139	0.808319
C55	C	0.730587	-0.251754	0.357995
C56	C	1.230587	0.248246	0.857995
C57	C	0.416407	-0.251700	0.358084
C58	C	0.916407	0.248300	0.858084
C59	C	1.073141	-0.388093	0.358020
C60	C	1.573141	0.111907	0.858020
C61	C	1.073151	-0.446207	0.358015
C62	C	1.573151	0.053793	0.858015
C63	C	1.120743	-0.806575	0.310387
C64	C	1.620743	-0.306575	0.810387
C65	C	1.120752	-0.861179	0.310367
C66	C	1.620752	-0.361179	0.810367
O67	O	1.161156	-0.889420	0.269960
O68	O	1.661156	-0.389420	0.769960
N69	N	1.073233	-0.888489	0.357841
N70	N	1.573233	-0.388489	0.857841
C71	C	1.025696	-0.861192	0.405333
C72	C	1.525696	-0.361192	0.905333
O73	O	0.985278	-0.889436	0.445711
O74	O	1.485278	-0.389436	0.945711
C75	C	1.025684	-0.806589	0.405349
C76	C	1.525684	-0.306589	0.905349
C77	C	1.073211	-0.779282	0.357877
C78	C	1.573211	-0.279282	0.857877
C79	C	1.168265	-0.779268	0.262919
C80	C	1.668265	-0.279268	0.762919
C81	C	1.168257	-0.724667	0.262941
C82	C	1.668257	-0.224667	0.762941
C83	C	1.120726	-0.697374	0.310431
C84	C	1.620726	-0.197374	0.810431
C85	C	1.073203	-0.724681	0.357899
C86	C	1.573203	-0.224681	0.857899
C87	C	0.978144	-0.779293	0.452837
C88	C	1.478144	-0.279293	0.952837
C89	C	0.978136	-0.724686	0.452849
C90	C	1.478136	-0.224686	0.952849
C91	C	1.025663	-0.697379	0.405377
C92	C	1.525663	-0.197379	0.905377
C93	C	1.025663	-0.642787	0.405411
C94	C	1.525663	-0.142787	0.905411
N95	N	1.073182	-0.615477	0.357937
N96	N	1.573182	-0.115477	0.857937
C97	C	1.120713	-0.642771	0.310447
C98	C	1.620713	-0.142771	0.810447
C99	C	1.025725	-0.975863	0.405294
C100	C	1.525725	-0.475863	0.905294
C101	C	1.025740	-1.030465	0.405282
C102	C	1.525740	-0.530465	0.905282
C103	C	1.120795	-1.030449	0.310315
C104	C	1.620795	-0.530449	0.810315
C105	C	1.120783	-0.975845	0.310331
C106	C	1.620783	-0.475845	0.810331
C107	C	1.073244	-0.948553	0.357820
C108	C	1.573244	-0.448553	0.857820
C109	C	1.120693	-0.528105	0.310497
C110	C	1.620693	-0.028105	0.810497
C111	C	1.120682	-0.473500	0.310525
C112	C	1.620682	0.026500	0.810525
C113	C	1.025625	-0.473522	0.405489
C114	C	1.525625	0.026478	0.905489
C115	C	1.025638	-0.528122	0.405464
C116	C	1.525638	-0.028122	0.905464
C117	C	1.073174	-0.555413	0.357962
C118	C	1.573174	-0.055413	0.857962
O119	O	0.985278	-0.614512	0.445795
O120	O	1.485278	-0.114512	0.945795
O121	O	1.161118	-0.614521	0.270069
O122	O	1.661118	-0.114521	0.770069
C123	C	1.266822	-0.251697	0.358085
C124	C	1.766822	0.248303	0.858085
C125	C	1.349368	-0.251688	0.358107
C126	C	1.849368	0.248312	0.858107
C127	C	1.073005	-0.251712	0.550986
C128	C	1.573005	0.248288	1.050986
C129	C	1.073026	-0.251725	0.633531
C130	C	1.573026	0.248275	1.133531
C131	C	1.073136	-0.115877	0.357993
C132	C	1.573136	0.384123	0.857993
C133	C	1.073269	-0.057763	0.357789
C134	C	1.573269	0.442237	0.857789
C135	C	1.023452	-0.286643	0.832992
C136	C	1.523452	0.213357	1.332992
C137	C	1.005350	-0.238937	0.882416
C138	C	1.505350	0.261063	1.382416
C139	C	1.073081	-0.251733	0.784662
C140	C	1.573081	0.248267	1.284662
C141	C	1.091203	-0.299445	0.882320
C142	C	1.591203	0.200555	1.382320
C143	C	1.073134	-0.251744	0.930647
C144	C	1.573134	0.248256	1.430647
C145	C	1.054944	-0.204001	0.832998
C146	C	1.554944	0.295999	1.332998
C147	C	1.140829	-0.264541	0.832897
C148	C	1.640829	0.235459	1.332897
C149	C	1.122753	-0.216802	0.882299
C150	C	1.622753	0.283198	1.382299
C151	C	1.073049	-0.251727	0.700563
C152	C	1.573049	0.248273	1.200563
C153	C	1.073166	-0.251744	1.014743
C154	C	1.573166	0.248256	1.514743
C155	C	1.073221	-0.251740	1.164328
C156	C	1.573221	0.248260	1.664328
C157	C	1.073192	-0.251750	1.081782
C158	C	1.573192	0.248250	1.581782
H159	H	1.159387	-0.451269	0.271867
H160	H	1.659387	0.048731	0.771867
H161	H	1.206957	-0.702438	0.224283
H162	H	1.706957	-0.202438	0.724283
H163	H	0.939415	-0.702467	0.491513
H164	H	1.439415	-0.202467	0.991513
H165	H	1.206971	-0.801484	0.224243
H166	H	1.706971	-0.301484	0.724243
H167	H	0.986944	-0.550357	0.444126
H168	H	1.486944	-0.050357	0.944126
H169	H	0.619941	-0.163682	0.391358
H170	H	1.119941	0.336318	0.891358
Br171	Br	1.116713	-0.366687	0.918435
Br172	Br	1.616713	0.133313	1.418435
H173	H	0.948084	-0.228114	0.904184
H174	H	1.448084	0.271886	1.404184
Br175	Br	0.634256	-0.335788	0.477663
Br176	Br	1.134256	0.164212	0.977663
H177	H	1.039571	-0.163645	0.811423
H178	H	1.539571	0.336355	1.311423
H179	H	1.164746	-0.187250	0.903812
H180	H	1.664746	0.312750	1.403812
H181	H	0.939442	-0.801517	0.491494
H182	H	1.439442	-0.301517	0.991494
H183	H	0.986929	-0.451290	0.444156
H184	H	1.486929	0.048710	0.944156
Br185	Br	0.953413	-0.335782	0.796905
Br186	Br	1.453413	0.164218	1.296905
H187	H	0.527062	-0.339810	0.324752
H188	H	1.027062	0.160190	0.824752
Br189	Br	0.634197	-0.282819	0.194775
Br190	Br	1.134197	0.217181	0.694775
H191	H	1.198082	-0.275387	0.811132
H192	H	1.698082	0.224613	1.311132
Br193	Br	0.512624	-0.220759	0.521237
Br194	Br	1.012624	0.279241	1.021237
Br195	Br	0.512980	-0.167706	0.238218
Br196	Br	1.012980	0.332294	0.738218
H197	H	0.987012	-0.953645	0.443970
H198	H	1.487012	-0.453645	0.943970
Br199	Br	1.185201	-0.565134	0.246024
Br200	Br	1.685201	-0.065134	0.746024
H201	H	1.159483	-0.953615	0.271674
H202	H	1.659483	-0.453615	0.771674
H203	H	1.159496	-1.052681	0.271644
H204	H	1.659496	-0.552681	0.771644
H205	H	0.987047	-1.052694	0.443947
H206	H	1.487047	-0.552694	0.943947
