data_functionalizedCrystal
_audit_creation_method	'MofGen! by Chris Wilmer'
_symmetry_space_group_name_H-M	'P1'
_symmetry_Int_Tables_number	1
_symmetry_cell_setting	triclinic
loop_
_symmetry_equiv_pos_as_xyz
  x,y,z
_cell_length_a	19.188930
_cell_length_b	16.109301
_cell_length_c	15.186229
_cell_angle_alpha	89.999362
_cell_angle_beta	90.008857
_cell_angle_gamma	96.696869
loop_
_atom_site_label
_atom_site_type_symbol
_atom_site_fract_x
_atom_site_fract_y
_atom_site_fract_z
O1	O	0.089744	-1.102833	0.073183
O2	O	0.100912	-0.860734	0.073198
O3	O	-0.006311	-0.988770	0.073173
O4	O	0.196967	-0.974797	0.073208
O5	O	-0.006313	-0.988762	-0.073284
O6	O	0.100911	-0.860726	-0.073259
O7	O	0.089742	-1.102825	-0.073274
Zn8	Zn	0.095326	-0.981774	-0.096520
Zn9	Zn	0.095328	-0.981785	0.096444
O10	O	0.196966	-0.974789	-0.073249
C11	C	-0.032324	-0.988313	-0.000058
C12	C	-0.109832	-0.986955	-0.000066
C13	C	0.100459	-0.829757	-0.000029
C14	C	0.099103	-0.737466	-0.000024
C15	C	0.090196	-1.133802	-0.000045
C16	C	0.091552	-1.226093	-0.000045
C17	C	-0.154580	-1.062082	-0.000075
C18	C	-0.227407	-1.060806	-0.000060
C19	C	-0.255482	-0.984399	-0.000055
C20	C	-0.210724	-0.909261	-0.000041
C21	C	-0.137899	-0.910540	-0.000046
N22	N	-0.363624	-0.925991	-0.049893
N23	N	-0.432805	-0.924782	-0.049890
C24	C	-0.474900	-0.980543	-0.000037
N25	N	-0.445200	-1.037571	0.049802
N26	N	-0.376013	-1.038783	0.049795
C27	C	-0.334448	-0.983004	-0.000049
C28	C	-0.598616	-1.054292	-0.000029
C29	C	-0.671443	-1.053012	-0.000010
C30	C	-0.654759	-0.901465	0.000001
C31	C	-0.581933	-0.902747	-0.000010
C32	C	-0.553866	-0.979162	-0.000029
C33	C	0.222979	-0.975246	-0.000016
C34	C	0.300486	-0.976604	-0.000003
N35	N	0.095325	-0.981772	-0.228213
C36	C	0.159573	-0.514993	-0.000023
C37	C	0.158294	-0.428277	-0.000029
C38	C	0.031076	-0.448573	-0.000048
C39	C	0.032357	-0.535287	-0.000048
C40	C	0.096608	-0.568495	-0.000031
C41	C	0.094047	-0.395064	-0.000037
C42	C	0.092659	-0.301043	-0.000043
C43	C	0.097996	-0.662522	-0.000027
C44	C	0.047862	-1.038486	-0.453947
C45	C	0.047860	-1.038488	-0.546136
C46	C	0.142790	-0.925074	-0.546123
C47	C	0.142787	-0.925068	-0.453935
C48	C	0.095324	-0.981779	-0.407849
C49	C	0.095325	-0.981787	-0.592227
C50	C	0.095323	-0.981790	-0.692183
C51	C	0.095325	-0.981775	-0.307887
N52	N	0.095325	-0.981793	0.228137
H53	H	-0.131733	-1.124306	-0.000087
H54	H	-0.018920	-0.578851	-0.000057
N55	N	0.228867	-0.550816	-0.000019
H56	H	0.232238	-0.586341	0.054274
H57	H	0.268522	-0.503718	-0.000051
H58	H	-0.233587	-0.847050	-0.000035
N59	N	0.193980	-0.863894	-0.404215
H60	H	0.243538	-0.873285	-0.420242
H61	H	0.186714	-0.872521	-0.338837
N62	N	-0.003322	-1.099664	-0.595854
H63	H	-0.052882	-1.090283	-0.579821
H64	H	0.004807	-1.158604	-0.579775
H65	H	-0.575763	-1.116514	-0.000041
N66	N	0.226197	-0.370553	-0.000022
H67	H	0.228487	-0.334130	-0.054319
H68	H	0.267062	-0.404791	0.000019
N69	N	-0.038218	-0.412752	-0.000048
H70	H	-0.077913	-0.459806	-0.000054
H71	H	-0.041525	-0.377213	-0.054339
H72	H	0.009214	-1.084662	-0.416426
H73	H	0.181434	-0.878902	-0.583655
N74	N	-0.089631	-0.829505	-0.000057
H75	H	-0.039237	-0.841909	-0.000068
H76	H	-0.098703	-0.796191	0.054238
H77	H	-0.707878	-1.114193	-0.000012
N78	N	-0.275684	-1.141839	-0.000068
H79	H	-0.246852	-1.190441	-0.000080
H80	H	-0.306269	-1.144598	-0.054361
H81	H	-0.545497	-0.841570	-0.000008
N82	N	-0.685029	-0.819052	0.000017
H83	H	-0.737954	-0.829640	0.000022
H84	H	-0.668667	-0.786182	-0.054275
