data_functionalizedCrystal
_audit_creation_method	'MofGen! by Chris Wilmer'
_symmetry_space_group_name_H-M	'P1'
_symmetry_Int_Tables_number	1
_symmetry_cell_setting	triclinic
loop_
_symmetry_equiv_pos_as_xyz
  x,y,z
_cell_length_a	16.992694
_cell_length_b	11.026607
_cell_length_c	16.053802
_cell_angle_alpha	93.134017
_cell_angle_beta	87.249047
_cell_angle_gamma	99.627120
loop_
_atom_site_label
_atom_site_type_symbol
_atom_site_fract_x
_atom_site_fract_y
_atom_site_fract_z
O1	O	1.079834	0.256038	-0.069317
O2	O	0.851145	0.253175	-0.069342
O3	O	0.946536	0.076115	-0.069328
O4	O	0.984443	0.433098	-0.069330
O5	O	0.941279	0.085818	0.069530
O6	O	0.845889	0.262878	0.069516
O7	O	1.074577	0.265741	0.069541
Zn8	Zn	0.959398	0.265850	0.091575
Zn9	Zn	0.966324	0.253066	-0.091376
O10	O	0.979186	0.442801	0.069528
C11	C	0.818785	0.254344	0.000084
C12	C	0.730190	0.243357	0.000075
C13	C	0.936914	0.035078	0.000099
C14	C	0.916068	-0.101658	0.000094
C15	C	0.694911	0.349355	0.000075
C16	C	0.611666	0.339026	0.000086
C17	C	0.563702	0.222698	0.000092
C18	C	0.598986	0.116693	0.000094
C19	C	0.682229	0.127024	0.000089
C20	C	0.314060	0.179883	0.000114
C21	C	0.230811	0.169561	0.000117
C22	C	0.243497	0.391895	0.000111
C23	C	0.326741	0.402215	0.000100
C24	C	0.362018	0.296210	0.000107
N25	N	0.478612	0.212138	0.000101
N26	N	0.447107	0.306772	0.000104
C27	C	0.973629	-0.169881	0.000099
C28	C	0.952085	-0.311205	0.000093
C29	C	1.106937	0.264572	0.000113
C30	C	1.195532	0.275558	0.000117
C31	C	0.988808	0.483838	0.000099
C32	C	1.009655	0.620574	0.000098
N33	N	0.954677	0.274575	0.216435
N34	N	0.971050	0.244332	-0.216236
C35	C	0.995289	0.199266	0.260135
C36	C	0.991996	0.205382	0.347541
C37	C	0.948095	0.286813	0.391246
C38	C	0.907478	0.362124	0.347540
C39	C	0.910767	0.356002	0.260136
C40	C	0.933722	0.313521	0.652654
C41	C	0.930438	0.319641	0.740065
C42	C	1.014955	0.162896	0.740059
C43	C	1.018244	0.156786	0.652653
C44	C	0.977624	0.232093	0.608955
N45	N	0.944729	0.293068	0.480589
N46	N	0.980985	0.225830	0.519613
H47	H	0.733959	0.444081	0.000069
H48	H	1.038860	-0.123663	0.000111
C49	C	1.096669	-0.317974	0.000240
C50	C	1.131687	-0.348789	0.071673
C51	C	1.211844	-0.292215	0.071826
H52	H	1.099701	-0.231167	0.000284
H53	H	1.124263	-0.345522	-0.048155
H54	H	1.104101	-0.321234	0.120055
H55	H	1.128676	-0.435586	0.071643
H56	H	1.239437	-0.319764	0.023431
H57	H	1.214868	-0.205411	0.071868
H58	H	1.235615	-0.313124	0.120288
H59	H	0.850837	-0.147877	0.000081
C60	C	0.882617	0.407885	0.787479
C61	C	0.802470	0.378758	0.766254
C62	C	0.758394	0.460003	0.809926
H63	H	0.903266	0.489893	0.773188
H64	H	0.886427	0.400728	0.845799
H65	H	0.798664	0.385926	0.707947
H66	H	0.781798	0.296764	0.780547
H67	H	0.762204	0.452846	0.868246
H68	H	0.779050	0.542007	0.795632
H69	H	0.704009	0.440245	0.795537
H70	H	0.191760	0.074828	0.000121
C71	C	1.042965	0.110729	0.212838
C72	C	1.077807	0.046063	0.269821
C73	C	1.121721	-0.035525	0.226285
H74	H	1.083646	0.155700	0.178730
H75	H	1.008429	0.054260	0.178768
H76	H	1.112340	0.102524	0.303877
H77	H	1.037144	0.001067	0.303931
H78	H	1.087186	-0.091994	0.192215
H79	H	1.162398	0.009456	0.192179
H80	H	1.145361	-0.079419	0.264941
H81	H	1.025064	0.144059	0.383121
H82	H	0.582946	0.425341	0.000085
H83	H	1.048025	0.101583	0.775646
H84	H	0.710952	0.040709	0.000088
C85	C	1.065916	0.068245	0.605355
C86	C	1.100761	0.003576	0.662334
C87	C	1.144676	-0.078007	0.618794
H88	H	1.106595	0.113219	0.571247
H89	H	1.031380	0.011777	0.571284
H90	H	1.135294	0.060037	0.696390
H91	H	1.060100	-0.041423	0.696444
H92	H	1.110140	-0.134475	0.584724
H93	H	1.185351	-0.033022	0.584687
H94	H	1.168317	-0.121902	0.657447
H95	H	0.886850	-0.357419	0.000081
C96	C	0.378849	0.528481	-0.000101
C97	C	0.429671	0.535898	-0.071568
C98	C	0.477670	0.652205	-0.071804
H99	H	0.409847	0.540680	0.048253
H100	H	0.345931	0.590150	-0.000153
H101	H	0.462584	0.474247	-0.071509
H102	H	0.398694	0.523722	-0.119934
H103	H	0.444753	0.713875	-0.071855
H104	H	0.508663	0.664395	-0.023446
H105	H	0.512153	0.657258	-0.120297
C106	C	0.889746	0.395506	0.605267
C107	C	0.918921	0.519157	0.626507
C108	C	0.878436	0.594724	0.582861
H109	H	0.834251	0.378118	0.619569
H110	H	0.898000	0.380290	0.546943
H111	H	0.910660	0.534366	0.684818
H112	H	0.974411	0.536583	0.612202
H113	H	0.886690	0.579508	0.524537
H114	H	0.822943	0.577325	0.597167
H115	H	0.898231	0.678628	0.597261
H116	H	0.871728	0.428423	0.383130
C117	C	0.866655	0.437915	0.212838
C118	C	0.827522	0.510564	0.269818
C119	C	0.786882	0.586047	0.226279
H120	H	0.828541	0.388163	0.178747
H121	H	0.903754	0.489610	0.178750
H122	H	0.790426	0.458875	0.303891
H123	H	0.865617	0.560341	0.303911
H124	H	0.823981	0.637742	0.192192
H125	H	0.748773	0.536286	0.192190
H126	H	0.760332	0.635357	0.264934
C127	C	0.352204	0.064646	0.000075
C128	C	0.292380	-0.039437	0.000057
C129	C	0.327492	-0.145620	0.000011
H130	H	0.382579	0.067262	0.048485
H131	H	0.386221	0.060594	-0.048367
H132	H	0.258377	-0.035386	0.048495
H133	H	0.262001	-0.042093	-0.048349
H134	H	0.361509	-0.149672	-0.048432
H135	H	0.357866	-0.142992	0.048421
H136	H	0.286908	-0.216253	-0.000010
H137	H	0.214765	0.478198	0.000107
H138	H	0.559926	0.021977	0.000111
