data_functionalizedCrystal
_audit_creation_method	'MofGen! by Chris Wilmer'
_symmetry_space_group_name_H-M	'P1'
_symmetry_Int_Tables_number	1
_symmetry_cell_setting	triclinic
loop_
_symmetry_equiv_pos_as_xyz
  x,y,z
_cell_length_a	10.723024
_cell_length_b	14.971486
_cell_length_c	14.048226
_cell_angle_alpha	89.998499
_cell_angle_beta	90.005242
_cell_angle_gamma	95.959001
loop_
_atom_site_label
_atom_site_type_symbol
_atom_site_fract_x
_atom_site_fract_y
_atom_site_fract_z
O1	O	0.162616	-1.187820	0.079049
O2	O	0.182090	-0.927525	0.079074
O3	O	-0.009286	-1.063676	0.079057
O4	O	0.353992	-1.051668	0.079066
O5	O	-0.009297	-1.063660	-0.079264
O6	O	0.182079	-0.927508	-0.079247
O7	O	0.162605	-1.187804	-0.079273
Zn8	Zn	0.172340	-1.057653	-0.104397
Zn9	Zn	0.172355	-1.057675	0.104198
O10	O	0.353981	-1.051652	-0.079256
C11	C	-0.055782	-1.062794	-0.000102
C12	C	-0.194309	-1.060180	-0.000099
C13	C	0.181213	-0.894187	-0.000083
C14	C	0.178604	-0.794876	-0.000073
C15	C	0.163482	-1.221141	-0.000113
C16	C	0.166091	-1.320452	-0.000117
C17	C	-0.270088	-1.136363	-0.000105
C18	C	-0.413263	-1.133663	-0.000101
C19	C	0.400477	-1.052534	-0.000094
C20	C	0.539004	-1.055148	-0.000092
N21	N	0.172329	-1.057645	-0.246758
C22	C	0.291032	-0.738254	-0.000072
C23	C	0.288572	-0.644941	-0.000086
C24	C	0.173683	-0.608252	-0.000095
C25	C	0.061246	-0.664881	-0.000099
C26	C	0.063707	-0.758192	-0.000092
C27	C	0.056125	-0.470391	-0.000112
C28	C	0.053663	-0.377074	-0.000118
C29	C	0.280990	-0.357141	-0.000107
C30	C	0.283451	-0.450452	-0.000100
C31	C	0.171013	-0.507074	-0.000102
C32	C	0.087623	-1.117952	-0.296583
C33	C	0.087622	-1.117958	-0.396241
C34	C	0.172335	-1.057660	-0.446071
C35	C	0.257045	-0.997347	-0.396238
C36	C	0.257039	-0.997337	-0.296583
C37	C	0.257054	-0.997373	-0.603953
C38	C	0.257062	-0.997383	-0.703615
C39	C	0.087638	-1.117994	-0.703611
C40	C	0.087631	-1.117984	-0.603955
C41	C	0.172344	-1.057671	-0.554129
N42	N	0.172356	-1.057690	0.246559
H43	H	-0.228968	-1.203586	-0.000117
H44	H	-0.235428	-0.992957	-0.000086
H45	H	0.377003	-0.480320	-0.000084
H46	H	0.326015	-0.948247	-0.436816
O47	O	-0.003736	-1.183019	-0.550209
H48	H	-0.064463	-1.144989	-0.504814
H49	H	0.372540	-0.311034	-0.000109
O50	O	-0.499508	-1.220057	-0.000115
H51	H	-0.442755	-1.277981	-0.000131
O52	O	-0.003743	-1.183042	-0.757342
H53	H	0.010477	-1.172913	-0.835011
O54	O	-0.003734	-1.183003	-0.449989
H55	H	0.048908	-1.226785	-0.495388
H56	H	0.326043	-0.948281	-0.744182
O57	O	0.414956	-0.777816	-0.000068
H58	H	0.421533	-0.819841	0.064467
H59	H	0.380122	-0.598843	-0.000084
H60	H	-0.032298	-0.635002	-0.000120
H61	H	0.326032	-0.948256	-0.563388
O62	O	-0.374764	-0.968748	-0.000095
H63	H	-0.392593	-0.929225	0.064433
H64	H	0.326013	-0.948228	-0.256016
H65	H	-0.035434	-0.516492	-0.000116
H66	H	-0.027843	-0.804293	-0.000092
H67	H	0.018646	-1.167057	-0.256018
O68	O	-0.070248	-0.337496	-0.000140
H69	H	-0.148020	-0.392543	-0.000157
