data_functionalizedCrystal
_audit_creation_method	'MofGen! by Chris Wilmer'
_symmetry_space_group_name_H-M	'P1'
_symmetry_Int_Tables_number	1
_symmetry_cell_setting	triclinic
loop_
_symmetry_equiv_pos_as_xyz
  x,y,z
_cell_length_a	14.044220
_cell_length_b	16.109295
_cell_length_c	14.586319
_cell_angle_alpha	90.005323
_cell_angle_beta	89.986995
_cell_angle_gamma	91.675968
loop_
_atom_site_label
_atom_site_type_symbol
_atom_site_fract_x
_atom_site_fract_y
_atom_site_fract_z
O1	O	0.121820	-1.112202	-0.076180
O2	O	0.621820	-0.612202	0.423820
O3	O	0.136988	-0.871268	-0.076196
O4	O	0.636988	-0.371268	0.423804
O5	O	-0.008579	-0.988118	-0.076179
O6	O	0.491421	-0.488118	0.423821
O7	O	0.267387	-0.995351	-0.076197
O8	O	0.767387	-0.495351	0.423803
O9	O	-0.008604	-0.988098	0.076302
O10	O	0.491396	-0.488098	0.576302
O11	O	0.136963	-0.871248	0.076285
O12	O	0.636963	-0.371248	0.576285
O13	O	0.121796	-1.112182	0.076301
O14	O	0.621796	-0.612182	0.576301
Cu15	Cu	0.129377	-0.991713	0.090216
Cu16	Cu	0.629377	-0.491713	0.590216
Cu17	Cu	0.129406	-0.991737	-0.090111
Cu18	Cu	0.629406	-0.491737	0.409889
O19	O	0.267363	-0.995331	0.076284
O20	O	0.767363	-0.495331	0.576284
C21	C	0.136362	-0.840237	0.000043
C22	C	0.636362	-0.340237	0.500043
C23	C	0.134523	-0.747805	0.000037
C24	C	0.634523	-0.247805	0.500037
C25	C	-0.043905	-0.984942	0.000061
C26	C	0.456095	-0.484942	0.500061
C27	C	-0.149128	-0.975499	0.000062
C28	C	0.350872	-0.475499	0.500062
C29	C	0.216621	-0.531640	0.000041
C30	C	0.716621	-0.031640	0.500041
C31	C	0.214886	-0.444790	0.000047
C32	C	0.714886	0.055210	0.500047
C33	C	0.042178	-0.451815	0.000054
C34	C	0.542178	0.048185	0.500054
C35	C	0.043915	-0.538663	0.000055
C36	C	0.543915	-0.038663	0.500055
C37	C	0.131139	-0.578573	0.000044
C38	C	0.631139	-0.078573	0.500044
C39	C	0.127667	-0.404875	0.000049
C40	C	0.627667	0.095125	0.500049
C41	C	0.125785	-0.310709	0.000055
C42	C	0.625785	0.189291	0.500055
C43	C	0.133022	-0.672746	0.000040
C44	C	0.633022	-0.172746	0.500040
C45	C	-0.341783	-0.958233	0.000048
C46	C	0.158217	-0.458233	0.500048
C47	C	-0.399439	-1.025213	0.000049
C48	C	0.100561	-0.525213	0.500049
C49	C	-0.506639	-1.015606	0.000041
C50	C	-0.006639	-0.515606	0.500041
C51	C	-0.234573	-0.967839	0.000056
C52	C	0.265427	-0.467839	0.500056
C53	C	0.302689	-0.998507	0.000041
C54	C	0.802689	-0.498507	0.500041
C55	C	0.407911	-1.007951	0.000035
C56	C	0.907911	-0.507951	0.500035
C57	C	0.122427	-0.143212	0.000059
C58	C	0.622427	0.356788	0.500059
C59	C	0.124284	-0.235644	0.000056
C60	C	0.624284	0.264356	0.500056
N61	N	0.129356	-0.991703	0.217047
N62	N	0.629356	-0.491703	0.717047
N63	N	0.129420	-0.991753	-0.216942
N64	N	0.629420	-0.491753	0.283058
C65	C	0.071893	-0.937045	0.548077
C66	C	0.571893	-0.437045	1.048077
C67	C	0.071880	-0.937037	0.452095
C68	C	0.571880	-0.437037	0.952095
C69	C	0.186886	-1.046417	0.452035
C70	C	0.686886	-0.546417	0.952035
C71	C	0.186893	-1.046428	0.548014
C72	C	0.686893	-0.546428	1.048014
C73	C	0.129398	-0.991737	0.596033
C74	C	0.629398	-0.491737	1.096033
C75	C	0.129378	-0.991719	0.404072
C76	C	0.629378	-0.491719	0.904072
C77	C	0.129364	-0.991711	0.300005
C78	C	0.629364	-0.491711	0.800005
C79	C	0.129410	-0.991746	0.700107
C80	C	0.629410	-0.491746	1.200107
H81	H	0.284494	-0.406581	0.000047
H82	H	0.784494	0.093419	0.500047
H83	H	-0.368289	-1.089770	-0.000008
H84	H	0.131711	-0.589770	0.499992
H85	H	0.287645	-0.564132	0.000039
H86	H	0.787645	-0.064132	0.500039
H87	H	0.233697	-1.090943	0.412927
H88	H	0.733697	-0.590943	0.912927
H89	H	-0.028837	-0.419310	0.000069
H90	H	0.471163	0.080690	0.500069
N91	N	-0.043417	-0.586598	0.000067
N92	N	0.456583	-0.086598	0.500067
N93	N	-0.121288	-0.550956	0.000073
N94	N	0.378712	-0.050956	0.500073
H95	H	-0.182965	-0.584810	0.000085
H96	H	0.317035	-0.084810	0.500085
H97	H	-0.372931	-0.893681	0.000041
H98	H	0.127069	-0.393681	0.500041
H99	H	0.233721	-1.090970	0.587061
H100	H	0.733721	-0.590970	1.087061
H101	H	0.025076	-0.892512	0.587170
H102	H	0.525076	-0.392512	1.087170
H103	H	0.025052	-0.892502	0.413054
H104	H	0.525052	-0.392502	0.913054
