data_functionalizedCrystal
_audit_creation_method	'MofGen! by Chris Wilmer'
_symmetry_space_group_name_H-M	'P1'
_symmetry_Int_Tables_number	1
_symmetry_cell_setting	triclinic
loop_
_symmetry_equiv_pos_as_xyz
  x,y,z
_cell_length_a	16.992694
_cell_length_b	12.996460
_cell_length_c	16.992695
_cell_angle_alpha	90.006330
_cell_angle_beta	90.668223
_cell_angle_gamma	89.999814
loop_
_atom_site_label
_atom_site_type_symbol
_atom_site_fract_x
_atom_site_fract_y
_atom_site_fract_z
O1	O	1.050852	0.085439	0.166918
O2	O	1.384185	0.418772	0.500251
O3	O	1.717518	0.752106	0.833585
O4	O	0.822452	0.085469	0.165087
O5	O	1.155785	0.418802	0.498420
O6	O	1.489118	0.752136	0.831754
O7	O	0.935736	0.085446	0.051802
O8	O	1.269069	0.418779	0.385136
O9	O	1.602403	0.752113	0.718469
O10	O	0.937567	0.085462	0.280203
O11	O	1.270901	0.418795	0.613536
O12	O	1.604234	0.752129	0.946869
O13	O	0.935723	-0.085688	0.051795
O14	O	1.269056	0.247645	0.385128
O15	O	1.602390	0.580979	0.718462
O16	O	0.822439	-0.085665	0.165079
O17	O	1.155772	0.247669	0.498413
O18	O	1.489105	0.581002	0.831746
O19	O	1.050839	-0.085695	0.166911
O20	O	1.384172	0.247638	0.500244
O21	O	1.717505	0.580972	0.833577
Cu22	Cu	0.936638	-0.101306	0.165994
Cu23	Cu	1.269971	0.232028	0.499328
Cu24	Cu	1.603304	0.565361	0.832661
Cu25	Cu	0.936653	0.101080	0.166003
Cu26	Cu	1.269986	0.434413	0.499337
Cu27	Cu	1.603320	0.767747	0.832670
O28	O	0.937554	-0.085672	0.280195
O29	O	1.270888	0.247662	0.613528
O30	O	1.604221	0.580995	0.946862
C31	C	0.793085	-0.000094	0.162727
C32	C	1.126418	0.333239	0.496061
C33	C	1.459752	0.666573	0.829394
C34	C	0.705600	-0.000083	0.155699
C35	C	1.038934	0.333251	0.489032
C36	C	1.372267	0.666584	0.822365
N37	N	0.936632	-0.243653	0.165988
N38	N	1.269966	0.089681	0.499321
N39	N	1.603299	0.423014	0.832655
C40	C	0.659610	-0.000079	0.223517
C41	C	0.992943	0.333255	0.556850
C42	C	1.326276	0.666588	0.890183
C43	C	0.577409	-0.000093	0.216908
C44	C	0.910742	0.333240	0.550241
C45	C	1.244076	0.666573	0.883574
C46	C	0.541201	-0.000105	0.142480
C47	C	0.874534	0.333229	0.475813
C48	C	1.207867	0.666562	0.809147
C49	C	0.587198	-0.000112	0.074657
C50	C	0.920531	0.333222	0.407990
C51	C	1.253864	0.666555	0.741324
C52	C	0.669397	-0.000104	0.081267
C53	C	1.002730	0.333229	0.414600
C54	C	1.336063	0.666562	0.747933
C55	C	0.295886	-0.000134	0.115086
C56	C	0.629220	0.333199	0.448419
C57	C	0.962553	0.666533	0.781752
C58	C	0.213681	-0.000138	0.108481
C59	C	0.547014	0.333195	0.441814
C60	C	0.880348	0.666528	0.775148
C61	C	0.203898	-0.000122	0.250732
C62	C	0.537231	0.333212	0.584066
C63	C	0.870565	0.666545	0.917399
C64	C	0.286099	-0.000108	0.257335
C65	C	0.619432	0.333225	0.590669
C66	C	0.952766	0.666558	0.924002
C67	C	0.332089	-0.000121	0.189512
C68	C	0.665422	0.333213	0.522846
C69	C	0.998756	0.666546	0.856179
N70	N	0.457178	-0.000116	0.135723
N71	N	0.790512	0.333217	0.469056
N72	N	1.123845	0.666550	0.802390
N73	N	0.416110	-0.000116	0.196270
N74	N	0.749443	0.333217	0.529604
N75	N	1.082776	0.666550	0.862937
C76	C	0.936652	-0.663467	0.166004
C77	C	1.269985	-0.330134	0.499337
C78	C	1.603319	0.003200	0.832671
C79	C	0.936644	-0.546662	0.166002
C80	C	1.269978	-0.213329	0.499335
C81	C	1.603311	0.120005	0.832669
C82	C	0.936643	-0.453564	0.165997
C83	C	1.269976	-0.120230	0.499330
C84	C	1.603309	0.213103	0.832663
C85	C	0.936634	-0.336751	0.165993
C86	C	1.269968	-0.003418	0.499327
C87	C	1.603301	0.329916	0.832660
C88	C	1.080205	-0.000130	0.169270
C89	C	1.413539	0.333204	0.502603
C90	C	1.746872	0.666537	0.835937
C91	C	1.167690	-0.000134	0.176299
C92	C	1.501023	0.333199	0.509632
C93	C	1.834357	0.666532	0.842966
C94	C	0.933374	-0.000121	0.022439
C95	C	1.266707	0.333213	0.355772
C96	C	1.600041	0.666546	0.689105
C97	C	0.926345	-0.000119	-0.065046
C98	C	1.259678	0.333214	0.268287
C99	C	1.593012	0.666547	0.601621
N100	N	0.936664	0.243427	0.166004
N101	N	1.269997	0.576760	0.499337
N102	N	1.603331	0.910094	0.832670
C103	C	0.994163	-0.000129	-0.111037
C104	C	1.327496	0.333204	0.222296
C105	C	1.660830	0.666537	0.555630
C106	C	0.987554	-0.000119	-0.193238
C107	C	1.320887	0.333215	0.140096
C108	C	1.654221	0.666548	0.473429
C109	C	0.913127	-0.000105	-0.229446
C110	C	1.246460	0.333228	0.103887
C111	C	1.579793	0.666561	0.437221
C112	C	0.845303	-0.000092	-0.183449
C113	C	1.178637	0.333241	0.149884
C114	C	1.511970	0.666574	0.483218
C115	C	0.851913	-0.000096	-0.101250
C116	C	1.185246	0.333238	0.232084
C117	C	1.518580	0.666571	0.565417
C118	C	0.885732	-0.000088	-0.474760
C119	C	1.219065	0.333246	-0.141427
C120	C	1.552399	0.666579	0.191906
C121	C	0.879127	-0.000087	-0.556966
C122	C	1.212461	0.333246	-0.223632
C123	C	1.545794	0.666579	0.109701
C124	C	1.021379	-0.000112	-0.566749
C125	C	1.354712	0.333221	-0.233415
C126	C	1.688045	0.666555	0.099918
C127	C	1.027982	-0.000121	-0.484547
C128	C	1.361315	0.333212	-0.151214
C129	C	1.694649	0.666545	0.182119
C130	C	0.960159	-0.000103	-0.438558
C131	C	1.293492	0.333230	-0.105224
C132	C	1.626826	0.666564	0.228109
N133	N	0.906369	-0.000098	-0.313468
N134	N	1.239703	0.333236	0.019865
N135	N	1.573036	0.666569	0.353199
N136	N	0.966917	-0.000103	-0.354537
N137	N	1.300250	0.333230	-0.021204
N138	N	1.633583	0.666564	0.312130
C139	C	0.939917	-0.000103	0.309559
C140	C	1.273250	0.333230	0.642892
C141	C	1.606583	0.666564	0.976226
C142	C	0.946945	-0.000097	0.397044
C143	C	1.280279	0.333236	0.730377
C144	C	1.613612	0.666569	1.063710
H145	H	0.689084	-0.000069	0.284124
H146	H	1.022417	0.333265	0.617457
H147	H	1.355751	0.666598	0.950790
H148	H	0.315574	-0.000087	0.317942
H149	H	0.648907	0.333246	0.651276
H150	H	0.982240	0.666579	0.984609
C151	C	0.500437	0.087851	-0.015297
C152	C	0.833770	0.421185	0.318036
C153	C	1.167103	0.754518	0.651369
C154	C	0.547400	-0.000121	-0.007156
C155	C	0.880733	0.333212	0.326177
C156	C	1.214066	0.666545	0.659510
H157	H	0.475873	0.087849	-0.065809
H158	H	0.809206	0.421182	0.267524
H159	H	1.142540	0.754515	0.600858
H160	H	0.461284	0.087845	0.024141
H161	H	0.794618	0.421179	0.357475
H162	H	1.127951	0.754512	0.690808
H163	H	0.532307	0.147523	-0.009759
H164	H	0.865641	0.480857	0.323575
H165	H	1.198974	0.814190	0.656908
H166	H	0.515528	-0.059794	-0.012689
H167	H	0.848861	0.273539	0.320644
H168	H	1.182194	0.606873	0.653977
H169	H	0.586557	-0.000125	-0.046607
H170	H	0.919890	0.333209	0.286727
H171	H	1.253224	0.666542	0.620060
C172	C	0.073549	-0.000135	0.303766
C173	C	0.406882	0.333198	0.637099
C174	C	0.740215	0.666532	0.970433
C175	C	0.153344	-0.000122	0.325280
C176	C	0.486677	0.333211	0.658613
C177	C	0.820011	0.666545	0.991947
H178	H	0.042341	-0.000144	0.349792
H179	H	0.375674	0.333189	0.683126
H180	H	0.709008	0.666522	1.016459
H181	H	0.062087	0.059538	0.273470
H182	H	0.395421	0.392871	0.606804
H183	H	0.728754	0.726204	0.940137
H184	H	0.062100	-0.059819	0.273455
H185	H	0.395433	0.273514	0.606789
H186	H	0.728766	0.606847	0.940122
H187	H	0.164794	0.059567	0.355586
H188	H	0.498128	0.392900	0.688919
H189	H	0.831461	0.726233	1.022253
H190	H	0.164810	-0.059801	0.355589
H191	H	0.498143	0.273533	0.688922
H192	H	0.831477	0.606866	1.022256
H193	H	1.042779	-0.000129	-0.230680
H194	H	1.376112	0.333204	0.102653
H195	H	1.709446	0.666537	0.435986
H196	H	0.706842	-0.000107	0.026042
H197	H	1.040175	0.333226	0.359375
H198	H	1.373509	0.666560	0.692709
C199	C	0.231603	-0.000165	-0.031472
C200	C	0.564937	0.333168	0.301861
C201	C	0.898270	0.666502	0.635195
C202	C	0.173879	-0.000153	0.026664
C203	C	0.507212	0.333181	0.359997
C204	C	0.840546	0.666514	0.693330
H205	H	0.207029	-0.000177	-0.081978
H206	H	0.540363	0.333157	0.251355
H207	H	0.873696	0.666490	0.584688
H208	H	0.263460	0.059509	-0.025938
H209	H	0.596793	0.392843	0.307396
H210	H	0.930127	0.726176	0.640729
H211	H	0.263461	-0.059848	-0.025933
H212	H	0.596795	0.273486	0.307400
H213	H	0.930128	0.606819	0.640734
H214	H	0.142025	0.059534	0.021128
H215	H	0.475358	0.392868	0.354462
H216	H	0.808691	0.726201	0.687795
H217	H	0.142009	-0.059833	0.021127
H218	H	0.475343	0.273500	0.354460
H219	H	0.808676	0.606834	0.687794
C220	C	0.810634	0.087905	-0.376655
C221	C	1.143968	0.421238	-0.043322
C222	C	1.477301	0.754571	0.290012
C223	C	0.811178	-0.000072	-0.424220
C224	C	1.144512	0.333261	-0.090886
C225	C	1.477845	0.666594	0.242447
H226	H	0.764602	0.087915	-0.345456
H227	H	1.097935	0.421248	-0.012123
H228	H	1.431269	0.754582	0.321210
H229	H	0.855895	0.087891	-0.343324
H230	H	1.189229	0.421224	-0.009991
H231	H	1.522562	0.754557	0.323343
H232	H	0.811023	0.147574	-0.408930
H233	H	1.144356	0.480907	-0.075597
H234	H	1.477690	0.814241	0.257736
H235	H	0.810795	-0.059742	-0.391944
H236	H	1.144129	0.273591	-0.058611
H237	H	1.477462	0.606925	0.274723
H238	H	0.765905	-0.000068	-0.457554
H239	H	1.099239	0.333266	-0.124221
H240	H	1.432572	0.666599	0.209113
H241	H	0.784703	-0.000075	-0.212936
H242	H	1.118036	0.333258	0.120397
H243	H	1.451369	0.666592	0.453730
C244	C	0.710641	-0.000079	-0.099831
C245	C	1.043975	0.333255	0.233503
C246	C	1.377308	0.666588	0.566836
C247	C	0.777366	-0.000087	-0.050693
C248	C	1.110699	0.333246	0.282640
C249	C	1.444032	0.666579	0.615973
H250	H	0.664619	-0.000076	-0.068618
H251	H	0.997952	0.333257	0.264715
H252	H	1.331285	0.666591	0.598049
H253	H	0.711028	0.059595	-0.132089
H254	H	1.044362	0.392928	0.201245
H255	H	1.377695	0.726262	0.534578
H256	H	0.711021	-0.059762	-0.132101
H257	H	1.044354	0.273571	0.201232
H258	H	1.377688	0.606905	0.534565
H259	H	0.776989	0.059600	-0.018426
H260	H	1.110322	0.392933	0.314907
H261	H	1.443656	0.726267	0.648240
H262	H	0.776978	-0.059767	-0.018422
H263	H	1.110312	0.273566	0.314911
H264	H	1.443645	0.606900	0.648245
C265	C	1.162649	-0.000134	-0.568161
C266	C	1.495983	0.333200	-0.234827
C267	C	1.829316	0.666533	0.098506
C268	C	1.095927	-0.000122	-0.617301
C269	C	1.429261	0.333212	-0.283968
C270	C	1.762594	0.666545	0.049365
H271	H	1.208673	-0.000142	-0.599371
H272	H	1.542007	0.333191	-0.266038
H273	H	1.875340	0.666524	0.067296
H274	H	1.162270	0.059539	-0.535892
H275	H	1.495604	0.392873	-0.202558
H276	H	1.828937	0.726206	0.130775
H277	H	1.162259	-0.059818	-0.535901
H278	H	1.495592	0.273516	-0.202568
H279	H	1.828925	0.606849	0.130765
H280	H	1.096315	0.059567	-0.649557
H281	H	1.429648	0.392900	-0.316223
H282	H	1.762982	0.726233	0.017110
H283	H	1.096306	-0.059801	-0.649584
H284	H	1.429640	0.273533	-0.316250
H285	H	1.762973	0.606866	0.017083
C286	C	1.117446	0.087834	-0.094059
C287	C	1.450780	0.421168	0.239274
C288	C	1.784113	0.754501	0.572607
C289	C	1.075976	-0.000138	-0.071238
C290	C	1.409309	0.333195	0.262095
C291	C	1.742643	0.666528	0.595429
H292	H	1.167953	0.087833	-0.069486
H293	H	1.501286	0.421166	0.263848
H294	H	1.834619	0.754500	0.597181
H295	H	1.123215	0.087826	-0.149589
H296	H	1.456548	0.421160	0.183744
H297	H	1.789881	0.754493	0.517077
H298	H	1.089299	0.147506	-0.078567
H299	H	1.422633	0.480840	0.254766
H300	H	1.755966	0.814173	0.588100
H301	H	1.104120	-0.059811	-0.086736
H302	H	1.437453	0.273522	0.246598
H303	H	1.770787	0.606856	0.579931
H304	H	1.070211	-0.000140	-0.015696
H305	H	1.403544	0.333193	0.317638
H306	H	1.736877	0.666527	0.650971
C307	C	0.575995	-0.000062	0.358178
C308	C	0.909329	0.333271	0.691512
C309	C	1.242662	0.666604	1.024845
C310	C	0.526856	-0.000084	0.291456
C311	C	0.860189	0.333249	0.624789
C312	C	1.193522	0.666583	0.958122
H313	H	0.544784	-0.000052	0.404202
H314	H	0.878118	0.333282	0.737536
H315	H	1.211451	0.666615	1.070869
H316	H	0.608262	-0.059732	0.357798
H317	H	0.941596	0.273601	0.691132
H318	H	1.274929	0.606934	1.024465
H319	H	0.608257	0.059624	0.357790
H320	H	0.941590	0.392958	0.691123
H321	H	1.274923	0.726291	1.024457
H322	H	0.494598	-0.059775	0.291841
H323	H	0.827931	0.273558	0.625174
H324	H	1.161265	0.606892	0.958508
H325	H	0.494575	0.059592	0.291836
H326	H	0.827908	0.392926	0.625170
H327	H	1.161242	0.726259	0.958503
H328	H	0.333322	-0.000145	0.059859
H329	H	0.666655	0.333188	0.393192
H330	H	0.999988	0.666522	0.726525
C331	C	1.117948	0.087839	-0.397777
C332	C	1.451281	0.421173	-0.064444
C333	C	1.784614	0.754506	0.268889
C334	C	1.109796	-0.000129	-0.444752
C335	C	1.443130	0.333204	-0.111419
C336	C	1.776463	0.666537	0.221915
H337	H	1.168456	0.087827	-0.373208
H338	H	1.501790	0.421160	-0.039874
H339	H	1.835123	0.754493	0.293459
H340	H	1.112420	0.147508	-0.429635
H341	H	1.445753	0.480841	-0.096302
H342	H	1.779086	0.814174	0.237031
H343	H	1.078501	0.087832	-0.358622
H344	H	1.411835	0.421165	-0.025289
H345	H	1.745168	0.754499	0.308044
H346	H	1.149240	-0.000118	-0.483911
H347	H	1.482573	0.333215	-0.150578
H348	H	1.815906	0.666549	0.182756
H349	H	1.115333	-0.059813	-0.412892
H350	H	1.448666	0.273520	-0.079558
H351	H	1.781999	0.606853	0.253775
H352	H	0.818516	-0.000093	-0.586443
H353	H	1.151850	0.333240	-0.253110
H354	H	1.485183	0.666573	0.080223
