data_functionalizedCrystal
_audit_creation_method	'MofGen! by Chris Wilmer'
_symmetry_space_group_name_H-M	'P1'
_symmetry_Int_Tables_number	1
_symmetry_cell_setting	triclinic
loop_
_symmetry_equiv_pos_as_xyz
  x,y,z
_cell_length_a	15.995350
_cell_length_b	10.654541
_cell_length_c	9.130307
_cell_angle_alpha	89.999496
_cell_angle_beta	90.002128
_cell_angle_gamma	83.988152
loop_
_atom_site_label
_atom_site_type_symbol
_atom_site_fract_x
_atom_site_fract_y
_atom_site_fract_z
O1	O	1.111921	0.161871	-0.121666
O2	O	1.611921	0.661871	0.378334
O3	O	0.868262	0.181860	-0.121695
O4	O	1.368262	0.681860	0.378305
O5	O	0.995695	-0.010947	-0.121681
O6	O	1.495695	0.489053	0.378319
O7	O	0.984488	0.354679	-0.121681
O8	O	1.484488	0.854679	0.378319
O9	O	0.995691	-0.010949	0.121918
O10	O	1.495691	0.489051	0.621918
O11	O	0.868258	0.181859	0.121904
O12	O	1.368258	0.681859	0.621904
O13	O	1.111917	0.161869	0.121933
O14	O	1.611917	0.661869	0.621933
Cu15	Cu	0.990087	0.171864	0.144161
Cu16	Cu	1.490087	0.671864	0.644161
Cu17	Cu	0.990092	0.171866	-0.143923
Cu18	Cu	1.490092	0.671866	0.356077
O19	O	0.984484	0.354677	0.121918
O20	O	1.484484	0.854677	0.621918
C21	C	0.837060	0.181033	0.000101
C22	C	1.337060	0.681033	0.500101
C23	C	0.744095	0.178556	0.000089
C24	C	1.244095	0.678556	0.500089
C25	C	0.994870	-0.057735	0.000116
C26	C	1.494870	0.442265	0.500116
C27	C	0.992410	-0.197146	0.000105
C28	C	1.492410	0.302854	0.500105
N29	N	0.990090	0.171862	0.346784
N30	N	1.490090	0.671862	0.846784
C31	C	0.406296	0.169658	0.000120
C32	C	0.906296	0.669658	0.500120
C33	C	0.452934	0.032344	0.000663
C34	C	0.952934	0.532344	0.500663
C35	C	0.549638	0.034822	0.000104
C36	C	1.049638	0.534822	0.500104
C37	C	0.573882	0.174072	0.000105
C38	C	1.073882	0.674072	0.500105
C39	C	0.533191	0.241800	-0.138996
C40	C	1.033191	0.741800	0.361004
C41	C	0.436535	0.238351	-0.139102
C42	C	0.936535	0.738351	0.360898
C43	C	0.436208	0.241186	0.137916
C44	C	0.936208	0.741186	0.637916
C45	C	0.533153	0.241153	0.139744
C46	C	1.033153	0.741153	0.639744
C47	C	0.668594	0.176573	0.000092
C48	C	1.168594	0.676573	0.500092
C49	C	0.311584	0.167161	0.000123
C50	C	0.811584	0.667161	0.500123
C51	C	1.143119	0.162697	0.000134
C52	C	1.643119	0.662697	0.500134
C53	C	1.236083	0.165174	0.000136
C54	C	1.736083	0.665174	0.500136
C55	C	0.985309	0.401465	0.000119
C56	C	1.485309	0.901465	0.500119
C57	C	0.987769	0.540876	0.000120
C58	C	1.487769	1.040876	0.500120
C59	C	0.835388	0.570838	0.000119
C60	C	1.335388	1.070838	0.500119
C61	C	0.760358	0.651312	0.000124
C62	C	1.260358	1.151312	0.500124
C63	C	0.762675	0.782300	0.000125
C64	C	1.262675	1.282300	0.500125
C65	C	0.840031	0.832815	0.000116
C66	C	1.340031	1.332815	0.500116
C67	C	0.915062	0.752340	0.000110
C68	C	1.415062	1.252340	0.500110
C69	C	0.912736	0.621351	0.000114
C70	C	1.412736	1.121351	0.500114
C71	C	1.067441	0.722379	0.000100
C72	C	1.567441	1.222379	0.500100
C73	C	1.065125	0.591391	0.000110
C74	C	1.565125	1.091391	0.500110
C75	C	1.144797	0.772894	0.000091
C76	C	1.644797	1.272894	0.500091
C77	C	1.219829	0.692419	0.000096
C78	C	1.719829	1.192419	0.500096
C79	C	1.217509	0.561424	0.000097
C80	C	1.717509	1.061424	0.500097
C81	C	1.140156	0.510917	0.000105
C82	C	1.640156	1.010917	0.500105
N83	N	0.990096	0.171858	-0.346546
N84	N	1.490096	0.671858	0.153454
C85	C	1.102978	0.001180	0.346787
C86	C	1.602978	0.501180	0.846787
C87	C	1.159428	-0.084158	0.423455
C88	C	1.659428	0.415842	0.923455
C89	C	1.159436	-0.084158	0.576788
C90	C	1.659436	0.415842	1.076788
C91	C	1.102987	0.001185	0.653457
C92	C	1.602987	0.501185	1.153457
C93	C	1.046537	0.086522	0.576789
C94	C	1.546537	0.586522	1.076789
C95	C	1.046537	0.086516	0.423452
C96	C	1.546537	0.586516	0.923452
C97	C	0.933646	0.257196	0.576786
C98	C	1.433646	0.757196	1.076786
C99	C	0.933640	0.257205	0.423453
C100	C	1.433640	0.757205	0.923453
C101	C	0.877197	0.342539	0.653455
C102	C	1.377197	0.842539	1.153455
C103	C	0.820750	0.427884	0.576787
C104	C	1.320750	0.927884	1.076787
C105	C	0.820745	0.427883	0.423444
C106	C	1.320745	0.927883	0.923444
C107	C	0.877191	0.342542	0.346784
C108	C	1.377191	0.842542	0.846784
H109	H	0.577757	-0.018416	0.099818
H110	H	1.077757	0.481584	0.599818
F111	F	0.554000	0.373884	0.150727
F112	F	1.054000	0.873884	0.650727
H113	H	0.560181	0.191712	0.242650
H114	H	1.060181	0.691712	0.742650
F115	F	0.678033	0.597542	0.000121
F116	F	1.178033	1.097542	0.500121
F117	F	0.682819	0.867949	0.000122
F118	F	1.182819	1.367949	0.500122
F119	F	1.137680	0.371509	0.000115
F120	F	1.637680	0.871509	0.500115
H121	H	1.205399	-0.153652	0.639212
H122	H	1.705399	0.346348	1.139212
F123	F	0.585627	-0.034948	-0.130663
F124	F	1.085627	0.465052	0.369337
F125	F	0.760675	0.518696	0.658389
F126	F	1.260675	1.018696	1.158389
F127	F	1.102984	0.001186	0.183595
F128	F	1.602984	0.501186	0.683595
H129	H	0.774773	0.497370	0.361029
H130	H	1.274773	0.997370	0.861029
F131	F	1.219500	-0.174986	0.341852
F132	F	1.719500	0.325014	0.841852
F133	F	0.842493	0.972225	0.000090
F134	F	1.342493	1.472225	0.500090
F135	F	0.877202	0.342532	0.816646
F136	F	1.377202	0.842532	1.316646
F137	F	1.102988	0.001167	0.816649
F138	F	1.602988	0.501167	1.316649
F139	F	0.877193	0.342537	0.183593
F140	F	1.377193	0.842537	0.683593
H141	H	0.415410	0.196294	0.243351
H142	H	0.915410	0.696294	0.743351
H143	H	1.146678	0.879552	0.000081
H144	H	1.646678	1.379552	0.500081
F145	F	1.297369	0.475785	0.000080
F146	F	1.797369	0.975785	0.500080
F147	F	0.426907	-0.039074	-0.128996
F148	F	0.926907	0.460926	0.371004
F149	F	0.428302	-0.039399	0.131051
F150	F	0.928302	0.460601	0.631051
F151	F	1.302148	0.746188	0.000074
F152	F	1.802148	1.246188	0.500074
H153	H	0.417942	0.188962	-0.243085
H154	H	0.917942	0.688962	0.256915
F155	F	0.395146	0.370119	-0.147353
F156	F	0.895146	0.870119	0.352647
H157	H	0.547909	0.344103	-0.144167
H158	H	1.047909	0.844103	0.355833
H159	H	0.561294	0.194760	-0.242519
H160	H	1.061294	0.694760	0.257481
H161	H	0.833494	0.464182	0.000123
H162	H	1.333494	0.964182	0.500123
F163	F	0.395462	0.373514	0.139148
F164	F	0.895462	0.873514	0.639148
