data_functionalizedCrystal
_audit_creation_method	'MofGen! by Chris Wilmer'
_symmetry_space_group_name_H-M	'P1'
_symmetry_Int_Tables_number	1
_symmetry_cell_setting	triclinic
loop_
_symmetry_equiv_pos_as_xyz
  x,y,z
_cell_length_a	10.489741
_cell_length_b	14.971486
_cell_length_c	13.448316
_cell_angle_alpha	89.998199
_cell_angle_beta	90.003027
_cell_angle_gamma	95.923349
loop_
_atom_site_label
_atom_site_type_symbol
_atom_site_fract_x
_atom_site_fract_y
_atom_site_fract_z
O1	O	-0.166222	1.187893	-0.082569
O2	O	-0.186128	0.927607	-0.082596
O3	O	0.009491	1.063673	-0.082584
O4	O	-0.361841	1.051827	-0.082581
O5	O	0.009503	1.063655	0.082800
O6	O	-0.186116	0.927589	0.082788
O7	O	-0.166210	1.187876	0.082814
Cu8	Cu	-0.176162	1.057731	0.097902
Cu9	Cu	-0.176176	1.057752	-0.097683
O10	O	-0.361829	1.051810	0.082803
C11	C	-0.185232	0.894268	0.000093
C12	C	-0.182564	0.794956	0.000083
C13	C	-0.297485	0.738385	0.000085
C14	C	-0.294971	0.645071	0.000100
C15	C	-0.177534	0.608330	0.000105
C16	C	-0.062604	0.664909	0.000106
C17	C	-0.065120	0.758221	0.000098
C18	C	-0.057369	0.470416	0.000119
C19	C	-0.054853	0.377098	0.000125
C20	C	-0.287220	0.357267	0.000121
C21	C	-0.289736	0.450579	0.000113
C22	C	-0.174805	0.507151	0.000112
C23	C	-0.409357	1.052713	0.000112
C24	C	-0.550955	1.055390	0.000114
C25	C	-0.618093	1.141965	0.000115
C26	C	-0.710682	1.101059	0.081653
C27	C	-0.710672	1.101056	-0.081403
C28	C	-0.641678	1.014448	0.081719
C29	C	-0.641659	1.014457	-0.081410
C30	C	-0.734220	0.973489	0.000148
C31	C	0.057019	1.062769	0.000105
C32	C	0.198617	1.060093	0.000097
C33	C	-0.167106	1.221215	0.000124
C34	C	-0.169774	1.320527	0.000128
N35	N	-0.176151	1.057723	0.235466
N36	N	-0.176177	1.057766	-0.235248
C37	C	-0.089567	1.117992	0.287512
C38	C	-0.089566	1.117998	0.391615
C39	C	-0.176156	1.057738	0.443671
C40	C	-0.262745	0.997462	0.391618
C41	C	-0.262739	0.997453	0.287517
C42	C	-0.262753	0.997487	0.608598
C43	C	-0.262761	0.997497	0.712707
C44	C	-0.089580	1.118032	0.712696
C45	C	-0.089574	1.118023	0.608595
C46	C	-0.176165	1.057748	0.556550
H47	H	-0.380801	0.311201	0.000127
C48	C	0.005692	1.184284	0.230260
N49	N	0.077448	1.234214	0.187141
C50	C	-0.421393	0.582846	0.000120
N51	N	-0.516620	0.535978	0.000143
C52	C	-0.357995	0.931172	0.551351
N53	N	-0.429729	0.881224	0.508232
H54	H	0.028461	0.804281	0.000095
H55	H	0.033015	0.634987	0.000124
H56	H	-0.333244	0.948393	0.434008
H57	H	-0.567621	1.213147	0.000203
H58	H	-0.741262	1.137683	0.150595
C59	C	0.074333	0.336686	0.000133
N60	N	0.171637	0.306247	0.000138
C61	C	-0.357998	0.931159	0.230268
N62	N	-0.429752	0.881225	0.187149
C63	C	-0.426676	0.778790	0.000081
N64	N	-0.523987	0.809220	0.000083
C65	C	-0.600281	0.965028	-0.174553
N66	N	-0.569106	0.927806	-0.244717
H67	H	0.036219	0.516476	0.000120
H68	H	-0.385363	0.480489	0.000100
H69	H	-0.611264	0.977839	0.150729
H70	H	-0.784468	0.902243	0.000186
C71	C	-0.751956	1.150572	-0.174531
N72	N	-0.783045	1.187873	-0.244671
C73	C	0.005715	1.184277	0.448860
N74	N	0.077497	1.234193	0.491977
H75	H	-0.019072	1.167095	0.566211
C76	C	0.005675	1.184332	0.769948
N77	N	0.077417	1.234268	0.813075
C78	C	-0.358008	0.931203	0.769967
N79	N	-0.429747	0.881268	0.813094
