data_functionalizedCrystal
_audit_creation_method	'MofGen! by Chris Wilmer'
_symmetry_space_group_name_H-M	'P1'
_symmetry_Int_Tables_number	1
_symmetry_cell_setting	triclinic
loop_
_symmetry_equiv_pos_as_xyz
  x,y,z
_cell_length_a	19.805407
_cell_length_b	16.120484
_cell_length_c	19.805399
_cell_angle_alpha	92.871043
_cell_angle_beta	89.980427
_cell_angle_gamma	92.925608
loop_
_atom_site_label
_atom_site_type_symbol
_atom_site_fract_x
_atom_site_fract_y
_atom_site_fract_z
Zn1	Zn	1.021075	-0.331927	-0.396377
Zn2	Zn	1.015252	-0.471346	-0.288925
Zn3	Zn	0.907889	-0.331950	-0.283203
Zn4	Zn	0.902117	-0.471302	-0.402070
O5	O	0.961584	-0.401631	-0.342644
O6	O	1.115019	-0.350431	-0.382136
O7	O	1.000989	-0.452883	-0.193451
O8	O	0.927756	-0.215281	-0.293438
O9	O	1.110741	-0.452861	-0.303191
O10	O	1.010913	-0.215264	-0.376587
O11	O	0.922109	-0.350470	-0.189246
O12	O	0.812407	-0.350427	-0.298958
O13	O	0.917919	-0.452785	-0.496030
O14	O	0.808167	-0.452807	-0.386290
O15	O	1.005317	-0.350388	-0.491848
O16	O	0.995392	-0.588006	-0.308712
O17	O	0.912273	-0.587974	-0.391839
C18	C	0.785728	-0.401615	-0.342621
C19	C	0.710496	-0.401629	-0.342628
C20	C	0.952593	-0.618240	-0.351529
C21	C	0.948809	-0.710906	-0.355353
C22	C	0.672958	-0.455019	-0.388035
C23	C	0.602269	-0.455020	-0.388045
C24	C	0.569120	-0.401635	-0.342644
C25	C	0.606663	-0.348239	-0.297235
C26	C	0.677350	-0.348234	-0.297229
C27	C	0.321589	-0.348258	-0.297258
C28	C	0.250896	-0.348269	-0.297266
C29	C	0.246508	-0.455043	-0.388074
C30	C	0.317195	-0.455038	-0.388068
C31	C	0.354732	-0.401640	-0.342662
C32	C	0.431381	-0.401638	-0.342653
C33	C	0.492472	-0.401641	-0.342649
C34	C	0.941903	-0.880568	-0.362347
C35	C	0.981385	-0.921854	-0.322951
C36	C	0.977543	-1.016260	-0.326843
C37	C	0.945745	-0.786154	-0.358456
C38	C	1.138126	-0.401648	-0.342667
C39	C	1.213357	-0.401655	-0.342677
C40	C	0.961624	-0.401579	-0.519184
C41	C	0.961641	-0.401556	-0.594416
C42	C	0.970628	-0.184177	-0.333739
C43	C	0.974482	-0.091511	-0.329944
C44	C	1.007150	-0.348235	-0.627583
C45	C	1.007158	-0.348211	-0.698270
C46	C	0.961659	-0.401513	-0.735789
C47	C	0.916145	-0.454836	-0.702617
C48	C	0.916135	-0.454856	-0.631931
C49	C	0.916187	-0.454759	-0.987688
C50	C	0.916202	-0.454737	-1.058379
C51	C	1.007210	-0.348114	-1.054027
C52	C	1.007199	-0.348133	-0.983340
C53	C	0.961683	-0.401453	-0.950174
C54	C	0.961674	-0.401478	-0.873527
C55	C	0.961671	-0.401493	-0.812436
C56	C	0.961585	-0.401623	-0.166787
C57	C	0.961709	-0.401411	-0.091547
H58	H	0.571709	-0.498496	-0.425019
H59	H	1.018071	-0.886299	-0.286299
H60	H	0.344182	-0.498513	-0.425036
H61	H	1.044217	-0.304794	-0.725272
H62	H	0.879134	-0.498187	-0.960693
H63	H	0.905219	-0.916121	-0.398995
H64	H	0.879070	-0.498267	-0.604927
H65	H	1.044202	-0.304833	-0.597039
N66	N	1.056275	-0.290649	-0.942873
H67	H	1.085107	-0.256864	-0.974611
H68	H	1.030323	-0.252073	-0.911960
H69	H	0.579667	-0.304769	-0.260272
H70	H	0.215937	-0.498520	-0.425048
N71	N	1.056293	-0.290595	-1.089806
H72	H	1.048257	-0.231031	-1.075060
H73	H	1.104092	-0.303623	-1.078036
N74	N	0.215139	-0.290688	-0.248295
H75	H	0.249644	-0.256857	-0.219530
H76	H	0.187418	-0.252159	-0.274323
N77	N	0.362070	-0.290654	-0.248297
H78	H	0.330342	-0.256835	-0.219540
H79	H	0.389989	-0.324520	-0.218311
N80	N	0.717841	-0.290644	-0.248260
H81	H	0.686116	-0.256825	-0.219499
H82	H	0.745754	-0.324522	-0.218278
N83	N	0.867127	-0.512229	-1.098849
H84	H	0.838289	-0.546009	-1.067113
H85	H	0.837225	-0.478277	-1.126783
N86	N	0.708707	-0.512598	-0.437006
H87	H	0.759184	-0.504498	-0.430113
H88	H	0.693876	-0.572123	-0.428834
N89	N	0.867056	-0.512309	-0.743080
H90	H	0.873965	-0.504204	-0.792893
H91	H	0.875099	-0.571860	-0.733169
