data_functionalizedCrystal
_audit_creation_method	'MofGen! by Chris Wilmer'
_symmetry_space_group_name_H-M	'P1'
_symmetry_Int_Tables_number	1
_symmetry_cell_setting	triclinic
loop_
_symmetry_equiv_pos_as_xyz
  x,y,z
_cell_length_a	14.519731
_cell_length_b	10.654550
_cell_length_c	9.730223
_cell_angle_alpha	89.999807
_cell_angle_beta	89.999699
_cell_angle_gamma	84.086878
loop_
_atom_site_label
_atom_site_type_symbol
_atom_site_fract_x
_atom_site_fract_y
_atom_site_fract_z
O1	O	1.224704	0.164745	-0.114289
O2	O	0.956330	0.184104	-0.114291
O3	O	1.096688	-0.008374	-0.114285
O4	O	1.084347	0.357222	-0.114295
O5	O	1.096686	-0.008369	0.114295
O6	O	0.956329	0.184109	0.114289
O7	O	1.224703	0.164750	0.114291
Zn8	Zn	1.090515	0.174430	0.150582
Zn9	Zn	1.090518	0.174424	-0.150582
O10	O	1.084345	0.357227	0.114285
C11	C	0.921965	0.183199	-0.000001
C12	C	0.819571	0.180481	-0.000002
C13	C	1.095781	-0.055160	0.000003
C14	C	1.093070	-0.194578	-0.000001
C15	C	1.175710	-0.274850	0.000003
C16	C	1.173157	-0.405846	-0.000006
C17	C	1.005317	-0.376286	-0.000020
C18	C	1.007871	-0.245292	-0.000020
C19	C	1.272611	-0.291917	0.000017
C20	C	1.270059	-0.422913	0.000007
C21	C	0.736415	0.178272	-0.000007
C22	C	0.632092	0.175513	-0.000008
C23	C	0.548942	0.173322	-0.000008
C24	C	0.444612	0.170563	-0.000011
C25	C	1.259068	0.165655	-0.000002
C26	C	1.361462	0.168373	-0.000010
C27	C	1.085252	0.404014	-0.000007
C28	C	1.087963	0.543432	-0.000011
N29	N	1.090521	0.174434	0.356118
N30	N	1.090520	0.174410	-0.356118
C31	C	1.152687	0.089233	0.428047
C32	C	1.152685	0.089218	0.571930
C33	C	1.028347	0.259614	0.571943
C34	C	1.028345	0.259623	0.428062
C35	C	1.224476	-0.009140	0.428041
C36	C	1.224473	-0.009155	0.571924
H37	H	0.940577	-0.179939	-0.000043
H38	H	1.291433	0.020812	0.383414
C39	C	0.911602	-0.432085	-0.000024
N40	N	0.841014	-0.474112	-0.000021
H41	H	1.303468	-0.256581	0.098713
C42	C	1.309639	-0.484964	-0.133309
N43	N	1.339456	-0.531703	-0.233717
C44	C	1.194193	-0.132095	0.632208
N45	N	1.171380	-0.224689	0.677615
C46	C	1.319373	-0.479800	0.129241
N47	N	1.356513	-0.522646	0.226579
C48	C	1.323810	-0.252738	-0.129208
N49	N	1.362369	-0.223228	-0.226541
H50	H	1.208730	-0.105523	0.388989
C51	C	0.960029	0.353445	0.348946
N52	N	0.908598	0.424155	0.289356
C53	C	0.959956	0.353315	0.651095
N54	N	0.908442	0.423893	0.710711
C55	C	1.320190	0.019100	0.624685
N56	N	1.392272	0.040419	0.664425
