data_functionalizedCrystal
_audit_creation_method	'MofGen! by Chris Wilmer'
_symmetry_space_group_name_H-M	'P1'
_symmetry_Int_Tables_number	1
_symmetry_cell_setting	triclinic
loop_
_symmetry_equiv_pos_as_xyz
  x,y,z
_cell_length_a	8.597366
_cell_length_b	13.262508
_cell_length_c	7.088929
_cell_angle_alpha	99.547107
_cell_angle_beta	103.954530
_cell_angle_gamma	82.751576
loop_
_atom_site_label
_atom_site_type_symbol
_atom_site_fract_x
_atom_site_fract_y
_atom_site_fract_z
O1	O	2.109742	0.139214	0.260942
O2	O	1.646058	0.155765	0.193163
O3	O	1.881718	-0.000094	0.150945
O4	O	1.874082	0.295073	0.303160
O5	O	1.913209	-0.020970	0.463253
O6	O	1.677548	0.134889	0.505471
O7	O	2.141233	0.118338	0.573250
Cu8	Cu	1.912266	0.124707	0.567877
Cu9	Cu	1.875025	0.149396	0.198536
O10	O	1.905573	0.274197	0.615468
C11	C	1.602303	0.144713	0.339196
C12	C	1.425011	0.142871	0.309032
C13	C	1.894139	-0.048299	0.286911
C14	C	1.884215	-0.160833	0.226752
C15	C	1.924897	-0.523580	0.738150
C16	C	1.934209	-0.417848	0.794673
C17	C	1.921712	-0.353589	0.652698
C18	C	1.899900	-0.395073	0.454190
C19	C	1.890574	-0.500814	0.397660
C20	C	1.887389	-0.330823	0.312207
C21	C	1.865577	-0.372307	0.113699
C22	C	1.856254	-0.478038	0.057179
C23	C	1.868752	-0.542297	0.199154
C24	C	1.896715	-0.225082	0.368737
C25	C	1.862392	-0.202316	0.028246
C26	C	1.853080	-0.308048	-0.028276
C27	C	2.184987	0.129390	0.427213
C28	C	2.362278	0.131233	0.457364
C29	C	1.893151	0.322403	0.479498
C30	C	1.903074	0.434937	0.539645
N31	N	1.938471	0.107342	0.827653
N32	N	1.848831	0.166753	-0.061242
H33	H	1.929292	-0.267498	0.698730
O34	O	1.725758	0.248295	0.852722
H35	H	1.754786	0.324792	0.935555
O36	O	1.470798	0.119922	0.656192
H37	H	1.396959	0.111106	0.760093
O38	O	2.061551	0.025793	0.913687
H39	H	2.183005	0.041040	0.903293
O40	O	1.316508	0.154203	0.110219
H41	H	1.189611	0.150934	0.116917
H42	H	1.914460	-0.191316	0.530362
O43	O	1.957763	-0.373106	1.008764
H44	H	1.964911	-0.435551	1.097996
H45	H	1.935058	-0.575907	0.853723
O46	O	1.858708	-0.656340	0.138178
H47	H	1.755489	-0.680006	0.183681
H48	H	1.838480	-0.511809	-0.104461
H49	H	1.835319	-0.341839	-0.189905
O50	O	1.848916	-0.133024	-0.124908
H51	H	1.859083	-0.052532	-0.052250
