data_functionalizedCrystal
_audit_creation_method	'MofGen! by Chris Wilmer'
_symmetry_space_group_name_H-M	'P1'
_symmetry_Int_Tables_number	1
_symmetry_cell_setting	triclinic
loop_
_symmetry_equiv_pos_as_xyz
  x,y,z
_cell_length_a	13.262390
_cell_length_b	27.731996
_cell_length_c	12.376457
_cell_angle_alpha	101.172962
_cell_angle_beta	63.168449
_cell_angle_gamma	83.560757
loop_
_atom_site_label
_atom_site_type_symbol
_atom_site_fract_x
_atom_site_fract_y
_atom_site_fract_z
O1	O	1.512220	0.010260	-0.558954
O2	O	1.184792	0.027216	-0.458289
O3	O	1.358700	-0.051914	-0.511731
O4	O	1.338312	0.089390	-0.505512
O5	O	1.315239	-0.032157	-0.310363
O6	O	1.141331	0.046973	-0.256922
O7	O	1.468758	0.030017	-0.357586
Zn8	Zn	1.298144	0.041632	-0.275282
Zn9	Zn	1.355406	0.015601	-0.540593
O10	O	1.294851	0.109147	-0.304144
C11	C	1.121186	0.037961	-0.344731
C12	C	0.996408	0.040537	-0.306368
C13	C	0.739456	0.004713	-0.637311
C14	C	0.856692	0.002290	-0.673357
C15	C	0.891627	0.011852	-0.581613
C16	C	0.809314	0.023837	-0.453817
C17	C	0.692068	0.026256	-0.417768
C18	C	0.844239	0.033395	-0.362069
C19	C	0.761926	0.045380	-0.234273
C20	C	0.644692	0.047799	-0.198230
C21	C	0.609757	0.038238	-0.289974
C22	C	0.961485	0.030976	-0.398118
C23	C	0.914097	0.052519	-0.178575
C24	C	0.796861	0.054942	-0.142529
C25	C	1.336549	-0.060032	-0.410914
C26	C	1.335285	-0.113655	-0.410514
C27	C	1.351047	-0.456947	-0.517897
C28	C	1.346258	-0.658488	-0.516445
O29	O	1.365739	-0.693701	-0.609592
N30	N	1.321973	-0.672920	-0.406497
C31	C	1.298875	-0.636964	-0.296903
O32	O	1.278097	-0.653863	-0.203349
C33	C	1.303656	-0.435424	-0.298354
C34	C	1.327954	-0.420995	-0.408312
C35	C	1.375342	-0.442518	-0.627846
C36	C	1.376545	-0.392136	-0.628210
C37	C	1.353453	-0.356184	-0.518625
C38	C	1.329157	-0.370614	-0.408676
C39	C	1.280550	-0.399468	-0.188758
C40	C	1.281745	-0.349080	-0.189130
C41	C	1.306043	-0.334652	-0.299088
C42	C	1.307268	-0.284280	-0.299455
N43	N	1.331553	-0.269847	-0.409402
C44	C	1.354646	-0.305799	-0.518987
C45	C	1.296369	-0.742776	-0.296149
C46	C	1.295176	-0.793161	-0.295787
C47	C	1.342557	-0.814681	-0.515329
C48	C	1.343758	-0.764296	-0.515693
C49	C	1.320655	-0.728343	-0.406097
C50	C	1.357171	-0.199994	-0.519743
C51	C	1.358377	-0.149607	-0.520099
C52	C	1.310990	-0.128091	-0.300556
C53	C	1.309790	-0.178474	-0.300201
C54	C	1.332879	-0.214424	-0.409804
O55	O	1.287786	-0.249040	-0.206353
O56	O	1.375396	-0.288888	-0.612520
C57	C	1.349844	-0.507329	-0.517533
C58	C	1.325548	-0.521759	-0.407584
C59	C	1.302456	-0.485807	-0.297999
C60	C	1.324355	-0.572144	-0.407222
C61	C	1.347448	-0.608096	-0.516807
C62	C	1.371733	-0.593663	-0.626755
C63	C	1.372936	-0.543281	-0.627118
C64	C	1.278170	-0.500240	-0.188052
C65	C	1.276970	-0.550622	-0.187697
C66	C	1.300063	-0.586574	-0.297282
C67	C	1.532366	0.019272	-0.471147
C68	C	1.657145	0.016695	-0.509518
C69	C	1.317002	0.117264	-0.404964
C70	C	1.318268	0.170887	-0.405372
N71	N	1.259073	0.059396	-0.094217
N72	N	1.394487	-0.002167	-0.721661
C73	C	1.485184	-0.043414	0.191284
C74	C	1.512524	-0.055847	0.064542
C75	C	1.449164	-0.027038	0.024846
C76	C	1.358459	0.014208	0.111904
C77	C	1.331122	0.026645	0.238656
C78	C	1.295101	0.043021	0.072218
C79	C	1.204396	0.084266	0.159276
C80	C	1.177063	0.096701	0.286015
C81	C	1.240424	0.067891	0.325712
C82	C	1.322438	0.030584	-0.054534
C83	C	1.168375	0.100643	-0.007162
C84	C	1.141035	0.113076	0.119580
H85	H	0.514295	0.040211	-0.260632
F86	F	0.951271	0.062692	-0.080927
H87	H	0.577677	0.057549	-0.094171
H88	H	1.361361	-0.843962	-0.604558
F89	F	1.384243	-0.134255	-0.637138
H90	H	1.116783	0.124103	-0.039481
H91	H	0.987087	0.009879	-0.610969
H92	H	1.396328	-0.380394	-0.717748
H93	H	1.396290	-0.002998	-0.125406
H94	H	1.471428	-0.037163	-0.078354
H95	H	1.586376	-0.089428	-0.006336
H96	H	1.536770	-0.066865	0.223613
F97	F	1.044503	0.156972	0.212245
H98	H	0.729826	0.064700	-0.038476
H99	H	1.028493	0.021218	-0.502171
F100	F	1.211322	0.081122	0.460607
F101	F	1.369618	-0.748945	-0.632723
F102	F	1.269334	-0.808513	-0.178761
F103	F	1.381745	-0.238248	-0.636394
H104	H	1.103215	0.130289	0.356897
F105	F	1.399922	-0.480775	-0.744492
F106	F	1.271772	-0.704517	-0.179493
F107	F	1.254683	-0.414812	-0.071722
H108	H	1.392722	-0.531539	-0.716658
F109	F	0.944287	-0.010466	-0.809361
H110	H	1.262914	-0.319808	-0.099877
H111	H	0.711001	-0.003075	-0.711995
F112	F	1.283949	-0.193832	-0.183179
H113	H	1.292194	-0.098810	-0.211336
F114	F	1.253582	-0.461982	-0.071407
H115	H	1.390541	-0.622944	-0.715984
H116	H	1.257191	-0.562365	-0.098152
