data_functionalizedCrystal
_audit_creation_method	'MofGen! by Chris Wilmer'
_symmetry_space_group_name_H-M	'P1'
_symmetry_Int_Tables_number	1
_symmetry_cell_setting	triclinic
loop_
_symmetry_equiv_pos_as_xyz
  x,y,z
_cell_length_a	12.759393
_cell_length_b	11.169417
_cell_length_c	11.169416
_cell_angle_alpha	89.988781
_cell_angle_beta	89.972430
_cell_angle_gamma	90.019397
loop_
_atom_site_label
_atom_site_type_symbol
_atom_site_fract_x
_atom_site_fract_y
_atom_site_fract_z
Zn1	Zn	-0.593998	-1.834957	-0.477721
Zn2	Zn	-0.418327	-1.834848	-0.678450
Zn3	Zn	-0.418338	-1.634245	-0.477783
Zn4	Zn	-0.593969	-1.634251	-0.678364
O5	O	-0.506158	-1.734575	-0.578079
O6	O	-0.570703	-2.002892	-0.504358
O7	O	-0.271308	-1.808189	-0.651893
O8	O	-0.441657	-1.660913	-0.309825
O9	O	-0.441638	-2.002812	-0.651833
O10	O	-0.570713	-1.808375	-0.309779
O11	O	-0.271316	-1.660807	-0.504463
O12	O	-0.441628	-1.466296	-0.504380
O13	O	-0.740994	-1.660923	-0.651686
O14	O	-0.570664	-1.466300	-0.651746
O15	O	-0.741016	-1.808381	-0.504275
O16	O	-0.441610	-1.808195	-0.846388
O17	O	-0.570653	-1.660817	-0.846325
C18	C	-0.506150	-1.734528	-0.889904
C19	C	-0.506182	-1.734617	-1.023304
C20	C	-0.506145	-1.422750	-0.578061
C21	C	-0.506164	-1.289350	-0.578082
C22	C	-0.780192	-1.734665	-0.577964
C23	C	-0.896968	-1.734703	-0.577915
C24	C	-0.951843	-1.811490	-0.501146
C25	C	-1.061567	-1.811511	-0.501094
C26	C	-1.061532	-1.657953	-0.654591
C27	C	-0.951810	-1.657928	-0.654636
C28	C	-1.211538	-1.854466	-0.359492
C29	C	-1.266417	-1.931272	-0.282734
C30	C	-1.230822	-2.048376	-0.264331
C31	C	-1.140350	-2.088699	-0.322705
C32	C	-1.085477	-2.011899	-0.399472
C33	C	-1.121070	-1.894778	-0.417852
C34	C	-0.801838	-1.614985	-0.796239
C35	C	-0.746963	-1.538190	-0.873014
C36	C	-0.782556	-1.421084	-0.891429
C37	C	-0.873031	-1.380766	-0.833076
C38	C	-0.927905	-1.457561	-0.756301
C39	C	-0.892305	-1.574666	-0.737885
C40	C	-0.233191	-1.734555	-0.578107
C41	C	-0.116415	-1.734749	-0.577818
C42	C	-0.506172	-2.047617	-0.578098
C43	C	-0.506179	-2.181017	-0.578107
C44	C	-0.506189	-1.734656	-0.265037
C45	C	-0.506203	-1.734690	-0.131637
H46	H	-0.907194	-1.874003	-0.438671
C47	C	-0.761217	-1.804993	-0.885358
C48	C	-0.762741	-1.743730	-0.776008
H49	H	-0.737095	-1.884479	-0.872872
H50	H	-0.715578	-1.765044	-0.939416
H51	H	-0.829954	-1.807018	-0.917936
H52	H	-0.694003	-1.741697	-0.743435
H53	H	-0.808381	-1.783689	-0.721932
H54	H	-1.106198	-1.595448	-0.717057
H55	H	-0.737872	-1.358563	-0.953956
H56	H	-0.902014	-1.285410	-0.848074
C57	C	-1.225254	-2.169093	-0.086552
C58	C	-1.291150	-2.132797	-0.179958
H59	H	-1.262504	-2.221209	-0.034467
H60	H	-1.202290	-2.100834	-0.043159
H61	H	-1.166286	-2.209870	-0.118684
H62	H	-1.350115	-2.092012	-0.147826
H63	H	-1.314130	-2.201068	-0.223356
C64	C	-1.178833	-2.298553	-0.338250
C65	C	-1.101240	-2.217434	-0.302480
H66	H	-1.154688	-2.378030	-0.325753
H67	H	-1.193872	-2.287141	-0.420742
H68	H	-1.240559	-2.285514	-0.292495
H69	H	-1.039516	-2.230468	-0.348241
H70	H	-1.086188	-2.228852	-0.219974
C71	C	-1.440637	-1.852868	-0.303705
C72	C	-1.365855	-1.886946	-0.218564
H73	H	-1.502024	-1.825502	-0.264090
H74	H	-1.457572	-1.919608	-0.352711
H75	H	-1.413035	-1.790367	-0.352044
H76	H	-1.393455	-1.949454	-0.170230
H77	H	-1.348921	-1.820199	-0.169537
C78	C	-1.047013	-1.294235	-0.724522
C79	C	-1.027355	-1.413243	-0.692150
H80	H	-1.108405	-1.266878	-0.684911
H81	H	-1.056824	-1.289385	-0.808673
H82	H	-0.989146	-1.245731	-0.701914
H83	H	-1.085220	-1.461749	-0.714766
H84	H	-1.017551	-1.418102	-0.607980
C85	C	-0.661978	-1.575337	-1.061214
C86	C	-0.647507	-1.582500	-0.937159
H87	H	-0.600579	-1.602695	-1.100809
H88	H	-0.675328	-1.494611	-1.083161
H89	H	-0.719835	-1.623865	-1.083805
H90	H	-0.589655	-1.533964	-0.914566
H91	H	-0.634145	-1.663239	-0.915203
H92	H	-1.240523	-1.759108	-0.374460
C93	C	-0.966376	-2.175216	-0.431274
C94	C	-0.986032	-2.056204	-0.463630
H95	H	-0.904975	-2.202564	-0.470873
H96	H	-1.024231	-2.223715	-0.453893
H97	H	-0.956573	-2.180077	-0.347110
H98	H	-0.995842	-2.051345	-0.547793
H99	H	-0.928163	-2.007693	-0.441018
