data_functionalizedCrystal
_audit_creation_method	'MofGen! by Chris Wilmer'
_symmetry_space_group_name_H-M	'P1'
_symmetry_Int_Tables_number	1
_symmetry_cell_setting	triclinic
loop_
_symmetry_equiv_pos_as_xyz
  x,y,z
_cell_length_a	9.065218
_cell_length_b	9.065215
_cell_length_c	8.140239
_cell_angle_alpha	89.999061
_cell_angle_beta	90.010606
_cell_angle_gamma	94.984675
loop_
_atom_site_label
_atom_site_type_symbol
_atom_site_fract_x
_atom_site_fract_y
_atom_site_fract_z
O1	O	-0.216334	1.960398	-0.136626
O2	O	0.283666	2.460398	0.363374
O3	O	-0.234085	1.531113	-0.136636
O4	O	0.265915	2.031113	0.363364
O5	O	-0.010567	1.754628	-0.136589
O6	O	0.489433	2.254628	0.363411
O7	O	-0.439852	1.736882	-0.136673
O8	O	0.060148	2.236882	0.363327
O9	O	-0.010565	1.754621	0.136638
O10	O	0.489435	2.254621	0.636638
O11	O	-0.234083	1.531105	0.136591
O12	O	0.265917	2.031105	0.636591
O13	O	-0.216332	1.960391	0.136601
O14	O	0.283668	2.460391	0.636601
Zn15	Zn	-0.225207	1.745747	0.179977
Zn16	Zn	0.274793	2.245747	0.679977
Zn17	Zn	-0.225209	1.745756	-0.180012
Zn18	Zn	0.274791	2.245756	0.319988
O19	O	-0.439850	1.736875	0.136554
O20	O	0.060150	2.236875	0.636554
C21	C	-0.232379	1.476122	-0.000023
C22	C	0.267621	1.976122	0.499977
C23	C	-0.227281	1.312279	-0.000025
C24	C	0.272719	1.812279	0.499975
C25	C	0.044421	1.752919	0.000032
C26	C	0.544421	2.252919	0.500032
C27	C	0.208264	1.747819	0.000054
C28	C	0.708264	2.247819	0.500054
C29	C	0.505163	1.738584	-0.000025
C30	C	1.005163	2.238584	0.499975
C31	C	0.341320	1.743683	0.000077
C32	C	0.841320	2.243683	0.500077
C33	C	-0.218038	2.015381	-0.000015
C34	C	0.281962	2.515381	0.499985
C35	C	-0.223136	2.179224	-0.000024
C36	C	0.276864	2.679224	0.499976
N37	N	-0.225205	1.745751	0.425659
N38	N	0.274795	2.245751	0.925659
N39	N	-0.225200	1.745764	-0.425694
N40	N	0.274800	2.245764	0.074306
