data_functionalizedCrystal
_audit_creation_method	'MofGen! by Chris Wilmer'
_symmetry_space_group_name_H-M	'P1'
_symmetry_Int_Tables_number	1
_symmetry_cell_setting	triclinic
loop_
_symmetry_equiv_pos_as_xyz
  x,y,z
_cell_length_a	19.805407
_cell_length_b	18.050590
_cell_length_c	19.805399
_cell_angle_alpha	90.027426
_cell_angle_beta	90.019573
_cell_angle_gamma	90.018553
loop_
_atom_site_label
_atom_site_type_symbol
_atom_site_fract_x
_atom_site_fract_y
_atom_site_fract_z
Zn1	Zn	1.034773	-0.295677	0.382720
Zn2	Zn	1.034703	-0.419869	0.269532
Zn3	Zn	0.921587	-0.295697	0.269545
Zn4	Zn	0.921566	-0.419829	0.382679
O5	O	0.978157	-0.357768	0.326119
O6	O	1.129480	-0.312159	0.367718
O7	O	1.019678	-0.403422	0.174817
O8	O	0.936639	-0.191770	0.284580
O9	O	1.129429	-0.403402	0.284559
O10	O	1.019796	-0.191755	0.367730
O11	O	0.936572	-0.312194	0.174827
O12	O	0.826868	-0.312156	0.284540
O13	O	0.936604	-0.403335	0.477401
O14	O	0.826853	-0.403355	0.367660
O15	O	1.019776	-0.312121	0.477432
O16	O	1.019657	-0.523788	0.284519
O17	O	0.936536	-0.523759	0.367648
C18	C	0.802301	-0.357754	0.326097
C19	C	0.727069	-0.357766	0.326104
C20	C	0.691735	-0.405325	0.369314
C21	C	0.621046	-0.405326	0.369324
C22	C	0.585694	-0.357771	0.326119
C23	C	0.621033	-0.310207	0.282907
C24	C	0.691720	-0.310203	0.282902
C25	C	0.335960	-0.310224	0.282930
C26	C	0.265268	-0.310233	0.282937
C27	C	0.265286	-0.405347	0.369352
C28	C	0.335973	-0.405342	0.369346
C29	C	0.371306	-0.357776	0.326137
C30	C	0.447955	-0.357774	0.326128
C31	C	0.509047	-0.357776	0.326124
C32	C	0.978105	-0.550720	0.326092
C33	C	0.978145	-0.633266	0.326103
C34	C	1.023440	-0.832705	0.280961
C35	C	1.039973	-0.882039	0.342736
C36	C	0.978183	-0.784396	0.326130
C37	C	0.961720	-0.882144	0.264383
C38	C	0.978222	-0.930381	0.326151
C39	C	0.994748	-0.832643	0.387938
C40	C	0.916466	-0.832743	0.309543
C41	C	0.932975	-0.882055	0.371361
C42	C	0.978163	-0.700298	0.326118
C43	C	0.978242	-1.014478	0.326171
C44	C	1.154700	-0.357783	0.326142
C45	C	1.229932	-0.357789	0.326151
C46	C	0.978195	-0.357721	0.502662
C47	C	0.978211	-0.357701	0.577894
C48	C	0.978228	-0.164062	0.326161
C49	C	0.978258	-0.081517	0.326179
C50	C	0.978158	-0.357761	0.150263
C51	C	0.978273	-0.357572	0.075032
C52	C	1.021520	-0.310204	0.613255
C53	C	1.021527	-0.310182	0.683944
C54	C	0.978228	-0.357662	0.719270
C55	C	0.934915	-0.405162	0.683904
C56	C	0.934905	-0.405180	0.613217
C57	C	0.934953	-0.405093	0.968977
C58	C	0.934968	-0.405074	1.039669
C59	C	1.021575	-0.310096	1.039704
C60	C	1.021565	-0.310113	0.969017
C61	C	0.978250	-0.357609	0.933657
C62	C	0.978242	-0.357631	0.857009
C63	C	0.978239	-0.357645	0.795917
H64	H	0.592243	-0.271484	0.247732
C65	C	0.374821	-0.257907	0.235400
H66	H	0.421983	-0.264705	0.241587
H67	H	0.363215	-0.268710	0.189906
H68	H	0.363248	-0.208023	0.245394
H69	H	0.899632	-0.443850	0.584427
H70	H	1.092183	-0.903694	0.356779
C71	C	0.730620	-0.457639	0.416834
H72	H	0.777780	-0.450832	0.410638
H73	H	0.719059	-0.446841	0.462331
H74	H	0.719016	-0.507524	0.406840
C75	C	1.013669	-0.803400	0.458511
H76	H	1.013564	-0.750771	0.458066
H77	H	0.981738	-0.820691	0.490630
H78	H	1.057392	-0.820688	0.470368
H79	H	0.236486	-0.271504	0.247755
H80	H	0.894719	-0.903587	0.409612
H81	H	1.056781	-0.271542	0.584498
C82	C	0.845959	-0.803459	0.290548
H83	H	0.834313	-0.820378	0.246631
H84	H	0.813709	-0.821090	0.322192
H85	H	0.846361	-0.750833	0.291084
H86	H	0.592280	-0.444054	0.404509
C87	C	0.374858	-0.457650	0.416873
H88	H	0.343689	-0.485970	0.442614
H89	H	0.402416	-0.489969	0.390929
H90	H	0.402449	-0.429273	0.446409
C91	C	1.075156	-0.803424	0.229415
H92	H	1.119000	-0.820302	0.241321
H93	H	1.063878	-0.821098	0.185655
H94	H	1.074502	-0.750799	0.229481
C95	C	0.942881	-0.911513	0.193831
H96	H	0.975068	-0.894605	0.161789
H97	H	0.942624	-0.964133	0.194441
H98	H	0.899332	-0.893901	0.181731
C99	C	0.730588	-0.257887	0.235372
H100	H	0.699411	-0.229569	0.209638
H101	H	0.758181	-0.225566	0.261317
H102	H	0.758145	-0.286252	0.205828
C103	C	1.069170	-0.257938	0.722838
H104	H	1.094962	-0.229670	0.691675
H105	H	1.043298	-0.225567	0.750415
H106	H	1.098655	-0.286350	0.750412
H107	H	1.056826	-0.271452	0.940258
H108	H	1.056843	-0.271419	1.068503
H109	H	0.899705	-0.443739	1.068430
C110	C	0.226418	-0.457662	0.416889
H111	H	0.179256	-0.450851	0.410712
H112	H	0.237985	-0.507545	0.406900
H113	H	0.238028	-0.446854	0.462384
H114	H	0.899693	-0.443779	0.940196
H115	H	0.899658	-0.443819	0.712672
