data_functionalizedCrystal
_audit_creation_method	'MofGen! by Chris Wilmer'
_symmetry_space_group_name_H-M	'P1'
_symmetry_Int_Tables_number	1
_symmetry_cell_setting	triclinic
loop_
_symmetry_equiv_pos_as_xyz
  x,y,z
_cell_length_a	19.805407
_cell_length_b	19.077068
_cell_length_c	19.077299
_cell_angle_alpha	85.330127
_cell_angle_beta	92.302895
_cell_angle_gamma	92.327086
loop_
_atom_site_label
_atom_site_type_symbol
_atom_site_fract_x
_atom_site_fract_y
_atom_site_fract_z
Zn1	Zn	1.038986	-0.296774	0.409873
Zn2	Zn	1.372320	0.036559	0.743207
Zn3	Zn	1.705653	0.369893	1.076540
Zn4	Zn	1.030188	-0.409902	0.296716
Zn5	Zn	1.363521	-0.076569	0.630050
Zn6	Zn	1.696854	0.256764	0.963383
Zn7	Zn	0.921463	-0.292032	0.292000
Zn8	Zn	1.254796	0.041301	0.625333
Zn9	Zn	1.588129	0.374635	0.958666
Zn10	Zn	0.921389	-0.414625	0.414560
Zn11	Zn	1.254722	-0.081292	0.747893
Zn12	Zn	1.588055	0.252042	1.081226
O13	O	0.978006	-0.353333	0.353287
O14	O	1.311340	-0.020000	0.686621
O15	O	1.644673	0.313333	1.019954
O16	O	1.132536	-0.311789	0.394876
O17	O	1.465869	0.021545	0.728209
O18	O	1.799202	0.354878	1.061542
O19	O	1.012114	-0.390306	0.197442
O20	O	1.345447	-0.056972	0.530776
O21	O	1.678780	0.276361	0.864109
O22	O	0.940766	-0.194011	0.303701
O23	O	1.274099	0.139322	0.637034
O24	O	1.607432	0.472656	0.970367
O25	O	1.126071	-0.394904	0.311740
O26	O	1.459405	-0.061570	0.645073
O27	O	1.792738	0.271763	0.978406
O28	O	1.027110	-0.197495	0.390302
O29	O	1.360443	0.135839	0.723635
O30	O	1.693776	0.469172	1.056969
O31	O	0.932234	-0.303707	0.193977
O32	O	1.265567	0.029626	0.527310
O33	O	1.598901	0.362960	0.860644
O34	O	0.826736	-0.308286	0.308245
O35	O	1.160069	0.025047	0.641578
O36	O	1.493403	0.358380	0.974911
O37	O	0.940639	-0.402953	0.512586
O38	O	1.273973	-0.069619	0.845920
O39	O	1.607306	0.263714	1.179253
O40	O	0.826682	-0.398355	0.398289
O41	O	1.160015	-0.065021	0.731622
O42	O	1.493348	0.268312	1.064956
O43	O	1.027038	-0.316368	0.509143
O44	O	1.360371	0.016965	0.842477
O45	O	1.693705	0.350299	1.175810
O46	O	1.012042	-0.509179	0.316284
O47	O	1.345375	-0.175846	0.649617
O48	O	1.678709	0.157488	0.982950
O49	O	0.932108	-0.512649	0.402863
O50	O	1.265441	-0.179315	0.736196
O51	O	1.598774	0.154018	1.069529
C52	C	0.802150	-0.353319	0.353264
C53	C	1.135483	-0.019986	0.686597
C54	C	1.468817	0.313348	1.019931
C55	C	0.726918	-0.353330	0.353271
C56	C	1.060251	-0.019997	0.686605
C57	C	1.393584	0.313336	1.019938
C58	C	0.691558	-0.400294	0.400087
C59	C	1.024891	-0.066961	0.733420
C60	C	1.358224	0.266373	1.066754
C61	C	0.620870	-0.400296	0.400097
C62	C	0.954203	-0.066962	0.733430
C63	C	1.287536	0.266371	1.066764
C64	C	0.585543	-0.353337	0.353287
C65	C	0.918876	-0.020003	0.686621
C66	C	1.252209	0.313330	1.019954
C67	C	0.620908	-0.306368	0.306469
C68	C	0.954241	0.026965	0.639803
C69	C	1.287574	0.360299	0.973136
C70	C	0.691595	-0.306363	0.306463
C71	C	1.024928	0.026970	0.639797
C72	C	1.358261	0.360303	0.973130
C73	C	0.335835	-0.306384	0.306493
C74	C	0.669168	0.026949	0.639827
C75	C	1.002501	0.360282	0.973160
C76	C	0.265142	-0.306394	0.306502
C77	C	0.598476	0.026939	0.639835
C78	C	0.931809	0.360273	0.973168
C79	C	0.265110	-0.400317	0.400127
C80	C	0.598443	-0.066983	0.733460
C81	C	0.931776	0.266350	1.066794
C82	C	0.335797	-0.400312	0.400121
C83	C	0.669130	-0.066979	0.733454
C84	C	1.002463	0.266355	1.066788
C85	C	0.371156	-0.353341	0.353306
C86	C	0.704489	-0.020008	0.686639
C87	C	1.037822	0.313325	1.019973
C88	C	0.447804	-0.353339	0.353297
C89	C	0.781137	-0.020006	0.686630
C90	C	1.114471	0.313327	1.019963
C91	C	0.508895	-0.353342	0.353293
C92	C	0.842229	-0.020008	0.686626
C93	C	1.175562	0.313325	1.019959
C94	C	0.971131	-0.536493	0.360609
C95	C	1.304464	-0.203160	0.693942
C96	C	1.637798	0.130173	1.027276
C97	C	0.968253	-0.614851	0.363765
C98	C	1.301586	-0.281517	0.697098
C99	C	1.634919	0.051816	1.030431
C100	C	1.008553	-0.649835	0.320208
C101	C	1.341886	-0.316502	0.653541
C102	C	1.675219	0.016832	0.986874
C103	C	1.005849	-0.723461	0.323180
C104	C	1.339183	-0.390127	0.656513
C105	C	1.672516	-0.056794	0.989847
C106	C	0.962842	-0.762100	0.369706
C107	C	1.296176	-0.428767	0.703039
C108	C	1.629509	-0.095434	1.036373
C109	C	0.922541	-0.727111	0.413268
C110	C	1.255874	-0.393778	0.746601
C111	C	1.589207	-0.060445	1.079935
C112	C	0.925248	-0.653487	0.410299
C113	C	1.258581	-0.320154	0.743632
C114	C	1.591914	0.013180	1.076965
C115	C	0.950282	-0.982489	0.383420
C116	C	1.283616	-0.649156	0.716753
C117	C	1.616949	-0.315822	1.050086
C118	C	0.947577	-1.056118	0.386384
C119	C	1.280910	-0.722785	0.719717
C120	C	1.614243	-0.389451	1.053051
C121	C	1.030887	-1.052462	0.296297
C122	C	1.364220	-0.719129	0.629630
C123	C	1.697554	-0.385796	0.962963
C124	C	1.033587	-0.978837	0.293329
C125	C	1.366921	-0.645504	0.626662
C126	C	1.700254	-0.312170	0.959995
C127	C	0.993288	-0.943854	0.336893
C128	C	1.326622	-0.610521	0.670226
C129	C	1.659955	-0.277188	1.003559
N130	N	0.960076	-0.837358	0.372744
N131	N	1.293410	-0.504024	0.706077
N132	N	1.626743	-0.170691	1.039411
N133	N	0.996058	-0.868599	0.333858
N134	N	1.329391	-0.535265	0.667191
N135	N	1.662725	-0.201932	1.000525
C136	C	1.154549	-0.353348	0.353311
C137	C	1.487883	-0.020015	0.686644
C138	C	1.821216	0.313318	1.019978
C139	C	1.229781	-0.353355	0.353321
C140	C	1.563115	-0.020021	0.686655
C141	C	1.896448	0.313312	1.019988
C142	C	0.984812	-0.360716	0.537158
C143	C	1.318145	-0.027383	0.870492
C144	C	1.651479	0.305951	1.203825
C145	C	0.987712	-0.363862	0.615513
C146	C	1.321045	-0.030529	0.948847
C147	C	1.654379	0.302805	1.282180
C148	C	0.984927	-0.169459	0.345953
C149	C	1.318261	0.163875	0.679286
C150	C	1.651594	0.497208	1.012619
C151	C	0.987877	-0.091102	0.342827
C152	C	1.321210	0.242231	0.676160
C153	C	1.654543	0.575564	1.009494
C154	C	1.008538	-0.386447	1.056763
C155	C	1.341871	-0.053114	1.390096
C156	C	1.675205	0.280219	1.723430
C157	C	1.005803	-0.383487	0.983140
C158	C	1.339137	-0.050154	1.316473
C159	C	1.672470	0.283180	1.649807
C160	C	0.962851	-0.336916	0.944532
C161	C	1.296184	-0.003583	1.277865
C162	C	1.629518	0.329751	1.611199
C163	C	0.922626	-0.293308	0.979551
C164	C	1.255959	0.040025	1.312884
C165	C	1.589292	0.373359	1.646218
C166	C	0.925357	-0.296272	1.053173
C167	C	1.258691	0.037061	1.386506
C168	C	1.592024	0.370394	1.719839
C169	C	0.950219	-0.323218	0.724154
C170	C	1.283552	0.010115	1.057487
C171	C	1.616885	0.343448	1.390821
C172	C	0.947491	-0.320256	0.650527
C173	C	1.280825	0.013078	0.983860
C174	C	1.614158	0.346411	1.317194
C175	C	1.030668	-0.410436	0.654121
C176	C	1.364002	-0.077103	0.987455
C177	C	1.697335	0.256231	1.320788
C178	C	1.033399	-0.413393	0.727744
C179	C	1.366733	-0.080060	1.061078
C180	C	1.700066	0.253273	1.394411
C181	C	0.993171	-0.369788	0.762757
C182	C	1.326505	-0.036455	1.096090
C183	C	1.659838	0.296879	1.429423
N184	N	0.960056	-0.333887	0.869278
N185	N	1.293389	-0.000554	1.202611
N186	N	1.626723	0.332779	1.535944
N187	N	0.995963	-0.372821	0.838010
N188	N	1.329297	-0.039487	1.171343
N189	N	1.662630	0.293846	1.504677
C190	C	0.971220	-0.345993	1.170132
C191	C	1.304554	-0.012660	1.503465
C192	C	1.637887	0.320674	1.836799
C193	C	0.968317	-0.342841	1.091777
C194	C	1.301651	-0.009508	1.425110
C195	C	1.634984	0.323826	1.758443
H196	H	0.720316	-0.438536	0.438203
H197	H	1.053649	-0.105202	0.771536
H198	H	1.386983	0.228131	1.104870
H199	H	1.038665	-0.751941	0.287711
H200	H	1.371999	-0.418608	0.621044
H201	H	1.705332	-0.085275	0.954377
H202	H	0.236312	-0.438560	0.438249
H203	H	0.569645	-0.105227	0.771582
H204	H	0.902979	0.228107	1.104915
F205	F	0.373390	-0.450295	0.449940
F206	F	0.706724	-0.116961	0.783273
F207	F	1.040057	0.216372	1.116606
F208	F	1.048613	-0.429898	0.945879
F209	F	1.381946	-0.096565	1.279213
F210	F	1.715280	0.236769	1.612546
F211	F	0.907391	-0.945267	0.429784
F212	F	1.240725	-0.611934	0.763118
F213	F	1.574058	-0.278601	1.096451
H214	H	1.068607	-0.947378	0.255443
H215	H	1.401940	-0.614044	0.588777
H216	H	1.735274	-0.280711	0.922110
F217	F	0.729227	-0.256377	0.256637
F218	F	1.062561	0.076956	0.589970
F219	F	1.395894	0.410290	0.923304
H220	H	1.043571	-0.618379	0.282318
H221	H	1.376904	-0.285046	0.615651
H222	H	1.710237	0.048288	0.948985
F223	F	1.079110	-0.462965	0.768829
F224	F	1.412444	-0.129632	1.102162
F225	F	1.745777	0.203701	1.435496
H226	H	1.063697	-1.080953	0.260830
H227	H	1.397030	-0.747620	0.594163
H228	H	1.730364	-0.414287	0.927497
H229	H	0.592083	-0.438539	0.438219
H230	H	0.925416	-0.105205	0.771552
H231	H	1.258749	0.228128	1.104885
F232	F	0.882552	-0.249857	1.090436
F233	F	1.215885	0.083476	1.423770
F234	F	1.549219	0.416809	1.757103
F235	F	0.227546	-0.256410	0.256679
F236	F	0.560879	0.076923	0.590012
F237	F	0.894213	0.410256	0.923345
H238	H	0.912564	-1.087577	0.424284
H239	H	1.245897	-0.754244	0.757617
H240	H	1.579230	-0.420911	1.090950
F241	F	0.876773	-0.768237	0.462789
F242	F	1.210106	-0.434903	0.796122
F243	F	1.543439	-0.101570	1.129455
F244	F	0.882357	-0.616255	0.456660
F245	F	1.215690	-0.282922	0.789993
F246	F	1.549023	0.050412	1.123327
H247	H	0.887650	-0.255392	0.948110
H248	H	1.220983	0.077941	1.281444
H249	H	1.554316	0.411275	1.614777
F250	F	0.901774	-0.270686	0.609439
F251	F	1.235108	0.062648	0.942772
F252	F	1.568441	0.395981	1.276105
H253	H	1.043518	-0.424367	1.088193
H254	H	1.376851	-0.091034	1.421526
H255	H	1.710185	0.242300	1.754859
H256	H	0.917461	-0.287713	0.752652
H257	H	1.250794	0.045621	1.085985
H258	H	1.584128	0.378954	1.419319
H259	H	0.364615	-0.268143	0.268369
H260	H	0.697948	0.065190	0.601702
H261	H	1.031282	0.398524	0.935035
F262	F	0.583308	-0.256386	0.256655
F263	F	0.916642	0.076947	0.589988
F264	F	1.249975	0.410281	0.923322
H265	H	1.063419	-0.445938	0.625606
H266	H	1.396752	-0.112605	0.958940
H267	H	1.730085	0.220729	1.292273
