data_functionalizedCrystal
_audit_creation_method	'MofGen! by Chris Wilmer'
_symmetry_space_group_name_H-M	'P1'
_symmetry_Int_Tables_number	1
_symmetry_cell_setting	triclinic
loop_
_symmetry_equiv_pos_as_xyz
  x,y,z
_cell_length_a	21.295417
_cell_length_b	18.050590
_cell_length_c	18.050582
_cell_angle_alpha	89.996382
_cell_angle_beta	89.973245
_cell_angle_gamma	89.982671
loop_
_atom_site_label
_atom_site_type_symbol
_atom_site_fract_x
_atom_site_fract_y
_atom_site_fract_z
Zn1	Zn	-0.250871	-1.135281	-0.419523
Zn2	Zn	-0.000871	-0.885281	-0.169523
Zn3	Zn	0.249129	-0.635281	0.080477
Zn4	Zn	0.499129	-0.385281	0.330477
Zn5	Zn	-0.356132	-1.135186	-0.295324
Zn6	Zn	-0.106132	-0.885186	-0.045324
Zn7	Zn	0.143868	-0.635186	0.204676
Zn8	Zn	0.393868	-0.385186	0.454676
Zn9	Zn	-0.250856	-1.011100	-0.295388
Zn10	Zn	-0.000856	-0.761100	-0.045388
Zn11	Zn	0.249144	-0.511100	0.204612
Zn12	Zn	0.499144	-0.261100	0.454612
Zn13	Zn	-0.356082	-1.011043	-0.419513
Zn14	Zn	-0.106082	-0.761043	-0.169513
Zn15	Zn	0.143918	-0.511043	0.080487
Zn16	Zn	0.393918	-0.261043	0.330487
O17	O	-0.303485	-1.073152	-0.357437
O18	O	-0.053485	-0.823152	-0.107437
O19	O	0.196515	-0.573152	0.142563
O20	O	0.446515	-0.323152	0.392563
O21	O	-0.264861	-1.239193	-0.403026
O22	O	-0.014861	-0.989193	-0.153026
O23	O	0.235139	-0.739193	0.096974
O24	O	0.485139	-0.489193	0.346974
O25	O	-0.342182	-1.118710	-0.191408
O26	O	-0.092182	-0.868710	0.058592
O27	O	0.157818	-0.618710	0.308592
O28	O	0.407818	-0.368710	0.558592
O29	O	-0.162769	-1.027636	-0.311885
O30	O	0.087231	-0.777636	-0.061885
O31	O	0.337231	-0.527636	0.188115
O32	O	0.587231	-0.277636	0.438115
O33	O	-0.342196	-1.239123	-0.311778
O34	O	-0.092196	-0.989123	-0.061778
O35	O	0.157804	-0.739123	0.188222
O36	O	0.407804	-0.489123	0.438222
O37	O	-0.162779	-1.118871	-0.403087
O38	O	0.087221	-0.868871	-0.153087
O39	O	0.337221	-0.618871	0.096913
O40	O	0.587221	-0.368871	0.346913
O41	O	-0.264836	-1.027545	-0.191455
O42	O	-0.014836	-0.777545	0.058545
O43	O	0.235164	-0.527545	0.308545
O44	O	0.485164	-0.277545	0.558545
O45	O	-0.264788	-0.907168	-0.311875
O46	O	-0.014788	-0.657168	-0.061875
O47	O	0.235212	-0.407168	0.188125
O48	O	0.485212	-0.157168	0.438125
O49	O	-0.342110	-1.027539	-0.523439
O50	O	-0.092110	-0.777539	-0.273439
O51	O	0.157890	-0.527539	-0.023439
O52	O	0.407890	-0.277539	0.226561
O53	O	-0.342096	-0.907126	-0.403070
O54	O	-0.092096	-0.657126	-0.153070
O55	O	0.157904	-0.407126	0.096930
O56	O	0.407904	-0.157126	0.346930
O57	O	-0.264812	-1.118816	-0.523447
O58	O	-0.014812	-0.868816	-0.273447
O59	O	0.235188	-0.618816	-0.023447
O60	O	0.485188	-0.368816	0.226553
O61	O	-0.444215	-1.118655	-0.311767
O62	O	-0.194215	-0.868655	-0.061767
O63	O	0.055785	-0.618655	0.188233
O64	O	0.305785	-0.368655	0.438233
O65	O	-0.444178	-1.027447	-0.403008
O66	O	-0.194178	-0.777447	-0.153008
O67	O	0.055822	-0.527447	0.096992
O68	O	0.305822	-0.277447	0.346992
C69	C	-0.303435	-0.880200	-0.357479
C70	C	-0.053435	-0.630200	-0.107479
C71	C	0.196565	-0.380200	0.142521
C72	C	0.446565	-0.130200	0.392521
C73	C	-0.303429	-0.797655	-0.357514
C74	C	-0.053429	-0.547655	-0.107514
C75	C	0.196571	-0.297655	0.142486
C76	C	0.446571	-0.047655	0.392486
C77	C	-0.345583	-0.598203	-0.406998
C78	C	-0.095583	-0.348203	-0.156998
C79	C	0.154417	-0.098203	0.093002
C80	C	0.404417	0.151797	0.343002
C81	C	-0.288184	-0.548812	-0.425280
C82	C	-0.038184	-0.298812	-0.175280
C83	C	0.211816	-0.048812	0.074720
C84	C	0.461816	0.201188	0.324720
C85	C	-0.303459	-0.646524	-0.357485
C86	C	-0.053459	-0.396524	-0.107485
C87	C	0.196541	-0.146524	0.142515
C88	C	0.446541	0.103476	0.392515
C89	C	-0.360886	-0.548833	-0.339209
C90	C	-0.110886	-0.298833	-0.089209
C91	C	0.139114	-0.048833	0.160791
C92	C	0.389114	0.201167	0.410791
C93	C	-0.303493	-0.500539	-0.357459
C94	C	-0.053493	-0.250539	-0.107459
C95	C	0.196507	-0.000539	0.142541
C96	C	0.446507	0.249461	0.392541
C97	C	-0.246030	-0.598221	-0.375803
C98	C	0.003970	-0.348221	-0.125803
C99	C	0.253970	-0.098221	0.124197
C100	C	0.503970	0.151779	0.374197
C101	C	-0.318770	-0.598246	-0.289701
C102	C	-0.068770	-0.348246	-0.039701
C103	C	0.181230	-0.098246	0.210299
C104	C	0.431230	0.151754	0.460299
C105	C	-0.261332	-0.548878	-0.307958
C106	C	-0.011332	-0.298878	-0.057958
C107	C	0.238668	-0.048878	0.192042
C108	C	0.488668	0.201122	0.442042
C109	C	-0.303441	-0.730622	-0.357503
C110	C	-0.053441	-0.480622	-0.107503
C111	C	0.196559	-0.230622	0.142497
C112	C	0.446559	0.019378	0.392497
C113	C	-0.303505	-0.416442	-0.357442
C114	C	-0.053505	-0.166442	-0.107442
C115	C	0.196495	0.083558	0.142558
C116	C	0.446495	0.333558	0.392558
C117	C	-0.467037	-1.073055	-0.357396
C118	C	-0.217037	-0.823055	-0.107396
C119	C	0.032963	-0.573055	0.142604
C120	C	0.282963	-0.323055	0.392604
C121	C	-0.537005	-1.073081	-0.357403
C122	C	-0.287005	-0.823081	-0.107403
C123	C	-0.037005	-0.573081	0.142597
C124	C	0.212995	-0.323081	0.392597
C125	C	-0.569870	-1.120615	-0.309943
C126	C	-0.319870	-0.870615	-0.059943
C127	C	-0.069870	-0.620615	0.190057
C128	C	0.180130	-0.370615	0.440057
C129	C	-0.635612	-1.120650	-0.309960
C130	C	-0.385612	-0.870650	-0.059960
C131	C	-0.135612	-0.620650	0.190040
C132	C	0.114388	-0.370650	0.440040
C133	C	-0.668487	-1.073138	-0.357429
C134	C	-0.418487	-0.823138	-0.107429
C135	C	-0.168487	-0.573138	0.142571
C136	C	0.081513	-0.323138	0.392571
C137	C	-0.635614	-1.025600	-0.404899
C138	C	-0.385614	-0.775600	-0.154899
C139	C	-0.135614	-0.525600	0.095101
C140	C	0.114386	-0.275600	0.345101
C141	C	-0.569873	-1.025572	-0.404886
C142	C	-0.319873	-0.775572	-0.154886
C143	C	-0.069873	-0.525572	0.095114
C144	C	0.180127	-0.275572	0.345114
N145	N	-0.771741	-1.008171	-0.363105
N146	N	-0.521741	-0.758171	-0.113105
N147	N	-0.271741	-0.508171	0.136895
N148	N	-0.021741	-0.258171	0.386895
N149	N	-0.834192	-1.008200	-0.363112
N150	N	-0.584192	-0.758200	-0.113112
N151	N	-0.334192	-0.508200	0.136888
N152	N	-0.084192	-0.258200	0.386888
C153	C	-0.866562	-1.073221	-0.357471
C154	C	-0.616562	-0.823221	-0.107471
C155	C	-0.366562	-0.573221	0.142529
C156	C	-0.116562	-0.323221	0.392529
N157	N	-0.834121	-1.138214	-0.351808
N158	N	-0.584121	-0.888214	-0.101808
N159	N	-0.334121	-0.638214	0.148192
N160	N	-0.084121	-0.388214	0.398192
N161	N	-0.771664	-1.138184	-0.351796
N162	N	-0.521664	-0.888184	-0.101796
N163	N	-0.271664	-0.638184	0.148204
N164	N	-0.021664	-0.388184	0.398204
C165	C	-0.739773	-1.073163	-0.357448
C166	C	-0.489773	-0.823163	-0.107448
C167	C	-0.239773	-0.573163	0.142552
C168	C	0.010227	-0.323163	0.392552
C169	C	-0.970713	-1.120797	-0.310027
C170	C	-0.720713	-0.870797	-0.060027
C171	C	-0.470713	-0.620797	0.189973
C172	C	-0.220713	-0.370797	0.439973
C173	C	-1.036456	-1.120833	-0.310048
C174	C	-0.786456	-0.870833	-0.060048
C175	C	-0.536456	-0.620833	0.189952
C176	C	-0.286456	-0.370833	0.439952
C177	C	-1.036457	-1.025776	-0.404984
C178	C	-0.786457	-0.775776	-0.154984
C179	C	-0.536457	-0.525776	0.095016
C180	C	-0.286457	-0.275776	0.345016
C181	C	-0.970715	-1.025747	-0.404966
C182	C	-0.720715	-0.775747	-0.154966
C183	C	-0.470715	-0.525747	0.095034
C184	C	-0.220715	-0.275747	0.345034
C185	C	-0.937846	-1.073256	-0.357483
C186	C	-0.687846	-0.823256	-0.107483
C187	C	-0.437846	-0.573256	0.142517
C188	C	-0.187846	-0.323256	0.392517
C189	C	-0.139295	-1.073270	-0.357495
C190	C	0.110705	-0.823270	-0.107495
C191	C	0.360705	-0.573270	0.142505
C192	C	0.610705	-0.323270	0.392505
C193	C	-0.069327	-1.073321	-0.357519
C194	C	0.180673	-0.823321	-0.107519
C195	C	0.430673	-0.573321	0.142481
C196	C	0.680673	-0.323321	0.392481
C197	C	-0.303457	-1.073181	-0.551143
C198	C	-0.053457	-0.823181	-0.301143
C199	C	0.196543	-0.573181	-0.051143
C200	C	0.446543	-0.323181	0.198857
C201	C	-0.303445	-1.073194	-0.633689
C202	C	-0.053445	-0.823194	-0.383689
C203	C	0.196555	-0.573194	-0.133689
C204	C	0.446555	-0.323194	0.116311
C205	C	-0.303527	-0.266858	-0.357408
C206	C	-0.053527	-0.016858	-0.107408
C207	C	0.196473	0.233142	0.142592
C208	C	0.446473	0.483142	0.392592
C209	C	-0.303522	-0.349404	-0.357428
C210	C	-0.053522	-0.099404	-0.107428
C211	C	0.196478	0.150596	0.142572
C212	C	0.446478	0.400596	0.392572
C213	C	-0.345423	-1.023595	-0.833135
C214	C	-0.095423	-0.773595	-0.583135
C215	C	0.154577	-0.523595	-0.333135
C216	C	0.404577	-0.273595	-0.083135
C217	C	-0.360823	-1.091350	-0.882503
C218	C	-0.110823	-0.841350	-0.632503
C219	C	0.139177	-0.591350	-0.382503
C220	C	0.389177	-0.341350	-0.132503
C221	C	-0.303397	-1.073231	-0.784819
C222	C	-0.053397	-0.823231	-0.534819
C223	C	0.196603	-0.573231	-0.284819
C224	C	0.446603	-0.323231	-0.034819
C225	C	-0.287979	-1.005513	-0.882533
C226	C	-0.037979	-0.755513	-0.632533
C227	C	0.212021	-0.505513	-0.382533
C228	C	0.462021	-0.255513	-0.132533
C229	C	-0.303352	-1.073260	-0.930804
C230	C	-0.053352	-0.823260	-0.680804
C231	C	0.196648	-0.573260	-0.430804
C232	C	0.446648	-0.323260	-0.180804
C233	C	-0.318828	-1.141021	-0.833100
C234	C	-0.068828	-0.891021	-0.583100
C235	C	0.181172	-0.641021	-0.333100
C236	C	0.431172	-0.391021	-0.083100
C237	C	-0.245957	-1.055138	-0.833125
C238	C	0.004043	-0.805138	-0.583125
C239	C	0.254043	-0.555138	-0.333125
C240	C	0.504043	-0.305138	-0.083125
C241	C	-0.261336	-1.122939	-0.882471
C242	C	-0.011336	-0.872939	-0.632471
C243	C	0.238664	-0.622939	-0.382471
C244	C	0.488664	-0.372939	-0.132471
C245	C	-0.303425	-1.073213	-0.700721
C246	C	-0.053425	-0.823213	-0.450721
C247	C	0.196575	-0.573213	-0.200721
C248	C	0.446575	-0.323213	0.049279
C249	C	-0.303324	-1.073286	-1.014901
C250	C	-0.053324	-0.823286	-0.764901
C251	C	0.196676	-0.573286	-0.514901
C252	C	0.446676	-0.323286	-0.264901
C253	C	-0.303468	-1.073166	-0.164485
C254	C	-0.053468	-0.823166	0.085515
C255	C	0.196532	-0.573166	0.335515
C256	C	0.446532	-0.323166	0.585515
C257	C	-0.303302	-1.073298	-0.081940
C258	C	-0.053302	-0.823298	0.168060
C259	C	0.196698	-0.573298	0.418060
C260	C	0.446698	-0.323298	0.668060
H261	H	-0.197465	-0.619824	-0.391315
H262	H	0.052535	-0.369824	-0.141315
H263	H	0.302535	-0.119824	0.108685
H264	H	0.552535	0.130176	0.358685
H265	H	-0.943954	-0.987037	-0.443609
H266	H	-0.693954	-0.737037	-0.193609
H267	H	-0.443954	-0.487037	0.056391
H268	H	-0.193954	-0.237037	0.306391
H269	H	-0.225777	-1.164975	-0.903997
H270	H	0.024223	-0.914975	-0.653997
H271	H	0.274223	-0.664975	-0.403997
H272	H	0.524223	-0.414975	-0.153997
F273	F	-0.335696	-0.626629	-0.214799
F274	F	-0.085696	-0.376629	0.035201
F275	F	0.164304	-0.126629	0.285201
F276	F	0.414304	0.123371	0.535201
F277	F	-0.534895	-0.974978	-0.455402
F278	F	-0.284895	-0.724978	-0.205402
F279	F	-0.034895	-0.474978	0.044598
F280	F	0.215105	-0.224978	0.294598
H281	H	-0.543110	-1.159302	-0.271282
H282	H	-0.293110	-0.909302	-0.021282
H283	H	-0.043110	-0.659302	0.228718
H284	H	0.206890	-0.409302	0.478718
H285	H	-1.063214	-1.159545	-0.271402
H286	H	-0.813214	-0.909545	-0.021402
H287	H	-0.563214	-0.659545	0.228598
H288	H	-0.313214	-0.409545	0.478598
H289	H	-0.381146	-0.619863	-0.448913
H290	H	-0.131146	-0.369863	-0.198913
H291	H	0.118854	-0.119863	0.051087
H292	H	0.368854	0.130137	0.301087
F293	F	-0.424344	-0.520476	-0.319018
F294	F	-0.174344	-0.270476	-0.069018
F295	F	0.075656	-0.020476	0.180982
F296	F	0.325656	0.229524	0.430982
F297	F	-1.071441	-0.975214	-0.455509
F298	F	-0.821441	-0.725214	-0.205509
F299	F	-0.571441	-0.475214	0.044491
F300	F	-0.321441	-0.225214	0.294491
H301	H	-0.662376	-1.159361	-0.271312
H302	H	-0.412376	-0.909361	-0.021312
H303	H	-0.162376	-0.659361	0.228688
H304	H	0.087624	-0.409361	0.478688
F305	F	-0.270958	-0.930645	-0.910915
F306	F	-0.020958	-0.680645	-0.660915
F307	F	0.229042	-0.430645	-0.410915
F308	F	0.479042	-0.180645	-0.160915
F309	F	-0.271270	-0.520430	-0.500191
F310	F	-0.021270	-0.270430	-0.250191
F311	F	0.228730	-0.020430	-0.000191
F312	F	0.478730	0.229570	0.249809
F313	F	-0.214737	-0.520745	-0.253214
F314	F	0.035263	-0.270745	-0.003214
F315	F	0.285263	-0.020745	0.246786
F316	F	0.535263	0.229255	0.496786
F317	F	-0.670603	-0.975037	-0.455422
F318	F	-0.420603	-0.725037	-0.205422
F319	F	-0.170603	-0.475037	0.044578
F320	F	0.079397	-0.225037	0.294578
F321	F	-0.182508	-1.035088	-0.804752
F322	F	0.067492	-0.785088	-0.554752
F323	F	0.317492	-0.535088	-0.304752
F324	F	0.567492	-0.285088	-0.054752
F325	F	-0.935729	-1.171359	-0.259492
F326	F	-0.685729	-0.921359	-0.009492
F327	F	-0.435729	-0.671359	0.240508
F328	F	-0.185729	-0.421359	0.490508
H329	H	-0.331905	-1.198317	-0.811478
H330	H	-0.081905	-0.948317	-0.561478
H331	H	0.168095	-0.698317	-0.311478
H332	H	0.418095	-0.448317	-0.061478
H333	H	-0.381009	-0.981660	-0.811473
H334	H	-0.131009	-0.731660	-0.561473
H335	H	0.118991	-0.481660	-0.311473
H336	H	0.368991	-0.231660	-0.061473
H337	H	-0.409380	-1.106670	-0.904193
H338	H	-0.159380	-0.856670	-0.654193
H339	H	0.090620	-0.606670	-0.404193
H340	H	0.340620	-0.356670	-0.154193
