data_functionalizedCrystal
_audit_creation_method	'MofGen! by Chris Wilmer'
_symmetry_space_group_name_H-M	'P1'
_symmetry_Int_Tables_number	1
_symmetry_cell_setting	triclinic
loop_
_symmetry_equiv_pos_as_xyz
  x,y,z
_cell_length_a	14.519709
_cell_length_b	22.610064
_cell_length_c	14.519731
_cell_angle_alpha	89.990219
_cell_angle_beta	96.315500
_cell_angle_gamma	90.009670
loop_
_atom_site_label
_atom_site_type_symbol
_atom_site_fract_x
_atom_site_fract_y
_atom_site_fract_z
O1	O	1.223891	0.049115	-0.120888
O2	O	1.473891	0.299115	0.129112
O3	O	1.723891	0.549115	0.379112
O4	O	1.973891	0.799115	0.629112
O5	O	0.955416	0.049134	-0.135124
O6	O	1.205416	0.299134	0.114876
O7	O	1.455416	0.549134	0.364876
O8	O	1.705416	0.799134	0.614876
O9	O	1.096761	0.049112	0.006231
O10	O	1.346761	0.299112	0.256231
O11	O	1.596761	0.549112	0.506231
O12	O	1.846761	0.799112	0.756231
O13	O	1.082545	0.049137	-0.262243
O14	O	1.332545	0.299137	-0.012243
O15	O	1.582545	0.549137	0.237757
O16	O	1.832545	0.799137	0.487757
O17	O	1.096720	-0.049257	0.006231
O18	O	1.346720	0.200743	0.256231
O19	O	1.596720	0.450743	0.506231
O20	O	1.846720	0.700743	0.756231
O21	O	0.955374	-0.049235	-0.135124
O22	O	1.205374	0.200765	0.114876
O23	O	1.455374	0.450765	0.364876
O24	O	1.705374	0.700765	0.614876
O25	O	1.223850	-0.049254	-0.120888
O26	O	1.473850	0.200746	0.129112
O27	O	1.723850	0.450746	0.379112
O28	O	1.973850	0.700746	0.629112
Zn29	Zn	1.089605	-0.064863	-0.128006
Zn30	Zn	1.339605	0.185137	0.121994
Zn31	Zn	1.589605	0.435137	0.371994
Zn32	Zn	1.839605	0.685137	0.621994
Zn33	Zn	1.089660	0.064743	-0.128006
Zn34	Zn	1.339660	0.314743	0.121994
Zn35	Zn	1.589660	0.564743	0.371994
Zn36	Zn	1.839660	0.814743	0.621994
O37	O	1.082504	-0.049232	-0.262243
O38	O	1.332504	0.200768	-0.012243
O39	O	1.582504	0.450768	0.237757
O40	O	1.832504	0.700768	0.487757
C41	C	0.921035	-0.000049	-0.134461
C42	C	1.171035	0.249951	0.115539
C43	C	1.421035	0.499951	0.365539
C44	C	1.671035	0.749951	0.615539
C45	C	0.818654	-0.000042	-0.132473
C46	C	1.068654	0.249958	0.117527
C47	C	1.318654	0.499958	0.367527
C48	C	1.568654	0.749958	0.617527
N49	N	1.089575	-0.153316	-0.128005
N50	N	1.339575	0.096684	0.121995
N51	N	1.589575	0.346684	0.371995
N52	N	1.839575	0.596684	0.621995
C53	C	0.443757	-0.000069	-0.125153
C54	C	0.693757	0.249931	0.124847
C55	C	0.943757	0.499931	0.374847
C56	C	1.193757	0.749931	0.624847
C57	C	0.548065	-0.000062	-0.127186
C58	C	0.798065	0.249938	0.122814
C59	C	1.048065	0.499938	0.372814
C60	C	1.298065	0.749938	0.622814
C61	C	0.631202	-0.000055	-0.128813
C62	C	0.881202	0.249945	0.121187
C63	C	1.131202	0.499945	0.371187
C64	C	1.381202	0.749945	0.621187
C65	C	0.735517	-0.000048	-0.130846
C66	C	0.985517	0.249952	0.119154
C67	C	1.235517	0.499952	0.369154
C68	C	1.485517	0.749952	0.619154
C69	C	1.145688	-0.561956	-0.184055
C70	C	1.395688	-0.311956	0.065945
C71	C	1.645688	-0.061956	0.315945
C72	C	1.895688	0.188044	0.565945
C73	C	1.145699	-0.623876	-0.184052
C74	C	1.395699	-0.373876	0.065948
C75	C	1.645699	-0.123876	0.315948
C76	C	1.895699	0.126124	0.565948
O77	O	1.193372	-0.655893	-0.231701
O78	O	1.443372	-0.405893	0.018299
O79	O	1.693372	-0.155893	0.268299
O80	O	1.943372	0.094107	0.518299
N81	N	1.089678	-0.654853	-0.127996
N82	N	1.339678	-0.404853	0.122004
N83	N	1.589678	-0.154853	0.372004
N84	N	1.839678	0.095147	0.622004
C85	C	1.033648	-0.623907	-0.071931
C86	C	1.283648	-0.373907	0.178069
C87	C	1.533648	-0.123907	0.428069
C88	C	1.783648	0.126093	0.678069
O89	O	0.985999	-0.655941	-0.024249
O90	O	1.235999	-0.405941	0.225751
O91	O	1.485999	-0.155941	0.475751
O92	O	1.735999	0.094059	0.725751
C93	C	1.033642	-0.561988	-0.071929
C94	C	1.283642	-0.311988	0.178071
C95	C	1.533642	-0.061988	0.428071
C96	C	1.783642	0.188012	0.678071
C97	C	1.089660	-0.531014	-0.127996
C98	C	1.339660	-0.281014	0.122004
C99	C	1.589660	-0.031014	0.372004
C100	C	1.839660	0.218986	0.622004
C101	C	1.201702	-0.530982	-0.240116
C102	C	1.451702	-0.280982	0.009884
C103	C	1.701702	-0.030982	0.259884
C104	C	1.951702	0.219018	0.509884
C105	C	1.201689	-0.469066	-0.240120
C106	C	1.451689	-0.219066	0.009880
C107	C	1.701689	0.030934	0.259880
C108	C	1.951689	0.280934	0.509880
C109	C	1.145662	-0.438124	-0.184061
C110	C	1.395662	-0.188124	0.065939
C111	C	1.645662	0.061876	0.315939
C112	C	1.895662	0.311876	0.565939
C113	C	1.089647	-0.469098	-0.127999
C114	C	1.339647	-0.219098	0.122001
C115	C	1.589647	0.030902	0.372001
C116	C	1.839647	0.280902	0.622001
C117	C	0.977618	-0.531043	-0.015859
C118	C	1.227618	-0.281043	0.234141
C119	C	1.477618	-0.031043	0.484141
C120	C	1.727618	0.218957	0.734141
C121	C	0.977617	-0.469120	-0.015862
C122	C	1.227617	-0.219120	0.234138
C123	C	1.477617	0.030880	0.484138
C124	C	1.727617	0.280880	0.734138
C125	C	1.033635	-0.438146	-0.071929
C126	C	1.283635	-0.188146	0.178071
C127	C	1.533635	0.061854	0.428071
C128	C	1.783635	0.311854	0.678071
C129	C	1.033606	-0.376241	-0.071944
C130	C	1.283606	-0.126241	0.178056
C131	C	1.533606	0.123759	0.428056
C132	C	1.783606	0.373759	0.678056
N133	N	1.089628	-0.345264	-0.128000
N134	N	1.339628	-0.095264	0.122000
N135	N	1.589628	0.154736	0.372000
N136	N	1.839628	0.404736	0.622000
C137	C	1.145656	-0.376206	-0.184059
C138	C	1.395656	-0.126206	0.065941
C139	C	1.645656	0.123794	0.315941
C140	C	1.895656	0.373794	0.565941
C141	C	1.033666	-0.753940	-0.071938
C142	C	1.283666	-0.503940	0.178062
C143	C	1.533666	-0.253940	0.428062
C144	C	1.783666	-0.003940	0.678062
C145	C	1.033666	-0.815858	-0.071944
C146	C	1.283666	-0.565858	0.178056
C147	C	1.533666	-0.315858	0.428056
C148	C	1.783666	-0.065858	0.678056
C149	C	1.145719	-0.815823	-0.184065
C150	C	1.395719	-0.565823	0.065935
C151	C	1.645719	-0.315823	0.315935
C152	C	1.895719	-0.065823	0.565935
C153	C	1.145713	-0.753904	-0.184063
C154	C	1.395713	-0.503904	0.065937
C155	C	1.645713	-0.253904	0.315937
C156	C	1.895713	-0.003904	0.565937
C157	C	1.089688	-0.722963	-0.127995
C158	C	1.339688	-0.472963	0.122005
C159	C	1.589688	-0.222963	0.372005
C160	C	1.839688	0.027037	0.622005
C161	C	1.145623	-0.246178	-0.184062
C162	C	1.395623	0.003822	0.065938
C163	C	1.645623	0.253822	0.315938
C164	C	1.895623	0.503822	0.565938
C165	C	1.145602	-0.184257	-0.184064
C166	C	1.395602	0.065743	0.065936
C167	C	1.645602	0.315743	0.315936
C168	C	1.895602	0.565743	0.565936
C169	C	1.033553	-0.184298	-0.071940
C170	C	1.283553	0.065702	0.178060
C171	C	1.533553	0.315702	0.428060
C172	C	1.783553	0.565702	0.678060
C173	C	1.033570	-0.246214	-0.071942
C174	C	1.283570	0.003786	0.178058
C175	C	1.533570	0.253786	0.428058
C176	C	1.783570	0.503786	0.678058
C177	C	1.089613	-0.277152	-0.128006
C178	C	1.339613	-0.027152	0.121994
C179	C	1.589613	0.222848	0.371994
C180	C	1.839613	0.472848	0.621994
O181	O	0.985961	-0.344184	-0.024316
O182	O	1.235961	-0.094184	0.225684
O183	O	1.485961	0.155816	0.475684
O184	O	1.735961	0.405816	0.725684
O185	O	1.193306	-0.344164	-0.231723
O186	O	1.443306	-0.094164	0.018277
O187	O	1.693306	0.155836	0.268277
O188	O	1.943306	0.405836	0.518277
C189	C	1.258230	-0.000071	-0.121551
C190	C	1.508230	0.249929	0.128449
C191	C	1.758230	0.499929	0.378449
C192	C	2.008230	0.749929	0.628449
C193	C	1.360612	-0.000074	-0.123539
C194	C	1.610612	0.249926	0.126461
C195	C	1.860612	0.499926	0.376461
C196	C	2.110612	0.749926	0.626461
C197	C	1.096075	-0.000075	0.040591
C198	C	1.346075	0.249925	0.290591
C199	C	1.596075	0.499925	0.540591
C200	C	1.846075	0.749925	0.790591
C201	C	1.094079	-0.000080	0.142971
C202	C	1.344079	0.249920	0.392971
C203	C	1.594079	0.499920	0.642971
C204	C	1.844079	0.749920	0.892971
N205	N	1.089698	0.153195	-0.128000
N206	N	1.339698	0.403195	0.122000
N207	N	1.589698	0.653195	0.372000
N208	N	1.839698	0.903195	0.622000
C209	C	1.092457	-0.000082	0.226115
C210	C	1.342457	0.249918	0.476115
C211	C	1.592457	0.499918	0.726115
C212	C	1.842457	0.749918	0.976115
C213	C	1.090430	-0.000083	0.330424
C214	C	1.340430	0.249917	0.580424
C215	C	1.590430	0.499917	0.830424
C216	C	1.840430	0.749917	1.080424
C217	C	1.088822	-0.000083	0.413563
C218	C	1.338822	0.249917	0.663563
C219	C	1.588822	0.499917	0.913563
C220	C	1.838822	0.749917	1.163563
C221	C	1.086795	-0.000085	0.517878
C222	C	1.336795	0.249915	0.767878
C223	C	1.586795	0.499915	1.017878
C224	C	1.836795	0.749915	1.267878
C225	C	1.083191	-0.000057	0.703397
C226	C	1.333191	0.249943	0.953397
C227	C	1.583191	0.499943	1.203397
C228	C	1.833191	0.749943	1.453397
C229	C	1.085187	-0.000085	0.601017
C230	C	1.335187	0.249915	0.851017
C231	C	1.585187	0.499915	1.101017
C232	C	1.835187	0.749915	1.351017
H233	H	1.191259	-0.271361	-0.229715
H234	H	1.441259	-0.021361	0.020285
H235	H	1.691259	0.228639	0.270285
H236	H	1.941259	0.478639	0.520285
H237	H	1.247309	-0.443853	-0.285772
H238	H	1.497309	-0.193853	-0.035772
H239	H	1.747309	0.056147	0.214228
H240	H	1.997309	0.306147	0.464228
H241	H	0.931993	-0.443931	0.029798
H242	H	1.181993	-0.193931	0.279798
H243	H	1.431993	0.056069	0.529798
H244	H	1.681993	0.306069	0.779798
O245	O	0.973254	-0.720561	-0.011451
O246	O	1.223254	-0.470561	0.238549
O247	O	1.473254	-0.220561	0.488549
O248	O	1.723254	0.029439	0.738549
H249	H	0.923765	-0.692341	-0.055535
H250	H	1.173765	-0.442341	0.194465
H251	H	1.423765	-0.192341	0.444465
H252	H	1.673765	0.057659	0.694465
H253	H	1.247332	-0.556168	-0.285766
H254	H	1.497332	-0.306168	-0.035766
H255	H	1.747332	-0.056168	0.214234
H256	H	1.997332	0.193832	0.464234
O257	O	0.973127	-0.150937	-0.011455
O258	O	1.223127	0.099063	0.238545
O259	O	1.473127	0.349063	0.488545
O260	O	1.723127	0.599063	0.738545
H261	H	0.993093	-0.162845	0.062200
H262	H	1.243093	0.087155	0.312200
H263	H	1.493093	0.337155	0.562200
H264	H	1.743093	0.587155	0.812200
H265	H	1.191328	-0.728689	-0.229718
H266	H	1.441328	-0.478689	0.020282
H267	H	1.691328	-0.228689	0.270282
H268	H	1.941328	0.021311	0.520282
O269	O	1.206157	-0.849202	-0.244526
O270	O	1.456157	-0.599202	0.005474
O271	O	1.706157	-0.349202	0.255474
O272	O	1.956157	-0.099202	0.505474
H273	H	1.279827	-0.837305	-0.224625
H274	H	1.529827	-0.587305	0.025375
H275	H	1.779827	-0.337305	0.275375
H276	H	2.029827	-0.087305	0.525375
H277	H	0.987944	-0.271434	-0.026299
H278	H	1.237944	-0.021434	0.223701
H279	H	1.487944	0.228566	0.473701
H280	H	1.737944	0.478566	0.723701
H281	H	1.191219	-0.159041	-0.229725
H282	H	1.441219	0.090959	0.020275
H283	H	1.691219	0.340959	0.270275
H284	H	1.941219	0.590959	0.520275
H285	H	0.988039	-0.841072	-0.026300
H286	H	1.238039	-0.591072	0.223700
H287	H	1.488039	-0.341072	0.473700
H288	H	1.738039	-0.091072	0.723700
H289	H	0.932003	-0.556251	0.029798
H290	H	1.182003	-0.306251	0.279798
H291	H	1.432003	-0.056251	0.529798
H292	H	1.682003	0.193749	0.779798
