data_functionalizedCrystal
_audit_creation_method	'MofGen! by Chris Wilmer'
_symmetry_space_group_name_H-M	'P1'
_symmetry_Int_Tables_number	1
_symmetry_cell_setting	triclinic
loop_
_symmetry_equiv_pos_as_xyz
  x,y,z
_cell_length_a	15.995363
_cell_length_b	22.010155
_cell_length_c	15.995350
_cell_angle_alpha	89.995941
_cell_angle_beta	96.505115
_cell_angle_gamma	89.988723
loop_
_atom_site_label
_atom_site_type_symbol
_atom_site_fract_x
_atom_site_fract_y
_atom_site_fract_z
O1	O	-1.110992	0.050478	0.107966
O2	O	-0.610992	0.550478	0.607966
O3	O	-0.867218	0.050488	0.121283
O4	O	-0.367218	0.550488	0.621283
O5	O	-0.995769	0.050482	-0.007263
O6	O	-0.495769	0.550482	0.492737
O7	O	-0.982442	0.050484	0.236512
O8	O	-0.482442	0.550484	0.736512
O9	O	-0.995732	-0.050568	-0.007248
O10	O	-0.495732	0.449432	0.492752
O11	O	-0.867181	-0.050562	0.121298
O12	O	-0.367181	0.449438	0.621298
O13	O	-1.110955	-0.050573	0.107981
O14	O	-0.610955	0.449427	0.607981
Cu15	Cu	-0.989065	-0.059794	0.114641
Cu16	Cu	-0.489065	0.440206	0.614641
Cu17	Cu	-0.989109	0.059710	0.114623
Cu18	Cu	-0.489109	0.559710	0.614623
O19	O	-0.982404	-0.050567	0.236527
O20	O	-0.482404	0.449433	0.736527
C21	C	-0.836005	-0.000036	0.120738
C22	C	-0.336005	0.499964	0.620738
C23	C	-0.743055	-0.000031	0.119082
C24	C	-0.243055	0.499969	0.619082
N25	N	-0.989040	-0.143847	0.114653
N26	N	-0.489040	0.356153	0.614653
C27	C	-0.405310	-0.000046	0.113135
C28	C	0.094690	0.499954	0.613135
C29	C	-0.452743	-0.000272	0.021585
C30	C	0.047257	0.499728	0.521585
C31	C	-0.549433	-0.000039	0.023242
C32	C	-0.049433	0.499961	0.523242
C33	C	-0.572869	-0.000039	0.116085
C34	C	-0.072869	0.499961	0.616085
C35	C	-0.531804	0.057663	0.161231
C36	C	-0.031804	0.557663	0.661231
C37	C	-0.435169	0.057707	0.158927
C38	C	0.064831	0.557707	0.658927
C39	C	-0.434787	-0.057207	0.160835
C40	C	0.065213	0.442793	0.660835
C41	C	-0.531732	-0.057964	0.160818
C42	C	-0.031732	0.442036	0.660818
C43	C	-0.667566	-0.000033	0.117757
C44	C	-0.167566	0.499967	0.617757
C45	C	-0.310612	-0.000048	0.111466
C46	C	0.189388	0.499952	0.611466
C47	C	-0.938311	-0.436450	0.063801
C48	C	-0.438311	0.063550	0.563801
C49	C	-0.938304	-0.372842	0.063805
C50	C	-0.438304	0.127158	0.563805
O51	O	-0.895140	-0.339943	0.020571
O52	O	-0.395140	0.160057	0.520571
N53	N	-0.989073	-0.341031	0.114627
N54	N	-0.489073	0.158969	0.614627
C55	C	-1.039859	-0.372830	0.165442
C56	C	-0.539859	0.127170	0.665442
O57	O	-1.083041	-0.339932	0.208669
O58	O	-0.583041	0.160068	0.708669
C59	C	-1.039870	-0.436437	0.165433
C60	C	-0.539870	0.063563	0.665433
C61	C	-0.989091	-0.468245	0.114614
C62	C	-0.489091	0.031755	0.614614
C63	C	-0.887537	-0.468258	0.012986
C64	C	-0.387537	0.031742	0.512986
C65	C	-0.887543	-0.531861	0.012984
C66	C	-0.387543	-0.031861	0.512984
C67	C	-0.938324	-0.563656	0.063797
C68	C	-0.438324	-0.063656	0.563797
C69	C	-0.989098	-0.531848	0.114612
C70	C	-0.489098	-0.031848	0.614612
C71	C	-1.090660	-0.468235	0.216242
C72	C	-0.590660	0.031765	0.716242
C73	C	-1.090667	-0.531846	0.216229
C74	C	-0.590667	-0.031846	0.716229
C75	C	-1.039888	-0.563654	0.165410
C76	C	-0.539888	-0.063654	0.665410
C77	C	-1.039884	-0.627247	0.165422
C78	C	-0.539884	-0.127247	0.665422
N79	N	-0.989115	-0.659058	0.114600
N80	N	-0.489115	-0.159058	0.614600
C81	C	-0.938335	-0.627262	0.063788
C82	C	-0.438335	-0.127262	0.563788
C83	C	-1.039832	-0.239253	0.165455
C84	C	-0.539832	0.260747	0.665455
C85	C	-1.039817	-0.175647	0.165469
C86	C	-0.539817	0.324353	0.665469
C87	C	-0.938263	-0.175663	0.063831
C88	C	-0.438263	0.324337	0.563831
C89	C	-0.938274	-0.239270	0.063822
C90	C	-0.438274	0.260730	0.563822
C91	C	-0.989063	-0.271064	0.114634
C92	C	-0.489063	0.228936	0.614634
C93	C	-0.938352	-0.760834	0.063787
C94	C	-0.438352	-0.260834	0.563787
C95	C	-0.938360	-0.824443	0.063792
C96	C	-0.438360	-0.324443	0.563792
C97	C	-1.039917	-0.824421	0.165426
C98	C	-0.539917	-0.324421	0.665426
C99	C	-1.039906	-0.760818	0.165425
C100	C	-0.539906	-0.260818	0.665425
C101	C	-0.989121	-0.729026	0.114599
C102	C	-0.489121	-0.229026	0.614599
O103	O	-1.083028	-0.660186	0.208632
O104	O	-0.583028	-0.160186	0.708632
O105	O	-0.895168	-0.660169	0.020559
O106	O	-0.395168	-0.160169	0.520559
C107	C	-0.142170	-0.000049	0.108515
C108	C	0.357830	0.499951	0.608515
C109	C	-0.235124	-0.000054	0.110138
C110	C	0.264876	0.499946	0.610138
C111	C	-0.995199	-0.000042	-0.038450
C112	C	-0.495199	0.499958	0.461550
C113	C	-0.993548	-0.000038	-0.131401
C114	C	-0.493548	0.499962	0.368599
N115	N	-0.989140	0.143762	0.114605
N116	N	-0.489140	0.643762	0.614605
C117	C	-0.987615	-0.000040	-0.469148
C118	C	-0.487615	0.499960	0.030852
C119	C	-0.896064	0.000190	-0.421718
C120	C	-0.396064	0.500190	0.078282
C121	C	-0.897716	-0.000037	-0.325028
C122	C	-0.397716	0.499963	0.174972
C123	C	-0.990558	-0.000039	-0.301588
C124	C	-0.490558	0.499961	0.198412
C125	C	-1.035693	-0.057745	-0.342655
C126	C	-0.535693	0.442255	0.157345
C127	C	-1.033393	-0.057793	-0.439290
C128	C	-0.533393	0.442207	0.060710
C129	C	-1.035327	0.057120	-0.439665
C130	C	-0.535327	0.557120	0.060335
C131	C	-1.035305	0.057883	-0.342720
C132	C	-0.535305	0.557883	0.157280
C133	C	-0.992226	-0.000040	-0.206890
C134	C	-0.492226	0.499960	0.293110
C135	C	-0.985950	-0.000043	-0.563846
C136	C	-0.485950	0.499957	-0.063846
C137	C	-0.982974	-0.000041	0.267714
C138	C	-0.482974	0.499959	0.767714
C139	C	-0.984626	-0.000041	0.360665
C140	C	-0.484626	0.499959	0.860665
H141	H	-0.434206	-0.041653	-0.015005
H142	H	0.065794	0.458347	0.484995
H143	H	-0.433165	0.040880	-0.014849
H144	H	0.066835	0.540880	0.485151
H145	H	-1.002306	0.100572	-0.315479
H146	H	-0.502306	0.600572	0.184521
N147	N	-0.886408	-0.143179	0.011908
N148	N	-0.386408	0.356821	0.511908
N149	N	-0.896444	-0.150269	-0.066119
N150	N	-0.396444	0.349731	0.433881
H151	H	-0.859824	-0.127325	-0.102789
H152	H	-0.359824	0.372675	0.397211
N153	N	-0.584394	0.051943	-0.021595
N154	N	-0.084394	0.551943	0.478405
N155	N	-0.537373	0.088166	-0.054203
N156	N	-0.037373	0.588166	0.445797
H157	H	-0.562062	0.124882	-0.085869
H158	H	-0.062062	0.624882	0.414131
H159	H	-0.896926	-0.265164	0.022442
H160	H	-0.396926	0.234836	0.522442
H161	H	-1.081156	-0.149755	0.206861
H162	H	-0.581156	0.350245	0.706861
H163	H	-1.103901	-0.059892	-0.328526
H164	H	-0.603901	0.440108	0.171474
H165	H	-0.403026	-0.057597	0.228335
H166	H	0.096974	0.442403	0.728335
N167	N	-0.886478	-0.856923	0.011879
N168	N	-0.386478	-0.356923	0.511879
N169	N	-0.841144	-0.828522	-0.033485
N170	N	-0.341144	-0.328522	0.466515
H171	H	-0.804503	-0.851459	-0.070148
H172	H	-0.304503	-0.351459	0.429852
N173	N	-0.853212	0.051852	-0.289365
N174	N	-0.353212	0.551852	0.210635
N175	N	-0.890290	0.090144	-0.249138
N176	N	-0.390290	0.590144	0.250862
H177	H	-0.858855	0.126792	-0.223954
H178	H	-0.358855	0.626792	0.276046
H179	H	-0.545929	0.059809	0.229440
H180	H	-0.045929	0.559809	0.729440
N181	N	-1.091717	-0.271718	0.217370
N182	N	-0.591717	0.228282	0.717370
N183	N	-1.137040	-0.243302	0.262738
N184	N	-0.637040	0.256698	0.762738
H185	H	-1.173686	-0.266226	0.299402
H186	H	-0.673686	0.233774	0.799402
N187	N	-0.886486	-0.728374	0.011852
N188	N	-0.386486	-0.228374	0.511852
N189	N	-0.841167	-0.756792	-0.033519
N190	N	-0.341167	-0.256792	0.466481
H191	H	-0.804537	-0.733869	-0.070200
H192	H	-0.304537	-0.233869	0.429800
N193	N	-1.142520	-0.435765	0.268173
N194	N	-0.642520	0.064235	0.768173
N195	N	-1.187847	-0.464173	0.313537
N196	N	-0.687847	0.035827	0.813537
H197	H	-1.224473	-0.441242	0.350221
H198	H	-0.724473	0.058758	0.850221
H199	H	-0.416876	0.100841	0.125990
H200	H	0.083124	0.600841	0.625990
N201	N	-1.142558	-0.564313	0.268133
N202	N	-0.642558	-0.064313	0.768133
N203	N	-1.187889	-0.535900	0.313497
N204	N	-0.687889	-0.035900	0.813497
H205	H	-1.224537	-0.558828	0.350156
H206	H	-0.724537	-0.058828	0.850156
N207	N	-1.091792	-0.728333	0.217325
N208	N	-0.591792	-0.228333	0.717325
N209	N	-1.137140	-0.756732	0.262677
N210	N	-0.637140	-0.256732	0.762677
H211	H	-1.173800	-0.733794	0.299319
H212	H	-0.673800	-0.233794	0.799319
H213	H	-1.081259	-0.850320	0.206798
H214	H	-0.581259	-0.350320	0.706798
H215	H	-0.859487	0.041572	-0.440258
H216	H	-0.359487	0.541572	0.059742
H217	H	-0.846185	-0.442377	-0.028396
H218	H	-0.346185	0.057623	0.471604
N219	N	-0.850349	-0.051430	-0.446299
N220	N	-0.350349	0.448570	0.053701
N221	N	-0.884902	-0.088388	-0.498597
N222	N	-0.384902	0.411612	0.001403
H223	H	-0.852618	-0.124846	-0.515960
H224	H	-0.352618	0.375154	-0.015960
N225	N	-0.997798	0.111985	-0.465454
N226	N	-0.497798	0.611985	0.034546
N227	N	-0.935423	0.109622	-0.505882
N228	N	-0.435423	0.609622	-0.005882
H229	H	-0.908911	0.148366	-0.524098
H230	H	-0.408911	0.648366	-0.024098
N231	N	-0.996323	-0.111611	-0.307041
N232	N	-0.496323	0.388389	0.192959
N233	N	-0.935034	-0.107651	-0.251427
N234	N	-0.435034	0.392349	0.248573
H235	H	-0.907223	-0.145693	-0.226276
H236	H	-0.407223	0.354307	0.273724
N237	N	-0.394721	0.060991	0.243247
N238	N	0.105279	0.560991	0.743247
N239	N	-0.437890	0.063248	0.303607
N240	N	0.062110	0.563248	0.803607
H241	H	-0.409328	0.065569	0.363158
H242	H	0.090672	0.565569	0.863158
H243	H	-0.861966	-0.041471	-0.297159
H244	H	-0.361966	0.458529	0.202841
N245	N	-0.567446	0.111532	0.121896
N246	N	-0.067446	0.611532	0.621896
N247	N	-0.623079	0.107577	0.060622
N248	N	-0.123079	0.607577	0.560622
H249	H	-0.648260	0.145621	0.032844
H250	H	-0.148260	0.645621	0.532844
H251	H	-1.103011	0.061366	-0.327356
H252	H	-0.603011	0.561366	0.172644
H253	H	-1.000449	-0.100927	-0.457587
H254	H	-0.500449	0.399073	0.042413
H255	H	-1.100608	-0.060412	-0.471535
H256	H	-0.600608	0.439588	0.028465
N257	N	-1.120007	0.057594	-0.479498
N258	N	-0.620007	0.557594	0.020502
N259	N	-1.145208	0.016062	-0.529394
N260	N	-0.645208	0.516062	-0.029394
H261	H	-1.205013	0.016390	-0.557525
H262	H	-0.705013	0.516390	-0.057525
N263	N	-0.408999	-0.112071	0.123292
N264	N	0.091001	0.387929	0.623292
N265	N	-0.368576	-0.109708	0.060915
N266	N	0.131424	0.390292	0.560915
H267	H	-0.350361	-0.148453	0.034392
H268	H	0.149639	0.351547	0.534392
H269	H	-0.577847	-0.041403	-0.012246
H270	H	-0.077847	0.458597	0.487754
H271	H	-0.547096	-0.061450	0.228523
H272	H	-0.047096	0.438550	0.728523
N273	N	-0.565957	-0.111512	0.119445
N274	N	-0.065957	0.388488	0.619445
N275	N	-0.558208	-0.120117	0.043464
N276	N	-0.058208	0.379883	0.543464
H277	H	-0.582385	-0.157931	0.014236
H278	H	-0.082385	0.342069	0.514236
N279	N	-0.835671	-0.564337	-0.038934
N280	N	-0.335671	-0.064337	0.461066
N281	N	-0.790341	-0.535931	-0.084296
N282	N	-0.290341	-0.035931	0.415704
H283	H	-0.753705	-0.558863	-0.120969
H284	H	-0.253705	-0.058863	0.379031
