data_functionalizedCrystal
_audit_creation_method	'MofGen! by Chris Wilmer'
_symmetry_space_group_name_H-M	'P1'
_symmetry_Int_Tables_number	1
_symmetry_cell_setting	triclinic
loop_
_symmetry_equiv_pos_as_xyz
  x,y,z
_cell_length_a	23.532355
_cell_length_b	23.532357
_cell_length_c	18.266242
_cell_angle_alpha	90.011897
_cell_angle_beta	90.003221
_cell_angle_gamma	82.827896
loop_
_atom_site_label
_atom_site_type_symbol
_atom_site_fract_x
_atom_site_fract_y
_atom_site_fract_z
O1	O	0.755270	0.068997	0.060790
O2	O	1.088603	0.402330	0.394123
O3	O	1.421937	0.735663	0.727457
O4	O	0.589401	0.079031	0.060815
O5	O	0.922734	0.412364	0.394148
O6	O	1.256067	0.745698	0.727481
O7	O	0.677352	-0.008921	0.060787
O8	O	1.010685	0.324413	0.394120
O9	O	1.344019	0.657746	0.727453
O10	O	0.667319	0.156949	0.060818
O11	O	1.000652	0.490282	0.394151
O12	O	1.333985	0.823615	0.727485
O13	O	0.677337	-0.008925	-0.060975
O14	O	1.010670	0.324408	0.272358
O15	O	1.344004	0.657741	0.605691
O16	O	0.589386	0.079027	-0.060947
O17	O	0.922719	0.412360	0.272386
O18	O	1.256052	0.745693	0.605719
O19	O	0.755255	0.068992	-0.060972
O20	O	1.088588	0.402326	0.272361
O21	O	1.421922	0.735659	0.605695
Zn22	Zn	0.672318	0.074009	-0.080292
Zn23	Zn	1.005651	0.407342	0.253041
Zn24	Zn	1.338985	0.740675	0.586375
Zn25	Zn	0.672338	0.074015	0.080135
Zn26	Zn	1.005671	0.407348	0.413468
Zn27	Zn	1.339004	0.740681	0.746801
O28	O	0.667304	0.156944	-0.060944
O29	O	1.000637	0.490277	0.272390
O30	O	1.333971	0.823611	0.605723
C31	C	0.568177	0.078778	-0.000063
C32	C	0.901510	0.412111	0.333270
C33	C	1.234843	0.745445	0.666603
C34	C	0.504958	0.078024	-0.000055
C35	C	0.838291	0.411357	0.333279
C36	C	1.171625	0.744691	0.666612
C37	C	0.112937	0.073283	-0.066459
C38	C	0.446270	0.406617	0.266875
C39	C	0.779604	0.739950	0.600208
C40	C	0.053538	0.072566	-0.066462
C41	C	0.386871	0.405899	0.266872
C42	C	0.720204	0.739232	0.600205
O43	O	0.022812	0.072173	-0.122908
O44	O	0.356146	0.405507	0.210425
O45	O	0.689479	0.738840	0.543758
N46	N	0.023837	0.072212	-0.000090
N47	N	0.357171	0.405546	0.333244
N48	N	0.690504	0.738879	0.666577
C49	C	0.053540	0.072571	0.066290
C50	C	0.386874	0.405904	0.399623
C51	C	0.720207	0.739237	0.732957
O52	O	0.022824	0.072204	0.122744
O53	O	0.356157	0.405537	0.456078
O54	O	0.689490	0.738871	0.789411
C55	C	0.112939	0.073284	0.066292
C56	C	0.446272	0.406617	0.399625
C57	C	0.779606	0.739951	0.732959
C58	C	0.142636	0.073643	-0.000084
C59	C	0.475969	0.406977	0.333249
C60	C	0.809302	0.740310	0.666582
C61	C	0.142634	0.073642	-0.132830
C62	C	0.475967	0.406975	0.200504
C63	C	0.809300	0.740308	0.533837
C64	C	0.202029	0.074360	-0.132827
C65	C	0.535362	0.407694	0.200507
C66	C	0.868695	0.741027	0.533840
C67	C	0.231727	0.074720	-0.066452
C68	C	0.565060	0.408054	0.266881
C69	C	0.898394	0.741387	0.600214
C70	C	0.202031	0.074362	-0.000081
C71	C	0.535364	0.407695	0.333252
C72	C	0.868697	0.741028	0.666585
C73	C	0.142641	0.073638	0.132671
C74	C	0.475975	0.406972	0.466004
C75	C	0.809308	0.740305	0.799337
C76	C	0.202044	0.074351	0.132667
C77	C	0.535378	0.407685	0.466001
C78	C	0.868711	0.741018	0.799334
C79	C	0.231741	0.074711	0.066291
C80	C	0.565074	0.408044	0.399624
C81	C	0.898407	0.741377	0.732957
C82	C	0.291124	0.075440	0.066296
C83	C	0.624457	0.408774	0.399630
C84	C	0.957791	0.742107	0.732963
N85	N	0.320824	0.075794	-0.000076
N86	N	0.654158	0.409127	0.333258
N87	N	0.987491	0.742460	0.666591
C88	C	0.291126	0.075434	-0.066450
C89	C	0.624459	0.408767	0.266883
C90	C	0.957793	0.742100	0.600217
C91	C	-0.071201	0.071072	0.066280
C92	C	0.262132	0.404405	0.399614
C93	C	0.595466	0.737738	0.732947
C94	C	-0.130599	0.070362	0.066279
C95	C	0.202734	0.403696	0.399612
C96	C	0.536067	0.737029	0.732945
C97	C	-0.130597	0.070356	-0.066473
C98	C	0.202736	0.403690	0.266860
C99	C	0.536069	0.737023	0.600194
C100	C	-0.071199	0.071070	-0.066471
C101	C	0.262135	0.404403	0.266862
C102	C	0.595468	0.737736	0.600196
C103	C	-0.041501	0.071425	-0.000092
C104	C	0.291833	0.404758	0.333241
C105	C	0.625166	0.738092	0.666575
C106	C	0.415860	0.076943	-0.066438
C107	C	0.749193	0.410276	0.266895
C108	C	1.082526	0.743610	0.600228
C109	C	0.475260	0.077664	-0.066429
C110	C	0.808593	0.410997	0.266904
C111	C	1.141926	0.744331	0.600238
C112	C	0.475253	0.077667	0.066322
C113	C	0.808586	0.411000	0.399656
C114	C	1.141920	0.744334	0.732989
C115	C	0.415858	0.076949	0.066314
C116	C	0.749191	0.410282	0.399647
C117	C	1.082525	0.743616	0.732980
C118	C	0.386163	0.076585	-0.000073
C119	C	0.719496	0.409918	0.333261
C120	C	1.052830	0.743252	0.666594
O121	O	0.321887	0.075831	0.122714
O122	O	0.655221	0.409164	0.456047
O123	O	0.988554	0.742498	0.789381
O124	O	0.321851	0.075793	-0.122895
O125	O	0.655184	0.409126	0.210438
O126	O	0.988518	0.742460	0.543772
C127	C	0.677094	-0.030140	-0.000097
C128	C	1.010427	0.303194	0.333237
C129	C	1.343760	0.636527	0.666570
C130	C	0.676339	-0.093358	-0.000103
C131	C	1.009672	0.239975	0.333230
C132	C	1.343006	0.573309	0.666563
C133	C	0.671610	-0.485366	0.066309
C134	C	1.004944	-0.152033	0.399643
C135	C	1.338277	0.181301	0.732976
C136	C	0.670893	-0.544765	0.066314
C137	C	1.004226	-0.211432	0.399647
C138	C	1.337560	0.121901	0.732980
O139	O	0.670510	-0.575479	0.122761
O140	O	1.003843	-0.242146	0.456094
O141	O	1.337176	0.091187	0.789427
N142	N	0.670529	-0.574479	-0.000058
N143	N	1.003863	-0.241145	0.333275
N144	N	1.337196	0.092188	0.666609
C145	C	0.670877	-0.544789	-0.066438
C146	C	1.004210	-0.211456	0.266895
C147	C	1.337544	0.121877	0.600229
O148	O	0.670501	-0.575517	-0.122892
O149	O	1.003834	-0.242184	0.210442
O150	O	1.337168	0.091150	0.543775
C151	C	0.671590	-0.485390	-0.066442
C152	C	1.004923	-0.152057	0.266892
C153	C	1.338257	0.181276	0.600225
C154	C	0.671960	-0.455681	-0.000066
C155	C	1.005293	-0.122347	0.333268
C156	C	1.338626	0.210986	0.666601
C157	C	0.671979	-0.455656	0.132680
C158	C	1.005312	-0.122323	0.466013
C159	C	1.338646	0.211011	0.799346
C160	C	0.672697	-0.396261	0.132675
C161	C	1.006031	-0.062928	0.466008
C162	C	1.339364	0.270406	0.799342
C163	C	0.673047	-0.366576	0.066300
C164	C	1.006380	-0.033243	0.399633
C165	C	1.339713	0.300091	0.732967
C166	C	0.672678	-0.396286	-0.000070
C167	C	1.006011	-0.062952	0.333263
C168	C	1.339345	0.270381	0.666596
C169	C	0.671934	-0.455701	-0.132821
C170	C	1.005267	-0.122368	0.200512
C171	C	1.338600	0.210965	0.533846
C172	C	0.672646	-0.396298	-0.132819
C173	C	1.005980	-0.062965	0.200515
C174	C	1.339313	0.270368	0.533848
C175	C	0.673016	-0.366589	-0.066443
C176	C	1.006349	-0.033255	0.266890
C177	C	1.339683	0.300078	0.600224
C178	C	0.673746	-0.307205	-0.066450
C179	C	1.007079	0.026128	0.266883
C180	C	1.340412	0.359461	0.600217
N181	N	0.674109	-0.277492	-0.000078
N182	N	1.007443	0.055842	0.333255
N183	N	1.340776	0.389175	0.666588
C184	C	0.673760	-0.307177	0.066297
C185	C	1.007093	0.026156	0.399630
C186	C	1.340427	0.359490	0.732963
C187	C	0.669378	-0.669530	-0.066426
C188	C	1.002712	-0.336197	0.266908
C189	C	1.336045	-0.002864	0.600241
C190	C	0.668669	-0.728929	-0.066423
C191	C	1.002003	-0.395595	0.266910
C192	C	1.335336	-0.062262	0.600244
C193	C	0.668684	-0.728901	0.066329
C194	C	1.002018	-0.395567	0.399662
C195	C	1.335351	-0.062234	0.732996
C196	C	0.669397	-0.669502	0.066326
C197	C	1.002731	-0.336168	0.399659
C198	C	1.336064	-0.002835	0.732992
C199	C	0.669742	-0.639817	-0.000054
C200	C	1.003075	-0.306484	0.333279
C201	C	1.336409	0.026850	0.666613
C202	C	0.675269	-0.182443	0.066282
C203	C	1.008602	0.150890	0.399615
C204	C	1.341936	0.484223	0.732949
C205	C	0.675990	-0.123043	0.066272
C206	C	1.009323	0.210290	0.399605
C207	C	1.342656	0.543623	0.732938
C208	C	0.675972	-0.123076	-0.066480
C209	C	1.009305	0.210257	0.266854
C210	C	1.342638	0.543591	0.600187
C211	C	0.675254	-0.182471	-0.066470
C212	C	1.008587	0.150862	0.266863
C213	C	1.341921	0.484195	0.600197
C214	C	0.674901	-0.212153	-0.000083
C215	C	1.008234	0.121180	0.333250
C216	C	1.341567	0.454514	0.666584
O217	O	0.674127	-0.276453	-0.122868
O218	O	1.007460	0.056880	0.210465
O219	O	1.340794	0.390214	0.543798
O220	O	0.674128	-0.276441	0.122741
O221	O	1.007462	0.056892	0.456074
O222	O	1.340795	0.390226	0.789408
C223	C	0.776479	0.069245	-0.000092
C224	C	1.109812	0.402579	0.333241
C225	C	1.443146	0.735912	0.666574
C226	C	0.839698	0.069999	-0.000096
C227	C	1.173031	0.403333	0.333237
C228	C	1.506364	0.736666	0.666571
C229	C	0.667562	0.178163	-0.000059
C230	C	1.000896	0.511496	0.333274
C231	C	1.334229	0.844829	0.666608
C232	C	0.668317	0.241381	-0.000047
C233	C	1.001650	0.574715	0.333286
C234	C	1.334983	0.908048	0.666619
N235	N	0.672309	0.074004	-0.189779
N236	N	1.005642	0.407338	0.143554
N237	N	1.338976	0.740671	0.476888
C238	C	0.711266	0.035078	-0.228100
C239	C	1.044600	0.368412	0.105233
C240	C	1.377933	0.701745	0.438567
C241	C	0.711270	0.035076	-0.304745
C242	C	1.044603	0.368409	0.028588
C243	C	1.377937	0.701742	0.361922
C244	C	0.672322	0.074009	-0.343066
C245	C	1.005655	0.407342	-0.009732
C246	C	1.338988	0.740675	0.323601
C247	C	0.633357	0.112938	-0.304735
C248	C	0.966690	0.446271	0.028598
C249	C	1.300024	0.779605	0.361931
C250	C	0.633351	0.112936	-0.228092
C251	C	0.966684	0.446269	0.105242
C252	C	1.300017	0.779602	0.438575
N253	N	0.664778	0.124446	-0.463388
N254	N	0.998112	0.457780	-0.130055
N255	N	1.331445	0.791113	0.203279
N256	N	0.664788	0.124447	-0.536196
N257	N	0.998121	0.457780	-0.202863
N258	N	1.331454	0.791113	0.130471
C259	C	0.672338	0.074017	-0.573988
C260	C	1.005671	0.407350	-0.240655
C261	C	1.339004	0.740684	0.092679
N262	N	0.679889	0.023585	-0.536222
N263	N	1.013222	0.356919	-0.202888
N264	N	1.346555	0.690252	0.130445
N265	N	0.679882	0.023586	-0.463407
N266	N	1.013216	0.356919	-0.130074
N267	N	1.346549	0.690252	0.203260
C268	C	0.672324	0.074015	-0.426173
C269	C	1.005657	0.407349	-0.092839
C270	C	1.338991	0.740682	0.240494
C271	C	0.711301	0.035085	-0.695417
C272	C	1.044634	0.368418	-0.362083
C273	C	1.377968	0.701751	-0.028750
C274	C	0.711301	0.035081	-0.772063
C275	C	1.044634	0.368415	-0.438730
C276	C	1.377967	0.701748	-0.105396
C277	C	0.633390	0.112949	-0.772052
C278	C	0.966724	0.446282	-0.438718
C279	C	1.300057	0.779615	-0.105385
C280	C	0.633388	0.112947	-0.695407
C281	C	0.966721	0.446280	-0.362073
C282	C	1.300055	0.779614	-0.028740
C283	C	0.672346	0.074016	-0.657094
C284	C	1.005680	0.407349	-0.323761
C285	C	1.339013	0.740682	0.009573
N286	N	0.672351	0.074014	0.189622
N287	N	1.005685	0.407348	0.522955
N288	N	1.339018	0.740681	0.856288
H289	H	-0.047024	0.071363	-0.120521
H290	H	0.286310	0.404696	0.212813
H291	H	0.619643	0.738029	0.546146
Cl292	Cl	0.760274	-0.013860	-0.647251
Cl293	Cl	1.093607	0.319473	-0.313917
Cl294	Cl	1.426941	0.652807	0.019416
Cl295	Cl	0.673156	-0.358920	0.216124
Cl296	Cl	1.006490	-0.025587	0.549457
Cl297	Cl	1.339823	0.307747	0.882791
Cl298	Cl	0.671541	-0.492964	0.216134
Cl299	Cl	1.004874	-0.159631	0.549468
Cl300	Cl	1.338207	0.173703	0.882801
H301	H	0.676292	-0.098856	0.120325
H302	H	1.009625	0.234477	0.453658
H303	H	1.342958	0.567810	0.786992
H304	H	-0.154789	0.070062	-0.120519
H305	H	0.178545	0.403396	0.212815
H306	H	0.511878	0.736729	0.546148
H307	H	0.743023	0.003380	-0.803265
H308	H	1.076356	0.336713	-0.469931
H309	H	1.409690	0.670047	-0.136598
Cl310	Cl	0.584413	0.161888	-0.647227
Cl311	Cl	0.917747	0.495222	-0.313893
Cl312	Cl	1.251080	0.828555	0.019440
H313	H	0.499436	0.077958	-0.120483
H314	H	0.832769	0.411292	0.212850
H315	H	1.166102	0.744625	0.546184
Cl316	Cl	0.378538	0.076486	-0.149896
Cl317	Cl	0.711871	0.409819	0.183437
Cl318	Cl	1.045205	0.743152	0.516770
H319	H	0.601644	0.144637	-0.335940
H320	H	0.934977	0.477970	-0.002606
H321	H	1.268310	0.811304	0.330727
H322	H	0.669661	-0.645365	-0.120483
H323	H	1.002994	-0.312032	0.212850
H324	H	1.336327	0.021302	0.546183
Cl325	Cl	0.760250	-0.013864	-0.352928
Cl326	Cl	1.093583	0.319469	-0.019595
Cl327	Cl	1.426917	0.652802	0.313738
H328	H	-0.154774	0.070079	0.120329
H329	H	0.178559	0.403413	0.453663
H330	H	0.511892	0.736746	0.786996
H331	H	0.226203	0.074649	-0.186877
H332	H	0.559536	0.407982	0.146456
H333	H	0.892870	0.741316	0.479789
Cl334	Cl	-0.033873	0.071525	0.149737
Cl335	Cl	0.299460	0.404858	0.483070
Cl336	Cl	0.632794	0.738192	0.816403
H337	H	0.118460	0.073347	-0.186883
H338	H	0.451793	0.406681	0.146451
H339	H	0.785126	0.740014	0.479784
Cl340	Cl	0.105324	0.073185	0.216121
Cl341	Cl	0.438657	0.406518	0.549455
Cl342	Cl	0.771990	0.739851	0.882788
H343	H	0.226221	0.074641	0.186722
H344	H	0.559555	0.407974	0.520056
H345	H	0.892888	0.741308	0.853389
H346	H	0.601676	0.144647	-0.803252
H347	H	0.935009	0.477980	-0.469918
H348	H	1.268342	0.811313	-0.136585
H349	H	0.391677	0.076666	0.120363
H350	H	0.725010	0.409999	0.453696
H351	H	1.058343	0.743333	0.787029
H352	H	0.672919	-0.372131	-0.186874
H353	H	1.006252	-0.038798	0.146459
H354	H	1.339585	0.294536	0.479792
Cl355	Cl	0.674800	-0.219823	-0.149915
Cl356	Cl	1.008133	0.113510	0.183419
Cl357	Cl	1.341467	0.446844	0.516752
Cl358	Cl	0.676411	-0.085746	-0.149918
Cl359	Cl	1.009744	0.247587	0.183415
Cl360	Cl	1.343077	0.580920	0.516748
H361	H	0.601626	0.144635	-0.196890
H362	H	0.934959	0.477968	0.136443
H363	H	1.268293	0.811301	0.469777
H364	H	0.742987	0.003377	-0.196908
H365	H	1.076321	0.336710	0.136425
H366	H	1.409654	0.670043	0.469759
H367	H	0.674978	-0.206603	0.120341
H368	H	1.008312	0.126731	0.453674
H369	H	1.341645	0.460064	0.787007
Cl370	Cl	0.512600	0.078116	0.149760
Cl371	Cl	0.845933	0.411449	0.483093
Cl372	Cl	1.179267	0.744783	0.816427
H373	H	0.669697	-0.645316	0.120375
H374	H	1.003031	-0.311983	0.453708
H375	H	1.336364	0.021351	0.787041
H376	H	0.668398	-0.753081	0.120375
H377	H	1.001731	-0.419748	0.453709
H378	H	1.335064	-0.086414	0.787042
H379	H	0.668377	-0.753115	-0.120473
H380	H	1.001710	-0.419781	0.212861
H381	H	1.335044	-0.086448	0.546194
H382	H	0.671634	-0.479881	-0.186871
H383	H	1.004967	-0.146547	0.146462
H384	H	1.338300	0.186786	0.479795
