data_functionalizedCrystal
_audit_creation_method	'MofGen! by Chris Wilmer'
_symmetry_space_group_name_H-M	'P1'
_symmetry_Int_Tables_number	1
_symmetry_cell_setting	triclinic
loop_
_symmetry_equiv_pos_as_xyz
  x,y,z
_cell_length_a	19.288864
_cell_length_b	19.288865
_cell_length_c	18.366186
_cell_angle_alpha	89.988521
_cell_angle_beta	89.977106
_cell_angle_gamma	83.136245
loop_
_atom_site_label
_atom_site_type_symbol
_atom_site_fract_x
_atom_site_fract_y
_atom_site_fract_z
O1	O	0.921353	0.086649	-0.060791
O2	O	0.719092	0.098337	-0.060743
O3	O	0.826067	-0.008637	-0.060754
O4	O	0.814378	0.193623	-0.060780
O5	O	0.826049	-0.008643	0.060345
O6	O	0.719074	0.098332	0.060357
O7	O	0.921335	0.086643	0.060308
Zn8	Zn	0.820201	0.092487	0.079559
Zn9	Zn	0.820225	0.092494	-0.079994
O10	O	0.814360	0.193618	0.060319
C11	C	0.693207	0.097959	-0.000187
C12	C	0.616103	0.096830	-0.000167
C13	C	0.825682	-0.034516	-0.000202
C14	C	0.824553	-0.111620	-0.000195
C15	C	0.571407	0.159598	-0.000187
C16	C	0.498960	0.158537	-0.000195
C17	C	0.471212	0.094705	-0.000198
C18	C	0.515918	0.031929	-0.000174
C19	C	0.588364	0.032991	-0.000159
C20	C	0.362956	0.044527	-0.042642
C21	C	0.290512	0.043468	-0.042662
C22	C	0.247767	0.091425	-0.000241
C23	C	0.277473	0.140454	0.042189
C24	C	0.349918	0.141517	0.042205
C25	C	0.392658	0.093546	-0.000214
C26	C	0.124514	0.153047	-0.000269
C27	C	0.052066	0.151984	-0.000272
C28	C	0.069026	0.025374	-0.000259
C29	C	0.141473	0.026439	-0.000248
C30	C	0.169212	0.090278	-0.000256
C31	C	0.887321	-0.156316	-0.000207
C32	C	0.886260	-0.228763	-0.000218
C33	C	0.822428	-0.256511	-0.000203
C34	C	0.759652	-0.211805	-0.000196
C35	C	0.760714	-0.139359	-0.000192
C36	C	0.772242	-0.364800	0.042227
C37	C	0.771182	-0.437245	0.042228
C38	C	0.819148	-0.479956	-0.000219
C39	C	0.868186	-0.450216	-0.042657
C40	C	0.869248	-0.377771	-0.042653
C41	C	0.821269	-0.335065	-0.000208
C42	C	0.880770	-0.603209	-0.000244
C43	C	0.879707	-0.675657	-0.000259
C44	C	0.753097	-0.658697	-0.000230
C45	C	0.754162	-0.586250	-0.000221
C46	C	0.818001	-0.558511	-0.000225
C47	C	0.947220	0.087022	-0.000250
C48	C	1.024324	0.088151	-0.000274
C49	C	0.814745	0.219497	-0.000234
C50	C	0.815874	0.296601	-0.000246
N51	N	0.820190	0.092482	0.188451
N52	N	0.820242	0.092493	-0.188885
C53	C	0.867574	0.045137	0.226546
C54	C	0.867578	0.045134	0.302774
C55	C	0.820206	0.092488	0.340903
C56	C	0.772813	0.139836	0.302799
C57	C	0.772805	0.139834	0.226572
C58	C	0.810907	0.155775	0.461657
C59	C	0.810920	0.155779	0.537882
C60	C	0.820225	0.092496	0.576011
C61	C	0.829533	0.029207	0.537905
C62	C	0.829525	0.029204	0.461679
C63	C	0.820208	0.092496	0.423558
C64	C	0.867617	0.045144	0.696761
C65	C	0.867616	0.045140	0.772990
C66	C	0.772854	0.139849	0.773014
C67	C	0.772851	0.139847	0.696786
C68	C	0.820236	0.092495	0.658664
H69	H	0.593987	0.211580	-0.000195
H70	H	0.147101	0.205028	-0.000265
C71	C	0.955312	-0.277938	-0.000226
N72	N	1.007323	-0.314975	-0.000230
H73	H	0.397755	0.005473	-0.077191
H74	H	0.624756	-0.018124	-0.000144
C75	C	0.682880	-0.689215	-0.000216
N76	N	0.629991	-0.712204	-0.000207
C77	C	0.919692	-0.006959	0.184616
N78	N	0.958946	-0.046199	0.153034
C79	C	0.800670	0.225396	0.419723
N80	N	0.792960	0.277833	0.388139
C81	C	0.919713	-0.006945	0.344687
N82	N	0.958984	-0.046168	0.376254
C83	C	0.449785	0.227589	-0.000225
N84	N	0.412748	0.279600	-0.000251
C85	C	0.038508	-0.044843	-0.000261
N86	N	0.015519	-0.097732	-0.000261
C87	C	0.717240	-0.469951	0.088910
N88	N	0.676608	-0.494584	0.124071
C89	C	0.919734	-0.006950	0.654825
N90	N	0.958988	-0.046189	0.623240
H91	H	0.703049	-0.549857	-0.000208
C92	C	0.190641	-0.042612	-0.000235
N93	N	0.227675	-0.094624	-0.000224
C94	C	0.719474	-0.317824	0.088928
N95	N	0.679732	-0.282442	0.124104
C96	C	0.257843	-0.010469	-0.089332
N97	N	0.233238	-0.051098	-0.124481
H98	H	0.909175	-0.353560	-0.077208
C99	C	0.839754	-0.040413	0.419766
N100	N	0.847455	-0.092850	0.388197
C101	C	0.800675	0.225398	0.579790
N102	N	0.792954	0.277837	0.611354
C103	C	0.839768	-0.040410	0.579842
N104	N	0.847477	-0.092844	0.611431
H105	H	0.734240	0.178392	0.333848
C106	C	0.485395	-0.038287	-0.000178
N107	N	0.462404	-0.091176	-0.000179
C108	C	0.689436	-0.242328	-0.000174
N109	N	0.636547	-0.265319	-0.000158
C110	C	0.720707	0.191949	0.184666
N111	N	0.681477	0.231215	0.153101
H112	H	0.374102	0.181436	0.076756
H113	H	0.709599	-0.102967	-0.000182
C114	C	0.720774	0.191981	0.654880
N115	N	0.681563	0.231266	0.623316
H116	H	0.906200	0.006582	0.804008
H117	H	0.242671	0.179506	0.076733
H118	H	0.939303	-0.133736	-0.000212
H119	H	0.734279	0.178402	0.804058
C120	C	0.920951	-0.497194	-0.089355
N121	N	0.960692	-0.532581	-0.124526
C122	C	0.950993	-0.572693	-0.000259
N123	N	1.003886	-0.549711	-0.000272
H124	H	0.015674	0.203099	-0.000284
H125	H	0.930822	-0.712049	-0.000273
