data_functionalizedCrystal
_audit_creation_method	'MofGen! by Chris Wilmer'
_symmetry_space_group_name_H-M	'P1'
_symmetry_Int_Tables_number	1
_symmetry_cell_setting	triclinic
loop_
_symmetry_equiv_pos_as_xyz
  x,y,z
_cell_length_a	10.654546
_cell_length_b	16.109301
_cell_length_c	9.730223
_cell_angle_alpha	90.001446
_cell_angle_beta	90.003777
_cell_angle_gamma	83.972482
loop_
_atom_site_label
_atom_site_type_symbol
_atom_site_fract_x
_atom_site_fract_y
_atom_site_fract_z
O1	O	1.666258	0.116755	0.114325
O2	O	1.300628	0.127883	0.114321
O3	O	1.493487	0.001347	0.114309
O4	O	1.473398	0.243290	0.114337
O5	O	1.493474	0.001355	-0.114271
O6	O	1.300615	0.127890	-0.114258
O7	O	1.666245	0.116762	-0.114255
Zn8	Zn	1.483428	0.122327	-0.150549
Zn9	Zn	1.483445	0.122318	0.150615
O10	O	1.473386	0.243297	-0.114243
C11	C	1.253834	0.127070	0.000031
C12	C	1.114424	0.124627	0.000029
C13	C	1.492667	-0.029629	0.000019
C14	C	1.490227	-0.121939	0.000017
C15	C	1.048952	0.123467	0.124634
C16	C	0.917962	0.121165	0.124645
C17	C	0.917930	0.121180	-0.124565
C18	C	1.048916	0.123488	-0.124575
C19	C	1.048970	0.123455	0.268514
C20	C	0.917981	0.121154	0.268525
C21	C	1.598994	-0.343565	0.000039
C22	C	1.596692	-0.430299	0.000051
C23	C	1.367871	-0.411783	0.000043
C24	C	1.370174	-0.325051	0.000042
C25	C	1.485739	-0.290944	0.000033
C26	C	1.481134	-0.464411	0.000046
C27	C	1.478637	-0.558452	0.000058
C28	C	1.488237	-0.196898	0.000023
C29	C	1.713038	0.117575	0.000039
C30	C	1.852449	0.120017	0.000049
C31	C	1.474206	0.274273	0.000051
C32	C	1.476646	0.366583	0.000062
N33	N	1.483426	0.122333	-0.356085
C34	C	1.559566	0.173222	-0.428017
C35	C	1.559585	0.173207	-0.571900
C36	C	1.407314	0.071410	-0.571906
C37	C	1.407303	0.071422	-0.428026
C38	C	1.647474	0.231997	-0.428015
C39	C	1.647493	0.231981	-0.571898
N40	N	1.483457	0.122305	0.356152
H41	H	1.102216	0.124441	-0.226040
H42	H	1.101498	0.064245	0.313142
Br43	Br	0.829017	0.119637	-0.293662
H44	H	0.865468	0.180361	0.313190
Br45	Br	1.594461	0.341247	-0.637025
H46	H	1.072996	0.182158	0.323763
Br47	Br	1.813022	0.197952	-0.362892
H48	H	1.693094	-0.315799	0.000035
H49	H	1.742439	0.205846	-0.616503
Br50	Br	0.877940	0.023304	0.360575
Br51	Br	1.211040	-0.458077	0.000059
H52	H	1.688915	-0.473140	0.000059
H53	H	1.277943	-0.282205	0.000041
Br54	Br	1.303961	0.002359	-0.330406
H55	H	1.345337	0.029960	-0.630498
H56	H	1.607094	0.294600	-0.383405
