data_functionalizedCrystal
_audit_creation_method	'MofGen! by Chris Wilmer'
_symmetry_space_group_name_H-M	'P1'
_symmetry_Int_Tables_number	1
_symmetry_cell_setting	triclinic
loop_
_symmetry_equiv_pos_as_xyz
  x,y,z
_cell_length_a	14.044220
_cell_length_b	12.503572
_cell_length_c	14.044220
_cell_angle_alpha	86.156832
_cell_angle_beta	93.188878
_cell_angle_gamma	93.835250
loop_
_atom_site_label
_atom_site_type_symbol
_atom_site_fract_x
_atom_site_fract_y
_atom_site_fract_z
O1	O	1.282200	0.089210	0.225116
O2	O	1.615533	0.422543	0.558450
O3	O	1.948867	0.755877	0.891783
O4	O	1.005530	0.089237	0.216809
O5	O	1.338863	0.422570	0.550142
O6	O	1.672197	0.755904	0.883476
O7	O	1.139712	0.089213	0.082627
O8	O	1.473045	0.422547	0.415961
O9	O	1.806378	0.755880	0.749294
O10	O	1.148019	0.089234	0.359298
O11	O	1.481352	0.422567	0.692631
O12	O	1.814685	0.755900	1.025964
O13	O	1.129622	-0.089427	0.092737
O14	O	1.462955	0.243907	0.426070
O15	O	1.796289	0.577240	0.759404
O16	O	0.995440	-0.089403	0.226918
O17	O	1.328774	0.243930	0.560252
O18	O	1.662107	0.577264	0.893585
O19	O	1.272110	-0.089430	0.235226
O20	O	1.605444	0.243903	0.568559
O21	O	1.938777	0.577237	0.901892
Cu22	Cu	1.132854	-0.105728	0.231995
Cu23	Cu	1.466187	0.227605	0.565328
Cu24	Cu	1.799521	0.560939	0.898662
Cu25	Cu	1.144786	0.105535	0.220040
Cu26	Cu	1.478120	0.438868	0.553373
Cu27	Cu	1.811453	0.772202	0.886706
O28	O	1.137929	-0.089406	0.369407
O29	O	1.471262	0.243927	0.702741
O30	O	1.804595	0.577260	1.036074
C31	C	0.964864	-0.000080	0.218228
C32	C	1.298197	0.333254	0.551561
C33	C	1.631530	0.666587	0.884895
C34	C	0.858721	-0.000070	0.207383
C35	C	1.192055	0.333264	0.540716
C36	C	1.525388	0.666597	0.874049
N37	N	1.124469	-0.254319	0.240404
N38	N	1.457802	0.079015	0.573737
N39	N	1.791135	0.412348	0.907071
C40	C	0.664382	-0.000092	0.187558
C41	C	0.997716	0.333241	0.520891
C42	C	1.331049	0.666574	0.854224
C43	C	0.613253	-0.000091	0.264472
C44	C	0.946586	0.333242	0.597805
C45	C	1.279919	0.666575	0.931139
C46	C	0.505116	-0.000104	0.253441
C47	C	0.838449	0.333229	0.586775
C48	C	1.171782	0.666563	0.920108
C49	C	0.772529	-0.000080	0.198587
C50	C	1.105863	0.333254	0.531921
C51	C	1.439196	0.666587	0.865254
C52	C	1.112134	-0.473432	0.252782
C53	C	1.445467	-0.140098	0.586115
C54	C	1.778800	0.193235	0.919449
C55	C	1.165511	-0.526768	0.199249
C56	C	1.498844	-0.193435	0.532582
C57	C	1.832178	0.139898	0.865915
C58	C	1.158648	-0.648690	0.206136
C59	C	1.491981	-0.315357	0.539469
C60	C	1.825314	0.017976	0.872802
C61	C	1.118996	-0.351499	0.245896
C62	C	1.452329	-0.018165	0.579229
C63	C	1.785662	0.315168	0.912563
C64	C	1.312777	-0.000111	0.233807
C65	C	1.646110	0.333222	0.567140
C66	C	1.979444	0.666556	0.900473
C67	C	1.418920	-0.000114	0.244651
C68	C	1.752253	0.333219	0.577985
C69	C	2.085586	0.666553	0.911318
C70	C	1.131031	-0.000107	0.052060
C71	C	1.464365	0.333227	0.385394
C72	C	1.797698	0.666560	0.718727
C73	C	1.120187	-0.000107	-0.054082
C74	C	1.453520	0.333226	0.279251
C75	C	1.786853	0.666560	0.612584
N76	N	1.153179	0.254126	0.211624
N77	N	1.486512	0.587459	0.544957
N78	N	1.819846	0.920792	0.878290
C79	C	1.100361	-0.000090	-0.248421
C80	C	1.433695	0.333244	0.084912
C81	C	1.767028	0.666577	0.418246
C82	C	1.177275	-0.000094	-0.299551
C83	C	1.510609	0.333239	0.033783
C84	C	1.843942	0.666573	0.367116
C85	C	1.166244	-0.000084	-0.407687
C86	C	1.499578	0.333249	-0.074354
C87	C	1.832911	0.666582	0.258979
C88	C	1.111391	-0.000099	-0.140274
C89	C	1.444724	0.333234	0.193059
C90	C	1.778058	0.666567	0.526392
C91	C	1.146609	-0.000084	0.399974
C92	C	1.479943	0.333249	0.733308
C93	C	1.813276	0.666583	1.066641
C94	C	1.157454	-0.000077	0.506117
C95	C	1.490788	0.333257	0.839450
C96	C	1.824121	0.666590	1.172783
H97	H	0.650692	-0.000081	0.338605
H98	H	0.984026	0.333253	0.671938
H99	H	1.317359	0.666586	1.005272
C100	C	0.613812	-0.000093	0.087417
C101	C	0.947145	0.333240	0.420750
C102	C	1.280479	0.666574	0.754083
H103	H	0.546714	-0.000089	0.093047
H104	H	0.880047	0.333245	0.426381
H105	H	1.213380	0.666578	0.759714
H106	H	0.628242	-0.062384	0.057229
H107	H	0.961575	0.270949	0.390563
H108	H	1.294909	0.604283	0.723896
H109	H	0.635265	0.062216	0.050197
H110	H	0.968598	0.395549	0.383530
H111	H	1.301932	0.728882	0.716864
H112	H	1.216364	-0.480864	0.148245
H113	H	1.549697	-0.147531	0.481579
H114	H	1.883030	0.185802	0.814912
H115	H	1.061285	-0.519330	0.303783
H116	H	1.394619	-0.185997	0.637117
H117	H	1.727952	0.147337	0.970450
C118	C	1.277422	-0.000128	-0.248978
C119	C	1.610755	0.333206	0.084355
C120	C	1.944088	0.666539	0.417688
H121	H	1.271796	-0.000145	-0.181878
H122	H	1.605129	0.333188	0.151455
H123	H	1.938463	0.666522	0.484789
H124	H	1.314656	0.062158	-0.270435
H125	H	1.647989	0.395492	0.062898
H126	H	1.981322	0.728825	0.396232
H127	H	1.307589	-0.062441	-0.263408
H128	H	1.640922	0.270892	0.069925
H129	H	1.974255	0.604226	0.403258
C130	C	1.000220	-0.000089	-0.298992
C131	C	1.333554	0.333245	0.034342
C132	C	1.666887	0.666578	0.367675
H133	H	1.005851	-0.000095	-0.366090
H134	H	1.339184	0.333238	-0.032757
H135	H	1.672517	0.666572	0.300577
H136	H	0.970026	0.062203	-0.284571
H137	H	1.303359	0.395537	0.048762
H138	H	1.636692	0.728870	0.382095
H139	H	0.963008	-0.062396	-0.277529
H140	H	1.296341	0.270937	0.055804
H141	H	1.629675	0.604271	0.389138
