data_functionalizedCrystal
_audit_creation_method	'MofGen! by Chris Wilmer'
_symmetry_space_group_name_H-M	'P1'
_symmetry_Int_Tables_number	1
_symmetry_cell_setting	triclinic
loop_
_symmetry_equiv_pos_as_xyz
  x,y,z
_cell_length_a	14.971506
_cell_length_b	9.198806
_cell_length_c	14.971486
_cell_angle_alpha	89.996607
_cell_angle_beta	96.381742
_cell_angle_gamma	90.004249
loop_
_atom_site_label
_atom_site_type_symbol
_atom_site_fract_x
_atom_site_fract_y
_atom_site_fract_z
O1	O	1.186933	0.120903	-0.116647
O2	O	1.686933	0.620903	0.383353
O3	O	0.926535	0.120904	-0.130587
O4	O	1.426535	0.620904	0.369413
O5	O	1.063713	0.120893	0.006583
O6	O	1.563713	0.620893	0.506583
O7	O	1.049755	0.120914	-0.253816
O8	O	1.549755	0.620914	0.246184
O9	O	1.063703	-0.120892	0.006583
O10	O	1.563703	0.379108	0.506583
O11	O	0.926524	-0.120881	-0.130586
O12	O	1.426524	0.379119	0.369414
O13	O	1.186922	-0.120882	-0.116646
O14	O	1.686922	0.379118	0.383354
Cu15	Cu	1.056722	-0.142958	-0.123616
Cu16	Cu	1.556722	0.357042	0.376384
Cu17	Cu	1.056735	0.142981	-0.123617
Cu18	Cu	1.556735	0.642981	0.376383
O19	O	1.049744	-0.120871	-0.253816
O20	O	1.549744	0.379129	0.246184
C21	C	0.893205	0.000012	-0.129960
C22	C	1.393205	0.500012	0.370040
C23	C	0.793909	0.000012	-0.128082
C24	C	1.293909	0.500012	0.371918
C25	C	0.355627	0.000032	-0.201500
C26	C	0.855627	0.500032	0.298500
C27	C	0.448927	0.000039	-0.203258
C28	C	0.948927	0.500039	0.296742
C29	C	0.506147	0.000026	-0.122665
C30	C	1.006147	0.500026	0.377335
C31	C	0.470062	0.000021	-0.040310
C32	C	0.970062	0.500021	0.459690
C33	C	0.376764	0.000025	-0.038553
C34	C	0.876764	0.500025	0.461447
C35	C	0.664525	0.000010	-0.043977
C36	C	1.164525	0.500010	0.456023
C37	C	0.757831	0.000003	-0.045733
C38	C	1.257831	0.500003	0.454267
C39	C	0.736689	0.000023	-0.208681
C40	C	1.236689	0.500023	0.291319
C41	C	0.643390	0.000027	-0.206924
C42	C	1.143390	0.500027	0.293076
C43	C	0.607312	0.000020	-0.124569
C44	C	1.107312	0.500020	0.375431
N45	N	1.056720	-0.344072	-0.123616
N46	N	1.556720	0.155928	0.376384
C47	C	1.114319	-0.416274	-0.065770
C48	C	1.614319	0.083726	0.434230
C49	C	1.114333	-0.583686	-0.065767
C50	C	1.614333	-0.083686	0.434233
C51	C	1.220252	0.000014	-0.117273
C52	C	1.720252	0.500014	0.382727
C53	C	1.319548	0.000024	-0.119151
C54	C	1.819548	0.500024	0.380849
C55	C	1.063084	0.000001	0.039908
C56	C	1.563084	0.500001	0.539908
C57	C	1.061213	0.000003	0.139205
C58	C	1.561213	0.500003	0.639205
N59	N	1.056745	0.344095	-0.123611
N60	N	1.556745	0.844095	0.376389
C61	C	1.050374	0.000024	-0.287141
C62	C	1.550374	0.500024	0.212859
C63	C	1.052244	0.000033	-0.386438
C64	C	1.552244	0.500033	0.113562
C65	C	1.141802	0.000001	0.196424
C66	C	1.641802	0.500001	0.696424
C67	C	1.140038	0.000016	0.289724
C68	C	1.640038	0.500016	0.789724
C69	C	1.057686	0.000021	0.325802
C70	C	1.557686	0.500021	0.825802
C71	C	0.977091	0.000027	0.268575
C72	C	1.477091	0.500027	0.768575
C73	C	0.978855	0.000023	0.175278
C74	C	1.478855	0.500023	0.675278
C75	C	0.973420	0.000032	0.463038
C76	C	1.473420	0.500032	0.963038
C77	C	0.971656	0.000034	0.556342
C78	C	1.471656	0.500034	1.056342
C79	C	1.134603	0.000025	0.577485
C80	C	1.634603	0.500025	1.077485
C81	C	1.136367	0.000021	0.484187
C82	C	1.636367	0.500021	0.984187
C83	C	1.055772	0.000024	0.426966
C84	C	1.555772	0.500024	0.926966
H85	H	0.596803	0.000028	-0.272550
H86	H	1.096803	0.500028	0.227450
Br87	Br	0.785650	0.000009	-0.320449
Br88	Br	1.285650	0.500009	0.179551
H89	H	0.907791	0.000039	0.416451
H90	H	1.407791	0.500039	0.916451
Br91	Br	1.253572	-0.000027	0.147471
Br92	Br	1.753572	0.499973	0.647471
H93	H	0.309044	0.000032	-0.267128
H94	H	0.809044	0.500032	0.232872
Br95	Br	0.974534	-0.447604	-0.206153
Br96	Br	1.474534	0.052396	0.293847
Br97	Br	0.615563	-0.000008	0.067792
Br98	Br	1.115563	0.499992	0.567792
H99	H	0.347391	0.000021	0.028503
H100	H	0.847391	0.500021	0.528503
Br101	Br	0.865326	0.000059	0.317538
Br102	Br	1.365326	0.500059	0.817538
Br103	Br	1.196271	-0.312743	0.016999
Br104	Br	1.696271	0.187257	0.516999
Br105	Br	0.497887	0.000065	-0.315022
Br106	Br	0.997887	0.500065	0.184978
Br107	Br	0.835486	-0.000006	0.063643
Br108	Br	1.335486	0.499994	0.563643
H109	H	0.516658	0.000020	0.025310
H110	H	1.016658	0.500020	0.525310
H111	H	1.163649	-0.645776	-0.016246
H112	H	1.663649	-0.145776	0.483754
H113	H	0.913232	0.000024	0.128690
H114	H	1.413232	0.500024	0.628690
H115	H	1.007432	-0.593825	-0.173140
H116	H	1.507432	-0.093825	0.326860
H117	H	1.205662	0.000012	0.336309
H118	H	1.705662	0.500012	0.836309
H119	H	1.203426	0.000006	0.454815
H120	H	1.703426	0.500006	0.954815
H121	H	1.200227	0.000028	0.624078
H122	H	1.700227	0.500028	1.124078
H123	H	0.904597	0.000015	0.585714
H124	H	1.404597	0.500015	1.085714
