data_functionalizedCrystal
_audit_creation_method	'MofGen! by Chris Wilmer'
_symmetry_space_group_name_H-M	'P1'
_symmetry_Int_Tables_number	1
_symmetry_cell_setting	triclinic
loop_
_symmetry_equiv_pos_as_xyz
  x,y,z
_cell_length_a	10.654556
_cell_length_b	16.109304
_cell_length_c	9.730223
_cell_angle_alpha	89.998411
_cell_angle_beta	89.998368
_cell_angle_gamma	83.975087
loop_
_atom_site_label
_atom_site_type_symbol
_atom_site_fract_x
_atom_site_fract_y
_atom_site_fract_z
O1	O	1.666252	0.116799	-0.114229
O2	O	1.300623	0.127919	-0.114242
O3	O	1.493480	0.001388	-0.114236
O4	O	1.473395	0.243330	-0.114235
O5	O	1.493468	0.001384	0.114344
O6	O	1.300611	0.127915	0.114338
O7	O	1.666239	0.116795	0.114351
Zn8	Zn	1.483423	0.122355	0.150637
Zn9	Zn	1.483440	0.122359	-0.150527
O10	O	1.473383	0.243326	0.114345
C11	C	1.253831	0.127099	0.000046
C12	C	1.114421	0.124653	0.000041
C13	C	0.917929	0.121211	-0.124547
C14	C	1.048920	0.123504	-0.124556
C15	C	1.048925	0.123500	0.124655
C16	C	0.917938	0.121201	0.124662
C17	C	1.492660	-0.029594	0.000051
C18	C	1.490218	-0.121903	0.000042
C19	C	1.484586	-0.334272	-0.124552
C20	C	1.482281	-0.421006	-0.124551
C21	C	1.482273	-0.421007	0.124659
C22	C	1.484569	-0.334274	0.124657
C23	C	1.485732	-0.290909	0.000047
C24	C	1.481131	-0.464376	0.000051
C25	C	1.478631	-0.558417	0.000053
C26	C	1.488229	-0.196863	0.000044
C27	C	1.713032	0.117615	0.000060
C28	C	1.852442	0.120061	0.000057
C29	C	1.474203	0.274308	0.000055
C30	C	1.476644	0.366617	0.000056
N31	N	1.483421	0.122351	0.356173
N32	N	1.483451	0.122356	-0.356064
C33	C	1.568847	0.066347	0.428102
C34	C	1.568859	0.066347	0.571985
C35	C	1.398017	0.178363	0.571998
C36	C	1.397999	0.178358	0.428117
H37	H	1.102268	0.124431	0.226103
H38	H	0.864617	0.120264	0.226135
H39	H	1.485529	-0.298967	-0.226018
C40	C	1.229132	0.289093	0.442571
C41	C	1.304095	0.239925	0.349042
H42	H	1.171167	0.327100	0.393750
H43	H	1.183986	0.254209	0.498701
H44	H	1.281406	0.319324	0.498677
H45	H	1.251821	0.209688	0.292942
H46	H	1.349244	0.274814	0.292889
H47	H	1.638401	0.020742	0.369528
H48	H	1.485496	-0.298966	0.226126
H49	H	1.481344	-0.456308	-0.226012
H50	H	1.328470	0.223964	0.630589
C51	C	0.931087	0.121440	-0.370880
C52	C	0.845936	0.119949	-0.261511
H53	H	0.886642	0.120655	-0.455436
H54	H	0.972579	0.170730	-0.365701
H55	H	0.991774	0.073936	-0.365686
H56	H	0.785254	0.167457	-0.266699
H57	H	0.804423	0.070654	-0.266693
C58	C	1.182083	0.197435	-0.269131
C59	C	1.120906	0.124773	-0.261523
H60	H	1.226529	0.198213	-0.353689
H61	H	1.121391	0.244927	-0.263950
H62	H	1.239836	0.198435	-0.194920
H63	H	1.063146	0.123776	-0.335728
H64	H	1.181604	0.077268	-0.266717
C65	C	1.478776	-0.553966	0.235319
C66	C	1.481020	-0.468679	0.261626
H67	H	1.478015	-0.583394	0.319881
H68	H	1.405213	-0.562262	0.184142
H69	H	1.551591	-0.574085	0.184113
H70	H	1.408200	-0.448558	0.312824
H71	H	1.554591	-0.460378	0.312825
H72	H	1.638419	0.020743	0.630545
