data_functionalizedCrystal
_audit_creation_method	'MofGen! by Chris Wilmer'
_symmetry_space_group_name_H-M	'P1'
_symmetry_Int_Tables_number	1
_symmetry_cell_setting	triclinic
loop_
_symmetry_equiv_pos_as_xyz
  x,y,z
_cell_length_a	13.897449
_cell_length_b	25.639240
_cell_length_c	25.639233
_cell_angle_alpha	89.974071
_cell_angle_beta	89.985096
_cell_angle_gamma	90.033584
loop_
_atom_site_label
_atom_site_type_symbol
_atom_site_fract_x
_atom_site_fract_y
_atom_site_fract_z
Zn1	Zn	1.474521	-0.208203	-0.295615
Zn2	Zn	1.474396	-0.295622	-0.208168
Zn3	Zn	1.313234	-0.208203	-0.208190
Zn4	Zn	1.313149	-0.295610	-0.295569
O5	O	1.393825	-0.251910	-0.251886
O6	O	1.609486	-0.219804	-0.284025
O7	O	1.453001	-0.284030	-0.135006
O8	O	1.334716	-0.135038	-0.219815
O9	O	1.609394	-0.284030	-0.219778
O10	O	1.453213	-0.135038	-0.284046
O11	O	1.334596	-0.219804	-0.135022
O12	O	1.178241	-0.219794	-0.219771
O13	O	1.334572	-0.284011	-0.368741
O14	O	1.178179	-0.284011	-0.283968
O15	O	1.453131	-0.219793	-0.368774
O16	O	1.452919	-0.368785	-0.219734
O17	O	1.334451	-0.368777	-0.283947
C18	C	1.143211	-0.251902	-0.251867
C19	C	1.035997	-0.251911	-0.251872
C20	C	1.393689	-0.387752	-0.251845
C21	C	1.393719	-0.445866	-0.251845
C22	C	0.948927	-0.251912	-0.251881
C23	C	0.839694	-0.251916	-0.251897
C24	C	1.455557	-0.806191	-0.285391
C25	C	1.455585	-0.860795	-0.285401
O26	O	1.508000	-0.888999	-0.313882
N27	N	1.393959	-0.888149	-0.251936
C28	C	1.332293	-0.860895	-0.218462
O29	O	1.279877	-0.889176	-0.189998
C30	C	1.332260	-0.806292	-0.218454
C31	C	1.393898	-0.778941	-0.251918
C32	C	1.517189	-0.778840	-0.318852
C33	C	1.517161	-0.724239	-0.318841
C34	C	1.455502	-0.696989	-0.285368
C35	C	1.393870	-0.724340	-0.251906
C36	C	1.270590	-0.779039	-0.184983
C37	C	1.270562	-0.724432	-0.184978
C38	C	1.332200	-0.697082	-0.218442
C39	C	1.332184	-0.642490	-0.218422
N40	N	1.393810	-0.615137	-0.251887
C41	C	1.455470	-0.642386	-0.285360
C42	C	1.332365	-0.975566	-0.218481
C43	C	1.332402	-1.030168	-0.218485
C44	C	1.455693	-1.030064	-0.285426
C45	C	1.455660	-0.975461	-0.285418
C46	C	1.393991	-0.948212	-0.251946
C47	C	1.455408	-0.527721	-0.285333
C48	C	1.455378	-0.473116	-0.285318
C49	C	1.332083	-0.473225	-0.218379
C50	C	1.332116	-0.527825	-0.218393
C51	C	1.393782	-0.555072	-0.251874
O52	O	1.279793	-0.614252	-0.189958
O53	O	1.507868	-0.614099	-0.313824
C54	C	1.645418	-0.251918	-0.251904
C55	C	1.752632	-0.251922	-0.251912
C56	C	1.393856	-0.251900	-0.388259
C57	C	1.393869	-0.251896	-0.446373
C58	C	1.393988	-0.115537	-0.251938
C59	C	1.394058	-0.057422	-0.251961
C60	C	1.455681	-0.218359	-0.806759
C61	C	1.455693	-0.218344	-0.861363
O62	O	1.508170	-0.189891	-0.889620
N63	N	1.393976	-0.251774	-0.888655
C64	C	1.332235	-0.285216	-0.861340
O65	O	1.279740	-0.313649	-0.889568
C66	C	1.332219	-0.285228	-0.806737
C67	C	1.393948	-0.251800	-0.779448
C68	C	1.517404	-0.184933	-0.779470
C69	C	1.517393	-0.184949	-0.724869
C70	C	1.455660	-0.218389	-0.697558
C71	C	1.393937	-0.251815	-0.724847
C72	C	1.270475	-0.318667	-0.779423
C73	C	1.270464	-0.318675	-0.724816
C74	C	1.332192	-0.285247	-0.697527
C75	C	1.332192	-0.285271	-0.642935
N76	N	1.393910	-0.251842	-0.615643
C77	C	1.455643	-0.218401	-0.642955
C78	C	1.332273	-0.285189	-0.976011
C79	C	1.332293	-0.285181	-1.030613
C80	C	1.455750	-0.218308	-1.030633
C81	C	1.455734	-0.218319	-0.976029
C82	C	1.393990	-0.251760	-0.948719
C83	C	1.455617	-0.218436	-0.528289
C84	C	1.455603	-0.218456	-0.473684
C85	C	1.332143	-0.285326	-0.473669
C86	C	1.332160	-0.285308	-0.528270
C87	C	1.393900	-0.251859	-0.555579
O88	O	1.279740	-0.313708	-0.614644
O89	O	1.508121	-0.189968	-0.614720
C90	C	1.393850	-0.251881	-0.116043
C91	C	1.394023	-0.251738	-0.057929
H92	H	1.505574	-0.450848	-0.312568
H93	H	1.505615	-0.549899	-0.312601
Cl94	Cl	1.193031	-0.690180	-0.142896
H95	H	1.567349	-0.701973	-0.346091
Cl96	Cl	1.254573	-0.438958	-0.176301
Cl97	Cl	1.254924	-1.064545	-0.176408
H98	H	1.567399	-0.801020	-0.346113
H99	H	1.505873	-0.191234	-0.451468
Cl100	Cl	1.533229	-0.176382	-0.562612
Cl101	Cl	1.533148	-0.941082	-0.327490
H102	H	1.220173	-0.345901	-0.702582
Cl103	Cl	1.533207	-1.064331	-0.327508
H104	H	1.567675	-0.157699	-0.801701
H105	H	1.281904	-0.312533	-0.550490
H106	H	1.220399	-0.801299	-0.157733
Cl107	Cl	1.254837	-0.941316	-0.176393
Cl108	Cl	1.254641	-0.562210	-0.176317
Cl109	Cl	1.254536	-0.327362	-0.439325
Cl110	Cl	1.594992	-0.142919	-0.690571
H111	H	1.282038	-0.312407	-1.052828
H112	H	1.505997	-0.191099	-0.953814
H113	H	1.506014	-0.191077	-1.052879
H114	H	1.281993	-0.312423	-0.953778
H115	H	1.220209	-0.345888	-0.801632
