data_functionalizedCrystal
_audit_creation_method	'MofGen! by Chris Wilmer'
_symmetry_space_group_name_H-M	'P1'
_symmetry_Int_Tables_number	1
_symmetry_cell_setting	triclinic
loop_
_symmetry_equiv_pos_as_xyz
  x,y,z
_cell_length_a	8.597340
_cell_length_b	15.625429
_cell_length_c	7.681481
_cell_angle_alpha	66.294962
_cell_angle_beta	103.474906
_cell_angle_gamma	87.149238
loop_
_atom_site_label
_atom_site_type_symbol
_atom_site_fract_x
_atom_site_fract_y
_atom_site_fract_z
O1	O	2.091622	0.129494	0.088236
O2	O	1.626614	0.144414	0.008157
O3	O	1.880462	0.000643	0.138470
O4	O	1.837774	0.273265	-0.042078
O5	O	1.911709	-0.017093	0.447393
O6	O	1.657861	0.126678	0.317080
O7	O	2.122869	0.111758	0.397159
Zn8	Zn	1.895326	0.116402	0.406167
Zn9	Zn	1.854157	0.139770	-0.000852
O10	O	1.869021	0.255529	0.266845
C11	C	1.582892	0.134932	0.154006
C12	C	1.406065	0.133090	0.128353
C13	C	1.897252	-0.043111	0.315380
C14	C	1.900709	-0.147059	0.382265
C15	C	1.826877	-0.440598	-0.239666
C16	C	1.830124	-0.538277	-0.176761
C17	C	1.864188	-0.557597	0.160005
C18	C	1.860952	-0.459919	0.097130
C19	C	1.842294	-0.401427	-0.102709
C20	C	1.876369	-0.420748	0.234088
C21	C	1.873124	-0.323078	0.171215
C22	C	1.854462	-0.264579	-0.028616
C23	C	1.839049	-0.303757	-0.165582
C24	C	1.895015	-0.479241	0.433923
C25	C	1.910432	-0.440070	0.570880
C26	C	1.907198	-0.342399	0.508011
C27	C	1.888537	-0.283900	0.308180
C28	C	1.922612	-0.303221	0.644976
C29	C	1.919367	-0.205551	0.582103
C30	C	1.885292	-0.186230	0.245307
C31	C	2.166590	0.121241	0.251305
C32	C	2.343416	0.123083	0.276946
C33	C	1.852230	0.299283	0.089931
C34	C	1.848772	0.403232	0.023034
N35	N	1.923435	0.100454	0.683950
N36	N	1.826061	0.155711	-0.278628
H37	H	1.870114	-0.138603	0.082582
C38	C	1.813119	-0.581357	-0.327452
N39	N	1.800290	-0.613803	-0.440954
H40	H	1.851804	-0.185049	-0.079807
H41	H	1.425060	0.115917	0.423800
C42	C	1.691768	0.231903	0.550760
N43	N	1.590614	0.289291	0.422242
C44	C	1.884705	-0.621949	0.379821
N45	N	1.900162	-0.670418	0.545391
H46	H	1.925617	-0.487707	0.733589
C47	C	1.943113	-0.367574	0.864788
N48	N	1.958553	-0.416044	1.030353
C49	C	1.806360	-0.376251	-0.459498
N50	N	1.790903	-0.327785	-0.625070
H51	H	1.931887	-0.173655	0.693622
C52	C	2.057734	0.024257	0.854573
N53	N	2.158885	-0.033135	0.983088
C54	C	1.295764	0.142765	-0.070052
N55	N	1.212683	0.150053	-0.219489
C56	C	1.818532	-0.239410	-0.385414
N57	N	1.803075	-0.190944	-0.550985
H58	H	1.897639	-0.558768	0.485104
