data_functionalizedCrystal
_audit_creation_method	'MofGen! by Chris Wilmer'
_symmetry_space_group_name_H-M	'P1'
_symmetry_Int_Tables_number	1
_symmetry_cell_setting	triclinic
loop_
_symmetry_equiv_pos_as_xyz
  x,y,z
_cell_length_a	10.540539
_cell_length_b	11.892095
_cell_length_c	12.837942
_cell_angle_alpha	85.697431
_cell_angle_beta	90.322784
_cell_angle_gamma	86.063735
loop_
_atom_site_label
_atom_site_type_symbol
_atom_site_fract_x
_atom_site_fract_y
_atom_site_fract_z
O1	O	1.709268	-0.093949	-0.139649
O2	O	1.341370	-0.093963	-0.153424
O3	O	1.517161	-0.093949	0.004426
O4	O	1.533478	-0.093962	-0.297499
O5	O	1.502501	0.094057	-0.008715
O6	O	1.326711	0.094044	-0.166565
O7	O	1.694609	0.094058	-0.152790
Zn8	Zn	1.508332	0.123901	-0.161764
Zn9	Zn	1.527647	-0.123806	-0.144450
O10	O	1.518818	0.094044	-0.310640
C11	C	1.286624	0.000039	-0.158961
C12	C	1.145337	0.000034	-0.155870
N13	N	1.495160	0.292954	-0.173579
C14	C	1.504320	0.000053	0.036517
C15	C	1.487882	0.000051	0.151716
C16	C	0.948862	0.000478	-0.037458
C17	C	1.095859	0.000042	-0.040561
C18	C	1.098132	-0.107325	-0.203858
C19	C	0.951161	-0.107404	-0.199917
C20	C	0.934260	0.106395	-0.217206
C21	C	1.081249	0.107802	-0.218367
C22	C	1.749355	0.000054	-0.147252
C23	C	1.890643	0.000051	-0.150343
N24	N	1.540828	-0.292859	-0.132626
C25	C	1.632482	0.529612	-0.050349
C26	C	1.623284	0.647953	-0.058616
C27	C	1.467562	0.647979	-0.198373
C28	C	1.476759	0.529638	-0.190107
C29	C	1.559223	0.470459	-0.116093
C30	C	1.568426	0.352115	-0.107832
C31	C	1.412698	0.352144	-0.247584
C32	C	1.403500	0.470485	-0.255851
C33	C	1.531660	0.000039	-0.342731
C34	C	1.548098	0.000034	-0.457929
C35	C	1.685501	0.000035	0.391213
C36	C	1.670062	0.000032	0.499453
C37	C	1.441566	0.000035	0.476440
C38	C	1.457005	0.000038	0.368200
C39	C	1.578976	0.000039	0.325590
C40	C	1.594414	0.000050	0.217347
C41	C	1.365919	0.000045	0.194337
C42	C	1.350480	0.000042	0.302577
H43	H	1.127675	0.077002	-0.002277
F44	F	1.720258	0.466629	0.028411
F45	F	1.315737	0.533478	-0.334615
F46	F	0.897105	0.101115	0.015050
F47	F	1.334734	0.289177	-0.317562
H48	H	1.400412	0.696179	-0.258626
F49	F	0.884419	0.107339	-0.326135
F50	F	1.724224	0.000058	0.172000
H51	H	1.114206	0.114280	-0.302888
H52	H	1.784814	0.000047	0.356519
F53	F	1.783441	0.000024	0.569291
F54	F	0.900864	-0.113778	-0.307863
H55	H	1.342263	0.000022	0.511153
H56	H	1.130100	-0.111324	-0.288258
F57	F	1.656195	0.289135	-0.029065
F58	F	1.701254	0.710905	0.011360
H59	H	0.919641	-0.076083	0.013254
F60	F	1.220677	0.000032	0.347937
H61	H	1.138784	-0.077047	0.008798
F62	F	0.916573	-0.212293	-0.138978
H63	H	1.279178	0.000057	0.140894
F64	F	0.879380	0.212762	-0.175863
H65	H	1.111564	0.187226	-0.183380
H66	H	1.142715	-0.187221	-0.159725
