data_functionalizedCrystal
_audit_creation_method	'MofGen! by Chris Wilmer'
_symmetry_space_group_name_H-M	'P1'
_symmetry_Int_Tables_number	1
_symmetry_cell_setting	triclinic
loop_
_symmetry_equiv_pos_as_xyz
  x,y,z
_cell_length_a	19.188933
_cell_length_b	19.188930
_cell_length_c	15.500215
_cell_angle_alpha	93.196573
_cell_angle_beta	93.190207
_cell_angle_gamma	83.145175
loop_
_atom_site_label
_atom_site_type_symbol
_atom_site_fract_x
_atom_site_fract_y
_atom_site_fract_z
O1	O	0.929030	0.090059	0.071926
O2	O	0.725719	0.101793	0.071935
O3	O	0.833241	-0.005730	0.071913
O4	O	0.821508	0.197582	0.071948
O5	O	0.827458	-0.011506	-0.071977
O6	O	0.719937	0.096017	-0.071955
O7	O	0.923247	0.084284	-0.071964
Cu8	Cu	0.821064	0.089623	-0.085098
Cu9	Cu	0.827902	0.096453	0.085069
O10	O	0.815726	0.191807	-0.071942
C11	C	0.696817	0.098525	-0.000009
C12	C	0.619313	0.097384	-0.000006
C13	C	0.829969	-0.034629	-0.000034
C14	C	0.828828	-0.112134	-0.000042
C15	C	0.069209	0.092386	0.078418
C16	C	0.142033	0.093454	0.078421
C17	C	0.175298	0.090844	-0.000013
C18	C	0.135735	0.087146	-0.078456
C19	C	0.062913	0.086071	-0.078458
N20	N	0.281972	0.129919	-0.058388
N21	N	0.351150	0.130942	-0.058381
C22	C	0.394707	0.094081	-0.000014
N23	N	0.366471	0.056168	0.058360
N24	N	0.297287	0.055148	0.058356
C25	C	0.254261	0.092009	-0.000020
C26	C	0.513226	0.098932	0.078429
C27	C	0.586052	0.099996	0.078429
C28	C	0.579752	0.093694	-0.078451
C29	C	0.506928	0.092624	-0.078449
C30	C	0.473669	0.095246	-0.000007
C31	C	0.891919	-0.157058	-0.000049
C32	C	0.890848	-0.229881	-0.000035
C33	C	0.826682	-0.257778	-0.000031
C34	C	0.763583	-0.212844	-0.000019
C35	C	0.764657	-0.140022	-0.000024
N36	N	0.775667	-0.367749	-0.048997
N37	N	0.774652	-0.436927	-0.048994
C38	C	0.823445	-0.477186	-0.000013
N39	N	0.873301	-0.445655	0.048953
N40	N	0.874319	-0.376470	0.048946
C41	C	0.825511	-0.336740	-0.000025
C42	C	0.885378	-0.601073	-0.000004
C43	C	0.884305	-0.673897	0.000015
C44	C	0.757038	-0.656859	0.000022
C45	C	0.758114	-0.584037	0.000011
C46	C	0.822285	-0.556148	-0.000006
C47	C	0.952150	0.087552	-0.000018
C48	C	1.029654	0.088693	-0.000015
C49	C	0.818997	0.220706	0.000007
C50	C	0.820138	0.298211	0.000020
N51	N	0.816259	0.084819	-0.204784
C52	C	0.856657	0.125246	-0.250052
C53	C	0.853032	0.121608	-0.340625
C54	C	0.809007	0.077546	-0.385929
C55	C	0.768608	0.037114	-0.340655
C56	C	0.772236	0.040749	-0.250083
C57	C	0.795942	0.064455	-0.659399
C58	C	0.792315	0.060825	-0.749978
C59	C	0.876741	0.145318	-0.749941
C60	C	0.880363	0.148952	-0.659367
C61	C	0.839967	0.108517	-0.614101
C62	C	0.805299	0.073828	-0.478510
C63	C	0.843678	0.112232	-0.521522
N64	N	0.832712	0.101252	0.204755
H65	H	0.174244	0.096466	0.142293
H66	H	0.937631	-0.578366	-0.000014
C67	C	0.487180	0.026920	-0.212170
C68	C	0.463448	0.088573	-0.164669
H69	H	0.460340	0.024421	-0.265404
H70	H	0.481982	-0.012660	-0.179949
H71	H	0.535312	0.027194	-0.223384
H72	H	0.415317	0.088296	-0.153450
H73	H	0.468639	0.128163	-0.196898
C74	C	0.443012	0.041378	0.169431
C75	C	0.476664	0.101806	0.164649
H76	H	0.420439	0.043156	0.222658
H77	H	0.476736	0.000966	0.166168
H78	H	0.409029	0.039038	0.122714
H79	H	0.510650	0.104143	0.211363
H80	H	0.442936	0.142229	0.167921
C81	C	0.222015	0.024700	-0.169464
C82	C	0.172299	0.084277	-0.164672
H83	H	0.244589	0.022930	-0.222690
H84	H	0.199186	-0.016288	-0.166212
H85	H	0.255992	0.027061	-0.122744
H86	H	0.138318	0.081914	-0.211388
H87	H	0.195128	0.125276	-0.167932
H88	H	0.030707	0.083066	-0.142329
C89	C	1.010207	-0.683421	-0.000016
C90	C	0.953659	-0.723282	0.000005
H91	H	1.053023	-0.713911	-0.000028
H92	H	1.010001	-0.652642	0.050155
H93	H	1.005951	-0.656684	-0.050200
H94	H	0.957912	-0.750015	0.050193
H95	H	0.953867	-0.754072	-0.050172
C96	C	-0.000997	0.034829	0.169418
C97	C	0.032648	0.095260	0.164637
H98	H	-0.023573	0.036606	0.222644
H99	H	0.032731	-0.005580	0.166159
H100	H	-0.034977	0.032484	0.122699
H101	H	0.066632	0.097602	0.211353
H102	H	-0.001084	0.135680	0.167905
C103	C	0.709235	-0.022341	-0.740915
C104	C	0.743922	0.012384	-0.799775
H105	H	0.679363	-0.052246	-0.771659
H106	H	0.681940	0.011276	-0.705586
H107	H	0.742879	-0.049611	-0.705589
H108	H	0.710278	0.039658	-0.835097
H109	H	0.771218	-0.021237	-0.835118
H110	H	0.706738	-0.547458	0.000012
H111	H	0.763049	0.031530	-0.622554
C112	C	0.688415	-0.043126	-0.259211
C113	C	0.727827	-0.003686	-0.200322
H114	H	0.660997	-0.070557	-0.228489
H115	H	0.719218	-0.073232	-0.294536
H116	H	0.658292	-0.012333	-0.294536
H117	H	0.757955	-0.034479	-0.165000
H118	H	0.697021	0.026422	-0.164981
H119	H	0.711339	-0.235562	-0.000014
C120	C	0.923394	0.192055	-0.520513
C121	C	0.928748	0.197395	-0.609570
H122	H	0.953258	0.221970	-0.489772
H123	H	0.937120	0.144854	-0.505676
H124	H	0.876173	0.205731	-0.505692
H125	H	0.975969	0.183713	-0.624393
H126	H	0.915026	0.244606	-0.624413
H127	H	0.892503	0.161130	-0.213171
C128	C	0.588767	0.148659	-0.212160
C129	C	0.616308	0.090822	-0.164669
H130	H	0.611336	0.146879	-0.265391
H131	H	0.596552	0.190828	-0.179929
H132	H	0.539735	0.147485	-0.223380
H133	H	0.665339	0.091999	-0.153444
H134	H	0.608528	0.048642	-0.196908
H135	H	0.618258	0.102998	0.142301
C136	C	0.651210	-0.661774	0.074001
C137	C	0.686504	-0.687514	0.000030
H138	H	0.607667	-0.680705	0.074009
H139	H	0.642822	-0.611980	0.073989
H140	H	0.679204	-0.675190	0.124171
H141	H	0.658513	-0.674093	-0.050141
H142	H	0.694890	-0.737319	0.000034
C143	C	0.963988	-0.088031	-0.074027
C144	C	0.962455	-0.126402	-0.000057
H145	H	1.007536	-0.069108	-0.074031
H146	H	0.926570	-0.050854	-0.074019
H147	H	0.958907	-0.118113	-0.124198
H148	H	0.967531	-0.096319	0.050115
H149	H	0.999883	-0.163583	-0.000057
C150	C	1.016752	-0.239416	-0.000065
C151	C	0.960201	-0.279273	-0.000049
H152	H	1.059567	-0.269909	-0.000079
H153	H	1.016548	-0.208641	0.050110
H154	H	1.012499	-0.212676	-0.050246
H155	H	0.964452	-0.306010	0.050136
H156	H	0.960407	-0.310061	-0.050228
H157	H	0.769453	0.037953	-0.515407
C158	C	0.638753	-0.130497	-0.000018
C159	C	0.695302	-0.090637	-0.000025
H160	H	0.595936	-0.100007	-0.000025
H161	H	0.642996	-0.157228	0.050161
H162	H	0.638969	-0.161281	-0.050194
H163	H	0.695089	-0.059856	0.050155
H164	H	0.691057	-0.063894	-0.050209
H165	H	0.885929	0.154527	-0.377478
H166	H	0.909630	0.178237	-0.786807
H167	H	0.732765	0.001235	-0.377549
H168	H	0.879526	0.148104	-0.484632
