data_functionalizedCrystal
_audit_creation_method	'MofGen! by Chris Wilmer'
_symmetry_space_group_name_H-M	'P1'
_symmetry_Int_Tables_number	1
_symmetry_cell_setting	triclinic
loop_
_symmetry_equiv_pos_as_xyz
  x,y,z
_cell_length_a	15.995300
_cell_length_b	14.853568
_cell_length_c	13.330367
_cell_angle_alpha	90.002939
_cell_angle_beta	90.006615
_cell_angle_gamma	96.446503
loop_
_atom_site_label
_atom_site_type_symbol
_atom_site_fract_x
_atom_site_fract_y
_atom_site_fract_z
O1	O	1.111148	-0.115986	0.083450
O2	O	0.867384	-0.130383	0.083443
O3	O	0.995777	0.008055	0.083452
O4	O	0.982755	-0.254425	0.083441
O5	O	0.995764	0.008051	-0.083396
O6	O	0.867370	-0.130388	-0.083405
O7	O	1.111135	-0.115990	-0.083397
Cu8	Cu	0.989251	-0.123189	-0.098635
Cu9	Cu	0.989267	-0.123184	0.098681
O10	O	0.982742	-0.254429	-0.083406
C11	C	0.836181	-0.129798	0.000018
C12	C	0.743226	-0.128038	0.000016
C13	C	0.573039	-0.124787	0.000024
C14	C	0.525688	-0.223358	0.000018
C15	C	0.428999	-0.221560	0.000399
C16	C	0.405479	-0.121587	0.000030
C17	C	0.446562	-0.072680	0.095122
C18	C	0.543199	-0.075174	0.095199
C19	C	0.543461	-0.073720	-0.094543
C20	C	0.446517	-0.073729	-0.095791
C21	C	0.310782	-0.119773	0.000037
C22	C	0.667737	-0.126597	0.000024
C23	C	0.995180	0.041641	0.000031
C24	C	0.993412	0.141722	0.000042
C25	C	1.142338	-0.116575	0.000029
C26	C	1.235292	-0.118336	0.000038
N27	N	0.989246	-0.123192	-0.237417
C28	C	0.909668	0.554126	0.000026
C29	C	1.062202	0.575642	0.000031
C30	C	1.063865	0.481611	0.000036
C31	C	0.988428	0.423833	0.000034
C32	C	0.911328	0.460086	0.000028
C33	C	1.140963	0.445351	0.000032
C34	C	1.142629	0.351315	0.000035
C35	C	1.067191	0.293535	0.000041
C36	C	0.990088	0.329793	0.000036
C37	C	0.914652	0.272015	0.000034
C38	C	0.837548	0.308271	0.000036
C39	C	0.835890	0.402306	0.000033
C40	C	1.068849	0.199500	0.000043
C41	C	0.916312	0.177975	0.000035
C42	C	0.983338	0.711986	0.000020
C43	C	0.985105	0.611904	0.000028
C44	C	0.932386	-0.184474	-0.289946
C45	C	1.046112	-0.061907	-0.289916
C46	C	1.046120	-0.061903	-0.394934
C47	C	0.989260	-0.123185	-0.447463
C48	C	0.932391	-0.184470	-0.394974
C49	C	1.102982	-0.000613	-0.447431
C50	C	1.102993	-0.000606	-0.552456
C51	C	1.046136	-0.061893	-0.604987
C52	C	0.989265	-0.123181	-0.552491
C53	C	0.932405	-0.184463	-0.605021
C54	C	0.875538	-0.245757	-0.552527
C55	C	0.875534	-0.245757	-0.447505
C56	C	1.046139	-0.061893	-0.710009
C57	C	0.932410	-0.184460	-0.710049
N58	N	0.989279	-0.123174	0.237462
H59	H	0.561564	-0.110418	0.166549
H60	H	1.149273	0.049286	-0.404658
H61	H	0.776127	0.261216	0.000028
H62	H	0.773117	0.431835	0.000034
H63	H	0.418222	-0.106206	0.166153
H64	H	0.886110	-0.234366	-0.752812
H65	H	0.419213	-0.109443	-0.166141
H66	H	1.202380	0.492400	0.000024
Cl67	Cl	1.239557	0.305744	0.000049
Cl68	Cl	0.812742	0.599703	0.000039
Cl69	Cl	0.804053	-0.322788	-0.618575
Cl70	Cl	1.165770	0.153923	0.000022
Cl71	Cl	0.804047	-0.322803	-0.381511
Cl72	Cl	0.385109	-0.280900	-0.104814
Cl73	Cl	0.860902	-0.261529	-0.223960
H74	H	1.123619	0.622691	0.000025
H75	H	1.092402	-0.012008	-0.247143
H76	H	1.149297	0.049301	-0.595190
H77	H	1.092436	-0.011984	-0.752744
H78	H	0.544220	-0.262972	-0.068163
H79	H	0.545348	-0.262379	0.068103
H80	H	0.575388	-0.002793	0.099265
Cl81	Cl	0.424663	0.040734	0.100181
Cl82	Cl	0.386075	-0.280627	0.106254
H83	H	0.563993	-0.106174	-0.166641
Cl84	Cl	0.422700	0.038804	-0.105093
Cl85	Cl	0.592413	0.038477	-0.095967
Cl86	Cl	0.821471	0.105346	0.000041
