data_functionalizedCrystal
_audit_creation_method	'MofGen! by Chris Wilmer'
_symmetry_space_group_name_H-M	'P1'
_symmetry_Int_Tables_number	1
_symmetry_cell_setting	triclinic
loop_
_symmetry_equiv_pos_as_xyz
  x,y,z
_cell_length_a	19.805407
_cell_length_b	19.077068
_cell_length_c	19.805399
_cell_angle_alpha	92.267915
_cell_angle_beta	89.983114
_cell_angle_gamma	92.327086
loop_
_atom_site_label
_atom_site_type_symbol
_atom_site_fract_x
_atom_site_fract_y
_atom_site_fract_z
Zn1	Zn	1.023886	-0.280208	-0.393533
Zn2	Zn	1.273886	-0.030208	-0.143533
Zn3	Zn	1.523886	0.219792	0.106467
Zn4	Zn	1.773886	0.469792	0.356467
Zn5	Zn	1.019256	-0.397910	-0.284888
Zn6	Zn	1.269256	-0.147910	-0.034888
Zn7	Zn	1.519256	0.102090	0.215112
Zn8	Zn	1.769256	0.352090	0.465112
Zn9	Zn	0.910705	-0.280230	-0.280359
Zn10	Zn	1.160705	-0.030230	-0.030359
Zn11	Zn	1.410705	0.219770	0.219641
Zn12	Zn	1.660705	0.469770	0.469641
Zn13	Zn	0.906116	-0.397870	-0.398033
Zn14	Zn	1.156116	-0.147870	-0.148033
Zn15	Zn	1.406116	0.102130	0.101967
Zn16	Zn	1.656116	0.352130	0.351967
O17	O	0.964991	-0.339054	-0.339203
O18	O	1.214991	-0.089054	-0.089203
O19	O	1.464991	0.160946	0.160797
O20	O	1.714991	0.410946	0.410797
O21	O	1.117988	-0.295829	-0.379134
O22	O	1.367988	-0.045829	-0.129134
O23	O	1.617988	0.204171	0.120866
O24	O	1.867988	0.454171	0.370866
O25	O	1.004840	-0.382326	-0.189571
O26	O	1.254840	-0.132326	0.060429
O27	O	1.504840	0.117674	0.310429
O28	O	1.754840	0.367674	0.560429
O29	O	0.929577	-0.181736	-0.291594
O30	O	1.179577	0.068264	-0.041594
O31	O	1.429577	0.318264	0.208406
O32	O	1.679577	0.568264	0.458406
O33	O	1.114587	-0.382304	-0.299312
O34	O	1.364587	-0.132304	-0.049312
O35	O	1.614587	0.117696	0.200688
O36	O	1.864587	0.367696	0.450688
O37	O	1.012730	-0.181720	-0.374742
O38	O	1.262730	0.068280	-0.124742
O39	O	1.512730	0.318280	0.125258
O40	O	1.762730	0.568280	0.375258
O41	O	0.925088	-0.295867	-0.186244
O42	O	1.175088	-0.045867	0.063756
O43	O	1.425088	0.204133	0.313756
O44	O	1.675088	0.454133	0.563756
O45	O	0.815380	-0.295828	-0.295956
O46	O	1.065380	-0.045828	-0.045956
O47	O	1.315380	0.204172	0.204044
O48	O	1.565380	0.454172	0.454044
O49	O	0.921755	-0.382235	-0.492152
O50	O	1.171755	-0.132235	-0.242152
O51	O	1.421755	0.117765	0.007848
O52	O	1.671755	0.367765	0.257848
O53	O	0.812008	-0.382257	-0.382411
O54	O	1.062008	-0.132257	-0.132411
O55	O	1.312008	0.117743	0.117589
O56	O	1.562008	0.367743	0.367589
O57	O	1.008280	-0.295790	-0.488846
O58	O	1.258280	-0.045790	-0.238846
O59	O	1.508280	0.204210	0.011154
O60	O	1.758280	0.454210	0.261154
O61	O	1.000390	-0.496396	-0.303675
O62	O	1.250390	-0.246396	-0.053675
O63	O	1.500390	0.003604	0.196325
O64	O	1.750390	0.253604	0.446325
O65	O	0.917266	-0.496366	-0.386802
O66	O	1.167266	-0.246366	-0.136802
O67	O	1.417266	0.003634	0.113198
O68	O	1.667266	0.253634	0.363198
C69	C	0.789135	-0.339041	-0.339181
C70	C	1.039135	-0.089041	-0.089181
C71	C	1.289135	0.160959	0.160819
C72	C	1.539135	0.410959	0.410819
C73	C	0.713903	-0.339052	-0.339188
C74	C	0.963903	-0.089052	-0.089188
C75	C	1.213903	0.160948	0.160812
C76	C	1.463903	0.410948	0.410812
C77	C	0.676818	-0.384124	-0.384137
C78	C	0.926818	-0.134124	-0.134137
C79	C	1.176818	0.115876	0.115863
C80	C	1.426818	0.365876	0.365863
C81	C	0.606130	-0.384125	-0.384147
C82	C	0.856130	-0.134125	-0.134147
C83	C	1.106130	0.115875	0.115853
C84	C	1.356130	0.365875	0.365853
C85	C	0.572527	-0.339058	-0.339203
C86	C	0.822527	-0.089058	-0.089203
C87	C	1.072527	0.160942	0.160797
C88	C	1.322527	0.410942	0.410797
C89	C	0.609617	-0.293981	-0.294252
C90	C	0.859617	-0.043981	-0.044252
C91	C	1.109617	0.206019	0.205748
C92	C	1.359617	0.456019	0.455748
C93	C	0.680304	-0.293977	-0.294246
C94	C	0.930304	-0.043977	-0.044246
C95	C	1.180304	0.206023	0.205754
C96	C	1.430304	0.456023	0.455754
C97	C	0.324543	-0.293997	-0.294275
C98	C	0.574543	-0.043997	-0.044275
C99	C	0.824543	0.206003	0.205725
C100	C	1.074543	0.456003	0.455725
C101	C	0.253851	-0.294006	-0.294283
C102	C	0.503851	-0.044006	-0.044283
C103	C	0.753851	0.205994	0.205717
C104	C	1.003851	0.455994	0.455717
C105	C	0.250368	-0.384145	-0.384176
C106	C	0.500368	-0.134145	-0.134176
C107	C	0.750368	0.115855	0.115824
C108	C	1.000368	0.365855	0.365824
C109	C	0.321056	-0.384140	-0.384170
C110	C	0.571056	-0.134140	-0.134170
C111	C	0.821056	0.115860	0.115830
C112	C	1.071056	0.365860	0.365830
C113	C	0.358139	-0.339062	-0.339221
C114	C	0.608139	-0.089062	-0.089221
C115	C	0.858139	0.160938	0.160779
C116	C	1.108139	0.410938	0.410779
C117	C	0.434788	-0.339060	-0.339212
C118	C	0.684788	-0.089060	-0.089212
C119	C	0.934788	0.160940	0.160788
C120	C	1.184788	0.410940	0.410788
C121	C	0.495880	-0.339062	-0.339208
C122	C	0.745880	-0.089062	-0.089208
C123	C	0.995880	0.160938	0.160792
C124	C	1.245880	0.410938	0.410792
C125	C	0.957846	-0.521918	-0.346233
C126	C	1.207846	-0.271918	-0.096233
C127	C	1.457846	-0.021918	0.153767
C128	C	1.707846	0.228082	0.403767
C129	C	0.954851	-0.600148	-0.349263
C130	C	1.204851	-0.350148	-0.099263
C131	C	1.454851	-0.100148	0.150737
C132	C	1.704851	0.149852	0.400737
C133	C	0.996756	-0.636893	-0.307442
C134	C	1.246756	-0.386893	-0.057442
C135	C	1.496756	-0.136893	0.192558
C136	C	1.746756	0.113107	0.442558
C137	C	0.993943	-0.710399	-0.310296
C138	C	1.243943	-0.460399	-0.060296
C139	C	1.493943	-0.210399	0.189704
C140	C	1.743943	0.039601	0.439704
C141	C	0.949222	-0.747158	-0.354967
C142	C	1.199222	-0.497158	-0.104967
C143	C	1.449222	-0.247158	0.145033
C144	C	1.699222	0.002842	0.395033
C145	C	0.907315	-0.710408	-0.396793
C146	C	1.157315	-0.460408	-0.146793
C147	C	1.407315	-0.210408	0.103207
C148	C	1.657315	0.039592	0.353207
C149	C	0.910132	-0.636904	-0.393942
C150	C	1.160132	-0.386904	-0.143942
C151	C	1.410132	-0.136904	0.106058
C152	C	1.660132	0.113096	0.356058
C153	C	0.936157	-0.966992	-0.368134
C154	C	1.186157	-0.716992	-0.118134
C155	C	1.436157	-0.466992	0.131866
C156	C	1.686157	-0.216992	0.381866
C157	C	0.933342	-1.040502	-0.370980
C158	C	1.183342	-0.790502	-0.120980
C159	C	1.433342	-0.540502	0.129020
C160	C	1.683342	-0.290502	0.379020
C161	C	1.019971	-1.040487	-0.284484
C162	C	1.269971	-0.790487	-0.034484
C163	C	1.519971	-0.540487	0.215516
C164	C	1.769971	-0.290487	0.465516
C165	C	1.022781	-0.966982	-0.281635
C166	C	1.272781	-0.716982	-0.031635
C167	C	1.522781	-0.466982	0.218365
C168	C	1.772781	-0.216982	0.468365
C169	C	0.980877	-0.930238	-0.323462
C170	C	1.230877	-0.680238	-0.073462
C171	C	1.480877	-0.430238	0.176538
C172	C	1.730877	-0.180238	0.426538
N173	N	0.946344	-0.822292	-0.357884
N174	N	1.196344	-0.572292	-0.107884
N175	N	1.446344	-0.322292	0.142116
N176	N	1.696344	-0.072292	0.392116
N177	N	0.983758	-0.855105	-0.320549
N178	N	1.233758	-0.605105	-0.070549
N179	N	1.483758	-0.355105	0.179451
N180	N	1.733758	-0.105105	0.429451
C181	C	1.141533	-0.339068	-0.339226
C182	C	1.391533	-0.089068	-0.089226
C183	C	1.641533	0.160932	0.160774
C184	C	1.891533	0.410932	0.410774
C185	C	1.216765	-0.339074	-0.339236
C186	C	1.466765	-0.089074	-0.089236
C187	C	1.716765	0.160926	0.160764
C188	C	1.966765	0.410926	0.410764
C189	C	0.965022	-0.339006	-0.515744
C190	C	1.215022	-0.089006	-0.265744
C191	C	1.465022	0.160994	-0.015744
C192	C	1.715022	0.410994	0.234256
C193	C	0.965036	-0.338985	-0.590975
C194	C	1.215036	-0.088985	-0.340975
C195	C	1.465036	0.161015	-0.090975
C196	C	1.715036	0.411015	0.159025
C197	C	0.972182	-0.155476	-0.332161
C198	C	1.222182	0.094524	-0.082161
C199	C	1.472182	0.344524	0.167839
C200	C	1.722182	0.594524	0.417839
C201	C	0.975247	-0.077246	-0.329160
C202	C	1.225247	0.172754	-0.079160
C203	C	1.475247	0.422754	0.170840
C204	C	1.725247	0.672754	0.420840
C205	C	0.923521	-0.293962	-0.624586
C206	C	1.173521	-0.043962	-0.374586
C207	C	1.423521	0.206038	-0.124586
C208	C	1.673521	0.456038	0.125414
C209	C	0.923531	-0.293948	-0.695274
C210	C	1.173531	-0.043948	-0.445274
C211	C	1.423531	0.206052	-0.195274
C212	C	1.673531	0.456052	0.054726
C213	C	0.965059	-0.338954	-0.732350
C214	C	1.215059	-0.088954	-0.482350
C215	C	1.465059	0.161046	-0.232350
C216	C	1.715059	0.411046	0.017650
C217	C	1.006576	-0.383983	-0.698734
C218	C	1.256576	-0.133983	-0.448734
C219	C	1.506576	0.116017	-0.198734
C220	C	1.756576	0.366017	0.051266
C221	C	1.006562	-0.383999	-0.628048
C222	C	1.256562	-0.133999	-0.378048
C223	C	1.506562	0.116001	-0.128048
C224	C	1.756562	0.366001	0.121952
C225	C	1.006632	-0.383917	-0.983805
C226	C	1.256632	-0.133917	-0.733805
C227	C	1.506632	0.116083	-0.483805
C228	C	1.756632	0.366083	-0.233805
C229	C	1.006644	-0.383895	-1.054496
C230	C	1.256644	-0.133895	-0.804496
C231	C	1.506644	0.116105	-0.554496
C232	C	1.756644	0.366105	-0.304496
C233	C	0.923601	-0.293865	-1.051032
C234	C	1.173601	-0.043865	-0.801032
C235	C	1.423601	0.206135	-0.551032
C236	C	1.673601	0.456135	-0.301032
C237	C	0.923587	-0.293882	-0.980345
C238	C	1.173587	-0.043882	-0.730345
C239	C	1.423587	0.206118	-0.480345
C240	C	1.673587	0.456118	-0.230345
C241	C	0.965101	-0.338913	-0.946736
C242	C	1.215101	-0.088913	-0.696736
C243	C	1.465101	0.161087	-0.446736
C244	C	1.715101	0.411087	-0.196736
C245	C	0.965088	-0.338928	-0.870088
C246	C	1.215088	-0.088928	-0.620088
C247	C	1.465088	0.161072	-0.370088
C248	C	1.715088	0.411072	-0.120088
C249	C	0.965076	-0.338936	-0.808996
C250	C	1.215076	-0.088936	-0.558996
C251	C	1.465076	0.161064	-0.308996
C252	C	1.715076	0.411064	-0.058996
C253	C	0.965000	-0.339052	-0.163347
C254	C	1.215000	-0.089052	0.086653
C255	C	1.465000	0.160948	0.336653
C256	C	1.715000	0.410948	0.586653
C257	C	0.965126	-0.338875	-0.088109
C258	C	1.215126	-0.088875	0.161891
C259	C	1.465126	0.161125	0.411891
C260	C	1.715126	0.411125	0.661891
H261	H	0.220166	-0.420847	-0.420778
H262	H	0.470166	-0.170847	-0.170778
H263	H	0.720166	0.079153	0.079222
H264	H	0.970166	0.329153	0.329222
H265	H	0.226494	-0.257303	-0.257684
H266	H	0.476494	-0.007303	-0.007684
H267	H	0.726494	0.242697	0.242316
H268	H	0.976494	0.492697	0.492316
H269	H	0.710498	-0.257272	-0.257647
H270	H	0.960498	-0.007272	-0.007647
H271	H	1.210498	0.242728	0.242353
H272	H	1.460498	0.492728	0.492353
H273	H	1.040385	-0.420631	-0.728927
H274	H	1.290385	-0.170631	-0.478927
H275	H	1.540385	0.079369	-0.228927
H276	H	1.790385	0.329369	0.021073
H277	H	1.054088	-1.070411	-0.250432
H278	H	1.304088	-0.820411	-0.000432
H279	H	1.554088	-0.570411	0.249568
H280	H	1.804088	-0.320411	0.499568
H281	H	0.896932	-1.070429	-0.407369
H282	H	1.146932	-0.820429	-0.157369
H283	H	1.396932	-0.570429	0.092631
H284	H	1.646932	-0.320429	0.342631
H285	H	0.902036	-0.937082	-0.402191
H286	H	1.152036	-0.687082	-0.152191
H287	H	1.402036	-0.437082	0.097809
H288	H	1.652036	-0.187082	0.347809
H289	H	0.870905	-0.740343	-0.433168
H290	H	1.120905	-0.490343	-0.183168
H291	H	1.370905	-0.240343	0.066832
H292	H	1.620905	0.009657	0.316832
H293	H	0.354728	-0.257296	-0.257670
H294	H	0.604728	-0.007296	-0.007670
H295	H	0.854728	0.242704	0.242330
H296	H	1.104728	0.492704	0.492330
H297	H	1.028066	-0.740313	-0.276241
H298	H	1.278066	-0.490313	-0.026241
H299	H	1.528066	-0.240313	0.223759
H300	H	1.778066	0.009687	0.473759
H301	H	1.040427	-0.420591	-0.956449
H302	H	1.290427	-0.170591	-0.706449
H303	H	1.540427	0.079409	-0.456449
H304	H	1.790427	0.329409	-0.206449
H305	H	1.033170	-0.606968	-0.271063
H306	H	1.283170	-0.356968	-0.021063
H307	H	1.533170	-0.106968	0.228937
H308	H	1.783170	0.143032	0.478937
H309	H	0.876009	-0.606987	-0.427997
H310	H	1.126009	-0.356987	-0.177997
H311	H	1.376009	-0.106987	0.072003
H312	H	1.626009	0.143013	0.322003
H313	H	0.582252	-0.257284	-0.257661
H314	H	0.832252	-0.007284	-0.007661
H315	H	1.082252	0.242716	0.242339
H316	H	1.332252	0.492716	0.492339
H317	H	0.889708	-0.257308	-0.594404
H318	H	1.139708	-0.007308	-0.344404
H319	H	1.389708	0.242692	-0.094404
H320	H	1.639708	0.492692	0.155596
H321	H	1.040463	-0.420548	-1.084682
H322	H	1.290463	-0.170548	-0.834682
H323	H	1.540463	0.079452	-0.584682
H324	H	1.790463	0.329452	-0.334682
H325	H	1.059196	-0.937054	-0.245260
H326	H	1.309196	-0.687054	0.004740
H327	H	1.559196	-0.437054	0.254740
H328	H	1.809196	-0.187054	0.504740
H329	H	0.889723	-0.257288	-0.722637
H330	H	1.139723	-0.007288	-0.472637
H331	H	1.389723	0.242712	-0.222637
H332	H	1.639723	0.492712	0.027363
H333	H	0.889773	-0.257230	-0.950162
H334	H	1.139773	-0.007230	-0.700162
H335	H	1.389773	0.242770	-0.450162
H336	H	1.639773	0.492770	-0.200162
H337	H	0.889797	-0.257201	-1.078405
H338	H	1.139797	-0.007201	-0.828405
H339	H	1.389797	0.242799	-0.578405
H340	H	1.639797	0.492799	-0.328405
H341	H	1.040372	-0.420657	-0.600682
H342	H	1.290372	-0.170657	-0.350682
H343	H	1.540372	0.079343	-0.100682
H344	H	1.790372	0.329343	0.149318
H345	H	0.575938	-0.420827	-0.420749
H346	H	0.825938	-0.170827	-0.170749
H347	H	1.075938	0.079173	0.079251
H348	H	1.325938	0.329173	0.329251
H349	H	0.704172	-0.420825	-0.420734
H350	H	0.954172	-0.170825	-0.170734
H351	H	1.204172	0.079175	0.079266
H352	H	1.454172	0.329175	0.329266
H353	H	0.348411	-0.420841	-0.420765
H354	H	0.598411	-0.170841	-0.170765
H355	H	0.848411	0.079159	0.079235
H356	H	1.098411	0.329159	0.329235
