data_functionalizedCrystal
_audit_creation_method	'MofGen! by Chris Wilmer'
_symmetry_space_group_name_H-M	'P1'
_symmetry_Int_Tables_number	1
_symmetry_cell_setting	triclinic
loop_
_symmetry_equiv_pos_as_xyz
  x,y,z
_cell_length_a	16.109301
_cell_length_b	27.731996
_cell_length_c	14.586319
_cell_angle_alpha	89.990257
_cell_angle_beta	89.998857
_cell_angle_gamma	83.041486
loop_
_atom_site_label
_atom_site_type_symbol
_atom_site_fract_x
_atom_site_fract_y
_atom_site_fract_z
O1	O	1.102341	0.062132	-0.076202
O2	O	1.435675	0.395465	0.257131
O3	O	1.769008	0.728799	0.590464
O4	O	0.860181	0.069864	-0.076217
O5	O	1.193515	0.403198	0.257117
O6	O	1.526848	0.736531	0.590450
O7	O	0.988805	-0.004369	-0.076189
O8	O	1.322138	0.328965	0.257144
O9	O	1.655472	0.662298	0.590478
O10	O	0.973718	0.136365	-0.076230
O11	O	1.307051	0.469698	0.257104
O12	O	1.640384	0.803032	0.590437
O13	O	0.988796	-0.004370	0.076292
O14	O	1.322129	0.328963	0.409625
O15	O	1.655463	0.662297	0.742958
O16	O	0.860172	0.069863	0.076264
O17	O	1.193506	0.403196	0.409597
O18	O	1.526839	0.736530	0.742931
O19	O	1.102333	0.062131	0.076279
O20	O	1.435666	0.395464	0.409612
O21	O	1.768999	0.728798	0.742945
Cu22	Cu	0.981252	0.065997	0.090194
Cu23	Cu	1.314585	0.399330	0.423527
Cu24	Cu	1.647918	0.732664	0.756861
Cu25	Cu	0.981262	0.065998	-0.090132
Cu26	Cu	1.314595	0.399332	0.243201
Cu27	Cu	1.647929	0.732665	0.576535
O28	O	0.973709	0.136364	0.076251
O29	O	1.307042	0.469697	0.409584
O30	O	1.640376	0.803031	0.742918
C31	C	0.829206	0.069550	0.000022
C32	C	1.162539	0.402884	0.333356
C33	C	1.495873	0.736217	0.666689
C34	C	0.736923	0.068611	0.000018
C35	C	1.070256	0.401945	0.333351
C36	C	1.403589	0.735278	0.666684
C37	C	0.427404	0.109590	0.000022
C38	C	0.760737	0.442923	0.333355
C39	C	1.094070	0.776257	0.666688
C40	C	0.514113	0.110477	0.000016
C41	C	0.847446	0.443810	0.333350
C42	C	1.180779	0.777143	0.666683
C43	C	0.535105	0.022402	0.000029
C44	C	0.868438	0.355735	0.333363
C45	C	1.201771	0.689068	0.666696
C46	C	0.448397	0.021515	0.000028
C47	C	0.781731	0.354849	0.333362
C48	C	1.115064	0.688182	0.666695
C49	C	0.394549	0.065111	0.000029
C50	C	0.727882	0.398444	0.333363
C51	C	1.061215	0.731778	0.666696
C52	C	0.567965	0.066884	0.000025
C53	C	0.901298	0.400218	0.333358
C54	C	1.234632	0.733551	0.666691
C55	C	0.661979	0.067845	0.000019
C56	C	0.995312	0.401179	0.333352
C57	C	1.328646	0.734512	0.666685
C58	C	0.300529	0.064150	0.000034
C59	C	0.633862	0.397483	0.333367
C60	C	0.967195	0.730817	0.666700
C61	C	0.988490	-0.022378	0.000054
C62	C	1.321824	0.310955	0.333388
C63	C	1.655157	0.644289	0.666721
C64	C	0.987557	-0.076038	0.000064
C65	C	1.320890	0.257295	0.333397
C66	C	1.654224	0.590628	0.666730
C67	C	0.981689	-0.408778	-0.083099
C68	C	1.315022	-0.075445	0.250235
C69	C	1.648355	0.257888	0.583568
C70	C	0.978144	-0.610452	-0.083115
C71	C	1.311477	-0.277118	0.250218
C72	C	1.644810	0.056215	0.583552
O73	O	0.977654	-0.636524	-0.153804
O74	O	1.310987	-0.303190	0.179530
O75	O	1.644320	0.030143	0.512863
N76	N	0.977699	-0.635671	0.000001
N77	N	1.311032	-0.302338	0.333335
N78	N	1.644365	0.030996	0.666668
C79	C	0.978134	-0.610469	0.083128
C80	C	1.311468	-0.277136	0.416461
C81	C	1.644801	0.056198	0.749795
O82	O	0.977666	-0.636547	0.153823
O83	O	1.310999	-0.303213	0.487156
O84	O	1.644333	0.030120	0.820490
C85	C	0.981673	-0.408796	0.083143
C86	C	1.315007	-0.075463	0.416477
C87	C	1.648340	0.257870	0.749810
C88	C	0.982127	-0.383580	0.000021
C89	C	1.315460	-0.050247	0.333355
C90	C	1.648793	0.283087	0.666688
C91	C	0.982141	-0.383562	-0.166214
C92	C	1.315475	-0.050229	0.167119
C93	C	1.648808	0.283105	0.500453
C94	C	0.983032	-0.333147	-0.166209
C95	C	1.316365	0.000186	0.167124
C96	C	1.649699	0.333520	0.500458
C97	C	0.983470	-0.307949	-0.083089
C98	C	1.316803	0.025385	0.250244
C99	C	1.650137	0.358718	0.583578
C100	C	0.983018	-0.333165	0.000026
C101	C	1.316351	0.000168	0.333360
C102	C	1.649684	0.333502	0.666693
C103	C	0.982103	-0.383595	0.166269
C104	C	1.315436	-0.050261	0.499602
C105	C	1.648770	0.283072	0.832935
C106	C	0.982986	-0.333173	0.166265
C107	C	1.316319	0.000160	0.499599
C108	C	1.649652	0.333494	0.832932
C109	C	0.983439	-0.307957	0.083143
C110	C	1.316772	0.025377	0.416477
C111	C	1.650106	0.358710	0.749810
C112	C	0.984346	-0.257552	0.083151
C113	C	1.317680	0.075782	0.416485
C114	C	1.651013	0.409115	0.749818
N115	N	0.984791	-0.232332	0.000035
N116	N	1.318125	0.101001	0.333368
N117	N	1.651458	0.434335	0.666701
C118	C	0.984353	-0.257531	-0.083085
C119	C	1.317687	0.075803	0.250248
C120	C	1.651020	0.409136	0.583581
C121	C	0.976278	-0.716350	0.083114
C122	C	1.309611	-0.383017	0.416447
C123	C	1.642945	-0.049683	0.749781
C124	C	0.975395	-0.766768	0.083110
C125	C	1.308728	-0.433435	0.416444
C126	C	1.642062	-0.100101	0.749777
C127	C	0.975403	-0.766747	-0.083133
C128	C	1.308736	-0.433414	0.250200
C129	C	1.642069	-0.100080	0.583534
C130	C	0.976292	-0.716329	-0.083128
C131	C	1.309625	-0.382995	0.250205
C132	C	1.642959	-0.049662	0.583538
C133	C	0.976723	-0.691130	-0.000003
C134	C	1.310057	-0.357797	0.333331
C135	C	1.643390	-0.024464	0.666664
C136	C	0.986225	-0.151656	-0.083069
C137	C	1.319558	0.181678	0.250265
C138	C	1.652891	0.515011	0.583598
C139	C	0.987119	-0.101237	-0.083056
C140	C	1.320452	0.232097	0.250277
C141	C	1.653786	0.565430	0.583610
C142	C	0.987106	-0.101262	0.083186
C143	C	1.320440	0.232072	0.416520
C144	C	1.653773	0.565405	0.749853
C145	C	0.986217	-0.151677	0.083175
C146	C	1.319550	0.181657	0.416508
C147	C	1.652883	0.514990	0.749841
C148	C	0.985773	-0.176872	0.000040
C149	C	1.319106	0.156461	0.333373
C150	C	1.652440	0.489794	0.666706
O151	O	0.984827	-0.231448	0.153803
O152	O	1.318161	0.101886	0.487136
O153	O	1.651494	0.435219	0.820469
O154	O	0.984803	-0.231443	-0.153770
O155	O	1.318137	0.101890	0.179563
O156	O	1.651470	0.435224	0.512897
C157	C	0.980798	-0.459193	-0.083104
C158	C	1.314131	-0.125860	0.250230
C159	C	1.647465	0.207473	0.583563
C160	C	0.980345	-0.484410	0.000011
C161	C	1.313679	-0.151076	0.333345
C162	C	1.647012	0.182257	0.666678
C163	C	0.980783	-0.459211	0.083132
C164	C	1.314117	-0.125878	0.416465
C165	C	1.647450	0.207455	0.749798
C166	C	0.979462	-0.534828	0.000008
C167	C	1.312795	-0.201495	0.333341
C168	C	1.646129	0.131839	0.666675
C169	C	0.979024	-0.560026	-0.083112
C170	C	1.312357	-0.226693	0.250221
C171	C	1.645691	0.106640	0.583554
C172	C	0.979469	-0.534807	-0.166229
C173	C	1.312802	-0.201473	0.167105
C174	C	1.646136	0.131860	0.500438
C175	C	0.980360	-0.484392	-0.166224
C176	C	1.313693	-0.151059	0.167110
C177	C	1.647026	0.182275	0.500443
C178	C	0.980338	-0.484431	0.166248
C179	C	1.313672	-0.151098	0.499581
C180	C	1.647005	0.182236	0.832915
C181	C	0.979449	-0.534846	0.166236
C182	C	1.312782	-0.201513	0.499570
C183	C	1.646115	0.131821	0.832903
C184	C	0.979010	-0.560044	0.083116
C185	C	1.312344	-0.226711	0.416450
C186	C	1.645677	0.106622	0.749783
C187	C	1.133308	0.062445	0.000038
C188	C	1.466641	0.395778	0.333371
C189	C	1.799975	0.729111	0.666704
C190	C	1.225591	0.063384	0.000036
C191	C	1.558925	0.396717	0.333370
C192	C	1.892258	0.730051	0.666703
C193	C	0.974023	0.154373	0.000006
C194	C	1.307357	0.487707	0.333339
C195	C	1.640690	0.821040	0.666672
C196	C	0.974957	0.208033	-0.000010
C197	C	1.308290	0.541367	0.333324
C198	C	1.641623	0.874700	0.666657
N199	N	0.981250	0.065996	0.217026
N200	N	1.314584	0.399329	0.550359
N201	N	1.647917	0.732662	0.883692
N202	N	0.981270	0.065996	-0.216964
N203	N	1.314603	0.399329	0.116369
N204	N	1.647937	0.732662	0.449703
C205	C	1.038223	0.033136	0.452044
C206	C	1.371557	0.366470	0.785378
C207	C	1.704890	0.699803	1.118711
C208	C	1.038226	0.033135	0.548026
C209	C	1.371559	0.366469	0.881359
C210	C	1.704893	0.699802	1.214692
C211	C	0.924291	0.098857	0.548011
C212	C	1.257624	0.432190	0.881344
C213	C	1.590958	0.765523	1.214677
C214	C	0.924285	0.098855	0.452031
C215	C	1.257619	0.432188	0.785365
C216	C	1.590952	0.765522	1.118698
C217	C	0.981256	0.065996	0.404051
C218	C	1.314589	0.399329	0.737384
C219	C	1.647923	0.732662	1.070717
C220	C	0.981264	0.065996	0.596011
C221	C	1.314598	0.399329	0.929345
C222	C	1.647931	0.732663	1.262678
C223	C	0.981266	0.065995	0.700078
C224	C	1.314600	0.399328	1.033412
C225	C	1.647933	0.732662	1.366745
C226	C	0.981253	0.065996	0.299977
C227	C	1.314586	0.399329	0.633310
C228	C	1.647920	0.732662	0.966643
H229	H	0.540858	0.146696	0.000009
H230	H	0.874192	0.480029	0.333343
H231	H	1.207525	0.813363	0.666676
O232	O	0.412953	-0.026461	0.000035
O233	O	0.746287	0.306872	0.333368
O234	O	1.079620	0.640206	0.666702
H235	H	0.373943	-0.028970	0.062179
H236	H	0.707277	0.304363	0.395513
H237	H	1.040610	0.637696	0.728846
O238	O	0.976748	-0.689175	0.172776
O239	O	1.310082	-0.355841	0.506110
O240	O	1.643415	-0.022508	0.839443
H241	H	1.033836	-0.670522	0.176756
H242	H	1.367170	-0.337189	0.510089
H243	H	1.700503	-0.003855	0.843423
O244	O	0.593183	-0.024618	0.000047
O245	O	0.926516	0.308715	0.333381
O246	O	1.259849	0.642048	0.666714
H247	H	0.658996	-0.016530	0.000060
H248	H	0.992330	0.316803	0.333393
H249	H	1.325663	0.650136	0.666726
H250	H	0.985859	-0.172164	-0.150765
H251	H	1.319192	0.161170	0.182568
H252	H	1.652526	0.494503	0.515902
H253	H	0.987490	-0.080708	-0.150747
H254	H	1.320823	0.252625	0.182586
H255	H	1.654157	0.585959	0.515919
H256	H	0.877892	0.125613	0.412952
H257	H	1.211225	0.458946	0.746285
H258	H	1.544558	0.792280	1.079619
O259	O	0.974908	-0.793935	-0.172780
O260	O	1.308241	-0.460601	0.160553
O261	O	1.641575	-0.127268	0.493887
H262	H	0.918384	-0.779931	-0.212624
H263	H	1.251717	-0.446597	0.120710
H264	H	1.585050	-0.113264	0.454043
H265	H	0.983398	-0.312620	-0.233895
H266	H	1.316731	0.020713	0.099438
H267	H	1.650065	0.354046	0.432771
H268	H	0.981781	-0.404073	-0.233904
H269	H	1.315115	-0.070740	0.099429
H270	H	1.648448	0.262594	0.432763
O271	O	0.978957	-0.562042	0.255895
O272	O	1.312291	-0.228709	0.589228
O273	O	1.645624	0.104625	0.922561
H274	H	0.979403	-0.536044	0.313689
H275	H	1.312736	-0.202711	0.647022
H276	H	1.646069	0.130623	0.980356
H277	H	0.975038	-0.787296	0.150797
H278	H	1.308372	-0.453963	0.484130
H279	H	1.641705	-0.120629	0.817463
H280	H	1.084612	0.006379	0.412981
H281	H	1.417945	0.339713	0.746314
H282	H	1.751278	0.673046	1.079647
H283	H	0.383562	0.145088	0.000022
H284	H	0.716895	0.478422	0.333355
H285	H	1.050229	0.811755	0.666689
O286	O	0.980826	-0.457256	0.255903
O287	O	1.314160	-0.123923	0.589236
O288	O	1.647493	0.209410	0.922570
H289	H	0.980377	-0.483268	0.313691
H290	H	1.313710	-0.149935	0.647024
H291	H	1.647044	0.183398	0.980357
O292	O	0.980837	-0.457201	-0.255882
O293	O	1.314171	-0.123867	0.077451
O294	O	1.647504	0.209466	0.410785
H295	H	1.037931	-0.438553	-0.259871
H296	H	1.371265	-0.105220	0.073463
H297	H	1.704598	0.228114	0.406796
O298	O	0.976767	-0.689130	-0.172779
O299	O	1.310100	-0.355797	0.160554
O300	O	1.643433	-0.022464	0.493887
H301	H	0.976307	-0.715127	-0.230573
H302	H	1.309640	-0.381794	0.102760
H303	H	1.642974	-0.048461	0.436093
O304	O	1.099679	-0.002299	0.599794
O305	O	1.433012	0.331034	0.933128
O306	O	1.766345	0.664367	1.266461
H307	H	1.139297	-0.025143	0.550302
H308	H	1.472630	0.308190	0.883635
H309	H	1.805963	0.641523	1.216969
O310	O	0.981605	-0.410785	0.255922
O311	O	1.314939	-0.077451	0.589256
O312	O	1.648272	0.255882	0.922589
H313	H	0.982046	-0.384784	0.313712
H314	H	1.315379	-0.051450	0.647045
H315	H	1.648713	0.281883	0.980378
H316	H	0.983324	-0.312658	0.233958
H317	H	1.316658	0.020675	0.567291
H318	H	1.649991	0.354008	0.900625
H319	H	0.985855	-0.172210	0.150859
H320	H	1.319188	0.161124	0.484193
H321	H	1.652522	0.494457	0.817526
O322	O	0.862857	0.134304	0.599760
O323	O	1.196191	0.467638	0.933093
O324	O	1.529524	0.800971	1.266427
H325	H	0.822723	0.113955	0.643511
H326	H	1.156057	0.447289	0.976844
H327	H	1.489390	0.780622	1.310178
O328	O	0.987578	-0.074079	0.172836
O329	O	1.320911	0.259254	0.506169
O330	O	1.654245	0.592587	0.839503
H331	H	0.988264	-0.034785	0.158867
H332	H	1.321597	0.298549	0.492200
H333	H	1.654930	0.631882	0.825533
O334	O	0.978989	-0.561989	-0.255883
O335	O	1.312323	-0.228655	0.077450
O336	O	1.645656	0.104678	0.410783
H337	H	0.978287	-0.601282	-0.241912
H338	H	1.311620	-0.267948	0.091422
H339	H	1.644953	0.065385	0.424755
