data_functionalizedCrystal
_audit_creation_method	'MofGen! by Chris Wilmer'
_symmetry_space_group_name_H-M	'P1'
_symmetry_Int_Tables_number	1
_symmetry_cell_setting	triclinic
loop_
_symmetry_equiv_pos_as_xyz
  x,y,z
_cell_length_a	12.759401
_cell_length_b	12.759400
_cell_length_c	12.759393
_cell_angle_alpha	90.031564
_cell_angle_beta	90.020120
_cell_angle_gamma	90.010654
loop_
_atom_site_label
_atom_site_type_symbol
_atom_site_fract_x
_atom_site_fract_y
_atom_site_fract_z
Zn1	Zn	-1.606255	0.418317	-0.594027
Zn2	Zn	-1.606150	0.594036	-0.418347
Zn3	Zn	-1.430557	0.418359	-0.418361
Zn4	Zn	-1.430546	0.593942	-0.593983
O5	O	-1.518377	0.506164	-0.506180
O6	O	-1.753262	0.441648	-0.570735
O7	O	-1.582818	0.570789	-0.271328
O8	O	-1.453913	0.271333	-0.441688
O9	O	-1.753185	0.570748	-0.441663
O10	O	-1.582998	0.271302	-0.570749
O11	O	-1.453811	0.441720	-0.271338
O12	O	-1.283535	0.441629	-0.441646
O13	O	-1.453894	0.570589	-0.741010
O14	O	-1.283527	0.570629	-0.570675
O15	O	-1.582987	0.441557	-0.741042
O16	O	-1.582807	0.741045	-0.441621
O17	O	-1.453791	0.740976	-0.570661
C18	C	-1.245410	0.506125	-0.506158
C19	C	-1.128633	0.506133	-0.506173
C20	C	-1.073805	0.439035	-0.573483
C21	C	-0.964081	0.439049	-0.573487
C22	C	-0.964023	0.573269	-0.438867
C23	C	-1.073745	0.573249	-0.438859
C24	C	-1.073837	0.361547	-0.651208
C25	C	-0.964113	0.361561	-0.651212
C26	C	-1.518315	0.779131	-0.506158
C27	C	-1.518384	0.895908	-0.506183
C28	C	-1.518451	0.506058	-0.780213
C29	C	-1.518482	0.506013	-0.896990
C30	C	-0.792410	0.506191	-0.506195
C31	C	-0.909187	0.506168	-0.506185
C32	C	-1.518468	0.232131	-0.506225
C33	C	-1.518507	0.115354	-0.506244
C34	C	-1.585637	0.950771	-0.439067
C35	C	-1.585702	1.060495	-0.439099
C36	C	-1.451252	1.060483	-0.573368
C37	C	-1.451193	0.950761	-0.573340
C38	C	-1.663258	0.950778	-0.361545
C39	C	-1.663322	1.060502	-0.361577
C40	C	-1.585710	0.438820	-0.951870
C41	C	-1.585735	0.438782	-1.061594
C42	C	-1.451301	0.573139	-1.061548
C43	C	-1.451272	0.573171	-0.951826
C44	C	-1.663328	0.361253	-0.951898
C45	C	-1.663353	0.361215	-1.061622
C46	C	-1.518364	0.506194	-0.233212
C47	C	-1.518537	0.505943	-0.116436
H48	H	-1.103604	0.280145	-0.629555
H49	H	-1.634239	0.283904	-1.095669
H50	H	-0.919320	0.627912	-0.384063
C51	C	-1.633911	0.251336	-0.911693
N52	N	-1.611752	0.168549	-0.881411
H53	H	-1.107902	0.390781	-0.728447
C54	C	-1.767728	0.400636	-0.905914
N55	N	-1.846366	0.430294	-0.871279
C56	C	-1.773275	0.390674	-1.101859
N57	N	-1.856065	0.412865	-1.132165
H58	H	-1.641585	1.090363	-0.280196
H59	H	-1.396579	0.627814	-1.106209
C60	C	-1.134053	0.647051	-0.364803
N61	N	-1.179477	0.702642	-0.309020
C62	C	-0.918119	0.257093	-0.612038
N63	N	-0.883474	0.178410	-0.582534
C64	C	-1.377260	0.890416	-0.647223
N65	N	-1.321585	0.844964	-0.702890
H66	H	-0.934368	0.383455	-0.732547
C67	C	-1.767756	1.106373	-0.401039
N68	N	-1.846413	1.140924	-0.430760
C69	C	-1.377338	1.120832	-0.647229
N70	N	-1.321662	1.166286	-0.702860
H71	H	-1.744601	0.920926	-0.383399
C72	C	-1.623889	0.904909	-0.257090
N73	N	-1.594225	0.870360	-0.178417
H74	H	-1.396525	0.627882	-0.907146
