data_functionalizedCrystal
_audit_creation_method	'MofGen! by Chris Wilmer'
_symmetry_space_group_name_H-M	'P1'
_symmetry_Int_Tables_number	1
_symmetry_cell_setting	triclinic
loop_
_symmetry_equiv_pos_as_xyz
  x,y,z
_cell_length_a	11.026660
_cell_length_b	15.500215
_cell_length_c	17.019250
_cell_angle_alpha	82.936103
_cell_angle_beta	84.044843
_cell_angle_gamma	92.489943
loop_
_atom_site_label
_atom_site_type_symbol
_atom_site_fract_x
_atom_site_fract_y
_atom_site_fract_z
O1	O	1.616307	0.096973	-0.335604
O2	O	1.262877	0.094158	-0.297846
O3	O	1.448869	0.087068	-0.202821
O4	O	1.430315	0.104062	-0.430629
O5	O	1.438762	-0.057419	-0.194814
O6	O	1.252770	-0.050329	-0.289838
O7	O	1.606200	-0.047514	-0.327597
Cu8	Cu	1.428562	-0.062114	-0.307986
Cu9	Cu	1.440515	0.108758	-0.317456
O10	O	1.420208	-0.040424	-0.422621
C11	C	1.212590	0.021395	-0.286876
C12	C	1.077807	0.019847	-0.266111
N13	N	1.420164	-0.182296	-0.301327
C14	C	0.864887	0.022526	-0.301994
C15	C	1.004192	0.024126	-0.323458
C16	C	1.490778	-0.223390	-0.357359
C17	C	1.484442	-0.314339	-0.352319
C18	C	1.407485	-0.364193	-0.291250
C19	C	1.336869	-0.323093	-0.235212
C20	C	1.343211	-0.232146	-0.240249
C21	C	1.384649	-0.639014	-0.273110
C22	C	1.378309	-0.729967	-0.268079
C23	C	1.525885	-0.721206	-0.385186
C24	C	1.532215	-0.630257	-0.390220
C25	C	1.461604	-0.589166	-0.334180
C26	C	1.401005	-0.457157	-0.286099
C27	C	1.468091	-0.496204	-0.339328
C28	C	1.656488	0.025251	-0.338567
C29	C	1.791271	0.026805	-0.359333
C30	C	1.442918	0.012617	-0.169200
C31	C	1.440230	0.006039	-0.080947
N32	N	1.448923	0.228940	-0.324111
C33	C	1.424640	-0.035081	0.418417
C34	C	1.427177	-0.028904	0.335493
C35	C	1.433965	0.052946	0.289658
C36	C	1.438203	0.128624	0.326750
C37	C	1.435657	0.122447	0.409672
C38	C	1.441921	0.075539	0.039067
C39	C	1.444471	0.081711	-0.043861
C40	C	1.433443	-0.075818	-0.035111
C41	C	1.430904	-0.081988	0.047812
C42	C	1.435136	-0.006310	0.084897
C43	C	1.436563	0.059262	0.204896
C44	C	1.432529	-0.012627	0.169658
C45	C	1.426167	0.034023	0.543757
C46	C	1.428881	0.040592	0.455503
H47	H	0.824781	0.017666	-0.237013
C48	C	1.058360	0.030673	-0.411249
N49	N	1.099161	0.035606	-0.477373
C50	C	1.265527	-0.186944	-0.178610
N51	N	1.207014	-0.152899	-0.132181
H52	H	1.037713	0.015057	-0.201129
C53	C	0.845444	0.033352	-0.447120
N54	N	0.886246	0.038284	-0.513243
H55	H	1.442096	0.125905	0.167567
H56	H	1.553437	-0.182804	-0.407092
H57	H	1.583374	-0.754673	-0.430810
C58	C	1.562076	-0.359535	-0.413985
N59	N	1.620537	-0.393576	-0.460442
C60	C	1.316341	-0.512005	-0.218931
N61	N	1.252572	-0.553319	-0.168340
C62	C	1.252212	-0.377936	-0.168037
N63	N	1.188442	-0.419242	-0.117441
H64	H	1.594885	-0.589672	-0.439947
C65	C	1.293658	-0.784805	-0.200890
N66	N	1.229904	-0.826110	-0.150284
H67	H	1.439104	0.184067	0.439867
H68	H	1.443724	0.195269	0.289424
C69	C	1.446702	0.158789	0.079843
N70	N	1.450348	0.221497	0.110555
H71	H	1.530754	-0.455609	-0.389048
C72	C	1.417171	-0.125123	0.468829
N73	N	1.411540	-0.192946	0.506798
C74	C	1.422510	-0.112150	0.294703
N75	N	1.418993	-0.174855	0.263980
H76	H	1.327152	-0.605569	-0.227478
C77	C	1.423424	-0.172030	0.098226
N78	N	1.417789	-0.239850	0.136199
C79	C	1.428770	-0.159058	-0.075911
N80	N	1.425243	-0.221758	-0.106641
C81	C	1.451928	0.171756	-0.094279
N82	N	1.457544	0.239575	-0.132253
H83	H	1.426996	-0.079269	0.206981
