data_functionalizedCrystal
_audit_creation_method	'MofGen! by Chris Wilmer'
_symmetry_space_group_name_H-M	'P1'
_symmetry_Int_Tables_number	1
_symmetry_cell_setting	triclinic
loop_
_symmetry_equiv_pos_as_xyz
  x,y,z
_cell_length_a	9.065215
_cell_length_b	14.044190
_cell_length_c	7.540329
_cell_angle_alpha	89.991504
_cell_angle_beta	89.997574
_cell_angle_gamma	89.103237
loop_
_atom_site_label
_atom_site_type_symbol
_atom_site_fract_x
_atom_site_fract_y
_atom_site_fract_z
O1	O	1.975825	0.139128	-0.147485
O2	O	2.475825	0.639128	0.352515
O3	O	1.547805	0.150544	-0.147495
O4	O	2.047805	0.650544	0.352505
O5	O	1.755385	0.006796	-0.147455
O6	O	2.255385	0.506796	0.352545
O7	O	1.768245	0.282876	-0.147525
O8	O	2.268245	0.782876	0.352475
O9	O	1.755371	0.006794	0.147510
O10	O	2.255371	0.506794	0.647510
O11	O	1.547791	0.150542	0.147470
O12	O	2.047791	0.650542	0.647470
O13	O	1.975811	0.139126	0.147480
O14	O	2.475811	0.639126	0.647480
Cu15	Cu	1.761800	0.144834	0.174408
Cu16	Cu	2.261800	0.644834	0.674408
Cu17	Cu	1.761816	0.144836	-0.174423
Cu18	Cu	2.261816	0.644836	0.325577
O19	O	1.768231	0.282874	0.147440
O20	O	2.268231	0.782874	0.647440
C21	C	1.492690	0.149446	-0.000013
C22	C	1.992690	0.649446	0.499987
C23	C	1.328483	0.146168	-0.000016
C24	C	1.828483	0.646168	0.499984
C25	C	1.749752	-0.028568	0.000032
C26	C	2.249752	0.471432	0.500032
C27	C	1.732971	-0.133938	0.000047
C28	C	2.232971	0.366062	0.500047
C29	C	1.821307	-0.383466	-0.000020
C30	C	2.321307	0.116534	0.499980
C31	C	1.702315	-0.326858	-0.000011
C32	C	2.202315	0.173142	0.499989
C33	C	1.719376	-0.219507	0.000022
C34	C	2.219376	0.280493	0.500022
C35	C	1.804249	-0.490827	-0.000052
C36	C	2.304249	0.009173	0.499948
C37	C	2.030926	0.140224	-0.000006
C38	C	2.530926	0.640224	0.499994
C39	C	2.195133	0.143502	-0.000015
C40	C	2.695133	0.643502	0.499985
C41	C	1.773864	0.318238	-0.000051
C42	C	2.273864	0.818238	0.499949
C43	C	1.790645	0.423608	-0.000078
C44	C	2.290645	0.923608	0.499922
N45	N	1.761799	0.144832	0.419756
N46	N	2.261799	0.644832	0.919756
N47	N	1.761827	0.144831	-0.419771
N48	N	2.261827	0.644831	0.080229
H49	H	1.587630	-0.359017	-0.000023
H50	H	2.087630	0.140983	0.499977
H51	H	1.935983	-0.351309	0.000001
H52	H	2.435983	0.148691	0.500001
