data_functionalizedCrystal
_audit_creation_method	'MofGen! by Chris Wilmer'
_symmetry_space_group_name_H-M	'P1'
_symmetry_Int_Tables_number	1
_symmetry_cell_setting	triclinic
loop_
_symmetry_equiv_pos_as_xyz
  x,y,z
_cell_length_a	11.792241
_cell_length_b	9.565339
_cell_length_c	11.792254
_cell_angle_alpha	89.999943
_cell_angle_beta	84.196007
_cell_angle_gamma	89.999376
loop_
_atom_site_label
_atom_site_type_symbol
_atom_site_fract_x
_atom_site_fract_y
_atom_site_fract_z
O1	O	1.506915	0.116125	0.155559
O2	O	2.006915	0.616125	0.655559
O3	O	1.176575	0.116158	0.171592
O4	O	1.676575	0.616158	0.671592
O5	O	1.349754	0.116130	-0.001594
O6	O	1.849754	0.616130	0.498406
O7	O	1.333736	0.116152	0.328745
O8	O	1.833736	0.616152	0.828745
O9	O	1.349740	-0.116390	-0.001584
O10	O	1.849740	0.383610	0.498416
O11	O	1.176561	-0.116363	0.171602
O12	O	1.676561	0.383637	0.671602
O13	O	1.506901	-0.116395	0.155570
O14	O	2.006901	0.383605	0.655570
Zn15	Zn	1.341729	-0.153296	0.163588
Zn16	Zn	1.841729	0.346704	0.663588
Zn17	Zn	1.341747	0.153059	0.163574
Zn18	Zn	1.841747	0.653059	0.663574
O19	O	1.333722	-0.116368	0.328756
O20	O	1.833722	0.383632	0.828756
C21	C	1.134277	-0.000098	0.170590
C22	C	1.634277	0.499902	0.670590
C23	C	1.008263	-0.000086	0.167576
C24	C	1.508263	0.499914	0.667576
N25	N	1.341725	-0.362376	0.163597
N26	N	1.841725	0.137624	0.663597
C27	C	0.777551	-0.000127	0.162033
C28	C	1.277551	0.499873	0.662033
C29	C	0.905936	-0.000104	0.165112
C30	C	1.405936	0.499896	0.665112
C31	C	1.261611	-0.453566	0.243663
C32	C	1.761611	0.046434	0.743663
C33	C	1.364313	-0.546754	0.266317
C34	C	1.864313	-0.046754	0.766317
C35	C	1.239067	-0.546744	0.140951
C36	C	1.739067	-0.046744	0.640951
C37	C	1.444479	-0.453512	0.186303
C38	C	1.944479	0.046488	0.686303
C39	C	1.319165	-0.453493	0.060891
C40	C	1.819165	0.046507	0.560891
C41	C	1.421942	-0.546639	0.083503
C42	C	1.921942	-0.046639	0.583503
C43	C	1.549199	-0.000136	0.156571
C44	C	2.049199	0.499864	0.656571
C45	C	1.675213	-0.000139	0.159586
C46	C	2.175213	0.499861	0.659586
C47	C	1.348738	-0.000129	-0.043880
C48	C	1.848738	0.499871	0.456120
C49	C	1.345718	-0.000127	-0.169893
C50	C	1.845718	0.499873	0.330107
N51	N	1.341760	0.362138	0.163556
N52	N	1.841760	0.862138	0.663556
C53	C	1.343264	-0.000122	-0.272229
C54	C	1.843264	0.499878	0.227771
C55	C	1.340196	-0.000109	-0.400616
C56	C	1.840196	0.499891	0.099384
C57	C	1.334738	-0.000106	0.371041
C58	C	1.834738	0.499894	0.871041
C59	C	1.337758	-0.000098	0.497054
C60	C	1.837758	0.499902	0.997054
H61	H	1.383418	-0.587718	0.353155
H62	H	1.883418	-0.087718	0.853155
N63	N	1.559523	-0.399499	0.211785
N64	N	2.059523	0.100501	0.711785
H65	H	1.550333	-0.340727	0.283279
H66	H	2.050333	0.159273	0.783279
H67	H	1.611584	-0.481031	0.223220
H68	H	2.111584	0.018969	0.723220
N69	N	1.171941	-0.399438	0.333422
N70	N	1.671941	0.100562	0.833422
H71	H	1.189148	-0.433370	0.410961
H72	H	1.689148	0.066630	0.910961
H73	H	1.172103	-0.293863	0.332224
H74	H	1.672103	0.206137	0.832224
N75	N	1.511792	-0.600444	-0.006215
N76	N	2.011792	-0.100444	0.493785
H77	H	1.589273	-0.566346	0.011025
H78	H	2.089273	-0.066346	0.511025
H79	H	1.510770	-0.706022	-0.006145
H80	H	2.010770	-0.206022	0.493855
H81	H	1.300028	-0.412497	-0.025919
H82	H	1.800028	0.087503	0.474081
N83	N	1.124058	-0.601006	0.115597
N84	N	1.624058	-0.101006	0.615597
H85	H	1.063594	-0.567152	0.176147
H86	H	1.563594	-0.067152	0.676147
H87	H	1.106480	-0.565618	0.038600
H88	H	1.606480	-0.065618	0.538600
