data_functionalizedCrystal
_audit_creation_method	'MofGen! by Chris Wilmer'
_symmetry_space_group_name_H-M	'P1'
_symmetry_Int_Tables_number	1
_symmetry_cell_setting	triclinic
loop_
_symmetry_equiv_pos_as_xyz
  x,y,z
_cell_length_a	19.188930
_cell_length_b	11.792241
_cell_length_c	10.868271
_cell_angle_alpha	89.999844
_cell_angle_beta	90.006533
_cell_angle_gamma	96.330901
loop_
_atom_site_label
_atom_site_type_symbol
_atom_site_fract_x
_atom_site_fract_y
_atom_site_fract_z
O1	O	0.095691	-1.505477	0.102218
O2	O	0.595691	-1.005477	0.602218
O3	O	0.105554	-1.174988	0.102248
O4	O	0.605554	-0.674988	0.602248
O5	O	-0.000979	-1.349770	0.102208
O6	O	0.499021	-0.849770	0.602208
O7	O	0.202224	-1.330695	0.102258
O8	O	0.702224	-0.830695	0.602258
O9	O	-0.000976	-1.349754	-0.102437
O10	O	0.499024	-0.849754	0.397563
O11	O	0.105557	-1.174972	-0.102396
O12	O	0.605557	-0.674972	0.397604
O13	O	0.095695	-1.505461	-0.102427
O14	O	0.595695	-1.005461	0.397573
Zn15	Zn	0.100626	-1.340214	-0.134903
Zn16	Zn	0.600626	-0.840214	0.365097
Zn17	Zn	0.100622	-1.340235	0.134725
Zn18	Zn	0.600622	-0.840235	0.634725
O19	O	0.202228	-1.330679	-0.102387
O20	O	0.702228	-0.830679	0.397613
C21	C	0.104936	-1.132699	-0.000071
C22	C	0.604936	-0.632699	0.499929
C23	C	0.103082	-1.006713	-0.000060
C24	C	0.603082	-0.506713	0.499940
C25	C	-0.026992	-1.349144	-0.000118
C26	C	0.473008	-0.849144	0.499882
C27	C	-0.104507	-1.347290	-0.000128
C28	C	0.395493	-0.847290	0.499872
C29	C	0.096313	-1.547751	-0.000105
C30	C	0.596313	-1.047751	0.499895
C31	C	0.098167	-1.673737	-0.000108
C32	C	0.598167	-1.173737	0.499892
C33	C	-0.148850	-1.449846	-0.000143
C34	C	0.351150	-0.949846	0.499857
C35	C	-0.221684	-1.448104	-0.000123
C36	C	0.278316	-0.948104	0.499877
C37	C	-0.250171	-1.343800	-0.000113
C38	C	0.249829	-0.843800	0.499887
C39	C	-0.205818	-1.241230	-0.000091
C40	C	0.294182	-0.741230	0.499909
C41	C	-0.132986	-1.242975	-0.000098
C42	C	0.367014	-0.742975	0.499902
N43	N	-0.358626	-1.264067	-0.069750
N44	N	0.141374	-0.764067	0.430250
N45	N	-0.427814	-1.262416	-0.069746
N46	N	0.072186	-0.762416	0.430254
C47	C	-0.469609	-1.338536	-0.000088
C48	C	0.030391	-0.838536	0.499912
N49	N	-0.439604	-1.416387	0.069550
N50	N	0.060396	-0.916387	0.569550
N51	N	-0.370410	-1.418041	0.069540
N52	N	0.129590	-0.918041	0.569540
C53	C	-0.329144	-1.341896	-0.000104
C54	C	0.170856	-0.841896	0.499896
C55	C	-0.592928	-1.439211	-0.000080
C56	C	-0.092928	-0.939211	0.499920
C57	C	-0.665762	-1.437464	-0.000052
C58	C	-0.165762	-0.937464	0.499948
C59	C	-0.649895	-1.230588	-0.000032
C60	C	-0.149895	-0.730588	0.499968
C61	C	-0.577062	-1.232337	-0.000047
C62	C	-0.077062	-0.732337	0.499953
C63	C	-0.548583	-1.336652	-0.000077
C64	C	-0.048583	-0.836652	0.499923
C65	C	0.228240	-1.331305	-0.000058
C66	C	0.728240	-0.831305	0.499942
C67	C	0.305755	-1.333159	-0.000040
C68	C	0.805755	-0.833159	0.499960
N69	N	0.100629	-1.340208	-0.318917
N70	N	0.600629	-0.840208	0.181083
C71	C	0.099672	-0.776051	-0.000096
C72	C	0.599672	-0.276051	0.499904
C73	C	0.101566	-0.904408	-0.000076
C74	C	0.601566	-0.404408	0.499924
C75	C	0.100629	-1.340217	-0.430255
C76	C	0.600629	-0.840217	0.069745
C77	C	0.100623	-1.340232	-0.569933
C78	C	0.600623	-0.840232	-0.069933
N79	N	0.100614	-1.340250	0.318739
N80	N	0.600614	-0.840250	0.818739
H81	H	-0.257795	-1.531620	-0.000131
H82	H	0.242205	-1.031620	0.499869
H83	H	-0.673089	-1.145661	-0.000017
H84	H	-0.173089	-0.645661	0.499983
C85	C	-0.561594	-1.553951	-0.000102
C86	C	-0.061594	-1.053951	0.499898
C87	C	-0.610375	-1.666767	-0.000103
C88	C	-0.110375	-1.166767	0.499897
C89	C	-0.579044	-1.781508	-0.000128
C90	C	-0.079044	-1.281508	0.499872
C91	C	-0.498932	-1.783433	-0.000152
C92	C	0.001068	-1.283433	0.499848
C93	C	-0.450147	-1.670613	-0.000151
C94	C	0.049853	-1.170613	0.499849
C95	C	-0.481478	-1.555872	-0.000126
C96	C	0.018522	-1.055872	0.499874
H97	H	-0.669683	-1.665345	-0.000085
H98	H	-0.169683	-1.165345	0.499915
H99	H	-0.615159	-1.865024	-0.000128
H100	H	-0.115159	-1.365024	0.499872
H101	H	-0.475739	-1.868371	-0.000170
H102	H	0.024261	-1.368371	0.499830
H103	H	-0.390839	-1.672034	-0.000169
H104	H	0.109161	-1.172034	0.499831
H105	H	-0.445363	-1.472356	-0.000126
H106	H	0.054637	-0.972356	0.499874
H107	H	-0.229017	-1.156305	-0.000080
H108	H	0.270983	-0.656305	0.499920
C109	C	-0.714542	-1.550286	-0.000070
C110	C	-0.214542	-1.050286	0.499930
C111	C	-0.766807	-1.577515	-0.106332
C112	C	-0.266807	-1.077515	0.393668
C113	C	-0.815587	-1.690339	-0.106351
C114	C	-0.315587	-1.190339	0.393649
C115	C	-0.812103	-1.775933	-0.000108
C116	C	-0.312103	-1.275933	0.499892
C117	C	-0.759836	-1.748705	0.106162
C118	C	-0.259836	-1.248705	0.606162
C119	C	-0.711056	-1.635882	0.106181
C120	C	-0.211056	-1.135882	0.606181
H121	H	-0.769388	-1.514151	-0.184986
H122	H	-0.269388	-1.014151	0.315014
H123	H	-0.854278	-1.710493	-0.185020
H124	H	-0.354278	-1.210493	0.314980
H125	H	-0.848213	-1.859451	-0.000122
H126	H	-0.348213	-1.359451	0.499878
H127	H	-0.757255	-1.812069	0.184816
H128	H	-0.257255	-1.312069	0.684816
H129	H	-0.672365	-1.615727	0.184850
H130	H	-0.172365	-1.115727	0.684850
C131	C	-0.117527	-1.564592	-0.000153
C132	C	0.382473	-1.064592	0.499847
C133	C	-0.134096	-1.649682	-0.106421
C134	C	0.365904	-1.149682	0.393579
C135	C	-0.102772	-1.764429	-0.106424
C136	C	0.397228	-1.264429	0.393576
C137	C	-0.054879	-1.794085	-0.000158
C138	C	0.445121	-1.294085	0.499842
C139	C	-0.038307	-1.708993	0.106118
C140	C	0.461693	-1.208993	0.606118
C141	C	-0.069631	-1.594246	0.106121
C142	C	0.430369	-1.094246	0.606121
H143	H	-0.169552	-1.627730	-0.185093
H144	H	0.330448	-1.127730	0.314907
H145	H	-0.115040	-1.827420	-0.185097
H146	H	0.384960	-1.327420	0.314903
H147	H	-0.031691	-1.879028	-0.000160
H148	H	0.468309	-1.379028	0.499840
H149	H	-0.002851	-1.730945	0.184789
H150	H	0.497149	-1.230945	0.684789
H151	H	-0.057363	-1.531255	0.184794
H152	H	0.442637	-1.031255	0.684794
H153	H	-0.096881	-1.159459	-0.000086
H154	H	0.403119	-0.659459	0.499914
H155	H	-0.540957	-1.148825	-0.000042
H156	H	-0.040957	-0.648825	0.499958
