data_functionalizedCrystal
_audit_creation_method	'MofGen! by Chris Wilmer'
_symmetry_space_group_name_H-M	'P1'
_symmetry_Int_Tables_number	1
_symmetry_cell_setting	triclinic
loop_
_symmetry_equiv_pos_as_xyz
  x,y,z
_cell_length_a	11.792254
_cell_length_b	11.792241
_cell_length_c	9.198806
_cell_angle_alpha	89.996670
_cell_angle_beta	89.996104
_cell_angle_gamma	84.196007
loop_
_atom_site_label
_atom_site_type_symbol
_atom_site_fract_x
_atom_site_fract_y
_atom_site_fract_z
O1	O	1.506900	0.155634	-0.120892
O2	O	1.840233	0.488967	0.212442
O3	O	2.173566	0.822300	0.545775
O4	O	1.176560	0.171652	-0.120895
O5	O	1.509894	0.504985	0.212438
O6	O	1.843227	0.838318	0.545772
O7	O	1.349746	-0.001527	-0.120883
O8	O	1.683080	0.331806	0.212450
O9	O	2.016413	0.665139	0.545783
O10	O	1.333714	0.328813	-0.120904
O11	O	1.667047	0.662146	0.212430
O12	O	2.000380	0.995480	0.545763
O13	O	1.349733	-0.001528	0.120902
O14	O	1.683066	0.331805	0.454235
O15	O	2.016399	0.665139	0.787569
O16	O	1.176547	0.171651	0.120890
O17	O	1.509880	0.504985	0.454223
O18	O	1.843213	0.838318	0.787557
O19	O	1.506886	0.155633	0.120893
O20	O	1.840219	0.488967	0.454227
O21	O	2.173552	0.822300	0.787560
Cu22	Cu	1.341715	0.163642	0.142968
Cu23	Cu	1.675048	0.496976	0.476302
Cu24	Cu	2.008382	0.830309	0.809635
Cu25	Cu	1.341731	0.163643	-0.142970
Cu26	Cu	1.675065	0.496976	0.190363
Cu27	Cu	2.008398	0.830309	0.523696
O28	O	1.333700	0.328812	0.120881
O29	O	1.667033	0.662146	0.454215
O30	O	2.000366	0.995479	0.787548
C31	C	1.134263	0.170642	-0.000003
C32	C	1.467596	0.503976	0.333330
C33	C	1.800929	0.837309	0.666664
C34	C	1.008250	0.167622	-0.000004
C35	C	1.341583	0.500956	0.333329
C36	C	1.674916	0.834289	0.666663
C37	C	0.905913	0.165168	-0.000010
C38	C	1.239247	0.498502	0.333323
C39	C	1.572580	0.831835	0.666657
C40	C	0.777527	0.162100	-0.000011
C41	C	1.110860	0.495433	0.333323
C42	C	1.444193	0.828767	0.666656
C43	C	1.348732	-0.043819	0.000009
C44	C	1.682066	0.289515	0.333342
C45	C	2.015399	0.622848	0.666676
C46	C	1.345718	-0.169832	0.000007
C47	C	1.679051	0.163501	0.333341
C48	C	2.012385	0.496834	0.666674
C49	C	1.340175	-0.400545	-0.000017
C50	C	1.673508	-0.067212	0.333316
C51	C	2.006842	0.266122	0.666650
C52	C	1.343255	-0.272160	-0.000004
C53	C	1.676588	0.061174	0.333330
C54	C	2.009921	0.394507	0.666663
C55	C	1.549183	0.156643	-0.000002
C56	C	1.882517	0.489976	0.333331
C57	C	2.215850	0.823309	0.666664
C58	C	1.675196	0.159663	-0.000011
C59	C	2.008530	0.492996	0.333323
C60	C	2.341863	0.826329	0.666656
C61	C	1.334714	0.371104	-0.000014
C62	C	1.668047	0.704437	0.333319
C63	C	2.001380	1.037770	0.666653
C64	C	1.337728	0.497118	-0.000022
C65	C	1.671061	0.830451	0.333311
C66	C	2.004395	1.163784	0.666645
N67	N	1.341712	0.163641	0.344082
N68	N	1.675045	0.496975	0.677416
N69	N	2.008378	0.830308	1.010749
N70	N	1.341743	0.163635	-0.344084
N71	N	1.675077	0.496968	-0.010751
N72	N	2.008410	0.830302	0.322582
C73	C	1.414428	0.090608	0.416284
C74	C	1.747762	0.423942	0.749618
C75	C	2.081095	0.757275	1.082951
C76	C	1.414446	0.090604	0.583697
C77	C	1.747779	0.423938	0.917030
C78	C	2.081113	0.757271	1.250363
H79	H	1.476667	0.028080	0.354163
H80	H	1.810001	0.361414	0.687496
H81	H	2.143334	0.694747	1.020829
Cl82	Cl	1.245603	0.260171	0.439987
Cl83	Cl	1.578937	0.593505	0.773320
Cl84	Cl	1.912270	0.926838	1.106653
H85	H	1.476706	0.028082	0.645787
H86	H	1.810039	0.361415	0.979121
H87	H	2.143373	0.694749	1.312454
Cl88	Cl	1.245623	0.260185	0.560068
Cl89	Cl	1.578957	0.593518	0.893401
Cl90	Cl	1.912290	0.926851	1.226735
