data_functionalizedCrystal
_audit_creation_method	'MofGen! by Chris Wilmer'
_symmetry_space_group_name_H-M	'P1'
_symmetry_Int_Tables_number	1
_symmetry_cell_setting	triclinic
loop_
_symmetry_equiv_pos_as_xyz
  x,y,z
_cell_length_a	16.109301
_cell_length_b	27.732048
_cell_length_c	14.586319
_cell_angle_alpha	89.991275
_cell_angle_beta	89.999213
_cell_angle_gamma	83.052068
loop_
_atom_site_label
_atom_site_type_symbol
_atom_site_fract_x
_atom_site_fract_y
_atom_site_fract_z
O1	O	1.102362	0.062130	-0.076193
O2	O	1.602362	0.562130	0.423807
O3	O	0.860204	0.069862	-0.076208
O4	O	1.360204	0.569862	0.423792
O5	O	0.988804	-0.004369	-0.076183
O6	O	1.488804	0.495631	0.423817
O7	O	0.973762	0.136361	-0.076218
O8	O	1.473762	0.636361	0.423782
O9	O	0.988795	-0.004370	0.076298
O10	O	1.488795	0.495630	0.576298
O11	O	0.860195	0.069861	0.076272
O12	O	1.360195	0.569861	0.576272
O13	O	1.102353	0.062129	0.076288
O14	O	1.602353	0.562129	0.576288
Cu15	Cu	0.981273	0.065995	0.090203
Cu16	Cu	1.481273	0.565995	0.590203
Cu17	Cu	0.981283	0.065996	-0.090123
Cu18	Cu	1.481283	0.565996	0.409877
O19	O	0.973753	0.136360	0.076262
O20	O	1.473753	0.636360	0.576262
C21	C	0.829228	0.069548	0.000030
C22	C	1.329228	0.569548	0.500030
C23	C	0.736945	0.068609	0.000025
C24	C	1.236945	0.568609	0.500025
C25	C	0.988483	-0.022378	0.000060
C26	C	1.488483	0.477622	0.500060
C27	C	0.987533	-0.076037	0.000068
C28	C	1.487533	0.423963	0.500068
C29	C	0.514154	0.110473	0.000025
C30	C	1.014154	0.610473	0.500025
C31	C	0.427445	0.109587	0.000031
C32	C	0.927445	0.609587	0.500031
C33	C	0.448409	0.021514	0.000050
C34	C	0.948409	0.521514	0.500050
C35	C	0.535117	0.022401	0.000050
C36	C	1.035117	0.522401	0.500050
C37	C	0.567987	0.066882	0.000033
C38	C	1.067987	0.566882	0.500033
C39	C	0.394570	0.065109	0.000039
C40	C	0.894570	0.565109	0.500039
C41	C	0.300556	0.064148	0.000045
C42	C	0.800556	0.564148	0.500045
C43	C	0.662007	0.067843	0.000028
C44	C	1.162007	0.567843	0.500028
C45	C	1.057541	-0.414559	0.000025
C46	C	1.557541	0.085441	0.500025
C47	C	1.054013	-0.616233	0.000012
C48	C	1.554013	-0.116233	0.500012
O49	O	1.118031	-0.647221	-0.000024
O50	O	1.618031	-0.147221	0.499976
N51	N	0.977759	-0.635676	0.000008
N52	N	1.477759	-0.135676	0.500008
C53	C	0.902381	-0.604697	0.000001
C54	C	1.402381	-0.104697	0.500001
O55	O	0.837441	-0.625862	-0.000012
O56	O	1.337441	-0.125862	0.499988
C57	C	0.905910	-0.403024	0.000008
C58	C	1.405910	0.096976	0.500008
C59	C	0.982169	-0.383584	0.000021
C60	C	1.482169	0.116416	0.500021
C61	C	1.133794	-0.395119	0.000038
C62	C	1.633794	0.104881	0.500038
C63	C	1.134675	-0.344703	0.000046
C64	C	1.634675	0.155297	0.500046
C65	C	1.059303	-0.313728	0.000042
C66	C	1.559303	0.186272	0.500042
C67	C	0.983050	-0.333168	0.000029
C68	C	1.483050	0.166832	0.500029
C69	C	0.830533	-0.372045	-0.000006
C70	C	1.330533	0.127955	0.499994
C71	C	0.831422	-0.321624	-0.000006
C72	C	1.331422	0.178376	0.499994
C73	C	0.907681	-0.302184	0.000007
C74	C	1.407681	0.197816	0.500007
C75	C	0.908559	-0.251777	0.000034
C76	C	1.408559	0.248223	0.500034
N77	N	0.984814	-0.232334	0.000038
N78	N	1.484814	0.267666	0.500038
C79	C	1.060186	-0.263310	0.000042
C80	C	1.560186	0.236690	0.500042
C81	C	0.900534	-0.710579	-0.000000
C82	C	1.400534	-0.210579	0.500000
C83	C	0.899652	-0.760997	-0.000000
C84	C	1.399652	-0.260997	0.500000
C85	C	1.051284	-0.772530	0.000009
C86	C	1.551284	-0.272530	0.500009
C87	C	1.052166	-0.722111	0.000016
C88	C	1.552166	-0.222111	0.500016
C89	C	0.976789	-0.691136	0.000004
C90	C	1.476789	-0.191136	0.500004
C91	C	1.062030	-0.157433	0.000060
C92	C	1.562030	0.342567	0.500060
C93	C	1.062905	-0.107012	0.000072
C94	C	1.562905	0.392988	0.500072
C95	C	0.911273	-0.095484	0.000058
C96	C	1.411273	0.404516	0.500058
C97	C	0.910398	-0.145900	0.000051
C98	C	1.410398	0.354100	0.500051
C99	C	0.985783	-0.176874	0.000049
C100	C	1.485783	0.323126	0.500049
O101	O	0.844576	-0.220761	0.000059
O102	O	1.344576	0.279239	0.500059
O103	O	1.125116	-0.242135	0.000035
O104	O	1.625116	0.257865	0.500035
C105	C	1.056660	-0.464975	0.000017
C106	C	1.556660	0.035025	0.500017
C107	C	0.980407	-0.484415	0.000005
C108	C	1.480407	0.015585	0.500005
C109	C	0.905035	-0.453440	0.000001
C110	C	1.405035	0.046560	0.500001
C111	C	0.979525	-0.534833	0.000005
C112	C	1.479525	-0.034833	0.500005
C113	C	1.054897	-0.565808	0.000009
C114	C	1.554897	-0.065808	0.500009
C115	C	1.131151	-0.546365	0.000013
C116	C	1.631151	-0.046365	0.500013
C117	C	1.132032	-0.495950	0.000021
C118	C	1.632032	0.004050	0.500021
C119	C	0.828781	-0.472883	-0.000004
C120	C	1.328781	0.027117	0.499996
C121	C	0.827906	-0.523299	-0.000011
C122	C	1.327906	-0.023299	0.499989
C123	C	0.903278	-0.554274	-0.000007
C124	C	1.403278	-0.054274	0.499993
C125	C	1.133328	0.062443	0.000048
C126	C	1.633328	0.562443	0.500048
C127	C	1.225612	0.063382	0.000047
C128	C	1.725612	0.563382	0.500047
C129	C	0.974073	0.154369	0.000017
C130	C	1.474073	0.654369	0.500017
C131	C	0.975024	0.208028	0.000004
C132	C	1.475024	0.708028	0.500004
N133	N	0.981272	0.065994	0.217035
N134	N	1.481272	0.565994	0.717035
N135	N	0.981291	0.065994	-0.216955
N136	N	1.481291	0.565994	0.283045
C137	C	1.038234	0.033135	0.452053
C138	C	1.538234	0.533135	0.952053
C139	C	1.038237	0.033134	0.548034
C140	C	1.538237	0.533134	1.048034
C141	C	0.924323	0.098854	0.548020
C142	C	1.424323	0.598854	1.048020
C143	C	0.924317	0.098852	0.452041
C144	C	1.424317	0.598852	0.952041
C145	C	0.981278	0.065993	0.404060
C146	C	1.481278	0.565993	0.904060
C147	C	0.981286	0.065994	0.596020
C148	C	1.481286	0.565994	1.096020
C149	C	0.981288	0.065993	0.700087
C150	C	1.481288	0.565993	1.200087
C151	C	0.981275	0.065994	0.299986
C152	C	1.481275	0.565994	0.799986
H153	H	0.540913	0.146692	0.000018
H154	H	1.040913	0.646692	0.500018
C155	C	1.214058	-0.580444	0.000011
C156	C	1.714058	-0.080444	0.500011
H157	H	1.202603	-0.613254	-0.000004
H158	H	1.702603	-0.113254	0.499996
H159	H	1.245359	-0.574563	0.053183
H160	H	1.745359	-0.074563	0.553183
H161	H	1.245351	-0.574547	-0.053170
H162	H	1.745351	-0.074547	0.446830
H163	H	0.767402	-0.447667	-0.000009
H164	H	1.267402	0.052333	0.499991
H165	H	1.123416	-0.182646	0.000055
H166	H	1.623416	0.317354	0.500055
C167	C	0.861679	0.135000	0.600803
C168	C	1.361679	0.635000	1.100803
H169	H	0.869845	0.130299	0.664839
H170	H	1.369845	0.630299	1.164839
H171	H	0.806260	0.129743	0.585083
H172	H	1.306260	0.629743	1.085083
H173	H	0.870300	0.167262	0.585058
H174	H	1.370300	0.667262	1.085058
H175	H	1.084614	0.006379	0.412988
H176	H	1.584614	0.506379	0.912988
H177	H	1.084615	0.006377	0.587107
H178	H	1.584615	0.506377	1.087107
C179	C	1.134194	-0.806606	0.000009
C180	C	1.634194	-0.306606	0.500009
H181	H	1.179741	-0.787811	0.000014
H182	H	1.679741	-0.287811	0.500014
H183	H	1.136994	-0.826509	-0.053166
H184	H	1.636994	-0.326509	0.446834
H185	H	1.136999	-0.826519	0.053188
H186	H	1.636999	-0.326519	0.553188
H187	H	0.770039	-0.296407	-0.000017
H188	H	1.270039	0.203593	0.499983
C189	C	0.861669	0.135000	0.399241
C190	C	1.361669	0.635000	0.899241
H191	H	0.869821	0.130290	0.335207
H192	H	1.369821	0.630290	0.835207
H193	H	0.870285	0.167262	0.414957
H194	H	1.370285	0.667262	0.914957
H195	H	0.806248	0.129742	0.414973
H196	H	1.306248	0.629742	0.914973
C197	C	0.368228	0.157537	0.000018
C198	C	0.868228	0.657537	0.500018
H199	H	0.311880	0.150640	0.000029
H200	H	0.811880	0.650640	0.500029
H201	H	0.378131	0.175776	-0.053161
H202	H	0.878131	0.675776	0.446839
H203	H	0.378134	0.175774	0.053193
H204	H	0.878134	0.675774	0.553193
C205	C	0.412253	-0.027412	0.000057
C206	C	0.912253	0.472588	0.500057
H207	H	0.456735	-0.053246	0.000070
H208	H	0.956735	0.446754	0.500070
H209	H	0.378866	-0.029586	-0.053117
H210	H	0.878866	0.470414	0.446883
H211	H	0.378864	-0.029590	0.053237
H212	H	0.878864	0.470410	0.553237
C213	C	0.594337	-0.025552	0.000055
C214	C	1.094337	0.474448	0.500055
H215	H	0.562344	-0.052170	0.000051
H216	H	1.062344	0.447830	0.500051
H217	H	0.628598	-0.027038	0.053228
H218	H	1.128598	0.472962	0.553228
H219	H	0.628596	-0.027033	-0.053125
H220	H	1.128596	0.472967	0.446875
H221	H	1.125007	-0.091187	0.000085
H222	H	1.625007	0.408813	0.500085
C223	C	1.218561	-0.323325	0.000043
C224	C	1.718561	0.176675	0.500043
H225	H	1.263317	-0.348999	0.000034
H226	H	1.763317	0.151001	0.500034
H227	H	1.222068	-0.303901	0.053214
H228	H	1.722068	0.196099	0.553214
H229	H	1.222058	-0.303895	-0.053140
H230	H	1.722058	0.196105	0.446860
H231	H	1.114263	-0.706287	0.000026
H232	H	1.614263	-0.206287	0.500026
C233	C	1.216711	-0.429184	0.000050
C234	C	1.716711	0.070816	0.500050
H235	H	1.262243	-0.410378	0.000064
H236	H	1.762243	0.089622	0.500064
H237	H	1.219537	-0.449091	-0.053120
H238	H	1.719537	0.050909	0.446880
H239	H	1.219516	-0.449093	0.053234
H240	H	1.719516	0.050907	0.553234
H241	H	0.837554	-0.776820	0.000005
H242	H	1.337554	-0.276820	0.500005
C243	C	0.817614	-0.676512	-0.000001
C244	C	1.317614	-0.176512	0.499999
H245	H	0.772080	-0.695317	0.000007
H246	H	1.272080	-0.195317	0.500007
H247	H	0.814796	-0.656598	-0.053171
H248	H	1.314796	-0.156598	0.446829
H249	H	0.814803	-0.656611	0.053182
H250	H	1.314803	-0.156611	0.553182
H251	H	0.848301	-0.161728	0.000065
H252	H	1.348301	0.338272	0.500065
C253	C	0.746646	-0.393418	-0.000028
C254	C	1.246646	0.106582	0.499972
H255	H	0.701892	-0.367743	-0.000043
H256	H	1.201892	0.132257	0.499957
H257	H	0.743132	-0.412852	0.053140
H258	H	1.243132	0.087148	0.553140
H259	H	0.743155	-0.412839	-0.053213
H260	H	1.243155	0.087161	0.446787
H261	H	0.849907	-0.070255	0.000058
H262	H	1.349907	0.429745	0.500058
C263	C	0.744015	-0.544677	-0.000028
C264	C	1.244015	-0.044677	0.499972
H265	H	0.699256	-0.519004	-0.000039
H266	H	1.199256	-0.019004	0.499961
H267	H	0.740503	-0.564113	0.053137
H268	H	1.240503	-0.064113	0.553137
H269	H	0.740526	-0.564095	-0.053216
H270	H	1.240526	-0.064095	0.446784
H271	H	1.194130	-0.480127	0.000032
H272	H	1.694130	0.019873	0.500032
