data_functionalizedCrystal
_audit_creation_method	'MofGen! by Chris Wilmer'
_symmetry_space_group_name_H-M	'P1'
_symmetry_Int_Tables_number	1
_symmetry_cell_setting	triclinic
loop_
_symmetry_equiv_pos_as_xyz
  x,y,z
_cell_length_a	15.995350
_cell_length_b	14.971486
_cell_length_c	14.048226
_cell_angle_alpha	90.006640
_cell_angle_beta	89.999908
_cell_angle_gamma	96.446748
loop_
_atom_site_label
_atom_site_type_symbol
_atom_site_fract_x
_atom_site_fract_y
_atom_site_fract_z
O1	O	1.111103	-0.115295	-0.079020
O2	O	0.867342	-0.129533	-0.079053
O3	O	0.995756	0.007793	-0.079029
O4	O	0.982689	-0.252622	-0.079044
O5	O	0.995741	0.007802	0.079292
O6	O	0.867327	-0.129525	0.079268
O7	O	1.111088	-0.115287	0.079301
Zn8	Zn	0.989205	-0.122405	0.104421
Zn9	Zn	0.989225	-0.122415	-0.104174
O10	O	0.982674	-0.252614	0.079277
C11	C	0.836139	-0.128940	0.000103
C12	C	0.743187	-0.127175	0.000091
C13	C	0.995164	0.041122	0.000131
C14	C	0.993413	0.140417	0.000130
C15	C	1.142291	-0.115880	0.000142
C16	C	1.235243	-0.117645	0.000149
C17	C	1.572997	-0.123982	0.000110
C18	C	1.525661	-0.221783	0.000462
C19	C	1.428969	-0.220018	0.000115
C20	C	1.405433	-0.120838	0.000130
C21	C	1.446454	-0.072604	-0.090278
C22	C	1.543092	-0.075060	-0.090364
C23	C	1.543464	-0.073032	0.089677
C24	C	1.446519	-0.073055	0.090882
C25	C	1.310734	-0.119057	0.000138
C26	C	1.667696	-0.125760	0.000096
C27	C	0.983266	-0.285942	0.000115
C28	C	0.985017	-0.385237	0.000109
N29	N	0.989197	-0.122397	0.246782
C30	C	1.068852	0.197728	0.000141
C31	C	1.067202	0.291026	0.000131
C32	C	0.990111	0.327010	0.000117
C33	C	0.914666	0.269691	0.000104
C34	C	0.916317	0.176395	0.000107
C35	C	0.911229	0.464150	0.000100
C36	C	0.909577	0.557452	0.000099
C37	C	1.062114	0.578780	0.000124
C38	C	1.063766	0.485484	0.000127
C39	C	0.988320	0.428172	0.000115
N40	N	0.989239	-0.122416	-0.246534
C41	C	1.046076	-0.061614	0.296611
C42	C	1.046082	-0.061613	0.396269
C43	C	0.989212	-0.122401	0.446096
C44	C	0.932326	-0.183187	0.396260
C45	C	0.932317	-0.183182	0.296604
C46	C	0.932350	-0.183193	0.603974
C47	C	0.932360	-0.183199	0.703637
C48	C	1.046115	-0.061624	0.703639
C49	C	1.046106	-0.061620	0.603983
C50	C	0.989221	-0.122407	0.554154
H51	H	1.544239	-0.260871	0.065289
O52	O	0.877225	-0.242331	0.752078
C53	C	0.922111	-0.297540	0.809725
H54	H	0.988137	-0.299102	0.779684
H55	H	0.926483	-0.269553	0.885257
C56	C	0.794950	-0.391624	0.848138
C57	C	0.876043	-0.393549	0.811237
H58	H	0.766532	-0.450846	0.849075
H59	H	0.764708	-0.354427	0.809303
H60	H	0.798605	-0.368298	0.911078
H61	H	0.872387	-0.416864	0.748294
H62	H	0.906283	-0.430752	0.850061
H63	H	0.886026	-0.232690	0.563407
H64	H	1.575150	-0.000922	0.090288
H65	H	1.575268	-0.003257	-0.094476
H66	H	1.123545	0.625449	0.000131
H67	H	1.092390	-0.012118	0.256048
O68	O	1.143761	0.162819	-0.000016
C69	C	1.189768	0.192115	-0.081997
H70	H	1.144692	0.211514	-0.139311
H71	H	1.236362	0.252923	-0.063455
C72	C	1.293333	0.091944	-0.048776
C73	C	1.237970	0.115763	-0.119174
H74	H	1.323070	0.044849	-0.071707
H75	H	1.262340	0.072209	0.006458
H76	H	1.332154	0.142624	-0.033331
H77	H	1.199144	0.065087	-0.134609
H78	H	1.268958	0.135488	-0.174412
O79	O	1.101425	-0.002545	0.444524
C80	C	1.151612	0.051114	0.379176
H81	H	1.152574	0.014444	0.308130
H82	H	1.124378	0.117588	0.368597
C83	C	1.240742	0.114507	0.505316
C84	C	1.241929	0.069464	0.418058
H85	H	1.296453	0.125830	0.529301
H86	H	1.206928	0.078358	0.549343
H87	H	1.218042	0.169897	0.496488
H88	H	1.264618	0.014071	0.426889
H89	H	1.275748	0.105604	0.374033
O90	O	1.395705	-0.265680	-0.077233
C91	C	1.337951	-0.338275	-0.047148
H92	H	1.353265	-0.357309	0.028943
H93	H	1.271433	-0.317894	-0.050022
C94	C	1.325224	-0.396017	-0.206642
C95	C	1.344037	-0.419400	-0.113190
H96	H	1.328974	-0.446058	-0.247382
H97	H	1.364131	-0.347107	-0.226912
H98	H	1.269793	-0.379032	-0.209024
H99	H	1.399470	-0.436374	-0.110807
H100	H	1.305139	-0.468316	-0.092920
H101	H	1.092418	-0.012127	0.563414
H102	H	1.432255	0.000261	-0.093630
H103	H	1.128633	0.337686	0.000142
H104	H	0.886017	-0.232678	0.436835
H105	H	1.418077	-0.106089	-0.157559
H106	H	0.885999	-0.232677	0.256034
H107	H	1.545287	-0.260702	-0.064016
H108	H	1.126540	0.456189	0.000145
H109	H	0.846803	0.586747	0.000103
H110	H	1.561423	-0.110243	-0.157951
O111	O	1.395225	-0.265175	0.077530
C112	C	1.429539	-0.223665	0.161067
H113	H	1.492846	-0.184064	0.144003
H114	H	1.384842	-0.176104	0.190180
C115	C	1.364129	-0.344699	0.256996
C116	C	1.441888	-0.296067	0.236040
H117	H	1.371743	-0.389359	0.303246
H118	H	1.341008	-0.372664	0.200717
H119	H	1.326890	-0.305056	0.281252
H120	H	1.479122	-0.335709	0.211773
H121	H	1.465015	-0.268110	0.292317
H122	H	0.851897	0.298997	0.000086
H123	H	1.564044	-0.105003	0.158196
H124	H	1.431087	-0.000728	0.096349
O125	O	1.413867	-0.115000	0.170650
C126	C	1.326190	-0.111373	0.172966
H127	H	1.309760	-0.052631	0.127663
H128	H	1.292601	-0.176781	0.143586
C129	C	1.318161	-0.170554	0.332021
C130	C	1.297983	-0.098402	0.276386
H131	H	1.300760	-0.162557	0.395815
H132	H	1.377231	-0.173001	0.330460
H133	H	1.290169	-0.225054	0.307527
H134	H	1.325983	-0.043905	0.300873
H135	H	1.238917	-0.095945	0.277953
O136	O	0.837887	0.408565	-0.000039
C137	C	0.791102	0.424845	-0.082053
H138	H	0.811588	0.495614	-0.109390
H139	H	0.802610	0.373809	-0.139467
C140	C	0.671613	0.329054	-0.023581
C141	C	0.696770	0.415977	-0.057152
H142	H	0.613424	0.323580	-0.008224
H143	H	0.703133	0.318082	0.031672
H144	H	0.681210	0.286534	-0.071432
H145	H	0.687183	0.458494	-0.009298
H146	H	0.665245	0.426955	-0.112397
O147	O	0.842980	0.120810	-0.000029
C148	C	0.796200	0.137095	-0.082046
H149	H	0.816689	0.207865	-0.109378
H150	H	0.807711	0.086062	-0.139461
C151	C	0.676706	0.041303	-0.023588
C152	C	0.701867	0.128227	-0.057153
H153	H	0.618517	0.035829	-0.008235
H154	H	0.708223	0.030328	0.031667
H155	H	0.686306	-0.001215	-0.071439
H156	H	0.692277	0.170742	-0.009297
H157	H	0.670346	0.139209	-0.112399
H158	H	1.092432	-0.012129	0.744215
