data_functionalizedCrystal
_audit_creation_method	'MofGen! by Chris Wilmer'
_symmetry_space_group_name_H-M	'P1'
_symmetry_Int_Tables_number	1
_symmetry_cell_setting	triclinic
loop_
_symmetry_equiv_pos_as_xyz
  x,y,z
_cell_length_a	14.044220
_cell_length_b	11.026607
_cell_length_c	10.065875
_cell_angle_alpha	79.268236
_cell_angle_beta	80.445026
_cell_angle_gamma	79.112553
loop_
_atom_site_label
_atom_site_type_symbol
_atom_site_fract_x
_atom_site_fract_y
_atom_site_fract_z
O1	O	1.319595	-0.281426	-0.113483
O2	O	1.819595	0.218574	0.386517
O3	O	1.041790	-0.270669	-0.113487
O4	O	1.541790	0.229331	0.386513
O5	O	1.157668	-0.096903	-0.113480
O6	O	1.657668	0.403097	0.386520
O7	O	1.203717	-0.455192	-0.113490
O8	O	1.703717	0.044808	0.386510
O9	O	1.135596	-0.130183	0.113507
O10	O	1.635596	0.369817	0.613507
O11	O	1.019719	-0.303950	0.113501
O12	O	1.519719	0.196050	0.613501
O13	O	1.297523	-0.314706	0.113504
O14	O	1.797523	0.185294	0.613504
Zn15	Zn	1.155117	-0.314612	0.149542
Zn16	Zn	1.655117	0.185388	0.649542
Zn17	Zn	1.184197	-0.270764	-0.149524
Zn18	Zn	1.684197	0.229236	0.350476
O19	O	1.181646	-0.488472	0.113498
O20	O	1.681646	0.011528	0.613498
C21	C	1.138137	-0.067412	0.000012
C22	C	1.638137	0.432588	0.500012
C23	C	1.112813	0.070044	0.000006
C24	C	1.612813	0.570044	0.500006
C25	C	0.994637	-0.282601	0.000006
C26	C	1.494637	0.217399	0.500006
C27	C	0.887015	-0.268557	0.000005
C28	C	1.387015	0.231443	0.500005
C29	C	1.344677	-0.302774	0.000008
C30	C	1.844677	0.197226	0.500008
C31	C	1.452300	-0.316816	0.000000
C32	C	1.952300	0.183184	0.500000
C33	C	1.649342	-0.342491	0.000001
C34	C	2.149342	0.157509	0.500001
C35	C	1.689979	-0.242888	0.000004
C36	C	2.189979	0.257112	0.500004
C37	C	1.799620	-0.257174	0.000005
C38	C	2.299620	0.242826	0.500005
C39	C	1.539691	-0.328207	0.000001
C40	C	2.039691	0.171793	0.500001
C41	C	1.201177	-0.517963	0.000003
C42	C	1.701177	-0.017963	0.500003
C43	C	1.226501	-0.655417	-0.000001
C44	C	1.726501	-0.155417	0.499999
N45	N	1.135277	-0.344537	0.353646
N46	N	1.635277	0.155463	0.853646
C47	C	1.182738	0.136280	0.000005
C48	C	1.682738	0.636280	0.500005
C49	C	1.156566	0.278349	-0.000000
C50	C	1.656566	0.778349	0.500000
N51	N	1.204042	-0.240830	-0.353629
N52	N	1.704042	0.259170	0.146371
C53	C	1.177287	-0.281167	0.421427
C54	C	1.677287	0.218833	0.921427
C55	C	1.162027	-0.304209	0.578594
C56	C	1.662027	0.195791	1.078594
H57	H	1.642436	-0.146870	-0.000092
H58	H	2.142436	0.353130	0.499908
F59	F	1.711493	-0.467965	-0.000010
F60	F	2.211493	0.032035	0.499990
F61	F	1.238855	-0.187719	0.345200
F62	F	1.738855	0.312281	0.845200
H63	H	1.261978	0.087810	0.000015
H64	H	1.761978	0.587810	0.500015
F65	F	1.052987	0.341691	-0.000014
F66	F	1.552987	0.841691	0.499986
F67	F	1.330083	0.281245	-0.000006
F68	F	1.830083	0.781245	0.499994
F69	F	1.266020	-0.147836	0.570152
F70	F	1.766020	0.352164	1.070152
H71	H	1.033574	0.118514	-0.000004
H72	H	1.533574	0.618514	0.499996
F73	F	1.100240	-0.397418	0.654816
F74	F	1.600240	0.102582	1.154816
H75	H	1.088010	-0.415844	0.411969
H76	H	1.588010	0.084156	0.911969
