data_functionalizedCrystal
_audit_creation_method	'MofGen! by Chris Wilmer'
_symmetry_space_group_name_H-M	'P1'
_symmetry_Int_Tables_number	1
_symmetry_cell_setting	triclinic
loop_
_symmetry_equiv_pos_as_xyz
  x,y,z
_cell_length_a	15.995350
_cell_length_b	15.995350
_cell_length_c	14.472310
_cell_angle_alpha	90.001162
_cell_angle_beta	89.990621
_cell_angle_gamma	83.492375
loop_
_atom_site_label
_atom_site_type_symbol
_atom_site_fract_x
_atom_site_fract_y
_atom_site_fract_z
O1	O	1.110997	0.107921	-0.076758
O2	O	0.867221	0.121248	-0.076776
O3	O	0.995773	-0.007303	-0.076766
O4	O	0.982445	0.236472	-0.076769
O5	O	0.995740	-0.007296	0.076916
O6	O	0.867188	0.121256	0.076906
O7	O	1.110963	0.107928	0.076924
Cu8	Cu	0.989073	0.114593	0.090947
Cu9	Cu	0.989112	0.114584	-0.090800
O10	O	0.982412	0.236480	0.076913
C11	C	0.836010	0.120701	0.000062
C12	C	0.743060	0.119049	0.000055
C13	C	0.405312	0.113117	0.000074
C14	C	0.452746	0.021565	0.000418
C15	C	0.549436	0.023217	0.000065
C16	C	0.572873	0.116060	0.000065
C17	C	0.531804	0.161212	-0.087692
C18	C	0.435169	0.158912	-0.087759
C19	C	0.434792	0.160812	0.087007
C20	C	0.531737	0.160790	0.088160
C21	C	0.667570	0.117727	0.000057
C22	C	0.310614	0.111452	0.000076
C23	C	0.995205	-0.038494	0.000073
C24	C	0.993553	-0.131444	0.000068
C25	C	0.987621	-0.469192	0.000071
C26	C	0.896069	-0.421758	-0.000281
C27	C	0.897721	-0.325068	0.000066
C28	C	0.990564	-0.301631	0.000069
C29	C	1.035701	-0.342705	0.087831
C30	C	1.033401	-0.439340	0.087904
C31	C	1.035330	-0.439707	-0.086861
C32	C	1.035309	-0.342762	-0.088021
C33	C	0.992231	-0.206934	0.000071
C34	C	0.985956	-0.563890	0.000075
C35	C	1.142175	0.108476	0.000083
C36	C	1.235125	0.110127	0.000084
C37	C	0.982980	0.267671	0.000072
C38	C	0.984631	0.360621	0.000071
N39	N	0.989051	0.114598	0.218778
N40	N	0.989140	0.114572	-0.218631
C41	C	0.989111	0.114581	0.592869
C42	C	0.920095	0.183135	0.553698
C43	C	0.920254	0.183385	0.446610
C44	C	0.989081	0.114590	0.407278
C45	C	1.076445	0.133671	0.446122
C46	C	1.076057	0.134159	0.553243
C47	C	0.971542	0.026741	0.553398
C48	C	0.969538	0.027327	0.446270
C49	C	0.989069	0.114593	0.302390
C50	C	0.989128	0.114579	0.697757
H51	H	0.433166	-0.014865	-0.062168
N52	N	0.392468	0.247950	-0.093040
H53	H	0.356594	0.254736	-0.150562
H54	H	0.355802	0.260213	-0.036743
N55	N	1.124995	-0.322420	-0.095037
H56	H	1.164549	-0.376321	-0.094254
H57	H	1.132501	-0.291198	-0.154582
N58	N	0.935126	0.269724	0.412647
H59	H	0.935290	0.270246	0.342862
H60	H	0.888848	0.312651	0.436171
N61	N	0.995704	-0.466912	-0.174976
H62	H	1.038645	-0.504636	-0.211428
H63	H	0.946416	-0.498596	-0.159355
N64	N	0.847788	-0.447695	0.082612
H65	H	0.844495	-0.510350	0.080452
H66	H	0.877505	-0.433124	0.141019
N67	N	0.428180	-0.026913	0.083771
H68	H	0.459318	-0.085478	0.082651
H69	H	0.443175	0.002976	0.141906
N70	N	1.096545	0.219019	0.586333
H71	H	1.096494	0.220186	0.656110
H72	H	1.153925	0.229288	0.562740
N73	N	0.552077	0.250476	0.095185
H74	H	0.583275	0.258045	0.154728
H75	H	0.588378	0.263381	0.041075
H76	H	1.100617	-0.471588	0.091888
N77	N	0.550521	0.251559	-0.092032
H78	H	0.585886	0.264119	-0.037021
H79	H	0.582181	0.260835	-0.150852
H80	H	0.403031	0.228313	0.087600
H81	H	0.862239	-0.296649	-0.062846
N82	N	0.888971	0.002446	0.589204
H83	H	0.899344	-0.052116	0.624684
H84	H	0.862156	0.048189	0.631346
N85	N	0.847606	-0.446307	-0.083641
H86	H	0.884523	-0.488416	-0.121989
H87	H	0.796127	-0.472243	-0.062624
N88	N	0.410932	0.115275	-0.174643
H89	H	0.348043	0.113344	-0.175554
H90	H	0.428095	0.147235	-0.230418
N91	N	0.407590	0.121169	0.175123
H92	H	0.369866	0.164101	0.211584
H93	H	0.375908	0.071881	0.159505
H94	H	0.560193	0.129845	-0.153002
N95	N	0.567896	0.117136	0.174162
H96	H	0.610745	0.068586	0.156145
H97	H	0.595889	0.158378	0.213086
H98	H	1.092297	0.197002	0.419285
N99	N	0.587084	-0.023790	0.083394
H100	H	0.540873	-0.045775	0.120686
H101	H	0.628445	-0.072481	0.062366
N102	N	0.850376	-0.288144	0.083534
H103	H	0.828354	-0.334689	0.120250
H104	H	0.889445	-0.258294	0.123453
N105	N	0.989767	-0.463588	0.174796
H106	H	0.972203	-0.411525	0.212691
H107	H	0.938380	-0.491541	0.157714
H108	H	1.129018	0.086196	0.579154
N109	N	1.146105	0.069292	0.412384
H110	H	1.121641	0.027038	0.371495
H111	H	1.188257	0.098463	0.376050
N112	N	1.126061	-0.324028	0.092147
H113	H	1.138634	-0.288672	0.037125
H114	H	1.135369	-0.292376	0.150958
N115	N	0.994142	-0.305097	0.174333
H116	H	0.933084	-0.315677	0.175202
H117	H	1.023691	-0.331942	0.230388
N118	N	0.586366	-0.024123	-0.083403
H119	H	0.539824	-0.046142	-0.120114
H120	H	0.616222	0.014946	-0.123326
N121	N	1.124746	-0.481765	-0.087636
H122	H	1.155090	-0.462578	-0.143629
H123	H	1.154527	-0.466039	-0.029720
N124	N	0.991651	-0.306618	-0.174027
H125	H	0.943093	-0.263777	-0.156015
H126	H	1.032884	-0.278621	-0.212971
H127	H	0.855314	0.172016	0.420349
H128	H	0.854945	0.171953	0.579481
N129	N	0.934771	0.269003	0.589294
H130	H	0.985928	0.263688	0.630689
H131	H	0.944211	0.306955	0.535419
N132	N	0.884382	0.008168	0.412709
H133	H	0.858567	0.055805	0.372406
H134	H	0.891055	-0.045771	0.375811
N135	N	1.031802	-0.043420	0.410827
H136	H	1.073748	-0.019801	0.368805
H137	H	1.062380	-0.073060	0.464724
H138	H	1.021872	-0.024275	0.578728
