data_functionalizedCrystal
_audit_creation_method	'MofGen! by Chris Wilmer'
_symmetry_space_group_name_H-M	'P1'
_symmetry_Int_Tables_number	1
_symmetry_cell_setting	triclinic
loop_
_symmetry_equiv_pos_as_xyz
  x,y,z
_cell_length_a	10.654549
_cell_length_b	14.044220
_cell_length_c	9.730223
_cell_angle_alpha	89.994583
_cell_angle_beta	89.997731
_cell_angle_gamma	88.836827
loop_
_atom_site_label
_atom_site_type_symbol
_atom_site_fract_x
_atom_site_fract_y
_atom_site_fract_z
O1	O	1.681228	0.133230	-0.114262
O2	O	1.317025	0.145924	-0.114272
O3	O	1.493659	0.001556	-0.114254
O4	O	1.504593	0.277597	-0.114281
O5	O	1.493647	0.001552	0.114326
O6	O	1.317012	0.145920	0.114308
O7	O	1.681215	0.133226	0.114318
Zn8	Zn	1.499111	0.139572	0.150605
Zn9	Zn	1.499128	0.139577	-0.150559
O10	O	1.504580	0.277593	0.114299
C11	C	1.270127	0.144990	0.000016
C12	C	1.130403	0.142201	0.000013
C13	C	0.928166	0.224576	0.000011
C14	C	1.059451	0.227203	0.000002
C15	C	1.070064	0.054567	0.000019
C16	C	0.938782	0.051941	0.000017
C17	C	1.488867	-0.033792	0.000037
C18	C	1.474592	-0.139111	0.000038
C19	C	1.448493	-0.331944	0.000017
C20	C	1.549741	-0.388912	0.000016
C21	C	1.535219	-0.496211	0.000005
C22	C	1.463013	-0.224635	0.000029
C23	C	1.728113	0.134160	0.000026
C24	C	1.867836	0.136948	0.000020
C25	C	1.509372	0.312941	0.000006
C26	C	1.523648	0.418261	-0.000005
N27	N	1.499109	0.139568	0.356141
N28	N	1.499140	0.139574	-0.356096
C29	C	1.577355	0.075669	0.428075
C30	C	1.577367	0.075670	0.571958
C31	C	1.420885	0.203476	0.571960
C32	C	1.420867	0.203470	0.428080
H33	H	1.108565	0.298557	-0.000007
H34	H	1.647328	-0.357099	-0.000074
H35	H	0.889661	-0.019420	0.000020
N36	N	1.326085	-0.371860	0.000005
N37	N	1.314317	-0.460233	-0.000003
H38	H	1.227867	-0.488435	-0.000009
H39	H	1.641062	0.023635	0.369506
N40	N	1.657295	0.010387	0.645415
N41	N	1.727137	-0.046663	0.581162
H42	H	1.783588	-0.092774	0.633039
N43	N	1.340957	0.268737	0.645450
N44	N	1.259591	0.238090	0.725758
H45	H	1.203139	0.284182	0.777661
N46	N	1.340919	0.268745	0.354612
N47	N	1.271072	0.325798	0.418856
H48	H	1.214607	0.371894	0.366970
H49	H	0.870406	0.293794	0.000012
N50	N	1.142555	-0.032252	0.000013
N51	N	1.259769	-0.029897	0.000014
H52	H	1.310966	-0.091215	0.000011
