data_functionalizedCrystal
_audit_creation_method	'MofGen! by Chris Wilmer'
_symmetry_space_group_name_H-M	'P1'
_symmetry_Int_Tables_number	1
_symmetry_cell_setting	triclinic
loop_
_symmetry_equiv_pos_as_xyz
  x,y,z
_cell_length_a	26.455835
_cell_length_b	26.455273
_cell_length_c	26.451828
_cell_angle_alpha	60.005170
_cell_angle_beta	60.010757
_cell_angle_gamma	59.993435
loop_
_atom_site_label
_atom_site_type_symbol
_atom_site_fract_x
_atom_site_fract_y
_atom_site_fract_z
O1	O	0.069940	-0.738516	0.617604
O2	O	0.569940	-0.238516	1.117604
O3	O	0.026299	-0.574986	0.497618
O4	O	0.526299	-0.074986	0.997618
O5	O	0.129847	-0.678463	0.497546
O6	O	0.629847	-0.178463	0.997546
O7	O	-0.033607	-0.635040	0.617676
O8	O	0.466393	-0.135040	1.117676
O9	O	0.164197	-0.644116	0.531822
O10	O	0.664197	-0.144116	1.031822
O11	O	0.060649	-0.540639	0.531894
O12	O	0.560649	-0.040639	1.031894
O13	O	0.104290	-0.704170	0.651880
O14	O	0.604290	-0.204170	1.151880
Cu15	Cu	0.085606	-0.619268	0.595016
Cu16	Cu	0.585606	-0.119268	1.095016
Cu17	Cu	0.044984	-0.659887	0.554481
Cu18	Cu	0.544984	-0.159887	1.054481
O19	O	0.000742	-0.600693	0.651952
O20	O	0.500742	-0.100693	1.151952
N21	N	0.114179	-0.590703	0.623530
N22	N	0.614179	-0.090703	1.123530
N23	N	0.016416	-0.688458	0.525968
N24	N	0.516416	-0.188458	1.025968
C25	C	0.157553	-0.547535	0.933368
C26	C	0.657553	-0.047535	1.433368
C27	C	0.424104	-0.547506	0.666656
C28	C	0.924104	-0.047506	1.166656
C29	C	0.157413	-0.547503	0.666729
C30	C	0.657413	-0.047503	1.166729
C31	C	0.157397	-0.280846	0.666749
C32	C	0.657397	0.219154	1.166749
C33	C	0.200330	-0.409550	0.709625
C34	C	0.700330	0.090450	1.209625
C35	C	0.200339	-0.504608	0.709615
C36	C	0.700339	-0.004608	1.209615
C37	C	0.224118	-0.480848	0.733375
C38	C	0.724118	0.019152	1.233375
C39	C	0.327800	-0.462984	0.678792
C40	C	0.827800	0.037016	1.178792
C41	C	0.392611	-0.484588	0.657175
C42	C	0.892611	0.015412	1.157175
C43	C	0.392630	-0.589450	0.697162
C44	C	0.892630	-0.089450	1.197162
C45	C	0.327821	-0.567844	0.718781
C46	C	0.827821	-0.067844	1.218781
C47	C	0.215955	-0.377135	0.645910
C48	C	0.715955	0.122865	1.145910
C49	C	0.194327	-0.312320	0.624323
C50	C	0.694327	0.187680	1.124323
C51	C	0.141457	-0.312339	0.730169
C52	C	0.641457	0.187661	1.230169
C53	C	0.163084	-0.377154	0.751756
C54	C	0.663084	0.122846	1.251756
C55	C	0.136618	-0.488954	0.725292
C56	C	0.636618	0.011046	1.225292
C57	C	0.115007	-0.510553	0.703686
C58	C	0.615007	-0.010553	1.203686
C59	C	0.220833	-0.563461	0.650740
C60	C	0.720833	-0.063461	1.150740
C61	C	0.242447	-0.541861	0.672339
C62	C	0.742447	-0.041861	1.172339
C63	C	0.136680	-0.488971	0.837094
C64	C	0.636680	0.011029	1.337094
C65	C	0.115112	-0.510589	0.901907
C66	C	0.615112	-0.010589	1.401907
C67	C	0.220969	-0.563508	0.901868
C68	C	0.720969	-0.063508	1.401868
C69	C	0.242535	-0.541892	0.837053
C70	C	0.742535	-0.041892	1.337053
C71	C	0.200389	-0.504622	0.804668
C72	C	0.700389	-0.004622	1.304668
C73	C	0.295409	-0.504610	0.709593
C74	C	0.795409	-0.004610	1.209593
C75	C	0.132990	-0.570876	1.004655
C76	C	0.632990	-0.070876	1.504655
C77	C	0.495389	-0.570440	0.642547
C78	C	0.995389	-0.070440	1.142547
C79	C	0.132802	-0.570856	0.643399
C80	C	0.632802	-0.070856	1.143399
C81	C	0.133212	-0.209553	0.643833
C82	C	0.633212	0.290447	1.143833
C83	C	-0.097217	-0.706972	0.506986
C84	C	0.402783	-0.206972	1.006986
C85	C	-0.002040	-0.707108	0.412067
C86	C	0.497960	-0.207108	0.912067
C87	C	-0.002230	-0.802124	0.507163
C88	C	0.497770	-0.302124	1.007163
C89	C	-0.002214	-0.707101	0.507221
C90	C	0.497786	-0.207101	1.007221
C91	C	-0.025925	-0.730827	0.483360
C92	C	0.474075	-0.230827	0.983360
N93	N	0.553723	-0.590712	0.623415
N94	N	1.053723	-0.090712	1.123415
O95	O	0.751638	-0.596429	0.475603
O96	O	1.251638	-0.096429	0.975603
O97	O	0.751819	-0.716773	0.638980
O98	O	1.251819	-0.216773	1.138980
O99	O	0.751753	-0.716500	0.535361
O100	O	1.251753	-0.216500	1.035361
O101	O	0.751705	-0.596703	0.579222
O102	O	1.251705	-0.096703	1.079222
O103	O	0.648791	-0.682239	0.569747
O104	O	1.148791	-0.182239	1.069747
O105	O	0.648858	-0.682512	0.673366
O106	O	1.148858	-0.182512	1.173366
O107	O	0.648676	-0.562169	0.509989
O108	O	1.148676	-0.062169	1.009989
Cu109	Cu	0.639366	-0.619212	0.594817
Cu110	Cu	1.139366	-0.119212	1.094817
Cu111	Cu	0.761130	-0.659729	0.554152
Cu112	Cu	1.261130	-0.159729	1.054152
O113	O	0.648743	-0.562442	0.613609
O114	O	1.148743	-0.062442	1.113609
N115	N	0.846773	-0.688230	0.525548
N116	N	1.346773	-0.188230	1.025548
N117	N	0.114157	-0.151217	0.623565
N118	N	0.614157	0.348783	1.123565
O119	O	-0.033591	0.046803	0.617717
O120	O	0.466409	0.546803	1.117717
O121	O	0.129795	0.046806	0.497390
O122	O	0.629795	0.546806	0.997390
O123	O	0.026157	0.046789	0.497680
O124	O	0.526157	0.546789	0.997680
O125	O	0.070046	0.046819	0.617427
O126	O	0.570046	0.546819	1.117427
O127	O	0.060509	-0.056181	0.532004
O128	O	0.560509	0.443819	1.032004
O129	O	0.164146	-0.056164	0.531714
O130	O	0.664146	0.443836	1.031714
O131	O	0.000760	-0.056167	0.652041
O132	O	0.500760	0.443833	1.152041
Cu133	Cu	0.085590	-0.065568	0.595012
Cu134	Cu	0.585590	0.434432	1.095012
Cu135	Cu	0.044965	0.056206	0.554419
Cu136	Cu	0.544965	0.556206	1.054419
O137	O	0.104397	-0.056151	0.651751
O138	O	0.604397	0.443849	1.151751
N139	N	0.016390	0.141855	0.525867
N140	N	0.516390	0.641855	1.025867
N141	N	0.114410	-0.590756	1.062992
N142	N	0.614410	-0.090756	1.562992
O143	O	0.108565	-0.738494	1.260998
O144	O	0.608565	-0.238494	1.760998
O145	O	-0.011747	-0.575059	1.261012
O146	O	0.488253	-0.075059	1.761012
O147	O	-0.011470	-0.678679	1.260970
O148	O	0.488530	-0.178679	1.760970
O149	O	0.108287	-0.634874	1.261040
O150	O	0.608287	-0.134874	1.761040
O151	O	0.022849	-0.644347	1.158004
O152	O	0.522849	-0.144347	1.658004
O153	O	0.022572	-0.540726	1.158046
O154	O	0.522572	-0.040726	1.658046
O155	O	0.142884	-0.704162	1.158033
O156	O	0.642884	-0.204162	1.658033
Cu157	Cu	0.085861	-0.619309	1.148638
Cu158	Cu	0.585861	-0.119309	1.648638
Cu159	Cu	0.045275	-0.659911	1.270406
Cu160	Cu	0.545275	-0.159911	1.770406
O161	O	0.142606	-0.600541	1.158074
O162	O	0.642606	-0.100541	1.658074
N163	N	0.016726	-0.688471	1.356052
N164	N	0.516726	-0.188471	1.856052
C165	C	0.039385	-0.537207	0.498225
C166	C	0.539385	-0.037207	0.998225
C167	C	0.167616	-0.665350	0.498136
C168	C	0.667616	-0.165350	0.998136
C169	C	0.091204	-0.741950	0.651272
C170	C	0.591204	-0.241950	1.151272
C171	C	-0.037027	-0.613806	0.651361
C172	C	0.462973	-0.113806	1.151361
C173	C	0.700360	-0.716215	0.676756
C174	C	1.200360	-0.216215	1.176756
C175	C	0.700279	-0.715877	0.548436
C176	C	1.200279	-0.215877	1.048436
C177	C	0.700133	-0.562725	0.472214
C178	C	1.200133	-0.062725	0.972214
C179	C	0.700218	-0.563065	0.600533
C180	C	1.200218	-0.063065	1.100533
C181	C	0.167511	-0.004552	0.497940
C182	C	0.667511	0.495448	0.997940
C183	C	0.039211	-0.004699	0.498341
C184	C	0.539211	0.495301	0.998341
C185	C	-0.036999	-0.004682	0.651449
C186	C	0.463001	0.495318	1.151449
C187	C	0.091344	-0.004663	0.651090
C188	C	0.591344	0.495337	1.151090
C189	C	-0.011156	-0.537302	1.209530
C190	C	0.488844	-0.037302	1.709530
C191	C	-0.010806	-0.665617	1.209458
C192	C	0.489194	-0.165617	1.709458
C193	C	0.142293	-0.741918	1.209514
C194	C	0.642293	-0.241918	1.709514
C195	C	0.141950	-0.613596	1.209563
C196	C	0.641950	-0.113596	1.709563
H197	H	0.063231	-0.497836	0.928300
H198	H	0.563231	0.002164	1.428300
O199	O	-0.093024	-0.004564	0.696462
O200	O	0.406976	0.495436	1.196462
C201	C	-0.203162	0.048776	0.726347
C202	C	0.296838	0.548776	1.226347
C203	C	-0.139752	0.048722	0.675322
C204	C	0.360248	0.548722	1.175322
H205	H	-0.240960	0.091846	0.709268
H206	H	0.259040	0.591846	1.209268
H207	H	-0.203264	0.048828	0.769470
H208	H	0.296736	0.548828	1.269470
H209	H	-0.212207	0.005663	0.738063
H210	H	0.287793	0.505663	1.238063
H211	H	-0.130667	0.091828	0.663553
H212	H	0.369333	0.591828	1.163553
H213	H	-0.139681	0.048637	0.632230
H214	H	0.360319	0.548637	1.132230
O215	O	0.700312	-0.761275	0.732758
O216	O	1.200312	-0.261275	1.232758
C217	C	0.647090	-0.829050	0.823601
C218	C	1.147090	-0.329050	1.323601
C219	C	0.647058	-0.778010	0.760200
C220	C	1.147058	-0.278010	1.260200
H221	H	0.604045	-0.842604	0.845801
H222	H	1.104045	-0.342604	1.345801
H223	H	0.647058	-0.811127	0.854866
H224	H	1.147058	-0.311127	1.354866
H225	H	0.690222	-0.871237	0.817052
H226	H	1.190222	-0.371237	1.317052
H227	H	0.603933	-0.735805	0.766691
H228	H	1.103933	-0.235805	1.266691
H229	H	0.647122	-0.795982	0.728958
H230	H	1.147122	-0.295982	1.228958
O231	O	0.028381	-0.481193	0.453205
O232	O	0.528381	0.018807	0.953205
C233	C	0.068985	-0.417559	0.348841
C234	C	0.568985	0.082441	0.848841
C235	C	0.081533	-0.481015	0.399776
C236	C	0.581533	0.018985	0.899776
H237	H	0.111945	-0.417398	0.305627
H238	H	0.611945	0.082602	0.805627
H239	H	0.057250	-0.379770	0.365893
H240	H	0.557250	0.120230	0.865893
H241	H	0.028444	-0.408543	0.337285
H242	H	0.528444	0.091457	0.837285
H243	H	0.122081	-0.490090	0.411356
H244	H	0.622081	0.009910	0.911356
H245	H	0.093231	-0.518769	0.382697
H246	H	0.593231	-0.018769	0.882697
O247	O	0.700147	-0.517627	0.416238
O248	O	1.200147	-0.017627	0.916238
C249	C	0.753401	-0.449905	0.325354
C250	C	1.253401	0.050095	0.825354
C251	C	0.753455	-0.500966	0.388741
C252	C	1.253455	-0.000966	0.888741
H253	H	0.796502	-0.436428	0.303099
H254	H	1.296502	0.063572	0.803099
H255	H	0.710317	-0.407667	0.331860
H256	H	1.210317	0.092333	0.831860
H257	H	0.753360	-0.467852	0.294156
H258	H	1.253360	0.032148	0.794156
H259	H	0.753518	-0.483076	0.419972
H260	H	1.253518	0.016924	0.919972
H261	H	0.796535	-0.543194	0.382187
H262	H	1.296535	-0.043194	0.882187
H263	H	0.029814	-0.004702	0.460721
H264	H	0.529814	0.495298	0.960721
H265	H	0.700208	-0.525435	0.609919
H266	H	1.200208	-0.025435	1.109919
H267	H	0.100526	-0.788925	0.688956
H268	H	0.600526	-0.288925	1.188956
H269	H	-0.083976	-0.604550	0.689083
H270	H	0.416024	-0.104550	1.189083
O271	O	0.223397	-0.004179	0.452815
O272	O	0.723397	0.495821	0.952815
C273	C	0.325227	-0.003698	0.423867
C274	C	0.825227	0.496302	0.923867
C275	C	0.261960	-0.004105	0.475020
C276	C	0.761960	0.495895	0.975020
H277	H	0.356428	-0.003651	0.441805
H278	H	0.856428	0.496349	0.941805
H279	H	0.318501	0.039497	0.381776
H280	H	0.818501	0.539497	0.881776
H281	H	0.347606	-0.046687	0.410160
H282	H	0.847606	0.453313	0.910160
H283	H	0.239547	0.038854	0.488779
H284	H	0.739547	0.538854	0.988779
H285	H	0.268727	-0.047329	0.517077
H286	H	0.768727	0.452671	1.017077
O287	O	0.700270	-0.760698	0.537149
O288	O	1.200270	-0.260698	1.037149
C289	C	0.700276	-0.789032	0.463584
C290	C	1.200276	-0.289032	0.963584
C291	C	0.700272	-0.738213	0.476288
C292	C	1.200272	-0.238213	0.976288
H293	H	0.700290	-0.770876	0.414375
H294	H	1.200290	-0.270876	0.914375
H295	H	0.657206	-0.802589	0.497836
H296	H	1.157206	-0.302589	0.997836
H297	H	0.743384	-0.831276	0.469128
H298	H	1.243384	-0.331276	0.969128
H299	H	0.657192	-0.695937	0.470736
H300	H	1.157192	-0.195937	0.970736
H301	H	0.743370	-0.724709	0.442038
H302	H	1.243370	-0.224709	0.942038
H303	H	-0.048413	-0.674973	1.209396
H304	H	0.451587	-0.174973	1.709396
H305	H	0.100739	-0.004653	0.688708
H306	H	0.600739	0.495347	1.188708
O307	O	0.187378	-0.797917	1.209592
O308	O	0.687378	-0.297917	1.709592
C309	C	0.255044	-0.888814	1.262960
C310	C	0.755044	-0.388814	1.762960
C311	C	0.203997	-0.825401	1.262942
C312	C	0.703997	-0.325401	1.762942
H313	H	0.268487	-0.911059	1.306095
H314	H	0.768487	-0.411059	1.806095
H315	H	0.297298	-0.882345	1.219907
H316	H	0.797298	-0.382345	1.719907
H317	H	0.237103	-0.920004	1.262908
H318	H	0.737103	-0.420004	1.762908
H319	H	0.221880	-0.794178	1.263015
H320	H	0.721880	-0.294178	1.763015
H321	H	0.161753	-0.831917	1.305991
H322	H	0.661753	-0.331917	1.805991
O323	O	-0.056162	-0.481280	1.209561
O324	O	0.443838	0.018720	1.709561
C325	C	-0.084930	-0.379277	1.209550
C326	C	0.415070	0.120723	1.709550
C327	C	-0.033912	-0.442698	1.209531
C328	C	0.466088	0.057302	1.709531
H329	H	-0.066955	-0.348061	1.209513
H330	H	0.433045	0.151939	1.709513
H331	H	-0.127156	-0.385737	1.252643
H332	H	0.372844	0.114263	1.752643
H333	H	-0.098438	-0.357067	1.166461
H334	H	0.401562	0.142933	1.666461
H335	H	-0.020351	-0.464942	1.252591
H336	H	0.479649	0.035058	1.752591
H337	H	0.008280	-0.436197	1.166410
H338	H	0.508280	0.063803	1.666410
O339	O	0.186779	-0.602309	1.209552
O340	O	0.686779	-0.102309	1.709552
C341	C	0.215080	-0.528777	1.209621
C342	C	0.715080	-0.028777	1.709621
C343	C	0.164263	-0.541473	1.209619
C344	C	0.664263	-0.041473	1.709619
H345	H	0.196891	-0.479597	1.209689
H346	H	0.696891	0.020403	1.709689
H347	H	0.257335	-0.534277	1.166521
H348	H	0.757335	-0.034277	1.666521
H349	H	0.228626	-0.563084	1.252703
H350	H	0.728626	-0.063084	1.752703
H351	H	0.150665	-0.507177	1.166566
H352	H	0.650665	-0.007177	1.666566
H353	H	0.122042	-0.535995	1.252748
H354	H	0.622042	-0.035995	1.752748
H355	H	0.255291	-0.593843	0.928229
H356	H	0.755291	-0.093843	1.428229
O357	O	0.095652	-0.452796	0.805731
O358	O	0.595652	0.047204	1.305731
C359	C	-0.011619	-0.402556	0.812610
C360	C	0.488381	0.097444	1.312610
C361	C	0.034772	-0.443537	0.848206
C362	C	0.534772	0.056463	1.348206
H363	H	-0.060851	-0.395047	0.846936
H364	H	0.439149	0.104953	1.346936
H365	H	-0.004214	-0.426291	0.782283
H366	H	0.495786	0.073709	1.282283
H367	H	-0.004131	-0.355950	0.782253
H368	H	0.495869	0.144050	1.282253
H369	H	0.027311	-0.490150	0.878596
H370	H	0.527311	0.009850	1.378596
H371	H	0.027355	-0.419754	0.878494
H372	H	0.527355	0.080246	1.378494
H373	H	0.294416	-0.554643	0.810656
H374	H	0.794416	-0.054643	1.310656
H375	H	0.063121	-0.497793	0.716436
H376	H	0.563121	0.002207	1.216436
O377	O	0.261822	-0.599623	0.614519
O378	O	0.761822	-0.099623	1.114519
C379	C	0.369072	-0.649854	0.564319
C380	C	0.869072	-0.149854	1.064319
C381	C	0.322719	-0.608885	0.605334
C382	C	0.822719	-0.108885	1.105334
H383	H	0.418318	-0.657366	0.556891
H384	H	0.918318	-0.157366	1.056891
H385	H	0.361628	-0.626108	0.517679
H386	H	0.861628	-0.126108	1.017679
H387	H	0.361582	-0.696460	0.588061
H388	H	0.861582	-0.196460	1.088061
H389	H	0.330181	-0.562272	0.581646
H390	H	0.830181	-0.062272	1.081646
H391	H	0.330175	-0.632679	0.651971
H392	H	0.830175	-0.132679	1.151971
H393	H	0.294333	-0.554601	0.659567
H394	H	0.794333	-0.054601	1.159567
O395	O	0.296326	-0.608272	0.748798
O396	O	0.796326	-0.108272	1.248798
C397	C	0.223161	-0.651540	0.842958
C398	C	0.723161	-0.151540	1.342958
C399	C	0.258801	-0.605743	0.809040
C400	C	0.758801	-0.105743	1.309040
H401	H	0.192804	-0.649501	0.891665
H402	H	0.692804	-0.149501	1.391665
H403	H	0.257434	-0.700464	0.845858
H404	H	0.757434	-0.200464	1.345858
H405	H	0.192828	-0.638526	0.816436
H406	H	0.692828	-0.138526	1.316436
H407	H	0.289135	-0.618700	0.835533
H408	H	0.789135	-0.118700	1.335533
H409	H	0.224495	-0.556831	0.806134
H410	H	0.724495	-0.056831	1.306134
O411	O	0.424055	-0.650879	0.706043
O412	O	0.924055	-0.150879	1.206043
C413	C	0.443916	-0.740275	0.687002
C414	C	0.943916	-0.240275	1.187002
C415	C	0.408279	-0.670712	0.676911
C416	C	0.908279	-0.170712	1.176911
H417	H	0.431184	-0.756329	0.663444
H418	H	0.931184	-0.256329	1.163444
H419	H	0.431189	-0.767435	0.738716
H420	H	0.931189	-0.267435	1.238716
H421	H	0.495798	-0.748551	0.666279
H422	H	0.995798	-0.248551	1.166279
H423	H	0.356389	-0.662378	0.697598
H424	H	0.856389	-0.162378	1.197598
H425	H	0.421057	-0.643587	0.625190
H426	H	0.921057	-0.143587	1.125190
O427	O	0.423982	-0.444065	0.627241
O428	O	0.923982	0.055935	1.127241
C429	C	0.417125	-0.337780	0.589888
C430	C	0.917125	0.162220	1.089888
C431	C	0.381518	-0.383604	0.623786
C432	C	0.881518	0.116396	1.123786
H433	H	0.382809	-0.288889	0.587095
H434	H	0.882809	0.211111	1.087095
H435	H	0.447432	-0.339715	0.541139
H436	H	0.947432	0.160285	1.041139
H437	H	0.447501	-0.350825	0.616378
H438	H	0.947501	0.149175	1.116378
H439	H	0.351108	-0.370590	0.597348
H440	H	0.851108	0.129410	1.097348
H441	H	0.351250	-0.381662	0.672538
H442	H	0.851250	0.118338	1.172538
O443	O	0.223575	-0.676395	0.453072
O444	O	0.723575	-0.176395	0.953072
C445	C	0.278903	-0.681929	0.349874
C446	C	0.778903	-0.181929	0.849874
C447	C	0.215493	-0.669419	0.400861
C448	C	0.715493	-0.169419	0.900861
H449	H	0.272389	-0.676281	0.307644
H450	H	0.772389	-0.176281	0.807644
H451	H	0.310088	-0.731115	0.367847
H452	H	0.810088	-0.231115	0.867847
H453	H	0.301175	-0.647608	0.336370
H454	H	0.801175	-0.147608	0.836370
H455	H	0.193167	-0.703701	0.414386
H456	H	0.693167	-0.203701	0.914386
H457	H	0.184351	-0.620217	0.382859
H458	H	0.684351	-0.120217	0.882859
H459	H	0.301415	-0.411495	0.671309
H460	H	0.801415	0.088505	1.171309
O461	O	0.252041	-0.408580	0.604965
O462	O	0.752041	0.091420	1.104965
C463	C	0.260289	-0.428372	0.521097
C464	C	0.760289	0.071628	1.021097
C465	C	0.219352	-0.392734	0.567445
C466	C	0.719352	0.107266	1.067445
H467	H	0.233881	-0.415564	0.490742
H468	H	0.733881	0.084436	0.990742
H469	H	0.273050	-0.480272	0.547441
H470	H	0.773050	0.019728	1.047441
H471	H	0.304266	-0.415630	0.490767
H472	H	0.804266	0.084370	0.990767
H473	H	0.175349	-0.405424	0.597787
H474	H	0.675349	0.094576	1.097787
H475	H	0.206640	-0.340843	0.541063
H476	H	0.706640	0.159157	1.041063
O477	O	0.209395	-0.280800	0.562433
O478	O	0.709395	0.219200	1.062433
C479	C	0.172102	-0.207578	0.476648
C480	C	0.672102	0.292422	0.976648
C481	C	0.154951	-0.243246	0.546741
C482	C	0.654951	0.256754	1.046741
H483	H	0.128094	-0.177197	0.463941
H484	H	0.628094	0.322803	0.963941
H485	H	0.202409	-0.241837	0.450211
H486	H	0.702409	0.258163	0.950211
H487	H	0.198508	-0.177261	0.463906
H488	H	0.698508	0.322739	0.963906
H489	H	0.128523	-0.273564	0.559541
H490	H	0.628523	0.226436	1.059541
H491	H	0.124674	-0.208954	0.573140
H492	H	0.624674	0.291046	1.073140
H493	H	0.102328	-0.458621	0.755642
H494	H	0.602328	0.041379	1.255642
H495	H	0.111138	-0.285961	0.764475
H496	H	0.611138	0.214039	1.264475
H497	H	0.150353	-0.403547	0.803641
H498	H	0.650353	0.096453	1.303641
