data_functionalizedCrystal
_audit_creation_method	'MofGen! by Chris Wilmer'
_symmetry_space_group_name_H-M	'P1'
_symmetry_Int_Tables_number	1
_symmetry_cell_setting	triclinic
loop_
_symmetry_equiv_pos_as_xyz
  x,y,z
_cell_length_a	26.210047
_cell_length_b	27.732048
_cell_length_c	27.732048
_cell_angle_alpha	82.642654
_cell_angle_beta	90.000479
_cell_angle_gamma	90.011447
loop_
_atom_site_label
_atom_site_type_symbol
_atom_site_fract_x
_atom_site_fract_y
_atom_site_fract_z
O1	O	0.042463	0.640931	0.057510
O2	O	0.292463	0.890931	0.307510
O3	O	0.542463	1.140931	0.557510
O4	O	0.792463	1.390931	0.807510
O5	O	0.042459	0.500138	0.066255
O6	O	0.292459	0.750138	0.316255
O7	O	0.542459	1.000138	0.566255
O8	O	0.792459	1.250138	0.816255
O9	O	0.042451	0.574907	-0.008514
O10	O	0.292451	0.824907	0.241486
O11	O	0.542451	1.074907	0.491486
O12	O	0.792451	1.324907	0.741486
O13	O	0.042470	0.566162	0.132279
O14	O	0.292470	0.816162	0.382279
O15	O	0.542470	1.066162	0.632279
O16	O	0.792470	1.316162	0.882279
O17	O	-0.042407	0.574893	-0.008502
O18	O	0.207593	0.824893	0.241498
O19	O	0.457593	1.074893	0.491498
O20	O	0.707593	1.324893	0.741498
O21	O	-0.042399	0.500123	0.066267
O22	O	0.207601	0.750123	0.316267
O23	O	0.457601	1.000123	0.566267
O24	O	0.707601	1.250123	0.816267
O25	O	-0.042395	0.640917	0.057522
O26	O	0.207605	0.890917	0.307522
O27	O	0.457605	1.140917	0.557522
O28	O	0.707605	1.390917	0.807522
Cu29	Cu	-0.050145	0.570519	0.061895
Cu30	Cu	0.199855	0.820519	0.311895
Cu31	Cu	0.449855	1.070519	0.561895
Cu32	Cu	0.699855	1.320519	0.811895
Cu33	Cu	0.050209	0.570536	0.061882
Cu34	Cu	0.300209	0.820536	0.311882
Cu35	Cu	0.550209	1.070536	0.561882
Cu36	Cu	0.800209	1.320536	0.811882
O37	O	-0.042388	0.566147	0.132291
O38	O	0.207612	0.816147	0.382291
O39	O	0.457612	1.066147	0.632291
O40	O	0.707612	1.316147	0.882291
C41	C	0.000029	0.482124	0.066078
C42	C	0.250029	0.732124	0.316078
C43	C	0.500029	0.982124	0.566078
C44	C	0.750029	1.232124	0.816078
C45	C	0.000027	0.428469	0.065525
C46	C	0.250027	0.678469	0.315525
C47	C	0.500027	0.928469	0.565525
C48	C	0.750027	1.178469	0.815525
N49	N	-0.120729	0.570510	0.061905
N50	N	0.129271	0.820510	0.311905
N51	N	0.379271	1.070510	0.561905
N52	N	0.629271	1.320510	0.811905
C53	C	0.000021	0.574716	-0.026515
C54	C	0.250021	0.824716	0.223485
C55	C	0.500021	1.074716	0.473485
C56	C	0.750021	1.324716	0.723485
C57	C	0.000017	0.574164	-0.080170
C58	C	0.250017	0.824164	0.169830
C59	C	0.500017	1.074164	0.419830
C60	C	0.750017	1.324164	0.669830
C61	C	-0.473247	0.603640	0.028781
C62	C	-0.223247	0.853640	0.278781
C63	C	0.026753	1.103640	0.528781
C64	C	0.276753	1.353640	0.778781
C65	C	-0.686905	0.603651	0.028774
C66	C	-0.436905	0.853651	0.278774
C67	C	-0.186905	1.103651	0.528774
C68	C	0.063095	1.353651	0.778774
O69	O	-0.714530	0.631801	0.000614
O70	O	-0.464530	0.881801	0.250614
O71	O	-0.214530	1.131801	0.500614
O72	O	0.035470	1.381801	0.750614
N73	N	-0.713623	0.570538	0.061871
N74	N	-0.463623	0.820538	0.311871
N75	N	-0.213623	1.070538	0.561871
N76	N	0.036377	1.320538	0.811871
C77	C	-0.686923	0.537419	0.094970
C78	C	-0.436923	0.787419	0.344970
C79	C	-0.186923	1.037419	0.594970
C80	C	0.063077	1.287419	0.844970
O81	O	-0.714551	0.509251	0.123117
O82	O	-0.464551	0.759251	0.373117
O83	O	-0.214551	1.009251	0.623117
O84	O	0.035449	1.259251	0.873117
C85	C	-0.473266	0.537406	0.094974
C86	C	-0.223266	0.787406	0.344974
C87	C	0.026734	1.037406	0.594974
C88	C	0.276734	1.287406	0.844974
C89	C	-0.446550	0.570524	0.061878
C90	C	-0.196550	0.820524	0.311878
C91	C	0.053450	1.070524	0.561878
C92	C	0.303450	1.320524	0.811878
C93	C	-0.446531	0.636755	-0.004312
C94	C	-0.196531	0.886755	0.245688
C95	C	0.053469	1.136755	0.495688
C96	C	0.303469	1.386755	0.745688
C97	C	-0.393120	0.636754	-0.004308
C98	C	-0.143120	0.886754	0.245692
C99	C	0.106880	1.136754	0.495692
C100	C	0.356880	1.386754	0.745692
C101	C	-0.366424	0.603638	0.028789
C102	C	-0.116424	0.853638	0.278789
C103	C	0.133576	1.103638	0.528789
C104	C	0.383576	1.353638	0.778789
C105	C	-0.393139	0.570523	0.061882
C106	C	-0.143139	0.820523	0.311882
C107	C	0.106861	1.070523	0.561882
C108	C	0.356861	1.320523	0.811882
C109	C	-0.446567	0.504284	0.128070
C110	C	-0.196567	0.754284	0.378070
C111	C	0.053433	1.004284	0.628070
C112	C	0.303433	1.254284	0.878070
C113	C	-0.393149	0.504283	0.128067
C114	C	-0.143149	0.754283	0.378067
C115	C	0.106851	1.004283	0.628067
C116	C	0.356851	1.254283	0.878067
C117	C	-0.366434	0.537401	0.094971
C118	C	-0.116434	0.787401	0.344971
C119	C	0.133566	1.037401	0.594971
C120	C	0.383566	1.287401	0.844971
C121	C	-0.313031	0.537405	0.094983
C122	C	-0.063031	0.787405	0.344983
C123	C	0.186969	1.037405	0.594983
C124	C	0.436969	1.287405	0.844983
N125	N	-0.286313	0.570518	0.061886
N126	N	-0.036313	0.820518	0.311886
N127	N	0.213687	1.070518	0.561886
N128	N	0.463687	1.320518	0.811886
C129	C	-0.313010	0.603634	0.028789
C130	C	-0.063010	0.853634	0.278789
C131	C	0.186990	1.103634	0.528789
C132	C	0.436990	1.353634	0.778789
C133	C	-0.799097	0.537428	0.094966
C134	C	-0.549097	0.787428	0.344966
C135	C	-0.299097	1.037428	0.594966
C136	C	-0.049097	1.287428	0.844966
C137	C	-0.852511	0.537432	0.094965
C138	C	-0.602511	0.787432	0.344965
C139	C	-0.352511	1.037432	0.594965
C140	C	-0.102511	1.287432	0.844965
C141	C	-0.852489	0.603664	0.028769
C142	C	-0.602489	0.853664	0.278769
C143	C	-0.352489	1.103664	0.528769
C144	C	-0.102489	1.353664	0.778769
C145	C	-0.799074	0.603662	0.028773
C146	C	-0.549074	0.853662	0.278773
C147	C	-0.299074	1.103662	0.528773
C148	C	-0.049074	1.353662	0.778773
C149	C	-0.772379	0.570541	0.061869
C150	C	-0.522379	0.820541	0.311869
C151	C	-0.272379	1.070541	0.561869
C152	C	-0.022379	1.320541	0.811869
C153	C	-0.200842	0.603629	0.028800
C154	C	0.049158	0.853629	0.278800
C155	C	0.299158	1.103629	0.528800
C156	C	0.549158	1.353629	0.778800
C157	C	-0.147425	0.603626	0.028808
C158	C	0.102575	0.853626	0.278808
C159	C	0.352575	1.103626	0.528808
C160	C	0.602575	1.353626	0.778808
C161	C	-0.147452	0.537393	0.095002
C162	C	0.102548	0.787393	0.345002
C163	C	0.352548	1.037393	0.595002
C164	C	0.602548	1.287393	0.845002
C165	C	-0.200863	0.537397	0.094996
C166	C	0.049137	0.787397	0.344996
C167	C	0.299137	1.037397	0.594996
C168	C	0.549137	1.287397	0.844996
C169	C	-0.227557	0.570517	0.061891
C170	C	0.022443	0.820517	0.311891
C171	C	0.272443	1.070517	0.561891
C172	C	0.522443	1.320517	0.811891
O173	O	-0.285374	0.509267	0.123125
O174	O	-0.035374	0.759267	0.373125
O175	O	0.214626	1.009267	0.623125
O176	O	0.464626	1.259267	0.873125
O177	O	-0.285372	0.631790	0.000639
O178	O	-0.035372	0.881790	0.250639
O179	O	0.214628	1.131790	0.500639
O180	O	0.464628	1.381790	0.750639
C181	C	-0.526658	0.603642	0.028777
C182	C	-0.276658	0.853642	0.278777
C183	C	-0.026658	1.103642	0.528777
C184	C	0.223342	1.353642	0.778777
C185	C	-0.553373	0.570527	0.061871
C186	C	-0.303373	0.820527	0.311871
C187	C	-0.053373	1.070527	0.561871
C188	C	0.196627	1.320527	0.811871
C189	C	-0.526677	0.537410	0.094968
C190	C	-0.276677	0.787410	0.344968
C191	C	-0.026677	1.037410	0.594968
C192	C	0.223323	1.287410	0.844968
C193	C	-0.606788	0.570530	0.061870
C194	C	-0.356788	0.820530	0.311870
C195	C	-0.106788	1.070530	0.561870
C196	C	0.143212	1.320530	0.811870
C197	C	-0.633484	0.603646	0.028773
C198	C	-0.383484	0.853646	0.278773
C199	C	-0.133484	1.103646	0.528773
C200	C	0.116516	1.353646	0.778773
C201	C	-0.606766	0.636759	-0.004323
C202	C	-0.356766	0.886759	0.245677
C203	C	-0.106766	1.136759	0.495677
C204	C	0.143234	1.386759	0.745677
C205	C	-0.553354	0.636758	-0.004320
C206	C	-0.303354	0.886758	0.245680
C207	C	-0.053354	1.136758	0.495680
C208	C	0.196646	1.386758	0.745680
C209	C	-0.553395	0.504298	0.128064
C210	C	-0.303395	0.754298	0.378064
C211	C	-0.053395	1.004298	0.628064
C212	C	0.196605	1.254298	0.878064
C213	C	-0.606807	0.504302	0.128058
C214	C	-0.356807	0.754302	0.378058
C215	C	-0.106807	1.004302	0.628058
C216	C	0.143193	1.254302	0.878058
C217	C	-0.633503	0.537418	0.094961
C218	C	-0.383503	0.787418	0.344961
C219	C	-0.133503	1.037418	0.594961
C220	C	0.116497	1.287418	0.844961
N221	N	0.120793	0.570548	0.061868
N222	N	0.370793	0.820548	0.311868
N223	N	0.620793	1.070548	0.561868
N224	N	0.870793	1.320548	0.811868
C225	C	0.000036	0.658931	0.057699
C226	C	0.250036	0.908931	0.307699
C227	C	0.500036	1.158931	0.557699
C228	C	0.750036	1.408931	0.807699
C229	C	0.000041	0.712586	0.058252
C230	C	0.250041	0.962586	0.308252
C231	C	0.500041	1.212586	0.558252
C232	C	0.750041	1.462586	0.808252
C233	C	0.000018	1.051401	0.017548
C234	C	0.250018	1.301401	0.267548
C235	C	0.500018	1.551401	0.517548
C236	C	0.750018	1.801401	0.767548
C237	C	0.000017	1.253060	0.019599
C238	C	0.250017	1.503060	0.269599
C239	C	0.500017	1.753060	0.519599
C240	C	0.750017	2.003060	0.769599
O241	O	-0.000010	1.284316	-0.017621
O242	O	0.249990	1.534316	0.232379
O243	O	0.499990	1.784316	0.482379
O244	O	0.749990	2.034316	0.732379
N245	N	0.000025	1.272184	0.063935
N246	N	0.250025	1.522184	0.313935
N247	N	0.500025	1.772184	0.563935
N248	N	0.750025	2.022184	0.813935
C249	C	0.000029	1.240890	0.107760
C250	C	0.250029	1.490890	0.357760
C251	C	0.500029	1.740890	0.607760
C252	C	0.750029	1.990890	0.857760
O253	O	0.000030	1.261783	0.145517
O254	O	0.250030	1.511783	0.395517
O255	O	0.500030	1.761783	0.645517
O256	O	0.750030	2.011783	0.895517
C257	C	0.000027	1.039231	0.105709
C258	C	0.250027	1.289231	0.355709
C259	C	0.500027	1.539231	0.605709
C260	C	0.750027	1.789231	0.855709
C261	C	0.000024	1.020110	0.061371
C262	C	0.250024	1.270110	0.311371
C263	C	0.500024	1.520110	0.561371
C264	C	0.750024	1.770110	0.811371
C265	C	0.000015	1.032280	-0.026786
C266	C	0.250015	1.282280	0.223214
C267	C	0.500015	1.532280	0.473214
C268	C	0.750015	1.782280	0.723214
C269	C	0.000019	0.981868	-0.027298
C270	C	0.250019	1.231868	0.222702
C271	C	0.500019	1.481868	0.472702
C272	C	0.750019	1.731868	0.722702
C273	C	0.000025	0.950577	0.016524
C274	C	0.250025	1.200577	0.266524
C275	C	0.500025	1.450577	0.516524
C276	C	0.750025	1.700577	0.766524
C277	C	0.000028	0.969698	0.060858
C278	C	0.250028	1.219698	0.310858
C279	C	0.500028	1.469698	0.560858
C280	C	0.750028	1.719698	0.810858
C281	C	0.000028	1.007937	0.149534
C282	C	0.250028	1.257937	0.399534
C283	C	0.500028	1.507937	0.649534
C284	C	0.750028	1.757937	0.899534
C285	C	0.000026	0.957520	0.149017
C286	C	0.250026	1.207520	0.399017
C287	C	0.500026	1.457520	0.649017
C288	C	0.750026	1.707520	0.899017
C289	C	0.000023	0.938399	0.104679
C290	C	0.250023	1.188399	0.354679
C291	C	0.500023	1.438399	0.604679
C292	C	0.750023	1.688399	0.854679
C293	C	0.000037	0.887996	0.104168
C294	C	0.250037	1.137996	0.354168
C295	C	0.500037	1.387996	0.604168
C296	C	0.750037	1.637996	0.854168
N297	N	0.000029	0.868872	0.059833
N298	N	0.250029	1.118872	0.309833
N299	N	0.500029	1.368872	0.559833
N300	N	0.750029	1.618872	0.809833
C301	C	0.000023	0.900163	0.016011
C302	C	0.250023	1.150163	0.266011
C303	C	0.500023	1.400163	0.516011
C304	C	0.750023	1.650163	0.766011
C305	C	0.000031	1.346764	0.108834
C306	C	0.250031	1.596764	0.358834
C307	C	0.500031	1.846764	0.608834
C308	C	0.750031	2.096764	0.858834
C309	C	0.000033	1.397178	0.109347
C310	C	0.250033	1.647178	0.359347
C311	C	0.500033	1.897178	0.609347
C312	C	0.750033	2.147178	0.859347
C313	C	0.000020	1.409345	0.021186
C314	C	0.250020	1.659345	0.271186
C315	C	0.500020	1.909345	0.521186
C316	C	0.750020	2.159345	0.771186
C317	C	0.000022	1.358930	0.020674
C318	C	0.250022	1.608930	0.270674
C319	C	0.500022	1.858930	0.520674
C320	C	0.750022	2.108930	0.770674
C321	C	0.000024	1.327640	0.064499
C322	C	0.250024	1.577640	0.314499
C323	C	0.500024	1.827640	0.564499
C324	C	0.750024	2.077640	0.814499
C325	C	0.000030	0.794293	0.014938
C326	C	0.250030	1.044293	0.264938
C327	C	0.500030	1.294293	0.514938
C328	C	0.750030	1.544293	0.764938
C329	C	0.000035	0.743876	0.014430
C330	C	0.250035	0.993876	0.264430
C331	C	0.500035	1.243876	0.514430
C332	C	0.750035	1.493876	0.764430
C333	C	0.000046	0.731713	0.102591
C334	C	0.250046	0.981713	0.352591
C335	C	0.500046	1.231713	0.602591
C336	C	0.750046	1.481713	0.852591
C337	C	0.000043	0.782126	0.103099
C338	C	0.250043	1.032126	0.353099
C339	C	0.500043	1.282126	0.603099
C340	C	0.750043	1.532126	0.853099
C341	C	0.000034	0.813415	0.059269
C342	C	0.250034	1.063415	0.309269
C343	C	0.500034	1.313415	0.559269
C344	C	0.750034	1.563415	0.809269
O345	O	0.000058	0.856712	0.141369
O346	O	0.250058	1.106712	0.391369
O347	O	0.500058	1.356712	0.641369
O348	O	0.750058	1.606712	0.891369
O349	O	0.000011	0.879260	-0.021740
O350	O	0.250011	1.129260	0.228260
O351	O	0.500011	1.379260	0.478260
O352	O	0.750011	1.629260	0.728260
C353	C	0.000015	1.101813	0.018061
C354	C	0.250015	1.351813	0.268061
C355	C	0.500015	1.601813	0.518061
C356	C	0.750015	1.851813	0.768061
C357	C	0.000018	1.120934	0.062395
C358	C	0.250018	1.370934	0.312395
C359	C	0.500018	1.620934	0.562395
C360	C	0.750018	1.870934	0.812395
C361	C	0.000024	1.089643	0.106217
C362	C	0.250024	1.339643	0.356217
C363	C	0.500024	1.589643	0.606217
C364	C	0.750024	1.839643	0.856217
C365	C	0.000020	1.171348	0.062908
C366	C	0.250020	1.421348	0.312908
C367	C	0.500020	1.671348	0.562908
C368	C	0.750020	1.921348	0.812908
C369	C	0.000014	1.202639	0.019086
C370	C	0.250014	1.452639	0.269086
C371	C	0.500014	1.702639	0.519086
C372	C	0.750014	1.952639	0.769086
C373	C	0.000006	1.183515	-0.025249
C374	C	0.250006	1.433515	0.224751
C375	C	0.500006	1.683515	0.474751
C376	C	0.750006	1.933515	0.724751
C377	C	0.000009	1.133103	-0.025761
C378	C	0.250009	1.383103	0.224239
C379	C	0.500009	1.633103	0.474239
C380	C	0.750009	1.883103	0.724239
C381	C	0.000032	1.108767	0.150553
C382	C	0.250032	1.358767	0.400553
C383	C	0.500032	1.608767	0.650553
C384	C	0.750032	1.858767	0.900553
C385	C	0.000029	1.159180	0.151061
C386	C	0.250029	1.409180	0.401061
C387	C	0.500029	1.659180	0.651061
C388	C	0.750029	1.909180	0.901061
C389	C	0.000023	1.190470	0.107239
C390	C	0.250023	1.440470	0.357239
C391	C	0.500023	1.690470	0.607239
C392	C	0.750023	1.940470	0.857239
C393	C	0.000044	0.614867	-0.418985
C394	C	0.250044	0.864867	-0.168985
C395	C	0.500044	1.114867	0.081015
C396	C	0.750044	1.364867	0.331015
C397	C	0.000051	0.612816	-0.620645
C398	C	0.250051	0.862816	-0.370645
C399	C	0.500051	1.112816	-0.120645
C400	C	0.750051	1.362816	0.129355
O401	O	0.000075	0.650037	-0.651900
O402	O	0.250075	0.900037	-0.401900
O403	O	0.500075	1.150037	-0.151900
O404	O	0.750075	1.400037	0.098100
N405	N	0.000049	0.568481	-0.639768
N406	N	0.250049	0.818481	-0.389768
N407	N	0.500049	1.068481	-0.139768
N408	N	0.750049	1.318481	0.110232
C409	C	0.000049	0.524656	-0.608474
C410	C	0.250049	0.774656	-0.358474
C411	C	0.500049	1.024656	-0.108474
C412	C	0.750049	1.274656	0.141526
O413	O	0.000053	0.486899	-0.629367
O414	O	0.250053	0.736899	-0.379367
O415	O	0.500053	0.986899	-0.129367
O416	O	0.750053	1.236899	0.120633
C417	C	0.000046	0.526707	-0.406815
C418	C	0.250046	0.776707	-0.156815
C419	C	0.500046	1.026707	0.093185
C420	C	0.750046	1.276707	0.343185
C421	C	0.000042	0.571045	-0.387694
C422	C	0.250042	0.821045	-0.137694
C423	C	0.500042	1.071045	0.112306
C424	C	0.750042	1.321045	0.362306
C425	C	0.000041	0.659202	-0.399864
C426	C	0.250041	0.909202	-0.149864
C427	C	0.500041	1.159202	0.100136
C428	C	0.750041	1.409202	0.350136
C429	C	0.000037	0.659714	-0.349452
C430	C	0.250037	0.909714	-0.099452
C431	C	0.500037	1.159714	0.150548
C432	C	0.750037	1.409714	0.400548
C433	C	0.000035	0.615892	-0.318161
C434	C	0.250035	0.865892	-0.068161
C435	C	0.500035	1.115892	0.181839
C436	C	0.750035	1.365892	0.431839
C437	C	0.000038	0.571557	-0.337282
C438	C	0.250038	0.821557	-0.087282
C439	C	0.500038	1.071557	0.162718
C440	C	0.750038	1.321557	0.412718
C441	C	0.000049	0.482882	-0.375521
C442	C	0.250049	0.732882	-0.125521
C443	C	0.500049	0.982882	0.124479
C444	C	0.750049	1.232882	0.374479
C445	C	0.000049	0.483399	-0.325104
C446	C	0.250049	0.733399	-0.075104
C447	C	0.500049	0.983399	0.174896
C448	C	0.750049	1.233399	0.424896
C449	C	0.000046	0.527737	-0.305983
C450	C	0.250046	0.777737	-0.055983
C451	C	0.500046	1.027737	0.194017
C452	C	0.750046	1.277737	0.444017
C453	C	0.000031	0.528248	-0.255580
C454	C	0.250031	0.778248	-0.005580
C455	C	0.500031	1.028248	0.244420
C456	C	0.750031	1.278248	0.494420
N457	N	0.000033	0.572583	-0.236456
N458	N	0.250033	0.822583	0.013544
N459	N	0.500033	1.072583	0.263544
N460	N	0.750033	1.322583	0.513544
C461	C	0.000035	0.616405	-0.267747
C462	C	0.250035	0.866405	-0.017747
C463	C	0.500035	1.116405	0.232253
C464	C	0.750035	1.366405	0.482253
C465	C	0.000050	0.523582	-0.714348
C466	C	0.250050	0.773582	-0.464348
C467	C	0.500050	1.023582	-0.214348
C468	C	0.750050	1.273582	0.035652
C469	C	0.000050	0.523069	-0.764762
C470	C	0.250050	0.773069	-0.514762
C471	C	0.500050	1.023069	-0.264762
C472	C	0.750050	1.273069	-0.014762
C473	C	0.000053	0.611230	-0.776930
C474	C	0.250053	0.861230	-0.526930
C475	C	0.500053	1.111230	-0.276930
C476	C	0.750053	1.361230	-0.026930
C477	C	0.000049	0.611742	-0.726514
C478	C	0.250049	0.861742	-0.476514
C479	C	0.500049	1.111742	-0.226514
C480	C	0.750049	1.361742	0.023486
C481	C	0.000052	0.567917	-0.695224
C482	C	0.250052	0.817917	-0.445224
C483	C	0.500052	1.067917	-0.195224
C484	C	0.750052	1.317917	0.054776
C485	C	0.000025	0.617477	-0.161878
C486	C	0.250025	0.867477	0.088122
C487	C	0.500025	1.117477	0.338122
C488	C	0.750025	1.367477	0.588122
C489	C	0.000019	0.617986	-0.111461
C490	C	0.250019	0.867986	0.138539
C491	C	0.500019	1.117986	0.388539
C492	C	0.750019	1.367986	0.638539
C493	C	0.000018	0.529825	-0.099298
C494	C	0.250018	0.779825	0.150702
C495	C	0.500018	1.029825	0.400702
C496	C	0.750018	1.279825	0.650702
C497	C	0.000022	0.529316	-0.149710
C498	C	0.250022	0.779316	0.100290
C499	C	0.500022	1.029316	0.350290
C500	C	0.750022	1.279316	0.600290
C501	C	0.000027	0.573147	-0.180999
C502	C	0.250027	0.823147	0.069001
C503	C	0.500027	1.073147	0.319001
C504	C	0.750027	1.323147	0.569001
O505	O	0.000014	0.491047	-0.224296
O506	O	0.250014	0.741047	0.025704
O507	O	0.500014	0.991047	0.275704
O508	O	0.750014	1.241047	0.525704
O509	O	0.000043	0.654156	-0.246844
O510	O	0.250043	0.904156	0.003156
O511	O	0.500043	1.154156	0.253156
O512	O	0.750043	1.404156	0.503156
C513	C	0.000049	0.614355	-0.469397
C514	C	0.250049	0.864355	-0.219397
C515	C	0.500049	1.114355	0.030603
C516	C	0.750049	1.364355	0.280603
C517	C	0.000051	0.570021	-0.488518
C518	C	0.250051	0.820021	-0.238518
C519	C	0.500051	1.070021	0.011482
C520	C	0.750051	1.320021	0.261482
C521	C	0.000050	0.526198	-0.457228
C522	C	0.250050	0.776198	-0.207228
C523	C	0.500050	1.026198	0.042772
C524	C	0.750050	1.276198	0.292772
C525	C	0.000051	0.569508	-0.538933
C526	C	0.250051	0.819508	-0.288933
C527	C	0.500051	1.069508	-0.038933
C528	C	0.750051	1.319508	0.211067
C529	C	0.000053	0.613330	-0.570223
C530	C	0.250053	0.863330	-0.320223
C531	C	0.500053	1.113330	-0.070223
C532	C	0.750053	1.363330	0.179777
C533	C	0.000055	0.657665	-0.551100
C534	C	0.250055	0.907665	-0.301100
C535	C	0.500055	1.157665	-0.051100
C536	C	0.750055	1.407665	0.198900
C537	C	0.000051	0.658177	-0.500688
C538	C	0.250051	0.908177	-0.250688
C539	C	0.500051	1.158177	-0.000688
C540	C	0.750051	1.408177	0.249312
C541	C	0.000048	0.481863	-0.476351
C542	C	0.250048	0.731863	-0.226351
C543	C	0.500048	0.981863	0.023649
C544	C	0.750048	1.231863	0.273649
C545	C	0.000052	0.481355	-0.526764
C546	C	0.250052	0.731355	-0.276764
C547	C	0.500052	0.981355	-0.026764
C548	C	0.750052	1.231355	0.223236
C549	C	0.000053	0.525177	-0.558054
C550	C	0.250053	0.775177	-0.308054
C551	C	0.500053	1.025177	-0.058054
C552	C	0.750053	1.275177	0.191946
C553	C	0.000044	0.566338	0.150292
C554	C	0.250044	0.816338	0.400292
C555	C	0.500044	1.066338	0.650292
C556	C	0.750044	1.316338	0.900292
C557	C	0.000052	0.566891	0.203947
C558	C	0.250052	0.816891	0.453947
C559	C	0.500052	1.066891	0.703947
C560	C	0.750052	1.316891	0.953947
H561	H	-0.125675	0.630597	0.001858
H562	H	0.124325	0.880597	0.251858
H563	H	0.374325	1.130597	0.501858
H564	H	0.624325	1.380597	0.751858
H565	H	0.000015	0.494146	-0.073812
H566	H	0.250015	0.744146	0.176188
H567	H	0.500015	0.994146	0.426188
H568	H	0.750015	1.244146	0.676188
Cl569	Cl	0.000052	0.468481	-0.675018
Cl570	Cl	0.250052	0.718481	-0.425018
Cl571	Cl	0.500052	0.968481	-0.175018
Cl572	Cl	0.750052	1.218481	0.074982
Cl573	Cl	0.000026	0.918186	0.204115
Cl574	Cl	0.250026	1.168186	0.454115
Cl575	Cl	0.500026	1.418186	0.704115
Cl576	Cl	0.750026	1.668186	0.954115
H577	H	0.000047	0.647846	-0.710950
H578	H	0.250047	0.897846	-0.460950
H579	H	0.500047	1.147846	-0.210950
H580	H	0.750047	1.397846	0.039050
H581	H	0.000033	1.321291	0.144524
H582	H	0.250033	1.571291	0.394524
H583	H	0.500033	1.821291	0.644524
H584	H	0.750033	2.071291	0.894524
H585	H	0.000048	0.694282	-0.485125
H586	H	0.250048	0.944282	-0.235125
H587	H	0.500048	1.194282	0.014875
H588	H	0.750048	1.444282	0.264875
H589	H	0.000055	0.446777	-0.391080
H590	H	0.250055	0.696777	-0.141080
H591	H	0.500055	0.946777	0.108920
H592	H	0.750055	1.196777	0.358920
H593	H	0.000054	0.693347	-0.576585
H594	H	0.250054	0.943347	-0.326585
H595	H	0.500054	1.193347	-0.076585
H596	H	0.750054	1.443347	0.173415
Cl597	Cl	0.000012	1.448691	-0.033904
Cl598	Cl	0.250012	1.698691	0.216096
Cl599	Cl	0.500012	1.948691	0.466096
Cl600	Cl	0.750012	2.198691	0.716096
H601	H	-0.222569	0.630598	0.001842
H602	H	0.027431	0.880598	0.251842
H603	H	0.277431	1.130598	0.501842
H604	H	0.527431	1.380598	0.751842
H605	H	0.000015	0.966305	-0.063403
H606	H	0.250015	1.216305	0.186597
H607	H	0.500015	1.466305	0.436597
H608	H	0.750015	1.716305	0.686597
H609	H	-0.531606	0.663725	-0.031269
H610	H	-0.281606	0.913725	0.218731
H611	H	-0.031606	1.163725	0.468731
H612	H	0.218394	1.413725	0.718731
Cl613	Cl	0.000058	0.666320	-0.816276
Cl614	Cl	0.250058	0.916320	-0.566276
Cl615	Cl	0.500058	1.166320	-0.316276
Cl616	Cl	0.750058	1.416320	-0.066276
Cl617	Cl	0.000053	0.425609	-0.550794
Cl618	Cl	0.250053	0.675609	-0.300794
Cl619	Cl	0.500053	0.925609	-0.050794
Cl620	Cl	0.750053	1.175609	0.199206
H621	H	0.000035	0.728311	-0.021677
H622	H	0.250035	0.978311	0.228323
H623	H	0.500035	1.228311	0.478323
H624	H	0.750035	1.478311	0.728323
Cl625	Cl	0.000016	0.473577	-0.173748
Cl626	Cl	0.250016	0.723577	0.076252
Cl627	Cl	0.500016	0.973577	0.326252
Cl628	Cl	0.750016	1.223577	0.576252
Cl629	Cl	-0.640337	0.678392	-0.045929
Cl630	Cl	-0.390337	0.928392	0.204071
Cl631	Cl	-0.140337	1.178392	0.454071
Cl632	Cl	0.109663	1.428392	0.704071
H633	H	-0.371371	0.663720	-0.031259
H634	H	-0.121371	0.913720	0.218741
H635	H	0.128629	1.163720	0.468741
H636	H	0.378629	1.413720	0.718741
Cl637	Cl	0.000053	0.428300	-0.285770
Cl638	Cl	0.250053	0.678300	-0.035770
Cl639	Cl	0.500053	0.928300	0.214230
Cl640	Cl	0.750053	1.178300	0.464230
Cl641	Cl	0.000046	0.426766	-0.437021
Cl642	Cl	0.250046	0.676766	-0.187021
Cl643	Cl	0.500046	0.926766	0.062979
Cl644	Cl	0.750046	1.176766	0.312979
Cl645	Cl	0.000042	1.069437	0.205649
Cl646	Cl	0.250042	1.319437	0.455649
Cl647	Cl	0.500042	1.569437	0.705649
Cl648	Cl	0.750042	1.819437	0.955649
H649	H	-0.468263	0.663722	-0.031266
H650	H	-0.218263	0.913722	0.218734
H651	H	0.031737	1.163722	0.468734
H652	H	0.281737	1.413722	0.718734
H653	H	-0.777325	0.630629	0.001823
H654	H	-0.527325	0.880629	0.251823
H655	H	-0.277325	1.130629	0.501823
H656	H	-0.027325	1.380629	0.751823
Cl657	Cl	0.000036	1.183210	0.206807
Cl658	Cl	0.250036	1.433210	0.456807
Cl659	Cl	0.500036	1.683210	0.706807
Cl660	Cl	0.750036	1.933210	0.956807
H661	H	0.000043	0.486964	-0.780325
H662	H	0.250043	0.736964	-0.530325
H663	H	0.500043	0.986964	-0.280325
H664	H	0.750043	1.236964	-0.030325
H665	H	0.000009	1.057752	-0.062473
H666	H	0.250009	1.307752	0.187527
H667	H	0.500009	1.557752	0.437527
H668	H	0.750009	1.807752	0.687527
Cl669	Cl	-0.640386	0.462666	0.169670
Cl670	Cl	-0.390386	0.712666	0.419670
Cl671	Cl	-0.140386	0.962666	0.669670
Cl672	Cl	0.109614	1.212666	0.919670
Cl673	Cl	-0.886060	0.645294	-0.012838
Cl674	Cl	-0.636060	0.895294	0.237162
Cl675	Cl	-0.386060	1.145294	0.487162
Cl676	Cl	-0.136060	1.395294	0.737162
Cl677	Cl	-0.886090	0.495803	0.136579
Cl678	Cl	-0.636090	0.745803	0.386579
Cl679	Cl	-0.386090	0.995803	0.636579
Cl680	Cl	-0.136090	1.245803	0.886579
Cl681	Cl	0.000008	1.109074	-0.081504
Cl682	Cl	0.250008	1.359074	0.168496
Cl683	Cl	0.500008	1.609074	0.418496
Cl684	Cl	0.750008	1.859074	0.668496
H685	H	-0.222615	0.510434	0.121950
H686	H	0.027385	0.760434	0.371950
H687	H	0.277385	1.010434	0.621950
H688	H	0.527385	1.260434	0.871950
Cl689	Cl	-0.765543	0.495788	0.136578
Cl690	Cl	-0.515543	0.745788	0.386578
Cl691	Cl	-0.265543	0.995788	0.636578
Cl692	Cl	-0.015543	1.245788	0.886578
H693	H	-0.468311	0.477317	0.155019
H694	H	-0.218311	0.727317	0.405019
H695	H	0.031689	0.977317	0.655019
H696	H	0.281689	1.227317	0.905019
H697	H	-0.531663	0.477330	0.155015
H698	H	-0.281663	0.727330	0.405015
H699	H	-0.031663	0.977330	0.655015
H700	H	0.218337	1.227330	0.905015
Cl701	Cl	0.000020	0.833621	-0.040163
Cl702	Cl	0.250020	1.083621	0.209837
Cl703	Cl	0.500020	1.333621	0.459837
Cl704	Cl	0.750020	1.583621	0.709837
Cl705	Cl	0.000046	1.421209	0.165089
Cl706	Cl	0.250046	1.671209	0.415089
Cl707	Cl	0.500046	1.921209	0.665089
Cl708	Cl	0.750046	2.171209	0.915089
Cl709	Cl	-0.359593	0.462642	0.169676
Cl710	Cl	-0.109593	0.712642	0.419676
Cl711	Cl	0.140407	0.962642	0.669676
Cl712	Cl	0.390407	1.212642	0.919676
Cl713	Cl	-0.113883	0.495763	0.136608
Cl714	Cl	0.136117	0.745763	0.386608
Cl715	Cl	0.386117	0.995763	0.636608
Cl716	Cl	0.636117	1.245763	0.886608
H717	H	0.000020	1.343366	-0.015430
H718	H	0.250020	1.593366	0.234570
H719	H	0.500020	1.843366	0.484570
H720	H	0.750020	2.093366	0.734570
H721	H	0.000032	1.023496	0.185639
H722	H	0.250032	1.273496	0.435639
H723	H	0.500032	1.523496	0.685639
H724	H	0.750032	1.773496	0.935639
H725	H	0.000046	0.797695	0.139203
H726	H	0.250046	1.047695	0.389203
H727	H	0.500046	1.297695	0.639203
H728	H	0.750046	1.547695	0.889203
H729	H	0.000004	1.209001	-0.060931
H730	H	0.250004	1.459001	0.189069
H731	H	0.500004	1.709001	0.439069
H732	H	0.750004	1.959001	0.689069
Cl733	Cl	0.000015	0.673729	-0.087427
Cl734	Cl	0.250015	0.923729	0.162573
Cl735	Cl	0.500015	1.173729	0.412573
Cl736	Cl	0.750015	1.423729	0.662573
Cl737	Cl	0.000031	0.672579	-0.201205
Cl738	Cl	0.250031	0.922579	0.048795
Cl739	Cl	0.500031	1.172579	0.298795
Cl740	Cl	0.750031	1.422579	0.548795
Cl741	Cl	0.000047	0.715457	-0.325422
Cl742	Cl	0.250047	0.965457	-0.075422
Cl743	Cl	0.500047	1.215457	0.174578
Cl744	Cl	0.750047	1.465457	0.424578
H745	H	0.000053	0.706228	0.138270
H746	H	0.250053	0.956228	0.388270
H747	H	0.500053	1.206228	0.638270
H748	H	0.750053	1.456228	0.888270
H749	H	0.000045	0.694889	-0.425336
H750	H	0.250045	0.944889	-0.175336
H751	H	0.500045	1.194889	0.074664
H752	H	0.750045	1.444889	0.324664
