data_functionalizedCrystal
_audit_creation_method	'MofGen! by Chris Wilmer'
_symmetry_space_group_name_H-M	'P1'
_symmetry_Int_Tables_number	1
_symmetry_cell_setting	triclinic
loop_
_symmetry_equiv_pos_as_xyz
  x,y,z
_cell_length_a	11.792241
_cell_length_b	16.776229
_cell_length_c	17.699083
_cell_angle_alpha	90.001567
_cell_angle_beta	83.738215
_cell_angle_gamma	90.002956
loop_
_atom_site_label
_atom_site_type_symbol
_atom_site_fract_x
_atom_site_fract_y
_atom_site_fract_z
O1	O	1.505671	0.066213	0.103731
O2	O	1.175201	0.066231	0.114422
O3	O	1.349773	0.066214	-0.001063
O4	O	1.331099	0.066229	0.219216
O5	O	1.349747	-0.066362	-0.001057
O6	O	1.175176	-0.066345	0.114428
O7	O	1.505645	-0.066364	0.103737
Zn8	Zn	1.340407	-0.087404	0.109084
Zn9	Zn	1.340440	0.087271	0.109076
O10	O	1.331074	-0.066347	0.219222
C11	C	1.132906	-0.000055	0.113754
C12	C	1.006916	-0.000048	0.111744
N13	N	1.340392	-0.206615	0.109089
C14	C	1.417773	-0.751787	0.057947
C15	C	1.417767	-0.668335	0.057952
C16	C	1.340446	-0.626615	0.109073
C17	C	1.263133	-0.668350	0.160196
C18	C	1.263145	-0.751801	0.160194
C19	C	1.263084	-0.331803	0.160207
C20	C	1.263076	-0.248347	0.160204
C21	C	1.417707	-0.248337	0.057965
C22	C	1.417719	-0.331788	0.057963
C23	C	1.340410	-0.373517	0.109089
C24	C	1.340419	-0.464005	0.109084
C25	C	1.340431	-0.536128	0.109075
C26	C	0.776248	-0.000071	0.108048
C27	C	0.904609	-0.000058	0.110101
C28	C	1.547941	-0.000076	0.104406
C29	C	1.673930	-0.000078	0.106416
N30	N	1.340464	0.206483	0.109065
C31	C	1.349091	-0.000074	-0.029260
C32	C	1.347083	-0.000074	-0.113289
C33	C	1.449553	-0.000081	-0.161364
C34	C	1.447660	-0.000074	-0.240317
C35	C	1.343297	-0.000066	-0.271194
C36	C	1.240819	-0.000056	-0.223113
C37	C	1.242713	-0.000058	-0.144161
C38	C	1.233178	-0.000049	-0.541517
C39	C	1.231292	-0.000050	-0.620475
C40	C	1.438126	-0.000066	-0.637673
C41	C	1.440020	-0.000067	-0.558721
C42	C	1.337543	-0.000054	-0.510647
C43	C	1.339596	-0.000060	-0.425037
C44	C	1.341242	-0.000065	-0.356803
C45	C	1.331756	-0.000057	0.247420
C46	C	1.333763	-0.000051	0.331449
H47	H	1.480732	-0.785751	0.016316
C48	C	1.178081	-0.622464	0.216431
H49	H	1.132048	-0.659271	0.246879
H50	H	1.130910	-0.589914	0.188995
H51	H	1.218821	-0.589906	0.248123
H52	H	1.149735	-0.000039	-0.502384
C53	C	1.502801	-0.622435	0.001718
H54	H	1.548842	-0.659235	-0.028734
H55	H	1.549968	-0.589876	0.029153
H56	H	1.462049	-0.589887	-0.029971
C57	C	1.126021	-0.000049	-0.257076
H58	H	1.139567	-0.000058	-0.310982
H59	H	1.083844	0.046185	-0.240603
H60	H	1.083835	-0.046286	-0.240602
H61	H	1.200110	-0.214379	0.201835
H62	H	1.159272	-0.000052	-0.105019
C63	C	1.116487	-0.000031	-0.654438
H64	H	1.055726	-0.000014	-0.614500
H65	H	1.111432	-0.046261	-0.684881
H66	H	1.111474	0.046209	-0.684879
H67	H	1.480677	-0.365754	0.016334
H68	H	1.200135	-0.365772	0.201834
H69	H	1.480660	-0.214353	0.016338
H70	H	1.534538	-0.000093	-0.136230
C71	C	1.178078	-0.797704	0.216405
H72	H	1.132012	-0.760906	0.246842
H73	H	1.218794	-0.830263	0.248100
H74	H	1.130923	-0.830253	0.188945
H75	H	1.531101	-0.000081	-0.279457
H76	H	1.521567	-0.000073	-0.676825
C77	C	1.554819	-0.000073	-0.524760
H78	H	1.615577	-0.000068	-0.564700
H79	H	1.559852	-0.046304	-0.494318
H80	H	1.559859	0.046167	-0.494320
