data_functionalizedCrystal
_audit_creation_method	'MofGen! by Chris Wilmer'
_symmetry_space_group_name_H-M	'P1'
_symmetry_Int_Tables_number	1
_symmetry_cell_setting	triclinic
loop_
_symmetry_equiv_pos_as_xyz
  x,y,z
_cell_length_a	18.050590
_cell_length_b	21.295412
_cell_length_c	18.050589
_cell_angle_alpha	90.022119
_cell_angle_beta	89.982614
_cell_angle_gamma	89.992183
loop_
_atom_site_label
_atom_site_type_symbol
_atom_site_fract_x
_atom_site_fract_y
_atom_site_fract_z
Zn1	Zn	1.135355	-0.355685	0.295893
Zn2	Zn	1.135247	-0.250426	0.420085
Zn3	Zn	1.011156	-0.250459	0.295889
Zn4	Zn	1.011123	-0.355687	0.420022
O5	O	1.073220	-0.303064	0.357972
O6	O	1.239266	-0.341708	0.312395
O7	O	1.118755	-0.162341	0.403635
O8	O	1.027690	-0.264430	0.191965
O9	O	1.239186	-0.264375	0.403638
O10	O	1.118939	-0.341740	0.191968
O11	O	1.027586	-0.162365	0.312389
O12	O	0.907227	-0.264432	0.312328
O13	O	1.027633	-0.443776	0.403531
O14	O	0.907202	-0.341742	0.403528
O15	O	1.118907	-0.443775	0.312334
O16	O	1.118723	-0.264376	0.524001
O17	O	1.027529	-0.341711	0.523955
C18	C	0.880268	-0.303091	0.357921
C19	C	0.797722	-0.303118	0.357918
C20	C	0.598280	-0.345059	0.407654
C21	C	0.548890	-0.360546	0.339938
C22	C	0.646592	-0.303087	0.357959
C23	C	0.548901	-0.287600	0.425714
C24	C	0.500607	-0.303059	0.358005
C25	C	0.598289	-0.318603	0.290207
C26	C	0.598304	-0.245631	0.376029
C27	C	0.548936	-0.261096	0.308266
C28	C	0.730690	-0.303105	0.357934
C29	C	0.416510	-0.303041	0.358023
C30	C	1.073278	-0.467255	0.357926
C31	C	1.073303	-0.537223	0.357906
C32	C	1.025844	-0.570092	0.310389
C33	C	1.025841	-0.635835	0.310375
C34	C	1.073311	-0.668705	0.357871
C35	C	1.120774	-0.635828	0.405397
C36	C	1.120770	-0.570087	0.405415
N37	N	1.138322	-0.771929	0.363555
N38	N	1.138323	-0.834381	0.363534
C39	C	1.073325	-0.866780	0.357821
N40	N	1.008323	-0.834369	0.352117
N41	N	1.008322	-0.771912	0.352134
C42	C	1.073320	-0.739991	0.357857
C43	C	1.025859	-0.970935	0.310287
C44	C	1.025855	-1.036679	0.310278
C45	C	1.120794	-1.036671	0.405296
C46	C	1.120791	-0.970928	0.405309
C47	C	1.073325	-0.938064	0.357800
C48	C	1.266926	-0.303037	0.358024
C49	C	1.349472	-0.303026	0.358046
C50	C	1.073131	-0.303054	0.550924
C51	C	1.073160	-0.303070	0.633470
C52	C	1.073205	-0.139513	0.357965
C53	C	1.073324	-0.069545	0.357775
C54	C	1.073331	-0.303089	0.164267
C55	C	1.073377	-0.303099	0.081721
C56	C	1.023618	-0.345110	0.832923
C57	C	1.005510	-0.287673	0.882358
C58	C	1.073233	-0.303079	0.784600
C59	C	1.091378	-0.360522	0.882247
C60	C	1.073302	-0.303092	0.930585
C61	C	1.055090	-0.245611	0.832948
C62	C	1.140989	-0.318499	0.832833
C63	C	1.122907	-0.261022	0.882246
C64	C	1.073192	-0.303072	0.700502
C65	C	1.073344	-0.303092	1.014682
H66	H	0.527407	-0.225589	0.266212
H67	H	0.987202	-1.063440	0.271587
O68	O	0.624189	-0.187715	0.394393
C69	C	0.597917	-0.171079	0.465303
H70	H	0.583244	-0.215402	0.497515
H71	H	0.642748	-0.144018	0.496274
H72	H	0.546518	-0.140364	0.459459
O73	O	0.979816	-0.938909	0.264170
C74	C	0.989980	-0.873835	0.274383
H75	H	1.047280	-0.864858	0.298721
H76	H	0.984972	-0.848858	0.218759
H77	H	0.945908	-0.855167	0.313925
H78	H	1.198243	-0.331558	0.811065
O79	O	1.109571	-0.418517	0.907994
C80	C	1.057066	-0.462668	0.882878
H81	H	1.028764	-0.443995	0.830910
H82	H	1.086148	-0.508828	0.869518
H83	H	1.013831	-0.470881	0.927895
O84	O	1.166827	-1.068569	0.451537
C85	C	1.150570	-1.052484	0.525556
H86	H	1.091240	-1.034404	0.529298
H87	H	1.156947	-1.095716	0.562233
H88	H	1.190377	-1.014327	0.544990
H89	H	1.159440	-0.944166	0.444000
H90	H	0.527203	-0.274515	0.482994
H91	H	0.987190	-0.543338	0.271707
H92	H	0.987195	-0.662602	0.271678
H93	H	1.159424	-0.662596	0.444068
O94	O	1.036628	-0.187640	0.807317
C95	C	0.965434	-0.171398	0.833150
H96	H	0.952333	-0.199471	0.885294
H97	H	0.963752	-0.119082	0.846457
H98	H	0.922648	-0.182507	0.788589
O99	O	0.937237	-0.272009	0.908351
C100	C	0.942425	-0.216895	0.951344
H101	H	0.993985	-0.189499	0.934459
H102	H	0.891172	-0.186663	0.941873
H103	H	0.946311	-0.229954	1.012463
H104	H	1.159420	-0.543325	0.444108
O105	O	0.973392	-0.387384	0.807113
C106	C	0.902067	-0.370901	0.832368
H107	H	0.900705	-0.318687	0.846253
H108	H	0.859673	-0.381373	0.787224
H109	H	0.888149	-0.399314	0.884045
H110	H	1.164895	-0.225442	0.903766
H111	H	0.527184	-0.409123	0.324669
O112	O	0.624101	-0.387534	0.457619
C113	C	0.598906	-0.448032	0.438318
H114	H	0.585049	-0.449304	0.376724
H115	H	0.644074	-0.483933	0.450743
H116	H	0.547224	-0.459779	0.471878
H117	H	0.619892	-0.331745	0.232910
