data_functionalizedCrystal
_audit_creation_method	'MofGen! by Chris Wilmer'
_symmetry_space_group_name_H-M	'P1'
_symmetry_Int_Tables_number	1
_symmetry_cell_setting	triclinic
loop_
_symmetry_equiv_pos_as_xyz
  x,y,z
_cell_length_a	19.288864
_cell_length_b	16.109301
_cell_length_c	17.766277
_cell_angle_alpha	89.992214
_cell_angle_beta	89.976791
_cell_angle_gamma	83.298863
loop_
_atom_site_label
_atom_site_type_symbol
_atom_site_fract_x
_atom_site_fract_y
_atom_site_fract_z
O1	O	0.921601	0.103716	-0.062838
O2	O	1.421601	0.603716	0.437162
O3	O	0.719373	0.117707	-0.062787
O4	O	1.219373	0.617707	0.437213
O5	O	0.826042	-0.010338	-0.062806
O6	O	1.326042	0.489662	0.437194
O7	O	0.814932	0.231761	-0.062819
O8	O	1.314932	0.731761	0.437181
O9	O	0.826024	-0.010345	0.062382
O10	O	1.326024	0.489655	0.562382
O11	O	0.719355	0.117701	0.062402
O12	O	1.219355	0.617701	0.562402
O13	O	0.921582	0.103710	0.062351
O14	O	1.421582	0.603710	0.562351
Cu15	Cu	0.820467	0.110704	0.073807
Cu16	Cu	1.320467	0.610704	0.573807
Cu17	Cu	0.820489	0.110712	-0.074243
Cu18	Cu	1.320489	0.610712	0.425757
O19	O	0.814913	0.231755	0.062370
O20	O	1.314913	0.731755	0.562370
C21	C	0.693487	0.117254	-0.000186
C22	C	1.193487	0.617254	0.499814
C23	C	0.616380	0.115902	-0.000166
C24	C	1.116380	0.615902	0.499834
C25	C	0.571863	0.191034	-0.000182
C26	C	1.071863	0.691034	0.499818
C27	C	0.499413	0.189764	-0.000190
C28	C	0.999413	0.689764	0.499810
C29	C	0.471483	0.113359	-0.000198
C30	C	0.971483	0.613359	0.499802
C31	C	0.516009	0.038218	-0.000178
C32	C	1.016009	0.538218	0.499822
C33	C	0.588458	0.039489	-0.000162
C34	C	1.088458	0.539489	0.499838
C35	C	0.363084	0.053298	-0.044079
C36	C	0.863084	0.553298	0.455921
C37	C	0.290636	0.052029	-0.044100
C38	C	0.790636	0.552029	0.455900
C39	C	0.248028	0.109433	-0.000243
C40	C	0.748028	0.609433	0.499757
C41	C	0.277874	0.168120	0.043624
C42	C	0.777874	0.668120	0.543624
C43	C	0.350323	0.169391	0.043640
C44	C	0.850323	0.669391	0.543640
C45	C	0.392925	0.111971	-0.000214
C46	C	0.892925	0.611971	0.499786
C47	C	0.124952	0.183193	-0.000267
C48	C	0.624952	0.683193	0.499733
C49	C	0.052501	0.181920	-0.000270
C50	C	0.552501	0.681920	0.499730
C51	C	0.069099	0.030372	-0.000266
C52	C	0.569099	0.530372	0.499734
C53	C	0.141548	0.031647	-0.000254
C54	C	0.641548	0.531647	0.499746
C55	C	0.169470	0.108060	-0.000259
C56	C	0.669470	0.608060	0.499741
C57	C	0.825583	-0.041315	-0.000211
C58	C	1.325583	0.458685	0.499789
C59	C	0.824234	-0.133606	-0.000210
C60	C	1.324234	0.366394	0.499790
C61	C	0.884391	-0.356084	-0.000237
C62	C	1.384391	0.143916	0.499763
C63	C	0.883118	-0.442800	-0.000243
C64	C	1.383118	0.057200	0.499757
C65	C	0.756559	-0.422493	-0.000208
C66	C	1.256559	0.077507	0.499792
C67	C	0.757833	-0.335778	-0.000208
C68	C	1.257833	0.164222	0.499792
C69	C	0.821751	-0.302577	-0.000218
C70	C	1.321751	0.197423	0.499782
C71	C	0.819204	-0.476007	-0.000225
C72	C	1.319204	0.023993	0.499775
C73	C	0.817823	-0.570028	-0.000231
C74	C	1.317823	-0.070028	0.499769
C75	C	0.823133	-0.208549	-0.000213
C76	C	1.323133	0.291451	0.499787
C77	C	0.947469	0.104163	-0.000252
C78	C	1.447469	0.604163	0.499748
C79	C	1.024576	0.105514	-0.000277
C80	C	1.524576	0.605514	0.499723
C81	C	0.815372	0.262732	-0.000227
C82	C	1.315372	0.762732	0.499773
C83	C	0.816722	0.355022	-0.000233
C84	C	1.316722	0.855022	0.499767
N85	N	0.820456	0.110699	0.177937
N86	N	1.320456	0.610699	0.677937
N87	N	0.820505	0.110711	-0.178373
N88	N	1.320505	0.610711	0.321627
C89	C	0.867704	0.054028	0.217315
C90	C	1.367704	0.554028	0.717315
C91	C	0.867708	0.054024	0.296117
C92	C	1.367708	0.554024	0.796117
C93	C	0.820471	0.110705	0.335538
C94	C	1.320471	0.610705	0.835538
C95	C	0.773214	0.167380	0.296150
C96	C	1.273214	0.667380	0.796150
C97	C	0.773206	0.167377	0.217350
C98	C	1.273206	0.667377	0.717350
C99	C	0.811353	0.186459	0.460373
C100	C	1.311353	0.686459	0.960373
C101	C	0.811365	0.186463	0.539172
C102	C	1.311365	0.686463	1.039172
C103	C	0.820489	0.110715	0.578584
C104	C	1.320489	0.610715	1.078584
C105	C	0.829616	0.034960	0.539188
C106	C	1.329616	0.534960	1.039188
C107	C	0.829609	0.034956	0.460387
C108	C	1.329609	0.534956	0.960387
C109	C	0.820473	0.110715	0.420983
C110	C	1.320473	0.610715	0.920983
C111	C	0.867745	0.054035	0.703408
C112	C	1.367745	0.554035	1.203408
C113	C	0.867744	0.054030	0.782212
C114	C	1.367744	0.554030	1.282212
C115	C	0.773252	0.167394	0.782243
C116	C	1.273252	0.667394	1.282243
C117	C	0.773250	0.167392	0.703441
C118	C	1.273250	0.667392	1.203441
C119	C	0.820500	0.110713	0.664028
C120	C	1.320500	0.610713	1.164028
H121	H	0.374621	0.217173	0.079360
H122	H	0.874621	0.717173	0.579360
O123	O	0.690268	-0.278058	-0.000188
O124	O	1.190268	0.221942	0.499812
H125	H	0.687821	-0.238067	0.050834
H126	H	1.187821	0.261933	0.550834
O127	O	0.839453	-0.046750	0.581682
O128	O	1.339453	0.453250	1.081682
H129	H	0.837915	-0.034025	0.643095
H130	H	1.337915	0.465975	1.143095
H131	H	0.803911	0.248146	0.428290
H132	H	1.303911	0.748146	0.928290
H133	H	0.906176	0.007875	0.185228
H134	H	1.406176	0.507875	0.685228
H135	H	0.463160	0.250947	-0.000201
H136	H	0.963160	0.750947	0.499799
O137	O	0.918678	-0.007093	0.338605
O138	O	1.418678	0.492907	0.838605
H139	H	0.951535	-0.046500	0.297960
H140	H	1.451535	0.453500	0.797960
O141	O	0.839440	-0.046743	0.417892
O142	O	1.339440	0.453257	0.917892
H143	H	0.845780	-0.099419	0.458529
H144	H	1.345780	0.400581	0.958529
H145	H	0.046359	-0.031839	-0.000318
H146	H	0.546359	0.468161	0.499682
H147	H	0.906216	0.007882	0.671317
H148	H	1.406216	0.507882	1.171317
O149	O	0.687623	-0.458309	-0.000190
O150	O	1.187623	0.041691	0.499810
H151	H	0.644279	-0.406531	-0.000184
H152	H	1.144279	0.093469	0.499816
O153	O	0.155070	0.265608	-0.000261
O154	O	0.655070	0.765608	0.499739
H155	H	0.212928	0.253871	-0.000258
H156	H	0.712928	0.753871	0.499742
H157	H	0.594592	0.253255	-0.000187
H158	H	1.094592	0.753255	0.499813
H159	H	0.906217	0.007878	0.814274
H160	H	1.406217	0.507878	1.314274
O161	O	0.231928	0.230034	0.090937
O162	O	0.731928	0.730034	0.590937
H163	H	0.194641	0.268644	0.053944
H164	H	0.694641	0.768644	0.553944
H165	H	0.734788	0.213542	0.814338
H166	H	1.234788	0.713542	1.314338
H167	H	0.734778	0.213542	0.671377
H168	H	1.234778	0.713542	1.171377
O169	O	0.801535	0.268165	0.581663
O170	O	1.301535	0.768165	1.081663
H171	H	0.795180	0.320837	0.541021
H172	H	1.295180	0.820837	1.041021
H173	H	0.734751	0.213530	0.328250
H174	H	1.234751	0.713530	0.828250
O175	O	0.722249	0.228509	0.174869
O176	O	1.222249	0.728509	0.674869
H177	H	0.689403	0.267927	0.215516
H178	H	1.189403	0.767927	0.715516
H179	H	0.016255	0.243104	-0.000279
H180	H	0.516255	0.743104	0.499721
H181	H	0.266341	0.004247	-0.079822
H182	H	0.766341	0.504247	0.420178
O183	O	0.189571	-0.049388	-0.000244
O184	O	0.689571	0.450612	0.499756
H185	H	0.157980	-0.102732	-0.000255
H186	H	0.657980	0.397268	0.499745
H187	H	0.493264	-0.023992	-0.000194
H188	H	0.993264	0.476008	0.499806
O189	O	0.409039	-0.008615	-0.091388
O190	O	0.909039	0.491385	0.408612
H191	H	0.376115	-0.049625	-0.121904
H192	H	0.876115	0.450375	0.378096
O193	O	0.953328	-0.320268	-0.000264
O194	O	1.453328	0.179732	0.499736
H195	H	0.996671	-0.372048	-0.000288
H196	H	1.496671	0.127952	0.499712
O197	O	0.636480	-0.041548	-0.000149
O198	O	1.136480	0.458452	0.499851
H199	H	0.604891	-0.094893	-0.000157
H200	H	1.104891	0.405107	0.499843
O201	O	0.950679	-0.500515	-0.000254
O202	O	1.450679	-0.000515	0.499746
H203	H	0.995336	-0.462856	-0.000254
H204	H	1.495336	0.037144	0.499746
