data_functionalizedCrystal
_audit_creation_method	'MofGen! by Chris Wilmer'
_symmetry_space_group_name_H-M	'P1'
_symmetry_Int_Tables_number	1
_symmetry_cell_setting	triclinic
loop_
_symmetry_equiv_pos_as_xyz
  x,y,z
_cell_length_a	13.897449
_cell_length_b	12.594509
_cell_length_c	13.897448
_cell_angle_alpha	89.969579
_cell_angle_beta	90.018519
_cell_angle_gamma	89.977480
loop_
_atom_site_label
_atom_site_type_symbol
_atom_site_fract_x
_atom_site_fract_y
_atom_site_fract_z
Zn1	Zn	1.474694	-0.601878	-0.383965
Zn2	Zn	1.724694	-0.351878	-0.133965
Zn3	Zn	1.974694	-0.101878	0.116035
Zn4	Zn	2.224694	0.148122	0.366035
Zn5	Zn	1.474591	-0.423892	-0.545286
Zn6	Zn	1.724591	-0.173892	-0.295286
Zn7	Zn	1.974591	0.076108	-0.045286
Zn8	Zn	2.224591	0.326108	0.204714
Zn9	Zn	1.313386	-0.423903	-0.384009
Zn10	Zn	1.563386	-0.173903	-0.134009
Zn11	Zn	1.813386	0.076097	0.115991
Zn12	Zn	2.063386	0.326097	0.365991
Zn13	Zn	1.313365	-0.601819	-0.545222
Zn14	Zn	1.563365	-0.351819	-0.295222
Zn15	Zn	1.813365	-0.101819	-0.045222
Zn16	Zn	2.063365	0.148181	0.204778
O17	O	1.394009	-0.512873	-0.464620
O18	O	1.644009	-0.262873	-0.214620
O19	O	1.894009	-0.012873	0.035380
O20	O	2.144009	0.237127	0.285380
O21	O	1.609662	-0.578288	-0.405372
O22	O	1.859662	-0.328288	-0.155372
O23	O	2.109662	-0.078288	0.094628
O24	O	2.359662	0.171712	0.344628
O25	O	1.453172	-0.274948	-0.523937
O26	O	1.703172	-0.024948	-0.273937
O27	O	1.953172	0.225052	-0.023937
O28	O	2.203172	0.475052	0.226063
O29	O	1.334836	-0.447541	-0.249021
O30	O	1.584836	-0.197541	0.000979
O31	O	1.834836	0.052459	0.250979
O32	O	2.084836	0.302459	0.500979
O33	O	1.609586	-0.447523	-0.523894
O34	O	1.859586	-0.197523	-0.273894
O35	O	2.109586	0.052477	-0.023894
O36	O	2.359586	0.302477	0.226106
O37	O	1.453348	-0.578298	-0.248989
O38	O	1.703348	-0.328298	0.001011
O39	O	1.953348	-0.078298	0.251011
O40	O	2.203348	0.171702	0.501011
O41	O	1.334735	-0.274956	-0.405448
O42	O	1.584735	-0.024956	-0.155448
O43	O	1.834735	0.225044	0.094552
O44	O	2.084735	0.475044	0.344552
O45	O	1.178402	-0.447483	-0.405386
O46	O	1.428402	-0.197483	-0.155386
O47	O	1.678402	0.052517	0.094614
O48	O	1.928402	0.302517	0.344614
O49	O	1.334800	-0.750772	-0.523785
O50	O	1.584800	-0.500772	-0.273785
O51	O	1.834800	-0.250772	-0.023785
O52	O	2.084800	-0.000772	0.226215
O53	O	1.178386	-0.578197	-0.523828
O54	O	1.428386	-0.328197	-0.273828
O55	O	1.678386	-0.078197	-0.023828
O56	O	1.928386	0.171803	0.226172
O57	O	1.453328	-0.750816	-0.405310
O58	O	1.703328	-0.500816	-0.155310
O59	O	1.953328	-0.250816	0.094690
O60	O	2.203328	-0.000816	0.344690
O61	O	1.453152	-0.447466	-0.680259
O62	O	1.703152	-0.197466	-0.430259
O63	O	1.953152	0.052534	-0.180259
O64	O	2.203152	0.302534	0.069741
O65	O	1.334700	-0.578187	-0.680212
O66	O	1.584700	-0.328187	-0.430212
O67	O	1.834700	-0.078187	-0.180212
O68	O	2.084700	0.171813	0.069788
C69	C	1.143395	-0.512836	-0.464605
C70	C	1.393395	-0.262836	-0.214605
C71	C	1.643395	-0.012836	0.035395
C72	C	1.893395	0.237164	0.285395
C73	C	1.036181	-0.512845	-0.464622
C74	C	1.286181	-0.262845	-0.214622
C75	C	1.536181	-0.012845	0.035378
C76	C	1.786181	0.237155	0.285378
C77	C	0.949111	-0.512863	-0.464625
C78	C	1.199111	-0.262863	-0.214625
C79	C	1.449111	-0.012863	0.035375
C80	C	1.699111	0.237137	0.285375
C81	C	0.839879	-0.512895	-0.464632
C82	C	1.089879	-0.262895	-0.214632
C83	C	1.339879	-0.012895	0.035368
C84	C	1.589879	0.237105	0.285368
C85	C	1.394074	-0.790494	-0.464536
C86	C	1.644074	-0.540494	-0.214536
C87	C	1.894074	-0.290494	0.035464
C88	C	2.144074	-0.040494	0.285464
C89	C	1.394101	-0.908800	-0.464500
C90	C	1.644101	-0.658800	-0.214500
C91	C	1.894101	-0.408800	0.035500
C92	C	2.144101	-0.158800	0.285500
C93	C	1.329654	-0.978029	-0.528901
C94	C	1.579654	-0.728029	-0.278901
C95	C	1.829654	-0.478029	-0.028901
C96	C	2.079654	-0.228029	0.221099
C97	C	1.417669	-1.048821	-0.552468
C98	C	1.667669	-0.798821	-0.302468
C99	C	1.917669	-0.548821	-0.052468
C100	C	2.167669	-0.298821	0.197532
C101	C	1.306155	-1.048807	-0.440875
C102	C	1.556155	-0.798807	-0.190875
C103	C	1.806155	-0.548807	0.059125
C104	C	2.056155	-0.298807	0.309125
C105	C	1.482162	-0.978033	-0.488113
C106	C	1.732162	-0.728033	-0.238113
C107	C	1.982162	-0.478033	0.011887
C108	C	2.232162	-0.228033	0.261887
C109	C	1.370589	-0.978013	-0.376478
C110	C	1.620589	-0.728013	-0.126478
C111	C	1.870589	-0.478013	0.123522
C112	C	2.120589	-0.228013	0.373522
C113	C	1.458664	-1.048773	-0.400011
C114	C	1.708664	-0.798773	-0.150011
C115	C	1.958664	-0.548773	0.099989
C116	C	2.208664	-0.298773	0.349989
C117	C	1.645602	-0.512911	-0.464636
C118	C	1.895602	-0.262911	-0.214636
C119	C	2.145602	-0.012911	0.035364
C120	C	2.395602	0.237089	0.285364
C121	C	1.752816	-0.512927	-0.464642
C122	C	2.002816	-0.262927	-0.214642
C123	C	2.252816	-0.012927	0.035358
C124	C	2.502816	0.237073	0.285358
C125	C	1.393939	-0.512842	-0.715234
C126	C	1.643939	-0.262842	-0.465234
C127	C	1.893939	-0.012842	-0.215234
C128	C	2.143939	0.237158	0.034766
C129	C	1.393997	-0.512865	-0.822448
C130	C	1.643997	-0.262865	-0.572448
C131	C	1.893997	-0.012865	-0.322448
C132	C	2.143997	0.237135	-0.072448
C133	C	1.394000	-0.236332	-0.464635
C134	C	1.644000	0.013668	-0.214635
C135	C	1.894000	0.263668	0.035365
C136	C	2.144000	0.513668	0.285365
C137	C	1.394160	-0.118027	-0.464399
C138	C	1.644160	0.131973	-0.214399
C139	C	1.894160	0.381973	0.035601
C140	C	2.144160	0.631973	0.285601
C141	C	1.394098	-0.512931	-1.018743
C142	C	1.644098	-0.262931	-0.768743
C143	C	1.894098	-0.012931	-0.518743
C144	C	2.144098	0.237069	-0.268743
C145	C	1.394039	-0.512897	-0.909511
C146	C	1.644039	-0.262897	-0.659511
C147	C	1.894039	-0.012897	-0.409511
C148	C	2.144039	0.237103	-0.159511
C149	C	1.394106	-0.512927	-0.213027
C150	C	1.644106	-0.262927	0.036973
C151	C	1.894106	-0.012927	0.286973
C152	C	2.144106	0.237073	0.536973
C153	C	1.394147	-0.512950	-0.105813
C154	C	1.644147	-0.262950	0.144187
C155	C	1.894147	-0.012950	0.394187
C156	C	2.144147	0.237050	0.644187
H157	H	1.275196	-0.946968	-0.583449
H158	H	1.525196	-0.696968	-0.333449
H159	H	1.775196	-0.446968	-0.083449
H160	H	2.025196	-0.196968	0.166551
Br161	Br	1.549643	-1.100226	-0.309164
Br162	Br	1.799643	-0.850226	-0.059164
Br163	Br	2.049643	-0.600226	0.190836
Br164	Br	2.299643	-0.350226	0.440836
H165	H	1.556582	-0.947075	-0.508137
H166	H	1.806582	-0.697075	-0.258137
H167	H	2.056582	-0.447075	-0.008137
H168	H	2.306582	-0.197075	0.241863
H169	H	1.231756	-1.079896	-0.420935
H170	H	1.481756	-0.829896	-0.170935
H171	H	1.731756	-0.579896	0.079065
H172	H	1.981756	-0.329896	0.329065
Br173	Br	1.450872	-1.100660	-0.676463
Br174	Br	1.700872	-0.850660	-0.426463
Br175	Br	1.950872	-0.600660	-0.176463
Br176	Br	2.200872	-0.350660	0.073537
Br177	Br	1.337349	-0.926131	-0.252515
Br178	Br	1.587349	-0.676131	-0.002515
Br179	Br	1.837349	-0.426131	0.247485
Br180	Br	2.087349	-0.176131	0.497485
