data_functionalizedCrystal
_audit_creation_method	'MofGen! by Chris Wilmer'
_symmetry_space_group_name_H-M	'P1'
_symmetry_Int_Tables_number	1
_symmetry_cell_setting	triclinic
loop_
_symmetry_equiv_pos_as_xyz
  x,y,z
_cell_length_a	23.096457
_cell_length_b	20.875641
_cell_length_c	20.875641
_cell_angle_alpha	60.089808
_cell_angle_beta	89.999757
_cell_angle_gamma	62.439477
loop_
_atom_site_label
_atom_site_type_symbol
_atom_site_fract_x
_atom_site_fract_y
_atom_site_fract_z
Zr1	Zr	0.584269	0.694356	-0.105794
O2	O	0.499421	0.820595	-0.209055
O3	O	0.607105	0.563101	-0.070863
O4	O	0.615632	0.687125	-0.204336
O5	O	0.487780	0.704025	0.025977
O6	O	0.710912	0.687126	-0.204339
O7	O	0.490894	0.696572	-0.075582
O8	O	0.695660	0.465271	0.034419
O9	O	0.503032	0.925880	-0.212781
O10	O	0.691787	0.618947	-0.059926
O11	O	0.618356	0.624509	0.015869
O12	O	0.628395	0.770530	-0.141277
O13	O	0.554963	0.776091	-0.065482
Zr14	Zr	0.731263	0.706246	0.056176
Zr15	Zr	0.736231	0.694359	-0.105800
Zr16	Zr	0.579302	0.706243	0.056182
Zr17	Zr	0.590029	0.862274	-0.111736
Zr18	Zr	0.725504	0.538328	0.062118
O19	O	0.708427	0.837501	0.021245
O20	O	0.715490	0.820599	-0.209063
O21	O	0.492358	0.837497	0.021254
O22	O	0.816112	0.580007	0.159436
O23	O	0.823175	0.563105	-0.070872
O24	O	0.600042	0.580004	0.159445
O25	O	0.827753	0.696577	-0.075595
O26	O	0.699901	0.713477	0.154717
O27	O	0.604620	0.713476	0.154721
O28	O	0.824638	0.704030	0.025964
O29	O	0.623821	0.925882	-0.212785
O30	O	0.691711	0.474720	0.163167
O31	O	0.812500	0.474722	0.163163
O32	O	0.816449	0.465273	0.034414
O33	O	0.499084	0.935329	-0.084032
O34	O	0.619873	0.935331	-0.084037
O35	O	0.687138	0.630072	0.091659
O36	O	0.760569	0.624511	0.015864
O37	O	0.697177	0.776094	-0.065488
O38	O	0.623746	0.781655	0.010308
C39	C	0.650562	0.490262	-0.017376
C40	C	0.648117	0.418976	-0.014853
C41	C	0.685297	0.382583	-0.053232
C42	C	0.683001	0.315599	-0.050854
C43	C	0.643521	0.285013	-0.010101
C44	C	0.606340	0.321409	0.028283
C45	C	0.608640	0.388388	0.025909
C46	C	0.632535	0.085001	0.001245
C47	C	0.630236	0.018019	0.003614
C48	C	0.706898	0.012212	-0.075522
C49	C	0.709191	0.079197	-0.077896
C50	C	0.672013	0.115584	-0.039509
N51	N	0.641171	0.216546	-0.007672
N52	N	0.674367	0.184045	-0.041934
C53	C	0.467686	0.700298	-0.024802
C54	C	0.403174	0.700297	-0.024799
C55	C	0.405959	0.621174	0.017658
C56	C	0.345343	0.621173	0.017662
C57	C	0.281944	0.700299	-0.024807
C58	C	0.279162	0.779432	-0.067267
C59	C	0.339777	0.779431	-0.067262
N60	N	0.163217	0.756632	-0.091359
N61	N	0.105638	0.756627	-0.091362
C62	C	0.099312	0.700306	-0.024821
N63	N	0.152746	0.643976	0.041722
N64	N	0.210332	0.643978	0.041723
C65	C	0.216213	0.700308	-0.024816
C66	C	0.036372	0.621176	0.017644
C67	C	-0.024246	0.621179	0.017649
C68	C	-0.090427	0.779439	-0.067287
C69	C	-0.029809	0.779435	-0.067284
C70	C	0.033588	0.700301	-0.024821
C71	C	0.847847	0.700304	-0.024817
C72	C	0.912359	0.700305	-0.024819
C73	C	0.663980	0.685432	-0.227416
C74	C	0.666089	0.680385	-0.296178
C75	C	0.664971	0.910341	-0.032243
C76	C	0.667416	0.981626	-0.034765
C77	C	0.633990	0.757137	-0.370948
C78	C	0.635981	0.752390	-0.435555
C79	C	0.670066	0.670891	-0.425391
C80	C	0.702168	0.594133	-0.350614
C81	C	0.700182	0.598881	-0.286008
C82	C	0.679560	0.648207	-0.614057
C83	C	0.681542	0.643465	-0.678671
C84	C	0.615356	0.801723	-0.763607
C85	C	0.613368	0.806463	-0.698997
C86	C	0.645474	0.729706	-0.624225
N87	N	0.672099	0.666037	-0.491429
N88	N	0.643444	0.734561	-0.558189
C89	C	0.651553	0.715170	0.177797
C90	C	0.649444	0.720217	0.246560
C91	C	0.840643	0.490265	-0.017383
C92	C	0.902709	0.418980	-0.014863
C93	C	0.644348	0.505131	0.185231
C94	C	0.639794	0.438892	0.256516
C95	C	0.834429	0.505134	0.185223
C96	C	0.894387	0.438896	0.256506
C97	C	0.481104	0.895468	-0.234841
C98	C	0.421146	0.961706	-0.306125
C99	C	0.474890	0.910338	-0.032235
C100	C	0.412823	0.981622	-0.034755
C101	C	0.671184	0.895471	-0.234849
C102	C	0.675738	0.961710	-0.306135
C103	C	0.895953	0.382600	-0.053248
C104	C	0.954266	0.315628	-0.050895
C105	C	1.019334	0.285035	-0.010153
C106	C	1.026090	0.321422	0.028233
C107	C	0.967777	0.388396	0.025875
C108	C	0.673559	0.410690	0.329561
C109	C	0.669278	0.348461	0.396548
C110	C	0.631235	0.314431	0.390488
C111	C	0.597466	0.342639	0.317435
C112	C	0.601744	0.404871	0.250450
C113	C	0.960880	0.404887	0.250417
C114	C	1.017223	0.342658	0.317389
C115	C	1.007071	0.314435	0.390449
C116	C	0.940571	0.348450	0.396536
C117	C	0.884229	0.410682	0.329565
C118	C	0.354653	0.995724	-0.300036
C119	C	0.298310	1.057973	-0.367008
C120	C	0.308463	1.086200	-0.440068
C121	C	0.374963	1.052180	-0.446155
C122	C	0.431304	0.989936	-0.379184
C123	C	0.419580	1.018009	0.003622
C124	C	0.361268	1.084997	0.001251
C125	C	0.296200	1.115593	-0.039493
C126	C	0.289445	1.079203	-0.077876
C127	C	0.347756	1.012220	-0.075509
C128	C	0.713787	0.995721	-0.300050
C129	C	0.718079	1.057951	-0.367024
C130	C	0.684318	1.086174	-0.440082
C131	C	0.646268	1.052157	-0.446165
C132	C	0.641981	0.989923	-0.379192
H133	H	0.602265	0.114617	0.032506
C134	C	0.386119	1.083231	-0.526529
N135	N	0.394519	1.106614	-0.587068
H136	H	1.079076	0.296503	0.061404
H137	H	0.717442	0.407485	-0.086421
C138	C	0.232061	1.189273	-0.042085
N139	N	0.183754	1.244767	-0.044032
H140	H	0.830089	0.438365	0.334534
H141	H	0.589218	0.864214	-0.824491
H142	H	0.606230	0.823503	-0.379233
C143	C	0.225166	1.095382	-0.360294
N144	N	0.170075	1.123557	-0.355236
C145	C	0.217862	1.112857	-0.122680
N146	N	0.163943	1.138200	-0.156419
C147	C	0.368714	1.125008	0.043484
N148	N	0.374324	1.155140	0.075296
C149	C	0.504446	0.952513	-0.385895
N150	N	0.559535	0.924327	-0.390955
H151	H	0.948752	0.286010	-0.082153
C152	C	0.343468	0.964692	-0.219676
N153	N	0.335039	0.941328	-0.159151
H154	H	1.071366	0.314968	0.312419
H155	H	0.627757	0.263758	0.445037
C156	C	-0.032873	0.866477	-0.114004
N157	N	-0.035184	0.932041	-0.149195
H158	H	1.066810	0.230499	-0.008238
H159	H	0.342245	0.982596	-0.106759
H160	H	0.262580	1.136883	-0.494594
H161	H	0.973288	0.418009	0.057138
H162	H	0.969159	0.427856	0.190934
C163	C	0.719047	0.553805	-0.667483
N164	N	0.747295	0.486277	-0.659059
C165	C	0.723884	0.275589	-0.093096
N166	N	0.754673	0.245461	-0.124922
H167	H	0.741279	0.972753	-0.240568
C168	C	0.491151	0.984371	0.048443
N169	N	0.545056	0.959043	0.082200
H170	H	0.704538	0.438391	0.334510
H171	H	0.337505	0.843865	-0.101835
C172	C	0.759933	1.095364	-0.360315
N173	N	0.791458	1.123541	-0.355259
C174	C	0.706437	0.317435	0.476898
N175	N	0.734427	0.294066	0.537416
H176	H	0.741339	0.104098	-0.111080
C177	C	-0.021178	0.534132	0.064352
N178	N	-0.018867	0.468567	0.099527
C179	C	0.689040	1.154635	-0.513748
N180	N	0.692598	1.206202	-0.569230
C181	C	0.609163	1.083179	-0.526536
N182	N	0.581223	1.106538	-0.587073
C183	C	0.555625	0.305191	0.310782
N184	N	0.524114	0.276980	0.305774
H185	H	0.705702	0.585705	-0.553184
C186	C	0.562911	0.287762	0.073111
N187	N	0.530197	0.262422	0.106874
C188	C	0.564605	0.435876	0.170103
N189	N	0.536631	0.459225	0.109586
H190	H	0.610995	0.962238	-0.384157
H191	H	0.457575	0.556737	0.052231
H192	H	0.737168	-0.017421	-0.106774
C193	C	1.069055	0.245970	0.464112
N194	N	1.115745	0.194399	0.519593
H195	H	0.932314	0.325462	0.456031
C196	C	0.739660	0.504483	-0.339435
N197	N	0.767897	0.436956	-0.331014
C198	C	0.348404	0.534128	0.064366
N199	N	0.350711	0.468566	0.099543
H200	H	0.585615	0.872829	-0.707281
C201	C	0.209421	0.866470	-0.113986
N202	N	0.156892	0.932030	-0.149175
H203	H	0.598083	-0.006880	0.036800
H204	H	0.087993	0.556742	0.052236
H205	H	0.578362	0.418020	0.057159
H206	H	-0.142046	0.843865	-0.101866
H207	H	0.609845	0.814890	-0.496433
C208	C	0.735490	0.514448	-0.203759
N209	N	0.762088	0.450850	-0.141808
H210	H	0.842976	0.407507	-0.086434
