data_functionalizedCrystal
_audit_creation_method	'MofGen! by Chris Wilmer'
_symmetry_space_group_name_H-M	'P1'
_symmetry_Int_Tables_number	1
_symmetry_cell_setting	triclinic
loop_
_symmetry_equiv_pos_as_xyz
  x,y,z
_cell_length_a	19.188930
_cell_length_b	8.559649
_cell_length_c	7.681481
_cell_angle_alpha	94.930900
_cell_angle_beta	84.309808
_cell_angle_gamma	76.461723
loop_
_atom_site_label
_atom_site_type_symbol
_atom_site_fract_x
_atom_site_fract_y
_atom_site_fract_z
O1	O	-0.908267	-0.214796	-0.146976
O2	O	-0.703558	-0.241647	-0.146853
O3	O	-0.823948	0.004506	-0.146923
O4	O	-0.787877	-0.460948	-0.146905
O5	O	-0.838769	0.034871	0.145926
O6	O	-0.718379	-0.211281	0.145996
O7	O	-0.923089	-0.184430	0.145873
Zn8	Zn	-0.823087	-0.193034	0.192431
Zn9	Zn	-0.803559	-0.233043	-0.193411
O10	O	-0.802699	-0.430583	0.145944
C11	C	-0.834092	0.079237	-0.000504
C12	C	-0.842228	0.256672	-0.000519
C13	C	-0.685004	-0.225593	-0.000413
C14	C	-0.607638	-0.222976	-0.000367
C15	C	-0.941643	-0.200485	-0.000571
C16	C	-1.019008	-0.203102	-0.000628
C17	C	-0.555161	-0.367417	-0.000389
C18	C	-0.482464	-0.364966	-0.000409
C19	C	-0.462247	-0.218069	-0.000441
C20	C	-0.514736	-0.073608	-0.000409
C21	C	-0.587431	-0.076062	-0.000372
N22	N	-0.355090	-0.116125	-0.100186
N23	N	-0.286031	-0.113804	-0.100225
C24	C	-0.243221	-0.210667	-0.000549
N25	N	-0.272075	-0.309965	0.099145
N26	N	-0.341139	-0.312291	0.099176
C27	C	-0.383423	-0.215392	-0.000480
C28	C	-0.111917	-0.352459	-0.000590
C29	C	-0.039220	-0.350001	-0.000598
C30	C	-0.071492	-0.058641	-0.000617
C31	C	-0.144188	-0.061102	-0.000591
C32	C	-0.164395	-0.208016	-0.000586
C33	C	-0.792555	-0.505314	-0.000480
C34	C	-0.784418	-0.682751	-0.000477
N35	N	-0.836420	-0.165729	0.455757
N36	N	-0.790233	-0.260335	-0.456737
H37	H	-0.571608	-0.487047	-0.000388
N38	N	-0.727771	-0.388236	0.443715
H39	H	-0.731406	-0.498309	0.475698
H40	H	-0.729314	-0.384986	0.313009
N41	N	-0.133723	-0.510901	-0.000553
H42	H	-0.157685	-0.529674	-0.109102
H43	H	-0.089415	-0.601936	-0.000487
H44	H	-0.630160	0.041563	-0.000355
H45	H	-0.055027	0.060954	-0.000753
N46	N	-0.898885	-0.037827	0.555323
H47	H	-0.879793	0.040576	0.631845
H48	H	-0.928269	0.022289	0.468943
H49	H	-0.439730	-0.482590	-0.000422
N50	N	0.017378	-0.505784	-0.000482
H51	H	-0.006459	-0.599214	-0.000434
H52	H	0.053747	-0.522435	-0.109013
H53	H	-0.186916	0.056517	-0.000582
N54	N	-0.492936	0.084835	-0.000424
H55	H	-0.438920	0.064473	-0.000452
H56	H	-0.507214	0.136774	-0.108977
H57	H	-0.728699	0.233367	-0.000438
N58	N	-0.916043	0.367781	-0.000535
H59	H	-0.911592	0.483042	-0.000518
H60	H	-0.937465	0.335991	-0.109115
