data_functionalizedCrystal
_audit_creation_method	'MofGen! by Chris Wilmer'
_symmetry_space_group_name_H-M	'P1'
_symmetry_Int_Tables_number	1
_symmetry_cell_setting	triclinic
loop_
_symmetry_equiv_pos_as_xyz
  x,y,z
_cell_length_a	25.639243
_cell_length_b	13.897448
_cell_length_c	13.897441
_cell_angle_alpha	90.028012
_cell_angle_beta	90.024497
_cell_angle_gamma	90.022250
loop_
_atom_site_label
_atom_site_type_symbol
_atom_site_fract_x
_atom_site_fract_y
_atom_site_fract_z
Zn1	Zn	-0.799338	0.383915	-0.545495
Zn2	Zn	-0.799278	0.545237	-0.384204
Zn3	Zn	-0.711902	0.383965	-0.384203
Zn4	Zn	-0.711889	0.545177	-0.545446
O5	O	-0.755602	0.464574	-0.464837
O6	O	-0.872496	0.405319	-0.524121
O7	O	-0.787668	0.523889	-0.249222
O8	O	-0.723531	0.248977	-0.405619
O9	O	-0.872451	0.523841	-0.405621
O10	O	-0.787770	0.248940	-0.524120
O11	O	-0.723472	0.405404	-0.249222
O12	O	-0.638735	0.405346	-0.405571
O13	O	-0.723509	0.523740	-0.680434
O14	O	-0.638725	0.523788	-0.524036
O15	O	-0.787758	0.405261	-0.680471
O16	O	-0.787655	0.680211	-0.405573
O17	O	-0.723451	0.680167	-0.524037
C18	C	-0.619759	0.464567	-0.464799
C19	C	-0.561645	0.464587	-0.464805
C20	C	-0.201300	0.402955	-0.526642
C21	C	-0.146695	0.402954	-0.526648
O22	O	-0.118473	0.350535	-0.579177
N23	N	-0.119363	0.464570	-0.464863
C24	C	-0.146637	0.526183	-0.403061
O25	O	-0.118375	0.578592	-0.350507
C26	C	-0.201241	0.526179	-0.403050
C27	C	-0.228570	0.464566	-0.464847
C28	C	-0.228629	0.341347	-0.588433
C29	C	-0.283230	0.341349	-0.588428
C30	C	-0.310501	0.402960	-0.526632
C31	C	-0.283171	0.464568	-0.464842
C32	C	-0.228514	0.587787	-0.341244
C33	C	-0.283121	0.587776	-0.341239
C34	C	-0.310451	0.526164	-0.403035
C35	C	-0.365042	0.526182	-0.403042
N36	N	-0.392375	0.464566	-0.464827
C37	C	-0.365104	0.402955	-0.526622
C38	C	-0.031967	0.526187	-0.403085
C39	C	0.022636	0.526198	-0.403099
C40	C	0.022574	0.402967	-0.526686
C41	C	-0.032029	0.402962	-0.526676
C42	C	-0.059299	0.464572	-0.464871
C43	C	-0.479769	0.402966	-0.526608
C44	C	-0.534374	0.402976	-0.526601
C45	C	-0.534308	0.526203	-0.403011
C46	C	-0.479707	0.526196	-0.403022
C47	C	-0.452439	0.464570	-0.464823
O48	O	-0.393299	0.578572	-0.350537
O49	O	-0.393373	0.350547	-0.579158
C50	C	-0.755559	0.715188	-0.464821
C51	C	-0.755589	0.822402	-0.464846
C52	C	-0.755639	0.464488	-0.716430
C53	C	-0.755655	0.464452	-0.823644
C54	C	0.108025	0.464581	-0.464876
C55	C	0.049911	0.464583	-0.464892
C56	C	-0.755640	1.018697	-0.464915
C57	C	-0.755610	0.909464	-0.464879
C58	C	-0.755654	1.212981	-0.464886
C59	C	-0.755665	1.105767	-0.464936
C60	C	-0.755669	0.464387	-1.019940
C61	C	-0.755659	0.464426	-0.910707
C62	C	-0.755595	0.464589	-0.214223
C63	C	-0.755680	0.464353	-0.107009
H64	H	-0.054166	0.576366	-0.352758
H65	H	0.044883	0.576380	-0.352789
H66	H	-0.206272	0.637958	-0.290922
N67	N	-0.312533	0.654224	-0.274572
H68	H	-0.286931	0.693250	-0.235430
H69	H	-0.335190	0.698916	-0.313751
N70	N	-0.450226	0.592661	-0.336386
H71	H	-0.475790	0.631694	-0.297242
H72	H	-0.427570	0.553342	-0.291811
N73	N	-0.450369	0.336500	-0.593274
H74	H	-0.427718	0.375751	-0.637913
H75	H	-0.427744	0.291754	-0.554095
H76	H	-0.556522	0.576367	-0.352701
H77	H	0.044788	0.352797	-0.577001
N78	N	-0.563852	0.336524	-0.593258
H79	H	-0.538287	0.297493	-0.632402
H80	H	-0.586507	0.291836	-0.554071
N81	N	-0.061503	0.336511	-0.593330
H82	H	-0.084157	0.291756	-0.554211
H83	H	-0.084132	0.375838	-0.637944
H84	H	-0.206431	0.291170	-0.638754
N85	N	-0.312703	0.274892	-0.655077
H86	H	-0.287135	0.235865	-0.694218
H87	H	-0.335356	0.230201	-0.615887
