data_functionalizedCrystal
_audit_creation_method	'MofGen! by Chris Wilmer'
_symmetry_space_group_name_H-M	'P1'
_symmetry_Int_Tables_number	1
_symmetry_cell_setting	triclinic
loop_
_symmetry_equiv_pos_as_xyz
  x,y,z
_cell_length_a	29.839131
_cell_length_b	29.839134
_cell_length_c	29.839125
_cell_angle_alpha	90.026045
_cell_angle_beta	89.982291
_cell_angle_gamma	89.966214
loop_
_atom_site_label
_atom_site_type_symbol
_atom_site_fract_x
_atom_site_fract_y
_atom_site_fract_z
Zn1	Zn	-0.179008	-0.686720	-0.254174
Zn2	Zn	0.154326	-0.353386	0.079160
Zn3	Zn	0.487659	-0.020053	0.412493
Zn4	Zn	-0.254120	-0.686652	-0.179044
Zn5	Zn	0.079214	-0.353318	0.154290
Zn6	Zn	0.412547	-0.019985	0.487623
Zn7	Zn	-0.178995	-0.611602	-0.179038
Zn8	Zn	0.154339	-0.278269	0.154295
Zn9	Zn	0.487672	0.055064	0.487629
Zn10	Zn	-0.254101	-0.611550	-0.254127
Zn11	Zn	0.079232	-0.278217	0.079207
Zn12	Zn	0.412565	0.055117	0.412540
O13	O	-0.216556	-0.649131	-0.216596
O14	O	0.116777	-0.315798	0.116738
O15	O	0.450111	0.017536	0.450071
O16	O	-0.188985	-0.749578	-0.244230
O17	O	0.144349	-0.416244	0.089104
O18	O	0.477682	-0.082911	0.422437
O19	O	-0.244156	-0.676690	-0.116176
O20	O	0.089177	-0.343356	0.217158
O21	O	0.422510	-0.010023	0.550491
O22	O	-0.116129	-0.621617	-0.189022
O23	O	0.217204	-0.288284	0.144311
O24	O	0.550537	0.045050	0.477644
O25	O	-0.244169	-0.749528	-0.189032
O26	O	0.089164	-0.416195	0.144301
O27	O	0.422497	-0.082861	0.477635
O28	O	-0.116139	-0.676805	-0.244224
O29	O	0.217194	-0.343472	0.089109
O30	O	0.550528	-0.010139	0.422443
O31	O	-0.188962	-0.621551	-0.116172
O32	O	0.144371	-0.288218	0.217162
O33	O	0.477704	0.045115	0.550495
O34	O	-0.188945	-0.548728	-0.188977
O35	O	0.144389	-0.215395	0.144357
O36	O	0.477722	0.117938	0.477690
O37	O	-0.244138	-0.621528	-0.317000
O38	O	0.089195	-0.288195	0.016333
O39	O	0.422529	0.045139	0.349667
O40	O	-0.244125	-0.548690	-0.244144
O41	O	0.089208	-0.215357	0.089189
O42	O	0.422541	0.117977	0.422523
O43	O	-0.188967	-0.676755	-0.317035
O44	O	0.144366	-0.343421	0.016299
O45	O	0.477700	-0.010088	0.349632
O46	O	-0.316985	-0.676639	-0.188986
O47	O	0.016349	-0.343306	0.144347
O48	O	0.349682	-0.009972	0.477680
O49	O	-0.316971	-0.621462	-0.244150
O50	O	0.016362	-0.288129	0.089184
O51	O	0.349696	0.045204	0.422517
C52	C	-0.216532	-0.532408	-0.216555
C53	C	0.116802	-0.199075	0.116778
C54	C	0.450135	0.134258	0.450112
C55	C	-0.216532	-0.482474	-0.216548
C56	C	0.116801	-0.149141	0.116785
C57	C	0.450134	0.184193	0.450119
C58	C	-0.187777	-0.125894	-0.187913
C59	C	0.145556	0.207439	0.145421
C60	C	0.478889	0.540772	0.478754
C61	C	-0.187766	-0.313567	-0.187891
C62	C	0.145567	0.019766	0.145442
C63	C	0.478901	0.353099	0.478776
O64	O	-0.163282	-0.337838	-0.163512
O65	O	0.170052	-0.004505	0.169821
O66	O	0.503385	0.328828	0.503154
N67	N	-0.216539	-0.337029	-0.216566
N68	N	0.116795	-0.003695	0.116767
N69	N	0.450128	0.329638	0.450100
C70	C	-0.245314	-0.313569	-0.245251
C71	C	0.088019	0.019764	0.088082
C72	C	0.421353	0.353098	0.421416
O73	O	-0.269783	-0.337831	-0.269644
O74	O	0.063550	-0.004498	0.063690
O75	O	0.396883	0.328836	0.397023
C76	C	-0.245323	-0.125897	-0.245275
C77	C	0.088010	0.207436	0.088059
C78	C	0.421344	0.540770	0.421392
C79	C	-0.216552	-0.102438	-0.216594
C80	C	0.116782	0.230895	0.116739
C81	C	0.450115	0.564229	0.450072
C82	C	-0.159008	-0.102435	-0.159235
C83	C	0.174325	0.230898	0.174098
C84	C	0.507659	0.564231	0.507432
C85	C	-0.159013	-0.055520	-0.159239
C86	C	0.174320	0.277814	0.174094
C87	C	0.507654	0.611147	0.507428
C88	C	-0.187787	-0.032063	-0.187921
C89	C	0.145546	0.301270	0.145413
C90	C	0.478879	0.634603	0.478746
C91	C	-0.216556	-0.055522	-0.216598
C92	C	0.116777	0.277811	0.116735
C93	C	0.450110	0.611144	0.450068
C94	C	-0.274096	-0.102438	-0.273961
C95	C	0.059238	0.230895	0.059372
C96	C	0.392571	0.564229	0.392705
C97	C	-0.274095	-0.055517	-0.273965
C98	C	0.059239	0.277816	0.059368
C99	C	0.392572	0.611150	0.392701
C100	C	-0.245323	-0.032058	-0.245285
C101	C	0.088010	0.301275	0.088048
C102	C	0.421343	0.634609	0.421382
C103	C	-0.245336	0.014849	-0.245284
C104	C	0.087998	0.348183	0.088050
C105	C	0.421331	0.681516	0.421383
N106	N	-0.216563	0.038311	-0.216609
N107	N	0.116770	0.371644	0.116725
N108	N	0.450104	0.704978	0.450058
C109	C	-0.187789	0.014854	-0.187927
C110	C	0.145545	0.348188	0.145406
C111	C	0.478878	0.681521	0.478740
C112	C	-0.245308	-0.412100	-0.245236
C113	C	0.088025	-0.078766	0.088097
C114	C	0.421359	0.254567	0.421431
C115	C	-0.245306	-0.459018	-0.245230
C116	C	0.088027	-0.125684	0.088104
C117	C	0.421360	0.207649	0.421437
C118	C	-0.187758	-0.459013	-0.187870
C119	C	0.145576	-0.125679	0.145463
C120	C	0.478909	0.207654	0.478796
C121	C	-0.187762	-0.412094	-0.187875
C122	C	0.145572	-0.078761	0.145459
C123	C	0.478905	0.254573	0.478792
C124	C	-0.216535	-0.388638	-0.216561
C125	C	0.116798	-0.055305	0.116773
C126	C	0.450131	0.278028	0.450106
C127	C	-0.187801	0.113380	-0.187937
C128	C	0.145532	0.446714	0.145396
C129	C	0.478865	0.780047	0.478729
C130	C	-0.187810	0.160300	-0.187942
C131	C	0.145523	0.493633	0.145391
C132	C	0.478856	0.826967	0.478724
C133	C	-0.245357	0.160291	-0.245303
C134	C	0.087976	0.493624	0.088030
C135	C	0.421310	0.826957	0.421363
C136	C	-0.245350	0.113375	-0.245297
C137	C	0.087983	0.446709	0.088037
C138	C	0.421316	0.780042	0.421370
C139	C	-0.216569	0.089921	-0.216612
C140	C	0.116765	0.423255	0.116721
C141	C	0.450098	0.756588	0.450055
O142	O	-0.269803	0.039149	-0.269653
O143	O	0.063530	0.372483	0.063680
O144	O	0.396863	0.705816	0.397013
O145	O	-0.163316	0.039124	-0.163545
O146	O	0.170017	0.372458	0.169788
O147	O	0.503351	0.705791	0.503122
C148	C	-0.187773	-0.172810	-0.187909
C149	C	0.145561	0.160524	0.145425
C150	C	0.478894	0.493857	0.478758
C151	C	-0.216542	-0.196269	-0.216586
C152	C	0.116791	0.137064	0.116747
C153	C	0.450125	0.470398	0.450080
C154	C	-0.245316	-0.172812	-0.245268
C155	C	0.088017	0.160521	0.088065
C156	C	0.421351	0.493854	0.421399
C157	C	-0.216540	-0.243187	-0.216580
C158	C	0.116793	0.090147	0.116753
C159	C	0.450126	0.423480	0.450087
C160	C	-0.187766	-0.266643	-0.187898
C161	C	0.145567	0.066690	0.145435
C162	C	0.478901	0.400024	0.478768
C163	C	-0.158994	-0.243182	-0.159223
C164	C	0.174340	0.090152	0.174110
C165	C	0.507673	0.423485	0.507443
C166	C	-0.158998	-0.196266	-0.159227
C167	C	0.174335	0.137067	0.174106
C168	C	0.507668	0.470401	0.507439
C169	C	-0.274089	-0.196274	-0.273943
C170	C	0.059245	0.137059	0.059390
C171	C	0.392578	0.470393	0.392724
C172	C	-0.274082	-0.243189	-0.273936
C173	C	0.059252	0.090144	0.059397
C174	C	0.392585	0.423477	0.392730
C175	C	-0.245308	-0.266646	-0.245255
C176	C	0.088026	0.066688	0.088078
C177	C	0.421359	0.400021	0.421412
C178	C	-0.333279	-0.649050	-0.216573
C179	C	0.000055	-0.315717	0.116760
C180	C	0.333388	0.017617	0.450093
C181	C	-0.383213	-0.649056	-0.216579
C182	C	-0.049880	-0.315723	0.116755
C183	C	0.283454	0.017610	0.450088
C184	C	-0.692851	-0.677914	-0.187914
C185	C	-0.359517	-0.344580	0.145419
C186	C	-0.026184	-0.011247	0.478753
C187	C	-0.880524	-0.677969	-0.187931
C188	C	-0.547190	-0.344636	0.145402
C189	C	-0.213857	-0.011303	0.478735
O190	O	-0.904784	-0.702441	-0.163543
O191	O	-0.571450	-0.369107	0.169791
O192	O	-0.238117	-0.035774	0.503124
N193	N	-0.903998	-0.649224	-0.216629
N194	N	-0.570665	-0.315891	0.116704
N195	N	-0.237331	0.017443	0.450037
C196	C	-0.880551	-0.620465	-0.245327
C197	C	-0.547218	-0.287132	0.088006
C198	C	-0.213884	0.046201	0.421340
O199	O	-0.904824	-0.596020	-0.269740
O200	O	-0.571490	-0.262687	0.063593
O201	O	-0.238157	0.070646	0.396926
C202	C	-0.692879	-0.620412	-0.245312
C203	C	-0.359546	-0.287079	0.088022
C204	C	-0.026212	0.046254	0.421355
C205	C	-0.669407	-0.649156	-0.216609
C206	C	-0.336074	-0.315823	0.116725
C207	C	-0.002740	0.017511	0.450058
C208	C	-0.669379	-0.706656	-0.159214
C209	C	-0.336045	-0.373322	0.174120
C210	C	-0.002712	-0.039989	0.507453
C211	C	-0.622463	-0.706640	-0.159208
C212	C	-0.289130	-0.373306	0.174125
C213	C	0.044203	-0.039973	0.507459
C214	C	-0.599020	-0.677882	-0.187902
C215	C	-0.265686	-0.344549	0.145431
C216	C	0.067647	-0.011215	0.478764
C217	C	-0.622492	-0.649140	-0.216603
C218	C	-0.289158	-0.315807	0.116731
C219	C	0.044175	0.017526	0.450064
C220	C	-0.669433	-0.591656	-0.274011
C221	C	-0.336100	-0.258323	0.059322
C222	C	-0.002766	0.075011	0.392655
C223	C	-0.622512	-0.591646	-0.274006
C224	C	-0.289179	-0.258313	0.059328
C225	C	0.044155	0.075021	0.392661
C226	C	-0.599040	-0.620390	-0.245303
C227	C	-0.265707	-0.287057	0.088031
C228	C	0.067627	0.046277	0.421364
C229	C	-0.552133	-0.620367	-0.245292
C230	C	-0.218799	-0.287033	0.088042
C231	C	0.114534	0.046300	0.421375
N232	N	-0.528658	-0.649112	-0.216594
N233	N	-0.195325	-0.315778	0.116740
N234	N	0.138008	0.017555	0.450073
C235	C	-0.552102	-0.677869	-0.187899
C236	C	-0.218769	-0.344536	0.145434
C237	C	0.114565	-0.011203	0.478768
C238	C	-0.979082	-0.620494	-0.245333
C239	C	-0.645748	-0.287161	0.088001
C240	C	-0.312415	0.046172	0.421334
C241	C	-1.026000	-0.620507	-0.245336
C242	C	-0.692666	-0.287174	0.087997
C243	C	-0.359333	0.046160	0.421331
C244	C	-1.025969	-0.678012	-0.187941
C245	C	-0.692636	-0.344678	0.145392
C246	C	-0.359302	-0.011345	0.478726
C247	C	-0.979050	-0.677996	-0.187936
C248	C	-0.645717	-0.344663	0.145398
C249	C	-0.312384	-0.011330	0.478731
C250	C	-0.955607	-0.649239	-0.216635
C251	C	-0.622274	-0.315906	0.116699
C252	C	-0.288941	0.017427	0.450032
C253	C	-0.453576	-0.677834	-0.187889
C254	C	-0.120243	-0.344500	0.145445
C255	C	0.213091	-0.011167	0.478778
C256	C	-0.406657	-0.677814	-0.187884
C257	C	-0.073323	-0.344481	0.145449
C258	C	0.260010	-0.011147	0.478782
C259	C	-0.406691	-0.620311	-0.245281
C260	C	-0.073358	-0.286978	0.088053
C261	C	0.259975	0.046356	0.421386
C262	C	-0.453607	-0.620329	-0.245284
C263	C	-0.120273	-0.286996	0.088049
C264	C	0.213060	0.046338	0.421383
C265	C	-0.477048	-0.649094	-0.216586
C266	C	-0.143715	-0.315761	0.116747
C267	C	0.189619	0.017573	0.450080
O268	O	-0.527844	-0.595912	-0.269671
O269	O	-0.194510	-0.262578	0.063662
O270	O	0.138823	0.070755	0.396995
O271	O	-0.527821	-0.702318	-0.163497
O272	O	-0.194488	-0.368984	0.169837
O273	O	0.138845	-0.035651	0.503170
C274	C	-0.739766	-0.677930	-0.187920
C275	C	-0.406433	-0.344596	0.145413
C276	C	-0.073099	-0.011263	0.478747
C277	C	-0.763238	-0.649188	-0.216620
C278	C	-0.429905	-0.315855	0.116713
C279	C	-0.096571	0.017479	0.450046
C280	C	-0.739794	-0.620430	-0.245315
C281	C	-0.406461	-0.287097	0.088019
C282	C	-0.073128	0.046236	0.421352
C283	C	-0.810156	-0.649200	-0.216624
C284	C	-0.476822	-0.315867	0.116710
C285	C	-0.143489	0.017466	0.450043
C286	C	-0.833599	-0.677958	-0.187929
C287	C	-0.500266	-0.344625	0.145404
C288	C	-0.166933	-0.011291	0.478738
C289	C	-0.810125	-0.706703	-0.159231
C290	C	-0.476792	-0.373370	0.174102
C291	C	-0.143458	-0.040037	0.507436
C292	C	-0.763210	-0.706687	-0.159225
C293	C	-0.429876	-0.373354	0.174108
C294	C	-0.096543	-0.040021	0.507441
C295	C	-0.763269	-0.591685	-0.274013
C296	C	-0.429935	-0.258352	0.059321
C297	C	-0.096602	0.074982	0.392654
C298	C	-0.810184	-0.591703	-0.274016
C299	C	-0.476851	-0.258370	0.059318
C300	C	-0.143517	0.074964	0.392651
C301	C	-0.833628	-0.620461	-0.245321
C302	C	-0.500294	-0.287127	0.088012
C303	C	-0.166961	0.046206	0.421345
C304	C	-0.099378	-0.649225	-0.216628
C305	C	0.233956	-0.315891	0.116706
C306	C	0.567289	0.017442	0.450039
C307	C	-0.049443	-0.649265	-0.216641
C308	C	0.283890	-0.315931	0.116692
C309	C	0.617224	0.017402	0.450025
C310	C	-0.216552	-0.649143	-0.333774
C311	C	0.116781	-0.315810	-0.000441
C312	C	0.450115	0.017524	0.332893
C313	C	-0.216550	-0.649148	-0.383708
C314	C	0.116783	-0.315815	-0.050375
C315	C	0.450117	0.017518	0.282958
C316	C	-0.216579	0.233691	-0.216629
C317	C	0.116755	0.567024	0.116704
C318	C	0.450088	0.900357	0.450038
C319	C	-0.216584	0.183756	-0.216624
C320	C	0.116749	0.517090	0.116709
C321	C	0.450082	0.850423	0.450043
C322	C	-0.187747	-0.677935	-0.693373
C323	C	0.145586	-0.344602	-0.360040
C324	C	0.478919	-0.011268	-0.026706
C325	C	-0.187709	-0.677957	-0.881046
C326	C	0.145624	-0.344624	-0.547713
C327	C	0.478958	-0.011291	-0.214379
O328	O	-0.163262	-0.702399	-0.905329
O329	O	0.170071	-0.369066	-0.571995
O330	O	0.503404	-0.035733	-0.238662
N331	N	-0.216430	-0.649208	-0.904494
N332	N	0.116903	-0.315875	-0.571160
N333	N	0.450237	0.017459	-0.237827
C334	C	-0.245160	-0.620449	-0.881020
C335	C	0.088173	-0.287115	-0.547687
C336	C	0.421506	0.046218	-0.214354
O337	O	-0.269585	-0.595993	-0.905270
O338	O	0.063749	-0.262659	-0.571937
O339	O	0.397082	0.070674	-0.238603
C340	C	-0.245196	-0.620424	-0.693348
C341	C	0.088137	-0.287091	-0.360015
C342	C	0.421471	0.046242	-0.026681
C343	C	-0.216476	-0.649179	-0.669903
C344	C	0.116857	-0.315846	-0.336569
C345	C	0.450190	0.017488	-0.003236
C346	C	-0.159030	-0.706687	-0.669928
C347	C	0.174303	-0.373354	-0.336594
C348	C	0.507637	-0.040020	-0.003261
C349	C	-0.159042	-0.706683	-0.623012
C350	C	0.174292	-0.373349	-0.289679
C351	C	0.507625	-0.040016	0.043655
C352	C	-0.187771	-0.677927	-0.599542
C353	C	0.145563	-0.344593	-0.266209
C354	C	0.478896	-0.011260	0.067125
C355	C	-0.216488	-0.649175	-0.622987
C356	C	0.116845	-0.315842	-0.289654
C357	C	0.450179	0.017492	0.043679
C358	C	-0.273924	-0.591663	-0.669875
C359	C	0.059410	-0.258330	-0.336542
C360	C	0.392743	0.075003	-0.003209
C361	C	-0.273929	-0.591659	-0.622954
C362	C	0.059404	-0.258326	-0.289621
C363	C	0.392737	0.075008	0.043712
C364	C	-0.245210	-0.620414	-0.599509
C365	C	0.088124	-0.287080	-0.266176
C366	C	0.421457	0.046253	0.067158
C367	C	-0.245229	-0.620415	-0.552602
C368	C	0.088105	-0.287081	-0.219268
C369	C	0.421438	0.046252	0.114065
N370	N	-0.216508	-0.649164	-0.529154
N371	N	0.116825	-0.315831	-0.195821
N372	N	0.450159	0.017502	0.137513
C373	C	-0.187779	-0.677920	-0.552624
C374	C	0.145554	-0.344587	-0.219291
C375	C	0.478888	-0.011254	0.114043
C376	C	-0.245140	-0.620464	-0.979551
C377	C	0.088193	-0.287131	-0.646218
C378	C	0.421527	0.046203	-0.312884
C379	C	-0.245132	-0.620471	-1.026469
C380	C	0.088202	-0.287137	-0.693135
C381	C	0.421535	0.046196	-0.359802
C382	C	-0.187680	-0.677979	-1.026491
C383	C	0.145653	-0.344645	-0.693158
C384	C	0.478987	-0.011312	-0.359825
C385	C	-0.187691	-0.677974	-0.979573
C386	C	0.145643	-0.344641	-0.646239
C387	C	0.478976	-0.011308	-0.312906
C388	C	-0.216419	-0.649214	-0.956103
C389	C	0.116914	-0.315880	-0.622770
C390	C	0.450247	0.017453	-0.289437
C391	C	-0.187806	-0.677910	-0.454098
C392	C	0.145528	-0.344576	-0.120765
C393	C	0.478861	-0.011243	0.212569
C394	C	-0.187821	-0.677904	-0.407179
C395	C	0.145512	-0.344571	-0.073845
C396	C	0.478846	-0.011238	0.259488
C397	C	-0.245271	-0.620395	-0.407160
C398	C	0.088062	-0.287061	-0.073827
C399	C	0.421396	0.046272	0.259507
C400	C	-0.245257	-0.620402	-0.454076
C401	C	0.088076	-0.287068	-0.120742
C402	C	0.421409	0.046265	0.212591
C403	C	-0.216521	-0.649161	-0.477543
C404	C	0.116812	-0.315827	-0.144210
C405	C	0.450146	0.017506	0.189123
O406	O	-0.269659	-0.595982	-0.528290
O407	O	0.063674	-0.262649	-0.194957
O408	O	0.397008	0.070685	0.138377
O409	O	-0.163351	-0.702366	-0.528366
O410	O	0.169982	-0.369032	-0.195033
O411	O	0.503316	-0.035699	0.138301
C412	C	-0.187736	-0.677939	-0.740288
C413	C	0.145598	-0.344606	-0.406955
C414	C	0.478931	-0.011273	-0.073622
C415	C	-0.216453	-0.649187	-0.763734
C416	C	0.116880	-0.315854	-0.430400
C417	C	0.450213	0.017479	-0.097067
C418	C	-0.245182	-0.620431	-0.740263
C419	C	0.088151	-0.287098	-0.406930
C420	C	0.421484	0.046235	-0.073597
C421	C	-0.216445	-0.649194	-0.810651
C422	C	0.116888	-0.315861	-0.477318
C423	C	0.450222	0.017473	-0.143985
C424	C	-0.187716	-0.677950	-0.834122
C425	C	0.145617	-0.344617	-0.500788
C426	C	0.478951	-0.011283	-0.167455
C427	C	-0.158995	-0.706699	-0.810674
C428	C	0.174338	-0.373366	-0.477341
C429	C	0.507672	-0.040033	-0.144007
C430	C	-0.159007	-0.706695	-0.763759
C431	C	0.174327	-0.373362	-0.430425
C432	C	0.507660	-0.040029	-0.097092
C433	C	-0.273903	-0.591682	-0.763711
C434	C	0.059430	-0.258349	-0.430378
C435	C	0.392764	0.074985	-0.097044
C436	C	-0.273889	-0.591689	-0.810627
C437	C	0.059444	-0.258355	-0.477293
C438	C	0.392777	0.074978	-0.143960
C439	C	-0.245160	-0.620445	-0.834097
C440	C	0.088173	-0.287111	-0.500763
C441	C	0.421506	0.046222	-0.167430
C442	C	-0.216528	-0.649145	-0.099873
C443	C	0.116806	-0.315811	0.233460
C444	C	0.450139	0.017522	0.566794
C445	C	-0.216403	-0.649227	-0.049939
C446	C	0.116931	-0.315893	0.283394
C447	C	0.450264	0.017440	0.616728
H448	H	-0.268740	-0.478114	-0.268579
H449	H	0.064594	-0.144781	0.064754
H450	H	0.397927	0.188553	0.398087
H451	H	-0.297515	-0.262286	-0.297291
H452	H	0.035818	0.071048	0.036043
H453	H	0.369152	0.404381	0.369376
H454	H	-0.135584	-0.036424	-0.135885
H455	H	0.197749	0.296910	0.197449
H456	H	0.531082	0.630243	0.530782
H457	H	-0.829221	-0.730117	-0.135866
H458	H	-0.495888	-0.396784	0.197468
H459	H	-0.162554	-0.063451	0.530801
H460	H	-0.135569	-0.177170	-0.135873
H461	H	0.197764	0.156163	0.197460
H462	H	0.531097	0.489497	0.530794
H463	H	-0.297520	-0.177180	-0.297300
H464	H	0.035813	0.156153	0.036033
H465	H	0.369147	0.489486	0.369367
H466	H	-0.297310	-0.568248	-0.688956
H467	H	0.036023	-0.234915	-0.355623
H468	H	0.369357	0.098418	-0.022290
H469	H	-0.387596	-0.596895	-0.268642
H470	H	-0.054263	-0.263562	0.064691
H471	H	0.279071	0.069771	0.398024
H472	H	-0.297525	-0.121530	-0.297316
H473	H	0.035809	0.211803	0.036018
H474	H	0.369142	0.545136	0.369351
H475	H	-1.045065	-0.701427	-0.164577
H476	H	-0.711731	-0.368094	0.168757
H477	H	-0.378398	-0.034761	0.502090
H478	H	-0.744102	-0.730093	-0.135853
H479	H	-0.410769	-0.396760	0.197481
H480	H	-0.077436	-0.063427	0.530814
H481	H	-0.268647	-0.596991	-0.473166
H482	H	0.064686	-0.263658	-0.139832
H483	H	0.398019	0.069675	0.193501
H484	H	-0.688462	-0.730076	-0.135847
H485	H	-0.355128	-0.396743	0.197486
H486	H	-0.021795	-0.063409	0.530820
H487	H	-0.959942	-0.701402	-0.164563
H488	H	-0.626609	-0.368069	0.168770
H489	H	-0.293276	-0.034736	0.502103
H490	H	-0.744185	-0.568268	-0.297380
H491	H	-0.410851	-0.234934	0.035953
H492	H	-0.077518	0.098399	0.369287
H493	H	-0.297319	-0.568233	-0.603848
H494	H	0.036014	-0.234900	-0.270515
H495	H	0.369348	0.098433	0.062819
H496	H	-0.164434	-0.701321	-0.388092
H497	H	0.168899	-0.367988	-0.054758
H498	H	0.502233	-0.034655	0.278575
H499	H	-0.164380	0.179398	-0.164586
H500	H	0.168953	0.512731	0.168747
H501	H	0.502286	0.846065	0.502081
H502	H	-0.297525	-0.036422	-0.297327
H503	H	0.035809	0.296911	0.036006
H504	H	0.369142	0.630245	0.369339
H505	H	-0.164304	-0.701388	-0.960487
H506	H	0.169029	-0.368055	-0.627153
H507	H	0.502363	-0.034721	-0.293820
H508	H	-0.268741	-0.393007	-0.268597
H509	H	0.064593	-0.059673	0.064737
H510	H	0.397926	0.273660	0.398070
H511	H	-0.268663	-0.596984	-0.388042
H512	H	0.064670	-0.263650	-0.054709
H513	H	0.398004	0.069683	0.278625
H514	H	-0.135566	-0.262288	-0.135868
H515	H	0.197767	0.071045	0.197465
H516	H	0.531101	0.404379	0.530799
H517	H	-0.135620	-0.730110	-0.744674
H518	H	0.197713	-0.396777	-0.411340
H519	H	0.531046	-0.063443	-0.078007
H520	H	-0.829291	-0.568292	-0.297389
H521	H	-0.495958	-0.234959	0.035944
H522	H	-0.162624	0.098374	0.369278
H523	H	-0.135604	-0.730115	-0.829792
H524	H	0.197729	-0.396782	-0.496458
H525	H	0.531062	-0.063448	-0.163125
H526	H	-0.297281	-0.568274	-0.829712
H527	H	0.036053	-0.234941	-0.496378
H528	H	0.369386	0.098393	-0.163045
H529	H	-0.164404	-0.701327	-0.473200
H530	H	0.168929	-0.367993	-0.139867
H531	H	0.502262	-0.034660	0.193466
H532	H	-0.135654	-0.730097	-0.603927
H533	H	0.197679	-0.396764	-0.270594
H534	H	0.531012	-0.063430	0.062740
H535	H	-0.268782	0.094274	-0.268647
H536	H	0.064552	0.427607	0.064686
H537	H	0.397885	0.760941	0.398020
H538	H	-0.472718	-0.596925	-0.268658
H539	H	-0.139385	-0.263591	0.064676
H540	H	0.193948	0.069742	0.398009
H541	H	-1.045106	-0.597097	-0.268705
H542	H	-0.711773	-0.263763	0.064629
H543	H	-0.378440	0.069570	0.397962
H544	H	-0.135633	-0.730104	-0.689032
H545	H	0.197701	-0.396770	-0.355699
H546	H	0.531034	-0.063437	-0.022365
H547	H	-0.297299	-0.568265	-0.744606
H548	H	0.036035	-0.234932	-0.411273
H549	H	0.369368	0.098401	-0.077940
H550	H	-0.268523	-0.597061	-1.045554
H551	H	0.064810	-0.263727	-0.712221
H552	H	0.398144	0.069606	-0.378887
H553	H	-0.164288	-0.701393	-1.045609
H554	H	0.169045	-0.368060	-0.712275
H555	H	0.502379	-0.034727	-0.378942
H556	H	-0.164363	0.094290	-0.164582
H557	H	0.168971	0.427623	0.168752
H558	H	0.502304	0.760956	0.502085
H559	H	-0.164332	-0.392997	-0.164522
H560	H	0.169001	-0.059663	0.168811
H561	H	0.502335	0.273670	0.502144
H562	H	-0.135574	-0.121528	-0.135879
H563	H	0.197759	0.211805	0.197454
H564	H	0.531092	0.545138	0.530788
H565	H	-0.164329	-0.478119	-0.164516
H566	H	0.169004	-0.144785	0.168817
H567	H	0.502338	0.188548	0.502151
H568	H	-0.688536	-0.568248	-0.297382
H569	H	-0.355202	-0.234914	0.035951
H570	H	-0.021869	0.098419	0.369284
H571	H	-0.268786	0.179397	-0.268653
H572	H	0.064547	0.512731	0.064680
H573	H	0.397881	0.846064	0.398013
H574	H	-0.268537	-0.597044	-0.960446
H575	H	0.064796	-0.263711	-0.627113
H576	H	0.398130	0.069623	-0.293780
H577	H	-0.387547	-0.701220	-0.164509
H578	H	-0.054214	-0.367887	0.168824
H579	H	0.279119	-0.034554	0.502158
H580	H	-0.603355	-0.730047	-0.135837
H581	H	-0.270022	-0.396713	0.197497
H582	H	0.063311	-0.063380	0.530830
H583	H	-0.472656	-0.701258	-0.164521
H584	H	-0.139323	-0.367924	0.168812
H585	H	0.194010	-0.034591	0.502145
H586	H	-0.959998	-0.597076	-0.268704
H587	H	-0.626664	-0.263742	0.064630
H588	H	-0.293331	0.069591	0.397963
H589	H	-0.603427	-0.568229	-0.297377
H590	H	-0.270094	-0.234896	0.035956
H591	H	0.063240	0.098438	0.369289
