data_functionalizedCrystal
_audit_creation_method	'MofGen! by Chris Wilmer'
_symmetry_space_group_name_H-M	'P1'
_symmetry_Int_Tables_number	1
_symmetry_cell_setting	triclinic
loop_
_symmetry_equiv_pos_as_xyz
  x,y,z
_cell_length_a	12.594517
_cell_length_b	18.215406
_cell_length_c	18.215399
_cell_angle_alpha	89.984834
_cell_angle_beta	89.989849
_cell_angle_gamma	89.996684
loop_
_atom_site_label
_atom_site_type_symbol
_atom_site_fract_x
_atom_site_fract_y
_atom_site_fract_z
Zn1	Zn	1.627366	-0.293073	-0.415991
Zn2	Zn	1.877366	-0.043073	-0.165991
Zn3	Zn	2.127366	0.206927	0.084009
Zn4	Zn	2.377366	0.456927	0.334009
Zn5	Zn	1.627308	-0.416144	-0.292952
Zn6	Zn	1.877308	-0.166144	-0.042952
Zn7	Zn	2.127308	0.083856	0.207048
Zn8	Zn	2.377308	0.333856	0.457048
Zn9	Zn	1.449374	-0.293087	-0.292959
Zn10	Zn	1.699374	-0.043087	-0.042959
Zn11	Zn	1.949374	0.206913	0.207041
Zn12	Zn	2.199374	0.456913	0.457041
Zn13	Zn	1.449399	-0.416093	-0.415998
Zn14	Zn	1.699399	-0.166093	-0.165998
Zn15	Zn	1.949399	0.083907	0.084002
Zn16	Zn	2.199399	0.333907	0.334002
O17	O	1.538362	-0.354599	-0.354475
O18	O	1.788362	-0.104599	-0.104475
O19	O	2.038362	0.145401	0.145525
O20	O	2.288362	0.395401	0.395525
O21	O	1.776304	-0.309414	-0.399664
O22	O	2.026304	-0.059414	-0.149664
O23	O	2.276304	0.190586	0.100336
O24	O	2.526304	0.440586	0.350336
O25	O	1.603670	-0.399847	-0.189969
O26	O	1.853670	-0.149847	0.060031
O27	O	2.103670	0.100153	0.310031
O28	O	2.353670	0.350153	0.560031
O29	O	1.472998	-0.190101	-0.309280
O30	O	1.722998	0.059899	-0.059280
O31	O	1.972998	0.309899	0.190720
O32	O	2.222998	0.559899	0.440720
O33	O	1.776262	-0.399833	-0.309268
O34	O	2.026262	-0.149833	-0.059268
O35	O	2.276262	0.100167	0.190732
O36	O	2.526262	0.350167	0.440732
O37	O	1.603768	-0.190090	-0.399671
O38	O	1.853768	0.059910	-0.149671
O39	O	2.103768	0.309910	0.100329
O40	O	2.353768	0.559910	0.350329
O41	O	1.472942	-0.309438	-0.189974
O42	O	1.722942	-0.059438	0.060026
O43	O	1.972942	0.190562	0.310026
O44	O	2.222942	0.440562	0.560026
O45	O	1.300431	-0.309389	-0.309286
O46	O	1.550431	-0.059389	-0.059286
O47	O	1.800431	0.190611	0.190714
O48	O	2.050431	0.440611	0.440714
O49	O	1.473042	-0.399747	-0.518981
O50	O	1.723042	-0.149747	-0.268981
O51	O	1.973042	0.100253	-0.018981
O52	O	2.223042	0.350253	0.231019
O53	O	1.300450	-0.399761	-0.399682
O54	O	1.550450	-0.149761	-0.149682
O55	O	1.800450	0.100239	0.100318
O56	O	2.050450	0.350239	0.350318
O57	O	1.603793	-0.309364	-0.518976
O58	O	1.853793	-0.059364	-0.268976
O59	O	2.103793	0.190636	-0.018976
O60	O	2.353793	0.440636	0.231024
O61	O	1.603695	-0.519121	-0.309275
O62	O	1.853695	-0.269121	-0.059275
O63	O	2.103695	-0.019121	0.190725
O64	O	2.353695	0.230879	0.440725
O65	O	1.472986	-0.519084	-0.399676
O66	O	1.722986	-0.269084	-0.149676
O67	O	1.972986	-0.019084	0.100324
O68	O	2.222986	0.230916	0.350324
C69	C	1.261821	-0.354571	-0.354486
C70	C	1.511821	-0.104571	-0.104486
C71	C	1.761821	0.145429	0.145514
C72	C	2.011821	0.395429	0.395514
C73	C	1.143515	-0.354577	-0.354509
C74	C	1.393515	-0.104577	-0.104509
C75	C	1.643515	0.145423	0.145491
C76	C	1.893515	0.395423	0.395491
C77	C	1.074303	-0.403827	-0.403580
C78	C	1.324303	-0.153827	-0.153580
C79	C	1.574303	0.096173	0.096420
C80	C	1.824303	0.346173	0.346420
C81	C	1.003468	-0.336728	-0.421670
C82	C	1.253468	-0.086728	-0.171670
C83	C	1.503468	0.163272	0.078330
C84	C	1.753468	0.413272	0.328330
C85	C	1.003551	-0.421731	-0.336403
C86	C	1.253551	-0.171731	-0.086403
C87	C	1.503551	0.078269	0.163597
C88	C	1.753551	0.328269	0.413597
C89	C	1.074239	-0.287443	-0.372633
C90	C	1.324239	-0.037443	-0.122633
C91	C	1.574239	0.212557	0.127367
C92	C	1.824239	0.462557	0.377367
C93	C	1.074328	-0.372491	-0.287335
C94	C	1.324328	-0.122491	-0.037335
C95	C	1.574328	0.127509	0.212665
C96	C	1.824328	0.377509	0.462665
C97	C	1.003525	-0.305346	-0.305399
C98	C	1.253525	-0.055346	-0.055399
C99	C	1.503525	0.194654	0.194601
C100	C	1.753525	0.444654	0.444601
C101	C	1.538366	-0.545805	-0.354491
C102	C	1.788366	-0.295805	-0.104491
C103	C	2.038366	-0.045805	0.145509
C104	C	2.288366	0.204195	0.395509
C105	C	1.538465	-0.627604	-0.354523
C106	C	1.788465	-0.377604	-0.104523
C107	C	2.038465	-0.127604	0.145477
C108	C	2.288465	0.122396	0.395477
C109	C	1.538427	-0.354548	-0.546428
C110	C	1.788427	-0.104548	-0.296428
C111	C	2.038427	0.145452	-0.046428
C112	C	2.288427	0.395452	0.203572
C113	C	1.538454	-0.354527	-0.628227
C114	C	1.788454	-0.104527	-0.378227
C115	C	2.038454	0.145473	-0.128227
C116	C	2.288454	0.395473	0.121773
C117	C	1.815983	-0.354628	-0.354464
C118	C	2.065983	-0.104628	-0.104464
C119	C	2.315983	0.145372	0.145536
C120	C	2.565983	0.395372	0.395536
C121	C	1.934288	-0.354640	-0.354460
C122	C	2.184288	-0.104640	-0.104460
C123	C	2.434288	0.145360	0.145540
C124	C	2.684288	0.395360	0.395540
C125	C	1.538387	-0.162646	-0.354475
C126	C	1.788387	0.087354	-0.104475
C127	C	2.038387	0.337354	0.145525
C128	C	2.288387	0.587354	0.395525
C129	C	1.538398	-0.080847	-0.354475
C130	C	1.788398	0.169153	-0.104475
C131	C	2.038398	0.419153	0.145525
C132	C	2.288398	0.669153	0.395525
C133	C	1.470339	0.107342	-0.307435
C134	C	1.720339	0.357342	-0.057435
C135	C	1.970339	0.607342	0.192565
C136	C	2.220339	0.857342	0.442565
C137	C	1.470348	0.184201	-0.307444
C138	C	1.720348	0.434201	-0.057444
C139	C	1.970348	0.684201	0.192556
C140	C	2.220348	0.934201	0.442556
C141	C	1.606526	0.184201	-0.401568
C142	C	1.856526	0.434201	-0.151568
C143	C	2.106526	0.684201	0.098432
C144	C	2.356526	0.934201	0.348432
C145	C	1.606511	0.107343	-0.401562
C146	C	1.856511	0.357343	-0.151562
C147	C	2.106511	0.607343	0.098438
C148	C	2.356511	0.857343	0.348438
C149	C	1.538419	0.068916	-0.354492
C150	C	1.788419	0.318916	-0.104492
C151	C	2.038419	0.568916	0.145508
C152	C	2.288419	0.818916	0.395508
C153	C	1.538443	0.222632	-0.354506
C154	C	1.788443	0.472632	-0.104506
C155	C	2.038443	0.722632	0.145494
C156	C	2.288443	0.972632	0.395494
C157	C	1.538453	0.305966	-0.354516
C158	C	1.788453	0.555966	-0.104516
C159	C	2.038453	0.805966	0.145484
C160	C	2.288453	1.055966	0.395484
C161	C	1.538408	-0.014423	-0.354482
C162	C	1.788408	0.235577	-0.104482
C163	C	2.038408	0.485577	0.145518
C164	C	2.288408	0.735577	0.395518
C165	C	1.606561	-0.307421	-0.816420
C166	C	1.856561	-0.057421	-0.566420
C167	C	2.106561	0.192579	-0.316420
C168	C	2.356561	0.442579	-0.066420
C169	C	1.606574	-0.307399	-0.893278
C170	C	1.856574	-0.057399	-0.643278
C171	C	2.106574	0.192601	-0.393278
C172	C	2.356574	0.442601	-0.143278
C173	C	1.470423	-0.401519	-0.893272
C174	C	1.720423	-0.151519	-0.643272
C175	C	1.970423	0.098481	-0.393272
C176	C	2.220423	0.348481	-0.143272
C177	C	1.470406	-0.401536	-0.816415
C178	C	1.720406	-0.151536	-0.566415
C179	C	1.970406	0.098464	-0.316415
C180	C	2.220406	0.348464	-0.066415
C181	C	1.538481	-0.354488	-0.777991
C182	C	1.788481	-0.104488	-0.527991
C183	C	2.038481	0.145512	-0.277991
C184	C	2.288481	0.395512	-0.027991
C185	C	1.538511	-0.354449	-0.931707
C186	C	1.788511	-0.104449	-0.681707
C187	C	2.038511	0.145551	-0.431707
C188	C	2.288511	0.395551	-0.181707
C189	C	1.538524	-0.354427	-1.015041
C190	C	1.788524	-0.104427	-0.765041
C191	C	2.038524	0.145573	-0.515041
C192	C	2.288524	0.395573	-0.265041
C193	C	1.538466	-0.354510	-0.694652
C194	C	1.788466	-0.104510	-0.444652
C195	C	2.038466	0.145490	-0.194652
C196	C	2.288466	0.395490	0.055348
C197	C	1.538358	-0.354597	-0.163269
C198	C	1.788358	-0.104597	0.086731
C199	C	2.038358	0.145403	0.336731
C200	C	2.288358	0.395403	0.586731
C201	C	1.538537	-0.354411	-0.081470
C202	C	1.788537	-0.104411	0.168530
C203	C	2.038537	0.145589	0.418530
C204	C	2.288537	0.395589	0.668530
H205	H	0.972644	-0.263676	-0.263881
H206	H	1.222644	-0.013676	-0.013881
H207	H	1.472644	0.236324	0.236119
H208	H	1.722644	0.486324	0.486119
O209	O	0.962437	-0.496926	-0.316144
O210	O	1.212437	-0.246926	-0.066144
O211	O	1.462437	0.003074	0.183856
O212	O	1.712437	0.253074	0.433856
H213	H	0.874316	-0.496144	-0.315802
H214	H	1.124316	-0.246144	-0.065802
H215	H	1.374316	0.003856	0.184198
H216	H	1.624316	0.253856	0.434198
O217	O	1.397002	-0.452264	-0.934715
O218	O	1.647002	-0.202264	-0.684715
O219	O	1.897002	0.047736	-0.434715
O220	O	2.147002	0.297736	-0.184715
H221	H	1.408456	-0.444350	-0.994615
H222	H	1.658456	-0.194350	-0.744615
H223	H	1.908456	0.055650	-0.494615
H224	H	2.158456	0.305650	-0.244615
H225	H	1.414892	0.076057	-0.269109
H226	H	1.664892	0.326057	-0.019109
H227	H	1.914892	0.576057	0.230891
H228	H	2.164892	0.826057	0.480891
H229	H	1.105476	-0.387640	-0.230565
H230	H	1.355476	-0.137640	0.019435
H231	H	1.605476	0.112360	0.269435
H232	H	1.855476	0.362360	0.519435
O233	O	1.679941	0.065895	-0.452324
O234	O	1.929941	0.315895	-0.202324
O235	O	2.179941	0.565895	0.047676
O236	O	2.429941	0.815895	0.297676
H237	H	1.668479	0.005996	-0.444418
H238	H	1.918479	0.255996	-0.194418
H239	H	2.168479	0.505996	0.055582
H240	H	2.418479	0.755996	0.305582
H241	H	1.661989	-0.269109	-0.785137
H242	H	1.911989	-0.019109	-0.535137
H243	H	2.161989	0.230891	-0.285137
H244	H	2.411989	0.480891	-0.035137
H245	H	1.414910	0.215486	-0.269128
H246	H	1.664910	0.465486	-0.019128
H247	H	1.914910	0.715486	0.230872
H248	H	2.164910	0.965486	0.480872
O249	O	1.396942	-0.452283	-0.774958
O250	O	1.646942	-0.202283	-0.524958
O251	O	1.896942	0.047717	-0.274958
O252	O	2.146942	0.297717	-0.024958
H253	H	1.349608	-0.484995	-0.814587
H254	H	1.599608	-0.234995	-0.564587
H255	H	1.849608	0.015005	-0.314587
H256	H	2.099608	0.265005	-0.064587
H257	H	1.661966	0.215496	-0.439891
H258	H	1.911966	0.465496	-0.189891
H259	H	2.161966	0.715496	0.060109
H260	H	2.411966	0.965496	0.310109
H261	H	1.105383	-0.445395	-0.445131
H262	H	1.355383	-0.195395	-0.195131
H263	H	1.605383	0.054605	0.054869
H264	H	1.855383	0.304605	0.304869
H265	H	1.662010	-0.269071	-0.924564
H266	H	1.912010	-0.019071	-0.674564
H267	H	2.162010	0.230929	-0.424564
H268	H	2.412010	0.480929	-0.174564
H269	H	1.105160	-0.230662	-0.387991
H270	H	1.355160	0.019338	-0.137991
H271	H	1.605160	0.269338	0.112009
H272	H	1.855160	0.519338	0.362009
O273	O	0.962065	-0.316759	-0.496862
O274	O	1.212065	-0.066759	-0.246862
O275	O	1.462065	0.183241	0.003138
O276	O	1.712065	0.433241	0.253138
H277	H	0.990344	-0.357720	-0.537511
H278	H	1.240344	-0.107720	-0.287511
H279	H	1.490344	0.142280	-0.037511
H280	H	1.740344	0.392280	0.212489
