data_functionalizedCrystal
_audit_creation_method	'MofGen! by Chris Wilmer'
_symmetry_space_group_name_H-M	'P1'
_symmetry_Int_Tables_number	1
_symmetry_cell_setting	triclinic
loop_
_symmetry_equiv_pos_as_xyz
  x,y,z
_cell_length_a	11.169417
_cell_length_b	29.839131
_cell_length_c	11.169409
_cell_angle_alpha	89.952226
_cell_angle_beta	89.980176
_cell_angle_gamma	90.036108
loop_
_atom_site_label
_atom_site_type_symbol
_atom_site_fract_x
_atom_site_fract_y
_atom_site_fract_z
Zn1	Zn	1.834755	-0.178806	-0.678414
Zn2	Zn	2.168088	0.154527	-0.345081
Zn3	Zn	2.501421	0.487860	-0.011747
Zn4	Zn	1.834557	-0.253948	-0.477677
Zn5	Zn	2.167890	0.079385	-0.144343
Zn6	Zn	2.501224	0.412719	0.188990
Zn7	Zn	1.634041	-0.178834	-0.477748
Zn8	Zn	1.967374	0.154500	-0.144415
Zn9	Zn	2.300707	0.487833	0.188918
Zn10	Zn	1.633961	-0.253911	-0.678322
Zn11	Zn	1.967294	0.079422	-0.344988
Zn12	Zn	2.300628	0.412755	-0.011655
O13	O	1.734328	-0.216375	-0.578040
O14	O	2.067662	0.116958	-0.244707
O15	O	2.400995	0.450292	0.088626
O16	O	2.002678	-0.188778	-0.651794
O17	O	2.336012	0.144555	-0.318461
O18	O	2.669345	0.477889	0.014872
O19	O	1.807909	-0.244011	-0.309736
O20	O	2.141242	0.089323	0.023597
O21	O	2.474575	0.422656	0.356930
O22	O	1.660782	-0.115963	-0.504436
O23	O	1.994115	0.217370	-0.171102
O24	O	2.327449	0.550704	0.162231
O25	O	2.002533	-0.243984	-0.504314
O26	O	2.335866	0.089349	-0.170980
O27	O	2.669200	0.422683	0.162353
O28	O	1.808246	-0.115943	-0.651864
O29	O	2.141579	0.217390	-0.318530
O30	O	2.474912	0.550724	0.014803
O31	O	1.660590	-0.188825	-0.309789
O32	O	1.993923	0.144509	0.023544
O33	O	2.327257	0.477842	0.356878
O34	O	1.466080	-0.188789	-0.504346
O35	O	1.799414	0.144544	-0.171013
O36	O	2.132747	0.477877	0.162321
O37	O	1.660646	-0.243922	-0.846284
O38	O	1.993979	0.089412	-0.512950
O39	O	2.327313	0.422745	-0.179617
O40	O	1.466022	-0.243948	-0.651707
O41	O	1.799355	0.089385	-0.318373
O42	O	2.132689	0.422718	0.014960
O43	O	1.808168	-0.188742	-0.846352
O44	O	2.141502	0.144591	-0.513018
O45	O	2.474835	0.477924	-0.179685
O46	O	1.807831	-0.316810	-0.504224
O47	O	2.141165	0.016523	-0.170891
O48	O	2.474498	0.349857	0.162442
O49	O	1.660454	-0.316783	-0.651637
O50	O	1.993788	0.016550	-0.318304
O51	O	2.327121	0.349883	0.015030
C52	C	1.422504	-0.216368	-0.578025
C53	C	1.755837	0.116965	-0.244691
C54	C	2.089170	0.450299	0.088642
C55	C	1.289104	-0.216376	-0.578047
C56	C	1.622437	0.116957	-0.244713
C57	C	1.955770	0.450291	0.088620
C58	C	1.734145	-0.333097	-0.577939
C59	C	2.067479	0.000236	-0.244606
C60	C	2.400812	0.333569	0.088728
C61	C	1.734177	-0.383032	-0.577936
C62	C	2.067510	-0.049699	-0.244603
C63	C	2.400843	0.283635	0.088731
C64	C	1.811096	-0.692630	-0.654915
C65	C	2.144429	-0.359297	-0.321582
C66	C	2.477763	-0.025963	0.011751
C67	C	1.811226	-0.880303	-0.654988
C68	C	2.144560	-0.546970	-0.321654
C69	C	2.477893	-0.213636	0.011679
O70	O	1.876446	-0.904529	-0.720363
O71	O	2.209780	-0.571196	-0.387030
O72	O	2.543113	-0.237862	-0.053697
N73	N	1.734532	-0.903817	-0.578173
N74	N	2.067865	-0.570484	-0.244840
N75	N	2.401199	-0.237150	0.088493
C76	C	1.657794	-0.880410	-0.501341
C77	C	1.991128	-0.547076	-0.168008
C78	C	2.324461	-0.213743	0.165325
O79	O	1.592556	-0.904716	-0.436016
O80	O	1.925889	-0.571383	-0.102683
O81	O	2.259222	-0.238049	0.230650
C82	C	1.657659	-0.692738	-0.501276
C83	C	1.990992	-0.359404	-0.167943
C84	C	2.324326	-0.026071	0.165391
C85	C	1.734367	-0.669226	-0.578087
C86	C	2.067700	-0.335893	-0.244753
C87	C	2.401033	-0.002559	0.088580
C88	C	1.887797	-0.669118	-0.731721
C89	C	2.221130	-0.335785	-0.398387
C90	C	2.554463	-0.002452	-0.065054
C91	C	1.887768	-0.622203	-0.731697
C92	C	2.221101	-0.288869	-0.398364
C93	C	2.554434	0.044464	-0.065031
C94	C	1.811039	-0.598799	-0.654869
C95	C	2.144372	-0.265466	-0.321535
C96	C	2.477705	0.067868	0.011798
C97	C	1.734338	-0.622311	-0.578063
C98	C	2.067671	-0.288977	-0.244730
C99	C	2.401005	0.044356	0.088603
C100	C	1.580916	-0.669331	-0.424451
C101	C	1.914249	-0.335998	-0.091118
C102	C	2.247583	-0.002665	0.242216
C103	C	1.580887	-0.622410	-0.424444
C104	C	1.914220	-0.289077	-0.091110
C105	C	2.247554	0.044256	0.242223
C106	C	1.657595	-0.598899	-0.501254
C107	C	1.990928	-0.265565	-0.167921
C108	C	2.324261	0.067768	0.165412
C109	C	1.657580	-0.551991	-0.501211
C110	C	1.990913	-0.218658	-0.167878
C111	C	2.324247	0.114675	0.165455
N112	N	1.734274	-0.528477	-0.578025
N113	N	2.067607	-0.195144	-0.244692
N114	N	2.400941	0.138189	0.088641
C115	C	1.811003	-0.551881	-0.654854
C116	C	2.144337	-0.218548	-0.321521
C117	C	2.477670	0.114786	0.011813
C118	C	1.657873	-0.978940	-0.501379
C119	C	1.991206	-0.645607	-0.168046
C120	C	2.324539	-0.312274	0.165287
C121	C	1.657908	-1.025858	-0.501394
C122	C	1.991241	-0.692525	-0.168060
C123	C	2.324574	-0.359192	0.165273
C124	C	1.811338	-1.025748	-0.655042
C125	C	2.144672	-0.692415	-0.321709
C126	C	2.478005	-0.359081	0.011625
C127	C	1.811308	-0.978829	-0.655020
C128	C	2.144642	-0.645496	-0.321687
C129	C	2.477975	-0.312163	0.011646
C130	C	1.734567	-0.955426	-0.578193
C131	C	2.067900	-0.622093	-0.244860
C132	C	2.401233	-0.288760	0.088473
C133	C	1.810938	-0.453355	-0.654798
C134	C	2.144271	-0.120022	-0.321465
C135	C	2.477605	0.213311	0.011868
C136	C	1.810906	-0.406436	-0.654765
C137	C	2.144239	-0.073102	-0.321431
C138	C	2.477573	0.260231	0.011902
C139	C	1.657472	-0.406550	-0.501121
C140	C	1.990805	-0.073217	-0.167788
C141	C	2.324138	0.260117	0.165545
C142	C	1.657507	-0.453465	-0.501150
C143	C	1.990841	-0.120132	-0.167817
C144	C	2.324174	0.213201	0.165516
C145	C	1.734245	-0.476867	-0.577998
C146	C	2.067578	-0.143534	-0.244665
C147	C	2.400911	0.189800	0.088668
O148	O	1.592385	-0.527736	-0.435879
O149	O	1.925718	-0.194403	-0.102546
O150	O	2.259051	0.138931	0.230787
O151	O	1.876214	-0.527567	-0.720188
O152	O	2.209547	-0.194233	-0.386855
O153	O	2.542880	0.139100	-0.053521
C154	C	1.811125	-0.739545	-0.654939
C155	C	2.144458	-0.406212	-0.321606
C156	C	2.477791	-0.072879	0.011728
C157	C	1.734424	-0.763057	-0.578134
C158	C	2.067758	-0.429724	-0.244800
C159	C	2.401091	-0.096390	0.088533
C160	C	1.657695	-0.739653	-0.501305
C161	C	1.991028	-0.406320	-0.167971
C162	C	2.324362	-0.072986	0.165362
C163	C	1.734459	-0.809975	-0.578148
C164	C	2.067793	-0.476641	-0.244815
C165	C	2.401126	-0.143308	0.088519
C166	C	1.811189	-0.833379	-0.654977
C167	C	2.144522	-0.500045	-0.321643
C168	C	2.477855	-0.166712	0.011690
C169	C	1.887883	-0.809865	-0.731791
C170	C	2.221216	-0.476531	-0.398458
C171	C	2.554549	-0.143198	-0.065124
C172	C	1.887854	-0.762949	-0.731768
C173	C	2.221187	-0.429616	-0.398434
C174	C	2.554521	-0.096282	-0.065101
C175	C	1.581001	-0.763167	-0.424491
C176	C	1.914334	-0.429834	-0.091157
C177	C	2.247667	-0.096500	0.242176
C178	C	1.581037	-0.810083	-0.424519
C179	C	1.914370	-0.476749	-0.091186
C180	C	2.247703	-0.143416	0.242147
C181	C	1.657766	-0.833486	-0.501348
C182	C	1.991099	-0.500153	-0.168015
C183	C	2.324433	-0.166820	0.165319
C184	C	2.047371	-0.216382	-0.578056
C185	C	2.380704	0.116951	-0.244723
C186	C	2.714037	0.450285	0.088610
C187	C	2.180771	-0.216385	-0.578063
C188	C	2.514104	0.116948	-0.244730
C189	C	2.847437	0.450282	0.088603
C190	C	1.734421	-0.216325	-0.891083
C191	C	2.067754	0.117008	-0.557749
C192	C	2.401087	0.450342	-0.224416
C193	C	1.734460	-0.216304	-1.024483
C194	C	2.067793	0.117030	-0.691150
C195	C	2.401126	0.450363	-0.357816
C196	C	1.734545	-0.099196	-0.578168
C197	C	2.067878	0.234137	-0.244835
C198	C	2.401211	0.567470	0.088499
C199	C	1.734637	-0.049262	-0.578222
C200	C	2.067970	0.284071	-0.244889
C201	C	2.401304	0.617405	0.088444
C202	C	1.734306	-0.216392	-0.266215
C203	C	2.067639	0.116941	0.067118
C204	C	2.400972	0.450275	0.400451
C205	C	1.734499	-0.216287	-0.132816
C206	C	2.067832	0.117046	0.200517
C207	C	2.401166	0.450380	0.533851
H208	H	1.873375	-0.387294	-0.717313
H209	H	2.206708	-0.053961	-0.383980
H210	H	2.540042	0.279373	-0.050646
H211	H	1.950316	-0.743809	-0.794314
H212	H	2.283650	-0.410476	-0.460981
H213	H	2.616983	-0.077143	-0.127647
H214	H	1.873417	-0.472403	-0.717384
H215	H	2.206750	-0.139070	-0.384050
H216	H	2.540083	0.194263	-0.050717
Cl217	Cl	1.984196	-0.592652	-0.828275
Cl218	Cl	2.317529	-0.259319	-0.494942
Cl219	Cl	2.650863	0.074014	-0.161608
Cl220	Cl	1.984266	-0.698532	-0.828323
Cl221	Cl	2.317599	-0.365198	-0.494989
Cl222	Cl	2.650933	-0.031865	-0.161656
H223	H	1.873816	-1.044811	-0.717598
H224	H	2.207149	-0.711478	-0.384264
H225	H	2.540482	-0.378145	-0.050931
Cl226	Cl	1.484472	-0.698877	-0.327887
Cl227	Cl	1.817805	-0.365544	0.005446
Cl228	Cl	2.151139	-0.032211	0.338779
Cl229	Cl	1.484525	-0.733752	-0.327901
Cl230	Cl	1.817859	-0.400419	0.005432
Cl231	Cl	2.151192	-0.067086	0.338766
H232	H	1.595055	-0.472610	-0.438595
H233	H	1.928389	-0.139276	-0.105262
H234	H	2.261722	0.194057	0.228071
Cl235	Cl	1.907742	-0.949277	-0.751588
Cl236	Cl	2.241075	-0.615944	-0.418255
Cl237	Cl	2.574408	-0.282610	-0.084922
H238	H	1.518391	-0.603358	-0.361883
H239	H	1.851724	-0.270024	-0.028550
H240	H	2.185057	0.063309	0.304784
Cl241	Cl	1.561487	-1.055410	-0.404811
Cl242	Cl	1.894821	-0.722076	-0.071478
Cl243	Cl	2.228154	-0.388743	0.261855
H244	H	1.595003	-0.387487	-0.438565
H245	H	1.928336	-0.054154	-0.105231
H246	H	2.261670	0.279179	0.228102
Cl247	Cl	1.561384	-0.949526	-0.404789
Cl248	Cl	1.894717	-0.616193	-0.071456
Cl249	Cl	2.228051	-0.282859	0.261877
H250	H	1.518574	-0.829222	-0.361960
H251	H	1.851907	-0.495888	-0.028626
H252	H	2.185241	-0.162555	0.304707
Cl253	Cl	1.984344	-0.839296	-0.828372
Cl254	Cl	2.317678	-0.505962	-0.495038
Cl255	Cl	2.651011	-0.172629	-0.161705
