data_functionalizedCrystal
_audit_creation_method	'MofGen! by Chris Wilmer'
_symmetry_space_group_name_H-M	'P1'
_symmetry_Int_Tables_number	1
_symmetry_cell_setting	triclinic
loop_
_symmetry_equiv_pos_as_xyz
  x,y,z
_cell_length_a	12.837943
_cell_length_b	23.532407
_cell_length_c	11.295483
_cell_angle_alpha	94.064566
_cell_angle_beta	85.461227
_cell_angle_gamma	88.838809
loop_
_atom_site_label
_atom_site_type_symbol
_atom_site_fract_x
_atom_site_fract_y
_atom_site_fract_z
O1	O	1.380948	0.144513	-0.099028
O2	O	1.079219	0.137204	-0.099034
O3	O	1.239181	0.058450	-0.099009
O4	O	1.220986	0.223267	-0.099053
O5	O	1.225131	0.065355	0.099039
O6	O	1.065169	0.144109	0.099014
O7	O	1.366899	0.151419	0.099020
Cu8	Cu	1.214751	0.148394	0.117101
Cu9	Cu	1.231366	0.140228	-0.117115
O10	O	1.206937	0.230173	0.098995
C11	C	1.033599	0.138187	-0.000010
C12	C	0.918597	0.130823	-0.000012
C13	C	1.231692	0.040660	0.000018
C14	C	1.230298	-0.022637	0.000027
C15	C	0.676728	0.219356	-0.000018
C16	C	0.568673	0.212439	-0.000018
C17	C	0.594431	0.110073	-0.000004
C18	C	0.702485	0.116990	-0.000004
C19	C	0.743630	0.171633	-0.000013
C20	C	0.851687	0.178549	-0.000021
C21	C	0.877442	0.076184	0.000002
C22	C	0.769387	0.069267	0.000002
C23	C	1.316228	-0.416812	-0.000037
C24	C	1.314934	-0.476287	-0.000046
O25	O	1.394590	-0.508463	-0.000088
N26	N	1.219836	-0.504370	-0.000047
C27	C	1.126025	-0.472975	-0.000051
O28	O	1.045018	-0.502323	-0.000053
C29	C	1.127321	-0.413501	-0.000050
C30	C	1.222424	-0.385421	-0.000037
C31	C	1.411324	-0.388732	-0.000025
C32	C	1.412617	-0.329261	-0.000014
C33	C	1.318814	-0.297871	-0.000014
C34	C	1.223717	-0.325951	-0.000026
C35	C	1.033512	-0.382108	-0.000063
C36	C	1.034816	-0.322631	-0.000063
C37	C	1.129920	-0.294551	-0.000050
C38	C	1.131207	-0.235089	-0.000015
N39	N	1.226306	-0.207006	-0.000014
C40	C	1.320109	-0.238397	-0.000013
C41	C	1.123313	-0.597873	-0.000054
C42	C	1.122016	-0.657345	-0.000046
C43	C	1.310925	-0.660653	-0.000043
C44	C	1.312220	-0.601180	-0.000043
C45	C	1.218411	-0.569790	-0.000053
C46	C	1.322817	-0.113504	0.000011
C47	C	1.324101	-0.054028	0.000027
C48	C	1.135193	-0.050725	0.000019
C49	C	1.133908	-0.110196	0.000009
C50	C	1.227729	-0.141584	0.000001
O51	O	1.051593	-0.202877	0.000023
O52	O	1.401104	-0.209042	-0.000026
C53	C	1.412519	0.150435	-0.000006
C54	C	1.527521	0.157799	-0.000013
C55	C	1.214425	0.247962	-0.000035
C56	C	1.215820	0.311259	-0.000052
N57	N	1.203072	0.154138	0.281835
N58	N	1.243053	0.134480	-0.281849
C59	C	1.327124	0.093101	0.531144
C60	C	1.318306	0.097446	0.655806
C61	C	1.176612	0.167170	0.655824
C62	C	1.185431	0.162825	0.531162
C63	C	1.260690	0.125790	0.468826
C64	C	1.269513	0.121448	0.344162
C65	C	1.127815	0.191169	0.344182
C66	C	1.118997	0.195514	0.468844
H67	H	0.885184	0.223042	-0.000026
C68	C	1.412866	-0.694676	-0.000241
C69	C	1.477400	-0.684743	-0.102118
C70	C	1.571315	-0.716070	-0.102332
H71	H	1.398621	-0.734131	-0.000309
H72	H	1.447053	-0.683201	0.068787
H73	H	1.443219	-0.696222	-0.171128
H74	H	1.491674	-0.645295	-0.102071
H75	H	1.605503	-0.704594	-0.033304
H76	H	1.557060	-0.755523	-0.102397
H77	H	1.615117	-0.709330	-0.171448
H78	H	0.560905	0.065588	0.000102
C79	C	0.724514	0.009987	-0.000051
C80	C	0.615567	0.014142	-0.000080
C81	C	0.574198	-0.040456	-0.000148
H82	H	0.742505	-0.007555	0.068994
H83	H	0.752355	-0.012322	-0.069143
H84	H	0.587736	0.036443	0.069005
H85	H	0.597547	0.031675	-0.069119
H86	H	0.602039	-0.062766	-0.069240
H87	H	0.592196	-0.057995	0.068898
H88	H	0.500275	-0.037645	-0.000179
H89	H	1.487714	-0.414284	-0.000029
H90	H	0.956070	-0.404961	-0.000080
H91	H	1.389662	-0.578321	-0.000033
C92	C	0.933012	-0.288530	-0.000316
C93	C	0.935454	-0.257844	-0.102218
C94	C	0.841687	-0.226432	-0.102496
H95	H	0.924590	-0.262814	0.068671
H96	H	0.876167	-0.313759	-0.000388
H97	H	0.992282	-0.232618	-0.102134
H98	H	0.943859	-0.283547	-0.171220
H99	H	0.784842	-0.251660	-0.102569
H100	H	0.833272	-0.200718	-0.033506
H101	H	0.843327	-0.205611	-0.171640
C102	C	1.018656	-0.687725	-0.000107
C103	C	0.936794	-0.647499	-0.000134
C104	C	0.841563	-0.675462	-0.000214
H105	H	1.009172	-0.708456	0.068933
H106	H	1.019065	-0.713245	-0.069203
H107	H	0.936383	-0.621988	0.068956
H108	H	0.946242	-0.626766	-0.069169
H109	H	0.841972	-0.700982	-0.069310
H110	H	0.832090	-0.696192	0.068828
H111	H	0.786009	-0.648173	-0.000243
H112	H	1.399215	-0.139054	0.000000
H113	H	1.073723	0.217788	0.293429
H114	H	1.046916	-0.572319	-0.000052
C115	C	1.515986	-0.298887	-0.000072
C116	C	1.597848	-0.339118	-0.000107
C117	C	1.693093	-0.311163	-0.000180
H118	H	1.515679	-0.273353	0.068974
H119	H	1.525380	-0.278173	-0.069163
H120	H	1.588457	-0.359822	0.068978
H121	H	1.598190	-0.364653	-0.069147
H122	H	1.702487	-0.290449	-0.069271
H123	H	1.692775	-0.285630	0.068867
H124	H	1.748649	-0.338456	-0.000215
C125	C	1.094738	0.207292	0.723461
C126	C	0.995175	0.191436	0.693184
C127	C	0.919722	0.228375	0.755483
H128	H	1.106886	0.245204	0.703090
H129	H	1.098933	0.205184	0.806640
H130	H	0.990982	0.193549	0.610024
H131	H	0.982993	0.153530	0.713558
H132	H	0.923918	0.226267	0.838662
H133	H	0.931880	0.266285	0.735108
H134	H	0.852160	0.217619	0.734957
H135	H	1.057719	0.225666	0.519612
C136	C	0.950046	0.024336	-0.000236
C137	C	0.938770	-0.011767	-0.102139
C138	C	1.005645	-0.059530	-0.102412
H139	H	0.932800	0.004510	0.068750
H140	H	1.020315	0.036253	-0.000305
H141	H	0.868518	-0.023684	-0.102059
H142	H	0.956025	0.008041	-0.171141
H143	H	1.075914	-0.047613	-0.102481
H144	H	0.988393	-0.079350	-0.033422
H145	H	0.998011	-0.084028	-0.171557
C146	C	1.351249	0.081185	0.276694
C147	C	1.407520	0.053476	0.357959
C148	C	1.482814	0.016373	0.295855
H149	H	1.397709	0.102254	0.228044
H150	H	1.317687	0.053735	0.228104
H151	H	1.441082	0.080922	0.406528
H152	H	1.361090	0.032395	0.406612
H153	H	1.449252	-0.011077	0.247265
H154	H	1.529266	0.037447	0.247207
H155	H	1.520997	-0.002436	0.350984
H156	H	0.710228	0.263848	-0.000027
C157	C	1.390566	0.061928	0.723252
C158	C	1.458373	0.028575	0.641973
C159	C	1.524963	-0.004148	0.704059
H160	H	1.350220	0.037849	0.771900
H161	H	1.430103	0.086437	0.771842
H162	H	1.418840	0.004069	0.593402
H163	H	1.498742	0.052639	0.593321
H164	H	1.564500	0.020361	0.752650
H165	H	1.484608	-0.028223	0.752706
H166	H	1.570984	-0.026778	0.648921
H167	H	0.514204	0.251300	-0.000020
H168	H	1.401549	-0.031168	0.000041
H169	H	1.058821	-0.025156	0.000022
H170	H	1.056465	-0.133059	0.000031
H171	H	1.388410	0.062950	0.480389
