data_functionalizedCrystal
_audit_creation_method	'MofGen! by Chris Wilmer'
_symmetry_space_group_name_H-M	'P1'
_symmetry_Int_Tables_number	1
_symmetry_cell_setting	triclinic
loop_
_symmetry_equiv_pos_as_xyz
  x,y,z
_cell_length_a	19.077105
_cell_length_b	29.839131
_cell_length_c	19.077237
_cell_angle_alpha	92.260737
_cell_angle_beta	85.486555
_cell_angle_gamma	87.731134
loop_
_atom_site_label
_atom_site_type_symbol
_atom_site_fract_x
_atom_site_fract_y
_atom_site_fract_z
Zn1	Zn	1.093617	-0.218272	-0.441771
Zn2	Zn	1.088786	-0.290255	-0.323861
Zn3	Zn	0.971010	-0.211995	-0.319171
Zn4	Zn	0.975675	-0.290224	-0.436978
O5	O	1.032272	-0.252686	-0.380445
O6	O	1.191626	-0.230461	-0.430098
O7	O	1.069189	-0.277260	-0.224591
O8	O	0.987344	-0.149963	-0.335477
O9	O	1.188076	-0.283347	-0.343470
O10	O	1.077423	-0.154575	-0.425550
O11	O	0.982660	-0.219762	-0.221145
O12	O	0.872980	-0.219731	-0.330830
O13	O	0.995294	-0.283293	-0.536262
O14	O	0.876407	-0.277206	-0.417382
O15	O	1.081946	-0.230431	-0.539783
O16	O	1.073712	-0.353115	-0.338823
O17	O	0.990609	-0.353092	-0.421930
C18	C	0.849115	-0.247784	-0.373077
C19	C	0.770760	-0.245699	-0.369942
C20	C	1.032162	-0.369405	-0.380381
C21	C	1.032181	-0.419339	-0.380380
C22	C	0.735748	-0.274684	-0.413461
C23	C	0.662126	-0.272718	-0.410519
C24	C	0.623516	-0.241769	-0.364053
C25	C	0.658533	-0.212781	-0.320532
C26	C	0.732154	-0.214744	-0.323479
C27	C	0.403138	-0.232680	-0.350420
C28	C	0.329512	-0.230720	-0.347475
C29	C	0.333110	-0.290657	-0.437463
C30	C	0.406733	-0.292620	-0.440402
C31	C	0.441743	-0.263630	-0.396884
N32	N	0.548262	-0.239760	-0.361043
N33	N	0.516996	-0.265637	-0.399898
C34	C	1.079169	-0.731355	-0.427410
C35	C	1.079247	-0.919031	-0.427456
O36	O	1.119091	-0.945309	-0.467394
N37	N	1.032395	-0.940134	-0.380528
C38	C	0.985517	-0.914314	-0.333589
O39	O	0.945663	-0.936570	-0.293680
C40	C	0.985436	-0.726639	-0.333548
C41	C	1.032296	-0.705539	-0.380473
C42	C	1.126025	-0.710255	-0.474332
C43	C	1.126007	-0.663338	-0.474318
C44	C	1.079134	-0.637522	-0.427381
C45	C	1.032278	-0.658623	-0.380459
C46	C	0.938555	-0.700820	-0.286613
C47	C	0.938537	-0.653899	-0.286608
C48	C	0.985397	-0.632799	-0.333533
C49	C	0.985388	-0.585890	-0.333508
N50	N	1.032240	-0.564788	-0.380435
C51	C	1.079113	-0.590604	-0.427372
C52	C	0.985564	-1.012847	-0.333613
C53	C	0.985585	-1.059765	-0.333623
C54	C	1.079314	-1.064479	-0.427490
C55	C	1.079296	-1.017559	-0.427477
C56	C	1.032416	-0.991744	-0.380541
C57	C	1.079073	-0.492076	-0.427338
C58	C	1.079054	-0.445155	-0.427317
C59	C	0.985322	-0.440446	-0.333452
C60	C	0.985344	-0.487362	-0.333470
C61	C	1.032222	-0.513177	-0.380419
O62	O	0.945559	-0.559585	-0.293596
O63	O	1.118950	-0.568340	-0.467285
C64	C	1.079186	-0.778271	-0.427425
C65	C	1.032331	-0.799371	-0.380502
C66	C	0.985458	-0.773555	-0.333565
C67	C	1.032352	-0.846290	-0.380512
C68	C	1.079225	-0.872106	-0.427448
C69	C	1.126077	-0.851004	-0.474376
C70	C	1.126059	-0.804087	-0.474361
C71	C	0.938605	-0.794658	-0.286638
C72	C	0.938627	-0.841574	-0.286656
C73	C	0.985500	-0.867391	-0.333593
C74	C	1.216145	-0.257608	-0.387842
C75	C	1.294500	-0.259705	-0.390994
C76	C	1.039679	-0.257559	-0.564316
C77	C	1.042835	-0.259635	-0.642671
C78	C	1.032402	-0.135513	-0.380525
C79	C	1.032458	-0.085581	-0.380559
C80	C	1.065477	-0.274561	-1.083919
C81	C	1.062501	-0.272607	-1.010295
C82	C	1.015966	-0.241692	-0.971698
C83	C	0.972399	-0.212732	-1.006727
C84	C	0.975372	-0.214689	-1.080348
C85	C	1.002241	-0.232632	-0.751321
C86	C	0.999273	-0.230677	-0.677695
C87	C	1.089374	-0.290552	-0.681268
C88	C	1.092346	-0.292504	-0.754891
C89	C	1.048777	-0.263546	-0.789914
N90	N	1.012925	-0.239693	-0.896443
N91	N	1.051815	-0.265548	-0.865167
C92	C	1.024935	-0.247802	-0.197291
C93	C	1.021915	-0.245602	-0.118943
H94	H	0.633623	-0.296322	-0.445956
H95	H	1.164163	-0.646162	-0.512531
H96	H	1.117481	-1.085506	-0.465707
H97	H	0.966763	-0.209053	-0.779827
H98	H	0.304597	-0.314259	-0.472894
O99	O	0.773224	-0.304702	-0.458699
C100	C	0.758073	-0.296342	-0.528267
H101	H	0.738015	-0.260014	-0.531126
H102	H	0.716061	-0.319792	-0.544909
C103	C	0.850008	-0.349226	-0.574407
C104	C	0.825378	-0.304606	-0.577919
H105	H	0.891523	-0.354326	-0.605035
H106	H	0.860213	-0.354860	-0.527537
H107	H	0.814991	-0.368762	-0.588274
H108	H	0.860391	-0.285071	-0.564044
H109	H	0.815179	-0.298969	-0.624787
O110	O	0.444130	-0.322697	-0.485602
C111	C	0.397439	-0.347868	-0.523370
H112	H	0.345077	-0.328136	-0.523772
H113	H	0.388529	-0.381065	-0.497133
C114	C	0.493519	-0.381410	-0.599032
C115	C	0.429208	-0.357173	-0.599531
H116	H	0.513116	-0.387152	-0.646011
H117	H	0.524976	-0.364453	-0.573586
H118	H	0.486085	-0.409071	-0.577164
H119	H	0.436645	-0.329511	-0.621391
H120	H	0.397753	-0.374126	-0.624983
O121	O	0.437180	-0.204480	-0.308247
C122	C	0.481432	-0.177713	-0.350175
H123	H	0.461495	-0.175872	-0.404817
H124	H	0.537313	-0.193156	-0.354795
C125	C	0.505701	-0.132361	-0.248811
C126	C	0.481211	-0.130096	-0.315921
H127	H	0.505568	-0.102989	-0.227680
H128	H	0.475890	-0.150395	-0.220562
H129	H	0.552267	-0.145232	-0.252670
H130	H	0.434644	-0.117230	-0.312060
H131	H	0.511014	-0.112058	-0.344169
H132	H	0.760660	-0.191139	-0.288044
H133	H	1.164194	-0.731270	-0.512558
O134	O	0.292113	-0.200612	-0.302319
C135	C	0.338800	-0.175453	-0.264528
H136	H	0.392450	-0.176089	-0.295507
H137	H	0.344447	-0.190637	-0.211249
C138	C	0.243800	-0.125819	-0.215322
C139	C	0.309694	-0.126597	-0.253373
H140	H	0.225846	-0.095683	-0.208438
H141	H	0.212346	-0.142770	-0.240780
H142	H	0.248516	-0.138475	-0.170927
H143	H	0.304976	-0.113946	-0.297771
H144	H	0.341147	-0.109642	-0.227922
H145	H	0.934506	-0.187562	-0.975295
H146	H	1.097966	-0.296193	-0.981782
H147	H	1.103375	-0.299733	-1.115340
H148	H	0.947160	-0.419419	-0.295235
O149	O	0.933158	-0.186540	-1.114455
C150	C	0.975045	-0.159725	-1.158665
H151	H	1.028896	-0.177292	-1.171825
H152	H	0.981683	-0.125887	-1.130634
C153	C	0.872950	-0.130836	-1.210886
C154	C	0.939089	-0.152415	-1.227053
H155	H	0.850770	-0.126325	-1.253070
H156	H	0.844729	-0.148901	-1.181099
H157	H	0.878491	-0.102640	-1.187525
H158	H	0.933546	-0.180612	-1.250406
H159	H	0.967308	-0.134354	-1.256846
O160	O	0.954162	-0.200599	-0.640175
C161	C	0.992609	-0.171533	-0.599215
H162	H	1.049029	-0.170833	-0.623634
H163	H	0.992772	-0.184004	-0.543503
C164	C	0.888878	-0.124741	-0.566750
C165	C	0.958172	-0.123878	-0.596746
H166	H	0.867634	-0.095345	-0.565223
H167	H	0.862974	-0.144324	-0.594343
H168	H	0.889023	-0.135135	-0.520327
H169	H	0.958026	-0.113489	-0.643171
H170	H	0.984075	-0.104292	-0.569160
H171	H	0.900469	-0.858750	-0.248437
O172	O	1.137566	-0.322577	-0.792274
C173	C	1.175390	-0.347711	-0.745574
H174	H	1.144396	-0.347099	-0.691933
H175	H	1.228634	-0.332488	-0.739907
C176	C	1.224719	-0.397311	-0.840557
C177	C	1.186649	-0.396561	-0.774676
H178	H	1.231668	-0.427443	-0.858509
H179	H	1.199239	-0.380377	-0.872021
H180	H	1.269085	-0.384622	-0.835826
H181	H	1.142281	-0.409244	-0.779409
H182	H	1.212122	-0.413499	-0.743213
O183	O	0.940121	-0.987724	-0.287982
C184	C	0.978448	-0.960454	-0.244081
H185	H	1.032849	-0.955467	-0.271136
H186	H	0.984146	-0.977377	-0.192167
C187	C	0.872314	-0.920664	-0.196475
C188	C	0.939128	-0.914537	-0.229707
H189	H	0.848058	-0.892341	-0.187606
H190	H	0.846491	-0.939038	-0.226050
H191	H	0.877072	-0.934768	-0.153217
H192	H	0.934369	-0.900439	-0.272968
H193	H	0.964948	-0.896160	-0.200139
O194	O	1.131620	-0.318664	-0.647135
C195	C	1.119033	-0.310303	-0.573879
H196	H	1.064242	-0.293863	-0.561651
H197	H	1.160034	-0.286947	-0.554685
C198	C	1.191204	-0.375116	-0.551321
C199	C	1.123907	-0.354929	-0.536302
H200	H	1.194213	-0.402643	-0.528141
H201	H	1.199687	-0.380749	-0.600675
H202	H	1.225364	-0.355648	-0.535326
H203	H	1.089749	-0.374394	-0.552306
H204	H	1.115419	-0.349300	-0.486950
O205	O	0.892964	-0.721238	-0.241006
C206	C	0.851603	-0.688382	-0.199575
H207	H	0.850302	-0.655629	-0.228347
H208	H	0.875298	-0.682668	-0.147093
C209	C	0.777771	-0.744681	-0.151009
C210	C	0.776168	-0.704454	-0.186350
H211	H	0.731239	-0.754595	-0.142848
H212	H	0.805637	-0.766817	-0.178920
H213	H	0.797519	-0.739914	-0.107278
H214	H	0.756428	-0.709223	-0.230084
H215	H	0.748296	-0.682320	-0.158446
H216	H	1.164245	-0.872031	-0.512591
H217	H	0.627091	-0.187579	-0.282702
O218	O	0.892927	-0.628802	-0.241109
C219	C	0.848980	-0.601510	-0.279367
H220	H	0.846826	-0.616984	-0.334713
H221	H	0.870857	-0.566585	-0.282677
C222	C	0.776978	-0.578967	-0.173948
C223	C	0.774327	-0.597974	-0.241923
H224	H	0.730929	-0.576784	-0.150849
H225	H	0.806587	-0.597353	-0.148172
H226	H	0.795212	-0.549865	-0.176715
H227	H	0.756101	-0.627078	-0.239154
H228	H	0.744713	-0.579593	-0.267697
O229	O	1.124675	-0.517080	-0.472970
C230	C	1.166008	-0.488388	-0.514391
H231	H	1.167293	-0.454255	-0.485599
H232	H	1.142298	-0.484115	-0.566864
C233	C	1.239869	-0.550847	-0.563007
C234	C	1.241453	-0.508926	-0.527642
H235	H	1.286407	-0.563516	-0.571185
H236	H	1.212021	-0.570178	-0.535104
H237	H	1.220108	-0.547281	-0.606731
H238	H	1.261206	-0.512494	-0.483916
H239	H	1.269306	-0.489596	-0.555539
O240	O	1.124835	-0.997137	-0.473132
C241	C	1.166221	-1.029989	-0.514545
H242	H	1.137454	-1.062742	-0.515799
H243	H	1.218747	-1.035704	-0.490931
C244	C	1.214663	-0.973684	-0.588447
C245	C	1.179329	-1.013911	-0.589992
H246	H	1.222753	-0.963766	-0.634986
H247	H	1.186783	-0.951550	-0.560546
H248	H	1.258431	-0.978452	-0.568766
H249	H	1.135559	-1.009141	-0.609666
H250	H	1.207202	-1.036044	-0.617899
H251	H	0.947434	-1.076941	-0.295404
H252	H	1.117215	-0.427978	-0.465530
H253	H	0.947192	-0.504543	-0.295254
H254	H	1.164217	-0.786911	-0.512573
H255	H	0.900435	-0.773642	-0.248417
