data_functionalizedCrystal
_audit_creation_method	'MofGen! by Chris Wilmer'
_symmetry_space_group_name_H-M	'P1'
_symmetry_Int_Tables_number	1
_symmetry_cell_setting	triclinic
loop_
_symmetry_equiv_pos_as_xyz
  x,y,z
_cell_length_a	16.959454
_cell_length_b	16.959455
_cell_length_c	21.395355
_cell_angle_alpha	89.975182
_cell_angle_beta	90.012996
_cell_angle_gamma	89.981311
loop_
_atom_site_label
_atom_site_type_symbol
_atom_site_fract_x
_atom_site_fract_y
_atom_site_fract_z
Zn1	Zn	-0.314802	-1.208455	0.354290
Zn2	Zn	0.185198	-0.708455	0.854290
Zn3	Zn	-0.446963	-1.208356	0.249523
Zn4	Zn	0.053037	-0.708356	0.749523
Zn5	Zn	-0.314799	-1.076262	0.249526
Zn6	Zn	0.185201	-0.576262	0.749526
Zn7	Zn	-0.446940	-1.076248	0.354262
Zn8	Zn	0.053060	-0.576248	0.854262
O9	O	-0.380876	-1.142330	0.301900
O10	O	0.119124	-0.642330	0.801900
O11	O	-0.332345	-1.319053	0.340402
O12	O	0.167655	-0.819053	0.840402
O13	O	-0.429440	-1.190798	0.161845
O14	O	0.070560	-0.690798	0.661845
O15	O	-0.204189	-1.093845	0.263436
O16	O	0.295811	-0.593845	0.763436
O17	O	-0.429443	-1.318980	0.263430
O18	O	0.070557	-0.818980	0.763430
O19	O	-0.204191	-1.190966	0.340406
O20	O	0.295809	-0.690966	0.840406
O21	O	-0.332340	-1.093750	0.161848
O22	O	0.167660	-0.593750	0.661848
O23	O	-0.332317	-0.965649	0.263410
O24	O	0.167683	-0.465649	0.763410
O25	O	-0.429403	-1.093821	0.441944
O26	O	0.070597	-0.593821	0.941944
O27	O	-0.429400	-0.965639	0.340359
O28	O	0.070600	-0.465639	0.840359
O29	O	-0.332322	-1.190952	0.441964
O30	O	0.167678	-0.690952	0.941964
O31	O	-0.557571	-1.190785	0.263403
O32	O	-0.057571	-0.690785	0.763403
O33	O	-0.557554	-1.093725	0.340355
O34	O	-0.057554	-0.593725	0.840355
C35	C	-0.586242	-1.142264	0.301890
C36	C	-0.086242	-0.642264	0.801890
C37	C	-0.674099	-1.142308	0.301906
C38	C	-0.174099	-0.642308	0.801906
C39	C	-0.380856	-0.936964	0.301882
C40	C	0.119144	-0.436964	0.801882
C41	C	-0.380866	-0.849107	0.301889
C42	C	0.119134	-0.349107	0.801889
C43	C	-0.380860	-1.142396	0.465324
C44	C	0.119140	-0.642396	0.965324
C45	C	-0.380853	-1.142424	0.534965
C46	C	0.119147	-0.642424	1.034965
C47	C	-1.045595	-1.091865	0.341965
C48	C	-0.545595	-0.591865	0.841965
C49	C	-1.045554	-1.193016	0.261899
C50	C	-0.545554	-0.693016	0.761899
C51	C	-0.963008	-1.192988	0.261894
C52	C	-0.463008	-0.692988	0.761894
C53	C	-0.921752	-1.142397	0.301923
C54	C	-0.421752	-0.642397	0.801923
C55	C	-0.963042	-1.091834	0.341959
C56	C	-0.463042	-0.591834	0.841959
C57	C	-0.921711	-1.243545	0.221855
C58	C	-0.421711	-0.743545	0.721855
C59	C	-0.839160	-1.243519	0.221847
C60	C	-0.339160	-0.743519	0.721847
C61	C	-0.797903	-1.192931	0.261880
C62	C	-0.297903	-0.692931	0.761880
C63	C	-0.839198	-1.142366	0.301918
C64	C	-0.339198	-0.642366	0.801918
C65	C	-0.797942	-1.091775	0.341947
C66	C	-0.297942	-0.591775	0.841947
C67	C	-0.839236	-1.041214	0.381988
C68	C	-0.339236	-0.541214	0.881988
C69	C	-0.921785	-1.041246	0.381992
C70	C	-0.421785	-0.541246	0.881992
C71	C	-0.715355	-1.192899	0.261876
C72	C	-0.215355	-0.692899	0.761876
C73	C	-0.715389	-1.091745	0.341941
C74	C	-0.215389	-0.591745	0.841941
C75	C	-0.174708	-1.142418	0.301925
C76	C	0.325292	-0.642418	0.801925
C77	C	-0.086851	-1.142456	0.301935
C78	C	0.413149	-0.642456	0.801935
C79	C	-0.431348	-0.807794	0.261755
C80	C	0.068652	-0.307794	0.761755
C81	C	-0.330390	-0.807867	0.342026
C82	C	0.169610	-0.307867	0.842026
C83	C	-0.330395	-0.725322	0.342032
C84	C	0.169605	-0.225322	0.842032
C85	C	-0.380876	-0.684008	0.301899
C86	C	0.119124	-0.184008	0.801899
C87	C	-0.431353	-0.725240	0.261759
C88	C	0.068647	-0.225240	0.761759
C89	C	-0.279913	-0.684083	0.382167
C90	C	0.220087	-0.184083	0.882167
C91	C	-0.279916	-0.601532	0.382174
C92	C	0.220084	-0.101532	0.882174
C93	C	-0.330402	-0.560217	0.342044
C94	C	0.169598	-0.060217	0.842044
C95	C	-0.380881	-0.601454	0.301903
C96	C	0.119119	-0.101454	0.801903
C97	C	-0.431363	-0.560141	0.261769
C98	C	0.068637	-0.060141	0.761769
C99	C	-0.481847	-0.601377	0.221631
C100	C	0.018153	-0.101377	0.721631
C101	C	-0.481840	-0.683925	0.221628
C102	C	0.018160	-0.183925	0.721628
C103	C	-0.330410	-0.477669	0.342046
C104	C	0.169590	0.022331	0.842046
C105	C	-0.431368	-0.477587	0.261773
C106	C	0.068632	0.022413	0.761773
C107	C	-0.380893	-0.348498	0.301915
C108	C	0.119107	0.151502	0.801915
C109	C	-0.380891	-0.436355	0.301913
C110	C	0.119109	0.063645	0.801913
C111	C	-0.380835	-1.142310	0.139113
C112	C	0.119165	-0.642310	0.639113
C113	C	-0.380619	-1.142436	0.069472
C114	C	0.119381	-0.642436	0.569472
C115	C	-0.330301	-1.192998	0.567690
C116	C	0.169699	-0.692998	1.067690
C117	C	-0.330267	-1.192997	0.633125
C118	C	0.169733	-0.692997	1.133125
C119	C	-0.380799	-1.142430	0.665833
C120	C	0.119201	-0.642430	1.165833
C121	C	-0.431355	-1.091846	0.633101
C122	C	0.068645	-0.591846	1.133101
C123	C	-0.431382	-1.091843	0.567666
C124	C	0.068618	-0.591843	1.067666
C125	C	-0.451971	-1.136166	0.769504
C126	C	0.048029	-0.636166	1.269504
C127	C	-0.451945	-1.136174	0.834937
C128	C	0.048055	-0.636174	1.334937
C129	C	-0.380716	-1.142435	0.867654
C130	C	0.119284	-0.642435	1.367654
C131	C	-0.309510	-1.148703	0.834930
C132	C	0.190490	-0.648703	1.334930
C133	C	-0.309537	-1.148700	0.769496
C134	C	0.190463	-0.648700	1.269496
C135	C	-0.380775	-1.142427	0.736786
C136	C	0.119225	-0.642427	1.236786
C137	C	-0.330123	-1.193011	0.971331
C138	C	0.169877	-0.693011	1.471331
C139	C	-0.330087	-1.193004	1.036768
C140	C	0.169913	-0.693004	1.536768
C141	C	-0.431182	-1.091857	1.036742
C142	C	0.068818	-0.591857	1.536742
C143	C	-0.431210	-1.091859	0.971307
C144	C	0.068790	-0.591859	1.471307
C145	C	-0.380682	-1.142441	0.938605
C146	C	0.119318	-0.642441	1.438605
H147	H	-0.681803	-1.050550	0.374541
H148	H	-0.181803	-0.550550	0.874541
O149	O	-0.485905	-1.037294	0.532360
O150	O	0.014095	-0.537294	1.032360
H151	H	-0.450522	-0.997099	0.502537
H152	H	0.049478	-0.497099	1.002537
H153	H	-0.805636	-1.000019	0.414578
H154	H	-0.305636	-0.500019	0.914578
H155	H	-0.955413	-1.000081	0.414591
H156	H	-0.455413	-0.500081	0.914591
O157	O	-0.485791	-0.852268	0.218463
O158	O	0.014209	-0.352268	0.718463
H159	H	-0.547847	-0.836417	0.229131
H160	H	-0.047847	-0.336417	0.729131
O161	O	-0.528800	-1.129403	0.734218
O162	O	-0.028800	-0.629403	1.234218
H163	H	-0.578307	-1.125054	0.767964
H164	H	-0.078307	-0.625054	1.267964
H165	H	-0.289301	-0.444098	0.374722
H166	H	0.210699	0.055902	0.874722
O167	O	-1.090124	-1.037322	0.385144
O168	O	-0.590124	-0.537322	0.885144
H169	H	-1.154458	-1.045834	0.378422
H170	H	-0.654458	-0.545834	0.878422
H171	H	-0.509925	-1.131075	0.861576
H172	H	-0.009925	-0.631075	1.361576
O173	O	-1.090044	-1.247602	0.218743
O174	O	-0.590044	-0.747602	0.718743
H175	H	-1.154383	-1.239139	0.225481
H176	H	-0.654383	-0.739139	0.725481
O177	O	-0.966226	-1.298107	0.178693
O178	O	-0.466226	-0.798107	0.678693
H179	H	-0.950437	-1.284578	0.129502
H180	H	-0.450437	-0.784578	0.629502
O181	O	-0.485858	-1.037301	0.668373
O182	O	0.014142	-0.537301	1.168373
H183	H	-0.477351	-1.045804	0.719372
H184	H	0.022649	-0.545804	1.219372
O185	O	-0.275618	-1.247560	0.936060
O186	O	0.224382	-0.747560	1.436060
H187	H	-0.311015	-1.287766	0.906271
H188	H	0.188985	-0.787766	1.406271
O189	O	-0.232742	-1.155460	0.734202
O190	O	0.267258	-0.655460	1.234202
H191	H	-0.224686	-1.102514	0.704368
H192	H	0.275314	-0.602514	1.204368
H193	H	-0.251509	-1.153803	0.861567
H194	H	0.248491	-0.653803	1.361567
H195	H	-0.805544	-1.284689	0.189244
H196	H	-0.305544	-0.784689	0.689244
H197	H	-0.681737	-1.234062	0.229272
H198	H	-0.181737	-0.734062	0.729272
H199	H	-0.238811	-0.717726	0.414839
H200	H	0.261189	-0.217726	0.914839
O201	O	-0.225470	-0.557057	0.425464
O202	O	0.274530	-0.057057	0.925464
H203	H	-0.239116	-0.572926	0.474620
H204	H	0.260884	-0.072926	0.974620
H205	H	-0.288917	-1.234187	1.063411
H206	H	0.211083	-0.734187	1.563411
H207	H	-0.472380	-1.050681	0.944662
H208	H	0.027620	-0.550681	1.444662
H209	H	-0.472480	-0.443956	0.229094
H210	H	0.027520	0.056044	0.729094
H211	H	-0.289286	-0.841510	0.374698
H212	H	0.210714	-0.341510	0.874698
O213	O	-0.536293	-0.556816	0.178342
O214	O	-0.036293	-0.056816	0.678342
H215	H	-0.527811	-0.492488	0.185092
H216	H	-0.027811	0.007512	0.685092
O217	O	-0.275722	-1.247533	0.668428
O218	O	0.224278	-0.747533	1.168428
H219	H	-0.284184	-1.239026	0.719423
H220	H	0.215816	-0.739026	1.219423
O221	O	-0.275803	-1.247548	0.532417
O222	O	0.224197	-0.747548	1.032417
H223	H	-0.240641	-1.282712	0.566170
H224	H	0.259359	-0.782712	1.066170
H225	H	-0.522939	-0.717507	0.188949
H226	H	-0.022939	-0.217507	0.688949
H227	H	-0.472318	-1.050676	1.063373
H228	H	0.027682	-0.550676	1.563373
