data_functionalizedCrystal
_audit_creation_method	'MofGen! by Chris Wilmer'
_symmetry_space_group_name_H-M	'P1'
_symmetry_Int_Tables_number	1
_symmetry_cell_setting	triclinic
loop_
_symmetry_equiv_pos_as_xyz
  x,y,z
_cell_length_a	17.038272
_cell_length_b	10.489741
_cell_length_c	9.565339
_cell_angle_alpha	90.000900
_cell_angle_beta	89.999972
_cell_angle_gamma	92.174635
loop_
_atom_site_label
_atom_site_type_symbol
_atom_site_fract_x
_atom_site_fract_y
_atom_site_fract_z
O1	O	0.110370	-1.704376	-0.116175
O2	O	0.120730	-1.334150	-0.116197
O3	O	0.001722	-1.517063	-0.116175
O4	O	0.229378	-1.521463	-0.116197
O5	O	0.001729	-1.517048	0.116345
O6	O	0.120738	-1.334135	0.116323
O7	O	0.110377	-1.704362	0.116345
Zn8	Zn	0.115558	-1.519246	0.153252
Zn9	Zn	0.115549	-1.519265	-0.153103
O10	O	0.229385	-1.521449	0.116324
C11	C	0.119951	-1.286537	0.000061
C12	C	0.117610	-1.144689	0.000053
C13	C	-0.027426	-1.513053	0.000085
C14	C	-0.114288	-1.501111	0.000084
C15	C	0.111156	-1.751974	0.000085
C16	C	0.113497	-1.893822	0.000084
C17	C	-0.163767	-1.610749	0.000092
C18	C	-0.245383	-1.599521	0.000078
C19	C	-0.277518	-1.478654	0.000066
C20	C	-0.228032	-1.369007	0.000054
C21	C	-0.146418	-1.380237	0.000058
C22	C	-0.523505	-1.438983	0.000044
C23	C	-0.605126	-1.427762	0.000045
C24	C	-0.622471	-1.658277	0.000066
C25	C	-0.540855	-1.669495	0.000078
C26	C	-0.491376	-1.559849	0.000059
C27	C	-0.360942	-1.467174	0.000056
C28	C	-0.407954	-1.571330	0.000059
C29	C	0.258533	-1.525458	0.000061
C30	C	0.345395	-1.537400	0.000053
N31	N	0.115565	-1.519242	0.362331
C32	C	0.041889	-1.069466	0.000073
C33	C	0.077655	-0.980692	-0.114572
C34	C	0.077680	-0.980714	0.114675
C35	C	0.153408	-1.057783	-0.114687
C36	C	0.153423	-1.057813	0.114662
C37	C	0.189244	-0.969072	-0.000011
N38	N	0.115536	-1.519279	-0.362183
C39	C	0.170584	-1.434621	0.453524
C40	C	0.186413	-1.551599	0.546708
C41	C	0.099741	-1.402315	0.546703
C42	C	0.131430	-1.636281	0.453464
C43	C	0.044727	-1.486918	0.453450
C44	C	0.060527	-1.603976	0.546592
H45	H	-0.137610	-1.709172	0.000110
N46	N	0.267417	-0.914390	-0.000104
N47	N	0.313004	-0.937121	-0.098633
H48	H	0.368214	-0.898502	-0.098705
N49	N	-0.393785	-1.343726	0.000073
N50	N	-0.437399	-1.311763	0.098085
H51	H	-0.460599	-1.224579	0.098097
N52	N	-0.260867	-1.245553	0.000025
N53	N	-0.333737	-1.235540	0.000021
H54	H	-0.356926	-1.148348	0.000003
N55	N	0.193592	-1.100545	0.236232
N56	N	0.254482	-1.162351	0.223535
H57	H	0.282847	-1.192535	0.309403
N58	N	-0.095862	-1.268257	0.000070
N59	N	-0.022994	-1.278298	0.000074
H60	H	0.012712	-1.199209	0.000079
N61	N	0.037471	-0.937997	-0.236153
N62	N	0.072422	-0.866146	-0.321969
H63	H	0.044038	-0.835994	-0.407832
H64	H	0.185419	-1.091612	-0.211720
N65	N	-0.030382	-1.452567	0.401984
N66	N	-0.069815	-1.528847	0.327208
H67	H	-0.122861	-1.504576	0.290856
H68	H	-0.285666	-1.688801	0.000087
H69	H	-0.381786	-1.669740	0.000038
H70	H	-0.662765	-1.747544	0.000079
N71	N	0.002142	-1.693850	0.597580
N72	N	-0.052715	-1.656868	0.672301
H73	H	-0.093946	-1.720344	0.708321
N74	N	0.037467	-0.938084	0.236256
N75	N	-0.032612	-0.972660	0.256655
H76	H	-0.061019	-0.942557	0.342515
N77	N	0.261551	-1.585903	0.598107
N78	N	0.300462	-1.510362	0.674567
H79	H	0.353530	-1.534579	0.710863
N80	N	0.082978	-1.278246	0.598089
N81	N	0.127464	-1.184694	0.568273
H82	H	0.115633	-1.097068	0.604564
N83	N	-0.472963	-1.326996	0.000025
N84	N	-0.425487	-1.307542	-0.097990
H85	H	-0.389788	-1.228446	-0.098003
N86	N	0.229010	-1.344945	0.402273
N87	N	0.299684	-1.357784	0.432203
H88	H	0.340950	-1.294454	0.396008
H89	H	0.144873	-1.735209	0.412680
H90	H	-0.514697	-1.767918	0.000088
H91	H	-0.020359	-1.113334	-0.000064
N92	N	-0.637938	-1.304282	0.000059
N93	N	-0.593754	-1.206394	0.000058
H94	H	-0.616928	-1.119190	0.000079
