data_functionalizedCrystal
_audit_creation_method	'MofGen! by Chris Wilmer'
_symmetry_space_group_name_H-M	'P1'
_symmetry_Int_Tables_number	1
_symmetry_cell_setting	triclinic
loop_
_symmetry_equiv_pos_as_xyz
  x,y,z
_cell_length_a	9.065218
_cell_length_b	14.044190
_cell_length_c	8.140239
_cell_angle_alpha	89.991557
_cell_angle_beta	89.997198
_cell_angle_gamma	89.103831
loop_
_atom_site_label
_atom_site_type_symbol
_atom_site_fract_x
_atom_site_fract_y
_atom_site_fract_z
O1	O	1.975823	0.139141	-0.136639
O2	O	2.475823	0.639141	0.363361
O3	O	1.547804	0.150554	-0.136644
O4	O	2.047804	0.650554	0.363356
O5	O	1.755383	0.006808	-0.136609
O6	O	2.255383	0.506808	0.363391
O7	O	1.768243	0.282888	-0.136674
O8	O	2.268243	0.782888	0.363326
O9	O	1.755371	0.006806	0.136618
O10	O	2.255371	0.506806	0.636618
O11	O	1.547791	0.150552	0.136584
O12	O	2.047791	0.650552	0.636584
O13	O	1.975811	0.139139	0.136588
O14	O	2.475811	0.639139	0.636588
Zn15	Zn	1.761799	0.144846	0.179966
Zn16	Zn	2.261799	0.644846	0.679966
Zn17	Zn	1.761815	0.144848	-0.180022
Zn18	Zn	2.261815	0.644848	0.319978
O19	O	1.768231	0.282886	0.136553
O20	O	2.268231	0.782886	0.636553
C21	C	1.492689	0.149456	-0.000030
C22	C	1.992689	0.649456	0.499970
C23	C	1.328483	0.146177	-0.000030
C24	C	1.828483	0.646177	0.499970
C25	C	1.749751	-0.028556	0.000009
C26	C	2.249751	0.471444	0.500009
C27	C	1.732970	-0.133926	0.000023
C28	C	2.232970	0.366074	0.500023
C29	C	1.821306	-0.383454	-0.000040
C30	C	2.321306	0.116546	0.499960
C31	C	1.702315	-0.326847	-0.000030
C32	C	2.202315	0.173153	0.499970
C33	C	1.719375	-0.219496	-0.000000
C34	C	2.219375	0.280504	0.500000
C35	C	1.804248	-0.490815	-0.000070
C36	C	2.304248	0.009185	0.499930
C37	C	2.030925	0.140237	-0.000029
C38	C	2.530925	0.640237	0.499971
C39	C	2.195132	0.143517	-0.000040
C40	C	2.695132	0.643517	0.499960
C41	C	1.773863	0.318250	-0.000069
C42	C	2.273863	0.818250	0.499931
C43	C	1.790644	0.423620	-0.000094
C44	C	2.290644	0.923620	0.499906
N45	N	1.761798	0.144844	0.425649
N46	N	2.261798	0.644844	0.925649
N47	N	1.761827	0.144843	-0.425705
N48	N	2.261827	0.644843	0.074295
H49	H	1.587629	-0.359007	-0.000041
H50	H	2.087629	0.140993	0.499959
H51	H	1.935982	-0.351296	-0.000022
H52	H	2.435982	0.148704	0.499978
