data_functionalizedCrystal
_audit_creation_method	'MofGen! by Chris Wilmer'
_symmetry_space_group_name_H-M	'P1'
_symmetry_Int_Tables_number	1
_symmetry_cell_setting	triclinic
loop_
_symmetry_equiv_pos_as_xyz
  x,y,z
_cell_length_a	8.559649
_cell_length_b	9.130313
_cell_length_c	8.559649
_cell_angle_alpha	90.001889
_cell_angle_beta	110.221336
_cell_angle_gamma	90.002234
loop_
_atom_site_label
_atom_site_type_symbol
_atom_site_fract_x
_atom_site_fract_y
_atom_site_fract_z
O1	O	2.126881	0.121776	0.055046
O2	O	1.651396	0.121782	-0.028735
O3	O	1.931029	0.121777	0.250898
O4	O	1.847248	0.121781	-0.224587
O5	O	1.931010	-0.121822	0.250881
O6	O	1.651377	-0.121817	-0.028752
O7	O	2.126862	-0.121822	0.055029
Cu8	Cu	1.889118	-0.144062	0.013137
Cu9	Cu	1.889140	0.144022	0.013157
O10	O	1.847229	-0.121818	-0.224604
C11	C	1.591077	-0.000017	-0.035093
C12	C	1.411378	-0.000014	-0.053992
N13	N	1.889114	-0.346685	0.013125
C14	C	1.975417	-0.423351	-0.073245
C15	C	1.975445	-0.576688	-0.073212
C16	C	1.802852	-0.576679	0.099564
C17	C	1.802835	-0.423345	0.099539
C18	C	2.061696	-0.346691	-0.159659
C19	C	2.148005	-0.423358	-0.246037
C20	C	2.148032	-0.576695	-0.246004
C21	C	2.061751	-0.653365	-0.159592
C22	C	2.187180	-0.000021	0.061387
C23	C	2.366879	-0.000013	0.080286
C24	C	1.937369	-0.000020	0.311198
C25	C	1.956268	-0.000012	0.490898
N26	N	1.889158	0.346644	0.013183
C27	C	1.840889	-0.000018	-0.284904
C28	C	1.821990	-0.000016	-0.464604
H29	H	1.466258	-0.000007	0.209705
H30	H	1.692570	-0.000019	0.436018
H31	H	1.311990	-0.000005	-0.183420
H32	H	2.061679	-0.221837	-0.159700
H33	H	2.218262	-0.360923	-0.316380
H34	H	2.218322	-0.639112	-0.316324
H35	H	1.732556	-0.360921	0.169866
H36	H	2.061798	-0.778222	-0.159555
H37	H	1.732603	-0.639116	0.169913
H38	H	2.085696	-0.000025	0.590286
