data_functionalizedCrystal
_audit_creation_method	'MofGen! by Chris Wilmer'
_symmetry_space_group_name_H-M	'P1'
_symmetry_Int_Tables_number	1
_symmetry_cell_setting	triclinic
loop_
_symmetry_equiv_pos_as_xyz
  x,y,z
_cell_length_a	10.723024
_cell_length_b	9.065218
_cell_length_c	7.540329
_cell_angle_alpha	90.001757
_cell_angle_beta	89.998244
_cell_angle_gamma	95.258123
loop_
_atom_site_label
_atom_site_type_symbol
_atom_site_fract_x
_atom_site_fract_y
_atom_site_fract_z
O1	O	1.658026	-0.206940	-0.147426
O2	O	1.294955	-0.226748	-0.147439
O3	O	1.483995	-0.002159	-0.147429
O4	O	1.468986	-0.431529	-0.147437
O5	O	1.483984	-0.002156	0.147536
O6	O	1.294943	-0.226745	0.147526
O7	O	1.658015	-0.206937	0.147539
Cu8	Cu	1.476478	-0.216841	0.174465
Cu9	Cu	1.476492	-0.216844	-0.174365
O10	O	1.468974	-0.431526	0.147528
C11	C	1.248443	-0.225305	0.000041
C12	C	1.109872	-0.220992	0.000036
C13	C	1.482547	0.052821	0.000051
C14	C	1.478234	0.216639	0.000042
C15	C	1.704526	-0.208380	0.000054
C16	C	1.843098	-0.212693	0.000048
C17	C	1.917570	-0.087024	0.000048
C18	C	2.060792	-0.091479	0.000041
C19	C	1.470423	-0.486506	0.000045
C20	C	1.474736	-0.650324	0.000042
N21	N	1.476478	-0.216838	0.419813
N22	N	1.476502	-0.216836	-0.419714
H23	H	1.875298	0.023863	0.000080
H24	H	1.885371	-0.323580	0.000054
C25	C	2.272333	0.021237	0.000040
C26	C	2.147174	0.053763	0.000044
H27	H	2.325661	0.110908	0.000052
H28	H	2.288114	-0.034612	-0.102819
H29	H	2.288109	-0.034625	0.102904
H30	H	2.131395	0.109616	-0.102828
H31	H	2.131387	0.109635	0.102913
H32	H	2.045883	-0.328580	0.000029
