data_functionalizedCrystal
_audit_creation_method	'MofGen! by Chris Wilmer'
_symmetry_space_group_name_H-M	'P1'
_symmetry_Int_Tables_number	1
_symmetry_cell_setting	triclinic
loop_
_symmetry_equiv_pos_as_xyz
  x,y,z
_cell_length_a	13.897449
_cell_length_b	16.120531
_cell_length_c	13.897441
_cell_angle_alpha	92.862141
_cell_angle_beta	90.023394
_cell_angle_gamma	87.066788
loop_
_atom_site_label
_atom_site_type_symbol
_atom_site_fract_x
_atom_site_fract_y
_atom_site_fract_z
Zn1	Zn	1.455136	0.331862	0.564868
Zn2	Zn	1.446809	0.471293	0.411728
Zn3	Zn	1.293823	0.331900	0.403581
Zn4	Zn	1.285590	0.471237	0.572970
O5	O	1.370340	0.401573	0.488287
O6	O	1.589013	0.350365	0.544573
O7	O	1.426476	0.452842	0.275668
O8	O	1.322152	0.215230	0.418176
O9	O	1.582895	0.452805	0.432062
O10	O	1.440668	0.215201	0.536673
O11	O	1.314078	0.350431	0.269683
O12	O	1.157750	0.350376	0.426032
O13	O	1.308119	0.452709	0.706875
O14	O	1.151701	0.452747	0.550482
O15	O	1.432685	0.350311	0.700922
O16	O	1.418493	0.587951	0.439918
O17	O	1.300045	0.587910	0.558381
C18	C	1.119726	0.401560	0.488253
C19	C	1.012511	0.401575	0.488262
C20	C	0.925441	0.401578	0.488278
C21	C	0.816208	0.401584	0.488308
C22	C	1.357498	0.618181	0.500934
C23	C	1.352093	0.710847	0.506376
C24	C	1.342229	0.880508	0.516333
C25	C	1.398486	0.921798	0.460187
C26	C	1.392998	1.016203	0.465727
C27	C	1.347716	0.786094	0.510794
C28	C	1.621932	0.401587	0.488322
C29	C	1.729145	0.401592	0.488337
C30	C	1.370412	0.401499	0.739876
C31	C	1.370443	0.401468	0.847088
C32	C	1.383223	1.184120	0.475594
C33	C	1.388626	1.091454	0.470140
C34	C	1.370326	0.401586	0.237674
C35	C	1.370496	0.401383	0.130448
C36	C	1.370473	0.401412	1.043380
C37	C	1.370453	0.401445	0.934149
H38	H	1.450770	0.886246	0.407957
H39	H	1.289948	0.916057	0.568557
