data_functionalizedCrystal
_audit_creation_method	'MofGen! by Chris Wilmer'
_symmetry_space_group_name_H-M	'P1'
_symmetry_Int_Tables_number	1
_symmetry_cell_setting	triclinic
loop_
_symmetry_equiv_pos_as_xyz
  x,y,z
_cell_length_a	15.944551
_cell_length_b	15.944551
_cell_length_c	9.130307
_cell_angle_alpha	89.995755
_cell_angle_beta	90.002971
_cell_angle_gamma	83.498738
loop_
_atom_site_label
_atom_site_type_symbol
_atom_site_fract_x
_atom_site_fract_y
_atom_site_fract_z
O1	O	1.114521	0.108331	-0.121650
O2	O	0.869971	0.121687	-0.121687
O3	O	0.998924	-0.007266	-0.121654
O4	O	0.985568	0.237284	-0.121682
O5	O	0.998920	-0.007267	0.121945
O6	O	0.869967	0.121686	0.121912
O7	O	1.114517	0.108329	0.121949
Cu8	Cu	0.992241	0.115007	0.144173
Cu9	Cu	0.992246	0.115009	-0.143911
O10	O	0.985564	0.237282	0.121917
C11	C	0.838675	0.121132	0.000108
C12	C	0.745429	0.119470	0.000095
C13	C	0.998367	-0.038561	0.000146
C14	C	0.996705	-0.131807	0.000146
C15	C	0.530572	0.035565	0.000133
C16	C	0.469554	0.074528	-0.119979
C17	C	0.574703	0.116462	0.000112
C18	C	0.469572	0.074546	0.120191
C19	C	0.409790	0.113551	0.000136
C20	C	0.514913	0.155447	-0.120099
C21	C	0.514938	0.155454	0.120179
C22	C	0.453937	0.194476	0.000038
C23	C	0.669705	0.118137	0.000097
C24	C	0.314789	0.111883	0.000140
C25	C	0.912801	-0.346663	0.000113
C26	C	0.951761	-0.407681	0.120228
C27	C	0.993698	-0.302533	0.000134
C28	C	0.951784	-0.407663	-0.119941
C29	C	0.990787	-0.467445	0.000117
C30	C	1.032680	-0.362322	0.120349
C31	C	1.032692	-0.362298	-0.119929
C32	C	1.071711	-0.423298	0.000215
C33	C	0.995372	-0.207530	0.000146
C34	C	0.989119	-0.562446	0.000116
C35	C	1.145813	0.108885	0.000151
C36	C	1.239059	0.110547	0.000155
C37	C	0.986120	0.268577	0.000114
C38	C	0.987782	0.361823	0.000103
N39	N	0.992244	0.115006	0.346796
N40	N	0.992250	0.115004	-0.346534
C41	C	1.106478	0.000851	0.346815
C42	C	1.163601	-0.056224	0.423491
C43	C	1.163609	-0.056225	0.576825
C44	C	1.106487	0.000854	0.653485
C45	C	1.049364	0.057929	0.576809
C46	C	1.049364	0.057925	0.423472
C47	C	0.935128	0.172079	0.576790
C48	C	0.935122	0.172085	0.423457
C49	C	0.878006	0.229158	0.653451
C50	C	0.820886	0.286238	0.576775
C51	C	0.820880	0.286237	0.423432
C52	C	0.877999	0.229160	0.346781
H53	H	0.563905	-0.031573	-0.000008
C54	C	0.542143	0.201636	0.257354
C55	C	0.506768	0.294172	0.285215
C56	C	0.533977	0.340345	0.422405
C57	C	0.596561	0.293982	0.531734
C58	C	0.631940	0.201442	0.503877
C59	C	0.604731	0.155268	0.366686
H60	H	0.460436	0.328497	0.204280
H61	H	0.507786	0.408850	0.443027
H62	H	0.616703	0.328162	0.633291
H63	H	0.678272	0.167117	0.584811
H64	H	0.630922	0.086763	0.346065
H65	H	0.917559	-0.427740	-0.221496
C66	C	0.758056	0.349019	0.661098
C67	C	0.758193	0.349151	0.829760
C68	C	0.695363	0.411934	0.914088
C69	C	0.632397	0.474585	0.829756
C70	C	0.632258	0.474455	0.661086
C71	C	0.695088	0.411672	0.576757
H72	H	0.804806	0.302771	0.892196
H73	H	0.695466	0.412030	1.038950
H74	H	0.585887	0.521061	0.892182
H75	H	0.585645	0.520835	0.598649
H76	H	0.694985	0.411576	0.451895
H77	H	0.449446	0.040312	-0.221517
H78	H	1.138919	-0.456457	0.000293
H79	H	0.878011	0.229151	0.778303
C80	C	0.442436	0.028309	0.257374
C81	C	0.476648	-0.064698	0.283735
C82	C	0.449516	-0.110941	0.420910
C83	C	0.388171	-0.064178	0.531724
C84	C	0.353955	0.028834	0.505367
C85	C	0.381088	0.075078	0.368192
H86	H	0.522062	-0.099319	0.201701
H87	H	0.474845	-0.179795	0.440421
H88	H	0.368086	-0.098410	0.633270
H89	H	0.308541	0.063456	0.587401
H90	H	0.355758	0.143931	0.348680
C91	C	0.409124	0.285260	-0.000067
C92	C	0.423532	0.345440	-0.127235
C93	C	0.378711	0.436221	-0.127352
C94	C	0.319483	0.466822	-0.000301
C95	C	0.305073	0.406641	0.126877
C96	C	0.349893	0.315860	0.126994
H97	H	0.467378	0.322788	-0.221294
H98	H	0.389380	0.480770	-0.221498
H99	H	0.286305	0.534023	-0.000388
H100	H	0.261226	0.429293	0.220937
H101	H	0.339225	0.271311	0.221141
H102	H	0.534903	0.189638	-0.221754
C103	C	0.905539	-0.434857	0.257395
C104	C	0.812531	-0.400663	0.283767
C105	C	0.766303	-0.427835	0.420926
C106	C	0.813083	-0.489201	0.531714
C107	C	0.906096	-0.523398	0.505345
C108	C	0.952324	-0.496226	0.368186
H109	H	0.777897	-0.355234	0.201752
H110	H	0.697448	-0.402520	0.440445
H111	H	0.778862	-0.509315	0.633247
H112	H	0.940730	-0.568827	0.587359
H113	H	1.021179	-0.521541	0.348666
C114	C	1.078860	-0.335325	0.257691
C115	C	1.088928	-0.241515	0.283113
C116	C	1.135103	-0.214515	0.420455
C117	C	1.171211	-0.281327	0.532377
C118	C	1.161143	-0.375143	0.506959
C119	C	1.114968	-0.402143	0.369616
H120	H	1.062199	-0.192051	0.200259
H121	H	1.142556	-0.145066	0.439271
H122	H	1.205392	-0.261340	0.634046
H123	H	1.187873	-0.424607	0.589812
H124	H	1.107516	-0.471592	0.350800
C125	C	1.226443	-0.119007	0.661176
C126	C	1.289283	-0.181781	0.576865
C127	C	1.352117	-0.244563	0.661216
C128	C	1.352111	-0.244570	0.829878
C129	C	1.289269	-0.181793	0.914198
C130	C	1.226435	-0.119011	0.829847
H131	H	1.289289	-0.181778	0.452004
H132	H	1.398637	-0.291034	0.598796
H133	H	1.398625	-0.291044	0.892319
H134	H	1.289263	-0.181796	1.039060
H135	H	1.179916	-0.072540	0.892267
C136	C	0.822092	-0.301660	0.000253
C137	C	0.746467	-0.353771	0.001672
C138	C	0.655761	-0.308766	0.001820
C139	C	0.640680	-0.211650	0.000548
C140	C	0.716307	-0.159533	-0.000872
C141	C	0.807013	-0.204538	-0.001019
H142	H	0.757628	-0.425666	0.002614
H143	H	0.599776	-0.347346	0.002871
H144	H	0.573534	-0.178334	0.000657
H145	H	0.705145	-0.087637	-0.001813
H146	H	0.862997	-0.165958	-0.002070
H147	H	1.066881	-0.342167	-0.221472
H148	H	1.106491	0.000843	0.778338
H149	H	0.878003	0.229157	0.221929
H150	H	0.774361	0.332711	0.361010
H151	H	1.106484	0.000853	0.221963
H152	H	1.210108	-0.102699	0.361061
