data_functionalizedCrystal
_audit_creation_method	'MofGen! by Chris Wilmer'
_symmetry_space_group_name_H-M	'P1'
_symmetry_Int_Tables_number	1
_symmetry_cell_setting	triclinic
loop_
_symmetry_equiv_pos_as_xyz
  x,y,z
_cell_length_a	19.188933
_cell_length_b	17.666332
_cell_length_c	10.654541
_cell_angle_alpha	89.993802
_cell_angle_beta	96.185251
_cell_angle_gamma	90.007939
loop_
_atom_site_label
_atom_site_type_symbol
_atom_site_fract_x
_atom_site_fract_y
_atom_site_fract_z
O1	O	0.927173	0.062923	-0.156794
O2	O	0.724000	0.062930	-0.177897
O3	O	0.830259	0.062922	0.015493
O4	O	0.820915	0.062931	-0.350184
O5	O	0.830240	-0.062975	0.015503
O6	O	0.723981	-0.062967	-0.177886
O7	O	0.927155	-0.062974	-0.156784
Cu8	Cu	0.825566	-0.074466	-0.167334
Cu9	Cu	0.825588	0.074422	-0.167346
O10	O	0.820896	-0.062966	-0.350173
C11	C	0.697975	-0.000018	-0.177208
C12	C	0.620457	-0.000015	-0.175155
C13	C	0.067117	0.068603	-0.160511
C14	C	0.139953	0.068606	-0.162432
C15	C	0.176366	-0.000020	-0.163393
C16	C	0.139939	-0.068655	-0.162400
C17	C	0.067104	-0.068656	-0.160466
N18	N	0.285866	-0.051100	-0.237884
N19	N	0.355055	-0.051094	-0.239724
C20	C	0.395813	-0.000022	-0.169216
N21	N	0.364767	0.051057	-0.096815
N22	N	0.295570	0.051054	-0.094981
C23	C	0.255343	-0.000027	-0.165489
C24	C	0.511211	0.068611	-0.172283
C25	C	0.584049	0.068612	-0.174196
C26	C	0.584032	-0.068651	-0.174177
C27	C	0.511196	-0.068649	-0.172251
C28	C	0.474789	-0.000016	-0.171310
N29	N	0.825556	-0.179185	-0.167325
C30	C	0.872623	-0.218799	-0.081734
C31	C	0.872627	-0.298046	-0.081727
C32	C	0.825570	-0.337677	-0.167334
C33	C	0.778495	-0.298054	-0.252932
C34	C	0.778487	-0.218808	-0.252927
N35	N	0.817221	-0.462093	-0.278501
N36	N	0.817232	-0.537373	-0.278502
C37	C	0.825589	-0.576441	-0.167352
N38	N	0.833948	-0.537385	-0.056198
N39	N	0.833940	-0.462098	-0.056198
C40	C	0.825573	-0.423607	-0.167348
C41	C	0.872663	-0.701984	-0.081747
C42	C	0.872662	-0.781233	-0.081739
C43	C	0.778533	-0.781240	-0.252955
C44	C	0.778531	-0.701992	-0.252952
C45	C	0.825599	-0.662369	-0.167349
C46	C	0.953179	-0.000025	-0.157473
C47	C	1.030697	-0.000022	-0.159525
C48	C	0.829564	-0.000026	0.062282
C49	C	0.827512	-0.000025	0.201682
N50	N	0.825605	0.179141	-0.167345
C51	C	0.821591	-0.000016	-0.396962
C52	C	0.823643	-0.000012	-0.536362
C53	C	0.954573	-0.000039	0.232340
C54	C	1.017137	-0.000048	0.313157
C55	C	1.015205	-0.000045	0.444134
C56	C	0.950702	-0.000032	0.494295
C57	C	0.888138	-0.000023	0.413478
C58	C	0.890077	-0.000028	0.282500
C59	C	0.761079	-0.000004	0.382821
C60	C	0.763009	-0.000012	0.251843
C61	C	0.696576	0.000009	0.432982
C62	C	0.634011	0.000012	0.352164
C63	C	0.635945	0.000009	0.221179
C64	C	0.700445	-0.000003	0.171026
H65	H	0.613701	0.124497	-0.174989
H66	H	0.037452	-0.124540	-0.159668
F67	F	0.622782	-0.141688	-0.175183
F68	F	0.472433	-0.141690	-0.171219
F69	F	0.472462	0.141656	-0.171274
F70	F	0.694521	0.000051	0.572380
H71	H	0.910947	-0.186540	-0.012028
H72	H	0.740179	-0.330326	-0.322633
H73	H	0.581497	0.000028	0.393017
F74	F	0.922725	-0.340213	0.009375
F75	F	0.956635	-0.000056	0.092943
F76	F	0.922754	-0.659813	0.009364
F77	F	0.728390	-0.176647	-0.344029
F78	F	0.028374	0.141649	-0.159502
H79	H	0.910988	-0.813487	-0.012034
H80	H	0.740217	-0.813507	-0.322653
F81	F	0.728439	-0.659830	-0.344055
H82	H	0.584998	0.000019	0.155384
H83	H	0.949135	-0.000021	0.600945
F84	F	0.702510	-0.000012	0.031630
F85	F	1.081792	-0.000048	0.530148
F86	F	1.085782	-0.000058	0.259763
H87	H	0.169591	-0.124530	-0.163180
F88	F	0.178721	0.141649	-0.163482
