data_functionalizedCrystal
_audit_creation_method	'MofGen! by Chris Wilmer'
_symmetry_space_group_name_H-M	'P1'
_symmetry_Int_Tables_number	1
_symmetry_cell_setting	triclinic
loop_
_symmetry_equiv_pos_as_xyz
  x,y,z
_cell_length_a	15.995300
_cell_length_b	10.654550
_cell_length_c	9.130313
_cell_angle_alpha	90.002847
_cell_angle_beta	89.994692
_cell_angle_gamma	96.021631
loop_
_atom_site_label
_atom_site_type_symbol
_atom_site_fract_x
_atom_site_fract_y
_atom_site_fract_z
O1	O	1.111949	-0.161569	-0.121853
O2	O	0.868285	-0.181624	-0.121844
O3	O	0.995719	0.011218	-0.121839
O4	O	0.984515	-0.354410	-0.121857
O5	O	0.995710	0.011217	0.121760
O6	O	0.868275	-0.181624	0.121755
O7	O	1.111940	-0.161569	0.121746
Cu8	Cu	0.990106	-0.171596	0.143993
Cu9	Cu	0.990118	-0.171596	-0.144091
O10	O	0.984505	-0.354410	0.121742
C11	C	0.837080	-0.180806	-0.000043
C12	C	0.744113	-0.178354	-0.000040
C13	C	0.573904	-0.173825	-0.000051
C14	C	0.527235	-0.311132	-0.000054
C15	C	0.430533	-0.308627	-0.000611
C16	C	0.406321	-0.169368	-0.000060
C17	C	0.447064	-0.101245	-0.138889
C18	C	0.543717	-0.104719	-0.139002
C19	C	0.543973	-0.102686	0.138025
C20	C	0.447029	-0.102699	0.139846
C21	C	0.311611	-0.166841	-0.000070
C22	C	0.668614	-0.176347	-0.000050
C23	C	0.994892	0.058005	-0.000041
C24	C	0.992430	0.197415	-0.000043
C25	C	1.143145	-0.162387	-0.000058
C26	C	1.236112	-0.164839	-0.000071
C27	C	0.985333	-0.401197	-0.000060
C28	C	0.987794	-0.540608	-0.000068
N29	N	0.990105	-0.171596	0.346616
C30	C	1.067462	0.277901	-0.000046
C31	C	1.065144	0.408891	-0.000064
C32	C	0.912757	0.378896	-0.000069
C33	C	0.915075	0.247908	-0.000062
N34	N	0.990126	-0.171587	-0.346713
C35	C	1.041328	-0.247795	0.423256
C36	C	1.041341	-0.247788	0.576593
C37	C	0.938901	-0.095379	0.576635
C38	C	0.938893	-0.095381	0.423301
H39	H	0.547163	-0.365490	-0.099465
C40	C	1.097681	-0.331611	0.660899
H41	H	1.090360	-0.320689	0.763203
H42	H	1.082614	-0.417527	0.635770
H43	H	1.154837	-0.308312	0.635748
H44	H	0.402376	-0.362156	0.098885
H45	H	0.849777	0.420024	-0.000081
H46	H	0.853972	0.182373	-0.000063
C47	C	0.882542	-0.011561	0.338991
H48	H	0.852034	0.033816	0.406620
H49	H	0.916517	0.046211	0.279166
H50	H	0.844299	-0.063011	0.279187
C51	C	0.882564	-0.011563	0.660994
H52	H	0.889898	-0.022484	0.763291
H53	H	0.897621	0.074355	0.635869
H54	H	0.825407	-0.034872	0.635878
H55	H	0.575166	-0.001452	0.139366
C56	C	0.552626	-0.385682	0.134421
H57	H	0.523771	-0.468277	0.132378
H58	H	0.611534	-0.390955	0.132585
H59	H	0.538221	-0.343811	0.221278
C60	C	0.393327	-0.380662	-0.135812
H61	H	0.437324	-0.411558	-0.190621
H62	H	0.354739	-0.449463	-0.105030
H63	H	0.364974	-0.325404	-0.195209
H64	H	1.126242	0.474419	-0.000070
H65	H	1.083028	-0.309854	0.360824
H66	H	0.564732	-0.147892	0.243284
H67	H	0.562325	-0.153815	-0.243177
H68	H	0.575405	-0.003893	-0.144929
C69	C	0.427211	0.036983	-0.145347
H70	H	0.393815	0.054415	-0.063241
H71	H	0.478193	0.091420	-0.143834
H72	H	0.397358	0.050381	-0.232949
H73	H	1.130449	0.236794	-0.000034
H74	H	0.419974	-0.152446	0.242554
C75	C	0.409133	-0.164381	-0.278996
H76	H	0.368478	-0.232246	-0.253185
H77	H	0.383078	-0.104231	-0.335044
H78	H	0.452447	-0.195647	-0.335185
H79	H	0.431101	-0.001169	0.148645
