data_functionalizedCrystal
_audit_creation_method	'MofGen! by Chris Wilmer'
_symmetry_space_group_name_H-M	'P1'
_symmetry_Int_Tables_number	1
_symmetry_cell_setting	triclinic
loop_
_symmetry_equiv_pos_as_xyz
  x,y,z
_cell_length_a	13.635800
_cell_length_b	17.982783
_cell_length_c	11.102300
_cell_angle_alpha	85.766160
_cell_angle_beta	108.605850
_cell_angle_gamma	77.551428
loop_
_atom_site_label
_atom_site_type_symbol
_atom_site_fract_x
_atom_site_fract_y
_atom_site_fract_z
V1	V	2.040191	-0.105412	0.396784
O2	O	2.036030	0.005066	0.388688
O3	O	2.013272	-0.209014	0.394592
O4	O	2.028821	-0.103790	0.569597
O5	O	2.020374	-0.100887	0.212472
V6	V	2.280694	-0.092197	0.374675
O7	O	2.173579	-0.134399	0.445281
O8	O	2.372405	-0.063211	0.326178
O9	O	2.196010	0.011405	0.376867
O10	O	2.343554	-0.202675	0.382771
O11	O	2.359210	-0.096723	0.558987
O12	O	2.180461	-0.093819	0.201862
V13	V	2.540191	-0.105412	0.396784
O14	O	2.536030	0.005066	0.388688
O15	O	2.513272	-0.209014	0.394592
O16	O	2.528821	-0.103790	0.569597
O17	O	2.520374	-0.100887	0.212472
V18	V	2.780694	-0.092197	0.374675
O19	O	2.673579	-0.134399	0.445281
O20	O	2.872405	-0.063211	0.326178
O21	O	2.696010	0.011405	0.376867
O22	O	2.843554	-0.202675	0.382771
O23	O	2.859210	-0.096723	0.558987
O24	O	2.680461	-0.093819	0.201862
C25	C	1.934696	-0.234270	0.388468
C26	C	1.953416	-0.318966	0.387828
C27	C	1.933732	-0.347876	0.271088
C28	C	1.951332	-0.427458	0.270491
C29	C	1.988607	-0.478128	0.386635
C30	C	2.008295	-0.449213	0.503384
C31	C	1.990703	-0.369633	0.503980
C32	C	2.079244	-0.770151	0.500982
C33	C	2.096833	-0.849736	0.500377
C34	C	2.039873	-0.827976	0.267494
C35	C	2.022281	-0.748396	0.268090
C36	C	2.041975	-0.719488	0.384838
C37	C	2.022894	-0.633197	0.385484
C38	C	2.007682	-0.564418	0.385990
C39	C	1.954529	-0.100046	0.611702
C40	C	1.985857	-0.099405	0.752981
C41	C	2.106256	0.036657	0.382988
C42	C	2.077156	0.121352	0.383636
C43	C	2.086423	-0.097566	0.159751
C44	C	2.044715	-0.098202	0.018471
C45	C	2.434696	-0.234270	0.388468
C46	C	2.453416	-0.318966	0.387828
C47	C	2.454529	-0.100046	0.611702
C48	C	2.485857	-0.099405	0.752981
C49	C	2.092018	-0.102910	0.825847
C50	C	2.121447	-0.102305	0.958593
C51	C	1.938544	-0.094696	0.945594
C52	C	1.909115	-0.095294	0.812849
C53	C	2.606256	0.036657	0.382988
C54	C	2.577156	0.121352	0.383636
C55	C	2.586423	-0.097566	0.159751
C56	C	2.544715	-0.098202	0.018471
C57	C	2.553650	-0.362625	0.393896
C58	C	2.571258	-0.442208	0.393315
C59	C	2.488628	-0.478130	0.386655
C60	C	2.388386	-0.434466	0.380589
C61	C	2.370782	-0.354885	0.381181
C62	C	2.649416	0.165011	0.377571
C63	C	2.622080	0.244594	0.378159
C64	C	2.522487	0.280515	0.384822
C65	C	2.450222	0.236851	0.390884
C66	C	2.477555	0.157271	0.390286
C67	C	2.592018	-0.102910	0.825847
C68	C	2.621447	-0.102305	0.958593
C69	C	2.438544	-0.094696	0.945594
C70	C	2.409115	-0.095294	0.812849
H71	H	1.903371	-0.306625	0.176509
H72	H	2.095269	-0.746624	0.596045
H73	H	2.207891	-0.105158	1.017915
O74	O	1.986032	-0.699067	0.155380
C75	C	1.933759	-0.566830	0.053094
C76	C	1.974783	-0.622605	0.180829
H77	H	1.924673	-0.505000	0.073625
H78	H	1.852944	-0.574073	-0.009355
H79	H	1.993369	-0.580136	0.000442
H80	H	1.915251	-0.609334	0.233587
H81	H	2.055620	-0.615352	0.243183
H82	H	1.876068	-0.091350	0.994356
O83	O	2.364072	-0.090609	1.003875
C84	C	2.272314	-0.019186	1.128566
C85	C	2.356699	-0.023726	1.062647
H86	H	2.266310	0.034893	1.176077
H87	H	2.296696	-0.072245	1.204662
H88	H	2.191402	-0.016821	1.053669
H89	H	2.437640	-0.026067	1.137449
H90	H	2.332225	0.029333	0.986527
H91	H	2.154508	-0.106256	0.777106
O92	O	2.666559	-0.107032	0.767665
C93	C	2.758235	-0.178408	0.642853
C94	C	2.673806	-0.173847	0.708709
H95	H	2.764105	-0.232415	0.595148
H96	H	2.839207	-0.180859	0.717699
H97	H	2.733839	-0.125287	0.566878
H98	H	2.698101	-0.226954	0.784676
H99	H	2.592855	-0.171358	0.633787
H100	H	1.822661	-0.092435	0.753518
O101	O	2.505741	-0.555455	0.386300
C102	C	2.507859	-0.677874	0.492571
C103	C	2.488461	-0.590320	0.493148
H104	H	2.493874	-0.706086	0.578933
H105	H	2.593707	-0.702950	0.498131
H106	H	2.450277	-0.689395	0.400153
H107	H	2.545976	-0.578731	0.585548
H108	H	2.402584	-0.565288	0.487519
O109	O	2.308103	-0.469381	0.373885
C110	C	2.194861	-0.544450	0.255176
C111	C	2.285772	-0.504926	0.262608
H112	H	2.176793	-0.573213	0.165231
H113	H	2.120132	-0.499608	0.250850
H114	H	2.220409	-0.589839	0.344014
H115	H	2.260325	-0.459542	0.173793
H116	H	2.360478	-0.549813	0.266998
O117	O	2.634055	-0.327867	0.400425
C118	C	2.817283	-0.343964	0.412914
C119	C	2.726318	-0.383419	0.405551
H120	H	2.891893	-0.388857	0.417033
H121	H	2.835560	-0.315274	0.502931
H122	H	2.791706	-0.298531	0.324129
H123	H	2.751821	-0.428885	0.494270
H124	H	2.708057	-0.412057	0.315478
O125	O	2.273328	-0.312586	0.375205
C126	C	2.093822	-0.313332	0.362572
C127	C	2.204133	-0.361319	0.369304
H128	H	2.037854	-0.352715	0.357827
H129	H	2.059076	-0.267552	0.273104
H130	H	2.102898	-0.284205	0.451905
H131	H	2.195148	-0.390496	0.280037
H132	H	2.238840	-0.407055	0.458830
O133	O	2.668544	-0.484675	0.399009
C134	C	2.767484	-0.568622	0.294984
C135	C	2.657244	-0.520581	0.288395
H136	H	2.758389	-0.597652	0.205552
H137	H	2.802198	-0.614471	0.384360
H138	H	2.823496	-0.529258	0.299886
H139	H	2.601152	-0.559884	0.283445
H140	H	2.622617	-0.474725	0.199033
H141	H	2.730515	0.135774	0.372147
H142	H	1.935305	-0.450992	0.175430
O143	O	2.692433	0.286879	0.372330
C144	C	2.865768	0.286144	0.359598
C145	C	2.786204	0.238166	0.366223
H146	H	2.941590	0.246783	0.354632
H147	H	2.886675	0.315225	0.448971
H148	H	2.827898	0.331962	0.270185
H149	H	2.824004	0.192310	0.455580
H150	H	2.765300	0.209141	0.276788
H151	H	2.707891	-0.105158	1.017915
O152	O	2.020855	-0.856189	0.154198
C153	C	2.022660	-0.969138	0.050048
C154	C	2.044266	-0.937294	0.178442
H155	H	2.041557	-1.034714	0.069603
H156	H	2.075377	-0.951155	-0.002389
H157	H	1.934966	-0.945106	-0.012138
H158	H	2.131932	-0.961310	0.240728
H159	H	1.991479	-0.955269	0.230778
O160	O	2.407254	0.114972	0.396258
C161	C	2.233886	0.115719	0.408890
C162	C	2.313418	0.163705	0.402163
H163	H	2.157993	0.155102	0.413638
H164	H	2.271653	0.069936	0.498356
H165	H	2.213109	0.086595	0.319555
H166	H	2.334225	0.192879	0.491433
H167	H	2.275609	0.209444	0.312640
O168	O	2.306048	-0.092026	0.741982
C169	C	2.185501	-0.154685	0.602294
C170	C	2.302265	-0.158460	0.682456
H171	H	2.182402	-0.208397	0.554168
H172	H	2.151896	-0.101255	0.525521
H173	H	2.135749	-0.151626	0.667933
H174	H	2.352103	-0.161547	0.616920
H175	H	2.335785	-0.211882	0.759241
H176	H	2.500244	0.345316	0.385306
H177	H	2.127188	-0.890991	0.594961
H178	H	2.038654	-0.490476	0.597950
H179	H	2.369131	0.266111	0.396307
O180	O	2.009831	-0.341674	0.617492
C181	C	2.068251	-0.371654	0.848431
C182	C	2.046600	-0.403418	0.719966
H183	H	2.098004	-0.421559	0.931316
H184	H	1.991254	-0.331990	0.849740
H185	H	2.131599	-0.337892	0.859340
H186	H	1.983288	-0.437216	0.708974
H187	H	2.123646	-0.443041	0.718715
