data_functionalizedCrystal
_audit_creation_method	'MofGen! by Chris Wilmer'
_symmetry_space_group_name_H-M	'P1'
_symmetry_Int_Tables_number	1
_symmetry_cell_setting	triclinic
loop_
_symmetry_equiv_pos_as_xyz
  x,y,z
_cell_length_a	16.109301
_cell_length_b	23.532407
_cell_length_c	15.186229
_cell_angle_alpha	89.991614
_cell_angle_beta	89.999362
_cell_angle_gamma	83.155079
loop_
_atom_site_label
_atom_site_type_symbol
_atom_site_fract_x
_atom_site_fract_y
_atom_site_fract_z
O1	O	1.102555	0.073202	-0.073182
O2	O	0.860421	0.082312	-0.073197
O3	O	0.988790	-0.005148	-0.073173
O4	O	0.974187	0.160662	-0.073206
O5	O	0.988781	-0.005149	0.073284
O6	O	0.860413	0.082311	0.073260
O7	O	1.102547	0.073201	0.073275
Zn8	Zn	0.981478	0.077755	0.096521
Zn9	Zn	0.981490	0.077757	-0.096443
O10	O	0.974178	0.160660	0.073251
C11	C	0.829445	0.081942	0.000030
C12	C	0.737159	0.080836	0.000025
C13	C	0.514498	0.130160	0.000025
C14	C	0.427786	0.129116	0.000031
C15	C	0.448476	0.025348	0.000048
C16	C	0.535187	0.026393	0.000048
C17	C	0.568195	0.078801	0.000032
C18	C	0.394773	0.076712	0.000038
C19	C	0.300755	0.075580	0.000044
C20	C	0.662218	0.079933	0.000028
C21	C	0.988414	-0.026366	0.000058
C22	C	0.987296	-0.089587	0.000064
C23	C	1.056249	-0.488436	0.000021
C24	C	1.055210	-0.547840	0.000014
O25	O	1.119130	-0.584349	-0.000015
N26	N	0.978895	-0.570748	0.000010
C27	C	0.903614	-0.534248	0.000003
O28	O	0.838607	-0.559187	-0.000002
C29	C	0.904654	-0.474845	0.000004
C30	C	0.980973	-0.451941	0.000017
C31	C	1.132562	-0.465531	0.000033
C32	C	1.133601	-0.406131	0.000041
C33	C	1.058325	-0.369636	0.000037
C34	C	0.982012	-0.392541	0.000025
C35	C	0.829373	-0.438346	-0.000009
C36	C	0.830419	-0.378940	-0.000009
C37	C	0.906739	-0.356036	0.000004
C38	C	0.907774	-0.296645	0.000030
N39	N	0.984089	-0.273738	0.000034
C40	C	1.059365	-0.310233	0.000038
C41	C	0.901437	-0.658998	0.000001
C42	C	0.900396	-0.718400	0.000007
C43	C	1.051993	-0.731988	0.000016
C44	C	1.053032	-0.672585	0.000016
C45	C	0.977752	-0.636091	0.000005
C46	C	1.061539	-0.185488	0.000056
C47	C	1.062571	-0.126082	0.000068
C48	C	0.910975	-0.112499	0.000055
C49	C	0.909943	-0.171900	0.000047
C50	C	0.985232	-0.208394	0.000045
O51	O	0.843888	-0.260102	0.000055
O52	O	1.124361	-0.285285	0.000031
C53	C	1.133523	0.073570	0.000046
C54	C	1.225809	0.074677	0.000046
C55	C	0.974554	0.181878	0.000018
C56	C	0.975672	0.245100	0.000006
N57	N	0.981477	0.077754	0.228214
N58	N	0.981498	0.077754	-0.228136
C59	C	1.038337	0.039040	0.453947
C60	C	1.038340	0.039039	0.546137
C61	C	0.924631	0.116470	0.546124
C62	C	0.924625	0.116468	0.453936
C63	C	0.981483	0.077754	0.407850
C64	C	0.981492	0.077754	0.592228
C65	C	0.981494	0.077753	0.692184
C66	C	0.981480	0.077754	0.307888
H67	H	0.421590	-0.017320	0.000066
O68	O	0.869324	0.154098	0.590758
C69	C	0.819153	0.188276	0.530300
H70	H	0.818405	0.164925	0.464591
H71	H	0.845792	0.230589	0.520481
C72	C	0.730289	0.228674	0.646986
C73	C	0.729366	0.199992	0.566284
H74	H	0.674906	0.235904	0.669184
H75	H	0.764092	0.205650	0.687719
H76	H	0.752493	0.263932	0.638793
H77	H	0.707172	0.164732	0.574480
H78	H	0.695557	0.223011	0.525553
O79	O	0.755162	-0.460491	-0.000065
C80	C	0.688956	-0.415531	-0.000052
H81	H	0.711936	-0.375179	-0.027769
H82	H	0.665750	-0.407129	0.070208
C83	C	0.588718	-0.481836	-0.023461
C84	C	0.616940	-0.432277	-0.057511
H85	H	0.544294	-0.492166	-0.058901
H86	H	0.633321	-0.512127	-0.023466
H87	H	0.569386	-0.474828	0.035088
H88	H	0.636282	-0.439287	-0.116054
H89	H	0.572339	-0.401987	-0.057517
H90	H	1.195748	-0.387488	0.000048
H91	H	1.115179	-0.653941	0.000026
H92	H	0.578910	-0.015433	0.000057
O93	O	0.757311	-0.343466	-0.000173
C94	C	0.753390	-0.308678	-0.076010
H95	H	0.796097	-0.330427	-0.129023
H96	H	0.774535	-0.265484	-0.058853
C97	C	0.610401	-0.272933	-0.045303
C98	C	0.662849	-0.299648	-0.110418
H99	H	0.554550	-0.267361	-0.066526
H100	H	0.613043	-0.296369	0.005791
H101	H	0.628031	-0.236942	-0.031012
H102	H	0.645224	-0.335642	-0.124700
H103	H	0.660202	-0.276218	-0.161516
H104	H	1.124722	-0.107437	0.000081
O105	O	0.837932	-0.076961	0.000011
C106	C	0.855224	-0.019621	0.000038
H107	H	0.920513	-0.017352	-0.027677
H108	H	0.851918	-0.002449	0.070302
C109	C	0.710194	0.013963	-0.023367
C110	C	0.790381	0.016751	-0.057414
H111	H	0.670195	0.036401	-0.058803
H112	H	0.698543	-0.024667	-0.023382
H113	H	0.707451	0.028273	0.035185
H114	H	0.793125	0.002435	-0.115961
H115	H	0.802031	0.055381	-0.057410
O116	O	1.093593	0.001376	0.409315
C117	C	1.143787	-0.032785	0.469775
H118	H	1.109710	-0.033432	0.535492
H119	H	1.205395	-0.014282	0.479569
C120	C	1.203281	-0.093426	0.353098
C121	C	1.161424	-0.094224	0.433811
H122	H	1.214164	-0.131324	0.330914
H123	H	1.169467	-0.070410	0.312364
H124	H	1.254616	-0.078004	0.361271
H125	H	1.110086	-0.109639	0.425635
H126	H	1.195230	-0.117244	0.474543
O127	O	1.134620	-0.220990	0.000175
C128	C	1.138564	-0.255757	0.076036
H129	H	1.072598	-0.258768	0.101314
H130	H	1.176356	-0.236218	0.129157
C131	C	1.261951	-0.312365	0.021949
C132	C	1.180930	-0.316066	0.052991
H133	H	1.288087	-0.349566	0.007737
H134	H	1.259296	-0.288940	-0.029158
H135	H	1.293434	-0.296080	0.066222
H136	H	1.149446	-0.332344	0.008715
H137	H	1.183581	-0.339495	0.104091
H138	H	1.084635	0.007514	0.583666
O139	O	1.205768	-0.500896	0.000078
C140	C	1.273336	-0.467929	0.000065
H141	H	1.251838	-0.423596	0.027786
H142	H	1.296761	-0.463694	-0.070194
C143	C	1.370946	-0.551977	0.023468
C144	C	1.344543	-0.497527	0.057522
H145	H	1.414871	-0.570235	0.058907
H146	H	1.325424	-0.574188	0.023474
H147	H	1.390461	-0.548440	-0.035081
H148	H	1.325018	-0.501065	0.116065
H149	H	1.390062	-0.475317	0.057528
H150	H	0.878323	0.147994	0.416402
H151	H	1.113286	-0.761714	0.000015
H152	H	0.838249	-0.737043	0.000011
H153	H	0.541371	0.172834	0.000019
H154	H	0.384069	0.170939	0.000027
O155	O	0.828227	-0.623630	0.000042
C156	C	0.760655	-0.656594	0.000017
H157	H	0.782144	-0.700932	0.027742
H158	H	0.737241	-0.660816	-0.070247
C159	C	0.663050	-0.572546	0.023399
C160	C	0.689441	-0.627002	0.057459
H161	H	0.619120	-0.554291	0.058828
H162	H	0.708574	-0.550337	0.023412
H163	H	0.643544	-0.576072	-0.035154
H164	H	0.708957	-0.623474	0.116006
H165	H	0.643919	-0.649209	0.057456
H166	H	0.847797	-0.190549	0.000061
