data_functionalizedCrystal
_audit_creation_method	'MofGen! by Chris Wilmer'
_symmetry_space_group_name_H-M	'P1'
_symmetry_Int_Tables_number	1
_symmetry_cell_setting	triclinic
loop_
_symmetry_equiv_pos_as_xyz
  x,y,z
_cell_length_a	6.817900
_cell_length_b	16.306198
_cell_length_c	16.305550
_cell_angle_alpha	95.373122
_cell_angle_beta	103.455250
_cell_angle_gamma	103.467075
loop_
_atom_site_label
_atom_site_type_symbol
_atom_site_fract_x
_atom_site_fract_y
_atom_site_fract_z
V1	V	-4.026246	-0.117432	-0.263332
O2	O	-4.013841	0.004910	-0.258012
O3	O	-3.977698	-0.232142	-0.261826
O4	O	-3.977652	-0.115947	-0.378045
O5	O	-4.013887	-0.112090	-0.140988
V6	V	-4.509919	-0.102760	-0.248662
O7	O	-4.287177	-0.149615	-0.295509
O8	O	-4.699185	-0.070577	-0.216485
O9	O	-4.335260	0.011951	-0.250168
O10	O	-4.639720	-0.225102	-0.253982
O11	O	-4.639675	-0.108102	-0.371006
O12	O	-4.335306	-0.104245	-0.133949
C13	C	-3.822669	-0.260096	-0.257748
C14	C	-3.864260	-0.353876	-0.257281
C15	C	-4.015214	-0.694623	-0.255576
C16	C	-4.219298	-0.664089	-0.260538
C17	C	-4.176361	-0.566600	-0.261349
C18	C	-3.940325	-0.525574	-0.256421
C19	C	-3.888744	-0.571230	-0.334676
C20	C	-3.933440	-0.668848	-0.334288
C21	C	-3.845294	-0.643281	-0.172946
C22	C	-3.805619	-0.545629	-0.172460
C23	C	-3.897991	-0.430035	-0.256902
C24	C	-4.057544	-0.790162	-0.255101
C25	C	-3.822610	-0.111876	-0.405996
C26	C	-3.864161	-0.111421	-0.499776
C27	C	-4.015248	-0.109658	-0.840517
C28	C	-3.779200	-0.104423	-0.799575
C29	C	-3.736007	-0.105246	-0.702082
C30	C	-3.940291	-0.110532	-0.671472
C31	C	-4.107324	-0.193848	-0.722311
C32	C	-4.149188	-0.193376	-0.819859
C33	C	-4.070003	-0.032243	-0.794476
C34	C	-4.022074	-0.031583	-0.696632
C35	C	-3.897941	-0.111029	-0.575935
C36	C	-4.057607	-0.109167	-0.936055
C37	C	-4.153632	0.039900	-0.254244
C38	C	-4.091278	0.133679	-0.254716
C39	C	-4.153691	-0.108318	-0.105994
C40	C	-4.091377	-0.108769	-0.012212
H41	H	-3.985083	-0.558145	-0.396811
H42	H	-4.113043	-0.251982	-0.850391
H43	H	-4.169362	-0.030547	-0.675281
H44	H	-3.734110	-0.160043	-0.831230
H45	H	-3.669581	-0.161507	-0.685933
C46	C	-3.858568	0.051671	-0.649981
H47	H	-3.908946	0.099197	-0.665466
H48	H	-3.834181	0.052787	-0.590057
H49	H	-3.731702	0.054396	-0.665653
H50	H	-4.052604	-0.703043	-0.396498
C51	C	-3.635802	-0.023124	-0.816077
H52	H	-3.718595	0.008354	-0.848088
H53	H	-3.555647	0.010952	-0.763109
H54	H	-3.544713	-0.038528	-0.847237
H55	H	-4.323024	-0.200683	-0.847870
H56	H	-3.784363	-0.689223	-0.334123
H57	H	-3.718146	-0.544677	-0.334048
H58	H	-4.260480	-0.200729	-0.703416
H59	H	-3.894788	-0.659834	-0.113088
C60	C	-4.309379	-0.686126	-0.184659
H61	H	-4.432462	-0.667168	-0.188840
H62	H	-4.342277	-0.746164	-0.185576
H63	H	-4.208977	-0.658631	-0.132742
H64	H	-4.242068	-0.035337	-0.821300
H65	H	-3.843968	-0.514879	-0.114526
C66	C	-3.565098	-0.024330	-0.654558
H67	H	-3.521494	0.009339	-0.694799
H68	H	-3.619220	0.007746	-0.617834
H69	H	-3.449103	-0.040161	-0.621734
C70	C	-3.639720	-0.669158	-0.166965
H71	H	-3.537646	-0.637918	-0.116914
H72	H	-3.663382	-0.728535	-0.164546
H73	H	-3.591296	-0.656974	-0.215750
C74	C	-4.319685	-0.550275	-0.342752
H75	H	-4.404393	-0.603268	-0.375459
H76	H	-4.406390	-0.516840	-0.327437
H77	H	-4.236676	-0.520656	-0.375595
C78	C	-3.570603	-0.506522	-0.160987
H79	H	-3.551473	-0.477327	-0.207462
H80	H	-3.514619	-0.467484	-0.109100
H81	H	-3.500727	-0.550640	-0.159341
C82	C	-4.032463	-0.273045	-0.699807
H83	H	-4.134614	-0.323148	-0.730892
H84	H	-3.904285	-0.270524	-0.714295
H85	H	-4.012338	-0.274327	-0.640346
C86	C	-4.237144	-0.524566	-0.185786
H87	H	-4.288375	-0.567056	-0.154319
H88	H	-4.117871	-0.483754	-0.149694
H89	H	-4.342722	-0.496970	-0.206729
C90	C	-4.390567	-0.712320	-0.341065
H91	H	-4.338237	-0.750981	-0.371676
H92	H	-4.508445	-0.743112	-0.324933
H93	H	-4.430650	-0.672615	-0.376276
C94	C	-3.946519	0.053038	-0.812308
H95	H	-3.860405	0.042225	-0.848002
H96	H	-4.041277	0.082548	-0.839985
H97	H	-3.861643	0.086946	-0.759931
