data_functionalizedCrystal
_audit_creation_method	'MofGen! by Chris Wilmer'
_symmetry_space_group_name_H-M	'P1'
_symmetry_Int_Tables_number	1
_symmetry_cell_setting	triclinic
loop_
_symmetry_equiv_pos_as_xyz
  x,y,z
_cell_length_a	18.101398
_cell_length_b	25.639239
_cell_length_c	18.101389
_cell_angle_alpha	89.979551
_cell_angle_beta	89.975673
_cell_angle_gamma	90.033952
loop_
_atom_site_label
_atom_site_type_symbol
_atom_site_fract_x
_atom_site_fract_y
_atom_site_fract_z
Zn1	Zn	1.132082	-0.208272	-0.418828
Zn2	Zn	1.632082	0.291728	0.081172
Zn3	Zn	1.131961	-0.295693	-0.294982
Zn4	Zn	1.631961	0.204307	0.205018
Zn5	Zn	1.008241	-0.208266	-0.294989
Zn6	Zn	1.508241	0.291734	0.205011
Zn7	Zn	1.008175	-0.295671	-0.418771
Zn8	Zn	1.508175	0.204329	0.081229
O9	O	1.070115	-0.251975	-0.356893
O10	O	1.570115	0.248025	0.143107
O11	O	1.235699	-0.219880	-0.402421
O12	O	1.735699	0.280120	0.097579
O13	O	1.115527	-0.284103	-0.191350
O14	O	1.615527	0.215897	0.308650
O15	O	1.024747	-0.135102	-0.311444
O16	O	1.524747	0.364898	0.188556
O17	O	1.235610	-0.284108	-0.311432
O18	O	1.735610	0.215892	0.188568
O19	O	1.115732	-0.135106	-0.402428
O20	O	1.615732	0.364894	0.097572
O21	O	1.024630	-0.219871	-0.191356
O22	O	1.524630	0.280129	0.308644
O23	O	0.904599	-0.219849	-0.311388
O24	O	1.404599	0.280151	0.188612
O25	O	1.024635	-0.284070	-0.522411
O26	O	1.524635	0.215930	-0.022411
O27	O	0.904551	-0.284065	-0.402330
O28	O	1.404551	0.215935	0.097670
O29	O	1.115668	-0.219858	-0.522454
O30	O	1.615668	0.280142	-0.022454
O31	O	1.115463	-0.368855	-0.311376
O32	O	1.615463	0.131145	0.188624
O33	O	1.024518	-0.368839	-0.402323
O34	O	1.524518	0.131161	0.097677
C35	C	0.877704	-0.251954	-0.356854
C36	C	1.377704	0.248046	0.143146
C37	C	0.795390	-0.251958	-0.356855
C38	C	1.295390	0.248042	0.143145
C39	C	0.496299	-0.251990	-0.356917
C40	C	0.996299	0.248010	0.143083
C41	C	0.527630	-0.211386	-0.299978
C42	C	1.027630	0.288614	0.200022
C43	C	0.613248	-0.211495	-0.299735
C44	C	1.113248	0.288505	0.200265
C45	C	0.644682	-0.251974	-0.356886
C46	C	1.144682	0.248026	0.143114
C47	C	0.613553	-0.307048	-0.335559
C48	C	1.113553	0.192952	0.164441
C49	C	0.527908	-0.306822	-0.335163
C50	C	1.027908	0.193178	0.164837
C51	C	0.527917	-0.238000	-0.435317
C52	C	1.027917	0.262000	0.064683
C53	C	0.613568	-0.236773	-0.434890
C54	C	1.113568	0.263227	0.065110
C55	C	0.728541	-0.251968	-0.356870
C56	C	1.228541	0.248032	0.143130
C57	C	0.412440	-0.252000	-0.356932
C58	C	0.912440	0.248000	0.143068
C59	C	1.069990	-0.387818	-0.356859
C60	C	1.569990	0.112182	0.143141
C61	C	1.070005	-0.445932	-0.356869
C62	C	1.570005	0.054068	0.143131
C63	C	1.117594	-0.806291	-0.309617
C64	C	1.617594	-0.306291	0.190383
C65	C	1.117622	-0.860895	-0.309627
C66	C	1.617622	-0.360895	0.190373
O67	O	1.157955	-0.889129	-0.269415
O68	O	1.657955	-0.389129	0.230585
N69	N	1.070245	-0.888214	-0.356942
N70	N	1.570245	-0.388214	0.143058
C71	C	1.022841	-0.860926	-0.404255
C72	C	1.522841	-0.360926	0.095745
O73	O	0.982546	-0.889177	-0.444501
O74	O	1.482546	-0.389177	0.055499
C75	C	1.022817	-0.806323	-0.404248
C76	C	1.522817	-0.306323	0.095752
C77	C	1.070192	-0.779007	-0.356925
C78	C	1.570192	-0.279007	0.143075
C79	C	1.164965	-0.778975	-0.262299
C80	C	1.664965	-0.278975	0.237701
C81	C	1.164936	-0.724374	-0.262288
C82	C	1.664936	-0.224374	0.237712
C83	C	1.117534	-0.697090	-0.309596
C84	C	1.617534	-0.197090	0.190404
C85	C	1.070162	-0.724406	-0.356914
C86	C	1.570162	-0.224406	0.143086
C87	C	0.975417	-0.779036	-0.451564
C88	C	1.475417	-0.279036	0.048436
C89	C	0.975397	-0.724429	-0.451554
C90	C	1.475397	-0.224429	0.048446
C91	C	1.022773	-0.697113	-0.404231
C92	C	1.522773	-0.197113	0.095769
C93	C	1.022731	-0.642522	-0.404212
C94	C	1.522731	-0.142522	0.095788
N95	N	1.070108	-0.615202	-0.356897
N96	N	1.570108	-0.115202	0.143103
C97	C	1.117509	-0.642487	-0.309589
C98	C	1.617509	-0.142487	0.190411
C99	C	1.022897	-0.975597	-0.404266
C100	C	1.522897	-0.475597	0.095734
C101	C	1.022917	-1.030199	-0.404270
C102	C	1.522917	-0.530199	0.095730
C103	C	1.117699	-1.030164	-0.309643
C104	C	1.617699	-0.530164	0.190357
C105	C	1.117675	-0.975561	-0.309636
C106	C	1.617675	-0.475561	0.190364
C107	C	1.070274	-0.948278	-0.356952
C108	C	1.570274	-0.448278	0.143048
C109	C	1.117443	-0.527822	-0.309570
C110	C	1.617443	-0.027822	0.190430
C111	C	1.117406	-0.473216	-0.309561
C112	C	1.617406	0.026784	0.190439
C113	C	1.022627	-0.473256	-0.404190
C114	C	1.522627	0.026744	0.095810
C115	C	1.022661	-0.527856	-0.404197
C116	C	1.522661	-0.027856	0.095803
C117	C	1.070074	-0.555138	-0.356884
C118	C	1.570074	-0.055138	0.143116
O119	O	0.982421	-0.614254	-0.444405
O120	O	1.482421	-0.114254	0.055595
O121	O	1.157804	-0.614229	-0.269357
O122	O	1.657804	-0.114229	0.230643
C123	C	1.263277	-0.251997	-0.356932
C124	C	1.763277	0.248003	0.143068
C125	C	1.345591	-0.252006	-0.356949
C126	C	1.845591	0.247994	0.143051
C127	C	1.070158	-0.251962	-0.550055
C128	C	1.570158	0.248038	-0.050055
C129	C	1.070176	-0.251957	-0.632369
C130	C	1.570176	0.248043	-0.132369
C131	C	1.070260	-0.115602	-0.356943
C132	C	1.570260	0.384398	0.143057
C133	C	1.070322	-0.057488	-0.356964
C134	C	1.570322	0.442512	0.143036
C135	C	1.070219	-0.251859	-0.931460
C136	C	1.570219	0.248141	-0.431460
C137	C	1.012746	-0.292130	-0.900108
C138	C	1.512746	0.207870	-0.400108
C139	C	1.012901	-0.292317	-0.814490
C140	C	1.512901	0.207683	-0.314490
C141	C	1.070197	-0.251907	-0.783077
C142	C	1.570197	0.248093	-0.283077
C143	C	1.148220	-0.266868	-0.814182
C144	C	1.648220	0.233132	-0.314182
C145	C	1.147899	-0.267132	-0.899827
C146	C	1.647899	0.232868	-0.399827
C147	C	1.050348	-0.196537	-0.899887
C148	C	1.550348	0.303463	-0.399887
C149	C	1.048612	-0.196856	-0.814236
C150	C	1.548612	0.303144	-0.314236
C151	C	1.070189	-0.251934	-0.699218
C152	C	1.570189	0.248066	-0.199218
C153	C	1.070232	-0.251833	-1.015320
C154	C	1.570232	0.248167	-0.515320
C155	C	1.070115	-0.251951	-0.164482
C156	C	1.570115	0.248049	0.335518
C157	C	1.070240	-0.251809	-0.082169
C158	C	1.570240	0.248191	0.417831
H159	H	0.633919	-0.196245	-0.450971
H160	H	1.133919	0.303755	0.049029
H161	H	1.192172	-0.239073	-0.920569
H162	H	1.692172	0.260927	-0.420569
C163	C	0.500543	-0.277949	-0.492632
C164	C	1.000543	0.222051	0.007368
H165	H	0.469993	-0.303033	-0.468938
H166	H	0.969993	0.196967	0.031062
H167	H	0.541723	-0.294958	-0.514470
H168	H	1.041723	0.205042	-0.014470
H169	H	0.473007	-0.260500	-0.529838
H170	H	0.973007	0.239500	-0.029838
C171	C	1.169524	-0.443171	-0.257508
C172	C	1.669524	0.056829	0.242492
H173	H	1.197764	-0.467244	-0.229341
H174	H	1.697764	0.032756	0.270659
H175	H	1.141208	-0.421900	-0.225205
H176	H	1.641208	0.078100	0.274795
H177	H	1.201767	-0.421840	-0.285870
H178	H	1.701767	0.078160	0.214130
C179	C	0.499902	-0.349031	-0.388808
C180	C	0.999902	0.150969	0.111192
H181	H	0.540870	-0.366248	-0.410734
H182	H	1.040870	0.133752	0.089266
H183	H	0.470796	-0.333217	-0.426278
H184	H	0.970796	0.166783	0.073722
H185	H	0.470774	-0.373663	-0.362519
H186	H	0.970774	0.126337	0.137481
H187	H	0.936799	-0.702218	-0.490086
H188	H	1.436799	-0.202218	0.009914
H189	H	0.984031	-0.451032	-0.442706
H190	H	1.484031	0.048968	0.057294
H191	H	1.156252	-0.953323	-0.271102
H192	H	1.656252	-0.453323	0.228898
C193	C	0.923314	-0.809075	-0.503628
C194	C	1.423314	-0.309075	-0.003628
H195	H	0.930109	-0.845504	-0.496864
H196	H	1.430109	-0.345504	0.003136
H197	H	0.934131	-0.800095	-0.553390
H198	H	1.434131	-0.300095	-0.053390
H199	H	0.873554	-0.800162	-0.492742
H200	H	1.373554	-0.300162	0.007258
H201	H	1.156299	-1.052389	-0.271125
H202	H	1.656299	-0.552389	0.228875
C203	C	0.970549	-0.557905	-0.456249
C204	C	1.470549	-0.057905	0.043751
H205	H	0.942317	-0.533833	-0.484424
H206	H	1.442317	-0.033833	0.015576
H207	H	0.938310	-0.579243	-0.427899
H208	H	1.438310	-0.079243	0.072101
H209	H	0.998880	-0.579170	-0.488554
H210	H	1.498880	-0.079170	0.011446
C211	C	1.217058	-0.694333	-0.210242
C212	C	1.717058	-0.194333	0.289758
H213	H	1.245294	-0.718409	-0.182078
H214	H	1.745294	-0.218409	0.317922
H215	H	1.188748	-0.673059	-0.177937
H216	H	1.688748	-0.173059	0.322063
H217	H	1.249303	-0.673005	-0.238607
H218	H	1.749303	-0.173005	0.261393
C219	C	0.934746	-0.279663	-0.786073
C220	C	1.434746	0.220337	-0.286073
H221	H	0.902613	-0.274365	-0.826872
H222	H	1.402613	0.225635	-0.326872
H223	H	0.936340	-0.248932	-0.756819
H224	H	1.436340	0.251068	-0.256819
H225	H	0.917060	-0.307894	-0.757008
H226	H	1.417060	0.192106	-0.257008
H227	H	0.984333	-1.052436	-0.442798
H228	H	1.484333	-0.552436	0.057202
C229	C	0.641691	-0.156325	-0.317790
C230	C	1.141691	0.343675	0.182210
H231	H	0.694174	-0.156318	-0.317668
H232	H	1.194174	0.343682	0.182332
H233	H	0.624109	-0.132486	-0.281683
H234	H	1.124109	0.367514	0.218317
H235	H	0.624340	-0.146137	-0.365167
H236	H	1.124340	0.353863	0.134833
C237	C	0.934348	-0.279612	-0.927910
C238	C	1.434348	0.220388	-0.427910
H239	H	0.935961	-0.249715	-0.958891
H240	H	1.435961	0.250285	-0.458891
H241	H	0.902962	-0.272935	-0.886922
H242	H	1.402962	0.227065	-0.386922
H243	H	0.915756	-0.308462	-0.955085
H244	H	1.415756	0.191538	-0.455085
C245	C	1.217101	-0.808982	-0.210247
C246	C	1.717101	-0.308982	0.289753
H247	H	1.210340	-0.845415	-0.217020
H248	H	1.710340	-0.345415	0.282980
H249	H	1.206277	-0.800047	-0.160483
H250	H	1.706277	-0.300047	0.339517
H251	H	1.266853	-0.799997	-0.221132
H252	H	1.766853	-0.299997	0.278868
C253	C	0.971052	-0.181609	-0.786764
C254	C	1.471052	0.318391	-0.286764
H255	H	0.951900	-0.208675	-0.756428
H256	H	1.451900	0.291325	-0.256428
H257	H	0.939316	-0.176495	-0.827913
H258	H	1.439316	0.323505	-0.327913
H259	H	0.974095	-0.150253	-0.758984
H260	H	1.474095	0.349747	-0.258984
H261	H	0.984292	-0.953386	-0.442794
H262	H	1.484292	-0.453386	0.057206
H263	H	1.025734	-0.332886	-0.921632
H264	H	1.525734	0.167114	-0.421632
C265	C	0.641059	-0.349015	-0.389821
C266	C	1.141059	0.150985	0.110179
H267	H	0.671848	-0.333284	-0.426050
H268	H	1.171848	0.166716	0.073950
H269	H	0.599942	-0.364991	-0.413298
H270	H	1.099942	0.135009	0.086702
H271	H	0.668373	-0.374657	-0.363590
H272	H	1.168373	0.125343	0.136410
C273	C	1.030616	-0.347713	-0.786812
C274	C	1.530616	0.152287	-0.286812
H275	H	1.037757	-0.370188	-0.827911
H276	H	1.537757	0.129812	-0.327911
H277	H	0.990707	-0.360229	-0.757671
H278	H	1.490707	0.139771	-0.257671
H279	H	1.074314	-0.346900	-0.757786
H280	H	1.574314	0.153100	-0.257786
C281	C	1.101076	-0.154174	-0.785412
C282	C	1.601076	0.345826	-0.285412
H283	H	1.086748	-0.121360	-0.805127
H284	H	1.586748	0.378640	-0.305127
H285	H	1.150195	-0.161868	-0.800324
H286	H	1.650195	0.338132	-0.300324
H287	H	1.098656	-0.152958	-0.733013
H288	H	1.598656	0.347042	-0.233013
H289	H	0.634966	-0.319119	-0.278864
H290	H	1.134966	0.180881	0.221136
C291	C	1.207625	-0.228494	-0.786696
C292	C	1.707625	0.271506	-0.286696
H293	H	1.185319	-0.202948	-0.755930
H294	H	1.685319	0.297052	-0.255930
H295	H	1.230237	-0.211885	-0.827822
H296	H	1.730237	0.288115	-0.327822
H297	H	1.243965	-0.246976	-0.759363
H298	H	1.743965	0.253024	-0.259363
H299	H	0.634968	-0.264193	-0.479587
H300	H	1.134968	0.235807	0.020413
H301	H	1.164746	-0.307573	-0.919809
H302	H	1.664746	0.192427	-0.419809
C303	C	1.169591	-0.557824	-0.257522
C304	C	1.669591	-0.057824	0.242478
H305	H	1.197790	-0.533728	-0.229338
H306	H	1.697790	-0.033728	0.270662
H307	H	1.201858	-0.579094	-0.285878
H308	H	1.701858	-0.079094	0.214122
H309	H	1.141286	-0.579152	-0.225225
H310	H	1.641286	-0.079152	0.274775
C311	C	1.171372	-0.320921	-0.785223
C312	C	1.671372	0.179079	-0.285223
H313	H	1.133601	-0.334443	-0.754186
H314	H	1.633601	0.165557	-0.254186
H315	H	1.215937	-0.317815	-0.757880
H316	H	1.715937	0.182185	-0.257880
H317	H	1.178846	-0.343858	-0.825746
H318	H	1.678846	0.156142	-0.325746
C319	C	0.499833	-0.156047	-0.317819
C320	C	0.999833	0.343953	0.182181
H321	H	0.468868	-0.157209	-0.360150
H322	H	0.968868	0.342791	0.139850
H323	H	0.540819	-0.133884	-0.327339
H324	H	1.040819	0.366116	0.172661
H325	H	0.472639	-0.142913	-0.276971
H326	H	0.972639	0.357087	0.223029
C327	C	0.974828	-0.178122	-0.929048
C328	C	1.474828	0.321878	-0.429048
H329	H	0.954708	-0.204005	-0.960752
H330	H	1.454708	0.295995	-0.460752
H331	H	0.980912	-0.146496	-0.955724
H332	H	1.480912	0.353504	-0.455724
H333	H	0.942266	-0.172517	-0.888654
H334	H	1.442266	0.327483	-0.388654
C335	C	1.106887	-0.156001	-0.927289
C336	C	1.606887	0.343999	-0.427289
H337	H	1.142432	-0.172681	-0.957823
H338	H	1.642432	0.327319	-0.457823
H339	H	1.130967	-0.140558	-0.886121
H340	H	1.630967	0.359442	-0.386121
H341	H	1.082139	-0.129760	-0.954849
H342	H	1.582139	0.370240	-0.454849
H343	H	0.633700	-0.220743	-0.241642
H344	H	1.133700	0.279257	0.258358
C345	C	0.498522	-0.223736	-0.221954
C346	C	0.998522	0.276264	0.278046
H347	H	0.467360	-0.253531	-0.223928
H348	H	0.967360	0.246469	0.276072
H349	H	0.471280	-0.194778	-0.203844
H350	H	0.971280	0.305222	0.296156
H351	H	0.538977	-0.230530	-0.189957
H352	H	1.038977	0.269470	0.310043
C353	C	0.498790	-0.184692	-0.461513
C354	C	0.998790	0.315308	0.038487
H355	H	0.467071	-0.170469	-0.424875
H356	H	0.967071	0.329531	0.075125
H357	H	0.472136	-0.189005	-0.506293
H358	H	0.972136	0.310995	-0.006293
H359	H	0.539198	-0.161711	-0.469513
H360	H	1.039198	0.338289	0.030487
H361	H	0.507894	-0.318688	-0.277849
H362	H	1.007894	0.181312	0.222151
