data_functionalizedCrystal
_audit_creation_method	'MofGen! by Chris Wilmer'
_symmetry_space_group_name_H-M	'P1'
_symmetry_Int_Tables_number	1
_symmetry_cell_setting	triclinic
loop_
_symmetry_equiv_pos_as_xyz
  x,y,z
_cell_length_a	14.519709
_cell_length_b	10.540539
_cell_length_c	13.596369
_cell_angle_alpha	89.996161
_cell_angle_beta	90.000291
_cell_angle_gamma	84.102818
loop_
_atom_site_label
_atom_site_type_symbol
_atom_site_fract_x
_atom_site_fract_y
_atom_site_fract_z
O1	O	1.224765	0.166400	-0.081658
O2	O	0.956394	0.185995	-0.081688
O3	O	1.096702	-0.008572	-0.081671
O4	O	1.084457	0.360966	-0.081675
O5	O	1.096688	-0.008582	0.081912
O6	O	0.956380	0.185985	0.081895
O7	O	1.224751	0.166389	0.081924
Zn8	Zn	1.090563	0.176185	0.107882
Zn9	Zn	1.090582	0.176199	-0.107646
O10	O	1.084442	0.360956	0.081908
C11	C	0.922022	0.185077	0.000100
C12	C	0.819626	0.182340	0.000088
C13	C	0.444676	0.172265	0.000133
C14	C	0.548999	0.175063	0.000120
C15	C	0.632148	0.177303	0.000110
C16	C	0.736477	0.180101	0.000099
C17	C	1.095777	-0.055870	0.000118
C18	C	1.093029	-0.196790	0.000113
C19	C	0.987750	-0.379142	-0.000266
C20	C	0.990535	-0.232553	0.000102
C21	C	1.142346	-0.258957	0.093532
C22	C	1.138848	-0.405466	0.093610
C23	C	1.140949	-0.405994	-0.092414
C24	C	1.141893	-0.259022	-0.093649
C25	C	1.259123	0.167308	0.000135
C26	C	1.361519	0.170044	0.000140
C27	C	1.085368	0.408255	0.000116
C28	C	1.088115	0.549175	0.000115
N29	N	1.090557	0.176175	0.254974
N30	N	1.090595	0.176199	-0.254737
C31	C	1.090580	0.176200	0.656265
C32	C	1.090571	0.176198	0.544613
C33	C	1.090569	0.176189	0.455623
C34	C	1.090559	0.176184	0.343964
H35	H	0.951729	-0.189549	-0.066865
H36	H	1.216619	-0.235563	-0.099282
H37	H	1.107782	-0.437204	-0.163219
H38	H	0.951446	-0.190402	0.067172
H39	H	1.214980	-0.453976	-0.093034
N40	N	0.936975	-0.414493	-0.084317
N41	N	0.974160	-0.492935	-0.144919
H42	H	0.938301	-0.517907	-0.204286
N43	N	0.937163	-0.416535	0.083294
N44	N	0.974707	-0.495748	0.143126
H45	H	0.938983	-0.522160	0.202142
H46	H	1.108076	-0.216013	0.163044
N47	N	1.093109	-0.440370	0.181207
N48	N	1.063987	-0.356566	0.241856
H49	H	1.031681	-0.381209	0.303724
N50	N	1.231320	-0.466576	0.098950
N51	N	1.298231	-0.400981	0.102614
H52	H	1.363539	-0.444134	0.106393
H53	H	1.105808	-0.217791	-0.162758
N54	N	1.236770	-0.231879	0.097890
N55	N	1.268846	-0.166302	0.032037
H56	H	1.335533	-0.147176	0.035112
