data_functionalizedCrystal
_audit_creation_method	'MofGen! by Chris Wilmer'
_symmetry_space_group_name_H-M	'P1'
_symmetry_Int_Tables_number	1
_symmetry_cell_setting	triclinic
loop_
_symmetry_equiv_pos_as_xyz
  x,y,z
_cell_length_a	14.185197
_cell_length_b	16.109301
_cell_length_c	15.625204
_cell_angle_alpha	83.865399
_cell_angle_beta	122.271375
_cell_angle_gamma	104.779278
loop_
_atom_site_label
_atom_site_type_symbol
_atom_site_fract_x
_atom_site_fract_y
_atom_site_fract_z
O1	O	0.044758	-1.094249	-0.106089
O2	O	0.039074	-0.853354	-0.121754
O3	O	0.093790	-0.969796	0.028667
O4	O	-0.009958	-0.977806	-0.256511
O5	O	-0.087482	-1.006398	-0.010987
O6	O	-0.142198	-0.889955	-0.161408
O7	O	-0.136515	-1.130850	-0.145744
Cu8	Cu	-0.155908	-1.013744	-0.157197
Cu9	Cu	0.058467	-0.970459	-0.110301
O10	O	-0.191231	-1.014407	-0.296165
C11	C	-0.051329	-0.840632	-0.140946
C12	C	-0.050630	-0.748193	-0.139042
C13	C	0.016432	-0.984831	0.045333
C14	C	0.055998	-0.975090	0.154069
N15	N	-0.306688	-1.044195	-0.190181
C16	C	-0.597971	-0.850606	0.019568
C17	C	-0.712087	-0.873660	-0.005410
C18	C	-0.755318	-0.983345	-0.124256
C19	C	-0.641203	-0.960303	-0.099285
C20	C	-0.562537	-0.893932	-0.027373
C21	C	-0.605769	-1.003629	-0.146225
C22	C	-0.491665	-0.980585	-0.121260
C23	C	-0.412994	-0.914215	-0.049353
C24	C	-0.448433	-0.870888	-0.002408
C25	C	-0.684438	-1.069995	-0.218142
C26	C	-0.649005	-1.113322	-0.265082
C27	C	-0.534897	-1.090282	-0.240112
C28	C	-0.456226	-1.023912	-0.168205
C29	C	-0.499458	-1.133609	-0.287058
C30	C	-0.385353	-1.110566	-0.262092
C31	C	-0.342122	-1.000869	-0.143240
N32	N	0.209250	-0.940015	-0.077309
C33	C	-0.046109	-1.143571	-0.126551
C34	C	-0.046801	-1.236009	-0.128454
C35	C	-0.081506	-0.532262	-0.223878
C36	C	-0.080859	-0.445409	-0.222084
C37	C	-0.015926	-0.451947	-0.043611
C38	C	-0.016581	-0.538800	-0.045408
C39	C	-0.049366	-0.578954	-0.135543
C40	C	-0.048065	-0.405248	-0.131952
C41	C	-0.047364	-0.311078	-0.130007
C42	C	-0.050069	-0.673130	-0.137490
C43	C	0.210566	-0.941409	0.328939
C44	C	0.173377	-0.950565	0.226762
C45	C	-0.024239	-0.990463	0.183532
C46	C	0.012934	-0.981306	0.285707
C47	C	0.130337	-0.956780	0.358403
C48	C	-0.067295	-0.996676	0.315171
C49	C	-0.030125	-0.987524	0.417338
C50	C	0.087274	-0.963002	0.490040
C51	C	0.167508	-0.947628	0.460570
C52	C	-0.184698	-1.021208	0.242474
C53	C	-0.264927	-1.036579	0.271938
C54	C	-0.227758	-1.027421	0.374105
C55	C	-0.110359	-1.002899	0.446808
C56	C	-0.307991	-1.042795	0.403575
C57	C	-0.270821	-1.033643	0.505742
C58	C	-0.073188	-0.993746	0.548974
C59	C	-0.113868	-0.999373	0.687171
C60	C	-0.153417	-1.009117	0.578438
H61	H	-0.278065	-0.946827	-0.084678
F62	F	-0.149185	-1.016567	0.106155
H63	H	-0.336152	-1.046158	0.529730
H64	H	-0.214958	-1.028662	0.159285
F65	F	-0.514233	-0.779986	0.096131
F66	F	-0.583195	-1.204234	-0.363601
H67	H	-0.356505	-1.145844	-0.300320
H68	H	0.117536	-0.955553	0.573230
F69	F	0.292462	-0.921511	0.537943
H70	H	-0.320086	-0.895450	-0.029032
H71	H	-0.107033	-0.407396	-0.294016
F72	F	-0.116403	-0.574995	-0.319809
H73	H	-0.819383	-1.037383	-0.182809
F74	F	0.018969	-0.409203	0.052313
F75	F	0.017622	-0.588497	0.048614
H76	H	0.022413	-0.973760	0.608167
F77	F	-0.364695	-0.800269	0.074156
H78	H	-0.740930	-0.838371	0.032818
F79	F	0.335521	-0.915292	0.406313
H80	H	-0.777348	-1.088755	-0.238468
F81	F	0.258778	-0.934206	0.195411
F82	F	-0.732738	-1.183952	-0.341619
H83	H	-0.360518	-1.056552	0.212736
H84	H	-0.403581	-1.062773	0.344373
