data_functionalizedCrystal
_audit_creation_method	'MofGen! by Chris Wilmer'
_symmetry_space_group_name_H-M	'P1'
_symmetry_Int_Tables_number	1
_symmetry_cell_setting	triclinic
loop_
_symmetry_equiv_pos_as_xyz
  x,y,z
_cell_length_a	18.050591
_cell_length_b	18.050589
_cell_length_c	18.050591
_cell_angle_alpha	90.013707
_cell_angle_beta	90.014855
_cell_angle_gamma	90.024227
loop_
_atom_site_label
_atom_site_type_symbol
_atom_site_fract_x
_atom_site_fract_y
_atom_site_fract_z
Zn1	Zn	1.135248	-0.295819	0.420054
Zn2	Zn	1.135172	-0.419992	0.295873
Zn3	Zn	1.011080	-0.295812	0.295865
Zn4	Zn	1.011015	-0.419963	0.420009
O5	O	1.073129	-0.357896	0.357950
O6	O	1.239162	-0.312306	0.403603
O7	O	1.118706	-0.403529	0.191948
O8	O	1.027611	-0.191888	0.312354
O9	O	1.239107	-0.403536	0.312368
O10	O	1.118836	-0.191893	0.403595
O11	O	1.027537	-0.312294	0.191941
O12	O	0.907147	-0.312266	0.312310
O13	O	1.027500	-0.403485	0.523939
O14	O	0.907099	-0.403479	0.403518
O15	O	1.118773	-0.312277	0.523972
O16	O	1.118643	-0.523913	0.312325
O17	O	1.027426	-0.523891	0.403526
C18	C	0.880177	-0.357869	0.357909
C19	C	0.797631	-0.357875	0.357909
C20	C	0.598185	-0.308216	0.308424
C21	C	0.548767	-0.375950	0.290154
C22	C	0.646501	-0.357897	0.357943
C23	C	0.548837	-0.290186	0.376212
C24	C	0.500516	-0.357913	0.357974
C25	C	0.598170	-0.425667	0.339636
C26	C	0.598244	-0.339858	0.425726
C27	C	0.548849	-0.407639	0.407481
C28	C	0.730599	-0.357887	0.357923
C29	C	0.416419	-0.357931	0.357994
C30	C	1.073039	-0.550849	0.357938
C31	C	1.073069	-0.633394	0.357957
C32	C	1.023514	-0.832860	0.407536
C33	C	1.005423	-0.882288	0.339766
C34	C	1.073142	-0.784525	0.357967
C35	C	1.091269	-0.882179	0.425744
C36	C	1.073211	-0.930510	0.357982
C37	C	1.055015	-0.832865	0.290162
C38	C	1.140893	-0.832752	0.376185
C39	C	1.122828	-0.882157	0.308369
C40	C	1.073100	-0.700426	0.357959
C41	C	1.073253	-1.014606	0.357983
C42	C	1.266834	-0.357925	0.357992
C43	C	1.349380	-0.357937	0.358010
C44	C	1.073137	-0.357879	0.551656
C45	C	1.073141	-0.357871	0.634201
C46	C	1.073239	-0.164191	0.357979
C47	C	1.073286	-0.081645	0.357991
C48	C	1.122781	-0.308285	0.883045
C49	C	1.140911	-0.376037	0.833638
C50	C	1.073140	-0.357899	0.931322
C51	C	1.055046	-0.290137	0.833647
C52	C	1.073143	-0.357882	0.785337
C53	C	1.091305	-0.425687	0.883002
C54	C	1.005409	-0.339741	0.883016
C55	C	1.023513	-0.407540	0.833631
C56	C	1.073141	-0.357907	1.015420
C57	C	1.073142	-0.357880	0.701240
C58	C	1.073122	-0.357924	1.164998
C59	C	1.073140	-0.357910	1.082452
H60	H	0.619750	-0.482953	0.324134
H61	H	0.948160	-0.904062	0.324371
C62	C	1.112081	-0.503111	0.912161
H63	H	1.111981	-0.502637	0.964791
H64	H	1.077044	-0.538378	0.894848
H65	H	1.160051	-0.516075	0.894843
H66	H	0.527323	-0.449709	0.449370
H67	H	0.527035	-0.391220	0.232844
C68	C	1.111948	-0.911441	0.503165
H69	H	1.076614	-0.894552	0.538314
H70	H	1.112270	-0.964061	0.502509
H71	H	1.159715	-0.893744	0.516440
H72	H	1.164792	-0.266387	0.904741
H73	H	1.198191	-0.391391	0.811946
C74	C	1.179564	-0.911224	0.251692
H75	H	1.215867	-0.940154	0.276480
H76	H	1.154942	-0.940892	0.215851
H77	H	1.202895	-0.870553	0.227786
H78	H	0.948145	-0.324365	0.904722
C79	C	0.966807	-0.464271	0.804497
H80	H	0.979783	-0.512357	0.821488
H81	H	0.918836	-0.451790	0.822151
H82	H	0.966831	-0.463676	0.751871
H83	H	0.527127	-0.232925	0.391625
C84	C	0.627633	-0.319203	0.503121
H85	H	0.610773	-0.271047	0.516018
H86	H	0.610007	-0.354008	0.538434
H87	H	0.680257	-0.319792	0.502651
C88	C	1.034362	-0.212734	0.804364
H89	H	1.069681	-0.177553	0.821295
H90	H	1.034066	-0.213388	0.751743
H91	H	0.986584	-0.199503	0.822006
H92	H	0.981483	-0.811214	0.449395
H93	H	1.039645	-0.811293	0.232834
C94	C	0.627458	-0.251523	0.251797
H95	H	0.610515	-0.264470	0.203669
H96	H	0.609842	-0.203538	0.264291
H97	H	0.680083	-0.251599	0.252487
C98	C	1.218245	-0.803361	0.397012
H99	H	1.231032	-0.820223	0.445199
H100	H	1.253628	-0.820992	0.362287
H101	H	1.217793	-0.750737	0.396412
