data_functionalizedCrystal
_audit_creation_method	'MofGen! by Chris Wilmer'
_symmetry_space_group_name_H-M	'P1'
_symmetry_Int_Tables_number	1
_symmetry_cell_setting	triclinic
loop_
_symmetry_equiv_pos_as_xyz
  x,y,z
_cell_length_a	19.805407
_cell_length_b	21.295417
_cell_length_c	19.805399
_cell_angle_alpha	89.968796
_cell_angle_beta	89.984884
_cell_angle_gamma	90.027018
loop_
_atom_site_label
_atom_site_type_symbol
_atom_site_fract_x
_atom_site_fract_y
_atom_site_fract_z
Zn1	Zn	1.034702	-0.250660	-0.382677
Zn2	Zn	1.534702	0.249340	0.117323
Zn3	Zn	1.034616	-0.355931	-0.269485
Zn4	Zn	1.534616	0.144069	0.230515
Zn5	Zn	0.921522	-0.250675	-0.269505
Zn6	Zn	1.421522	0.249325	0.230495
Zn7	Zn	0.921474	-0.355890	-0.382635
Zn8	Zn	1.421474	0.144110	0.117365
O9	O	0.978079	-0.303289	-0.326075
O10	O	1.478079	0.196711	0.173925
O11	O	1.129407	-0.264635	-0.367671
O12	O	1.629407	0.235365	0.132329
O13	O	1.019598	-0.341992	-0.174771
O14	O	1.519598	0.158008	0.325229
O15	O	0.936592	-0.162584	-0.284544
O16	O	1.436592	0.337416	0.215456
O17	O	1.129344	-0.341978	-0.284509
O18	O	1.629344	0.158022	0.215491
O19	O	1.019745	-0.162573	-0.367691
O20	O	1.519745	0.337427	0.132309
O21	O	0.936508	-0.264661	-0.174786
O22	O	1.436508	0.235339	0.325214
O23	O	0.826799	-0.264621	-0.284503
O24	O	1.326799	0.235379	0.215497
O25	O	0.936510	-0.341908	-0.477357
O26	O	1.436510	0.158092	0.022643
O27	O	0.826764	-0.341923	-0.367619
O28	O	1.326764	0.158077	0.132381
O29	O	1.019698	-0.264596	-0.477388
O30	O	1.519698	0.235404	0.022612
O31	O	1.019551	-0.444015	-0.284468
O32	O	1.519551	0.055985	0.215532
O33	O	0.936426	-0.443985	-0.367599
O34	O	1.436426	0.056015	0.132401
C35	C	0.802223	-0.303270	-0.326059
C36	C	1.302223	0.196730	0.173941
C37	C	0.726991	-0.303276	-0.326068
C38	C	1.226991	0.196724	0.173932
C39	C	0.691680	-0.263075	-0.369436
C40	C	1.191680	0.236925	0.130564
C41	C	0.620992	-0.263079	-0.369439
C42	C	1.120992	0.236921	0.130561
C43	C	0.585615	-0.303287	-0.326076
C44	C	1.085615	0.196713	0.173924
C45	C	0.620930	-0.343489	-0.282703
C46	C	1.120930	0.156511	0.217297
C47	C	0.691618	-0.343482	-0.282698
C48	C	1.191618	0.156518	0.217302
C49	C	0.335857	-0.343518	-0.282724
C50	C	0.835857	0.156482	0.217276
C51	C	0.265165	-0.343523	-0.282734
C52	C	0.765165	0.156477	0.217266
C53	C	0.265231	-0.263114	-0.369465
C54	C	0.765231	0.236886	0.130535
C55	C	0.335918	-0.263107	-0.369460
C56	C	0.835918	0.236893	0.130540
C57	C	0.371228	-0.303307	-0.326084
C58	C	0.871228	0.196693	0.173916
C59	C	0.447876	-0.303302	-0.326081
C60	C	0.947876	0.196698	0.173919
C61	C	0.508968	-0.303295	-0.326082
C62	C	1.008968	0.196705	0.173918
C63	C	0.977992	-0.466841	-0.326041
C64	C	1.477992	0.033159	0.173959
C65	C	0.978017	-0.536809	-0.326049
C66	C	1.478017	-0.036809	0.173951
C67	C	1.021290	-0.569613	-0.369375
C68	C	1.521290	-0.069613	0.130625
C69	C	1.021314	-0.635355	-0.369391
C70	C	1.521314	-0.135355	0.130609
C71	C	0.978072	-0.668292	-0.326071
C72	C	1.478072	-0.168292	0.173929
C73	C	0.934791	-0.635480	-0.282742
C74	C	1.434791	-0.135480	0.217258
C75	C	0.934763	-0.569739	-0.282731
C76	C	1.434763	-0.069739	0.217269
N77	N	0.972964	-0.771554	-0.266835
N78	N	1.472964	-0.271554	0.233165
N79	N	0.972994	-0.834005	-0.266847
N80	N	1.472994	-0.334005	0.233153
C81	C	0.978151	-0.866366	-0.326101
C82	C	1.478151	-0.366366	0.173899
N83	N	0.983291	-0.833916	-0.385344
N84	N	1.483291	-0.333916	0.114656
N85	N	0.983264	-0.771459	-0.385331
N86	N	1.483264	-0.271459	0.114669
C87	C	0.978097	-0.739577	-0.326078
C88	C	1.478097	-0.239577	0.173922
C89	C	1.021452	-0.970455	-0.369448
C90	C	1.521452	-0.470455	0.130552
C91	C	1.021471	-1.036199	-0.369466
C92	C	1.521471	-0.536199	0.130534
C93	C	0.934952	-1.036323	-0.282811
C94	C	1.434952	-0.536323	0.217189
C95	C	0.934929	-0.970580	-0.282799
C96	C	1.434929	-0.470580	0.217201
C97	C	0.978183	-0.937650	-0.326117
C98	C	1.478183	-0.437650	0.173883
C99	C	1.154621	-0.303310	-0.326092
C100	C	1.654621	0.196690	0.173908
C101	C	1.229853	-0.303318	-0.326100
C102	C	1.729853	0.196682	0.173900
C103	C	0.978108	-0.303246	-0.502618
C104	C	1.478108	0.196754	-0.002618
C105	C	0.978121	-0.303227	-0.577850
C106	C	1.478121	0.196773	-0.077850
C107	C	0.978184	-0.139099	-0.326125
C108	C	1.478184	0.360901	0.173875
C109	C	0.978228	-0.069131	-0.326146
C110	C	1.478228	0.430869	0.173854
C111	C	0.934869	-0.262957	-0.613202
C112	C	1.434869	0.237043	-0.113202
C113	C	0.934878	-0.262945	-0.683890
C114	C	1.434878	0.237055	-0.183890
C115	C	0.978143	-0.303200	-0.719226
C116	C	1.478143	0.196800	-0.219226
C117	C	1.021398	-0.343474	-0.683869
C118	C	1.521398	0.156526	-0.183869
C119	C	1.021384	-0.343489	-0.613182
C120	C	1.521384	0.156511	-0.113182
C121	C	1.021451	-0.343416	-0.968943
C122	C	1.521451	0.156584	-0.468943
C123	C	1.021463	-0.343396	-1.039635
C124	C	1.521463	0.156604	-0.539635
C125	C	0.934945	-0.262871	-1.039651
C126	C	1.434945	0.237129	-0.539651
C127	C	0.934932	-0.262886	-0.968964
C128	C	1.434932	0.237114	-0.468964
C129	C	0.978183	-0.303162	-0.933613
C130	C	1.478183	0.196838	-0.433613
C131	C	0.978171	-0.303176	-0.856965
C132	C	1.478171	0.196824	-0.356965
C133	C	0.978159	-0.303183	-0.795873
C134	C	1.478159	0.196817	-0.295873
C135	C	0.978088	-0.303287	-0.150220
C136	C	1.478088	0.196713	0.349780
C137	C	0.978206	-0.303129	-0.074988
C138	C	1.478206	0.196871	0.425012
H139	H	0.592245	-0.230344	-0.404755
H140	H	1.092245	0.269656	0.095245
N141	N	0.374075	-0.219744	-0.416233
N142	N	0.874075	0.280256	0.083767
H143	H	0.340979	-0.194276	-0.443707
H144	H	0.840979	0.305724	0.056293
H145	H	0.403406	-0.190577	-0.388736
H146	H	0.903406	0.309423	0.111264
H147	H	1.056670	-0.943643	-0.404723
H148	H	1.556670	-0.443643	0.095277
H149	H	1.056508	-0.542803	-0.404648
H150	H	1.556508	-0.042803	0.095352
H151	H	0.720479	-0.230335	-0.404749
H152	H	1.220479	0.269665	0.095251
H153	H	0.899695	-0.943869	-0.247516
H154	H	1.399695	-0.443869	0.252484
N155	N	1.067989	-0.670747	-0.416122
N156	N	1.567989	-0.170747	0.083878
H157	H	1.095385	-0.639911	-0.443562
H158	H	1.595385	-0.139911	0.056438
H159	H	1.099337	-0.698015	-0.388597
H160	H	1.599337	-0.198015	0.111403
H161	H	0.236474	-0.230379	-0.404781
H162	H	0.736474	0.269621	0.095219
N163	N	1.068121	-1.071584	-0.416224
N164	N	1.568121	-0.571584	0.083776
H165	H	1.095510	-1.040745	-0.443668
H166	H	1.595510	-0.540745	0.056332
H167	H	1.099477	-1.098867	-0.388726
H168	H	1.599477	-0.598867	0.111274
H169	H	1.056622	-0.376254	-0.712645
H170	H	1.556622	0.123746	-0.212645
H171	H	0.899739	-1.063139	-0.247542
H172	H	1.399739	-0.563139	0.252458
H173	H	0.899581	-0.662301	-0.247471
H174	H	1.399581	-0.162301	0.252529
N175	N	1.068124	-0.386818	-1.077754
N176	N	1.568124	0.113182	-0.577754
H177	H	1.116491	-0.377057	-1.065461
H178	H	1.616491	0.122943	-0.565461
H179	H	1.057518	-0.431780	-1.065427
H180	H	1.557518	0.068220	-0.565427
H181	H	0.899525	-0.543029	-0.247450
H182	H	1.399525	-0.043029	0.252550
N183	N	1.068037	-0.386919	-0.575047
N184	N	1.568037	0.113081	-0.075047
H185	H	1.040504	-0.416093	-0.545708
H186	H	1.540504	0.083907	-0.045708
H187	H	1.095441	-0.412377	-0.608197
H188	H	1.595441	0.087623	-0.108197
N189	N	0.888210	-0.219532	-0.575092
N190	N	1.388210	0.280468	-0.075092
H191	H	0.860811	-0.194019	-0.608216
H192	H	1.360811	0.305981	-0.108216
H193	H	0.856863	-0.245155	-0.545750
H194	H	1.356863	0.254845	-0.045750
H195	H	0.899655	-0.230155	-0.712670
H196	H	1.399655	0.269845	-0.212670
H197	H	0.236363	-0.376266	-0.247420
H198	H	0.736363	0.123734	0.252580
N199	N	0.888276	-0.219460	-0.930852
N200	N	1.388276	0.280540	-0.430852
H201	H	0.860877	-0.193945	-0.963974
H202	H	1.360877	0.306055	-0.463974
H203	H	0.856930	-0.245082	-0.901509
H204	H	1.356930	0.254918	-0.401509
H205	H	0.899725	-0.230077	-1.068442
H206	H	1.399725	0.269923	-0.568442
H207	H	1.056662	-0.376218	-0.940169
H208	H	1.556662	0.123782	-0.440169
H209	H	0.364597	-0.376252	-0.247406
H210	H	0.864597	0.123748	0.252594
H211	H	0.720366	-0.376218	-0.247382
H212	H	1.220366	0.123782	0.252618
N213	N	0.582778	-0.386851	-0.235925
N214	N	1.082778	0.113149	0.264075
H215	H	0.532640	-0.380757	-0.242509
H216	H	1.032640	0.119243	0.257491
H217	H	0.595119	-0.431821	-0.246366
H218	H	1.095119	0.068179	0.253634
