data_functionalizedCrystal
_audit_creation_method	'MofGen! by Chris Wilmer'
_symmetry_space_group_name_H-M	'P1'
_symmetry_Int_Tables_number	1
_symmetry_cell_setting	triclinic
loop_
_symmetry_equiv_pos_as_xyz
  x,y,z
_cell_length_a	9.065218
_cell_length_b	12.837942
_cell_length_c	8.140239
_cell_angle_alpha	89.996939
_cell_angle_beta	89.997198
_cell_angle_gamma	89.922413
loop_
_atom_site_label
_atom_site_type_symbol
_atom_site_fract_x
_atom_site_fract_y
_atom_site_fract_z
O1	O	1.978903	0.152196	-0.136617
O2	O	1.551136	0.164680	-0.136619
O3	O	1.755534	0.007446	-0.136608
O4	O	1.774505	0.309430	-0.136628
O5	O	1.755521	0.007444	0.136619
O6	O	1.551123	0.164678	0.136608
O7	O	1.978890	0.152194	0.136610
Zn8	Zn	1.765005	0.158436	0.179990
Zn9	Zn	1.765021	0.158439	-0.179999
O10	O	1.774492	0.309428	0.136599
C11	C	1.495997	0.163479	-0.000006
C12	C	1.331718	0.159892	-0.000007
C13	C	1.749119	-0.031235	0.000004
C14	C	1.730006	-0.146492	0.000002
C15	C	1.959783	-0.385293	-0.000031
C16	C	1.941831	-0.493587	-0.000034
C17	C	1.676152	-0.471377	-0.000019
C18	C	1.694104	-0.363083	-0.000016
C19	C	1.835924	-0.320045	-0.000020
C20	C	1.853874	-0.211748	-0.000005
C21	C	1.588196	-0.189540	-0.000001
C22	C	1.570245	-0.297835	-0.000004
C23	C	2.034029	0.153395	-0.000007
C24	C	2.198308	0.156983	-0.000017
C25	C	1.780907	0.348110	-0.000017
C26	C	1.800020	0.463366	-0.000025
N27	N	1.765004	0.158434	0.425672
N28	N	1.765033	0.158433	-0.425681
H29	H	1.969351	-0.176709	-0.000002
C30	C	2.115783	-0.337949	-0.000027
N31	N	2.233286	-0.302291	-0.000025
C32	C	1.520162	-0.518739	0.000002
N33	N	1.402669	-0.554413	0.000028
C34	C	1.451942	-0.117758	0.000013
N35	N	1.349319	-0.063690	0.000028
H36	H	1.454779	-0.332891	-0.000007
C37	C	2.078086	-0.565357	-0.000036
N38	N	2.180720	-0.619415	-0.000034
