data_functionalizedCrystal
_audit_creation_method	'MofGen! by Chris Wilmer'
_symmetry_space_group_name_H-M	'P1'
_symmetry_Int_Tables_number	1
_symmetry_cell_setting	triclinic
loop_
_symmetry_equiv_pos_as_xyz
  x,y,z
_cell_length_a	21.395362
_cell_length_b	19.077142
_cell_length_c	21.395355
_cell_angle_alpha	92.323124
_cell_angle_beta	89.979451
_cell_angle_gamma	92.274848
loop_
_atom_site_label
_atom_site_type_symbol
_atom_site_fract_x
_atom_site_fract_y
_atom_site_fract_z
Zn1	Zn	-0.288077	-1.075993	-0.392718
Zn2	Zn	-0.392833	-1.075885	-0.287933
Zn3	Zn	-0.283858	-0.958285	-0.283747
Zn4	Zn	-0.388601	-0.958253	-0.388468
O5	O	-0.338342	-1.017104	-0.338216
O6	O	-0.305510	-1.174470	-0.382349
O7	O	-0.378383	-1.060254	-0.199699
O8	O	-0.196742	-0.973958	-0.298229
O9	O	-0.382474	-1.174391	-0.305363
O10	O	-0.199842	-1.060438	-0.378289
O11	O	-0.298320	-0.973854	-0.196623
O12	O	-0.294216	-0.859790	-0.294108
O13	O	-0.375260	-0.973902	-0.476711
O14	O	-0.371170	-0.859766	-0.371046
O15	O	-0.301406	-1.060406	-0.479833
O16	O	-0.479948	-1.060222	-0.301242
O17	O	-0.476838	-0.973798	-0.375105
C18	C	-0.331776	-0.834240	-0.331662
C19	C	-0.328982	-0.756011	-0.328872
C20	C	-0.367796	-0.719264	-0.367556
C21	C	-0.365162	-0.645759	-0.364939
C22	C	-0.323718	-0.609001	-0.323633
C23	C	-0.284900	-0.645753	-0.284947
C24	C	-0.287531	-0.719257	-0.287569
C25	C	-0.311544	-0.389167	-0.311507
C26	C	-0.308917	-0.315658	-0.308888
C27	C	-0.389179	-0.315669	-0.388880
C28	C	-0.391809	-0.389174	-0.391495
C29	C	-0.352989	-0.425920	-0.352812
N30	N	-0.321026	-0.533867	-0.320955
N31	N	-0.355677	-0.501052	-0.355494
C32	C	-0.501127	-1.017014	-0.338181
C33	C	-0.570769	-1.017040	-0.338189
C34	C	-0.605038	-1.062044	-0.379904
C35	C	-0.670475	-1.062069	-0.379921
C36	C	-0.701639	-1.017097	-0.338211
C37	C	-0.667362	-0.972084	-0.296492
C38	C	-0.601927	-0.972056	-0.296482
C39	C	-0.805143	-1.011618	-0.281576
C40	C	-0.870577	-1.011652	-0.281586
C41	C	-0.903463	-1.017180	-0.338244
C42	C	-0.870907	-1.022691	-0.394894
C43	C	-0.805472	-1.022662	-0.394884
C44	C	-0.772593	-1.017122	-0.338218
C45	C	-1.008686	-1.062214	-0.379980
C46	C	-1.074123	-1.062233	-0.379997
C47	C	-1.071009	-0.972252	-0.296563
C48	C	-1.005573	-0.972229	-0.296552
C49	C	-0.974416	-1.017213	-0.338259
C50	C	-0.174923	-1.017214	-0.338266
C51	C	-0.105283	-1.017260	-0.338287
C52	C	-0.338332	-1.017163	-0.501642
C53	C	-0.338327	-1.017187	-0.571284
C54	C	-0.344932	-0.200682	-0.344790
C55	C	-0.347731	-0.278912	-0.347572
C56	C	-0.299870	-1.062228	-0.605624
C57	C	-0.299843	-1.062227	-0.671059
C58	C	-0.338285	-1.017193	-0.702153
C59	C	-0.376745	-0.972144	-0.667804
C60	C	-0.376766	-0.972141	-0.602370
C61	C	-0.394500	-1.011604	-0.805616
C62	C	-0.394480	-1.011612	-0.871050
C63	C	-0.338219	-1.017197	-0.903974
C64	C	-0.281977	-1.022790	-0.871457
C65	C	-0.281998	-1.022787	-0.806022
C66	C	-0.338266	-1.017191	-0.773105
C67	C	-0.299729	-1.062239	-1.009266
C68	C	-0.299700	-1.062233	-1.074703
C69	C	-0.376608	-0.972154	-1.071446
C70	C	-0.376631	-0.972156	-1.006011
C71	C	-0.338192	-1.017202	-0.974925
C72	C	-0.338309	-1.017086	-0.175428
C73	C	-0.338142	-1.017198	-0.105791
H74	H	-0.279939	-0.419077	-0.280004
N75	N	-0.707445	-1.110619	-0.424909
H76	H	-0.753626	-1.103812	-0.418585
H77	H	-0.695604	-1.099643	-0.469256
H78	H	-0.425558	-0.419097	-0.425129
N79	N	-0.264225	-0.276023	-0.264317
H80	H	-0.288566	-0.245511	-0.234146
H81	H	-0.240053	-0.310509	-0.240253
N82	N	-0.770356	-1.028600	-0.455979
H83	H	-0.801114	-1.032106	-0.491876
H84	H	-0.741703	-0.985699	-0.460220
H85	H	-0.396769	-0.615843	-0.396439
H86	H	-0.407951	-0.935483	-0.978051
H87	H	-0.251153	-0.615820	-0.251318
N88	N	-0.431047	-0.276037	-0.430601
H89	H	-0.423094	-0.223895	-0.422675
H90	H	-0.421822	-0.288918	-0.475825
N91	N	-0.258369	-1.110813	-0.708110
H92	H	-0.228297	-1.082235	-0.734230
H93	H	-0.234063	-1.139340	-0.678450
N94	N	-0.412502	-0.758903	-0.412105
H95	H	-0.402380	-0.746144	-0.456435
H96	H	-0.408262	-0.811031	-0.407843
H97	H	-1.102024	-1.098881	-0.413970
H98	H	-0.255922	-0.749175	-0.256071
N99	N	-0.906366	-1.028659	-0.456010
H100	H	-0.952758	-1.027838	-0.447424
H101	H	-0.893484	-0.987939	-0.482531
N102	N	-0.571434	-1.110552	-0.424896
H103	H	-0.524781	-1.103706	-0.418562
H104	H	-0.584638	-1.160829	-0.416984
H105	H	-0.983316	-1.098841	-0.413943
N106	N	-1.104613	-0.923740	-0.251580
H107	H	-1.151267	-0.930585	-0.257917
H108	H	-1.093584	-0.934713	-0.207231
N109	N	-0.968607	-0.923694	-0.251554
H110	H	-0.998277	-0.895209	-0.225131
H111	H	-0.942478	-0.952352	-0.223604
N112	N	-0.455138	-1.005579	-0.906116
H113	H	-0.446589	-1.006433	-0.952564
H114	H	-0.484616	-1.046258	-0.896144
H115	H	-0.897080	-1.007169	-0.235458
N116	N	-0.221343	-1.028820	-0.770950
H117	H	-0.185696	-1.032361	-0.801731
H118	H	-0.213994	-0.985941	-0.742252
N119	N	-0.769676	-1.005647	-0.220463
H120	H	-0.800228	-1.002166	-0.184578
H121	H	-0.744031	-1.048521	-0.216208
H122	H	-0.408082	-0.935460	-0.574410
N123	N	-0.700971	-0.923579	-0.251504
H124	H	-0.747624	-0.930428	-0.257838
H125	H	-0.689937	-0.934555	-0.207157
H126	H	-0.574024	-0.935407	-0.262511
N127	N	-0.258411	-1.110810	-0.572095
H128	H	-0.234044	-1.139343	-0.603783
H129	H	-0.228395	-1.082180	-0.543914
H130	H	-0.236164	-1.027339	-0.898262
N131	N	-0.258270	-1.110819	-0.975731
H132	H	-0.233899	-1.139349	-1.007418
H133	H	-0.228258	-1.082189	-0.947547
N134	N	-0.258207	-1.110802	-1.111744
H135	H	-0.233860	-1.139334	-1.082119
H136	H	-0.284865	-1.143356	-1.140074
N137	N	-0.418067	-0.923574	-1.104973
H138	H	-0.412217	-0.930408	-1.151636
H139	H	-0.463211	-0.934496	-1.093930
H140	H	-0.440296	-1.006868	-0.778808
N141	N	-0.418198	-0.923559	-0.701335
H142	H	-0.412348	-0.930394	-0.747999
H143	H	-0.463344	-0.934472	-0.690293
