data_functionalizedCrystal
_audit_creation_method	'MofGen! by Chris Wilmer'
_symmetry_space_group_name_H-M	'P1'
_symmetry_Int_Tables_number	1
_symmetry_cell_setting	triclinic
loop_
_symmetry_equiv_pos_as_xyz
  x,y,z
_cell_length_a	17.699083
_cell_length_b	17.699083
_cell_length_c	8.140239
_cell_angle_alpha	89.995965
_cell_angle_beta	90.002519
_cell_angle_gamma	83.283015
loop_
_atom_site_label
_atom_site_type_symbol
_atom_site_fract_x
_atom_site_fract_y
_atom_site_fract_z
O1	O	1.004075	0.095710	-0.136386
O2	O	1.504075	0.595710	0.363614
O3	O	0.783697	0.108162	-0.136441
O4	O	1.283697	0.608162	0.363559
O5	O	0.900112	-0.008253	-0.136397
O6	O	1.400112	0.491747	0.363603
O7	O	0.887659	0.212125	-0.136430
O8	O	1.387659	0.712125	0.363570
O9	O	0.900104	-0.008254	0.136830
O10	O	1.400104	0.491746	0.636830
O11	O	0.783688	0.108162	0.136786
O12	O	1.283688	0.608162	0.636786
O13	O	1.004067	0.095709	0.136841
O14	O	1.504067	0.595709	0.636841
Zn15	Zn	0.893876	0.101935	0.180194
Zn16	Zn	1.393876	0.601935	0.680194
Zn17	Zn	0.893887	0.101936	-0.179794
Zn18	Zn	1.393887	0.601936	0.320206
O19	O	0.887651	0.212125	0.136798
O20	O	1.387651	0.712125	0.636798
C21	C	0.755495	0.107716	0.000166
C22	C	1.255495	0.607716	0.500166
C23	C	0.671477	0.106377	0.000146
C24	C	1.171477	0.606377	0.500146
C25	C	0.622856	0.174710	0.000136
C26	C	1.122856	0.674710	0.500136
C27	C	0.543913	0.173448	0.000158
C28	C	1.043913	0.673448	0.500158
C29	C	0.513592	0.103852	0.000177
C30	C	1.013592	0.603852	0.500177
C31	C	0.562219	0.035513	0.000191
C32	C	1.062219	0.535513	0.500191
C33	C	0.641161	0.036776	0.000182
C34	C	1.141161	0.536776	0.500182
C35	C	0.243856	0.030418	0.000233
C36	C	0.743856	0.530418	0.500233
C37	C	0.164908	0.029160	0.000237
C38	C	0.664908	0.529160	0.500237
C39	C	0.146608	0.167090	0.000209
C40	C	0.646608	0.667090	0.500209
C41	C	0.225550	0.168353	0.000199
C42	C	0.725550	0.668353	0.500199
C43	C	0.274170	0.100015	0.000222
C44	C	0.774170	0.600015	0.500222
C45	C	0.359769	0.101384	0.000202
C46	C	0.859769	0.601384	0.500202
C47	C	0.427995	0.102481	0.000185
C48	C	0.927995	0.602481	0.500185
C49	C	0.899662	-0.036451	0.000216
C50	C	1.399662	0.463549	0.500216
C51	C	0.898323	-0.120469	0.000216
C52	C	1.398323	0.379531	0.500216
C53	C	0.966656	-0.169090	0.000236
C54	C	1.466656	0.330910	0.500236
C55	C	0.965394	-0.248033	0.000221
C56	C	1.465394	0.251967	0.500221
C57	C	0.895798	-0.278354	0.000199
C58	C	1.395798	0.221646	0.500199
C59	C	0.827459	-0.229727	0.000174
C60	C	1.327459	0.270273	0.500174
C61	C	0.828722	-0.150785	0.000178
C62	C	1.328722	0.349215	0.500178
C63	C	0.822364	-0.548090	0.000160
C64	C	1.322364	-0.048090	0.500160
C65	C	0.821106	-0.627038	0.000162
C66	C	1.321106	-0.127038	0.500162
C67	C	0.959036	-0.645338	0.000203
C68	C	1.459036	-0.145338	0.500203
C69	C	0.960299	-0.566396	0.000206
C70	C	1.460299	-0.066396	0.500206
C71	C	0.891961	-0.517776	0.000173
C72	C	1.391961	-0.017776	0.500173
C73	C	0.893330	-0.432177	0.000186
C74	C	1.393330	0.067823	0.500186
C75	C	0.894427	-0.363951	0.000197
C76	C	1.394427	0.136049	0.500197
C77	C	1.032268	0.096156	0.000230
C78	C	1.532268	0.596156	0.500230
C79	C	1.116286	0.097494	0.000240
C80	C	1.616286	0.597494	0.500240
C81	C	0.888102	0.240322	0.000180
C82	C	1.388102	0.740322	0.500180
C83	C	0.889440	0.324340	0.000169
C84	C	1.389440	0.824340	0.500169
N85	N	0.893874	0.101935	0.425877
N86	N	1.393874	0.601935	0.925877
N87	N	0.893888	0.101934	0.574523
N88	N	1.393888	0.601934	1.074523
H89	H	0.647537	0.231384	0.000120
H90	H	1.147537	0.731384	0.500120
H91	H	0.537526	-0.021154	0.000230
H92	H	1.037526	0.478846	0.500230
O93	O	0.753543	-0.656582	-0.000094
O94	O	1.253543	-0.156582	0.499906
C95	C	0.748694	-0.701680	-0.141622
C96	C	1.248694	-0.201680	0.358378
H97	H	0.808389	-0.721448	-0.188767
H98	H	1.308389	-0.221448	0.311233
H99	H	0.718619	-0.753322	-0.109811
H100	H	1.218619	-0.253322	0.390189
H101	H	0.715153	-0.666741	-0.240729
H102	H	1.215153	-0.166741	0.259271
H103	H	0.107012	0.222734	0.000199
H104	H	0.607012	0.722734	0.500199
H105	H	0.140225	-0.027517	0.000255
H106	H	0.640225	0.472483	0.500255
H107	H	0.680748	-0.018868	0.000188
H108	H	1.180748	0.481132	0.500188
O109	O	1.025472	-0.692492	-0.000004
O110	O	1.525472	-0.192492	0.499996
C111	C	1.067734	-0.678774	-0.141515
C112	C	1.567734	-0.178774	0.358485
H113	H	1.049040	-0.618852	-0.188691
H114	H	1.549040	-0.118852	0.311309
H115	H	1.130867	-0.684445	-0.109668
H116	H	1.630867	-0.184445	0.390332
H117	H	1.057469	-0.721930	-0.240612
H118	H	1.557469	-0.221930	0.259388
H119	H	0.766718	-0.508512	0.000134
H120	H	1.266718	-0.008512	0.500134
H121	H	0.504328	0.229092	0.000148
H122	H	1.004328	0.729092	0.500148
O123	O	0.759918	-0.259304	0.000225
O124	O	1.259918	0.240696	0.500225
C125	C	0.773455	-0.339406	0.000191
C126	C	1.273455	0.160594	0.500191
H127	H	0.832551	-0.358055	0.051934
H128	H	1.332551	0.141945	0.551934
H129	H	0.728927	-0.363564	0.079506
H130	H	1.228927	0.136436	0.579506
H131	H	0.769831	-0.361371	-0.130890
H132	H	1.269831	0.138629	0.369110
H133	H	0.773078	-0.111198	0.000162
H134	H	1.273078	0.388802	0.500162
O135	O	0.254909	0.236008	-0.000042
O136	O	0.754909	0.736008	0.499958
C137	C	0.230056	0.277646	-0.141573
C138	C	0.730056	0.777646	0.358427
H139	H	0.175342	0.257115	-0.188740
H140	H	0.675342	0.757115	0.311260
H141	H	0.218980	0.340695	-0.109758
H142	H	0.718980	0.840695	0.390242
H143	H	0.275750	0.268799	-0.240666
H144	H	0.775750	0.768799	0.259334
O145	O	0.290971	-0.036033	0.000175
O146	O	0.790971	0.463967	0.500175
C147	C	0.247278	-0.097728	0.000231
C148	C	0.747278	0.402272	0.500231
H149	H	0.188322	-0.078406	-0.051503
H150	H	0.688322	0.421594	0.448497
H151	H	0.276483	-0.145601	-0.079082
H152	H	0.776483	0.354399	0.420918
H153	H	0.241697	-0.119065	0.131317
H154	H	0.741697	0.380935	0.631317
O155	O	1.034330	-0.139765	0.000180
O156	O	1.534330	0.360235	0.500180
C157	C	1.094371	-0.199612	0.000229
C158	C	1.594371	0.300388	0.500229
H159	H	1.073251	-0.253199	-0.051500
H160	H	1.573251	0.246801	0.448500
H161	H	1.142972	-0.183203	-0.079089
H162	H	1.642972	0.316797	0.420911
H163	H	1.115442	-0.210826	0.131313
H164	H	1.615442	0.289174	0.631313
O165	O	1.027858	-0.536854	0.000005
O166	O	1.527858	-0.036854	0.500005
C167	C	1.032724	-0.491750	-0.141523
C168	C	1.532724	0.008250	0.358477
H169	H	0.973035	-0.471977	-0.188709
H170	H	1.473035	0.028023	0.311291
H171	H	1.062800	-0.440112	-0.109694
H172	H	1.562800	0.059888	0.390306
H173	H	1.066273	-0.526688	-0.240605
H174	H	1.566273	-0.026688	0.259395
O175	O	1.031755	-0.295291	-0.000052
O176	O	1.531755	0.204709	0.499948
C177	C	1.035153	-0.341505	-0.141546
C178	C	1.535153	0.158495	0.358454
H179	H	0.996399	-0.312518	-0.240458
H180	H	1.496399	0.187482	0.259542
H181	H	1.096138	-0.350487	-0.189028
H182	H	1.596138	0.149513	0.310972
H183	H	1.015672	-0.398880	-0.109571
H184	H	1.515672	0.101120	0.390429
