data_functionalizedCrystal
_audit_creation_method	'MofGen! by Chris Wilmer'
_symmetry_space_group_name_H-M	'P1'
_symmetry_Int_Tables_number	1
_symmetry_cell_setting	triclinic
loop_
_symmetry_equiv_pos_as_xyz
  x,y,z
_cell_length_a	8.497374
_cell_length_b	8.497374
_cell_length_c	16.120530
_cell_angle_alpha	92.902542
_cell_angle_beta	92.899701
_cell_angle_gamma	90.005237
loop_
_atom_site_label
_atom_site_type_symbol
_atom_site_fract_x
_atom_site_fract_y
_atom_site_fract_z
Zn1	Zn	1.014365	0.750826	1.274551
Zn2	Zn	1.514365	1.250826	1.774551
Zn3	Zn	0.750630	1.014571	1.274544
Zn4	Zn	1.250630	1.514571	1.774544
Zn5	Zn	0.737222	0.737404	1.135172
Zn6	Zn	1.237222	1.237404	1.635172
Zn7	Zn	1.000990	1.001161	1.135152
Zn8	Zn	1.500990	1.501161	1.635152
O9	O	0.875802	0.875991	1.204855
O10	O	1.375802	1.375991	1.704855
O11	O	0.990588	0.797042	1.391216
O12	O	1.490588	1.297042	1.891216
O13	O	0.528089	0.977800	1.256062
O14	O	1.028089	1.477800	1.756062
O15	O	0.773972	0.518423	1.153672
O16	O	1.273972	1.018423	1.653672
O17	O	0.796823	0.990815	1.391211
O18	O	1.296823	1.490815	1.891211
O19	O	0.977587	0.528284	1.256073
O20	O	1.477587	1.028284	1.756073
O21	O	0.518239	0.774166	1.153666
O22	O	1.018239	1.274166	1.653666
O23	O	0.761004	0.761162	1.018503
O24	O	1.261004	1.261162	1.518503
O25	O	1.223526	0.967958	1.153638
O26	O	1.723526	1.467958	1.653638
O27	O	0.954793	0.954943	1.018488
O28	O	1.454793	1.454943	1.518488
O29	O	1.233352	0.784038	1.256053
O30	O	1.733352	1.284038	1.756053
O31	O	0.783854	1.233554	1.256042
O32	O	1.283854	1.733554	1.756042
O33	O	0.967793	1.223701	1.153631
O34	O	1.467793	1.723701	1.653631
C35	C	0.854993	0.855142	0.988245
C36	C	1.354993	1.355142	1.488245
C37	C	0.846128	0.846261	0.895579
C38	C	1.346128	1.346261	1.395579
C39	C	1.287281	0.875992	1.204848
C40	C	1.787281	1.375992	1.704848
C41	C	1.465926	0.876009	1.204850
C42	C	1.965926	1.376009	1.704850
C43	C	0.875824	1.285869	1.204844
C44	C	1.375824	1.785869	1.704844
C45	C	0.875800	1.464516	1.204866
C46	C	1.375800	1.964516	1.704866
C47	C	0.829957	0.830010	0.725916
C48	C	1.329957	1.330010	1.225916
C49	C	0.921762	0.922088	0.684633
C50	C	1.421762	1.422088	1.184633
C51	C	0.912764	0.913045	0.590227
C52	C	1.412764	1.413045	1.090227
C53	C	0.838953	0.839050	0.820331
C54	C	1.338953	1.339050	1.320331
C55	C	0.896693	0.896922	1.422310
C56	C	1.396693	1.396922	1.922310
C57	C	0.905595	0.905841	1.514976
C58	C	1.405595	1.405841	2.014976
H59	H	1.007117	1.007707	0.720191
H60	H	1.507117	1.507707	1.220191
Cl61	Cl	0.698182	0.697827	0.671020
Cl62	Cl	1.198182	1.197827	1.171020
