data_functionalizedCrystal
_audit_creation_method	'MofGen! by Chris Wilmer'
_symmetry_space_group_name_H-M	'P1'
_symmetry_Int_Tables_number	1
_symmetry_cell_setting	triclinic
loop_
_symmetry_equiv_pos_as_xyz
  x,y,z
_cell_length_a	14.971486
_cell_length_b	14.519709
_cell_length_c	13.448316
_cell_angle_alpha	89.992453
_cell_angle_beta	89.998199
_cell_angle_gamma	83.647137
loop_
_atom_site_label
_atom_site_type_symbol
_atom_site_fract_x
_atom_site_fract_y
_atom_site_fract_z
O1	O	1.187015	0.120184	-0.082580
O2	O	0.926623	0.134576	-0.082607
O3	O	1.063723	-0.006863	-0.082584
O4	O	1.049915	0.261623	-0.082603
O5	O	1.063706	-0.006871	0.082800
O6	O	0.926606	0.134567	0.082777
O7	O	1.186998	0.120175	0.082804
Cu8	Cu	1.056800	0.127371	0.097891
Cu9	Cu	1.056820	0.127381	-0.097694
O10	O	1.049898	0.261614	0.082781
C11	C	0.893289	0.133928	0.000082
C12	C	0.793991	0.131999	0.000071
C13	C	0.736812	0.215091	0.000067
C14	C	0.643512	0.213273	0.000082
C15	C	0.607392	0.128363	0.000094
C16	C	0.664578	0.045265	0.000102
C17	C	0.757876	0.047084	0.000094
C18	C	0.470113	0.041480	0.000116
C19	C	0.376808	0.039661	0.000122
C20	C	0.355749	0.207669	0.000104
C21	C	0.449047	0.209488	0.000096
C22	C	0.506227	0.126390	0.000101
C23	C	1.063071	-0.041226	0.000108
C24	C	1.061142	-0.143606	0.000109
C25	C	1.054043	-0.518498	0.000082
C26	C	1.056015	-0.414191	0.000090
C27	C	1.057593	-0.331055	0.000096
C28	C	1.059564	-0.226742	0.000102
C29	C	1.220331	0.120823	0.000113
C30	C	1.319630	0.122752	0.000117
C31	C	1.050550	0.295978	0.000087
C32	C	1.052478	0.398358	0.000080
N33	N	1.056792	0.127363	0.235456
N34	N	1.056835	0.127381	-0.235258
C35	C	1.117519	0.064759	0.287506
C36	C	1.117525	0.064759	0.391610
C37	C	1.056807	0.127366	0.443660
C38	C	0.996074	0.189973	0.391602
C39	C	0.996065	0.189968	0.287501
C40	C	0.996099	0.189979	0.608582
C41	C	0.996109	0.189985	0.712691
C42	C	1.117559	0.064769	0.712691
C43	C	1.117549	0.064765	0.608590
C44	C	1.056817	0.127373	0.556539
H45	H	0.804431	-0.020578	0.000097
H46	H	0.946632	0.240946	0.433988
O47	O	0.588009	0.294015	-0.000103
C48	C	0.604414	0.345569	-0.085755
H49	H	0.636216	0.296915	-0.145618
H50	H	0.652010	0.398998	-0.066406
C51	C	0.476022	0.455193	-0.051067
C52	C	0.515075	0.395434	-0.124594
H53	H	0.420914	0.485956	-0.075023
H54	H	0.464971	0.420463	0.006641
H55	H	0.515693	0.499709	-0.034948
H56	H	0.475408	0.350913	-0.140702
H57	H	0.526117	0.430158	-0.182306
O58	O	0.937072	0.250886	0.558173
C59	C	0.883470	0.306135	0.626434
H60	H	0.920147	0.307239	0.700637
H61	H	0.816980	0.276081	0.637519
C62	C	0.820145	0.404236	0.494653
C63	C	0.865195	0.405599	0.585787
H64	H	0.808868	0.465589	0.469579
H65	H	0.856255	0.367012	0.448663
H66	H	0.764741	0.379186	0.503903
H67	H	0.920602	0.430637	0.576534
H68	H	0.829094	0.442829	0.631775
O69	O	1.176611	0.003922	0.442017
C70	C	1.230193	-0.051344	0.373753
H71	H	1.231242	-0.013535	0.299537
H72	H	1.201061	-0.119914	0.362704
C73	C	1.325369	-0.116601	0.505518
C74	C	1.326664	-0.070158	0.414367
H75	H	1.384876	-0.128210	0.530572
H76	H	1.289268	-0.079370	0.551510
H77	H	1.301088	-0.173737	0.496298
H78	H	1.350934	-0.013018	0.423591
H79	H	1.362771	-0.107380	0.368378
O80	O	0.300248	0.288419	-0.000072
C81	C	0.316652	0.339975	-0.085724
H82	H	0.348454	0.291322	-0.145588
H83	H	0.364246	0.393404	-0.066374
C84	C	0.188257	0.449596	-0.051032
C85	C	0.227311	0.389838	-0.124561
H86	H	0.133149	0.480357	-0.074987
H87	H	0.177207	0.414864	0.006675
H88	H	0.227928	0.494112	-0.034914
H89	H	0.187645	0.345316	-0.140669
H90	H	0.238352	0.424563	-0.182272
O91	O	0.341571	-0.042739	0.000104
C92	C	0.246962	-0.026521	0.000133
H93	H	0.225172	0.045421	-0.031199
H94	H	0.220987	-0.031004	0.079480
C95	C	0.234902	-0.188288	-0.026215
C96	C	0.208139	-0.099931	-0.064705
H97	H	0.210952	-0.233573	-0.066206
H98	H	0.298641	-0.199216	-0.026231
H99	H	0.213254	-0.192011	0.039907
H100	H	0.229795	-0.096206	-0.130821
H101	H	0.144401	-0.089004	-0.064702
H102	H	0.946614	0.240945	0.245122
H103	H	0.478453	0.278629	0.000076
H104	H	0.516667	-0.026188	0.000122
O105	O	0.772044	0.297494	0.000007
C106	C	0.866653	0.281286	0.000023
H107	H	0.888448	0.209343	-0.031281
H108	H	0.892635	0.285783	0.079363
C109	C	0.878693	0.443054	-0.026399
C110	C	0.905461	0.354694	-0.064856
H111	H	0.902633	0.488337	-0.066415
H112	H	0.814953	0.453974	-0.026406
H113	H	0.900346	0.446788	0.039716
H114	H	0.883798	0.350958	-0.130965
H115	H	0.969199	0.343775	-0.064861
O116	O	0.629598	-0.037274	-0.000020
C117	C	0.658785	-0.087918	-0.085684
H118	H	0.723531	-0.062711	-0.114244
H119	H	0.604815	-0.077291	-0.145661
C120	C	0.596587	-0.222602	-0.024582
C121	C	0.676114	-0.191649	-0.059655
H122	H	0.607273	-0.286589	-0.008528
H123	H	0.576920	-0.188482	0.033130
H124	H	0.551619	-0.213739	-0.074568
H125	H	0.721076	-0.200502	-0.009664
H126	H	0.695789	-0.225773	-0.117358
O127	O	1.176519	0.003823	0.763135
C128	C	1.161832	-0.087500	0.737731
H129	H	1.127346	-0.087448	0.662154
H130	H	1.117279	-0.116103	0.796334
C131	C	1.294913	-0.148751	0.825737
C132	C	1.252564	-0.148688	0.732907
H133	H	1.350879	-0.186496	0.822766
H134	H	1.304807	-0.087225	0.842856
H135	H	1.257776	-0.172584	0.874563
H136	H	1.289695	-0.124844	0.684086
H137	H	1.242678	-0.210211	0.715781
H138	H	1.166966	0.013781	0.245134
H139	H	0.946665	0.240965	0.755065
H140	H	1.166994	0.013790	0.566210
