data_functionalizedCrystal
_audit_creation_method	'MofGen! by Chris Wilmer'
_symmetry_space_group_name_H-M	'P1'
_symmetry_Int_Tables_number	1
_symmetry_cell_setting	triclinic
loop_
_symmetry_equiv_pos_as_xyz
  x,y,z
_cell_length_a	19.188925
_cell_length_b	10.654541
_cell_length_c	9.130307
_cell_angle_alpha	89.997370
_cell_angle_beta	90.004914
_cell_angle_gamma	96.186761
loop_
_atom_site_label
_atom_site_type_symbol
_atom_site_fract_x
_atom_site_fract_y
_atom_site_fract_z
O1	O	0.098055	-1.665765	0.121753
O2	O	0.107399	-1.300087	0.121766
O3	O	0.001140	-1.493482	0.121751
O4	O	0.204314	-1.472370	0.121768
O5	O	0.001135	-1.493468	-0.121848
O6	O	0.107395	-1.300073	-0.121833
O7	O	0.098050	-1.665750	-0.121846
Cu8	Cu	0.102722	-1.482910	-0.144082
Cu9	Cu	0.102727	-1.482927	0.144002
O10	O	0.204309	-1.472355	-0.121831
C11	C	0.106711	-1.253297	-0.000032
C12	C	0.104659	-1.113897	-0.000027
C13	C	-0.024878	-1.492792	-0.000047
C14	C	-0.102396	-1.490743	-0.000044
C15	C	0.098738	-1.712541	-0.000045
C16	C	0.100790	-1.851941	-0.000040
C17	C	-0.663514	-1.590501	-0.000011
C18	C	-0.590678	-1.592437	-0.000024
C19	C	-0.546485	-1.478960	-0.000020
C20	C	-0.575134	-1.363537	-0.000040
C21	C	-0.647968	-1.361604	-0.000041
N22	N	-0.426340	-1.396811	0.082898
N23	N	-0.357151	-1.398655	0.082902
C24	C	-0.327038	-1.484776	-0.000019
N25	N	-0.368730	-1.569003	-0.082926
N26	N	-0.437926	-1.567163	-0.082924
C27	C	-0.467508	-1.481043	-0.000019
C28	C	-0.219421	-1.602291	-0.000024
C29	C	-0.146584	-1.604223	-0.000046
C30	C	-0.131041	-1.375319	-0.000047
C31	C	-0.203877	-1.373391	-0.000039
C32	C	-0.248063	-1.486880	-0.000021
C33	C	0.230327	-1.473045	-0.000029
C34	C	0.307845	-1.475094	-0.000022
N35	N	0.102718	-1.482907	-0.346705
C36	C	0.231721	-1.083233	0.000002
C37	C	0.294285	-1.002412	0.000022
C38	C	0.292353	-0.871435	0.000023
C39	C	0.227850	-0.821277	-0.000000
C40	C	0.165286	-0.902098	-0.000020
C41	C	0.167225	-1.033076	-0.000017
C42	C	0.038226	-0.932761	-0.000060
C43	C	0.040156	-1.063739	-0.000051
C44	C	-0.026277	-0.882603	-0.000084
C45	C	-0.088843	-0.963424	-0.000093
C46	C	-0.086908	-1.094408	-0.000093
C47	C	-0.022408	-1.144559	-0.000071
C48	C	0.017233	-1.331074	-0.346766
C49	C	-0.025511	-1.255171	-0.423464
C50	C	-0.025512	-1.255189	-0.576798
C51	C	0.017238	-1.331116	-0.653437
C52	C	0.059982	-1.407019	-0.576739
C53	C	0.059976	-1.406996	-0.423402
C54	C	0.145470	-1.558843	-0.576677
C55	C	0.145468	-1.558834	-0.423344
C56	C	0.188220	-1.634770	-0.653317
C57	C	0.230961	-1.710681	-0.576619
C58	C	0.230959	-1.710661	-0.423276
C59	C	0.188212	-1.634737	-0.346646
N60	N	0.102726	-1.482940	0.346625
H61	H	-0.567354	-1.686419	-0.000015
O62	O	-0.067097	-1.181426	-0.651082
C63	C	-0.104814	-1.114378	-0.550570
H64	H	-0.108621	-1.166362	-0.441252
H65	H	-0.076565	-1.015643	-0.534285
C66	C	-0.174354	-1.040446	-0.744711
C67	C	-0.179036	-1.104299	-0.610448
H68	H	-0.220137	-1.034223	-0.781648
H69	H	-0.148942	-1.085613	-0.812430
H70	H	-0.150811	-0.958173	-0.731122
H71	H	-0.202571	-1.186576	-0.624042
H72	H	-0.204453	-1.059146	-0.542732
O73	O	0.272380	-1.784573	-0.651130
C74	C	0.230257	-1.870482	-0.739856
H75	H	0.174768	-1.884284	-0.693662
H76	H	0.228879	-1.831690	-0.856069
C77	C	0.329213	-1.981132	-0.798926
C78	C	0.261062	-1.998092	-0.742183
H79	H	0.348216	-2.059847	-0.800369
H80	H	0.357594	-1.923251	-0.739155
H81	H	0.328056	-1.948801	-0.895766
H82	H	0.262222	-2.030407	-0.645340
H83	H	0.232683	-2.055982	-0.801939
H84	H	-0.539147	-1.271143	-0.000041
H85	H	-0.227196	-1.279413	-0.000038
H86	H	-0.060316	-1.193351	-0.361047
O87	O	0.272502	-1.784511	-0.349004
C88	C	0.310245	-1.851494	-0.449534
H89	H	0.281380	-1.859002	-0.558841
H90	H	0.364778	-1.799441	-0.465838
C91	C	0.352250	-1.975615	-0.255415
C92	C	0.316795	-1.984846	-0.389664
H93	H	0.356294	-2.057871	-0.218483
H94	H	0.326824	-1.930485	-0.187684
H95	H	0.397690	-1.932233	-0.269019
H96	H	0.271352	-2.028213	-0.376055
H97	H	0.342213	-2.029987	-0.457392
H98	H	0.017224	-1.331061	-0.221914
H99	H	0.017241	-1.331112	-0.778289
H100	H	-0.699487	-1.682914	-0.000004
H101	H	0.188220	-1.634773	-0.778169
H102	H	-0.020826	-1.251205	-0.000054
O103	O	-0.262248	-1.712644	-0.000083
C104	C	-0.221347	-1.814925	-0.000053
H105	H	-0.167152	-1.782751	-0.046179
H106	H	-0.215982	-1.850324	0.116813
C107	C	-0.323685	-1.961814	-0.038924
C108	C	-0.257125	-1.922299	-0.095590
H109	H	-0.345755	-2.028051	-0.097850
H110	H	-0.351242	-1.892907	-0.038939
H111	H	-0.319205	-1.991304	0.058463
H112	H	-0.261606	-1.892795	-0.192968
H113	H	-0.229569	-1.991205	-0.095593
O114	O	0.357001	-1.050928	-0.000014
C115	C	0.411805	-0.951506	0.000042
H116	H	0.391803	-0.862635	-0.046086
H117	H	0.431128	-0.932867	0.116916
C118	C	0.497155	-1.097289	-0.038808
C119	C	0.472590	-0.988137	-0.095475
H120	H	0.534652	-1.119885	-0.097722
H121	H	0.460233	-1.164272	-0.038841
H122	H	0.513252	-1.081741	0.058586
H123	H	0.456485	-1.003691	-0.192860
H124	H	0.509511	-0.921157	-0.095462
H125	H	0.233301	-1.189880	0.000033
H126	H	-0.671286	-1.267623	-0.000054
H127	H	-0.123267	-1.698205	-0.000046
H128	H	-0.095059	-1.282923	-0.000056
H129	H	0.343298	-0.805630	0.000030
H130	H	0.226283	-0.714627	-0.000017
H131	H	0.188204	-1.634717	-0.221794
H132	H	-0.027846	-0.775954	-0.000091
H133	H	-0.141356	-0.922574	-0.000111
H134	H	-0.137856	-1.160206	-0.000115
