data_functionalizedCrystal
_audit_creation_method	'MofGen! by Chris Wilmer'
_symmetry_space_group_name_H-M	'P1'
_symmetry_Int_Tables_number	1
_symmetry_cell_setting	triclinic
loop_
_symmetry_equiv_pos_as_xyz
  x,y,z
_cell_length_a	15.625950
_cell_length_b	14.750426
_cell_length_c	15.538191
_cell_angle_alpha	107.544139
_cell_angle_beta	113.258520
_cell_angle_gamma	58.298788
loop_
_atom_site_label
_atom_site_type_symbol
_atom_site_fract_x
_atom_site_fract_y
_atom_site_fract_z
O1	O	1.204441	-0.339317	-0.200809
O2	O	0.923186	-0.241442	-0.192995
O3	O	1.118562	-0.309427	-0.064211
O4	O	1.009066	-0.271332	-0.329593
O5	O	1.142630	-0.477462	-0.102734
O6	O	0.947255	-0.409477	-0.231517
O7	O	1.228510	-0.507352	-0.239331
Zn8	Zn	1.091704	-0.485094	-0.241541
Zn9	Zn	1.059992	-0.263700	-0.190786
O10	O	1.033134	-0.439367	-0.368115
C11	C	0.900103	-0.313238	-0.208789
C12	C	0.795470	-0.276826	-0.198445
C13	C	0.516813	-0.614918	-0.269440
C14	C	0.418478	-0.580654	-0.259728
C15	C	0.392288	-0.397486	-0.217738
C16	C	0.490620	-0.431734	-0.227451
C17	C	0.552876	-0.540452	-0.253301
C18	C	0.526683	-0.357268	-0.211312
C19	C	0.625010	-0.391515	-0.221019
C20	C	0.687273	-0.500229	-0.246866
C21	C	0.651202	-0.574699	-0.263009
C22	C	0.464429	-0.248552	-0.185455
C23	C	0.500493	-0.174086	-0.169315
C24	C	0.598817	-0.208331	-0.179030
C25	C	0.661080	-0.317045	-0.204876
C26	C	0.634888	-0.133861	-0.162887
C27	C	0.733214	-0.168108	-0.172594
C28	C	0.759406	-0.351292	-0.214584
C29	C	1.142052	-0.397428	-0.049305
C30	C	1.176175	-0.409293	0.052504
C31	C	1.251592	-0.435553	-0.223537
C32	C	1.356225	-0.471959	-0.233879
N33	N	1.038353	-0.112606	-0.156140
N34	N	1.113353	-0.636191	-0.276179
C35	C	0.977977	0.059151	-0.059403
C36	C	0.993123	-0.046625	-0.083679
C37	C	1.068459	-0.072832	-0.204352
C38	C	1.053323	0.032942	-0.180084
C39	C	1.008080	0.098926	-0.107609
C40	C	1.083426	0.072718	-0.228290
C41	C	1.068287	0.178484	-0.204026
C42	C	1.023043	0.244475	-0.131556
C43	C	0.992940	0.204693	-0.083346
C44	C	1.128662	0.006735	-0.300768
C45	C	1.158766	0.046510	-0.348974
C46	C	1.143633	0.152276	-0.324706
C47	C	1.098389	0.218267	-0.252237
C48	C	1.173735	0.192059	-0.372917
C49	C	1.158596	0.297825	-0.348654
C50	C	1.083249	0.324034	-0.227973
C51	C	1.009644	-0.351364	-0.383021
C52	C	0.975520	-0.339492	-0.484828
C53	C	0.837160	-0.291338	0.367781
C54	C	0.869249	-0.302507	0.463444
C55	C	1.049743	-0.365317	0.471251
C56	C	1.017668	-0.354149	0.375587
C57	C	0.911375	-0.317159	0.323860
C58	C	1.091883	-0.379970	0.331666
C59	C	1.059811	-0.368808	0.236010
C60	C	0.953523	-0.331823	0.184275
C61	C	0.879303	-0.305997	0.228204
C62	C	1.198176	-0.416967	0.383393
C63	C	1.272392	-0.442788	0.339472
C64	C	1.240319	-0.431619	0.243816
C65	C	1.134032	-0.394634	0.192081
C66	C	1.314540	-0.457445	0.199887
C67	C	1.282467	-0.446282	0.104231
C68	C	1.101959	-0.383471	0.096425
H69	H	0.810092	-0.439819	-0.235648
H70	H	0.762574	-0.107469	-0.159457
H71	H	0.941142	0.112877	-0.000383
O72	O	1.417826	-0.493561	0.250058
C73	C	1.477361	-0.596953	0.209083
H74	H	1.424448	-0.636332	0.166552
H75	H	1.543575	-0.647756	0.267060
H76	H	1.512202	-0.590375	0.160508
O77	O	0.733953	-0.255545	0.317400
C78	C	0.722458	-0.334245	0.241894
H79	H	0.800170	-0.388860	0.224302
H80	H	0.658907	-0.293529	0.177464
H81	H	0.699002	-0.383981	0.262860
O82	O	1.375592	-0.478658	0.389872
C83	C	1.387992	-0.483003	0.483712
H84	H	1.310251	-0.425729	0.500718
H85	H	1.450831	-0.458515	0.533747
H86	H	1.412923	-0.568277	0.492556
O87	O	1.112572	-0.137034	-0.274631
C88	C	1.205836	-0.227651	-0.238229
H89	H	1.237393	-0.208357	-0.158897
H90	H	1.266946	-0.250057	-0.273724
H91	H	1.188586	-0.297812	-0.252628
H92	H	0.808808	-0.281491	0.499198
H93	H	1.224285	-0.426045	0.461285
H94	H	1.136287	-0.395438	0.513379
H95	H	0.767336	-0.528111	-0.254769
H96	H	0.584190	-0.045344	-0.141830
O97	O	1.039486	0.388113	-0.157457
C98	C	1.110744	0.421452	-0.085781
H99	H	1.194180	0.362124	-0.089570
H100	H	1.104884	0.424623	-0.013991
H101	H	1.090788	0.504566	-0.095822
O102	O	0.711639	-0.680270	-0.288285
C103	C	0.730533	-0.692056	-0.373531
H104	H	0.666360	-0.620326	-0.413477
H105	H	0.730212	-0.768920	-0.418528
H106	H	0.810304	-0.696453	-0.357522
H107	H	1.183104	0.330212	-0.387911
H108	H	1.010710	0.330599	-0.111806
H109	H	0.389110	-0.641298	-0.272894
H110	H	1.342901	-0.467310	0.068469
O111	O	0.963863	-0.085107	-0.036720
C112	C	0.920626	-0.004160	0.032407
H113	H	0.950931	0.056939	0.051764
H114	H	0.944760	-0.041588	0.097906
H115	H	0.831226	0.037623	0.003450
H116	H	0.341588	-0.308968	-0.196686
O117	O	0.577338	-0.720566	-0.294396
C118	C	0.600047	-0.781422	-0.226425
H119	H	0.592459	-0.727852	-0.156682
H120	H	0.683674	-0.850013	-0.216019
H121	H	0.542376	-0.815611	-0.251610
O122	O	0.368925	-0.215113	-0.175909
C123	C	0.321711	-0.103191	-0.149630
H124	H	0.385142	-0.076000	-0.114711
H125	H	0.276921	-0.082297	-0.097885
H126	H	0.264891	-0.060774	-0.215043
O127	O	0.440044	-0.068432	-0.144328
C128	C	0.417292	-0.007599	-0.212337
H129	H	0.479478	-0.054011	-0.251486
H130	H	0.417390	0.071988	-0.175841
H131	H	0.336610	0.008416	-0.264676
H132	H	1.140986	-0.079386	-0.320522
H133	H	1.210563	0.138323	-0.431932
H134	H	0.927413	-0.322741	0.106385
O135	O	0.948826	0.268817	-0.013042
C136	C	0.847348	0.279571	-0.036287
H137	H	0.816040	0.262841	-0.116039
H138	H	0.792696	0.364688	-0.011104
H139	H	0.851247	0.219882	-0.000517
H140	H	1.195599	-0.007227	-0.407985
H141	H	1.015404	-0.353344	0.054307
H142	H	0.792748	-0.275869	0.186086
