data_functionalizedCrystal
_audit_creation_method	'MofGen! by Chris Wilmer'
_symmetry_space_group_name_H-M	'P1'
_symmetry_Int_Tables_number	1
_symmetry_cell_setting	triclinic
loop_
_symmetry_equiv_pos_as_xyz
  x,y,z
_cell_length_a	15.944493
_cell_length_b	15.944551
_cell_length_c	10.268362
_cell_angle_alpha	89.993764
_cell_angle_beta	89.995981
_cell_angle_gamma	83.486891
loop_
_atom_site_label
_atom_site_type_symbol
_atom_site_fract_x
_atom_site_fract_y
_atom_site_fract_z
O1	O	1.114555	0.108101	-0.108286
O2	O	1.614555	0.608101	0.391714
O3	O	0.869998	0.121508	-0.108293
O4	O	1.369998	0.621508	0.391707
O5	O	0.998955	-0.007472	-0.108277
O6	O	1.498955	0.492528	0.391723
O7	O	0.985598	0.237081	-0.108301
O8	O	1.485598	0.737081	0.391699
O9	O	0.998943	-0.007477	0.108323
O10	O	1.498943	0.492523	0.608323
O11	O	0.869987	0.121503	0.108308
O12	O	1.369987	0.621503	0.608308
O13	O	1.114543	0.108095	0.108315
O14	O	1.614543	0.608095	0.608315
Cu15	Cu	0.992264	0.114799	0.128089
Cu16	Cu	1.492264	0.614799	0.628089
Cu17	Cu	0.992277	0.114805	-0.128066
Cu18	Cu	1.492277	0.614805	0.371934
O19	O	0.985587	0.237075	0.108300
O20	O	1.485587	0.737075	0.608300
C21	C	0.838698	0.120957	0.000007
C22	C	1.338698	0.620957	0.500007
C23	C	0.745449	0.119314	0.000005
C24	C	1.245449	0.619314	0.500005
C25	C	0.509689	0.195235	-0.000003
C26	C	1.009689	0.695235	0.499997
C27	C	0.459125	0.154291	0.106802
C28	C	0.959125	0.654291	0.606802
C29	C	0.574728	0.116270	0.000008
C30	C	1.074728	0.616270	0.500008
C31	C	0.459141	0.154278	-0.106750
C32	C	0.959141	0.654278	0.393250
C33	C	0.409819	0.113336	0.000005
C34	C	0.909819	0.613336	0.500005
C35	C	0.525393	0.075348	0.106901
C36	C	1.025393	0.575348	0.606901
C37	C	0.525412	0.075346	-0.106746
C38	C	1.025412	0.575346	0.393254
C39	C	0.474880	0.034345	0.000085
C40	C	0.974880	0.534345	0.500085
C41	C	0.669728	0.117963	0.000010
C42	C	1.169728	0.617963	0.500010
C43	C	0.314821	0.111637	0.000011
C44	C	0.814821	0.611637	0.500011
C45	C	0.998395	-0.038768	0.000023
C46	C	1.498395	0.461232	0.500023
C47	C	0.996732	-0.132014	0.000024
C48	C	1.496732	0.367986	0.500024
C49	C	0.912826	-0.346853	0.000004
C50	C	1.412826	0.153147	0.500004
C51	C	0.951784	-0.407881	0.106802
C52	C	1.451784	0.092119	0.606802
C53	C	0.993725	-0.302739	0.000014
C54	C	1.493725	0.197261	0.500014
C55	C	0.951814	-0.407860	-0.106749
C56	C	1.451814	0.092140	0.393251
C57	C	0.990814	-0.467651	-0.000002
C58	C	1.490814	0.032349	0.499998
C59	C	1.032705	-0.362539	0.106900
C60	C	1.532705	0.137461	0.606900
C61	C	1.032724	-0.362511	-0.106747
C62	C	1.532724	0.137489	0.393253
C63	C	1.071741	-0.423521	0.000078
C64	C	1.571741	0.076479	0.500078
C65	C	0.995399	-0.207737	0.000024
C66	C	1.495399	0.292263	0.500024
C67	C	0.989146	-0.562652	-0.000002
C68	C	1.489146	-0.062652	0.499998
C69	C	1.145844	0.108646	0.000012
C70	C	1.645844	0.608646	0.500012
C71	C	1.239092	0.110289	0.000006
C72	C	1.739092	0.610289	0.500006
C73	C	0.986147	0.268372	-0.000004
C74	C	1.486147	0.768372	0.499996
C75	C	0.987809	0.361617	-0.000013
C76	C	1.487809	0.861617	0.499987
N77	N	0.992261	0.114794	0.308255
N78	N	1.492261	0.614794	0.808255
N79	N	0.992287	0.114803	-0.308232
N80	N	1.492287	0.614803	0.191768
C81	C	0.992273	0.114803	0.573925
C82	C	1.492273	0.614803	1.073925
C83	C	0.992264	0.114800	0.426087
C84	C	1.492264	0.614800	0.926087
H85	H	0.525313	0.263254	0.000090
H86	H	1.025313	0.763254	0.500090
H87	H	0.430183	0.187637	0.197089
H88	H	0.930183	0.687637	0.697089
C89	C	1.204607	-0.445453	0.112070
C90	C	1.704607	0.054547	0.612070
C91	C	1.162465	-0.468314	0.000158
C92	C	1.662465	0.031686	0.500158
H93	H	1.260613	-0.473113	0.112126
H94	H	1.760613	0.026887	0.612126
H95	H	1.206146	-0.386079	0.112778
H96	H	1.706146	0.113921	0.612778
H97	H	1.175646	-0.461678	0.187206
H98	H	1.675646	0.038322	0.687206
H99	H	1.191423	-0.452084	-0.074978
H100	H	1.691423	0.047916	0.425022
H101	H	1.160931	-0.527702	-0.000562
H102	H	1.660931	-0.027702	0.499438
H103	H	0.917591	-0.427927	-0.197045
H104	H	1.417591	0.072073	0.302955
C105	C	0.651861	0.032367	0.227851
C106	C	1.151861	0.532367	0.727851
C107	C	0.564294	0.030362	0.228928
C108	C	1.064294	0.530362	0.728928
H109	H	0.675875	0.004600	0.303191
H110	H	1.175875	0.504600	0.803191
H111	H	0.675123	0.004519	0.152117
H112	H	1.175123	0.504519	0.652117
H113	H	0.663970	0.089344	0.227538
H114	H	1.163970	0.589344	0.727538
H115	H	0.552185	-0.026615	0.229232
H116	H	1.052185	0.473385	0.729232
H117	H	0.541024	0.058208	0.304683
H118	H	1.041024	0.558208	0.804683
H119	H	1.066916	-0.342386	-0.197039
H120	H	1.566916	0.157614	0.302961
H121	H	0.554362	0.042026	-0.197039
H122	H	1.054362	0.542026	0.302961
C123	C	0.487758	-0.098690	0.112086
C124	C	0.987758	0.401310	0.612086
C125	C	0.453990	-0.057544	0.000174
C126	C	0.953990	0.442456	0.500174
H127	H	0.474854	-0.155415	0.112147
H128	H	0.974854	0.344585	0.612147
H129	H	0.547260	-0.098122	0.112790
H130	H	1.047260	0.401878	0.612790
H131	H	0.464050	-0.070443	0.187222
H132	H	0.964050	0.429557	0.687222
H133	H	0.477703	-0.085787	-0.074962
H134	H	0.977703	0.414213	0.425038
H135	H	0.394476	-0.058116	-0.000541
H136	H	0.894476	0.441884	0.499459
H137	H	0.430207	0.187644	-0.197032
H138	H	0.930207	0.687644	0.302968
C139	C	0.780011	-0.324596	0.112118
C140	C	1.280011	0.175404	0.612118
C141	C	0.822180	-0.301862	0.000140
C142	C	1.322180	0.198138	0.500140
H143	H	0.724054	-0.296814	0.112207
H144	H	1.224054	0.203186	0.612207
H145	H	0.778335	-0.383951	0.112882
H146	H	1.278335	0.116049	0.612882
H147	H	0.809041	-0.308427	0.187208
H148	H	1.309041	0.191573	0.687208
H149	H	0.793153	-0.318037	-0.074951
H150	H	1.293153	0.181963	0.425049
H151	H	0.823852	-0.242494	-0.000637
H152	H	1.323852	0.257506	0.499363
C153	C	0.905202	-0.522803	0.227963
C154	C	1.405202	-0.022803	0.727963
C155	C	0.905590	-0.435030	0.228684
C156	C	1.405590	0.064970	0.728684
H157	H	0.876684	-0.539559	0.303209
H158	H	1.376684	-0.039559	0.803209
H159	H	0.877010	-0.539070	0.152133
H160	H	1.377010	-0.039070	0.652133
H161	H	0.961652	-0.549305	0.228079
H162	H	1.461652	-0.049305	0.728079
H163	H	0.849140	-0.408527	0.228559
H164	H	1.349140	0.091473	0.728559
H165	H	0.933780	-0.418754	0.304534
H166	H	1.433780	0.081246	0.804534
H167	H	1.066889	-0.342558	0.197289
H168	H	1.566889	0.157442	0.697289
