data_functionalizedCrystal
_audit_creation_method	'MofGen! by Chris Wilmer'
_symmetry_space_group_name_H-M	'P1'
_symmetry_Int_Tables_number	1
_symmetry_cell_setting	triclinic
loop_
_symmetry_equiv_pos_as_xyz
  x,y,z
_cell_length_a	15.944493
_cell_length_b	15.944480
_cell_length_c	15.021413
_cell_angle_alpha	89.989883
_cell_angle_beta	89.993251
_cell_angle_gamma	96.527554
loop_
_atom_site_label
_atom_site_type_symbol
_atom_site_fract_x
_atom_site_fract_y
_atom_site_fract_z
O1	O	1.114532	-0.108092	-0.074008
O2	O	0.869972	-0.121500	-0.074011
O3	O	0.998961	0.007484	-0.074017
O4	O	0.985543	-0.237077	-0.074002
O5	O	0.998941	0.007466	0.074047
O6	O	0.869952	-0.121518	0.074053
O7	O	1.114511	-0.108111	0.074056
Zn8	Zn	0.992228	-0.114818	0.097563
Zn9	Zn	0.992255	-0.114793	-0.097518
O10	O	0.985522	-0.237095	0.074063
C11	C	0.838667	-0.120961	0.000021
C12	C	0.745419	-0.119318	0.000019
C13	C	0.509640	-0.195241	0.000023
C14	C	0.459082	-0.154308	0.073028
C15	C	0.574699	-0.116274	0.000020
C16	C	0.459106	-0.154271	-0.072952
C17	C	0.409790	-0.113340	0.000018
C18	C	0.525369	-0.075362	0.073085
C19	C	0.525397	-0.075337	-0.072960
C20	C	0.474872	-0.034346	0.000062
C21	C	0.669698	-0.117967	0.000023
C22	C	0.314793	-0.111641	0.000022
C23	C	0.998404	0.038770	0.000011
C24	C	0.996766	0.132018	-0.000001
C25	C	1.145816	-0.108650	0.000023
C26	C	1.239064	-0.110293	0.000019
C27	C	1.072699	0.367796	0.000016
C28	C	1.031769	0.418364	-0.072988
C29	C	0.993729	0.302740	0.000009
C30	C	1.031731	0.418322	0.072992
C31	C	0.990802	0.467650	0.000023
C32	C	0.952821	0.352081	-0.073055
C33	C	0.952794	0.352035	0.072991
C34	C	0.911806	0.402571	-0.000031
C35	C	0.995418	0.207740	0.000001
C36	C	0.989108	0.562647	0.000025
C37	C	0.986090	0.731621	0.000031
C38	C	0.987763	0.638377	0.000034
N39	N	0.992216	-0.114834	0.230701
N40	N	0.992274	-0.114771	-0.230655
C41	C	0.932562	-0.174448	0.470387
C42	C	1.008460	-0.190740	0.529724
C43	C	0.992237	-0.114813	0.412308
C44	C	0.916360	-0.098540	0.529713
C45	C	0.992251	-0.114794	0.587732
C46	C	1.068174	-0.131142	0.470338
C47	C	0.976023	-0.038909	0.470322
C48	C	1.051976	-0.055169	0.529632
C49	C	0.992228	-0.114825	0.311250
C50	C	0.992269	-0.114781	0.688787
H51	H	1.140718	0.352181	-0.000057
H52	H	1.132362	-0.144975	0.444367
C53	C	0.621848	0.038413	-0.130445
C54	C	0.564513	-0.030345	-0.156285
H55	H	0.645992	0.066186	-0.181892
H56	H	0.665199	0.018957	-0.095259
H57	H	0.593231	0.076736	-0.096670
H58	H	0.593131	-0.068670	-0.190054
H59	H	0.521155	-0.010889	-0.191486
C60	C	0.379114	-0.142444	0.206992
C61	C	0.419976	-0.199336	0.156344
H62	H	0.354975	-0.170248	0.258425
H63	H	0.335876	-0.122075	0.172370
H64	H	0.418784	-0.096432	0.224540
H65	H	0.380305	-0.245346	0.138790
H66	H	0.463219	-0.219718	0.190972
C67	C	0.407605	0.072142	-0.076373
C68	C	0.454026	0.057553	0.000096
H69	H	0.394745	0.128879	-0.076353
H70	H	0.356682	0.034908	-0.076872
H71	H	0.439914	0.062547	-0.127756
H72	H	0.421714	0.067142	0.051480
H73	H	0.504956	0.094799	0.000603
H74	H	0.430168	-0.187629	-0.134663
C75	C	1.199542	-0.004313	0.534404
C76	C	1.120180	0.012925	0.564541
H77	H	1.241649	0.037720	0.555963
H78	H	1.200206	-0.004257	0.471177
H79	H	1.210599	-0.058089	0.555649
H80	H	1.109121	0.066698	0.543290
H81	H	1.119515	0.012877	0.627781
H82	H	1.022187	-0.254921	0.555815
H83	H	0.962273	0.025252	0.444209
C84	C	1.019903	0.498326	-0.206962
C85	C	1.076795	0.457461	-0.156309
H86	H	1.047704	0.522454	-0.258401
H87	H	0.999544	0.541572	-0.172348
H88	H	0.973885	0.458659	-0.224500
H89	H	1.122811	0.497130	-0.138765
H90	H	1.097167	0.414211	-0.190929
H91	H	0.554197	-0.042041	0.134866
C92	C	0.767336	-0.142500	0.535002
C93	C	0.829728	-0.079958	0.564914
H94	H	0.713853	-0.131028	0.556727
H95	H	0.779267	-0.195997	0.556220
H96	H	0.766568	-0.142880	0.471768
H97	H	0.830500	-0.079583	0.628148
H98	H	0.817794	-0.026447	0.543700
H99	H	1.065089	0.447253	0.134707
H100	H	0.919499	0.323261	-0.134839
H101	H	0.843734	0.418023	-0.000072
H102	H	0.525246	-0.263263	0.000096
H103	H	0.919464	0.323060	0.134712
C104	C	0.881708	-0.322004	0.465244
C105	C	0.864508	-0.242579	0.435255
H106	H	0.839700	-0.364064	0.443548
H107	H	0.881576	-0.322798	0.528469
H108	H	0.935509	-0.333018	0.444038
H109	H	0.810710	-0.231562	0.456467
H110	H	0.864632	-0.241783	0.372016
