data_functionalizedCrystal
_audit_creation_method	'MofGen! by Chris Wilmer'
_symmetry_space_group_name_H-M	'P1'
_symmetry_Int_Tables_number	1
_symmetry_cell_setting	triclinic
loop_
_symmetry_equiv_pos_as_xyz
  x,y,z
_cell_length_a	10.540535
_cell_length_b	9.616153
_cell_length_c	10.540539
_cell_angle_alpha	89.995612
_cell_angle_beta	95.475433
_cell_angle_gamma	89.999812
loop_
_atom_site_label
_atom_site_type_symbol
_atom_site_fract_x
_atom_site_fract_y
_atom_site_fract_z
O1	O	1.685886	0.115562	-0.178877
O2	O	1.316472	0.115581	-0.195739
O3	O	1.509607	0.115570	-0.002601
O4	O	1.492751	0.115574	-0.372014
O5	O	1.509599	-0.115722	-0.002588
O6	O	1.316465	-0.115710	-0.195725
O7	O	1.685878	-0.115729	-0.178863
Zn8	Zn	1.501170	-0.152442	-0.187292
Zn9	Zn	1.501180	0.152294	-0.187310
O10	O	1.492743	-0.115717	-0.372001
C11	C	1.269165	-0.000062	-0.194469
C12	C	1.128217	-0.000055	-0.190689
C13	C	1.091546	-0.000062	-0.049675
C14	C	0.944946	-0.000601	-0.045698
C15	C	0.918877	-0.131892	-0.255052
C16	C	1.065642	-0.131989	-0.258052
C17	C	1.065535	0.131042	-0.260119
C18	C	0.919188	0.132760	-0.253598
N19	N	1.501173	-0.360417	-0.187279
C20	C	1.604873	-0.580749	-0.084320
C21	C	1.604593	-0.419582	-0.083927
C22	C	1.368468	-0.418941	-0.157150
C23	C	1.369084	-0.580159	-0.156429
C24	C	1.529016	-0.580291	-0.320727
C25	C	1.532010	-0.419063	-0.319855
C26	C	1.733185	-0.000083	-0.180133
C27	C	1.874134	-0.000081	-0.183913
C28	C	1.508339	-0.000073	0.044709
C29	C	1.504557	-0.000066	0.185657
N30	N	1.501188	0.360269	-0.187313
C31	C	1.494011	-0.000071	-0.419311
C32	C	1.497793	-0.000070	-0.560259
C33	C	1.359640	0.000461	0.369081
C34	C	1.363474	-0.000060	0.222463
C35	C	1.572449	-0.132148	0.247323
C36	C	1.567634	-0.132259	0.393868
C37	C	1.570512	0.130762	0.394370
C38	C	1.571811	0.132509	0.247388
H39	H	0.871520	-0.136421	-0.356817
H40	H	1.088673	-0.137620	-0.361426
Cl41	Cl	1.727841	0.132131	0.467288
Cl42	Cl	1.273592	0.146701	0.413224
Cl43	Cl	1.246287	-0.640407	-0.267737
Cl44	Cl	0.875078	0.283322	-0.173645
H45	H	1.703810	-0.619515	-0.102167
H46	H	1.304132	-0.093722	0.399293
H47	H	0.870140	0.141131	-0.354472
Cl48	Cl	1.280404	-0.146475	0.157992
H49	H	1.289400	-0.380618	-0.230114
H50	H	1.087720	0.132318	-0.363871
Cl51	Cl	1.577622	-0.643311	0.067639
H52	H	1.343556	-0.378578	-0.060912
H53	H	1.623782	-0.620944	-0.349392
Cl54	Cl	1.156348	0.145856	0.033930
H55	H	0.915611	0.093868	0.009938
H56	H	1.629639	-0.380813	-0.342689
Cl57	Cl	1.756830	-0.358483	-0.111918
H58	H	1.586687	-0.381028	0.015060
H59	H	1.525281	-0.230434	0.204729
H60	H	1.344741	-0.617776	-0.059094
Cl61	Cl	1.423107	-0.356883	-0.443870
H62	H	1.453420	-0.618441	-0.397386
Cl63	Cl	1.280994	0.146120	0.156671
Cl64	Cl	1.490150	-0.284684	0.437418
Cl65	Cl	1.724282	-0.141538	0.467936
Cl66	Cl	0.871169	-0.283932	-0.179682
H67	H	1.676056	-0.137064	0.224971
H68	H	1.524853	0.230872	0.425917
Cl69	Cl	1.495758	0.283392	0.183548
H70	H	1.135001	-0.094449	0.003575
H71	H	1.674672	0.140479	0.223168
H72	H	0.916490	-0.095648	0.009676
H73	H	1.105810	-0.230899	-0.209998
H74	H	1.107997	0.230985	-0.216123
