data_functionalizedCrystal
_audit_creation_method	'MofGen! by Chris Wilmer'
_symmetry_space_group_name_H-M	'P1'
_symmetry_Int_Tables_number	1
_symmetry_cell_setting	triclinic
loop_
_symmetry_equiv_pos_as_xyz
  x,y,z
_cell_length_a	12.759401
_cell_length_b	12.827892
_cell_length_c	12.827885
_cell_angle_alpha	90.030166
_cell_angle_beta	90.019489
_cell_angle_gamma	90.015874
loop_
_atom_site_label
_atom_site_type_symbol
_atom_site_fract_x
_atom_site_fract_y
_atom_site_fract_z
Zn1	Zn	1.606248	-0.415967	0.590848
Zn2	Zn	1.606141	-0.590745	0.416108
Zn3	Zn	1.430551	-0.416020	0.416122
Zn4	Zn	1.430536	-0.590668	0.590808
O5	O	1.518369	-0.503350	0.503471
O6	O	1.753255	-0.439162	0.567679
O7	O	1.582810	-0.567622	0.269873
O8	O	1.453908	-0.269777	0.439322
O9	O	1.753176	-0.567570	0.439299
O10	O	1.582992	-0.269738	0.567693
O11	O	1.453804	-0.439252	0.269884
O12	O	1.283528	-0.439178	0.439283
O13	O	1.453884	-0.567439	0.737049
O14	O	1.283517	-0.567491	0.567624
O15	O	1.582978	-0.439087	0.737079
O16	O	1.582796	-0.736971	0.439259
O17	O	1.453780	-0.736914	0.567611
C18	C	1.245402	-0.503332	0.503451
C19	C	1.128625	-0.503350	0.503467
C20	C	0.963993	-0.570121	0.436549
C21	C	1.073717	-0.570106	0.436529
C22	C	1.073803	-0.436598	0.570422
C23	C	0.964081	-0.436609	0.570436
C24	C	1.223603	-0.607281	0.313203
C25	C	1.278421	-0.674042	0.246260
C26	C	1.242784	-0.775994	0.230045
C27	C	1.152332	-0.811205	0.280788
C28	C	1.097520	-0.744449	0.347738
C29	C	1.133154	-0.642483	0.363933
C30	C	0.814193	-0.399444	0.693764
C31	C	0.759379	-0.332693	0.760720
C32	C	0.795013	-0.230740	0.776946
C33	C	0.885469	-0.195533	0.726222
C34	C	0.940283	-0.262284	0.659266
C35	C	0.904642	-0.364236	0.643038
C36	C	1.518303	-0.774860	0.503452
C37	C	1.518371	-0.891013	0.503479
C38	C	1.582218	-0.942695	0.567058
C39	C	1.582289	-1.062745	0.567087
C40	C	1.792402	-0.503369	0.503492
C41	C	1.909179	-0.503377	0.503501
C42	C	1.518441	-0.503249	0.776042
C43	C	1.518472	-0.503206	0.892195
C44	C	1.518463	-0.230780	0.503514
C45	C	1.518504	-0.114627	0.503532
C46	C	1.518357	-0.503376	0.231961
C47	C	1.518530	-0.503124	0.115809
C48	C	1.454613	-0.566693	0.943965
C49	C	1.454643	-0.566649	1.064015
H50	H	1.287425	-0.830351	0.175539
O51	O	1.375984	-0.636076	0.191538
H52	H	1.391551	-0.553959	0.214047
H53	H	1.123331	-0.894229	0.267589
O54	O	0.904776	-0.642117	0.364342
H55	H	0.925834	-0.724154	0.382107
H56	H	1.463758	-0.935643	0.449073
H57	H	1.023877	-0.773118	0.389054
H58	H	1.636823	-0.898068	0.621473
H59	H	1.573200	-0.448763	1.071294
O60	O	1.590907	-0.431149	0.951210
H61	H	1.644306	-0.477942	1.000949
H62	H	1.636955	-1.107191	0.621515
O63	O	0.775753	-0.509410	0.676249
H64	H	0.837288	-0.565384	0.700849
H65	H	1.399922	-0.621082	0.899410
H66	H	1.252620	-0.524261	0.326389
H67	H	0.750378	-0.176395	0.831476
H68	H	1.399964	-0.620996	1.108536
H69	H	1.118518	-0.382239	0.624920
O70	O	0.923899	-0.085561	0.743709
H71	H	0.941500	-0.074142	0.827684
H72	H	1.014076	-0.233688	0.618154
H73	H	0.685728	-0.361370	0.802027
H74	H	1.463843	-1.070189	0.449092
