data_functionalizedCrystal
_audit_creation_method	'MofGen! by Chris Wilmer'
_symmetry_space_group_name_H-M	'P1'
_symmetry_Int_Tables_number	1
_symmetry_cell_setting	triclinic
loop_
_symmetry_equiv_pos_as_xyz
  x,y,z
_cell_length_a	18.215407
_cell_length_b	12.645330
_cell_length_c	18.215407
_cell_angle_alpha	90.010564
_cell_angle_beta	90.006572
_cell_angle_gamma	90.010089
loop_
_atom_site_label
_atom_site_type_symbol
_atom_site_fract_x
_atom_site_fract_y
_atom_site_fract_z
Zn1	Zn	1.125056	-0.422275	0.416081
Zn2	Zn	1.125014	-0.599512	0.293021
Zn3	Zn	1.002012	-0.422256	0.293034
Zn4	Zn	1.001981	-0.599489	0.416051
O5	O	1.063516	-0.510883	0.354547
O6	O	1.228035	-0.445804	0.399764
O7	O	1.108693	-0.576000	0.190039
O8	O	1.018365	-0.273911	0.309375
O9	O	1.228004	-0.576019	0.309353
O10	O	1.108765	-0.273925	0.399777
O11	O	1.018324	-0.445770	0.190048
O12	O	0.899023	-0.445748	0.309346
O13	O	1.018312	-0.575980	0.519040
O14	O	0.899001	-0.575961	0.399726
O15	O	1.108735	-0.445782	0.519062
O16	O	1.108663	-0.747857	0.309323
O17	O	1.018271	-0.747840	0.399713
C18	C	0.872309	-0.510851	0.354534
C19	C	0.790511	-0.510862	0.354546
C20	C	0.602332	-0.443199	0.401698
C21	C	0.525473	-0.443208	0.401700
C22	C	0.525452	-0.578597	0.307409
C23	C	0.602309	-0.578582	0.307404
C24	C	0.640747	-0.510884	0.354552
C25	C	0.487031	-0.510909	0.354560
C26	C	0.403697	-0.510919	0.354563
C27	C	0.724086	-0.510872	0.354549
C28	C	1.063479	-0.786313	0.354530
C29	C	1.063530	-0.904143	0.354547
C30	C	1.120305	-1.071673	0.297567
C31	C	1.120490	-0.949113	0.297707
C32	C	1.084547	-0.948558	0.432120
C33	C	1.084997	-1.071156	0.431818
C34	C	0.985717	-1.071457	0.334717
C35	C	0.986091	-0.948852	0.332978
C36	C	1.255469	-0.510917	0.354560
C37	C	1.337267	-0.510931	0.354566
C38	C	1.063524	-0.510881	0.546500
C39	C	1.063528	-0.510879	0.628299
C40	C	1.063573	-0.234378	0.354581
C41	C	1.063597	-0.116548	0.354595
C42	C	1.110591	-0.443094	0.893369
C43	C	1.110596	-0.443093	0.816510
C44	C	1.016444	-0.578682	0.816477
C45	C	1.016443	-0.578687	0.893334
C46	C	1.063515	-0.510887	0.931778
C47	C	1.063521	-0.510882	0.778062
C48	C	1.063526	-0.510882	0.694729
C49	C	1.063511	-0.510888	1.015117
C50	C	1.063504	-0.510904	1.163341
C51	C	1.063508	-0.510889	1.081542
H52	H	0.633588	-0.633701	0.269008
H53	H	1.178173	-0.919714	0.310854
N54	N	1.161370	-0.369983	0.934833
H55	H	1.154227	-0.380269	0.989350
H56	H	1.149931	-0.294269	0.921408
H57	H	1.140829	-0.917781	0.449239
N58	N	1.031512	-0.909972	0.489920
H59	H	1.006661	-0.972542	0.513793
H60	H	0.993302	-0.863200	0.466269
N61	N	0.643789	-0.370186	0.452550
H62	H	0.698307	-0.380450	0.445399
H63	H	0.630357	-0.386814	0.505088
H64	H	0.494199	-0.388090	0.440090
N65	N	0.483994	-0.651608	0.256556
H66	H	0.429475	-0.641350	0.263713
H67	H	0.497427	-0.727343	0.267918
N68	N	1.161374	-0.369975	0.775086
H69	H	1.149955	-0.294231	0.788469
H70	H	1.154213	-0.380351	0.720576
H71	H	1.107342	-0.919085	0.240187
N72	N	1.103108	-1.110768	0.221148
H73	H	1.058395	-1.157954	0.222749
H74	H	1.146344	-1.152052	0.201575
H75	H	0.978118	-0.633882	0.785167
N76	N	1.196305	-1.112388	0.314778
H77	H	1.194161	-1.159774	0.359355
H78	H	1.230051	-1.050732	0.324978
N79	N	1.160404	-1.108947	0.454103
H80	H	1.172250	-1.081992	0.504941
H81	H	1.197983	-1.081348	0.418122
N82	N	1.032665	-1.110482	0.490020
H83	H	1.048840	-1.083601	0.539671
H84	H	1.032572	-1.190350	0.490213
N85	N	0.960393	-1.112492	0.261094
H86	H	0.999153	-1.160734	0.239879
H87	H	0.951976	-1.051032	0.226709
H88	H	0.970244	-0.919831	0.275890
N89	N	0.927097	-0.908299	0.383946
H90	H	0.949836	-0.860162	0.421914
H91	H	0.902610	-0.969978	0.409264
H92	H	0.943466	-1.100479	0.376253
N93	N	0.965668	-0.651807	0.934774
H94	H	0.977084	-0.727552	0.921390
H95	H	0.913107	-0.635249	0.921383
