data_functionalizedCrystal
_audit_creation_method	'MofGen! by Chris Wilmer'
_symmetry_space_group_name_H-M	'P1'
_symmetry_Int_Tables_number	1
_symmetry_cell_setting	triclinic
loop_
_symmetry_equiv_pos_as_xyz
  x,y,z
_cell_length_a	14.044220
_cell_length_b	16.109301
_cell_length_c	14.586319
_cell_angle_alpha	90.000787
_cell_angle_beta	89.997366
_cell_angle_gamma	91.674821
loop_
_atom_site_label
_atom_site_type_symbol
_atom_site_fract_x
_atom_site_fract_y
_atom_site_fract_z
O1	O	0.121835	-1.112195	-0.076180
O2	O	0.136997	-0.871261	-0.076194
O3	O	-0.008568	-0.988112	-0.076183
O4	O	0.267399	-0.995345	-0.076191
O5	O	-0.008570	-0.988103	0.076297
O6	O	0.136995	-0.871252	0.076286
O7	O	0.121832	-1.112186	0.076301
Cu8	Cu	0.129413	-0.991719	0.090216
Cu9	Cu	0.129416	-0.991729	-0.090110
O10	O	0.267397	-0.995336	0.076290
C11	C	0.136381	-0.840236	0.000044
C12	C	0.134540	-0.747804	0.000039
C13	C	-0.043882	-0.984941	0.000056
C14	C	-0.149105	-0.975498	0.000053
C15	C	0.302711	-0.998506	0.000048
C16	C	0.407934	-1.007950	0.000046
C17	C	0.600590	-1.025215	0.000051
C18	C	0.658244	-0.958236	0.000048
C19	C	0.765445	-0.967843	0.000050
C20	C	0.493380	-1.015610	0.000048
C21	C	0.122448	-1.143211	0.000060
C22	C	0.124289	-1.235644	0.000060
N23	N	0.129411	-0.991717	0.217048
C24	C	0.216634	-0.531640	0.000047
C25	C	0.214896	-0.444790	0.000053
C26	C	0.042189	-0.451815	0.000054
C27	C	0.043927	-0.538663	0.000055
C28	C	0.131153	-0.578573	0.000046
C29	C	0.127677	-0.404875	0.000052
C30	C	0.125792	-0.310709	0.000058
C31	C	0.133038	-0.672745	0.000042
N32	N	0.129411	-0.991737	-0.216942
C33	C	0.064976	-1.043479	0.452059
C34	C	0.064974	-1.043481	0.548041
C35	C	0.193848	-0.939969	0.548040
C36	C	0.193845	-0.939963	0.452061
C37	C	0.129410	-0.991723	0.404073
C38	C	0.129411	-0.991731	0.596034
C39	C	0.129409	-0.991733	0.700101
C40	C	0.129411	-0.991720	0.299999
H41	H	0.631740	-1.089768	0.000058
C42	C	-0.048815	-0.589729	-0.000091
C43	C	-0.052844	-0.639811	-0.078526
C44	C	-0.138253	-0.686872	-0.078682
H45	H	-0.101090	-0.553621	-0.000140
H46	H	-0.051734	-0.623801	0.053056
H47	H	-0.049934	-0.605742	-0.131659
H48	H	-0.000589	-0.675935	-0.078494
H49	H	-0.141172	-0.720944	-0.025535
H50	H	-0.190521	-0.650758	-0.078729
H51	H	-0.140994	-0.720864	-0.131895
C52	C	0.307604	-0.393688	0.000092
C53	C	0.287418	-0.309087	0.000119
C54	C	0.372800	-0.261987	0.000168
H55	H	0.343436	-0.406375	-0.053069
H56	H	0.343377	-0.406430	0.053285
H57	H	0.251659	-0.296349	-0.053067
H58	H	0.251599	-0.296374	0.053277
H59	H	0.408573	-0.274730	0.053360
H60	H	0.408625	-0.274682	-0.052995
H61	H	0.359115	-0.204581	0.000194
C62	C	-0.052538	-0.408528	0.000239
C63	C	-0.104209	-0.431752	0.078698
C64	C	-0.191473	-0.391887	0.078901
H65	H	-0.087842	-0.424177	-0.052873
H66	H	-0.041374	-0.350075	0.000285
H67	H	-0.115376	-0.490191	0.078644
H68	H	-0.068934	-0.416102	0.131822
H69	H	-0.180309	-0.333435	0.078947
H70	H	-0.226768	-0.407539	0.025786
H71	H	-0.226539	-0.407633	0.132138
C72	C	0.616588	-0.872203	-0.000094
C73	C	0.560455	-0.862813	-0.078530
C74	C	0.522052	-0.783578	-0.078682
H75	H	0.666763	-0.831363	-0.000140
H76	H	0.578421	-0.865669	0.053052
H77	H	0.598619	-0.869338	-0.131663
H78	H	0.510265	-0.903633	-0.078501
H79	H	0.483886	-0.777044	-0.025536
H80	H	0.572233	-0.742745	-0.078726
H81	H	0.483955	-0.777199	-0.131895
C82	C	0.263914	-0.883739	0.400119
C83	C	0.320366	-0.838432	0.462686
C84	C	0.384925	-0.786639	0.414871
H85	H	0.229912	-0.846531	0.362681
H86	H	0.303430	-0.916553	0.362691
H87	H	0.280854	-0.805621	0.500099
H88	H	0.354388	-0.875619	0.500126
H89	H	0.424442	-0.819453	0.377442
H90	H	0.350915	-0.749436	0.377434
H91	H	0.423241	-0.755898	0.457315
H92	H	0.012509	-1.085623	0.412990
C93	C	-0.005133	-1.099625	0.600023
C94	C	-0.098282	-1.079252	0.576662
C95	C	-0.162893	-1.130962	0.624520
H96	H	0.003959	-1.092266	0.664072
H97	H	0.005124	-1.155886	0.584269
H98	H	-0.108535	-1.023005	0.592422
H99	H	-0.107404	-1.086615	0.512621
H100	H	-0.152635	-1.187223	0.608765
H101	H	-0.153792	-1.123599	0.688566
H102	H	-0.226101	-1.117152	0.608670
H103	H	0.287658	-0.564132	0.000047
H104	H	0.246311	-0.897829	0.587122
