data_functionalizedCrystal
_audit_creation_method	'MofGen! by Chris Wilmer'
_symmetry_space_group_name_H-M	'P1'
_symmetry_Int_Tables_number	1
_symmetry_cell_setting	triclinic
loop_
_symmetry_equiv_pos_as_xyz
  x,y,z
_cell_length_a	14.971482
_cell_length_b	10.723023
_cell_length_c	14.048226
_cell_angle_alpha	89.994597
_cell_angle_beta	89.994098
_cell_angle_gamma	84.040078
loop_
_atom_site_label
_atom_site_type_symbol
_atom_site_fract_x
_atom_site_fract_y
_atom_site_fract_z
O1	O	1.187822	0.162594	-0.079146
O2	O	1.687822	0.662594	0.420854
O3	O	0.927526	0.182073	-0.079151
O4	O	1.427526	0.682073	0.420849
O5	O	1.063678	-0.009306	-0.079144
O6	O	1.563678	0.490694	0.420856
O7	O	1.051669	0.353973	-0.079152
O8	O	1.551669	0.853973	0.420848
O9	O	1.063662	-0.009317	0.079177
O10	O	1.563662	0.490683	0.579177
O11	O	0.927509	0.182061	0.079171
O12	O	1.427509	0.682061	0.579171
O13	O	1.187805	0.162583	0.079175
O14	O	1.687805	0.662583	0.579175
Zn15	Zn	1.057655	0.172320	0.104310
Zn16	Zn	1.557655	0.672320	0.604310
Zn17	Zn	1.057676	0.172335	-0.104285
Zn18	Zn	1.557676	0.672335	0.395715
O19	O	1.051653	0.353961	0.079169
O20	O	1.551653	0.853961	0.579169
C21	C	0.894188	0.181197	0.000010
C22	C	1.394188	0.681197	0.500010
C23	C	0.794877	0.178589	0.000008
C24	C	1.294877	0.678589	0.500008
C25	C	0.748216	0.177354	0.086310
C26	C	1.248216	0.677354	0.586310
C27	C	0.654905	0.174884	0.086311
C28	C	1.154905	0.674884	0.586311
C29	C	0.608254	0.173657	0.000009
C30	C	1.108254	0.673657	0.500009
C31	C	0.654921	0.174888	-0.086300
C32	C	1.154921	0.674888	0.413700
C33	C	0.748232	0.177349	-0.086300
C34	C	1.248232	0.677349	0.413700
C35	C	0.460432	0.169761	-0.086293
C36	C	0.960432	0.669761	0.413707
C37	C	0.367114	0.167301	-0.086294
C38	C	0.867114	0.667301	0.413706
C39	C	0.367105	0.167295	0.086317
C40	C	0.867105	0.667295	0.586317
C41	C	0.460415	0.169757	0.086317
C42	C	0.960415	0.669757	0.586317
C43	C	0.507076	0.170990	0.000008
C44	C	1.007076	0.670990	0.500008
C45	C	1.062796	-0.055802	0.000015
C46	C	1.562796	0.444198	0.500015
C47	C	1.060182	-0.194329	0.000012
C48	C	1.560182	0.305671	0.500012
C49	C	1.059025	-0.256076	-0.082004
C50	C	1.559025	0.243924	0.417996
C51	C	1.056323	-0.399251	-0.082009
C52	C	1.556323	0.100749	0.417991
C53	C	1.221143	0.163459	0.000013
C54	C	1.721143	0.663459	0.500013
C55	C	1.320454	0.166067	0.000008
C56	C	1.820454	0.666067	0.500008
C57	C	1.052535	0.400458	0.000007
C58	C	1.552535	0.900458	0.500007
C59	C	1.055149	0.538984	0.000004
C60	C	1.555149	1.038984	0.500004
N61	N	1.057646	0.172310	0.246671
N62	N	1.557646	0.672310	0.746671
N63	N	1.057692	0.172336	-0.246646
N64	N	1.557692	0.672336	0.253354
C65	C	1.117954	0.087602	0.296491
C66	C	1.617954	0.587602	0.796491
C67	C	1.117960	0.087602	0.396149
C68	C	1.617960	0.587602	0.896149
C69	C	1.057662	0.172315	0.445984
C70	C	1.557662	0.672315	0.945984
C71	C	0.997348	0.257026	0.396156
C72	C	1.497348	0.757026	0.896156
C73	C	0.997338	0.257020	0.296500
C74	C	1.497338	0.757020	0.796500
C75	C	0.997374	0.257036	0.603871
C76	C	1.497374	0.757036	1.103871
C77	C	0.997384	0.257044	0.703533
C78	C	1.497384	0.757044	1.203533
C79	C	1.117995	0.087617	0.703519
C80	C	1.617995	0.587617	1.203519
C81	C	1.117986	0.087611	0.603863
C82	C	1.617986	0.587611	1.103863
C83	C	1.057672	0.172324	0.554042
C84	C	1.557672	0.672324	1.054042
H85	H	0.616920	0.173858	0.156587
H86	H	1.116920	0.673858	0.656587
H87	H	0.498420	0.170765	-0.156575
H88	H	0.998420	0.670765	0.343425
H89	H	1.055333	-0.452353	-0.152227
H90	H	1.555333	0.047647	0.347773
H91	H	0.498395	0.170763	0.156592
H92	H	0.998395	0.670763	0.656592
Cl93	Cl	1.056692	-0.379047	0.108424
Cl94	Cl	1.556692	0.120953	0.608424
Cl95	Cl	1.058616	-0.276348	0.108422
Cl96	Cl	1.558616	0.223652	0.608422
Cl97	Cl	0.806892	0.178895	-0.194798
Cl98	Cl	1.306892	0.678895	0.305202
Cl99	Cl	0.921575	0.363543	0.766176
Cl100	Cl	1.421575	0.863543	1.266176
H101	H	0.329109	0.166292	0.156593
H102	H	0.829109	0.666292	0.656593
Cl103	Cl	1.193766	-0.018896	0.233852
Cl104	Cl	1.693766	0.481104	0.733852
Cl105	Cl	1.193775	-0.018891	0.458783
Cl106	Cl	1.693775	0.481109	0.958783
H107	H	1.167104	0.018641	0.744089
H108	H	1.667104	0.518641	1.244089
H109	H	1.167089	0.018637	0.563288
H110	H	1.667089	0.518637	1.063288
H111	H	1.060031	-0.202944	-0.152218
H112	H	1.560031	0.297056	0.347782
Cl113	Cl	0.308469	0.165756	-0.194789
Cl114	Cl	0.808469	0.665756	0.305211
H115	H	0.948257	0.326014	0.563310
H116	H	1.448257	0.826014	1.063310
H117	H	0.948247	0.325998	0.436738
H118	H	1.448247	0.825998	0.936738
H119	H	0.948228	0.325996	0.255937
H120	H	1.448228	0.825996	0.755937
H121	H	0.616932	0.173880	-0.156568
H122	H	1.116932	0.673880	0.343432
H123	H	0.786192	0.178364	0.156587
H124	H	1.286192	0.678364	0.656587
