data_functionalizedCrystal
_audit_creation_method	'MofGen! by Chris Wilmer'
_symmetry_space_group_name_H-M	'P1'
_symmetry_Int_Tables_number	1
_symmetry_cell_setting	triclinic
loop_
_symmetry_equiv_pos_as_xyz
  x,y,z
_cell_length_a	13.897449
_cell_length_b	12.594516
_cell_length_c	13.897441
_cell_angle_alpha	89.972920
_cell_angle_beta	89.978743
_cell_angle_gamma	90.012642
loop_
_atom_site_label
_atom_site_type_symbol
_atom_site_fract_x
_atom_site_fract_y
_atom_site_fract_z
Zn1	Zn	1.474722	-0.423695	-0.545467
Zn2	Zn	1.808055	-0.090362	-0.212133
Zn3	Zn	2.141388	0.242972	0.121200
Zn4	Zn	1.474638	-0.601703	-0.384175
Zn5	Zn	1.807972	-0.268369	-0.050842
Zn6	Zn	2.141305	0.064964	0.282491
Zn7	Zn	1.313417	-0.423741	-0.384178
Zn8	Zn	1.646750	-0.090408	-0.050844
Zn9	Zn	1.980084	0.242926	0.282489
Zn10	Zn	1.313409	-0.601634	-0.545420
Zn11	Zn	1.646742	-0.268301	-0.212087
Zn12	Zn	1.980076	0.065032	0.121246
O13	O	1.394046	-0.512693	-0.464810
O14	O	1.727380	-0.179360	-0.131477
O15	O	2.060713	0.153973	0.201857
O16	O	1.609692	-0.447317	-0.524090
O17	O	1.943026	-0.113984	-0.190756
O18	O	2.276359	0.219349	0.142577
O19	O	1.453220	-0.578144	-0.249194
O20	O	1.786554	-0.244810	0.084139
O21	O	2.119887	0.088523	0.417473
O22	O	1.334852	-0.274789	-0.405593
O23	O	1.668186	0.058544	-0.072260
O24	O	2.001519	0.391877	0.261073
O25	O	1.609631	-0.578099	-0.405589
O26	O	1.942964	-0.244765	-0.072256
O27	O	2.276298	0.088568	0.261077
O28	O	1.453362	-0.274755	-0.524092
O29	O	1.786696	0.058578	-0.190758
O30	O	2.120029	0.391911	0.142575
O31	O	1.334772	-0.447396	-0.249196
O32	O	1.668105	-0.114063	0.084138
O33	O	2.001438	0.219271	0.417471
O34	O	1.178434	-0.447330	-0.405548
O35	O	1.511768	-0.113996	-0.072215
O36	O	1.845101	0.219337	0.261118
O37	O	1.334839	-0.577982	-0.680408
O38	O	1.668173	-0.244649	-0.347075
O39	O	2.001506	0.088684	-0.013742
O40	O	1.178428	-0.578027	-0.524013
O41	O	1.511762	-0.244694	-0.190679
O42	O	1.845095	0.088640	0.142654
O43	O	1.453355	-0.447251	-0.680442
O44	O	1.786688	-0.113918	-0.347109
O45	O	2.120022	0.219416	-0.013776
O46	O	1.453213	-0.750639	-0.405544
O47	O	1.786546	-0.417306	-0.072211
O48	O	2.119879	-0.083973	0.261122
O49	O	1.334758	-0.750589	-0.524011
O50	O	1.668092	-0.417256	-0.190677
O51	O	2.001425	-0.083922	0.142656
C52	C	1.143432	-0.512677	-0.464776
C53	C	1.476765	-0.179344	-0.131443
C54	C	1.810099	0.153990	0.201890
C55	C	1.036218	-0.512695	-0.464785
C56	C	1.369552	-0.179362	-0.131452
C57	C	1.702885	0.153971	0.201882
C58	C	1.394002	-0.789234	-0.464793
C59	C	1.727335	-0.455901	-0.131460
C60	C	2.060668	-0.122568	0.201873
C61	C	1.394071	-0.907540	-0.464818
C62	C	1.727404	-0.574206	-0.131485
C63	C	2.060738	-0.240873	0.201848
C64	C	0.949148	-0.512699	-0.464801
C65	C	1.282482	-0.179366	-0.131468
C66	C	1.615815	0.153968	0.201866
C67	C	0.839916	-0.512706	-0.464830
C68	C	1.173249	-0.179373	-0.131497
C69	C	1.506583	0.153960	0.201836
C70	C	1.458573	-0.976781	-0.400453
C71	C	1.791906	-0.643448	-0.067120
C72	C	2.125240	-0.310115	0.266213
C73	C	1.482143	-1.047479	-0.488495
C74	C	1.815476	-0.714145	-0.155162
C75	C	2.148810	-0.380812	0.178171
C76	C	1.370621	-1.047641	-0.376833
C77	C	1.703955	-0.714308	-0.043499
C78	C	2.037288	-0.380974	0.289834
C79	C	1.417686	-0.976679	-0.552906
C80	C	1.751019	-0.643345	-0.219573
C81	C	2.084353	-0.310012	0.113760
C82	C	1.306123	-0.976835	-0.441184
C83	C	1.639457	-0.643502	-0.107851
C84	C	1.972790	-0.310168	0.225482
C85	C	1.329660	-1.047500	-0.529287
C86	C	1.662993	-0.714167	-0.195954
C87	C	1.996327	-0.380834	0.137380
C88	C	1.645639	-0.512710	-0.464844
C89	C	1.978973	-0.179377	-0.131511
C90	C	2.312306	0.153956	0.201822
C91	C	1.752853	-0.512718	-0.464859
C92	C	2.086187	-0.179384	-0.131526
C93	C	2.419520	0.153949	0.201808
C94	C	1.394105	-0.512604	-0.716403
C95	C	1.727439	-0.179271	-0.383070
C96	C	2.060772	0.154063	-0.049736
C97	C	1.394131	-0.512566	-0.823617
C98	C	1.727464	-0.179232	-0.490284
C99	C	2.060797	0.154101	-0.156950
C100	C	1.394118	-0.235072	-0.464848
C101	C	1.727451	0.098261	-0.131515
C102	C	2.060784	0.431594	0.201819
C103	C	1.394148	-0.116767	-0.464864
C104	C	1.727481	0.216566	-0.131531
C105	C	2.060815	0.549900	0.201803
C106	C	1.394150	-0.512536	-0.910687
C107	C	1.727484	-0.179202	-0.577354
C108	C	2.060817	0.154131	-0.244020
C109	C	1.394178	-0.512488	-1.019920
C110	C	1.727511	-0.179154	-0.686586
C111	C	2.060845	0.154179	-0.353253
C112	C	1.394043	-0.512705	-0.214196
C113	C	1.727376	-0.179372	0.119138
C114	C	2.060710	0.153961	0.452471
C115	C	1.394205	-0.512444	-0.106982
C116	C	1.727538	-0.179110	0.226351
C117	C	2.060872	0.154223	0.559684
H118	H	1.513129	-0.945729	-0.346071
H119	H	1.846462	-0.612395	-0.012738
H120	H	2.179796	-0.279062	0.320596
H121	H	1.350756	-1.078810	-0.302405
H122	H	1.684089	-0.745477	0.030928
H123	H	2.017423	-0.412144	0.364262
F124	F	1.208890	-0.936246	-0.414992
F125	F	1.542224	-0.602912	-0.081658
F126	F	1.875557	-0.269579	0.251675
H127	H	1.556551	-1.078513	-0.508511
H128	H	1.889885	-0.745179	-0.175178
H129	H	2.223218	-0.411846	0.158156
H130	H	1.437478	-0.945641	-0.627398
H131	H	1.770811	-0.612308	-0.294065
H132	H	2.104144	-0.278975	0.039269
H133	H	1.275146	-1.078356	-0.583801
H134	H	1.608479	-0.745023	-0.250467
H135	H	1.941812	-0.411689	0.082866
