data_functionalizedCrystal
_audit_creation_method	'MofGen! by Chris Wilmer'
_symmetry_space_group_name_H-M	'P1'
_symmetry_Int_Tables_number	1
_symmetry_cell_setting	triclinic
loop_
_symmetry_equiv_pos_as_xyz
  x,y,z
_cell_length_a	16.120484
_cell_length_b	16.959455
_cell_length_c	16.959447
_cell_angle_alpha	90.017493
_cell_angle_beta	92.870259
_cell_angle_gamma	87.077546
loop_
_atom_site_label
_atom_site_type_symbol
_atom_site_fract_x
_atom_site_fract_y
_atom_site_fract_z
Zn1	Zn	-0.331988	-1.192418	-0.462853
Zn2	Zn	-0.471408	-1.185618	-0.337370
Zn3	Zn	-0.332005	-1.060238	-0.330691
Zn4	Zn	-0.471354	-1.053498	-0.469506
O5	O	-0.401689	-1.122943	-0.400105
O6	O	-0.350497	-1.302126	-0.446218
O7	O	-0.452945	-1.168961	-0.225874
O8	O	-0.215337	-1.083439	-0.342643
O9	O	-0.452928	-1.297130	-0.354026
O10	O	-0.215324	-1.180551	-0.439742
O11	O	-0.350527	-1.076845	-0.220967
O12	O	-0.350475	-0.948734	-0.349094
O13	O	-0.452837	-1.071952	-0.579233
O14	O	-0.452854	-0.943782	-0.451081
O15	O	-0.350445	-1.174015	-0.574345
O16	O	-0.588066	-1.162425	-0.360477
O17	O	-0.588027	-1.065358	-0.457557
C18	C	-0.401661	-0.917578	-0.400085
C19	C	-0.401670	-0.829721	-0.400097
C20	C	-0.618297	-1.112444	-0.410481
C21	C	-0.710962	-1.108024	-0.414947
C22	C	-0.401633	-1.122990	-0.606270
C23	C	-0.401610	-1.123010	-0.694126
C24	C	-0.880624	-1.099961	-0.423116
C25	C	-0.921913	-1.146067	-0.377107
C26	C	-1.016318	-1.141581	-0.381652
C27	C	-0.786210	-1.104446	-0.418571
C28	C	-0.184235	-1.133505	-0.389705
C29	C	-0.091569	-1.138006	-0.385273
C30	C	-0.401717	-1.329110	-0.400125
C31	C	-0.401729	-1.416966	-0.400133
C32	C	-0.348336	-0.460801	-0.347104
C33	C	-0.455110	-0.455685	-0.453154
C34	C	-0.455098	-0.538232	-0.453149
C35	C	-0.401705	-0.582067	-0.400119
C36	C	-0.348324	-0.543355	-0.347095
C37	C	-0.508483	-0.576949	-0.506167
C38	C	-0.508474	-0.659501	-0.506163
C39	C	-0.455077	-0.703337	-0.453136
C40	C	-0.401693	-0.664621	-0.400111
C41	C	-0.348301	-0.708455	-0.347081
C42	C	-0.294912	-0.669741	-0.294059
C43	C	-0.294927	-0.587191	-0.294069
C44	C	-0.455062	-0.785886	-0.453126
C45	C	-0.348289	-0.791010	-0.347072
C46	C	-0.454910	-1.069881	-0.737946
C47	C	-0.348282	-1.176154	-0.732858
C48	C	-0.348254	-1.176172	-0.815403
C49	C	-0.401555	-1.123042	-0.859223
C50	C	-0.454883	-1.069895	-0.820498
C51	C	-0.294922	-1.229313	-0.854133
C52	C	-0.294892	-1.229332	-0.936683
C53	C	-0.348197	-1.176206	-0.980505
C54	C	-0.401527	-1.123057	-0.941775
C55	C	-0.454828	-1.069927	-0.985595
C56	C	-0.508163	-1.016782	-0.946867
C57	C	-0.508188	-1.016769	-0.864320
C58	C	-0.348172	-1.176219	-1.063052
C59	C	-0.454800	-1.069942	-1.068147
C60	C	-0.401684	-1.122945	-0.194738
C61	C	-0.401473	-1.123089	-0.106872
H62	H	-0.886361	-1.188910	-0.334303
O63	O	-0.927712	-1.043210	-0.479806
H64	H	-0.882905	-1.010125	-0.512815
H65	H	-0.498337	-1.026613	-0.706410
H66	H	-0.551959	-0.541253	-0.549335
O67	O	-0.237433	-1.286607	-0.806868
H68	H	-0.200335	-1.323557	-0.847663
O69	O	-0.237351	-0.545446	-0.236873
H70	H	-0.251567	-0.560595	-0.175499
O71	O	-0.290710	-0.838288	-0.289867
H72	H	-0.253600	-0.797497	-0.252995
O73	O	-0.237327	-0.717017	-0.236857
H74	H	-0.194953	-0.756689	-0.270266
H75	H	-0.304883	-1.219406	-0.697175
O76	O	-0.237365	-1.286650	-0.978446
H77	H	-0.246294	-1.277733	-1.043209
H78	H	-0.304741	-1.219483	-1.094580
H79	H	-0.304867	-0.429276	-0.303936
H80	H	-0.498584	-0.419990	-0.496324
H81	H	-0.551946	-0.691015	-0.549337
H82	H	-0.498208	-1.026680	-1.103820
H83	H	-0.498533	-0.817404	-0.496294
H84	H	-0.551556	-0.973520	-0.982556
H85	H	-0.551610	-0.973500	-0.832780
