data_functionalizedCrystal
_audit_creation_method	'MofGen! by Chris Wilmer'
_symmetry_space_group_name_H-M	'P1'
_symmetry_Int_Tables_number	1
_symmetry_cell_setting	triclinic
loop_
_symmetry_equiv_pos_as_xyz
  x,y,z
_cell_length_a	12.827892
_cell_length_b	18.215407
_cell_length_c	18.215399
_cell_angle_alpha	90.016824
_cell_angle_beta	89.973753
_cell_angle_gamma	89.984160
loop_
_atom_site_label
_atom_site_type_symbol
_atom_site_fract_x
_atom_site_fract_y
_atom_site_fract_z
Zn1	Zn	-0.416006	-1.125099	-0.416137
Zn2	Zn	-0.590773	-1.125034	-0.293079
Zn3	Zn	-0.416048	-1.002038	-0.293084
Zn4	Zn	-0.590707	-1.002017	-0.416104
O5	O	-0.503384	-1.063547	-0.354601
O6	O	-0.439200	-1.228074	-0.399825
O7	O	-0.567640	-1.108700	-0.190096
O8	O	-0.269806	-1.018398	-0.309423
O9	O	-0.567600	-1.228027	-0.309415
O10	O	-0.269776	-1.108810	-0.399829
O11	O	-0.439270	-1.018335	-0.190099
O12	O	-0.439207	-0.899051	-0.309392
O13	O	-0.567488	-1.018363	-0.519093
O14	O	-0.567528	-0.899036	-0.399774
O15	O	-0.439136	-1.108790	-0.519117
O16	O	-0.737000	-1.108680	-0.309383
O17	O	-0.736952	-1.018300	-0.399769
C18	C	-0.503366	-0.872341	-0.354580
C19	C	-0.503383	-0.790542	-0.354589
C20	C	-0.774894	-1.063501	-0.354588
C21	C	-0.891047	-1.063549	-0.354607
C22	C	-0.503300	-1.063582	-0.546554
C23	C	-0.503265	-1.063596	-0.628353
C24	C	-0.942821	-1.108324	-0.309931
C25	C	-1.062871	-1.108375	-0.309950
C26	C	-0.230814	-1.063613	-0.354630
C27	C	-0.114660	-1.063641	-0.354643
C28	C	-0.503402	-1.255500	-0.354623
C29	C	-0.503410	-1.337299	-0.354632
C30	C	-0.570305	-0.602359	-0.401592
C31	C	-0.570309	-0.525501	-0.401601
C32	C	-0.436481	-0.525486	-0.307627
C33	C	-0.436473	-0.602344	-0.307622
C34	C	-0.503391	-0.640778	-0.354603
C35	C	-0.503402	-0.487062	-0.354617
C36	C	-0.503405	-0.403729	-0.354627
C37	C	-0.503387	-0.724117	-0.354595
C38	C	-0.436377	-1.016583	-0.816550
C39	C	-0.436356	-1.016596	-0.893409
C40	C	-0.570027	-1.110698	-0.893394
C41	C	-0.570053	-1.110681	-0.816537
C42	C	-0.503222	-1.063625	-0.778117
C43	C	-0.503175	-1.063654	-0.931833
C44	C	-0.503153	-1.063669	-1.015167
C45	C	-0.503245	-1.063609	-0.694778
C46	C	-0.503391	-1.063555	-0.163395
C47	C	-0.503133	-1.063682	-0.081597
H48	H	-0.898272	-1.146625	-0.271671
H49	H	-0.382000	-0.494184	-0.269375
O50	O	-1.061607	-1.017800	-0.400202
C51	C	-1.028179	-0.892605	-0.435820
C52	C	-1.088317	-0.944435	-0.384167
H53	H	-1.049769	-0.833279	-0.422885
H54	H	-0.940809	-0.900648	-0.427673
H55	H	-1.049494	-0.905528	-0.495185
H56	H	-1.067090	-0.931544	-0.324783
H57	H	-1.175672	-0.936382	-0.392377
H58	H	-0.624490	-1.148989	-0.785244
O59	O	-0.944300	-1.017961	-0.400294
C60	C	-1.067524	-1.008132	-0.499617
C61	C	-1.007302	-1.059843	-0.447909
H62	H	-1.118459	-1.041974	-0.538137
H63	H	-1.118778	-0.969739	-0.465810
H64	H	-1.009852	-0.974395	-0.533217
H65	H	-1.064899	-1.093628	-0.414298
H66	H	-0.956033	-1.098188	-0.481758
H67	H	-0.381977	-0.633625	-0.269358
O68	O	-0.634840	-1.156385	-0.930831
C69	C	-0.694087	-1.198086	-1.049227
C70	C	-0.620617	-1.146318	-1.006925
H71	H	-0.682629	-1.189954	-1.110756
H72	H	-0.675743	-1.257445	-1.034177
H73	H	-0.778344	-1.185148	-1.034058
H74	H	-0.536336	-1.159190	-1.022071
H75	H	-0.639050	-1.086975	-1.021978
H76	H	-0.624792	-0.633650	-0.439849
O77	O	-0.371436	-0.970800	-0.779342
C78	C	-0.238818	-0.877489	-0.787472
C79	C	-0.312325	-0.929293	-0.829698
H80	H	-0.190992	-0.843928	-0.828166
H81	H	-0.286760	-0.838942	-0.751500
H82	H	-0.184231	-0.911288	-0.751479
H83	H	-0.366927	-0.895553	-0.865731
H84	H	-0.264318	-0.967842	-0.865624
O85	O	-0.635410	-0.488295	-0.447267
C86	C	-0.768106	-0.496425	-0.540505
C87	C	-0.694449	-0.538651	-0.488809
H88	H	-0.815843	-0.537120	-0.574116
H89	H	-0.822762	-0.460440	-0.506692
H90	H	-0.720182	-0.460445	-0.579015
H91	H	-0.742289	-0.574670	-0.450289
H92	H	-0.639790	-0.574590	-0.522668
H93	H	-0.381926	-0.978290	-0.924698
H94	H	-1.107395	-1.146707	-0.271699
