data_functionalizedCrystal
_audit_creation_method	'MofGen! by Chris Wilmer'
_symmetry_space_group_name_H-M	'P1'
_symmetry_Int_Tables_number	1
_symmetry_cell_setting	triclinic
loop_
_symmetry_equiv_pos_as_xyz
  x,y,z
_cell_length_a	13.032831
_cell_length_b	12.759400
_cell_length_c	12.759393
_cell_angle_alpha	90.031769
_cell_angle_beta	97.192589
_cell_angle_gamma	82.819639
loop_
_atom_site_label
_atom_site_type_symbol
_atom_site_fract_x
_atom_site_fract_y
_atom_site_fract_z
Zn1	Zn	1.597734	-0.622486	0.797712
Zn2	Zn	2.097734	-0.122486	1.297712
Zn3	Zn	1.597632	-0.798193	0.622019
Zn4	Zn	2.097632	-0.298193	1.122019
Zn5	Zn	1.422970	-0.600196	0.599767
Zn6	Zn	1.922970	-0.100196	1.099767
Zn7	Zn	1.422955	-0.775777	0.775387
Zn8	Zn	1.922955	-0.275777	1.275387
O9	O	1.510323	-0.699163	0.698721
O10	O	2.010323	-0.199163	1.198721
O11	O	1.743962	-0.664504	0.793062
O12	O	2.243962	-0.164504	1.293062
O13	O	1.574426	-0.771981	0.472042
O14	O	2.074426	-0.271981	0.972042
O15	O	1.446201	-0.456138	0.626055
O16	O	1.946201	0.043862	1.126055
O17	O	1.743887	-0.793595	0.663981
O18	O	2.243887	-0.293595	1.163981
O19	O	1.574599	-0.472515	0.771484
O20	O	2.074599	0.027485	1.271484
O21	O	1.446103	-0.626514	0.455693
O22	O	1.946103	-0.126514	0.955693
O23	O	1.276726	-0.604778	0.604408
O24	O	1.776726	-0.104778	1.104408
O25	O	1.446176	-0.755390	0.925374
O26	O	1.946176	-0.255390	1.425374
O27	O	1.276715	-0.733776	0.733435
O28	O	1.776715	-0.233776	1.233435
O29	O	1.574585	-0.642768	0.941776
O30	O	2.074585	-0.142768	1.441776
O31	O	1.574412	-0.942234	0.642333
O32	O	2.074412	-0.442234	1.142333
O33	O	1.446078	-0.925765	0.755012
O34	O	1.946078	-0.425765	1.255012
C35	C	1.238802	-0.664427	0.664085
C36	C	1.738802	-0.164427	1.164085
C37	C	1.122644	-0.649592	0.649292
C38	C	1.622644	-0.149592	1.149292
C39	C	1.070879	-0.706906	0.706442
C40	C	1.570879	-0.206906	1.206442
C41	C	0.950824	-0.691574	0.691154
C42	C	1.450824	-0.191574	1.191154
C43	C	1.510261	-0.972123	0.698691
C44	C	2.010261	-0.472123	1.198691
C45	C	1.510330	-1.088908	0.698726
C46	C	2.010330	-0.588908	1.198726
C47	C	1.577227	-1.152320	0.640138
C48	C	2.077227	-0.652320	1.140138
C49	C	1.577292	-1.262052	0.640178
C50	C	2.077292	-0.762052	1.140178
C51	C	1.443551	-1.244950	0.757397
C52	C	1.943551	-0.744950	1.257397
C53	C	1.443493	-1.135220	0.757362
C54	C	1.943493	-0.635220	1.257362
C55	C	1.644064	-1.106008	0.581502
C56	C	2.144064	-0.606008	1.081502
C57	C	1.710966	-1.169420	0.522908
C58	C	2.210966	-0.669420	1.022908
C59	C	1.711031	-1.279153	0.522949
C60	C	2.211031	-0.779153	1.022949
C61	C	1.644192	-1.325472	0.581583
C62	C	2.144192	-0.825472	1.081583
C63	C	1.782904	-0.734036	0.733494
C64	C	2.282904	-0.234036	1.233494
C65	C	1.899062	-0.748897	0.748312
C66	C	2.399062	-0.248897	1.248312
C67	C	1.510390	-0.699065	0.972763
C68	C	2.010390	-0.199065	1.472763
C69	C	1.510419	-0.699023	1.089544
C70	C	2.010419	-0.199023	1.589544
C71	C	1.510413	-0.425141	0.698778
C72	C	2.010413	0.074859	1.198778
C73	C	1.510452	-0.308370	0.698802
C74	C	2.010452	0.191630	1.198802
C75	C	1.510315	-0.699193	0.425753
C76	C	2.010315	-0.199193	0.925753
C77	C	1.510489	-0.698965	0.308999
C78	C	2.010489	-0.198965	0.808999
C79	C	1.443630	-0.623269	1.135903
C80	C	1.943630	-0.123269	1.635903
C81	C	1.443661	-0.623242	1.245631
C82	C	1.943661	-0.123242	1.745631
C83	C	1.577281	-0.774726	1.262633
C84	C	2.077281	-0.274726	1.762633
C85	C	1.577244	-0.774757	1.152906
C86	C	2.077244	-0.274757	1.652906
C87	C	1.376805	-0.547535	1.072541
C88	C	1.876805	-0.047535	1.572541
C89	C	1.310011	-0.471775	1.118899
C90	C	1.810011	0.028225	1.618899
C91	C	1.310043	-0.471748	1.228627
C92	C	1.810043	0.028252	1.728627
C93	C	1.376869	-0.547481	1.291997
C94	C	1.876869	-0.047481	1.791997
H95	H	1.115442	-0.767321	0.766691
H96	H	1.615442	-0.267321	1.266691
H97	H	1.765390	-1.131702	0.475177
H98	H	2.265390	-0.631702	0.975177
H99	H	1.376886	-0.547455	1.381344
H100	H	1.876886	-0.047455	1.881344
Br101	Br	0.973318	-0.849588	0.848755
Br102	Br	1.473318	-0.349588	1.348755
H103	H	0.906265	-0.631147	0.630908
H104	H	1.406265	-0.131147	1.130908
Br105	Br	1.801836	-1.365212	0.443445
Br106	Br	2.301836	-0.865212	0.943445
Br107	Br	1.667968	-0.877499	1.348633
Br108	Br	2.167968	-0.377499	1.848633
H109	H	1.078081	-0.589168	0.589051
H110	H	1.578081	-0.089168	1.089051
Br111	Br	1.644302	-0.957128	0.581809
Br112	Br	2.144302	-0.457128	1.081809
H113	H	1.644258	-1.414825	0.581621
H114	H	2.144258	-0.914825	1.081621
Br115	Br	1.667880	-0.877574	1.089982
Br116	Br	2.167880	-0.377574	1.589982
H117	H	1.389134	-1.282672	0.805133
H118	H	1.889134	-0.782672	1.305133
H119	H	1.376774	-0.547547	0.983194
H120	H	1.876774	-0.047547	1.483194
Br121	Br	1.352707	-1.049155	0.836881
Br122	Br	1.852707	-0.549155	1.336881
H123	H	1.255598	-0.410121	1.067296
H124	H	1.755598	0.089879	1.567296
H125	H	1.255649	-0.410066	1.266368
H126	H	1.755649	0.089934	1.766368
