data_functionalizedCrystal
_audit_creation_method	'MofGen! by Chris Wilmer'
_symmetry_space_group_name_H-M	'P1'
_symmetry_Int_Tables_number	1
_symmetry_cell_setting	triclinic
loop_
_symmetry_equiv_pos_as_xyz
  x,y,z
_cell_length_a	17.699077
_cell_length_b	15.944493
_cell_length_c	15.021413
_cell_angle_alpha	90.009890
_cell_angle_beta	89.993259
_cell_angle_gamma	83.377810
loop_
_atom_site_label
_atom_site_type_symbol
_atom_site_fract_x
_atom_site_fract_y
_atom_site_fract_z
O1	O	1.004244	0.106188	-0.074009
O2	O	0.783886	0.120013	-0.074012
O3	O	0.900106	-0.009191	-0.074017
O4	O	0.888025	0.235391	-0.074003
O5	O	0.900087	-0.009172	0.074047
O6	O	0.783868	0.120031	0.074053
O7	O	1.004226	0.106206	0.074056
Zn8	Zn	0.894044	0.113122	0.097562
Zn9	Zn	0.894068	0.113097	-0.097519
O10	O	0.888006	0.235410	0.074061
C11	C	0.755679	0.119528	0.000020
C12	C	0.671659	0.118044	0.000018
C13	C	0.632180	0.117355	0.080729
C14	C	0.553235	0.115948	0.080730
C15	C	0.513770	0.115235	0.000019
C16	C	0.553254	0.115922	-0.080698
C17	C	0.632198	0.117323	-0.080698
C18	C	0.234883	0.110269	-0.080700
C19	C	0.155933	0.108870	-0.080694
C20	C	0.155920	0.108894	0.080728
C21	C	0.234864	0.110295	0.080728
C22	C	0.274342	0.110977	0.000011
C23	C	0.359943	0.112501	0.000011
C24	C	0.428170	0.113717	0.000018
C25	C	0.899603	-0.040475	0.000011
C26	C	0.898122	-0.133721	-0.000000
C27	C	0.966532	-0.369626	0.000017
C28	C	0.929650	-0.420125	-0.072986
C29	C	0.895379	-0.304436	0.000010
C30	C	0.929615	-0.420083	0.072994
C31	C	0.892735	-0.469340	0.000025
C32	C	0.858517	-0.353706	-0.073053
C33	C	0.858493	-0.353661	0.072992
C34	C	0.821559	-0.404126	-0.000029
C35	C	0.896905	-0.209439	0.000001
C36	C	0.891204	-0.564334	0.000027
C37	C	1.032433	0.106691	0.000022
C38	C	1.116453	0.108175	0.000018
C39	C	0.888509	0.266694	0.000031
C40	C	0.889990	0.359940	0.000037
N41	N	0.894033	0.113138	0.230700
N42	N	0.894085	0.113075	-0.230656
C43	C	0.840285	0.172854	0.470386
C44	C	0.908673	0.189016	0.529723
C45	C	0.894052	0.113117	0.412307
C46	C	0.825682	0.096973	0.529712
C47	C	0.894065	0.113098	0.587731
C48	C	0.962475	0.129316	0.470337
C49	C	0.879439	0.037242	0.470321
C50	C	0.947877	0.053371	0.529631
C51	C	0.894044	0.113130	0.311250
C52	C	0.894081	0.113085	0.688786
H53	H	0.123802	0.108289	-0.146422
H54	H	0.828493	-0.324830	-0.134838
H55	H	0.828462	-0.324628	0.134713
H56	H	0.993401	0.002843	0.555481
H57	H	0.760223	-0.419462	-0.000070
C58	C	0.675624	0.118083	-0.169486
N59	N	0.708332	0.118653	-0.236364
C60	C	0.862696	-0.049404	0.435039
N61	N	0.850076	-0.114665	0.408461
H62	H	0.959671	-0.449070	0.134708
H63	H	0.794861	0.223412	0.444373
C64	C	0.112488	0.108133	0.169518
N65	N	0.079776	0.107562	0.236394
C66	C	0.278299	0.111012	-0.169490
N67	N	0.311003	0.111569	-0.236372
C68	C	1.049328	-0.348685	-0.000080
N69	N	1.111689	-0.332910	-0.000157
H70	H	0.921044	0.253174	0.555814
H71	H	1.020312	0.143039	0.444366
C72	C	0.747564	0.078534	0.564942
N73	N	0.688723	0.064650	0.591474
H74	H	0.266992	0.110879	0.146451
H75	H	0.521097	0.115373	0.146453
H76	H	0.521116	0.115336	-0.146414
C77	C	0.675585	0.118138	0.169519
N78	N	0.708276	0.118724	0.236398
C79	C	0.970256	-0.459334	-0.156361
N80	N	1.000846	-0.488867	-0.219155
