data_functionalizedCrystal
_audit_creation_method	'MofGen! by Chris Wilmer'
_symmetry_space_group_name_H-M	'P1'
_symmetry_Int_Tables_number	1
_symmetry_cell_setting	triclinic
loop_
_symmetry_equiv_pos_as_xyz
  x,y,z
_cell_length_a	10.654550
_cell_length_b	10.489741
_cell_length_c	9.730223
_cell_angle_alpha	89.995878
_cell_angle_beta	89.999957
_cell_angle_gamma	84.512052
loop_
_atom_site_label
_atom_site_type_symbol
_atom_site_fract_x
_atom_site_fract_y
_atom_site_fract_z
O1	O	1.667923	0.179162	-0.114186
O2	O	1.302452	0.196231	-0.114212
O3	O	1.493504	0.002095	-0.114190
O4	O	1.476872	0.373298	-0.114208
O5	O	1.493491	0.002089	0.114390
O6	O	1.302440	0.196226	0.114368
O7	O	1.667911	0.179157	0.114393
Zn8	Zn	1.485173	0.187690	0.150673
Zn9	Zn	1.485190	0.187697	-0.150491
O10	O	1.476859	0.373293	0.114372
C11	C	1.255648	0.194975	0.000075
C12	C	1.116203	0.191225	0.000066
C13	C	1.036771	0.305530	0.000064
C14	C	0.905748	0.301999	0.000088
C15	C	0.933603	0.069849	0.000110
C16	C	1.064623	0.073381	0.000095
C17	C	1.492241	-0.045439	0.000099
C18	C	1.488483	-0.187067	0.000096
C19	C	1.366923	-0.255148	0.000078
C20	C	1.424341	-0.347301	0.112783
C21	C	1.424382	-0.347270	-0.112579
C22	C	1.545951	-0.277354	0.112895
C23	C	1.545975	-0.277314	-0.112568
C24	C	1.603481	-0.369439	0.000165
C25	C	1.714715	0.180413	0.000104
C26	C	1.854160	0.184162	0.000104
C27	C	1.478122	0.420827	0.000080
C28	C	1.481880	0.562454	0.000074
N29	N	1.485171	0.187685	0.356209
N30	N	1.485201	0.187693	-0.356027
C31	C	1.569798	0.101758	0.428145
C32	C	1.569811	0.101758	0.572028
C33	C	1.400566	0.273624	0.572027
C34	C	1.400548	0.273616	0.428147
H35	H	0.891590	-0.026096	0.000142
C36	C	1.229928	0.299695	0.733871
C37	C	1.307562	0.368083	0.651113
H38	H	1.172519	0.358015	0.782699
H39	H	1.184269	0.246181	0.677758
H40	H	1.280349	0.248524	0.797298
H41	H	1.257142	0.419247	0.587678
H42	H	1.353225	0.421620	0.707231
H43	H	1.129300	-0.019705	0.000100
C44	C	1.417421	-0.352018	-0.359160
C45	C	1.354939	-0.389059	-0.241213
H46	H	1.374547	-0.377821	-0.438566
H47	H	1.418636	-0.261598	-0.359630
H48	H	1.501451	-0.391534	-0.359281
H49	H	1.270912	-0.349536	-0.241086
H50	H	1.353710	-0.479497	-0.240742
H51	H	1.372900	-0.378290	0.208061
C52	C	1.233261	0.443516	0.442587
C53	C	1.307522	0.368079	0.349064
H54	H	1.175838	0.501832	0.393761
H55	H	1.187617	0.389996	0.498718
H56	H	1.285967	0.489899	0.498693
H57	H	1.254817	0.321689	0.292965
H58	H	1.353169	0.421606	0.292910
H59	H	1.638720	0.031787	0.630593
C60	C	0.996073	0.534644	0.000062
C61	C	1.093469	0.435062	0.000050
H62	H	1.031076	0.614612	0.000066
H63	H	0.945546	0.528441	-0.079638
H64	H	0.945556	0.528422	0.079784
H65	H	1.143981	0.441278	-0.079677
H66	H	1.144017	0.441268	0.079759
C67	C	1.618155	-0.102604	0.240551
C68	C	1.615313	-0.235780	0.241677
H69	H	1.660966	-0.076938	0.320061
H70	H	1.661056	-0.078098	0.160633
H71	H	1.534367	-0.062460	0.240220
H72	H	1.699102	-0.275924	0.241998
H73	H	1.572415	-0.260299	0.321617
C74	C	1.145285	-0.280273	0.001515
C75	C	1.232003	-0.188049	0.000219
H76	H	1.061995	-0.238846	0.001616
H77	H	1.157202	-0.332820	-0.077797
H78	H	1.157836	-0.331686	0.081619
H79	H	1.219458	-0.136642	-0.079891
H80	H	1.220081	-0.135481	0.079538
H81	H	0.841079	0.395078	0.000090
H82	H	1.703517	-0.418912	0.000234
C83	C	1.619122	-0.102366	-0.239118
C84	C	1.615361	-0.235418	-0.241190
H85	H	1.661957	-0.076502	-0.318528
H86	H	1.535568	-0.061663	-0.238321
H87	H	1.662411	-0.078702	-0.159105
H88	H	1.572063	-0.259081	-0.321198
H89	H	1.698930	-0.276136	-0.242000
H90	H	1.638702	0.031785	0.369576
