data_functionalizedCrystal
_audit_creation_method	'MofGen! by Chris Wilmer'
_symmetry_space_group_name_H-M	'P1'
_symmetry_Int_Tables_number	1
_symmetry_cell_setting	triclinic
loop_
_symmetry_equiv_pos_as_xyz
  x,y,z
_cell_length_a	12.759401
_cell_length_b	12.759400
_cell_length_c	12.759393
_cell_angle_alpha	90.030447
_cell_angle_beta	90.018496
_cell_angle_gamma	90.013326
loop_
_atom_site_label
_atom_site_type_symbol
_atom_site_fract_x
_atom_site_fract_y
_atom_site_fract_z
Zn1	Zn	1.606267	-0.418200	0.593990
Zn2	Zn	1.606166	-0.593919	0.418313
Zn3	Zn	1.430569	-0.418255	0.418329
Zn4	Zn	1.430562	-0.593838	0.593955
O5	O	1.518391	-0.506053	0.506147
O6	O	1.753274	-0.441520	0.570694
O7	O	1.582833	-0.570673	0.271294
O8	O	1.453920	-0.271226	0.441652
O9	O	1.753200	-0.570620	0.441625
O10	O	1.583005	-0.271186	0.570709
O11	O	1.453822	-0.441614	0.271306
O12	O	1.283547	-0.441535	0.441618
O13	O	1.453909	-0.570482	0.740980
O14	O	1.283542	-0.570536	0.570649
O15	O	1.582998	-0.441442	0.741006
O16	O	1.582826	-0.740929	0.441591
O17	O	1.453811	-0.740870	0.570634
C18	C	1.245423	-0.506033	0.506132
C19	C	1.128647	-0.506050	0.506151
C20	C	1.518336	-0.779020	0.506130
C21	C	1.518408	-0.895797	0.506158
C22	C	1.073810	-0.573328	0.573227
C23	C	0.964086	-0.573342	0.573238
C24	C	0.964045	-0.438796	0.439089
C25	C	1.073767	-0.438778	0.439084
C26	C	1.073832	-0.651010	0.650673
C27	C	0.964108	-0.651024	0.650685
C28	C	1.585589	-0.950558	0.573413
C29	C	1.585638	-1.060282	0.573439
C30	C	1.451322	-1.060474	0.438945
C31	C	1.451269	-0.950752	0.438926
C32	C	1.663138	-0.950448	0.651059
C33	C	1.663187	-1.060172	0.651084
C34	C	1.792424	-0.506073	0.506161
C35	C	1.909201	-0.506082	0.506168
C36	C	1.518464	-0.505947	0.780180
C37	C	1.518496	-0.505902	0.896957
C38	C	1.518475	-0.232019	0.506186
C39	C	1.518510	-0.115243	0.506203
C40	C	1.518378	-0.506083	0.233179
C41	C	1.518550	-0.505832	0.116403
C42	C	1.585722	-0.438704	0.951834
C43	C	1.585747	-0.438666	1.061558
C44	C	1.451316	-0.573033	1.061518
C45	C	1.451287	-0.573064	0.951796
C46	C	1.663337	-0.361131	0.951858
C47	C	1.663362	-0.361093	1.061582
H48	H	0.919349	-0.384025	0.384487
C49	C	1.773092	-1.210069	0.621782
C50	C	1.773059	-1.100328	0.621749
H51	H	1.840921	-1.234857	0.603675
H52	H	1.723493	-1.234944	0.572122
H53	H	1.754901	-1.234831	0.689580
H54	H	1.791242	-1.075566	0.553949
H55	H	1.822674	-1.075443	0.671412
C56	C	1.597914	-1.024314	0.823897
C57	C	1.623819	-1.106076	0.755407
H58	H	1.573614	-1.052657	0.888299
H59	H	1.544415	-0.982478	0.793438
H60	H	1.658153	-0.982366	0.836415
H61	H	1.563577	-1.148020	0.742882
H62	H	1.677322	-1.147929	0.785871
C63	C	1.197108	-0.423974	0.297785
C64	C	1.134046	-0.364817	0.365361
H65	H	1.234324	-0.378308	0.252275
H66	H	1.154286	-0.469694	0.257518
H67	H	1.245494	-0.464027	0.337735
H68	H	1.085654	-0.324769	0.325411
H69	H	1.176871	-0.319078	0.405632
C70	C	1.799931	-0.490478	1.065216
C71	C	1.773199	-0.390518	1.101804
H72	H	1.867733	-0.508643	1.090056
H73	H	1.799922	-0.490501	0.990775
H74	H	1.750273	-0.540085	1.090020
H75	H	1.822853	-0.340910	1.076993
H76	H	1.773217	-0.390488	1.176260
C77	C	1.175070	-0.530695	0.754175
C78	C	1.114090	-0.621721	0.760562
H79	H	1.199929	-0.512621	0.822014
H80	H	1.133703	-0.474986	0.727255
H81	H	1.232945	-0.542756	0.708937
H82	H	1.056210	-0.609658	0.805794
H83	H	1.155458	-0.677443	0.787496
H84	H	1.396595	-0.627712	1.106182
H85	H	1.396541	-0.627780	0.907119
C86	C	1.038019	-0.823805	0.585200
C87	C	1.119764	-0.755297	0.611151
H88	H	1.066378	-0.888187	0.560805
H89	H	0.996108	-0.793339	0.531759
H90	H	0.996141	-0.836362	0.645444
H91	H	1.161636	-0.742733	0.550905
H92	H	1.161692	-0.785768	0.664596
C93	C	1.616127	-0.184654	0.997050
C94	C	1.633936	-0.251301	0.911675
H95	H	1.597969	-0.116855	0.972240
H96	H	1.677880	-0.180221	1.038406
H97	H	1.560439	-0.211682	1.038394
H98	H	1.689629	-0.224277	0.870335
H99	H	1.572176	-0.255730	0.870302
C100	C	1.749069	-0.842765	0.522946
C101	C	1.767477	-0.904451	0.611794
H102	H	1.813484	-0.814375	0.498702
H103	H	1.702547	-0.787352	0.540436
H104	H	1.718705	-0.884740	0.469439
H105	H	1.797833	-0.862473	0.665305
H106	H	1.814016	-0.959871	0.594308
H107	H	0.934314	-0.732373	0.628754
C108	C	0.952123	-0.676876	0.836680
C109	C	0.918201	-0.611818	0.755102
H110	H	0.923775	-0.652671	0.901138
H111	H	1.026468	-0.675526	0.840224
H112	H	0.929112	-0.746552	0.824011
H113	H	0.941218	-0.542142	0.767768
H114	H	0.843840	-0.613157	0.751559
H115	H	1.396556	-0.906166	0.384171
C116	C	1.812463	-0.321651	0.844146
C117	C	1.767649	-0.400498	0.905894
H118	H	1.876856	-0.345961	0.815765
H119	H	1.824985	-0.261397	0.886069
H120	H	1.765945	-0.304135	0.788717
H121	H	1.814164	-0.418008	0.961328
H122	H	1.755132	-0.460770	0.863969
C123	C	1.391761	-1.228756	0.379260
C124	C	1.377531	-1.120885	0.365040
H125	H	1.346208	-1.266047	0.333627
H126	H	1.376355	-1.246690	0.449833
H127	H	1.462371	-1.246690	0.363944
H128	H	1.306923	-1.102949	0.380363
H129	H	1.392930	-1.102944	0.294451
H130	H	1.641291	-0.920630	0.732406
H131	H	1.634247	-0.283784	1.095628
