data_functionalizedCrystal
_audit_creation_method	'MofGen! by Chris Wilmer'
_symmetry_space_group_name_H-M	'P1'
_symmetry_Int_Tables_number	1
_symmetry_cell_setting	triclinic
loop_
_symmetry_equiv_pos_as_xyz
  x,y,z
_cell_length_a	16.959455
_cell_length_b	18.101395
_cell_length_c	16.959447
_cell_angle_alpha	89.971805
_cell_angle_beta	89.982031
_cell_angle_gamma	90.028051
loop_
_atom_site_label
_atom_site_type_symbol
_atom_site_fract_x
_atom_site_fract_y
_atom_site_fract_z
Zn1	Zn	1.208352	-0.294885	-0.446913
Zn2	Zn	1.708352	0.205115	0.053087
Zn3	Zn	1.208240	-0.418735	-0.314737
Zn4	Zn	1.708240	0.081265	0.185263
Zn5	Zn	1.076172	-0.294905	-0.314751
Zn6	Zn	1.576172	0.205095	0.185249
Zn7	Zn	1.076119	-0.418682	-0.446875
Zn8	Zn	1.576119	0.081318	0.053125
O9	O	1.142221	-0.356802	-0.380819
O10	O	1.642221	0.143198	0.119181
O11	O	1.318948	-0.311327	-0.429390
O12	O	1.818948	0.188673	0.070610
O13	O	1.190696	-0.402339	-0.204128
O14	O	1.690696	0.097661	0.295872
O15	O	1.093774	-0.191269	-0.332304
O16	O	1.593774	0.308731	0.167696
O17	O	1.318866	-0.402319	-0.332280
O18	O	1.818866	0.097681	0.167720
O19	O	1.190886	-0.191254	-0.429404
O20	O	1.690886	0.308746	0.070596
O21	O	1.093666	-0.311362	-0.204138
O22	O	1.593666	0.188638	0.295862
O23	O	0.965554	-0.311311	-0.332267
O24	O	1.465554	0.188689	0.167733
O25	O	1.093685	-0.402230	-0.557491
O26	O	1.593685	0.097770	-0.057491
O27	O	0.965515	-0.402250	-0.429339
O28	O	1.465515	0.097750	0.070661
O29	O	1.190835	-0.311276	-0.557519
O30	O	1.690835	0.188724	-0.057519
O31	O	1.190646	-0.522361	-0.332243
O32	O	1.690646	-0.022361	0.167757
O33	O	1.093577	-0.522322	-0.429325
O34	O	1.593577	-0.022322	0.070675
C35	C	0.936854	-0.356777	-0.380801
C36	C	1.436854	0.143223	0.119199
C37	C	0.848998	-0.356785	-0.380812
C38	C	1.348998	0.143215	0.119188
C39	C	1.142115	-0.549212	-0.380796
C40	C	1.642115	-0.049212	0.119204
C41	C	1.142142	-0.631526	-0.380812
C42	C	1.642142	-0.131526	0.119188
C43	C	0.477518	-0.309411	-0.330380
C44	C	0.977518	0.190589	0.169620
C45	C	0.477527	-0.404253	-0.431304
C46	C	0.977527	0.095747	0.068696
C47	C	0.560072	-0.404243	-0.431299
C48	C	1.060072	0.095757	0.068701
C49	C	0.601345	-0.356816	-0.380833
C50	C	1.101345	0.143184	0.119167
C51	C	0.560071	-0.309401	-0.330372
C52	C	1.060071	0.190599	0.169628
C53	C	0.601352	-0.451663	-0.481754
C54	C	1.101352	0.048337	0.018246
C55	C	0.683903	-0.451654	-0.481750
C56	C	1.183903	0.048346	0.018250
C57	C	0.725177	-0.404224	-0.431287
C58	C	1.225177	0.095776	0.068713
C59	C	0.683898	-0.356806	-0.380825
C60	C	1.183898	0.143194	0.119175
C61	C	0.725171	-0.309380	-0.330359
C62	C	1.225171	0.190620	0.169641
C63	C	0.683894	-0.261957	-0.279899
C64	C	1.183894	0.238043	0.220101
C65	C	0.601345	-0.261970	-0.279909
C66	C	1.101345	0.238030	0.220091
C67	C	0.807725	-0.404211	-0.431278
C68	C	1.307725	0.095789	0.068722
C69	C	0.807724	-0.309369	-0.330351
C70	C	1.307724	0.190631	0.169649
C71	C	1.142315	-0.930617	-0.380855
C72	C	1.642315	-0.430617	0.119145
C73	C	1.081384	-0.899299	-0.442088
C74	C	1.581384	-0.399299	0.057912
C75	C	1.081095	-0.813681	-0.441896
C76	C	1.581095	-0.313681	0.058104
C77	C	1.142229	-0.782235	-0.380834
C78	C	1.642229	-0.282235	0.119166
C79	C	1.119677	-0.813386	-0.297530
C80	C	1.619677	-0.313386	0.202470
C81	C	1.119285	-0.899031	-0.297896
C82	C	1.619285	-0.399031	0.202104
C83	C	1.225932	-0.898965	-0.402193
C84	C	1.725932	-0.398965	0.097807
C85	C	1.225441	-0.813314	-0.404020
C86	C	1.725441	-0.313314	0.095980
C87	C	1.142182	-0.698375	-0.380818
C88	C	1.642182	-0.198375	0.119182
C89	C	1.142361	-1.014477	-0.380866
C90	C	1.642361	-0.514477	0.119134
C91	C	1.348389	-0.356827	-0.380838
C92	C	1.848389	0.143173	0.119162
C93	C	1.436245	-0.356837	-0.380846
C94	C	1.936245	0.143163	0.119154
C95	C	1.142267	-0.356745	-0.586987
C96	C	1.642267	0.143255	-0.086987
C97	C	1.142286	-0.356720	-0.674844
C98	C	1.642286	0.143280	-0.174844
C99	C	1.142348	-0.163640	-0.380860
C100	C	1.642348	0.336360	0.119140
C101	C	1.142403	-0.081326	-0.380877
C102	C	1.642403	0.418674	0.119123
C103	C	1.192816	-0.404076	-0.716114
C104	C	1.692816	0.095924	-0.216114
C105	C	1.091771	-0.309346	-0.716127
C106	C	1.591771	0.190654	-0.216127
C107	C	1.091784	-0.309325	-0.798673
C108	C	1.591784	0.190675	-0.298673
C109	C	1.142313	-0.356680	-0.839944
C110	C	1.642313	0.143320	-0.339944
C111	C	1.192829	-0.404057	-0.798668
C112	C	1.692829	0.095943	-0.298668
C113	C	1.041264	-0.261954	-0.839955
C114	C	1.541264	0.238046	-0.339955
C115	C	1.041275	-0.261931	-0.922506
C116	C	1.541275	0.238069	-0.422506
C117	C	1.091809	-0.309283	-0.963778
C118	C	1.591809	0.190717	-0.463778
C119	C	1.142327	-0.356661	-0.922497
C120	C	1.642327	0.143339	-0.422497
C121	C	1.192856	-0.404016	-0.963767
C122	C	1.692856	0.095984	-0.463767
C123	C	1.243379	-0.451392	-0.922488
C124	C	1.743379	0.048608	-0.422488
C125	C	1.243363	-0.451409	-0.839940
C126	C	1.743363	0.048591	-0.339940
C127	C	1.091825	-0.309266	-1.046326
C128	C	1.591825	0.190734	-0.546326
C129	C	1.192870	-0.403998	-1.046321
C130	C	1.692870	0.096002	-0.546321
C131	C	1.142220	-0.356805	-0.175453
C132	C	1.642220	0.143195	0.324547
C133	C	1.142354	-0.356621	-0.087597
C134	C	1.642354	0.143379	0.412403
H135	H	0.717509	-0.223346	-0.238806
H136	H	1.217509	0.276654	0.261194
N137	N	0.989663	-0.213538	-0.964656
N138	N	1.489663	0.286462	-0.464656
N139	N	0.944551	-0.171263	-0.927797
N140	N	1.444551	0.328737	-0.427797
H141	H	0.908100	-0.137083	-0.957565
H142	H	1.408100	0.362917	-0.457565
N143	N	1.244476	-0.452382	-1.088472
N144	N	1.744476	0.047618	-0.588472
N145	N	1.216645	-0.499567	-1.134512
N146	N	1.716645	0.000433	-0.634512
H147	H	1.253092	-0.533740	-1.164281
H148	H	1.753092	-0.033740	-0.664281
H149	H	1.284517	-0.489951	-0.956101
H150	H	1.784517	0.010049	-0.456101
H151	H	1.000120	-0.223405	-0.806347
H152	H	1.500120	0.276595	-0.306347
N153	N	1.294969	-0.499793	-0.797773
N154	N	1.794969	0.000207	-0.297773
N155	N	1.345343	-0.473754	-0.751719
N156	N	1.845343	0.026246	-0.251719
H157	H	1.381788	-0.507926	-0.721935
H158	H	1.881788	-0.007926	-0.221935
H159	H	1.242447	-0.792951	-0.465328
H160	H	1.742447	-0.292951	0.034672
N161	N	1.040224	-0.260870	-1.088480
N162	N	1.540224	0.239130	-0.588480
N163	N	1.045501	-0.192537	-1.079274
N164	N	1.545501	0.307463	-0.579274
H165	H	1.009056	-0.158353	-1.109044
H166	H	1.509056	0.341647	-0.609044
N167	N	0.849868	-0.260911	-0.278802
N168	N	1.349868	0.239089	0.221198
N169	N	0.813002	-0.218574	-0.233761
N170	N	1.313002	0.281426	0.266239
H171	H	0.842765	-0.184349	-0.197355
H172	H	1.342765	0.315651	0.302645
N173	N	0.559170	-0.213538	-0.228375
N174	N	1.059170	0.286462	0.271625
N175	N	0.485466	-0.213559	-0.228389
N176	N	0.985466	0.286441	0.271611
H177	H	0.455676	-0.179355	-0.191993
H178	H	0.955676	0.320645	0.308007
N179	N	0.435348	-0.260972	-0.278849
N180	N	0.935348	0.239028	0.221151
N181	N	0.361644	-0.260981	-0.278864
N182	N	0.861644	0.239019	0.221136
H183	H	0.331860	-0.226770	-0.242471
H184	H	0.831860	0.273230	0.257529
N185	N	0.726050	-0.500098	-0.533294
N186	N	1.226050	-0.000098	-0.033294
N187	N	0.689190	-0.542440	-0.578347
N188	N	1.189190	-0.042440	-0.078347
H189	H	0.718956	-0.576653	-0.614752
H190	H	1.218956	-0.076653	-0.114752
H191	H	1.095354	-0.919846	-0.504057
H192	H	1.595354	-0.419846	-0.004057
H193	H	1.059201	-0.791999	-0.279130
H194	H	1.559201	-0.291999	0.220870
N195	N	1.004096	-0.926362	-0.424599
N196	N	1.504096	-0.426362	0.075401
N197	N	0.967543	-0.963869	-0.474518
N198	N	1.467543	-0.463869	0.025482
H199	H	0.912958	-0.982982	-0.462166
H200	H	1.412958	-0.482982	0.037834
H201	H	0.443918	-0.442870	-0.472386
H202	H	0.943918	0.057130	0.027614
N203	N	0.849890	-0.452657	-0.482801
N204	N	1.349890	0.047343	0.017199
N205	N	0.840646	-0.520987	-0.477421
N206	N	1.340646	-0.020987	0.022579
H207	H	0.870425	-0.555205	-0.513811
H208	H	1.370425	-0.055205	-0.013811
N209	N	0.559183	-0.500102	-0.533292
N210	N	1.059183	-0.000102	-0.033292
N211	N	0.485479	-0.500099	-0.533293
N212	N	0.985479	-0.000099	-0.033293
H213	H	0.455693	-0.534309	-0.569696
H214	H	0.955693	-0.034309	-0.069696
N215	N	1.098796	-0.787262	-0.519387
N216	N	1.598796	-0.287262	-0.019387
N217	N	1.111450	-0.832077	-0.573990
N218	N	1.611450	-0.332077	-0.073990
H219	H	1.123949	-0.813423	-0.628723
H220	H	1.623949	-0.313423	-0.128723
N221	N	1.172533	-0.925035	-0.238709
N222	N	1.672533	-0.425035	0.261291
N223	N	1.229865	-0.964625	-0.257612
N224	N	1.729865	-0.464625	0.242388
H225	H	1.267468	-0.982986	-0.215807
H226	H	1.767468	-0.482986	0.284193
N227	N	1.244421	-0.452457	-0.673942
N228	N	1.744421	0.047543	-0.173942
N229	N	1.244410	-0.452467	-0.600238
N230	N	1.744410	0.047533	-0.100238
H231	H	1.280856	-0.486636	-0.570452
H232	H	1.780856	0.013364	-0.070452
N233	N	1.003340	-0.788062	-0.424167
N234	N	1.503340	-0.288062	0.075833
N235	N	0.949120	-0.833435	-0.411891
N236	N	1.449120	-0.333435	0.088109
H237	H	0.894202	-0.815343	-0.399367
H238	H	1.394202	-0.315343	0.100633
N239	N	1.040172	-0.260978	-0.673957
N240	N	1.540172	0.239022	-0.173957
N241	N	1.068011	-0.213807	-0.627906
N242	N	1.568011	0.286193	-0.127906
H243	H	1.031570	-0.179644	-0.598118
H244	H	1.531570	0.320356	-0.098118
N245	N	1.042606	-0.924165	-0.275214
N246	N	1.542606	-0.424165	0.224786
N247	N	0.989753	-0.878454	-0.259226
N248	N	1.489753	-0.378454	0.240774
H249	H	0.935596	-0.896201	-0.243206
H250	H	1.435596	-0.396201	0.256794
N251	N	1.173605	-0.787836	-0.238741
N252	N	1.673605	-0.287836	0.261259
N253	N	1.229393	-0.746282	-0.257629
N254	N	1.729393	-0.246282	0.242371
H255	H	1.267482	-0.728236	-0.216111
H256	H	1.767482	-0.228236	0.283889
N257	N	1.251721	-0.926004	-0.477097
N258	N	1.751721	-0.426004	0.022903
N259	N	1.208780	-0.968938	-0.515666
N260	N	1.708780	-0.468938	-0.015666
H261	H	1.226986	-0.988037	-0.568569
H262	H	1.726986	-0.488037	-0.068569
H263	H	1.271328	-0.919218	-0.357595
H264	H	1.771328	-0.419218	0.142405
N265	N	1.285407	-0.786453	-0.352155
N266	N	1.785407	-0.286453	0.147845
N267	N	1.297726	-0.718572	-0.346525
N268	N	1.797726	-0.218572	0.153475
H269	H	1.340074	-0.699602	-0.309888
H270	H	1.840074	-0.199602	0.190112
