data_functionalizedCrystal
_audit_creation_method	'MofGen! by Chris Wilmer'
_symmetry_space_group_name_H-M	'P1'
_symmetry_Int_Tables_number	1
_symmetry_cell_setting	triclinic
loop_
_symmetry_equiv_pos_as_xyz
  x,y,z
_cell_length_a	14.853566
_cell_length_b	10.540510
_cell_length_c	13.330367
_cell_angle_alpha	89.997867
_cell_angle_beta	89.995295
_cell_angle_gamma	84.073862
loop_
_atom_site_label
_atom_site_type_symbol
_atom_site_fract_x
_atom_site_fract_y
_atom_site_fract_z
O1	O	1.197277	0.165722	-0.083352
O2	O	1.697277	0.665722	0.416648
O3	O	0.934925	0.185466	-0.083367
O4	O	1.434925	0.685466	0.416633
O5	O	1.072100	-0.009181	-0.083359
O6	O	1.572100	0.490819	0.416641
O7	O	1.060101	0.360369	-0.083360
O8	O	1.560101	0.860369	0.416640
O9	O	1.072080	-0.009185	0.083488
O10	O	1.572080	0.490815	0.583488
O11	O	0.934905	0.185462	0.083480
O12	O	1.434905	0.685462	0.583480
O13	O	1.197256	0.165718	0.083496
O14	O	1.697256	0.665718	0.583496
Cu15	Cu	1.066079	0.175589	0.098722
Cu16	Cu	1.566079	0.675589	0.598722
Cu17	Cu	1.066103	0.175595	-0.098594
Cu18	Cu	1.566103	0.675595	0.401406
O19	O	1.060081	0.360365	0.083487
O20	O	1.560081	0.860365	0.583487
C21	C	0.901321	0.184570	0.000054
C22	C	1.401321	0.684570	0.500054
C23	C	0.801223	0.181890	0.000048
C24	C	1.301223	0.681890	0.500048
C25	C	0.377987	0.170557	-0.090883
C26	C	0.877987	0.670557	0.409117
C27	C	0.377986	0.170553	0.091020
C28	C	0.877986	0.670553	0.591020
C29	C	0.472034	0.173069	0.091017
C30	C	0.972034	0.673069	0.591017
C31	C	0.519063	0.174332	0.000063
C32	C	1.019063	0.674332	0.500063
C33	C	0.472043	0.173077	-0.090889
C34	C	0.972043	0.673077	0.409111
C35	C	0.519060	0.174337	0.181967
C36	C	1.019060	0.674337	0.681967
C37	C	0.613113	0.176855	0.181967
C38	C	1.113113	0.676855	0.681967
C39	C	0.660144	0.178108	0.091012
C40	C	1.160144	0.678108	0.591012
C41	C	0.613119	0.176852	0.000057
C42	C	1.113119	0.676852	0.500057
C43	C	0.660147	0.178115	-0.090898
C44	C	1.160147	0.678115	0.409102
C45	C	0.613125	0.176850	-0.181854
C46	C	1.113125	0.676850	0.318146
C47	C	0.519074	0.174331	-0.181845
C48	C	1.019074	0.674331	0.318155
C49	C	0.754194	0.180627	0.091002
C50	C	1.254194	0.680627	0.591002
C51	C	0.754203	0.180635	-0.090904
C52	C	1.254203	0.680635	0.409096
C53	C	1.071196	-0.056477	0.000063
C54	C	1.571196	0.443523	0.500063
C55	C	1.068521	-0.197397	0.000056
C56	C	1.568521	0.302603	0.500056
C57	C	1.163816	-0.415902	0.000444
C58	C	1.663816	0.084098	0.500444
C59	C	1.166669	-0.269338	0.000063
C60	C	1.666669	0.230662	0.500063
C61	C	1.018290	-0.241600	-0.095222
C62	C	1.518290	0.258400	0.404778
C63	C	1.016131	-0.388337	-0.095297
C64	C	1.516131	0.111663	0.404703
C65	C	1.014064	-0.388128	0.094439
C66	C	1.514064	0.111872	0.594439
C67	C	1.018720	-0.241839	0.095693
C68	C	1.518720	0.258161	0.595693
C69	C	1.230860	0.166614	0.000072
C70	C	1.730860	0.666614	0.500072
C71	C	1.330959	0.169294	0.000072
C72	C	1.830959	0.669294	0.500072
C73	C	1.060985	0.407661	0.000063
C74	C	1.560985	0.907661	0.500063
C75	C	1.063661	0.548581	0.000063
C76	C	1.563661	1.048581	0.500063
N77	N	1.066069	0.175585	0.237504
N78	N	1.566069	0.675585	0.737504
N79	N	1.066120	0.175589	-0.237375
N80	N	1.566120	0.675589	0.262625
C81	C	1.005359	0.261750	0.710123
C82	C	1.505359	0.761750	1.210123
C83	C	1.126871	0.089429	0.710098
C84	C	1.626871	0.589429	1.210098
C85	C	1.126861	0.089425	0.605080
C86	C	1.626861	0.589425	1.105080
C87	C	1.066099	0.175586	0.552578
C88	C	1.566099	0.675586	1.052578
C89	C	1.005348	0.261752	0.605095
C90	C	1.505348	0.761752	1.105095
C91	C	1.187617	0.003270	0.552556
C92	C	1.687617	0.503270	1.052556
C93	C	1.187610	0.003263	0.447531
C94	C	1.687610	0.503263	0.947531
C95	C	1.126843	0.089420	0.395027
C96	C	1.626843	0.589420	0.895027
C97	C	1.066089	0.175588	0.447550
C98	C	1.566089	0.675588	0.947550
C99	C	1.005328	0.261749	0.395048
C100	C	1.505328	0.761749	0.895048
C101	C	0.944569	0.347912	0.447569
C102	C	1.444569	0.847912	0.947569
C103	C	0.944582	0.347908	0.552591
C104	C	1.444582	0.847908	1.052591
C105	C	1.126830	0.089424	0.290005
C106	C	1.626830	0.589424	0.790005
C107	C	1.005318	0.261750	0.290020
C108	C	1.505318	0.761750	0.790020
H109	H	0.792475	0.181670	0.165057
H110	H	1.292475	0.681670	0.665057
Cl111	Cl	0.908083	-0.164872	0.104571
Cl112	Cl	1.408083	0.335128	0.604571
H113	H	1.237091	-0.066874	0.595306
H114	H	1.737091	0.433126	1.095306
Cl115	Cl	1.227329	-0.224694	0.105526
Cl116	Cl	1.727329	0.275306	0.605526
Cl117	Cl	0.318879	0.168930	-0.205222
Cl118	Cl	0.818879	0.668930	0.294778
Cl119	Cl	1.227725	-0.226141	-0.105564
Cl120	Cl	1.727725	0.273859	0.394436
Cl121	Cl	0.672219	0.178441	0.296310
Cl122	Cl	1.172219	0.678441	0.796310
H123	H	0.792488	0.181659	-0.164971
H124	H	1.292488	0.681659	0.335029
H125	H	1.202045	-0.458280	0.068774
H126	H	1.702045	0.041720	0.568774
H127	H	0.942722	-0.410524	-0.099618
H128	H	1.442722	0.089476	0.400382
Cl129	Cl	1.222528	-0.483710	-0.104447
Cl130	Cl	1.722528	0.016290	0.395553
H131	H	0.946035	-0.193416	-0.098770
H132	H	1.446035	0.306584	0.401230
H133	H	1.050476	-0.428929	-0.166515
H134	H	1.550476	0.071071	0.333485
H135	H	1.053190	-0.211126	-0.166124
H136	H	1.553190	0.288874	0.333876
Cl137	Cl	0.868192	0.456233	0.381556
Cl138	Cl	1.368192	0.956233	0.881556
Cl139	Cl	0.928923	0.370068	0.224026
Cl140	Cl	1.428923	0.870068	0.724026
H141	H	1.045246	-0.430656	0.166660
H142	H	1.545246	0.069344	0.666660
Cl143	Cl	0.672256	0.178446	-0.296192
Cl144	Cl	1.172256	0.678446	0.203808
H145	H	0.339689	0.169534	0.165071
H146	H	0.839689	0.669534	0.665071
Cl147	Cl	1.075141	-0.198276	0.204523
Cl148	Cl	1.575141	0.301724	0.704523
Cl149	Cl	1.203213	-0.018879	0.223986
Cl150	Cl	1.703213	0.481121	0.723986
H151	H	0.955887	0.331900	0.752888
H152	H	1.455887	0.831900	1.252888
Cl153	Cl	0.900293	-0.421076	0.095427
Cl154	Cl	1.400293	0.078924	0.595427
Cl155	Cl	0.459934	0.172765	0.296302
Cl156	Cl	0.959934	0.672765	0.796302
H157	H	0.895115	0.418060	0.595360
H158	H	1.395115	0.918060	1.095360
H159	H	1.237082	-0.066895	0.404775
H160	H	1.737082	0.433105	0.904775
Cl161	Cl	0.459959	0.172692	-0.296178
Cl162	Cl	0.959959	0.672692	0.203822
Cl163	Cl	1.203259	-0.018876	0.776098
Cl164	Cl	1.703259	0.481124	1.276098
