data_functionalizedCrystal
_audit_creation_method	'MofGen! by Chris Wilmer'
_symmetry_space_group_name_H-M	'P1'
_symmetry_Int_Tables_number	1
_symmetry_cell_setting	triclinic
loop_
_symmetry_equiv_pos_as_xyz
  x,y,z
_cell_length_a	6.817900
_cell_length_b	10.992723
_cell_length_c	27.923559
_cell_angle_alpha	95.470767
_cell_angle_beta	98.965071
_cell_angle_gamma	108.770285
loop_
_atom_site_label
_atom_site_type_symbol
_atom_site_fract_x
_atom_site_fract_y
_atom_site_fract_z
V1	V	-4.004012	-0.179590	-0.151264
O2	O	-3.964201	0.006750	-0.148389
O3	O	-3.982380	-0.354288	-0.150225
O4	O	-3.933509	-0.177653	-0.217237
O5	O	-4.013410	-0.171109	-0.080913
V6	V	-4.487035	-0.157204	-0.142850
O7	O	-4.266366	-0.228695	-0.169721
O8	O	-4.674878	-0.108099	-0.124393
O9	O	-4.285460	0.017494	-0.143889
O10	O	-4.644243	-0.343544	-0.145725
O11	O	-4.595034	-0.165685	-0.213201
O12	O	-4.334331	-0.159141	-0.076877
C13	C	-3.834608	-0.396850	-0.147838
C14	C	-3.898061	-0.539673	-0.147428
C15	C	-4.208420	-0.750640	-0.149585
C16	C	-4.142696	-0.602168	-0.150199
C17	C	-3.842377	-0.609428	-0.192364
C18	C	-3.909811	-0.758097	-0.191994
C19	C	-3.846047	-0.718703	-0.099245
C20	C	-3.783790	-0.569980	-0.099113
C21	C	-3.772268	-0.171532	-0.233318
C22	C	-3.796085	-0.171104	-0.287251
C23	C	-3.999826	-0.286346	-0.628634
C24	C	-4.089462	-0.284814	-0.831343
O25	O	-4.148575	-0.384752	-0.863446
N26	N	-4.044883	-0.166878	-0.849762
C27	C	-3.977903	-0.049317	-0.817501
O28	O	-3.942064	0.051030	-0.837819
C29	C	-3.888283	-0.050851	-0.614793
C30	C	-3.932846	-0.168794	-0.596377
C31	C	-4.044387	-0.404280	-0.610217
C32	C	-4.021968	-0.404662	-0.559543
C33	C	-3.954988	-0.287109	-0.527286
C34	C	-3.910427	-0.169176	-0.545702
C35	C	-3.821319	0.066708	-0.582533
C36	C	-3.798922	0.066314	-0.531853
C37	C	-3.843486	-0.051629	-0.513437
C38	C	-3.821028	-0.052005	-0.462770
N39	N	-3.865607	-0.169941	-0.444351
C40	C	-3.932587	-0.287493	-0.476609
C41	C	-4.024955	-0.048519	-0.923925
C42	C	-4.047356	-0.048135	-0.974602
C43	C	-4.158917	-0.283633	-0.988441
C44	C	-4.136501	-0.284016	-0.937763
C45	C	-4.069534	-0.166456	-0.905506
C46	C	-3.885499	-0.288286	-0.370189
C47	C	-3.863065	-0.288656	-0.319509
C48	C	-3.751517	-0.053160	-0.305674
C49	C	-3.773938	-0.052788	-0.356349
C50	C	-3.840941	-0.170361	-0.388606
O51	O	-3.761949	0.047880	-0.430639
O52	O	-3.968460	-0.387827	-0.456282
C53	C	-4.022245	-0.285965	-0.679309
C54	C	-3.977685	-0.168031	-0.697725
C55	C	-3.910705	-0.050479	-0.665468
C56	C	-4.000086	-0.167647	-0.748402
C57	C	-4.067066	-0.285199	-0.780660
C58	C	-4.111644	-0.403136	-0.762241
C59	C	-4.089225	-0.403517	-0.711566
C60	C	-3.866126	0.067457	-0.683887
C61	C	-3.888547	0.067829	-0.734562
C62	C	-3.955527	-0.049723	-0.766819
C63	C	-4.096575	0.060049	-0.146275
C64	C	-4.012359	0.202871	-0.146687
C65	C	-4.158916	-0.165266	-0.060793
C66	C	-4.114336	-0.165688	-0.006859
H67	H	-4.025224	-0.810350	-0.227719
O68	O	-3.800814	0.181577	-0.652502
C69	C	-3.611300	0.194547	-0.620440
H70	H	-3.598627	0.094302	-0.618073
H71	H	-3.471151	0.257084	-0.634917
C72	C	-3.626290	0.382777	-0.571966
C73	C	-3.610733	0.259652	-0.569055
H74	H	-3.625933	0.422942	-0.540270
H75	H	-3.753965	0.374043	-0.593567
H76	H	-3.509495	0.434875	-0.584032
H77	H	-3.727540	0.207552	-0.556995
H78	H	-3.483077	0.268380	-0.547450
O79	O	-3.939531	-0.585959	-0.235064
C80	C	-3.887924	-0.649332	-0.275055
H81	H	-3.733352	-0.666824	-0.262417
H82	H	-4.019433	-0.746494	-0.289870
C83	C	-4.052554	-0.542195	-0.331319
C84	C	-3.862696	-0.563669	-0.315797
H85	H	-4.037001	-0.489358	-0.356452
H86	H	-4.087330	-0.499503	-0.304377
H87	H	-4.162126	-0.623170	-0.343662
H88	H	-3.753134	-0.482696	-0.303449
H89	H	-3.827900	-0.606346	-0.342738
H90	H	-4.166174	-0.498851	-0.788514
H91	H	-3.970423	0.047218	-0.897665
H92	H	-4.191012	-0.554630	-0.118081
H93	H	-3.765497	-0.789128	-0.191870
O94	O	-3.845251	0.182522	-0.752367
C95	C	-3.781281	0.286186	-0.713022
H96	H	-3.844949	0.249141	-0.679784
H97	H	-3.601328	0.328029	-0.703337
C98	C	-3.790290	0.438441	-0.768851
C99	C	-3.868503	0.392944	-0.728029
H100	H	-3.844082	0.504298	-0.778108
H101	H	-3.833379	0.368602	-0.795359
H102	H	-3.640331	0.473301	-0.760775
H103	H	-4.018456	0.358071	-0.736108
H104	H	-3.825440	0.462780	-0.701523
O105	O	-3.686352	0.061145	-0.274402
C106	C	-3.651877	0.165331	-0.301520
H107	H	-3.620875	0.133343	-0.338816
H108	H	-3.797544	0.195893	-0.306952
C109	C	-3.497402	0.320354	-0.227614
C110	C	-3.459307	0.281069	-0.273421
H111	H	-3.378622	0.391749	-0.210281
H112	H	-3.520635	0.250163	-0.209344
H113	H	-3.618796	0.345813	-0.232147
H114	H	-3.337931	0.255595	-0.268887
H115	H	-3.436049	0.351259	-0.291690
H116	H	-4.289523	-0.775417	-0.117276
O117	O	-3.570128	-0.517172	-0.093272
C118	C	-3.488435	-0.428779	-0.049048
H119	H	-3.617663	-0.393447	-0.038213
H120	H	-3.430465	-0.479197	-0.018870
C121	C	-3.144219	-0.355241	-0.069448
C122	C	-3.302935	-0.311836	-0.056143
H123	H	-3.029787	-0.283107	-0.073823
H124	H	-3.199253	-0.414796	-0.099242
H125	H	-3.095936	-0.397256	-0.044298
H126	H	-3.351233	-0.269837	-0.081295
H127	H	-3.247903	-0.252271	-0.026353
H128	H	-3.899352	-0.384704	-0.304518
H129	H	-3.744396	0.162048	-0.505591
H130	H	-3.699151	-0.747866	-0.096676
H131	H	-3.910632	-0.743743	-0.064796
O132	O	-3.950858	-0.402587	-0.401473
C133	C	-4.152507	-0.480421	-0.395646
H134	H	-4.178108	-0.449245	-0.357666
H135	H	-4.278666	-0.468186	-0.424851
C136	C	-4.136329	-0.662373	-0.447784
C137	C	-4.167766	-0.624090	-0.401135
H138	H	-4.145748	-0.750996	-0.451172
H139	H	-4.000477	-0.609934	-0.451712
H140	H	-4.241466	-0.652168	-0.472116
H141	H	-4.062614	-0.634280	-0.376804
H142	H	-4.303600	-0.676534	-0.397203
H143	H	-4.125516	-0.499559	-0.696577
H144	H	-4.234670	-0.583941	-0.184871
O145	O	-3.833857	-0.514052	-0.059365
C146	C	-3.730362	-0.541868	-0.016206
H147	H	-3.690464	-0.633415	-0.025244
H148	H	-3.578612	-0.456739	-0.000134
C149	C	-3.925201	-0.451147	0.032540
C150	C	-3.876213	-0.563593	0.021440
H151	H	-4.015161	-0.464542	0.055763
H152	H	-3.994922	-0.432401	0.003463
H153	H	-3.798728	-0.380216	0.045930
H154	H	-4.002681	-0.634517	0.008045
H155	H	-3.806516	-0.582351	0.050516
O156	O	-4.065294	-0.519348	-0.541739
C157	C	-3.931653	-0.584874	-0.555983
H158	H	-3.874102	-0.549019	-0.590000
H159	H	-3.790176	-0.564669	-0.524844
C160	C	-4.125213	-0.776218	-0.525876
C161	C	-4.054541	-0.732188	-0.567658
H162	H	-4.201010	-0.867088	-0.533075
H163	H	-4.215245	-0.732071	-0.516277
H164	H	-4.007300	-0.759369	-0.499930
H165	H	-4.172455	-0.749022	-0.593600
H166	H	-3.964531	-0.776341	-0.577260
O167	O	-4.179979	-0.398540	-0.919842
C168	C	-4.343600	-0.412051	-0.893299
H169	H	-4.349605	-0.311951	-0.880447
H170	H	-4.501005	-0.474279	-0.917898
C171	C	-4.294213	-0.600915	-0.864218
C172	C	-4.301577	-0.477969	-0.848430
H173	H	-4.268300	-0.641581	-0.836543
H174	H	-4.183984	-0.591816	-0.882102
H175	H	-4.425389	-0.652755	-0.884718
H176	H	-4.170395	-0.426126	-0.827936
H177	H	-4.411784	-0.487060	-0.830542
O178	O	-3.730973	0.061684	-0.374307
C179	C	-3.913813	0.062834	-0.405533
H180	H	-4.023332	-0.041383	-0.419911
H181	H	-3.998908	0.116507	-0.384225
C182	C	-3.716131	0.260371	-0.431348
C183	C	-3.850636	0.132368	-0.449010
H184	H	-3.677164	0.303267	-0.458166
H185	H	-3.592949	0.259599	-0.410309
H186	H	-3.787063	0.305081	-0.413591
H187	H	-3.779695	0.087656	-0.466762
H188	H	-3.973805	0.133134	-0.470054
H189	H	-3.665733	-0.568987	-0.192044
H190	H	-4.098936	-0.500011	-0.636477
H191	H	-4.332287	-0.805191	-0.183812
H192	H	-4.213451	-0.379349	-1.014714
H193	H	-3.785011	0.162751	-0.597518
H194	H	-4.011039	0.047907	-0.989591
