data_functionalizedCrystal
_audit_creation_method	'MofGen! by Chris Wilmer'
_symmetry_space_group_name_H-M	'P1'
_symmetry_Int_Tables_number	1
_symmetry_cell_setting	triclinic
loop_
_symmetry_equiv_pos_as_xyz
  x,y,z
_cell_length_a	14.908571
_cell_length_b	16.625546
_cell_length_c	14.909227
_cell_angle_alpha	93.327878
_cell_angle_beta	96.790173
_cell_angle_gamma	86.718495
loop_
_atom_site_label
_atom_site_type_symbol
_atom_site_fract_x
_atom_site_fract_y
_atom_site_fract_z
Zn1	Zn	1.413356	-0.363481	0.591503
Zn2	Zn	1.404510	-0.505679	0.440125
Zn3	Zn	1.253250	-0.363500	0.431433
Zn4	Zn	1.261950	-0.490908	0.582728
O5	O	1.333267	-0.430892	0.511447
O6	O	1.538850	-0.388518	0.578732
O7	O	1.377102	-0.493008	0.312303
O8	O	1.274549	-0.250666	0.452701
O9	O	1.532351	-0.492991	0.467515
O10	O	1.392179	-0.250653	0.570304
O11	O	1.265972	-0.388550	0.305917
O12	O	1.127737	-0.374226	0.444193
O13	O	1.289378	-0.467815	0.710562
O14	O	1.134129	-0.467833	0.555349
O15	O	1.400615	-0.374195	0.717008
O16	O	1.385538	-0.616551	0.459007
O17	O	1.280800	-0.605698	0.563777
C18	C	1.098090	-0.419429	0.497877
C19	C	0.997481	-0.414544	0.492092
C20	C	0.815122	-0.503003	0.596814
C21	C	0.720592	-0.498415	0.591382
C22	C	0.713888	-0.400776	0.475803
C23	C	0.808419	-0.405364	0.481234
C24	C	0.859033	-0.456480	0.541741
C25	C	0.953564	-0.461072	0.547167
C26	C	0.946859	-0.363429	0.431593
C27	C	0.852329	-0.358841	0.426161
C28	C	1.333179	-0.640381	0.511405
C29	C	1.333226	-0.730003	0.511421
C30	C	1.333389	-1.058182	0.511525
C31	C	1.333341	-0.966872	0.511498
C32	C	1.333307	-0.894095	0.511472
C33	C	1.333260	-0.802780	0.511447
C34	C	1.569362	-0.442400	0.525072
C35	C	1.669972	-0.447304	0.530878
C36	C	1.346954	-0.419355	0.747547
C37	C	1.352786	-0.414439	0.848159
C38	C	1.333381	-0.220586	0.511512
C39	C	1.333429	-0.130966	0.511539
C40	C	1.319685	-0.442328	0.276269
C41	C	1.314027	-0.447026	0.175668
C42	C	1.418916	-0.358773	0.993323
C43	C	1.413440	-0.363389	0.898790
C44	C	1.297606	-0.460878	0.892067
C45	C	1.303081	-0.456262	0.986600
C46	C	1.363738	-0.405207	1.037225
C47	C	1.369208	-0.400587	1.131760
C48	C	1.253379	-0.498080	1.125036
C49	C	1.247903	-0.502696	1.030502
H50	H	0.982621	-0.325548	0.386746
H51	H	0.994773	-0.502695	0.596434
H52	H	1.468296	-0.317193	1.034542
N53	N	0.800638	-0.306632	0.364347
N54	N	0.839858	-0.265102	0.315176
H55	H	0.803354	-0.228229	0.271515
H56	H	1.418593	-0.359011	1.172977
N57	N	1.196996	-0.545506	1.169874
N58	N	1.142379	-0.511750	1.219295
H59	H	1.102556	-0.545243	1.250960
H60	H	0.672663	-0.359154	0.426547
N61	N	1.469814	-0.315956	0.853959
N62	N	1.523966	-0.270379	0.899174
H63	H	1.563785	-0.236878	0.867514
N64	N	0.866814	-0.555229	0.658609
N65	N	0.827596	-0.596772	0.707770
H66	H	0.864102	-0.633659	0.751413
H67	H	0.684844	-0.536297	0.636230
H68	H	1.248229	-0.502451	0.850833
H69	H	1.198521	-0.544266	0.989271
