data_functionalizedCrystal
_audit_creation_method	'MofGen! by Chris Wilmer'
_symmetry_space_group_name_H-M	'P1'
_symmetry_Int_Tables_number	1
_symmetry_cell_setting	triclinic
loop_
_symmetry_equiv_pos_as_xyz
  x,y,z
_cell_length_a	12.827893
_cell_length_b	12.759393
_cell_length_c	12.827885
_cell_angle_alpha	90.027504
_cell_angle_beta	89.980728
_cell_angle_gamma	89.985203
loop_
_atom_site_label
_atom_site_type_symbol
_atom_site_fract_x
_atom_site_fract_y
_atom_site_fract_z
Zn1	Zn	1.597674	0.418216	-0.590865
Zn2	Zn	2.097674	0.918216	-0.090865
Zn3	Zn	1.597570	0.593932	-0.416132
Zn4	Zn	2.097570	1.093932	0.083868
Zn5	Zn	1.422915	0.418268	-0.416139
Zn6	Zn	1.922915	0.918268	0.083861
Zn7	Zn	1.422902	0.593854	-0.590832
Zn8	Zn	1.922902	1.093854	-0.090832
O9	O	1.510265	0.506068	-0.503492
O10	O	2.010265	1.006068	-0.003492
O11	O	1.743896	0.441537	-0.567698
O12	O	2.243896	0.941537	-0.067698
O13	O	1.574363	0.570684	-0.269897
O14	O	2.074363	1.070684	0.230103
O15	O	1.446146	0.271240	-0.439333
O16	O	1.946146	0.771240	0.060667
O17	O	1.743819	0.570634	-0.439322
O18	O	2.243819	1.070634	0.060678
O19	O	1.574541	0.271202	-0.567704
O20	O	2.074541	0.771202	-0.067704
O21	O	1.446045	0.441624	-0.269902
O22	O	1.946045	0.941624	0.230098
O23	O	1.276677	0.441548	-0.439301
O24	O	1.776677	0.941548	0.060699
O25	O	1.446124	0.570501	-0.737073
O26	O	1.946124	1.070501	-0.237073
O27	O	1.276668	0.570551	-0.567648
O28	O	1.776668	1.070551	-0.067648
O29	O	1.574528	0.441461	-0.737097
O30	O	2.074528	0.941461	-0.237097
O31	O	1.574350	0.740943	-0.439290
O32	O	2.074350	1.240943	0.060710
O33	O	1.446023	0.740885	-0.567642
O34	O	1.946023	1.240885	-0.067642
C35	C	1.238755	0.506047	-0.503472
C36	C	1.738755	1.006047	-0.003472
C37	C	1.122602	0.506064	-0.503489
C38	C	1.622602	1.006064	-0.003489
C39	C	1.070840	0.569998	-0.566901
C40	C	1.570840	1.069998	-0.066901
C41	C	0.950790	0.570017	-0.566919
C42	C	1.450790	1.070017	-0.066919
C43	C	1.510202	0.779035	-0.503485
C44	C	2.010202	1.279035	-0.003485
C45	C	1.510271	0.895812	-0.503516
C46	C	2.010271	1.395812	-0.003516
C47	C	1.643999	0.895818	-0.369964
C48	C	2.143999	1.395818	0.130036
C49	C	1.710890	0.950682	-0.303204
C50	C	2.210890	1.450682	0.196796
C51	C	1.710951	1.060404	-0.303239
C52	C	2.210951	1.560404	0.196761
C53	C	1.644116	1.115264	-0.370045
C54	C	2.144116	1.615264	0.129955
C55	C	1.577225	1.060400	-0.436805
C56	C	2.077225	1.560400	0.063195
C57	C	1.577169	0.950676	-0.436760
C58	C	2.077169	1.450676	0.063240
C59	C	1.443505	1.060393	-0.570361
C60	C	1.943505	1.560393	-0.070361
C61	C	1.443436	0.950672	-0.570321
C62	C	1.943436	1.450672	-0.070321
C63	C	1.376670	1.115253	-0.637166
C64	C	1.876670	1.615253	-0.137166
C65	C	1.309772	1.060389	-0.703922
C66	C	1.809772	1.560389	-0.203922
C67	C	1.309713	0.950661	-0.703883
C68	C	1.809713	1.450661	-0.203883
C69	C	1.376545	0.895808	-0.637082
C70	C	1.876545	1.395808	-0.137082
C71	C	1.782835	0.506089	-0.503513
C72	C	2.282835	1.006089	-0.003513
C73	C	1.898988	0.506098	-0.503522
C74	C	2.398988	1.006098	-0.003522
C75	C	1.510336	0.505967	-0.776063
C76	C	2.010336	1.005967	-0.276063
C77	C	1.510367	0.505924	-0.892216
C78	C	2.010367	1.005924	-0.392216
C79	C	1.510357	1.232034	-0.503539
C80	C	2.010357	1.732034	-0.003539
C81	C	1.510396	1.115257	-0.503600
C82	C	2.010396	1.615257	-0.003600
C83	C	1.573912	0.442058	-0.944012
C84	C	2.073912	0.942058	-0.444012
C85	C	1.573945	0.442012	-1.064063
C86	C	2.073945	0.942012	-0.564063
C87	C	1.510254	0.506092	-0.231982
C88	C	2.010254	1.006092	0.268018
C89	C	1.510427	0.505839	-0.115830
C90	C	2.010427	1.005839	0.384170
H91	H	0.943496	0.451362	-0.449226
H92	H	1.443496	0.951362	0.050774
Br93	Br	1.145101	0.661215	-0.657367
Br94	Br	1.645101	1.161215	-0.157367
H95	H	1.765308	0.906006	-0.248814
H96	H	2.265308	1.406006	0.251186
H97	H	1.765425	1.105074	-0.248883
H98	H	2.265425	1.605074	0.251117
Br99	Br	1.048341	0.414841	-0.413028
Br100	Br	1.548341	0.914841	0.086972
Br101	Br	0.876604	0.661263	-0.657402
Br102	Br	1.376604	1.161263	-0.157402
Br103	Br	1.644244	0.746910	-0.370235
Br104	Br	2.144244	1.246910	0.129765
Br105	Br	1.643712	1.264171	-0.369602
Br106	Br	2.143712	1.764171	0.130398
H107	H	1.376729	1.204595	-0.637194
H108	H	1.876729	1.704595	-0.137194
H109	H	1.455981	0.560560	-0.936748
H110	H	1.955981	1.060560	-0.436748
H111	H	1.255365	1.105065	-0.758314
H112	H	1.755365	1.605065	-0.258314
Br113	Br	1.419751	0.596990	-1.041601
Br114	Br	1.919751	1.096990	-0.541601
Br115	Br	1.218935	0.876212	-0.794501
Br116	Br	1.718935	1.376212	-0.294501
Br117	Br	1.376805	0.746899	-0.637359
Br118	Br	1.876805	1.246899	-0.137359
H119	H	1.628287	0.387411	-0.899481
H120	H	2.128287	0.887411	-0.399481
H121	H	1.628351	0.387338	-1.108607
H122	H	2.128351	0.887338	-0.608607
