data_functionalizedCrystal
_audit_creation_method	'MofGen! by Chris Wilmer'
_symmetry_space_group_name_H-M	'P1'
_symmetry_Int_Tables_number	1
_symmetry_cell_setting	triclinic
loop_
_symmetry_equiv_pos_as_xyz
  x,y,z
_cell_length_a	18.101395
_cell_length_b	16.959455
_cell_length_c	16.959447
_cell_angle_alpha	89.987476
_cell_angle_beta	89.970532
_cell_angle_gamma	90.031989
loop_
_atom_site_label
_atom_site_type_symbol
_atom_site_fract_x
_atom_site_fract_y
_atom_site_fract_z
Zn1	Zn	-0.294798	1.208323	-0.446875
Zn2	Zn	-0.418651	1.208220	-0.314699
Zn3	Zn	-0.294829	1.076152	-0.314717
Zn4	Zn	-0.418604	1.076091	-0.446842
O5	O	-0.356720	1.142197	-0.380783
O6	O	-0.311233	1.318920	-0.429348
O7	O	-0.402258	1.190683	-0.204090
O8	O	-0.191192	1.093753	-0.332270
O9	O	-0.402227	1.318845	-0.332239
O10	O	-0.191169	1.190859	-0.429366
O11	O	-0.311287	1.093653	-0.204104
O12	O	-0.311242	0.965533	-0.332237
O13	O	-0.402148	1.093649	-0.557457
O14	O	-0.402178	0.965488	-0.429308
O15	O	-0.311188	1.190800	-0.557482
O16	O	-0.522277	1.190625	-0.332206
O17	O	-0.522243	1.093550	-0.429291
C18	C	-0.549131	1.142091	-0.380760
C19	C	-0.631445	1.142118	-0.380776
C20	C	-0.356709	0.936830	-0.380772
C21	C	-0.356722	0.848974	-0.380785
C22	C	-0.356659	1.142229	-0.586952
C23	C	-0.356633	1.142243	-0.674808
C24	C	-0.930536	1.142291	-0.380819
C25	C	-0.899220	1.081356	-0.442054
C26	C	-0.813602	1.081066	-0.441862
C27	C	-0.782153	1.142205	-0.380799
C28	C	-0.813308	1.119658	-0.297495
C29	C	-0.898953	1.119266	-0.297861
C30	C	-0.898878	1.225907	-0.402155
C31	C	-0.813226	1.225415	-0.403982
C32	C	-0.698294	1.142158	-0.380782
C33	C	-1.014395	1.142337	-0.380830
C34	C	-0.163558	1.142324	-0.380824
C35	C	-0.081244	1.142379	-0.380841
C36	C	-0.356732	1.348365	-0.380795
C37	C	-0.356737	1.436221	-0.380801
C38	C	-0.404100	1.807660	-0.330226
C39	C	-0.309347	1.807734	-0.431347
C40	C	-0.309350	1.725188	-0.431352
C41	C	-0.356728	1.683874	-0.380792
C42	C	-0.404103	1.725106	-0.330228
C43	C	-0.261971	1.683950	-0.481910
C44	C	-0.261971	1.601399	-0.481916
C45	C	-0.309354	1.560083	-0.431360
C46	C	-0.356731	1.601321	-0.380794
C47	C	-0.404109	1.560007	-0.330234
C48	C	-0.451491	1.601243	-0.279672
C49	C	-0.451485	1.683791	-0.279671
C50	C	-0.309359	1.477535	-0.431360
C51	C	-0.404112	1.477453	-0.330236
C52	C	-0.403913	1.091756	-1.046274
C53	C	-0.309196	1.192920	-1.046295
C54	C	-0.309212	1.192899	-0.963749
C55	C	-0.356580	1.142306	-0.922461
C56	C	-0.403932	1.091735	-0.963720
C57	C	-0.261866	1.243475	-0.922484
C58	C	-0.261880	1.243456	-0.839933
C59	C	-0.309245	1.192859	-0.798644
C60	C	-0.356598	1.142285	-0.839908
C61	C	-0.403966	1.091693	-0.798620
C62	C	-0.451317	1.041115	-0.839883
C63	C	-0.451297	1.041138	-0.922431
C64	C	-0.309265	1.192836	-0.716096
C65	C	-0.403985	1.091672	-0.716067
C66	C	-0.356728	1.142209	-0.175417
C67	C	-0.356545	1.142348	-0.087561
H68	H	-0.792535	1.095172	-0.503631
H69	H	-0.918998	1.058143	-0.279787
C70	C	-0.257242	1.432180	-0.486975
N71	N	-0.217986	1.398019	-0.528869
C72	C	-0.455991	1.036117	-1.091662
N73	N	-0.495215	0.994207	-1.125850
H74	H	-0.442552	1.050466	-0.682457
H75	H	-0.270771	1.841376	-0.472506
H76	H	-0.270715	1.234018	-0.682503
C77	C	-0.784303	1.289994	-0.348118
N78	N	-0.762520	1.338633	-0.306034
H79	H	-0.223395	1.717593	-0.523069
H80	H	-0.920423	1.246464	-0.461864
C81	C	-0.209856	1.556047	-0.537541
N82	N	-0.170605	1.521887	-0.579441
C83	C	-0.926240	1.287240	-0.341907
N84	N	-0.946854	1.333430	-0.296527
C85	C	-0.926981	1.100216	-0.525773
N86	N	-0.947898	1.114422	-0.588831
H87	H	-0.490063	1.567594	-0.238503
C88	C	-0.928374	0.998132	-0.423197
N89	N	-0.950331	0.935448	-0.408988
H90	H	-0.442697	1.443822	-0.289067
C91	C	-0.786010	0.997323	-0.422828
N92	N	-0.765228	0.934240	-0.408510
C93	C	-0.503420	0.985465	-0.794456
N94	N	-0.542662	0.943550	-0.760237
C95	C	-0.785682	1.248405	-0.486788
N96	N	-0.764922	1.265725	-0.549153
C97	C	-0.926945	1.176614	-0.234116
N98	N	-0.948025	1.219804	-0.186100
C99	C	-0.503591	1.729157	-0.224048
N100	N	-0.542833	1.763329	-0.182148
H101	H	-0.489849	0.999962	-0.956034
C102	C	-0.257090	1.248563	-1.091713
N103	N	-0.217837	1.290471	-1.125926
H104	H	-0.791925	1.059184	-0.279097
C105	C	-0.456214	1.853019	-0.274606
N106	N	-0.495465	1.887185	-0.232710
H107	H	-0.223306	1.284669	-0.956106
C108	C	-0.785785	1.177725	-0.234174
N109	N	-0.765052	1.221461	-0.186482
C110	C	-0.209787	1.299085	-0.794552
N111	N	-0.170546	1.340982	-0.760370
