data_functionalizedCrystal
_audit_creation_method	'MofGen! by Chris Wilmer'
_symmetry_space_group_name_H-M	'P1'
_symmetry_Int_Tables_number	1
_symmetry_cell_setting	triclinic
loop_
_symmetry_equiv_pos_as_xyz
  x,y,z
_cell_length_a	10.268362
_cell_length_b	11.792241
_cell_length_c	23.532407
_cell_angle_alpha	83.521047
_cell_angle_beta	90.009932
_cell_angle_gamma	89.999728
loop_
_atom_site_label
_atom_site_type_symbol
_atom_site_fract_x
_atom_site_fract_y
_atom_site_fract_z
O1	O	-0.108169	-1.505071	-0.078055
O2	O	-0.108205	-1.174541	-0.086099
O3	O	-0.108162	-1.349773	0.000795
O4	O	-0.108212	-1.329839	-0.164950
O5	O	0.108439	-1.349758	0.000799
O6	O	0.108396	-1.174526	-0.086096
O7	O	0.108432	-1.505056	-0.078051
Cu8	Cu	0.128191	-1.339790	-0.082073
Cu9	Cu	-0.127964	-1.339808	-0.082078
O10	O	0.108389	-1.329824	-0.164946
C11	C	0.000091	-1.132254	-0.085592
C12	C	0.000078	-1.006276	-0.084080
N13	N	0.308357	-1.339786	-0.082070
N14	N	-0.308130	-1.339821	-0.082076
C15	C	0.000142	-1.349258	0.022016
C16	C	0.000151	-1.347732	0.085242
C17	C	0.574027	-1.339802	-0.082076
C18	C	0.426190	-1.339789	-0.082074
C19	C	0.000114	-0.775630	-0.081299
C20	C	0.000094	-0.903978	-0.082844
C21	C	0.000130	-0.547343	-0.078558
C22	C	0.000124	-0.673321	-0.080071
C23	C	0.000082	-1.330339	-0.186167
C24	C	0.000064	-1.331865	-0.249393
C25	C	0.000090	-1.441858	0.483788
C26	C	0.000080	-1.440440	0.543196
O27	O	0.000042	-1.527696	0.579424
N28	N	0.000070	-1.336265	0.566440
C29	C	0.000056	-1.233500	0.530271
O30	O	0.000045	-1.144761	0.555497
C31	C	0.000057	-1.234919	0.470864
C32	C	0.000081	-1.339102	0.447624
C33	C	0.000113	-1.546032	0.460547
C34	C	0.000125	-1.547449	0.401142
C35	C	0.000115	-1.444693	0.364979
C36	C	0.000093	-1.340519	0.388219
C37	C	0.000034	-1.132156	0.434696
C38	C	0.000034	-1.133584	0.375285
C39	C	0.000057	-1.237766	0.352045
C40	C	0.000096	-1.239180	0.292651
N41	N	0.000106	-1.343355	0.269407
C42	C	0.000116	-1.446112	0.305571
C43	C	0.000052	-1.230528	0.655031
C44	C	0.000061	-1.229108	0.714438
C45	C	0.000083	-1.436049	0.727359
C46	C	0.000083	-1.437468	0.667951
C47	C	0.000063	-1.334704	0.631788
C48	C	0.000143	-1.449080	0.180817
C49	C	0.000161	-1.450489	0.121406
C50	C	0.000133	-1.243549	0.108491
C51	C	0.000122	-1.242140	0.167896
C52	C	0.000123	-1.344915	0.204058
O53	O	0.000129	-1.151970	0.256388
O54	O	0.000110	-1.534837	0.280337
H55	H	0.000139	-1.532770	0.210254
O56	O	0.000107	-1.128006	0.737104
C57	C	0.000063	-1.148771	0.797294
H58	H	0.041082	-1.237493	0.810972
H59	H	0.062932	-1.082140	0.815748
H60	H	-0.103856	-1.143470	0.813834
O61	O	0.000109	-1.130592	0.619986
C62	C	0.000068	-1.038351	0.653246
H63	H	0.041073	-1.067684	0.697491
H64	H	0.062949	-0.966388	0.631573
H65	H	-0.103849	-1.006390	0.657571
O66	O	0.000046	-1.140840	0.190380
C67	C	0.000078	-1.050450	0.145719
H68	H	-0.040901	-1.081803	0.105259
H69	H	-0.062832	-0.977683	0.158353
H70	H	0.103988	-1.018771	0.137430
H71	H	0.000007	-1.047320	0.453608
H72	H	0.000102	-1.522302	0.649034
O73	O	0.000184	-1.645963	0.495590
C74	C	0.000169	-1.738198	0.462326
H75	H	0.041165	-1.708851	0.418087
H76	H	0.063073	-1.810152	0.484005
H77	H	-0.103739	-1.770177	0.457986
O78	O	0.000019	-1.535766	0.762576
C79	C	0.000037	-1.512162	0.819992
H80	H	-0.040970	-1.423042	0.822541
H81	H	-0.062854	-1.577694	0.846694
H82	H	0.103948	-1.516662	0.837170
O83	O	-0.000111	-1.143767	0.073331
C84	C	-0.112274	-1.138440	0.038563
H85	H	-0.190667	-1.196735	0.060131
H86	H	-0.149952	-1.046951	0.032162
H87	H	-0.086903	-1.167324	-0.004720
O88	O	0.000072	-1.033651	0.340239
C89	C	0.000014	-0.941405	0.373496
H90	H	0.041022	-0.970727	0.417741
H91	H	0.062886	-0.869438	0.351820
H92	H	-0.103908	-0.909456	0.377819
H93	H	0.000139	-1.632285	0.382226
O94	O	0.000121	-1.551796	0.098926
C95	C	0.000155	-1.642184	0.143589
H96	H	-0.040863	-1.610836	0.184037
H97	H	-0.062721	-1.714964	0.130940
H98	H	0.104071	-1.673841	0.151906
