data_functionalizedCrystal
_audit_creation_method	'MofGen! by Chris Wilmer'
_symmetry_space_group_name_H-M	'P1'
_symmetry_Int_Tables_number	1
_symmetry_cell_setting	triclinic
loop_
_symmetry_equiv_pos_as_xyz
  x,y,z
_cell_length_a	19.077105
_cell_length_b	21.295417
_cell_length_c	19.076919
_cell_angle_alpha	92.266620
_cell_angle_beta	90.076224
_cell_angle_gamma	87.726672
loop_
_atom_site_label
_atom_site_type_symbol
_atom_site_fract_x
_atom_site_fract_y
_atom_site_fract_z
Zn1	Zn	1.058236	-0.304534	-0.440387
Zn2	Zn	1.062864	-0.405747	-0.322870
Zn3	Zn	0.945454	-0.296102	-0.318181
Zn4	Zn	0.940686	-0.405368	-0.435623
O5	O	1.001810	-0.352938	-0.379265
O6	O	1.157181	-0.321649	-0.428754
O7	O	1.051222	-0.387832	-0.223917
O8	O	0.960474	-0.209134	-0.334424
O9	O	1.160581	-0.396009	-0.342415
O10	O	1.043334	-0.215330	-0.424208
O11	O	0.964962	-0.307276	-0.220472
O12	O	0.846490	-0.306908	-0.329804
O13	O	0.952346	-0.395362	-0.534586
O14	O	0.842987	-0.387185	-0.416088
O15	O	1.038710	-0.321280	-0.538086
O16	O	1.046598	-0.493783	-0.337795
O17	O	0.956834	-0.493504	-0.420634
C18	C	0.819242	-0.346091	-0.371921
C19	C	0.741139	-0.343178	-0.368795
C20	C	1.001719	-0.516485	-0.379223
C21	C	1.001744	-0.586454	-0.379231
C22	C	0.702642	-0.383663	-0.412179
C23	C	0.629255	-0.380918	-0.409246
C24	C	0.594366	-0.337689	-0.362924
C25	C	0.632868	-0.297199	-0.319538
C26	C	0.706253	-0.299942	-0.322476
C27	C	0.375080	-0.324994	-0.349333
C28	C	0.301690	-0.322256	-0.346397
C29	C	0.298082	-0.405974	-0.436106
C30	C	0.371470	-0.408715	-0.439037
C31	C	0.409965	-0.368223	-0.395653
N32	N	0.519353	-0.334883	-0.359923
N33	N	0.484976	-0.371027	-0.398658
C34	C	1.048522	-0.619448	-0.336144
C35	C	1.048554	-0.685192	-0.336161
C36	C	1.001796	-0.717939	-0.379257
C37	C	0.955015	-0.684937	-0.422352
C38	C	0.954989	-0.619195	-0.422339
N39	N	0.940111	-0.819089	-0.382141
N40	N	0.940138	-0.881541	-0.382149
C41	C	1.001873	-0.916018	-0.379300
N42	N	1.063583	-0.885683	-0.376429
N43	N	1.063555	-0.823224	-0.376417
C44	C	1.001820	-0.789226	-0.379276
C45	C	1.048690	-1.020300	-0.336230
C46	C	1.048724	-1.086046	-0.336252
C47	C	0.955178	-1.085789	-0.422439
C48	C	0.955151	-1.020045	-0.422421
C49	C	1.001906	-0.987304	-0.379313
C50	C	1.185090	-0.359812	-0.386639
C51	C	1.263193	-0.362741	-0.389782
C52	C	0.994480	-0.359220	-0.562545
C53	C	0.991356	-0.361897	-0.640648
C54	C	1.001919	-0.188754	-0.379324
C55	C	1.001966	-0.118788	-0.379349
C56	C	1.034851	-0.324586	-0.679164
C57	C	1.031907	-0.327098	-0.752550
C58	C	0.985472	-0.366925	-0.787418
C59	C	0.941972	-0.404238	-0.748896
C60	C	0.944913	-0.401722	-0.675512
C61	C	0.971853	-0.378584	-1.006698
C62	C	0.968917	-0.381099	-1.080087
C63	C	1.058852	-0.303958	-1.083736
C64	C	1.061791	-0.301448	-1.010350
C65	C	1.018289	-0.338758	-0.971835
N66	N	0.982464	-0.369496	-0.862429
N67	N	1.021294	-0.336183	-0.896824
C68	C	1.009152	-0.346637	-0.196700
C69	C	1.012412	-0.343787	-0.118604
H70	H	0.731044	-0.418867	-0.449897
H71	H	0.931101	-0.413532	-1.108474
H72	H	1.072666	-0.292156	-0.650780
H73	H	0.917110	-1.112451	-0.457532
O74	O	1.101204	-0.267782	-1.121122
C75	C	1.219849	-0.242446	-1.148370
C76	C	1.171968	-0.283470	-1.106003
H77	H	1.277071	-0.255105	-1.136150
H78	H	1.209833	-0.251088	-1.206820
H79	H	1.208081	-0.190735	-1.133467
H80	H	1.183707	-0.335194	-1.120846
H81	H	1.181992	-0.274775	-1.047563
O82	O	0.896803	-0.442941	-0.782653
C83	C	0.807945	-0.519219	-0.771284
C84	C	0.859053	-0.475402	-0.732968
H85	H	0.777421	-0.545486	-0.731131
H86	H	0.769799	-0.490149	-0.804152
H87	H	0.838819	-0.554496	-0.806946
H88	H	0.828236	-0.440118	-0.697270
H89	H	0.897199	-0.504513	-0.700144
H90	H	1.086820	-1.112908	-0.301168
H91	H	0.916895	-0.592330	-0.457426
H92	H	1.086764	-0.993641	-0.301131
O93	O	0.909636	-0.988086	-0.464288
C94	C	0.816881	-0.994774	-0.549802
C95	C	0.868380	-1.031044	-0.502406
H96	H	0.783522	-1.029490	-0.580643
H97	H	0.781397	-0.961574	-0.516057
H98	H	0.847640	-0.966401	-0.587831
H99	H	0.837678	-1.059452	-0.464369
H100	H	0.903864	-1.064205	-0.536194
O101	O	0.599088	-0.255151	-0.274523
C102	C	0.610418	-0.172432	-0.185821
C103	C	0.648759	-0.220011	-0.236784
H104	H	0.650561	-0.144018	-0.155285
H105	H	0.574811	-0.139344	-0.216741
H106	H	0.577492	-0.198747	-0.147672
H107	H	0.681724	-0.193748	-0.274944
H108	H	0.684324	-0.253097	-0.205818
O109	O	1.106819	-0.262654	-0.976524
C110	C	1.141909	-0.156084	-0.955561
C111	C	1.090858	-0.199949	-0.993888
H112	H	1.129032	-0.105379	-0.969597
H113	H	1.136550	-0.160625	-0.896483
H114	H	1.197979	-0.169786	-0.972266
H115	H	1.034767	-0.186276	-0.977240
H116	H	1.096278	-0.195402	-1.052958
O117	O	0.591969	-0.420317	-0.451408
C118	C	0.596135	-0.503633	-0.540707
C119	C	0.638448	-0.459056	-0.492988
H120	H	0.633694	-0.534956	-0.574348
H121	H	0.563068	-0.534150	-0.507028
H122	H	0.560308	-0.474760	-0.576111
H123	H	0.674313	-0.487880	-0.457577
H124	H	0.671469	-0.428538	-0.526710
O125	O	1.074183	-0.290943	-0.790048
C126	C	1.165753	-0.288866	-0.876712
C127	C	1.117911	-0.329890	-0.834301
H128	H	1.201130	-0.320338	-0.912490
H129	H	1.132165	-0.255935	-0.909823
H130	H	1.199419	-0.259951	-0.839177
H131	H	1.084237	-0.358844	-0.871785
H132	H	1.151540	-0.362781	-0.801181
O133	O	0.929561	-0.414880	-0.969397
C134	C	0.839993	-0.491606	-0.973527
C135	C	0.887870	-0.450551	-1.015860
H136	H	0.806263	-0.520447	-1.011074
H137	H	0.873555	-0.524599	-0.940465
H138	H	0.804681	-0.460127	-0.937694
H139	H	0.923191	-0.481981	-1.051732
H140	H	0.854266	-0.417553	-1.048876
H141	H	0.909487	-0.432098	-0.644152
H142	H	0.273285	-0.287047	-0.308681
O143	O	0.405248	-0.450726	-0.484096
C144	C	0.393924	-0.533501	-0.572733
C145	C	0.355581	-0.485941	-0.521750
H146	H	0.353787	-0.561995	-0.603179
H147	H	0.426813	-0.507231	-0.610957
H148	H	0.429568	-0.566518	-0.541764
H149	H	0.319901	-0.452912	-0.552661
H150	H	0.322737	-0.512252	-0.483525
H151	H	1.086649	-0.712061	-0.301075
O152	O	0.412362	-0.285635	-0.307122
C153	C	0.408187	-0.202278	-0.217870
C154	C	0.365877	-0.246829	-0.265623
H155	H	0.370622	-0.170883	-0.184316
H156	H	0.443981	-0.231109	-0.182392
H157	H	0.441289	-0.171828	-0.251591
H158	H	0.332735	-0.277289	-0.231957
H159	H	0.330127	-0.217960	-0.301105
H160	H	0.266732	-0.438939	-0.471428
H161	H	0.737596	-0.266971	-0.287151
H162	H	0.916945	-0.711604	-0.457442
O163	O	1.094013	-0.587744	-0.294258
C164	C	1.186772	-0.594938	-0.208747
C165	C	1.135301	-0.630923	-0.256158
H166	H	1.220157	-0.629831	-0.177920
H167	H	1.222234	-0.566618	-0.242480
H168	H	1.155991	-0.561714	-0.170706
H169	H	1.166025	-0.664179	-0.294207
H170	H	1.099839	-0.659201	-0.222382
