data_functionalizedCrystal
_audit_creation_method	'MofGen! by Chris Wilmer'
_symmetry_space_group_name_H-M	'P1'
_symmetry_Int_Tables_number	1
_symmetry_cell_setting	triclinic
loop_
_symmetry_equiv_pos_as_xyz
  x,y,z
_cell_length_a	16.120490
_cell_length_b	16.120484
_cell_length_c	16.959447
_cell_angle_alpha	87.133462
_cell_angle_beta	92.911175
_cell_angle_gamma	90.164100
loop_
_atom_site_label
_atom_site_type_symbol
_atom_site_fract_x
_atom_site_fract_y
_atom_site_fract_z
Zn1	Zn	1.254434	-0.395652	0.526139
Zn2	Zn	1.754434	0.104348	1.026139
Zn3	Zn	1.247287	-0.534717	0.400296
Zn4	Zn	1.747287	-0.034717	0.900296
Zn5	Zn	1.115384	-0.388618	0.386963
Zn6	Zn	1.615384	0.111382	0.886963
Zn7	Zn	1.108286	-0.527597	0.525419
Zn8	Zn	1.608286	-0.027597	1.025419
O9	O	1.181348	-0.461646	0.459704
O10	O	1.681348	0.038354	0.959704
O11	O	1.369851	-0.420023	0.515327
O12	O	1.869851	0.079977	1.015327
O13	O	1.229770	-0.515372	0.287917
O14	O	1.729770	-0.015372	0.787917
O15	O	1.139791	-0.273188	0.400146
O16	O	1.639791	0.226812	0.900146
O17	O	1.364601	-0.522193	0.422871
O18	O	1.864601	-0.022193	0.922871
O19	O	1.241951	-0.278356	0.502398
O20	O	1.741951	0.221644	1.002398
O21	O	1.132861	-0.408034	0.278121
O22	O	1.632861	0.091966	0.778121
O23	O	0.998078	-0.401130	0.399448
O24	O	1.498078	0.098870	0.899448
O25	O	1.127694	-0.510058	0.636125
O26	O	1.627694	-0.010058	1.136125
O27	O	0.992863	-0.503237	0.501171
O28	O	1.492863	-0.003237	1.001171
O29	O	1.235068	-0.413118	0.636654
O30	O	1.735068	0.086882	1.136654
O31	O	1.222887	-0.650135	0.422172
O32	O	1.722887	-0.150135	0.922172
O33	O	1.120763	-0.644904	0.514100
O34	O	1.620763	-0.144904	1.014100
C35	C	0.965298	-0.450648	0.448785
C36	C	1.465298	0.049352	0.948785
C37	C	0.872870	-0.445963	0.444133
C38	C	1.372870	0.054037	0.944133
C39	C	0.659897	-0.485940	0.483834
C40	C	1.159897	0.014060	0.983834
C41	C	0.703647	-0.437418	0.435639
C42	C	1.203647	0.062582	0.935639
C43	C	0.797811	-0.442174	0.440367
C44	C	1.297811	0.057826	0.940367
C45	C	0.565724	-0.481185	0.479108
C46	C	1.065724	0.018815	0.979108
C47	C	1.170302	-0.677692	0.469523
C48	C	1.670302	-0.177692	0.969523
C49	C	1.165652	-0.770121	0.473754
C50	C	1.665652	-0.270121	0.973754
C51	C	1.157168	-0.939352	0.481495
C52	C	1.657168	-0.439352	0.981495
C53	C	1.205677	-0.983107	0.437934
C54	C	1.705677	-0.483107	0.937934
C55	C	1.200956	-1.077272	0.442241
C56	C	1.700956	-0.577272	0.942241
C57	C	1.161888	-0.845178	0.477189
C58	C	1.661888	-0.345178	0.977189
C59	C	1.398242	-0.472687	0.470667
C60	C	1.898242	0.027313	0.970667
C61	C	1.490669	-0.477392	0.475338
C62	C	1.990669	0.022608	0.975338
C63	C	1.181386	-0.461579	0.665871
C64	C	1.681386	0.038421	1.165871
C65	C	1.181402	-0.461550	0.753727
C66	C	1.681402	0.038450	1.253727
C67	C	1.192460	-0.244757	0.449865
C68	C	1.692460	0.255243	0.949865
C69	C	1.197195	-0.152332	0.445672
C70	C	1.697195	0.347668	0.945672
C71	C	1.181361	-0.461655	0.254339
C72	C	1.681361	0.038345	0.754339
C73	C	1.181518	-0.461457	0.166481
C74	C	1.681518	0.038543	0.666481
C75	C	1.125601	-0.511939	1.124931
C76	C	1.625601	-0.011939	1.624931
C77	C	1.237411	-0.410996	1.125477
C78	C	1.737411	0.089004	1.625477
C79	C	1.237388	-0.411012	1.042931
C80	C	1.737388	0.088988	1.542931
C81	C	1.181472	-0.461494	1.001381
C82	C	1.681472	0.038506	1.501381
C83	C	1.125578	-0.511959	1.042377
C84	C	1.625578	-0.011959	1.542377
C85	C	1.293286	-0.360554	1.001929
C86	C	1.793286	0.139446	1.501929
C87	C	1.293266	-0.360569	0.919377
C88	C	1.793266	0.139431	1.419377
C89	C	1.237345	-0.411047	0.877826
C90	C	1.737345	0.088953	1.377826
C91	C	1.181449	-0.461514	0.918827
C92	C	1.681449	0.038486	1.418827
C93	C	1.125532	-0.511996	0.877277
C94	C	1.625532	-0.011996	1.377277
C95	C	1.069631	-0.562458	0.918277
C96	C	1.569631	-0.062458	1.418277
C97	C	1.069657	-0.562437	1.000825
C98	C	1.569657	-0.062437	1.500825
C99	C	1.237319	-0.411068	0.795277
C100	C	1.737319	0.088932	1.295277
C101	C	1.125509	-0.512015	0.794723
C102	C	1.625509	-0.012015	1.294723
H103	H	1.250751	-0.949846	0.397404
H104	H	1.750751	-0.449846	0.897404
H105	H	0.670383	-0.392305	0.390828
H106	H	1.170383	0.107695	0.890828
H107	H	0.693159	-0.531050	0.528642
H108	H	1.193159	-0.031050	1.028642
H109	H	1.112097	-0.972610	0.522020
H110	H	1.612097	-0.472610	1.022020
H111	H	1.079967	-0.553117	0.760898
H112	H	1.579967	-0.053117	1.260898
H113	H	1.338815	-0.319460	1.035765
H114	H	1.838815	0.180540	1.535765
H115	H	1.338783	-0.319478	0.886003
H116	H	1.838783	0.180522	1.386003
H117	H	1.024108	-0.603565	0.884436
H118	H	1.524108	-0.103565	1.384436
H119	H	1.024148	-0.603524	1.034215
H120	H	1.524148	-0.103524	1.534215
H121	H	1.282835	-0.369985	0.761899
H122	H	1.782835	0.130015	1.261899
H123	H	1.080086	-0.553022	1.158316
H124	H	1.580086	-0.053022	1.658316
H125	H	1.282940	-0.369900	1.159312
H126	H	1.782940	0.130100	1.659312
