data_functionalizedCrystal
_audit_creation_method	'MofGen! by Chris Wilmer'
_symmetry_space_group_name_H-M	'P1'
_symmetry_Int_Tables_number	1
_symmetry_cell_setting	triclinic
loop_
_symmetry_equiv_pos_as_xyz
  x,y,z
_cell_length_a	15.995350
_cell_length_b	15.944493
_cell_length_c	15.072220
_cell_angle_alpha	90.004743
_cell_angle_beta	89.991149
_cell_angle_gamma	83.483709
loop_
_atom_site_label
_atom_site_type_symbol
_atom_site_fract_x
_atom_site_fract_y
_atom_site_fract_z
O1	O	1.110979	0.108267	-0.073696
O2	O	1.610979	0.608267	0.426304
O3	O	0.867202	0.121637	-0.073712
O4	O	1.367202	0.621637	0.426288
O5	O	0.995773	-0.007326	-0.073711
O6	O	1.495773	0.492674	0.426289
O7	O	0.982408	0.237231	-0.073697
O8	O	1.482408	0.737231	0.426303
O9	O	0.995741	-0.007319	0.073854
O10	O	1.495741	0.492681	0.573854
O11	O	0.867170	0.121645	0.073853
O12	O	1.367170	0.621645	0.573853
O13	O	1.110948	0.108274	0.073870
O14	O	1.610948	0.608274	0.573870
Zn15	Zn	0.989054	0.114961	0.097290
Zn16	Zn	1.489054	0.614961	0.597290
Zn17	Zn	0.989096	0.114951	-0.097133
Zn18	Zn	1.489096	0.614951	0.402867
O19	O	0.982377	0.237238	0.073868
O20	O	1.482377	0.737238	0.573868
C21	C	0.835992	0.121088	0.000068
C22	C	1.335992	0.621088	0.500068
C23	C	0.743041	0.119431	0.000061
C24	C	1.243041	0.619431	0.500061
C25	C	0.405295	0.113480	0.000079
C26	C	0.905295	0.613480	0.500079
C27	C	0.452743	0.021634	0.000403
C28	C	0.952743	0.521634	0.500403
C29	C	0.549433	0.023292	0.000064
C30	C	1.049433	0.523292	0.500064
C31	C	0.572855	0.116432	0.000070
C32	C	1.072855	0.616432	0.500070
C33	C	0.531779	0.161729	-0.084190
C34	C	1.031779	0.661729	0.415810
C35	C	0.435144	0.159422	-0.084255
C36	C	0.935144	0.659422	0.415745
C37	C	0.434768	0.161328	0.083554
C38	C	0.934768	0.661328	0.583554
C39	C	0.531714	0.161306	0.084662
C40	C	1.031714	0.661306	0.584662
C41	C	0.667552	0.118105	0.000063
C42	C	1.167552	0.618105	0.500063
C43	C	0.310597	0.111809	0.000081
C44	C	0.810597	0.611809	0.500081
C45	C	0.995211	-0.038617	0.000068
C46	C	1.495211	0.461383	0.500068
C47	C	0.993573	-0.131866	0.000056
C48	C	1.493573	0.368134	0.500056
C49	C	1.069253	-0.367630	0.000078
C50	C	1.569253	0.132370	0.500078
C51	C	1.028458	-0.418199	-0.072681
C52	C	1.528458	0.081801	0.427319
C53	C	0.990539	-0.302587	0.000067
C54	C	1.490539	0.197413	0.500067
C55	C	1.028408	-0.418168	0.072806
C56	C	1.528408	0.081832	0.572806
C57	C	0.987614	-0.467496	0.000081
C58	C	1.487614	0.032504	0.500081
C59	C	0.949765	-0.351928	-0.072753
C60	C	1.449765	0.148072	0.427247
C61	C	0.949726	-0.351894	0.072800
C62	C	1.449726	0.148106	0.572800
C63	C	0.908873	-0.402430	0.000023
C64	C	1.408873	0.097570	0.500023
C65	C	0.992226	-0.207587	0.000058
C66	C	1.492226	0.292413	0.500058
C67	C	0.985920	-0.562493	0.000084
C68	C	1.485920	-0.062493	0.500084
C69	C	1.142158	0.108823	0.000087
C70	C	1.642158	0.608823	0.500087
C71	C	1.235108	0.110481	0.000089
C72	C	1.735108	0.610481	0.500089
C73	C	0.982939	0.268529	0.000087
C74	C	1.482939	0.768529	0.500087
C75	C	0.984576	0.361778	0.000093
C76	C	1.484576	0.861778	0.500093
N77	N	0.989032	0.114966	0.229979
N78	N	1.489032	0.614966	0.729979
N79	N	0.989125	0.114939	-0.229822
N80	N	1.489125	0.614939	0.270178
C81	C	0.989094	0.114948	0.589181
C82	C	1.489094	0.614948	1.089181
C83	C	0.920067	0.183722	0.551573
C84	C	1.420067	0.683722	1.051573
C85	C	0.920226	0.183973	0.448747
C86	C	1.420226	0.683973	0.948747
C87	C	0.989062	0.114957	0.410976
C88	C	1.489062	0.614957	0.910976
C89	C	1.076424	0.134100	0.448275
C90	C	1.576424	0.634100	0.948275
C91	C	1.076037	0.134589	0.551133
C92	C	1.576037	0.634589	1.051133
C93	C	0.971538	0.026827	0.551274
C94	C	1.471538	0.526827	1.051274
C95	C	0.969533	0.027414	0.448411
C96	C	1.469533	0.527414	0.948411
C97	C	0.989050	0.114961	0.310263
C98	C	1.489050	0.614961	0.810263
C99	C	0.989112	0.114946	0.689894
C100	C	1.489112	0.614946	1.189894
H101	H	0.414224	0.131304	0.147422
H102	H	0.914224	0.631304	0.647422
Br103	Br	0.894414	-0.303902	-0.175390
Br104	Br	1.394414	0.196098	0.324610
Br105	Br	0.894364	-0.303591	0.175325
Br106	Br	1.394364	0.196409	0.675325
Br107	Br	0.420111	-0.039289	-0.099755
Br108	Br	0.920111	0.460711	0.400245
H109	H	0.841018	-0.417892	-0.000022
H110	H	1.341018	0.082108	0.499978
H111	H	1.061653	-0.447098	0.134315
H112	H	1.561653	0.052902	0.634315
H113	H	0.931435	0.249367	0.424138
H114	H	1.431435	0.749367	0.924138
Br115	Br	0.938500	0.292108	0.594625
Br116	Br	1.438500	0.792108	1.094625
Br117	Br	0.811974	0.165022	0.406713
Br118	Br	1.311974	0.665022	0.906713
Br119	Br	0.557296	0.274517	0.093154
Br120	Br	1.057296	0.774517	0.593154
H121	H	1.091510	0.198855	0.575120
H122	H	1.591510	0.698855	1.075120
H123	H	0.577309	-0.012561	-0.060447
H124	H	1.077309	0.487439	0.439553
Br125	Br	0.867649	-0.003838	0.594552
Br126	Br	1.367649	0.496162	1.094552
Br127	Br	1.182259	-0.341585	-0.000029
Br128	Br	1.682259	0.158415	0.499971
H129	H	1.061713	-0.447150	-0.134190
H130	H	1.561713	0.052850	0.365810
Br131	Br	0.404654	0.104356	-0.189244
Br132	Br	0.904654	0.604356	0.310756
Br133	Br	0.577112	0.106098	0.188560
Br134	Br	1.077112	0.606098	0.688560
H135	H	0.402997	0.229045	0.084129
H136	H	0.902997	0.729045	0.584129
H137	H	0.545894	0.230157	-0.087319
H138	H	1.045894	0.730157	0.412681
H139	H	0.854919	0.172505	0.576329
H140	H	1.354919	0.672505	1.076329
Br141	Br	1.164132	0.054183	0.592601
Br142	Br	1.664132	0.554183	1.092601
H143	H	1.129016	0.085341	0.423807
H144	H	1.629016	0.585341	0.923807
H145	H	1.092267	0.197634	0.422511
H146	H	1.592267	0.697634	0.922511
Br147	Br	0.862420	0.003197	0.407784
Br148	Br	1.362420	0.503197	0.907784
H149	H	0.560172	0.130262	-0.146903
H150	H	1.060172	0.630262	0.353097
H151	H	1.016544	-0.026162	0.422703
H152	H	1.516544	0.473838	0.922703
Br153	Br	0.381373	0.271808	-0.090621
Br154	Br	0.881373	0.771808	0.409379
H155	H	1.021876	-0.024353	0.575593
H156	H	1.521876	0.475647	1.075593
H157	H	0.577854	-0.012315	0.060466
H158	H	1.077854	0.487685	0.560466
Br159	Br	0.421856	-0.039554	0.101120
Br160	Br	0.921856	0.460446	0.601120
