data_functionalizedCrystal
_audit_creation_method	'MofGen! by Chris Wilmer'
_symmetry_space_group_name_H-M	'P1'
_symmetry_Int_Tables_number	1
_symmetry_cell_setting	triclinic
loop_
_symmetry_equiv_pos_as_xyz
  x,y,z
_cell_length_a	13.897449
_cell_length_b	25.639240
_cell_length_c	25.639234
_cell_angle_alpha	89.971713
_cell_angle_beta	89.987497
_cell_angle_gamma	90.033584
loop_
_atom_site_label
_atom_site_type_symbol
_atom_site_fract_x
_atom_site_fract_y
_atom_site_fract_z
Zn1	Zn	1.474498	-0.208191	-0.295615
Zn2	Zn	1.974498	0.291809	0.204385
Zn3	Zn	1.474380	-0.295613	-0.208168
Zn4	Zn	1.974380	0.204387	0.291832
Zn5	Zn	1.313218	-0.208195	-0.208190
Zn6	Zn	1.813218	0.291805	0.291810
Zn7	Zn	1.313126	-0.295598	-0.295569
Zn8	Zn	1.813126	0.204402	0.204431
O9	O	1.393806	-0.251899	-0.251886
O10	O	1.893806	0.248101	0.248114
O11	O	1.609464	-0.219792	-0.284025
O12	O	2.109464	0.280208	0.215975
O13	O	1.452991	-0.284025	-0.135006
O14	O	1.952991	0.215975	0.364994
O15	O	1.334699	-0.135029	-0.219815
O16	O	1.834699	0.364971	0.280185
O17	O	1.609377	-0.284021	-0.219778
O18	O	2.109377	0.215979	0.280222
O19	O	1.453191	-0.135026	-0.284046
O20	O	1.953191	0.364974	0.215954
O21	O	1.334585	-0.219799	-0.135022
O22	O	1.834585	0.280201	0.364978
O23	O	1.178224	-0.219784	-0.219771
O24	O	1.678224	0.280216	0.280229
O25	O	1.334544	-0.283995	-0.368741
O26	O	1.834544	0.216005	0.131259
O27	O	1.178157	-0.283999	-0.283968
O28	O	1.678157	0.216001	0.216032
O29	O	1.453103	-0.219778	-0.368774
O30	O	1.953103	0.280222	0.131226
O31	O	1.452902	-0.368776	-0.219734
O32	O	1.952902	0.131224	0.280266
O33	O	1.334430	-0.368765	-0.283947
O34	O	1.834430	0.131235	0.216053
C35	C	1.143191	-0.251891	-0.251867
C36	C	1.643191	0.248109	0.248133
C37	C	1.035977	-0.251900	-0.251872
C38	C	1.535977	0.248100	0.248128
C39	C	0.948908	-0.251902	-0.251881
C40	C	1.448908	0.248098	0.248119
C41	C	0.839675	-0.251906	-0.251897
C42	C	1.339675	0.248094	0.248103
C43	C	1.393669	-0.387742	-0.251845
C44	C	1.893669	0.112258	0.248155
C45	C	1.393699	-0.445856	-0.251845
C46	C	1.893699	0.054144	0.248155
C47	C	1.455535	-0.806179	-0.285391
C48	C	1.955535	-0.306179	0.214609
C49	C	1.455563	-0.860783	-0.285401
C50	C	1.955563	-0.360783	0.214599
O51	O	1.507976	-0.888986	-0.313882
O52	O	2.007976	-0.388986	0.186118
N53	N	1.393939	-0.888138	-0.251936
N54	N	1.893939	-0.388138	0.248064
C55	C	1.332276	-0.860886	-0.218462
C56	C	1.832276	-0.360886	0.281538
O57	O	1.279862	-0.889168	-0.189998
O58	O	1.779862	-0.389168	0.310002
C59	C	1.332243	-0.806283	-0.218454
C60	C	1.832243	-0.306283	0.281546
C61	C	1.393878	-0.778931	-0.251918
C62	C	1.893878	-0.278931	0.248082
C63	C	1.517164	-0.778826	-0.318852
C64	C	2.017164	-0.278826	0.181148
C65	C	1.517137	-0.724226	-0.318841
C66	C	2.017137	-0.224226	0.181159
C67	C	1.455480	-0.696978	-0.285368
C68	C	1.955480	-0.196978	0.214632
C69	C	1.393851	-0.724330	-0.251906
C70	C	1.893851	-0.224330	0.248094
C71	C	1.270576	-0.779032	-0.184983
C72	C	1.770576	-0.279032	0.315017
C73	C	1.270548	-0.724425	-0.184978
C74	C	1.770548	-0.224425	0.315022
C75	C	1.332183	-0.697073	-0.218442
C76	C	1.832183	-0.197073	0.281558
C77	C	1.332167	-0.642481	-0.218422
C78	C	1.832167	-0.142481	0.281578
N79	N	1.393791	-0.615126	-0.251887
N80	N	1.893791	-0.115126	0.248113
C81	C	1.455447	-0.642374	-0.285360
C82	C	1.955447	-0.142374	0.214640
C83	C	1.332348	-0.975557	-0.218481
C84	C	1.832348	-0.475557	0.281519
C85	C	1.332385	-1.030159	-0.218485
C86	C	1.832385	-0.530159	0.281515
C87	C	1.455671	-1.030052	-0.285426
C88	C	1.955671	-0.530052	0.214574
C89	C	1.455638	-0.975449	-0.285418
C90	C	1.955638	-0.475449	0.214582
C91	C	1.393972	-0.948202	-0.251946
C92	C	1.893972	-0.448202	0.248054
C93	C	1.455386	-0.527709	-0.285333
C94	C	1.955386	-0.027709	0.214667
C95	C	1.455356	-0.473104	-0.285318
C96	C	1.955356	0.026896	0.214682
C97	C	1.332066	-0.473216	-0.218379
C98	C	1.832066	0.026784	0.281621
C99	C	1.332100	-0.527816	-0.218393
C100	C	1.832100	-0.027816	0.281607
C101	C	1.393762	-0.555062	-0.251874
C102	C	1.893762	-0.055062	0.248126
O103	O	1.279778	-0.614244	-0.189958
O104	O	1.779778	-0.114244	0.310042
O105	O	1.507844	-0.614086	-0.313824
O106	O	2.007844	-0.114086	0.186176
C107	C	1.645398	-0.251908	-0.251904
C108	C	2.145398	0.248092	0.248096
C109	C	1.752612	-0.251911	-0.251912
C110	C	2.252612	0.248089	0.248088
C111	C	1.393826	-0.251884	-0.388259
C112	C	1.893826	0.248116	0.111741
C113	C	1.393835	-0.251878	-0.446373
C114	C	1.893835	0.248122	0.053627
C115	C	1.393969	-0.115526	-0.251938
C116	C	1.893969	0.384474	0.248062
C117	C	1.394038	-0.057412	-0.251961
C118	C	1.894038	0.442588	0.248039
C119	C	1.332166	-0.285251	-0.697543
C120	C	1.832166	0.214749	-0.197543
C121	C	1.332149	-0.285262	-0.642939
C122	C	1.832149	0.214738	-0.142939
O123	O	1.279623	-0.313689	-0.614682
O124	O	1.779623	0.186311	-0.114682
N125	N	1.393872	-0.251836	-0.615647
N126	N	1.893872	0.248164	-0.115647
C127	C	1.455609	-0.218392	-0.642962
C128	C	1.955609	0.281608	-0.142962
O129	O	1.508107	-0.189961	-0.614734
O130	O	2.008107	0.310039	-0.114734
C131	C	1.455620	-0.218378	-0.697565
C132	C	1.955620	0.281622	-0.197565
C133	C	1.393900	-0.251810	-0.724854
C134	C	1.893900	0.248190	-0.224854
C135	C	1.270450	-0.318680	-0.724832
C136	C	1.770450	0.181320	-0.224832
C137	C	1.270468	-0.318669	-0.779433
C138	C	1.770468	0.181331	-0.279433
C139	C	1.332202	-0.285228	-0.806744
C140	C	1.832202	0.214772	-0.306744
C141	C	1.393918	-0.251799	-0.779455
C142	C	1.893918	0.248201	-0.279455
C143	C	1.517351	-0.184931	-0.724879
C144	C	2.017351	0.315069	-0.224879
C145	C	1.517357	-0.184920	-0.779486
C146	C	2.017357	0.315080	-0.279486
C147	C	1.455637	-0.218352	-0.806776
C148	C	1.955637	0.281648	-0.306776
C149	C	1.455671	-0.218347	-0.861367
C150	C	1.955671	0.281653	-0.361367
N151	N	1.393948	-0.251774	-0.888659
N152	N	1.893948	0.248226	-0.388659
C153	C	1.332214	-0.285214	-0.861348
C154	C	1.832214	0.214786	-0.361348
C155	C	1.455579	-0.218423	-0.528291
C156	C	1.955579	0.281577	-0.028291
C157	C	1.455573	-0.218439	-0.473689
C158	C	1.955573	0.281561	0.026311
C159	C	1.332112	-0.285309	-0.473670
C160	C	1.832112	0.214691	0.026330
C161	C	1.332123	-0.285295	-0.528273
C162	C	1.832123	0.214705	-0.028273
C163	C	1.393856	-0.251850	-0.555583
C164	C	1.893856	0.248150	-0.055583
C165	C	1.332258	-0.285188	-0.976013
C166	C	1.832258	0.214812	-0.476013
C167	C	1.332284	-0.285176	-1.030618
C168	C	1.832284	0.214824	-0.530618
C169	C	1.455742	-0.218304	-1.030633
C170	C	1.955742	0.281696	-0.530633
C171	C	1.455719	-0.218318	-0.976032
C172	C	1.955719	0.281682	-0.476032
C173	C	1.393969	-0.251762	-0.948723
C174	C	1.893969	0.248238	-0.448723
O175	O	1.508167	-0.189933	-0.889658
O176	O	2.008167	0.310067	-0.389658
O177	O	1.279716	-0.313636	-0.889582
O178	O	1.779716	0.186364	-0.389582
C179	C	1.393841	-0.251876	-0.116043
C180	C	1.893841	0.248124	0.383957
C181	C	1.394019	-0.251735	-0.057929
C182	C	1.894019	0.248265	0.442071
H183	H	1.505550	-0.450835	-0.312568
H184	H	2.005550	0.049165	0.187432
C185	C	1.265574	-1.059947	-0.182171
C186	C	1.765574	-0.559947	0.317829
C187	C	1.278800	-1.113599	-0.189331
C188	C	1.778800	-0.613599	0.310669
C189	C	1.217272	-1.141053	-0.155885
C190	C	1.717272	-0.641053	0.344115
H191	H	1.200713	-1.051082	-0.189757
H192	H	1.700713	-0.551082	0.310243
H193	H	1.279742	-1.051045	-0.147036
H194	H	1.779742	-0.551045	0.352964
H195	H	1.264626	-1.122498	-0.224459
H196	H	1.764626	-0.622498	0.275541
H197	H	1.343648	-1.122479	-0.181741
H198	H	1.843648	-0.622479	0.318259
H199	H	1.231440	-1.132152	-0.120749
H200	H	1.731440	-0.632152	0.379251
H201	H	1.152415	-1.132185	-0.163474
H202	H	1.652415	-0.632185	0.336526
H203	H	1.226244	-1.177460	-0.160735
H204	H	1.726244	-0.677460	0.339265
H205	H	1.567372	-0.801006	-0.346113
H206	H	2.067372	-0.301006	0.153887
H207	H	1.567322	-0.701959	-0.346091
H208	H	2.067322	-0.201959	0.153909
C209	C	1.265038	-0.321671	-0.444105
C210	C	1.765038	0.178329	0.055895
C211	C	1.210997	-0.350954	-0.479686
C212	C	1.710997	0.149046	0.020314
C213	C	1.149213	-0.384458	-0.452470
C214	C	1.649213	0.115542	0.047530
H215	H	1.222950	-0.301727	-0.422807
H216	H	1.722950	0.198273	0.077193
H217	H	1.301882	-0.344485	-0.422809
H218	H	1.801882	0.155515	0.077191
H219	H	1.174157	-0.328143	-0.500973
H220	H	1.674157	0.171857	-0.000973
H221	H	1.253061	-0.370909	-0.500986
H222	H	1.753061	0.129091	-0.000986
H223	H	1.186056	-0.407273	-0.431174
H224	H	1.686056	0.092727	0.068826
H225	H	1.107131	-0.364510	-0.431172
H226	H	1.607131	0.135490	0.068828
H227	H	1.112546	-0.404334	-0.476607
H228	H	1.612546	0.095666	0.023393
H229	H	1.220386	-0.801293	-0.157733
H230	H	1.720386	-0.301293	0.342267
C231	C	1.522542	-0.182195	-0.443970
C232	C	2.022542	0.317805	0.056030
C233	C	1.509336	-0.189363	-0.390303
C234	C	2.009336	0.310637	0.109697
C235	C	1.571012	-0.155982	-0.362912
C236	C	2.071012	0.344018	0.137088
H237	H	1.508519	-0.147045	-0.452871
H238	H	2.008519	0.352955	0.047129
H239	H	1.587370	-0.189847	-0.452886
H240	H	2.087370	0.310153	0.047114
H241	H	1.444523	-0.181707	-0.381390
H242	H	1.944523	0.318293	0.118610
H243	H	1.523366	-0.224506	-0.381386
H244	H	2.023366	0.275494	0.118614
H245	H	1.635840	-0.163634	-0.371829
H246	H	2.135840	0.336366	0.128171
H247	H	1.556983	-0.120834	-0.371818
H248	H	2.056983	0.379166	0.128182
H249	H	1.562066	-0.160844	-0.326497
H250	H	2.062066	0.339156	0.173503
C251	C	1.265054	-0.321507	-0.557966
C252	C	1.765054	0.178493	-0.057966
C253	C	1.203281	-0.291896	-0.589327
C254	C	1.703281	0.208104	-0.089327
C255	C	1.141489	-0.325237	-0.616690
C256	C	1.641489	0.174763	-0.116690
H257	H	1.228198	-0.341436	-0.533936
H258	H	1.728198	0.158564	-0.033936
H259	H	1.301902	-0.344276	-0.579294
H260	H	1.801902	0.155724	-0.079294
H261	H	1.166436	-0.269136	-0.568000
H262	H	1.666436	0.230864	-0.068000
H263	H	1.240110	-0.271967	-0.613366
H264	H	1.740110	0.228033	-0.113366
H265	H	1.178337	-0.348006	-0.638018
H266	H	1.678337	0.151994	-0.138018
H267	H	1.104640	-0.345165	-0.592656
H268	H	1.604640	0.154835	-0.092656
H269	H	1.099575	-0.305151	-0.637974
H270	H	1.599575	0.194849	-0.137974
H271	H	1.505826	-0.953182	-0.312668
H272	H	2.005826	-0.453182	0.187332
H273	H	1.281919	-0.550088	-0.191140
H274	H	1.781919	-0.050088	0.308860
C275	C	1.522435	-0.557191	-0.321706
C276	C	2.022435	-0.057191	0.178294
C277	C	1.576409	-0.521541	-0.350996
C278	C	2.076409	-0.021541	0.149004
C279	C	1.638194	-0.548679	-0.384502
C280	C	2.138194	-0.048679	0.115498
H281	H	1.485626	-0.578493	-0.344521
H282	H	1.985626	-0.078493	0.155479
H283	H	1.564559	-0.578475	-0.301748
H284	H	2.064559	-0.078475	0.198252
H285	H	1.534291	-0.500265	-0.370953
H286	H	2.034291	-0.000265	0.129047
H287	H	1.613238	-0.500237	-0.328195
H288	H	2.113238	-0.000237	0.171805
H289	H	1.680318	-0.569964	-0.364543
H290	H	2.180318	-0.069964	0.135457
H291	H	1.601377	-0.569981	-0.407313
H292	H	2.101377	-0.069981	0.092687
H293	H	1.674829	-0.524495	-0.404375
H294	H	2.174829	-0.024495	0.095625
H295	H	1.505984	-0.191099	-0.953812
H296	H	2.005984	0.308901	-0.453812
H297	H	1.505874	-1.052248	-0.312682
H298	H	2.005874	-0.552248	0.187318
H299	H	1.282135	-0.953375	-0.191220
H300	H	1.782135	-0.453375	0.308780
C301	C	1.522726	-0.182094	-0.557846
C302	C	2.022726	0.317906	-0.057846
C303	C	1.576790	-0.152837	-0.522252
C304	C	2.076790	0.347163	-0.022252
C305	C	1.638662	-0.119370	-0.549455
C306	C	2.138662	0.380630	-0.049455
H307	H	1.485975	-0.159257	-0.579153
H308	H	1.985975	0.340743	-0.079153
H309	H	1.564789	-0.202079	-0.579131
H310	H	2.064789	0.297921	-0.079131
H311	H	1.534732	-0.132853	-0.500976
H312	H	2.034732	0.367147	-0.000976
H313	H	1.613560	-0.175660	-0.500944
H314	H	2.113560	0.324340	-0.000944
H315	H	1.680725	-0.139355	-0.570741
H316	H	2.180725	0.360645	-0.070741
H317	H	1.601904	-0.096536	-0.570762
H318	H	2.101904	0.403464	-0.070762
H319	H	1.675358	-0.099519	-0.525310
H320	H	2.175358	0.400481	-0.025310
H321	H	1.220329	-0.702243	-0.157722
H322	H	1.720329	-0.202243	0.342278
H323	H	1.567611	-0.157707	-0.702670
H324	H	2.067611	0.342293	-0.202670
C325	C	1.265161	-0.443531	-0.182097
C326	C	1.765161	0.056469	0.317903
C327	C	1.278315	-0.389859	-0.189265
C328	C	1.778315	0.110141	0.310735
C329	C	1.216684	-0.362496	-0.155859
C330	C	1.716684	0.137504	0.344141
H331	H	1.279260	-0.452430	-0.146953
H332	H	1.779260	0.047570	0.353047
H333	H	1.200325	-0.452474	-0.189725
H334	H	1.700325	0.047526	0.310275
H335	H	1.343136	-0.380919	-0.181633
H336	H	1.843136	0.119081	0.318367
H337	H	1.264210	-0.380944	-0.224402
H338	H	1.764210	0.119056	0.275598
H339	H	1.151848	-0.371438	-0.163488
H340	H	1.651848	0.128562	0.336512
H341	H	1.230788	-0.371399	-0.120717
H342	H	1.730788	0.128601	0.379283
H343	H	1.225594	-0.326076	-0.160722
H344	H	1.725594	0.173924	0.339278
H345	H	1.281966	-0.312417	-0.953785
H346	H	1.781966	0.187583	-0.453785
C347	C	1.265162	-0.321494	-1.060151
C348	C	1.765162	0.178506	-0.560151
C349	C	1.211076	-0.350770	-1.024542
C350	C	1.711076	0.149230	-0.524542
C351	C	1.149226	-0.384225	-1.051726
C352	C	1.649226	0.115775	-0.551726
H353	H	1.301929	-0.344320	-1.081448
H354	H	1.801929	0.155680	-0.581448
H355	H	1.223112	-0.301500	-1.081445
H356	H	1.723112	0.198500	-0.581445
H357	H	1.253121	-0.370763	-1.003257
H358	H	1.753121	0.129237	-0.503257
H359	H	1.174289	-0.327958	-1.003244
H360	H	1.674289	0.172042	-0.503244
H361	H	1.107175	-0.364230	-1.073020
H362	H	1.607175	0.135770	-0.573020
H363	H	1.186000	-0.407047	-1.073023
H364	H	1.686000	0.092953	-0.573023
H365	H	1.112515	-0.404089	-1.027570
H366	H	1.612515	0.095911	-0.527570
C367	C	1.203615	-0.355035	-0.809080
C368	C	1.703615	0.144965	-0.309080
C369	C	1.258194	-0.388556	-0.840408
C370	C	1.758194	0.111444	-0.340408
C371	C	1.196639	-0.422071	-0.867715
C372	C	1.696639	0.077929	-0.367715
H373	H	1.161587	-0.335096	-0.830428
H374	H	1.661587	0.164904	-0.330428
H375	H	1.166872	-0.374979	-0.785000
H376	H	1.666872	0.125021	-0.285000
H377	H	1.294919	-0.368614	-0.864485
H378	H	1.794919	0.131386	-0.364485
H379	H	1.300219	-0.408506	-0.819073
H380	H	1.800219	0.091494	-0.319073
H381	H	1.159897	-0.442015	-0.843635
H382	H	1.659897	0.057985	-0.343635
H383	H	1.154614	-0.402128	-0.889060
H384	H	1.654614	0.097872	-0.389060
H385	H	1.233662	-0.444822	-0.888970
H386	H	1.733662	0.055178	-0.388970
C387	C	1.584492	-0.148587	-0.809042
C388	C	2.084492	0.351413	-0.309042
C389	C	1.638551	-0.119324	-0.773452
C390	C	2.138551	0.380676	-0.273452
C391	C	1.700414	-0.085855	-0.800658
C392	C	2.200414	0.414145	-0.300658
H393	H	1.547735	-0.125753	-0.830350
H394	H	2.047735	0.374247	-0.330350
H395	H	1.626558	-0.168571	-0.830327
H396	H	2.126558	0.331429	-0.330327
H397	H	1.596489	-0.099341	-0.752176
H398	H	2.096489	0.400659	-0.252176
H399	H	1.675327	-0.142143	-0.752142
H400	H	2.175327	0.357857	-0.252142
H401	H	1.742481	-0.105839	-0.821943
H402	H	2.242481	0.394161	-0.321943
H403	H	1.663650	-0.063025	-0.821966
H404	H	2.163650	0.436975	-0.321966
H405	H	1.737107	-0.065999	-0.776514
H406	H	2.237107	0.434001	-0.276514
C407	C	1.522660	-0.182018	-1.060386
C408	C	2.022660	0.317982	-0.560386
C409	C	1.509437	-0.189157	-1.114045
C410	C	2.009437	0.310843	-0.614045
C411	C	1.571051	-0.155732	-1.141470
C412	C	2.071051	0.344268	-0.641470
H413	H	1.587500	-0.189637	-1.051504
H414	H	2.087500	0.310363	-0.551504
H415	H	1.508569	-0.146878	-1.051478
H416	H	2.008569	0.353122	-0.551478
H417	H	1.523534	-0.224288	-1.122948
H418	H	2.023534	0.275712	-0.622948
H419	H	1.444609	-0.181534	-1.122942
H420	H	1.944609	0.318466	-0.622942
H421	H	1.556960	-0.120592	-1.132563
H422	H	2.056960	0.379408	-0.632563
H423	H	1.635888	-0.163353	-1.132584
H424	H	2.135888	0.336647	-0.632584
H425	H	1.562082	-0.160567	-1.177881
H426	H	2.062082	0.339433	-0.677881
C427	C	1.203384	-0.355050	-0.695280
C428	C	1.703384	0.144950	-0.195280
C429	C	1.149364	-0.384327	-0.730877
C430	C	1.649364	0.115673	-0.230877
C431	C	1.087585	-0.417847	-0.703677
C432	C	1.587585	0.082153	-0.203677
H433	H	1.161282	-0.335118	-0.673979
H434	H	1.661282	0.164882	-0.173979
H435	H	1.240229	-0.377868	-0.673990
H436	H	1.740229	0.122132	-0.173990
H437	H	1.112522	-0.361512	-0.752158
H438	H	1.612522	0.138488	-0.252158
H439	H	1.191441	-0.404269	-0.752180
H440	H	1.691441	0.095731	-0.252180
H441	H	1.124430	-0.440665	-0.682387
H442	H	1.624430	0.059335	-0.182387
H443	H	1.045489	-0.397911	-0.682376
H444	H	1.545489	0.102089	-0.182376
H445	H	1.050931	-0.437719	-0.727825
H446	H	1.550931	0.062281	-0.227825
