data_functionalizedCrystal
_audit_creation_method	'MofGen! by Chris Wilmer'
_symmetry_space_group_name_H-M	'P1'
_symmetry_Int_Tables_number	1
_symmetry_cell_setting	triclinic
loop_
_symmetry_equiv_pos_as_xyz
  x,y,z
_cell_length_a	21.395362
_cell_length_b	12.645330
_cell_length_c	21.395355
_cell_angle_alpha	89.985534
_cell_angle_beta	89.956060
_cell_angle_gamma	90.028525
loop_
_atom_site_label
_atom_site_type_symbol
_atom_site_fract_x
_atom_site_fract_y
_atom_site_fract_z
Zn1	Zn	0.957938	-0.421713	-0.354603
Zn2	Zn	0.957874	-0.598962	-0.249833
Zn3	Zn	0.853153	-0.421762	-0.249805
Zn4	Zn	0.853155	-0.598984	-0.354538
O5	O	0.905530	-0.510355	-0.302195
O6	O	1.045607	-0.445196	-0.340745
O7	O	0.943954	-0.575468	-0.162151
O8	O	0.867079	-0.273408	-0.263722
O9	O	1.045560	-0.575420	-0.263771
O10	O	0.944064	-0.273372	-0.340717
O11	O	0.867017	-0.445280	-0.162130
O12	O	0.765475	-0.445301	-0.263658
O13	O	0.867083	-0.575457	-0.442225
O14	O	0.765477	-0.575505	-0.340605
O15	O	0.944066	-0.445217	-0.442273
O16	O	0.943956	-0.747312	-0.263707
O17	O	0.867020	-0.747328	-0.340633
C18	C	0.742742	-0.510411	-0.302122
C19	C	0.673101	-0.510461	-0.302106
C20	C	0.640405	-0.578348	-0.342112
C21	C	0.574970	-0.578322	-0.342140
C22	C	0.542233	-0.510420	-0.302150
C23	C	0.574937	-0.442520	-0.262141
C24	C	0.640371	-0.442540	-0.262119
C25	C	0.438506	-0.501880	-0.245745
C26	C	0.373073	-0.501867	-0.245766
C27	C	0.340412	-0.510351	-0.302220
C28	C	0.373192	-0.518870	-0.358654
C29	C	0.438626	-0.518890	-0.358631
C30	C	0.471280	-0.510390	-0.302170
C31	C	0.236764	-0.578213	-0.342260
C32	C	0.171327	-0.578180	-0.342289
C33	C	0.171295	-0.442383	-0.262284
C34	C	0.236730	-0.442411	-0.262261
C35	C	0.269461	-0.510332	-0.302248
C36	C	0.905499	-0.785785	-0.302180
C37	C	0.905542	-0.903615	-0.302195
C38	C	0.953865	-1.071125	-0.253702
C39	C	0.954023	-0.948564	-0.253821
C40	C	0.923453	-0.948013	-0.368245
C41	C	0.923837	-1.070611	-0.367988
C42	C	0.839290	-1.070967	-0.285287
C43	C	0.839607	-0.948362	-0.283806
C44	C	1.068953	-0.510300	-0.302268
C45	C	1.138595	-0.510276	-0.302299
C46	C	0.905582	-0.510334	-0.465618
C47	C	0.905604	-0.510325	-0.535259
C48	C	0.905579	-0.233850	-0.302223
C49	C	0.905599	-0.116020	-0.302236
C50	C	0.945688	-0.442506	-0.567999
C51	C	0.945687	-0.442460	-0.633434
C52	C	0.905609	-0.510252	-0.666128
C53	C	0.865518	-0.578076	-0.633381
C54	C	0.865515	-0.578112	-0.567947
C55	C	0.900651	-0.605707	-0.769796
C56	C	0.900658	-0.605673	-0.835229
C57	C	0.905613	-0.510140	-0.867949
C58	C	0.910574	-0.414639	-0.835228
C59	C	0.910572	-0.414675	-0.769793
C60	C	0.905607	-0.510220	-0.737080
C61	C	0.945698	-0.442266	-0.971640
C62	C	0.945692	-0.442219	-1.037077
C63	C	0.865526	-0.577844	-1.037023
C64	C	0.865528	-0.577882	-0.971587
C65	C	0.905617	-0.510095	-0.938900
C66	C	0.905514	-0.510300	-0.139407
C67	C	0.905613	-0.510011	-0.069766
H68	H	0.465312	-0.525824	-0.404582
H69	H	0.978332	-0.386986	-1.063732
H70	H	0.942799	-1.100664	-0.204584
H71	H	0.465094	-0.494967	-0.199771
H72	H	0.832871	-0.633337	-0.541291
H73	H	0.548278	-0.387232	-0.229583
H74	H	0.914610	-0.336915	-0.743155
H75	H	0.666991	-0.387255	-0.229541
H76	H	0.978337	-0.387064	-0.945025
H77	H	0.942816	-0.918548	-0.204846
H78	H	1.002715	-1.101836	-0.264789
H79	H	0.832888	-0.633031	-1.063641
H80	H	0.346600	-0.525777	-0.404624
H81	H	0.801705	-0.917778	-0.316562
H82	H	1.003136	-0.919137	-0.265033
H83	H	0.823003	-1.101966	-0.237961
H84	H	0.832892	-0.633114	-0.944931
H85	H	0.972305	-1.099106	-0.382342
H86	H	0.890222	-1.100308	-0.405396
H87	H	0.896622	-0.683435	-0.861865
H88	H	0.896448	-0.683481	-0.743161
H89	H	0.548344	-0.633603	-0.374720
H90	H	0.889369	-0.918897	-0.405376
H91	H	0.832884	-0.633270	-0.660004
H92	H	0.667050	-0.633653	-0.374674
H93	H	0.263414	-0.633513	-0.374823
H94	H	0.971375	-0.917208	-0.382838
H95	H	0.263352	-0.387135	-0.229680
H96	H	0.346389	-0.494937	-0.199814
H97	H	0.144707	-0.633460	-0.374871
H98	H	0.826103	-0.919354	-0.235198
H99	H	0.144641	-0.387091	-0.229727
H100	H	0.803328	-1.100005	-0.320636
H101	H	0.978331	-0.387306	-0.541389
H102	H	0.978326	-0.387228	-0.660095
H103	H	0.914610	-0.336848	-0.861867
