data_functionalizedCrystal
_audit_creation_method	'MofGen! by Chris Wilmer'
_symmetry_space_group_name_H-M	'P1'
_symmetry_Int_Tables_number	1
_symmetry_cell_setting	triclinic
loop_
_symmetry_equiv_pos_as_xyz
  x,y,z
_cell_length_a	12.759395
_cell_length_b	21.295417
_cell_length_c	12.759395
_cell_angle_alpha	90.016866
_cell_angle_beta	90.005123
_cell_angle_gamma	90.032044
loop_
_atom_site_label
_atom_site_type_symbol
_atom_site_fract_x
_atom_site_fract_y
_atom_site_fract_z
Zn1	Zn	1.605994	-0.250685	0.593948
Zn2	Zn	1.605883	-0.355928	0.418245
Zn3	Zn	1.430339	-0.250679	0.418285
Zn4	Zn	1.430236	-0.355923	0.593884
O5	O	1.518113	-0.303304	0.506090
O6	O	1.753000	-0.264650	0.570651
O7	O	1.582594	-0.341966	0.271229
O8	O	1.453730	-0.162591	0.441631
O9	O	1.752919	-0.341972	0.441562
O10	O	1.582782	-0.162595	0.570690
O11	O	1.453622	-0.264641	0.271259
O12	O	1.283304	-0.264636	0.441569
O13	O	1.453554	-0.341963	0.740913
O14	O	1.283228	-0.341958	0.570580
O15	O	1.582682	-0.264645	0.740961
O16	O	1.582494	-0.444017	0.441500
O17	O	1.453446	-0.444013	0.570541
C18	C	1.245145	-0.303296	0.506072
C19	C	1.128369	-0.303308	0.506090
C20	C	1.128328	-0.383954	0.640212
C21	C	1.073447	-0.424281	0.707276
C22	C	0.963726	-0.424289	0.707289
C23	C	0.908883	-0.383963	0.640233
C24	C	0.963764	-0.343635	0.573169
C25	C	1.073488	-0.343634	0.573161
C26	C	0.963804	-0.262988	0.439053
C27	C	1.073526	-0.262982	0.439033
C28	C	0.908961	-0.222662	0.371997
C29	C	0.963842	-0.182336	0.304925
C30	C	1.073570	-0.182331	0.304915
C31	C	1.128407	-0.222654	0.371969
C32	C	1.517975	-0.466855	0.506032
C33	C	1.518012	-0.536824	0.506043
C34	C	1.585267	-0.569671	0.438920
C35	C	1.585316	-0.635414	0.438943
C36	C	1.518092	-0.668306	0.506079
C37	C	1.450833	-0.635450	0.573215
C38	C	1.450793	-0.569709	0.573197
N39	N	1.426183	-0.771574	0.514082
N40	N	1.426224	-0.834026	0.514093
C41	C	1.518210	-0.866381	0.506139
N42	N	1.610155	-0.833925	0.498153
N43	N	1.610113	-0.771468	0.498136
C44	C	1.518128	-0.739591	0.506106
C45	C	1.585523	-0.970514	0.439038
C46	C	1.585574	-1.036258	0.439069
C47	C	1.451082	-1.036293	0.573335
C48	C	1.451040	-0.970551	0.573310
C49	C	1.518259	-0.937665	0.506156
C50	C	1.792146	-0.303312	0.506109
C51	C	1.908923	-0.303315	0.506117
C52	C	1.518119	-0.303304	0.780124
C53	C	1.518121	-0.303304	0.896901
C54	C	1.518280	-0.139113	0.506172
C55	C	1.518351	-0.069145	0.506207
C56	C	1.652592	-0.222798	0.896969
C57	C	1.719827	-0.182549	0.951865
C58	C	1.719823	-0.182550	1.061586
C59	C	1.652574	-0.222805	1.116415
C60	C	1.585339	-0.263055	1.061520
C61	C	1.585353	-0.263050	0.951796
C62	C	1.450865	-0.343557	1.061451
C63	C	1.450872	-0.343559	0.951729
C64	C	1.383616	-0.383812	1.116280
C65	C	1.316385	-0.424066	1.061385
C66	C	1.316392	-0.424063	0.951656
C67	C	1.383637	-0.383809	0.896834
C68	C	1.518100	-0.303315	1.233123
C69	C	1.518100	-0.303307	1.116346
H70	H	0.919042	-0.457124	0.761904
Br71	Br	0.889409	-0.127608	0.213941
Br72	Br	1.359513	-0.525127	0.664301
H73	H	0.819541	-0.383968	0.640258
Br74	Br	1.676507	-0.525043	0.347797
H75	H	1.261631	-0.456835	1.106035
Br76	Br	1.676744	-0.925879	0.347900
H77	H	1.383614	-0.383808	1.205621
Br78	Br	1.277237	-0.383957	0.640180
Br79	Br	1.225130	-0.478686	0.877165
H80	H	1.383654	-0.383805	0.807493
Br81	Br	1.676868	-1.080838	0.347976
H82	H	1.640087	-0.662163	0.384284
H83	H	0.819620	-0.222668	0.372016
Br84	Br	1.359858	-1.080925	0.664460
Br85	Br	1.359758	-0.925968	0.664408
Br86	Br	1.147880	-0.479010	0.798272
Br87	Br	1.277316	-0.222655	0.371952
H88	H	1.118248	-0.149487	0.250310
Br89	Br	1.359607	-0.680088	0.664336
Br90	Br	1.811058	-0.127901	0.877451
Br91	Br	1.652621	-0.222804	0.748060
H92	H	1.774565	-0.149772	1.106282
Br93	Br	1.652557	-0.222800	1.265324
