data_functionalizedCrystal
_audit_creation_method	'MofGen! by Chris Wilmer'
_symmetry_space_group_name_H-M	'P1'
_symmetry_Int_Tables_number	1
_symmetry_cell_setting	triclinic
loop_
_symmetry_equiv_pos_as_xyz
  x,y,z
_cell_length_a	6.394989
_cell_length_b	16.992694
_cell_length_c	16.053802
_cell_angle_alpha	92.750953
_cell_angle_beta	87.356563
_cell_angle_gamma	88.582967
loop_
_atom_site_label
_atom_site_type_symbol
_atom_site_fract_x
_atom_site_fract_y
_atom_site_fract_z
O1	O	-0.435392	-1.047996	-0.069315
O2	O	-0.430522	-0.819664	-0.069340
O3	O	-0.129434	-0.937071	-0.069328
O4	O	-0.736480	-0.930589	-0.069327
O5	O	-0.145934	-0.930608	0.069530
O6	O	-0.447022	-0.813201	0.069518
O7	O	-0.451892	-1.041533	0.069543
Zn8	Zn	-0.452077	-0.926341	0.091577
Zn9	Zn	-0.430337	-0.934856	-0.091374
O10	O	-0.752980	-0.924126	0.069531
C11	C	-0.432511	-0.787158	0.000086
C12	C	-0.413828	-0.699930	0.000076
C13	C	-0.449903	-1.074039	0.000115
C14	C	-0.468585	-1.161268	0.000119
N15	N	-0.466913	-0.920535	0.216437
C16	C	-0.059648	-0.932558	0.000098
C17	C	0.177241	-0.928641	0.000097
N18	N	-0.415486	-0.940668	-0.216234
C19	C	-0.594076	-0.651471	0.000077
C20	C	-0.576512	-0.569510	0.000089
C21	C	-0.378698	-0.536010	0.000093
C22	C	-0.198436	-0.584476	0.000095
C23	C	-0.216003	-0.666435	0.000089
C24	C	-0.305891	-0.291692	0.000116
C25	C	-0.288337	-0.209727	0.000119
C26	C	-0.666415	-0.194766	0.000114
C27	C	-0.683964	-0.276728	0.000103
C28	C	-0.503703	-0.325186	0.000109
N29	N	-0.360739	-0.452234	0.000102
N30	N	-0.521664	-0.408961	0.000106
C31	C	-0.338851	-0.970511	0.260136
C32	C	-0.349250	-0.966457	0.347542
C33	C	-0.487723	-0.912431	0.391248
C34	C	-0.615790	-0.862449	0.347543
C35	C	-0.605379	-0.866500	0.260138
C36	C	-0.533141	-0.894737	0.652656
C37	C	-0.543548	-0.890692	0.740067
C38	C	-0.277004	-0.994700	0.740060
C39	C	-0.266614	-0.998749	0.652654
C40	C	-0.394673	-0.948764	0.608956
N41	N	-0.498361	-0.908288	0.480591
N42	N	-0.384023	-0.952904	0.519615
H43	H	-0.755158	-0.678739	0.000073
H44	H	-0.159108	-0.331137	0.000121
H45	H	-0.728530	-0.818456	0.383133
H46	H	-0.637416	-0.854039	0.617084
H47	H	-0.813173	-0.155303	0.000110
H48	H	-0.723290	-0.530057	0.000088
C49	C	-0.744672	-0.812202	0.212841
C50	C	-0.868212	-0.764035	0.269822
C51	C	-0.996570	-0.714010	0.226283
H52	H	-0.660069	-0.780275	0.178750
H53	H	-0.832579	-0.842873	0.178754
H54	H	-0.780315	-0.733367	0.303894
H55	H	-0.952857	-0.795941	0.303915
H56	H	-1.084477	-0.744681	0.192196
H57	H	-0.911951	-0.682088	0.192194
H58	H	-1.080421	-0.681328	0.264938
H59	H	-0.069225	-0.705890	0.000088
H60	H	-0.037372	-0.557194	0.000111
C61	C	-0.188294	-1.029196	0.212839
C62	C	-0.078329	-1.072079	0.269822
C63	C	0.060409	-1.126138	0.226285
H64	H	-0.264767	-1.064285	0.178731
H65	H	-0.092269	-1.001682	0.178769
H66	H	-0.174342	-1.099591	0.303878
H67	H	-0.001814	-1.037011	0.303931
H68	H	0.156435	-1.098625	0.192215
H69	H	-0.016080	-1.161222	0.192179
H70	H	0.135051	-1.155236	0.264941
H71	H	-0.845044	-0.303997	0.000090
C72	C	-0.137848	-1.049048	0.787353
C73	C	-0.014380	-1.097238	0.730370
C74	C	0.113834	-1.147318	0.773904
H75	H	-0.049876	-1.018441	0.821457
H76	H	-0.222613	-1.080951	0.821428
H77	H	0.070378	-1.065339	0.696310
H78	H	-0.102296	-1.127861	0.696264
H79	H	0.029069	-1.179221	0.807978
H80	H	0.201792	-1.116705	0.808007
H81	H	0.197608	-1.180026	0.735248
H82	H	-0.127244	-0.182455	0.000122
C83	C	-0.115140	-1.057073	0.605320
C84	C	0.025846	-1.016001	0.555403
C85	C	0.165835	-1.069611	0.511879
H86	H	-0.040196	-1.086078	0.643950
H87	H	-0.190770	-1.092289	0.571013
H88	H	0.101468	-0.980798	0.589707
H89	H	-0.049038	-0.986998	0.516757
H90	H	0.090206	-1.104827	0.477572
H91	H	0.240763	-1.098613	0.550515
H92	H	0.261498	-1.041752	0.477999
H93	H	-0.244971	-1.007151	0.383122
C94	C	-0.693932	-0.831941	0.787370
C95	C	-0.803805	-0.789015	0.730395
C96	C	-0.942322	-0.734881	0.773940
H97	H	-0.790043	-0.859375	0.821464
H98	H	-0.617237	-0.796892	0.821455
H99	H	-0.880496	-0.824059	0.696324
H100	H	-0.707749	-0.761565	0.696299
H101	H	-0.865627	-0.699833	0.808025
H102	H	-1.038419	-0.762322	0.808032
H103	H	-1.016874	-0.705745	0.735290
