data_functionalizedCrystal
_audit_creation_method	'MofGen! by Chris Wilmer'
_symmetry_space_group_name_H-M	'P1'
_symmetry_Int_Tables_number	1
_symmetry_cell_setting	triclinic
loop_
_symmetry_equiv_pos_as_xyz
  x,y,z
_cell_length_a	15.944551
_cell_length_b	14.519709
_cell_length_c	13.596369
_cell_angle_alpha	89.993066
_cell_angle_beta	89.999164
_cell_angle_gamma	83.589442
loop_
_atom_site_label
_atom_site_type_symbol
_atom_site_fract_x
_atom_site_fract_y
_atom_site_fract_z
O1	O	1.114698	0.118943	-0.081691
O2	O	1.364698	0.368943	0.168309
O3	O	1.614698	0.618943	0.418309
O4	O	1.864698	0.868943	0.668309
O5	O	0.870169	0.133607	-0.081716
O6	O	1.120169	0.383607	0.168284
O7	O	1.370169	0.633607	0.418284
O8	O	1.620169	0.883607	0.668284
O9	O	0.998917	-0.007975	-0.081694
O10	O	1.248917	0.242025	0.168306
O11	O	1.498917	0.492025	0.418306
O12	O	1.748917	0.742025	0.668306
O13	O	0.985950	0.260525	-0.081713
O14	O	1.235950	0.510525	0.168287
O15	O	1.485950	0.760525	0.418287
O16	O	1.735950	1.010525	0.668287
O17	O	0.998904	-0.007982	0.081889
O18	O	1.248904	0.242018	0.331889
O19	O	1.498904	0.492018	0.581889
O20	O	1.748904	0.742018	0.831889
O21	O	0.870156	0.133600	0.081867
O22	O	1.120156	0.383600	0.331867
O23	O	1.370156	0.633600	0.581867
O24	O	1.620156	0.883600	0.831867
O25	O	1.114685	0.118936	0.081892
O26	O	1.364685	0.368936	0.331892
O27	O	1.614685	0.618936	0.581892
O28	O	1.864685	0.868936	0.831892
Zn29	Zn	0.992419	0.126267	0.107852
Zn30	Zn	1.242419	0.376267	0.357852
Zn31	Zn	1.492419	0.626267	0.607852
Zn32	Zn	1.742419	0.876267	0.857852
Zn33	Zn	0.992435	0.126276	-0.107676
Zn34	Zn	1.242435	0.376276	0.142324
Zn35	Zn	1.492435	0.626276	0.392324
Zn36	Zn	1.742435	0.876276	0.642324
O37	O	0.985937	0.260518	0.081870
O38	O	1.235937	0.510518	0.331870
O39	O	1.485937	0.760518	0.581870
O40	O	1.735937	1.010518	0.831870
C41	C	0.998306	-0.042337	0.000098
C42	C	1.248306	0.207663	0.250098
C43	C	1.498306	0.457663	0.500098
C44	C	1.748306	0.707663	0.750098
C45	C	0.996495	-0.144715	0.000098
C46	C	1.246495	0.105285	0.250098
C47	C	1.496495	0.355285	0.500098
C48	C	1.746495	0.605285	0.750098
C49	C	0.838868	0.132995	0.000073
C50	C	1.088868	0.382995	0.250073
C51	C	1.338868	0.632995	0.500073
C52	C	1.588868	0.882995	0.750073
C53	C	0.745619	0.131170	0.000064
C54	C	0.995619	0.381170	0.250064
C55	C	1.245619	0.631170	0.500064
C56	C	1.495619	0.881170	0.750064
C57	C	0.989829	-0.519599	0.000072
C58	C	1.239829	-0.269599	0.250072
C59	C	1.489829	-0.019599	0.500072
C60	C	1.739829	0.230401	0.750072
C61	C	0.991680	-0.415295	0.000080
C62	C	1.241680	-0.165295	0.250080
C63	C	1.491680	0.084705	0.500080
C64	C	1.741680	0.334705	0.750080
C65	C	0.993162	-0.332161	0.000086
C66	C	1.243162	-0.082161	0.250086
C67	C	1.493162	0.167839	0.500086
C68	C	1.743162	0.417839	0.750086
C69	C	0.995013	-0.227849	0.000092
C70	C	1.245013	0.022151	0.250092
C71	C	1.495013	0.272151	0.500092
C72	C	1.745013	0.522151	0.750092
C73	C	0.530629	0.039048	0.000089
C74	C	0.780629	0.289048	0.250089
C75	C	1.030629	0.539048	0.500089
C76	C	1.280629	0.789048	0.750089
C77	C	0.469677	0.081830	-0.080569
C78	C	0.719677	0.331830	0.169431
C79	C	0.969677	0.581830	0.419431
C80	C	1.219677	0.831830	0.669431
C81	C	0.574889	0.127868	0.000075
C82	C	0.824889	0.377868	0.250075
C83	C	1.074889	0.627868	0.500075
C84	C	1.324889	0.877868	0.750075
C85	C	0.469687	0.081844	0.080711
C86	C	0.719687	0.331844	0.330711
C87	C	0.969687	0.581844	0.580711
C88	C	1.219687	0.831844	0.830711
C89	C	0.409971	0.124672	0.000091
C90	C	0.659971	0.374672	0.250091
C91	C	0.909971	0.624672	0.500091
C92	C	1.159971	0.874672	0.750091
C93	C	0.515165	0.170674	-0.080649
C94	C	0.765165	0.420674	0.169351
C95	C	1.015165	0.670674	0.419351
C96	C	1.265165	0.920674	0.669351
C97	C	0.515181	0.170675	0.080703
C98	C	0.765181	0.420675	0.330703
C99	C	1.015181	0.670675	0.580703
C100	C	1.265181	0.920675	0.830703
C101	C	0.454247	0.213522	0.000025
C102	C	0.704247	0.463522	0.250025
C103	C	0.954247	0.713522	0.500025
C104	C	1.204247	0.963522	0.750025
C105	C	0.669894	0.129706	0.000065
C106	C	0.919894	0.379706	0.250065
C107	C	1.169894	0.629706	0.500065
C108	C	1.419894	0.879706	0.750065
C109	C	0.314967	0.122840	0.000094
C110	C	0.564967	0.372840	0.250094
C111	C	0.814967	0.622840	0.500094
C112	C	1.064967	0.872840	0.750094
C113	C	1.145986	0.119548	0.000101
C114	C	1.395986	0.369548	0.250101
C115	C	1.645986	0.619548	0.500101
C116	C	1.895986	0.869548	0.750101
C117	C	1.239235	0.121373	0.000104
C118	C	1.489235	0.371373	0.250104
C119	C	1.739235	0.621373	0.500104
C120	C	1.989235	0.871373	0.750104
C121	C	0.986548	0.294880	0.000076
C122	C	1.236548	0.544880	0.250076
C123	C	1.486548	0.794880	0.500076
C124	C	1.736548	1.044880	0.750076
C125	C	0.988359	0.397258	0.000070
C126	C	1.238359	0.647258	0.250070
C127	C	1.488359	0.897258	0.500070
C128	C	1.738359	1.147258	0.750070
N129	N	0.992413	0.126259	0.254944
N130	N	1.242413	0.376259	0.504944
N131	N	1.492413	0.626259	0.754944
N132	N	1.742413	0.876259	1.004944
N133	N	0.992448	0.126276	-0.254767
N134	N	1.242448	0.376276	-0.004767
N135	N	1.492448	0.626276	0.245233
N136	N	1.742448	0.876276	0.495233
C137	C	0.992434	0.126277	0.656235
C138	C	1.242434	0.376277	0.906235
C139	C	1.492434	0.626277	1.156235
C140	C	1.742434	0.876277	1.406235
C141	C	0.992426	0.126275	0.544583
C142	C	1.242426	0.376275	0.794583
C143	C	1.492426	0.626275	1.044583
C144	C	1.742426	0.876275	1.294583
C145	C	0.992424	0.126269	0.455593
C146	C	1.242424	0.376269	0.705593
C147	C	1.492424	0.626269	0.955593
C148	C	1.742424	0.876269	1.205593
C149	C	0.992415	0.126266	0.343934
C150	C	1.242415	0.376266	0.593934
C151	C	1.492415	0.626266	0.843934
C152	C	1.742415	0.876266	1.093934
H153	H	0.563855	-0.034665	-0.000005
H154	H	0.813855	0.215335	0.249995
H155	H	1.063855	0.465335	0.499995
H156	H	1.313855	0.715335	0.749995
Br157	Br	0.399155	0.336506	-0.000052
Br158	Br	0.649155	0.586506	0.249948
Br159	Br	0.899155	0.836506	0.499948
Br160	Br	1.149155	1.086506	0.749948
H161	H	0.535213	0.208216	-0.148914
H162	H	0.785213	0.458216	0.101086
H163	H	1.035213	0.708216	0.351086
H164	H	1.285213	0.958216	0.601086
H165	H	0.535361	0.208208	0.148892
H166	H	0.785361	0.458208	0.398892
H167	H	1.035361	0.708208	0.648892
H168	H	1.285361	0.958208	0.898892
Br169	Br	0.436108	0.019200	0.194362
Br170	Br	0.686108	0.269200	0.444362
Br171	Br	0.936108	0.519200	0.694362
Br172	Br	1.186108	0.769200	0.944362
H173	H	0.449518	0.044266	-0.148754
H174	H	0.699518	0.294266	0.101246
H175	H	0.949518	0.544266	0.351246
H176	H	1.199518	0.794266	0.601246
