data_functionalizedCrystal
_audit_creation_method	'MofGen! by Chris Wilmer'
_symmetry_space_group_name_H-M	'P1'
_symmetry_Int_Tables_number	1
_symmetry_cell_setting	triclinic
loop_
_symmetry_equiv_pos_as_xyz
  x,y,z
_cell_length_a	23.532407
_cell_length_b	27.731996
_cell_length_c	22.010155
_cell_angle_alpha	89.998256
_cell_angle_beta	89.996931
_cell_angle_gamma	82.735033
loop_
_atom_site_label
_atom_site_type_symbol
_atom_site_fract_x
_atom_site_fract_y
_atom_site_fract_z
O1	O	0.755125	0.058673	-0.050457
O2	O	0.589242	0.067164	-0.050476
O3	O	0.677351	-0.007472	-0.050453
O4	O	0.667016	0.133309	-0.050480
O5	O	0.677335	-0.007461	0.050597
O6	O	0.589226	0.067175	0.050574
O7	O	0.755109	0.058685	0.050593
Cu8	Cu	0.672166	0.062931	0.059810
Cu9	Cu	0.672185	0.062918	-0.059693
O10	O	0.667000	0.133320	0.050570
C11	C	0.568019	0.066953	0.000047
C12	C	0.504803	0.066303	0.000040
C13	C	0.677131	-0.025474	0.000074
C14	C	0.676491	-0.079131	0.000080
C15	C	0.105606	0.106394	0.000060
C16	C	0.046207	0.105790	0.000064
O17	O	0.009375	0.142955	0.000079
N18	N	0.023685	0.061419	0.000071
C19	C	0.060566	0.017649	0.000081
O20	O	0.035955	-0.020147	0.000089
C21	C	0.119963	0.018253	0.000082
C22	C	0.142482	0.062627	0.000068
C23	C	0.128124	0.150764	0.000047
C24	C	0.187519	0.151368	0.000042
C25	C	0.224395	0.107601	0.000050
C26	C	0.201876	0.063231	0.000063
C27	C	0.156843	-0.025516	0.000096
C28	C	0.216244	-0.024908	0.000097
C29	C	0.238762	0.019466	0.000083
C30	C	0.298147	0.020068	0.000066
N31	N	0.320669	0.064439	0.000059
C32	C	0.283793	0.108206	0.000051
C33	C	-0.064174	0.016383	0.000081
C34	C	-0.123570	0.015778	0.000077
C35	C	-0.137925	0.103920	0.000060
C36	C	-0.078528	0.104524	0.000061
C37	C	-0.041652	0.060754	0.000074
C38	C	0.408526	0.109470	0.000040
C39	C	0.467927	0.110070	0.000032
C40	C	0.482277	0.021929	0.000052
C41	C	0.422881	0.021329	0.000056
C42	C	0.386007	0.065103	0.000052
O43	O	0.335014	-0.017077	0.000054
O44	O	0.308412	0.145996	0.000051
C45	C	0.672477	-0.411860	-0.055032
C46	C	0.670049	-0.613522	-0.055043
O47	O	0.669718	-0.639598	-0.101889
N48	N	0.669738	-0.638733	0.000039
C49	C	0.670031	-0.613526	0.055127
O50	O	0.669706	-0.639596	0.101978
C51	C	0.672456	-0.411864	0.055138
C52	C	0.672772	-0.386656	0.000052
C53	C	0.672792	-0.386652	-0.110113
C54	C	0.673403	-0.336239	-0.110110
C55	C	0.673697	-0.311036	-0.055026
C56	C	0.673382	-0.336244	0.000055
C57	C	0.672745	-0.386657	0.110226
C58	C	0.673349	-0.336239	0.110223
C59	C	0.673665	-0.311030	0.055138
C60	C	0.674287	-0.260628	0.055143
N61	N	0.674597	-0.235417	0.000061
C62	C	0.674302	-0.260620	-0.055023
C63	C	0.668760	-0.719401	0.055118
C64	C	0.668155	-0.769816	0.055116
C65	C	0.668171	-0.769809	-0.055055
C66	C	0.668780	-0.719393	-0.055052
C67	C	0.669070	-0.694190	0.000036
C68	C	0.675584	-0.154751	-0.055012
C69	C	0.676197	-0.104335	-0.055004
C70	C	0.676177	-0.104347	0.055167
C71	C	0.675568	-0.154759	0.055159
C72	C	0.675269	-0.179960	0.000064
O73	O	0.674612	-0.234520	0.101965
O74	O	0.674615	-0.234540	-0.101867
C75	C	0.671867	-0.462272	-0.055036
C76	C	0.671551	-0.487480	0.000046
C77	C	0.671846	-0.462277	0.055130
C78	C	0.670946	-0.537896	0.000043
C79	C	0.670652	-0.563099	-0.055041
C80	C	0.670962	-0.537888	-0.110123
C81	C	0.671572	-0.487476	-0.110120
C82	C	0.671536	-0.487488	0.110212
C83	C	0.670926	-0.537900	0.110204
C84	C	0.670632	-0.563104	0.055120
C85	C	0.776333	0.058895	0.000069
C86	C	0.839549	0.059545	0.000072
C87	C	0.667221	0.151323	0.000041
C88	C	0.667860	0.204980	0.000031
N89	N	0.672157	0.062940	0.143863
N90	N	0.672199	0.062905	-0.143746
C91	C	0.711202	0.029874	0.563653
C92	C	0.711205	0.029870	0.627260
O93	O	0.744379	0.001762	0.660160
N94	N	0.672185	0.062907	0.659070
C95	C	0.633156	0.095947	0.627269
O96	O	0.599967	0.124047	0.660166
C97	C	0.633151	0.095948	0.563663
C98	C	0.672177	0.062911	0.531856
C99	C	0.750225	-0.003160	0.531846
C100	C	0.750223	-0.003156	0.468243
C101	C	0.711198	0.029882	0.436446
C102	C	0.672175	0.062916	0.468253
C103	C	0.594120	0.128984	0.531863
C104	C	0.594118	0.128982	0.468252
C105	C	0.633144	0.095946	0.436445
C106	C	0.633148	0.095958	0.372853
N107	N	0.672168	0.062920	0.341043
C108	C	0.711193	0.029882	0.372840
C109	C	0.633169	0.095943	0.760847
C110	C	0.633176	0.095945	0.824452
C111	C	0.711224	0.029867	0.824439
C112	C	0.711219	0.029868	0.760832
C113	C	0.672189	0.062905	0.729037
C114	C	0.711186	0.029894	0.239268
C115	C	0.711182	0.029902	0.175660
C116	C	0.633132	0.095978	0.175678
C117	C	0.633138	0.095971	0.239282
C118	C	0.672167	0.062925	0.271075
O119	O	0.599989	0.124050	0.339912
O120	O	0.744372	0.001783	0.339935
H121	H	0.378510	0.145116	0.000038
H122	H	0.673658	-0.315719	-0.154966
H123	H	0.486258	0.146206	0.000020
N124	N	0.753304	-0.005764	0.726522
H125	H	0.793674	-0.000373	0.737583
H126	H	0.747007	-0.040029	0.737608
N127	N	-0.054239	0.152382	0.000054
H128	H	-0.029912	0.154595	-0.037405
H129	H	-0.086648	0.179987	0.000071
N130	N	0.672514	-0.413835	-0.169531
H131	H	0.672819	-0.390210	-0.204418
H132	H	0.707597	-0.438829	-0.171899
N133	N	0.211794	0.199232	0.000036
H134	H	0.236114	0.201454	0.037496
H135	H	0.236090	0.201423	-0.037448
H136	H	0.601360	0.122878	0.149780
H137	H	0.676455	-0.083813	-0.099863
H138	H	0.098105	0.186406	0.000042
H139	H	0.742964	0.003000	0.149765
H140	H	0.601365	0.122877	0.265179
H141	H	0.562341	0.155885	0.557751
N142	N	0.256015	-0.072119	0.000105
H143	H	0.297062	-0.065007	0.000101
H144	H	0.248765	-0.091462	0.037572
N145	N	0.753317	-0.005768	0.858740
H146	H	0.747393	-0.000754	0.903860
H147	H	0.747048	-0.040033	0.847625
H148	H	0.512312	-0.013705	0.000056
N149	N	-0.177690	0.151135	0.000064
H150	H	-0.202659	0.152856	-0.037391
H151	H	-0.202613	0.152823	0.037553
N152	N	-0.147854	-0.032082	0.000080
H153	H	-0.115476	-0.059713	0.000084
H154	H	-0.172186	-0.034251	0.037543
N155	N	0.675242	-0.181954	0.114570
H156	H	0.639672	-0.198780	0.117025
H157	H	0.710332	-0.206937	0.116984
N158	N	0.792329	-0.038791	0.566132
H159	H	0.786091	-0.073073	0.555063
H160	H	0.832670	-0.033342	0.555029
H161	H	-0.034152	-0.019262	0.000087
N162	N	0.132565	-0.073377	0.000114
H163	H	0.164947	-0.101006	0.000124
H164	H	0.108235	-0.075542	0.037578
H165	H	0.671777	-0.466972	0.155069
H166	H	0.404547	-0.014804	0.000058
N167	N	0.675278	-0.181930	-0.114433
H168	H	0.675577	-0.158305	-0.149322
H169	H	0.710351	-0.206934	-0.116820
N170	N	0.669121	-0.692206	-0.114465
H171	H	0.668844	-0.715827	-0.149358
H172	H	0.634053	-0.667199	-0.116872
N173	N	0.676501	-0.077158	0.114577
H174	H	0.676933	-0.041396	0.106215
H175	H	0.641070	-0.081877	0.138626
N176	N	0.667854	-0.796998	-0.114469
H177	H	0.667423	-0.832760	-0.106107
H178	H	0.632642	-0.784096	-0.138524
N179	N	0.753284	-0.005745	0.273554
H180	H	0.778003	-0.026667	0.243746
H181	H	0.778293	0.012655	0.299940
H182	H	0.667906	-0.790338	0.099972
H183	H	0.601387	0.122850	0.734962
N184	N	0.792313	-0.038790	0.433942
H185	H	0.817031	-0.059718	0.463744
H186	H	0.770704	-0.060068	0.407555
H187	H	0.668999	-0.698885	0.099980
H188	H	0.562333	0.155885	0.442367
N189	N	0.672405	-0.413838	0.169640
H190	H	0.672680	-0.390214	0.204531
H191	H	0.636832	-0.430663	0.172036
H192	H	0.601403	0.122851	0.850345
H193	H	0.673577	-0.315719	0.155084
H194	H	0.671829	-0.466956	-0.154976
H195	H	0.670725	-0.558418	-0.154975
H196	H	0.670673	-0.558421	0.155065
