data_functionalizedCrystal
_audit_creation_method	'MofGen! by Chris Wilmer'
_symmetry_space_group_name_H-M	'P1'
_symmetry_Int_Tables_number	1
_symmetry_cell_setting	triclinic
loop_
_symmetry_equiv_pos_as_xyz
  x,y,z
_cell_length_a	18.215407
_cell_length_b	29.839131
_cell_length_c	18.215399
_cell_angle_alpha	89.969127
_cell_angle_beta	89.980167
_cell_angle_gamma	90.041868
loop_
_atom_site_label
_atom_site_type_symbol
_atom_site_fract_x
_atom_site_fract_y
_atom_site_fract_z
Zn1	Zn	1.124987	-0.178853	-0.416101
Zn2	Zn	1.458321	0.154481	-0.082768
Zn3	Zn	1.791654	0.487814	0.250566
Zn4	Zn	1.124860	-0.253982	-0.293028
Zn5	Zn	1.458194	0.079351	0.040305
Zn6	Zn	1.791527	0.412685	0.373638
Zn7	Zn	1.001920	-0.178867	-0.293048
Zn8	Zn	1.335253	0.154466	0.040285
Zn9	Zn	1.668587	0.487799	0.373618
Zn10	Zn	1.001850	-0.253957	-0.416053
Zn11	Zn	1.335184	0.079376	-0.082720
Zn12	Zn	1.668517	0.412710	0.250613
O13	O	1.063404	-0.216415	-0.354558
O14	O	1.396738	0.116919	-0.021224
O15	O	1.730071	0.450252	0.312109
O16	O	1.227955	-0.188823	-0.399787
O17	O	1.561288	0.144510	-0.066453
O18	O	1.894621	0.477844	0.266880
O19	O	1.108528	-0.244034	-0.190047
O20	O	1.441861	0.089299	0.143287
O21	O	1.775195	0.422632	0.476620
O22	O	1.018327	-0.115998	-0.309400
O23	O	1.351661	0.217335	0.023934
O24	O	1.684994	0.550668	0.357267
O25	O	1.227861	-0.244020	-0.309366
O26	O	1.561195	0.089313	0.023968
O27	O	1.894528	0.422647	0.357301
O28	O	1.108745	-0.115987	-0.399806
O29	O	1.442078	0.217346	-0.066473
O30	O	1.775411	0.550679	0.266861
O31	O	1.018204	-0.188848	-0.190061
O32	O	1.351538	0.144485	0.143272
O33	O	1.684871	0.477819	0.476605
O34	O	0.898926	-0.188824	-0.309354
O35	O	1.232260	0.144510	0.023980
O36	O	1.565593	0.477843	0.357313
O37	O	1.018209	-0.243978	-0.519044
O38	O	1.351542	0.089356	-0.185711
O39	O	1.684875	0.422689	0.147623
O40	O	0.898875	-0.243992	-0.399725
O41	O	1.232209	0.089342	-0.066391
O42	O	1.565542	0.422675	0.266942
O43	O	1.108677	-0.188799	-0.519079
O44	O	1.442010	0.144535	-0.185746
O45	O	1.775344	0.477868	0.147588
O46	O	1.108460	-0.316846	-0.309320
O47	O	1.441794	0.016488	0.024014
O48	O	1.775127	0.349821	0.357347
O49	O	1.018086	-0.316827	-0.399705
O50	O	1.351419	0.016506	-0.066372
O51	O	1.684752	0.349839	0.266961
C52	C	0.872198	-0.216407	-0.354537
C53	C	1.205532	0.116926	-0.021203
C54	C	1.538865	0.450260	0.312130
C55	C	0.790399	-0.216414	-0.354545
C56	C	1.123733	0.116919	-0.021212
C57	C	1.457066	0.450252	0.312122
C58	C	0.602198	-0.245186	-0.401542
C59	C	0.935531	0.088148	-0.068209
C60	C	1.268865	0.421481	0.265124
C61	C	0.525339	-0.245187	-0.401551
C62	C	0.858673	0.088146	-0.068218
C63	C	1.192006	0.421480	0.265115
C64	C	0.525363	-0.187652	-0.307589
C65	C	0.858696	0.145682	0.025744
C66	C	1.192030	0.479015	0.359077
C67	C	0.602220	-0.187648	-0.307584
C68	C	0.935554	0.145685	0.025749
C69	C	1.268887	0.479018	0.359082
C70	C	0.640636	-0.216418	-0.354560
C71	C	0.973969	0.116915	-0.021226
C72	C	1.307303	0.450249	0.312107
C73	C	0.486920	-0.216423	-0.354574
C74	C	0.820253	0.116911	-0.021240
C75	C	1.153586	0.450244	0.312093
C76	C	0.403586	-0.216424	-0.354583
C77	C	0.736919	0.116909	-0.021250
C78	C	1.070253	0.450243	0.312083
C79	C	0.723975	-0.216416	-0.354551
C80	C	1.057308	0.116917	-0.021218
C81	C	1.390641	0.450251	0.312115
C82	C	1.063272	-0.333137	-0.354521
C83	C	1.396605	0.000196	-0.021188
C84	C	1.729938	0.333529	0.312145
C85	C	1.063282	-0.383072	-0.354530
C86	C	1.396615	-0.049738	-0.021197
C87	C	1.729949	0.283595	0.312137
C88	C	1.110548	-0.692712	-0.307563
C89	C	1.443882	-0.359379	0.025771
C90	C	1.777215	-0.026045	0.359104
C91	C	1.110639	-0.880385	-0.307591
C92	C	1.443972	-0.547052	0.025742
C93	C	1.777306	-0.213718	0.359076
O94	O	1.150721	-0.904647	-0.267629
O95	O	1.484054	-0.571314	0.065704
O96	O	1.817388	-0.237980	0.399037
N97	N	1.063557	-0.903857	-0.354613
N98	N	1.396890	-0.570523	-0.021280
N99	N	1.730224	-0.237190	0.312054
C100	C	1.016452	-0.880407	-0.401635
C101	C	1.349786	-0.547074	-0.068302
C102	C	1.683119	-0.213741	0.265032
O103	O	0.976414	-0.904678	-0.441636
O104	O	1.309747	-0.571344	-0.108303
O105	O	1.643080	-0.238011	0.225031
C106	C	1.016366	-0.692735	-0.401609
C107	C	1.349699	-0.359402	-0.068276
C108	C	1.683033	-0.026068	0.265057
C109	C	1.063446	-0.669266	-0.354579
C110	C	1.396779	-0.335932	-0.021246
C111	C	1.730112	-0.002599	0.312088
C112	C	1.157625	-0.669243	-0.260536
C113	C	1.490958	-0.335909	0.072797
C114	C	1.824291	-0.002576	0.406130
C115	C	1.157599	-0.622327	-0.260527
C116	C	1.490932	-0.288994	0.072806
C117	C	1.824265	0.044339	0.406140
C118	C	1.110496	-0.598881	-0.307544
C119	C	1.443830	-0.265548	0.025790
C120	C	1.777163	0.067786	0.359123
C121	C	1.063420	-0.622350	-0.354570
C122	C	1.396753	-0.289017	-0.021236
C123	C	1.730086	0.044316	0.312097
C124	C	0.969265	-0.669287	-0.448634
C125	C	1.302599	-0.335953	-0.115301
C126	C	1.635932	-0.002620	0.218032
C127	C	0.969249	-0.622365	-0.448625
C128	C	1.302583	-0.289032	-0.115292
C129	C	1.635916	0.044301	0.218042
C130	C	1.016329	-0.598896	-0.401595
C131	C	1.349662	-0.265563	-0.068261
C132	C	1.682996	0.067770	0.265072
C133	C	1.016291	-0.551989	-0.401577
C134	C	1.349624	-0.218655	-0.068243
C135	C	1.682958	0.114678	0.265090
N136	N	1.063373	-0.528517	-0.354554
N137	N	1.396706	-0.195184	-0.021221
N138	N	1.730040	0.138150	0.312112
C139	C	1.110476	-0.551963	-0.307538
C140	C	1.443809	-0.218630	0.025795
C141	C	1.777142	0.114703	0.359129
C142	C	1.016500	-0.978938	-0.401644
C143	C	1.349834	-0.645605	-0.068311
C144	C	1.683167	-0.312271	0.265023
C145	C	1.016521	-1.025856	-0.401649
C146	C	1.349854	-0.692522	-0.068316
C147	C	1.683187	-0.359189	0.265017
C148	C	1.110709	-1.025830	-0.307606
C149	C	1.444042	-0.692497	0.025727
C150	C	1.777375	-0.359163	0.359060
C151	C	1.110684	-0.978911	-0.307598
C152	C	1.444017	-0.645578	0.025736
C153	C	1.777350	-0.312245	0.359069
C154	C	1.063582	-0.955466	-0.354622
C155	C	1.396916	-0.622133	-0.021288
C156	C	1.730249	-0.288799	0.312045
C157	C	1.110417	-0.453437	-0.307521
C158	C	1.443750	-0.120104	0.025812
C159	C	1.777084	0.213229	0.359146
C160	C	1.110385	-0.406518	-0.307514
C161	C	1.443718	-0.073184	0.025820
C162	C	1.777051	0.260149	0.359153
C163	C	1.016200	-0.406547	-0.401559
C164	C	1.349533	-0.073214	-0.068226
C165	C	1.682867	0.260119	0.265108
C166	C	1.016229	-0.453463	-0.401564
C167	C	1.349563	-0.120130	-0.068231
C168	C	1.682896	0.213204	0.265103
C169	C	1.063344	-0.476907	-0.354543
C170	C	1.396677	-0.143573	-0.021209
C171	C	1.730010	0.189760	0.312124
O172	O	0.976236	-0.527698	-0.441523
O173	O	1.309569	-0.194364	-0.108190
O174	O	1.642903	0.138969	0.225144
O175	O	1.150520	-0.527685	-0.267554
O176	O	1.483853	-0.194351	0.065779
O177	O	1.817187	0.138982	0.399112
C178	C	1.110574	-0.739627	-0.307572
C179	C	1.443908	-0.406294	0.025761
C180	C	1.777241	-0.072961	0.359095
C181	C	1.063498	-0.763097	-0.354598
C182	C	1.396831	-0.429763	-0.021265
C183	C	1.730164	-0.096430	0.312069
C184	C	1.016395	-0.739651	-0.401615
C185	C	1.349728	-0.406317	-0.068281
C186	C	1.683062	-0.072984	0.265052
C187	C	1.063518	-0.810015	-0.354604
C188	C	1.396852	-0.476681	-0.021270
C189	C	1.730185	-0.143348	0.312063
C190	C	1.110621	-0.833461	-0.307587
C191	C	1.443954	-0.500127	0.025746
C192	C	1.777288	-0.166794	0.359080
C193	C	1.157703	-0.809989	-0.260565
C194	C	1.491036	-0.476656	0.072768
C195	C	1.824370	-0.143322	0.406102
C196	C	1.157677	-0.763074	-0.260555
C197	C	1.491010	-0.429740	0.072778
C198	C	1.824344	-0.096407	0.406111
C199	C	0.969313	-0.763122	-0.448637
C200	C	1.302646	-0.429789	-0.115303
C201	C	1.635980	-0.096456	0.218030
C202	C	0.969342	-0.810038	-0.448642
C203	C	1.302676	-0.476704	-0.115308
C204	C	1.636009	-0.143371	0.218025
C205	C	1.016445	-0.833484	-0.401625
C206	C	1.349778	-0.500151	-0.068292
C207	C	1.683112	-0.166817	0.265041
C208	C	1.255357	-0.216423	-0.354579
C209	C	1.588691	0.116911	-0.021246
C210	C	1.922024	0.450244	0.312087
C211	C	1.337156	-0.216426	-0.354589
C212	C	1.670490	0.116907	-0.021255
C213	C	2.003823	0.450241	0.312078
C214	C	1.063449	-0.216384	-0.546511
C215	C	1.396783	0.116950	-0.213177
C216	C	1.730116	0.450283	0.120156
C217	C	1.063468	-0.216370	-0.628310
C218	C	1.396802	0.116963	-0.294976
C219	C	1.730135	0.450296	0.038357
C220	C	1.063558	-0.099236	-0.354610
C221	C	1.396891	0.234097	-0.021277
C222	C	1.730225	0.567430	0.312056
C223	C	1.063623	-0.049302	-0.354633
C224	C	1.396957	0.284032	-0.021300
C225	C	1.730290	0.617365	0.312034
C226	C	1.110592	-0.187612	-0.816523
C227	C	1.443926	0.145721	-0.483190
C228	C	1.777259	0.479055	-0.149856
C229	C	1.110601	-0.187599	-0.893382
C230	C	1.443934	0.145734	-0.560049
C231	C	1.777268	0.479068	-0.226715
C232	C	1.016397	-0.245059	-0.893334
C233	C	1.349730	0.088274	-0.560001
C234	C	1.683063	0.421607	-0.226667
C235	C	1.016385	-0.245070	-0.816477
C236	C	1.349718	0.088263	-0.483143
C237	C	1.683051	0.421597	-0.149810
C238	C	1.063487	-0.216347	-0.778073
C239	C	1.396820	0.116986	-0.444740
C240	C	1.730153	0.450320	-0.111407
C241	C	1.063507	-0.216323	-0.931789
C242	C	1.396841	0.117010	-0.598456
C243	C	1.730174	0.450343	-0.265123
C244	C	1.063517	-0.216309	-1.015123
C245	C	1.396850	0.117024	-0.681790
C246	C	1.730183	0.450357	-0.348456
C247	C	1.063477	-0.216360	-0.694734
C248	C	1.396810	0.116973	-0.361401
C249	C	1.730143	0.450307	-0.028068
C250	C	1.063402	-0.216413	-0.163351
C251	C	1.396736	0.116920	0.169982
C252	C	1.730069	0.450254	0.503315
C253	C	1.063526	-0.216300	-0.081553
C254	C	1.396859	0.117034	0.251780
C255	C	1.730192	0.450367	0.585114
H256	H	0.633517	-0.164220	-0.269325
H257	H	0.966851	0.169114	0.064008
H258	H	1.300184	0.502447	0.397341
H259	H	1.148723	-0.387411	-0.269213
H260	H	1.482056	-0.054077	0.064120
H261	H	1.815389	0.279256	0.397453
N262	N	1.208512	-0.835283	-0.209860
N263	N	1.541845	-0.501950	0.123473
N264	N	1.875178	-0.168617	0.456807
H265	H	1.238338	-0.813300	-0.180065
H266	H	1.571671	-0.479966	0.153268
H267	H	1.905005	-0.146633	0.486601
H268	H	1.178585	-0.854784	-0.175781
H269	H	1.511918	-0.521451	0.157553
H270	H	1.845252	-0.188117	0.490886
N271	N	0.483924	-0.156636	-0.256909
N272	N	0.817257	0.176698	0.076424
N273	N	1.150590	0.510031	0.409758
H274	H	0.452060	-0.135840	-0.286868
H275	H	0.785393	0.197493	0.046465
H276	H	1.118727	0.530826	0.379799
H277	H	0.452053	-0.174911	-0.222771
H278	H	0.785387	0.158422	0.110563
H279	H	1.118720	0.491755	0.443896
H280	H	1.148958	-0.164199	-0.924684
H281	H	1.482291	0.169134	-0.591351
H282	H	1.815625	0.502467	-0.258018
N283	N	0.918499	-0.737841	-0.499346
N284	N	1.251832	-0.404508	-0.166013
N285	N	1.585166	-0.071174	0.167320
H286	H	0.884401	-0.718410	-0.469401
H287	H	1.217734	-0.385077	-0.136068
H288	H	1.551068	-0.051744	0.197266
H289	H	0.948419	-0.718366	-0.533472
H290	H	1.281752	-0.385033	-0.200138
H291	H	1.615085	-0.051700	0.133195
H292	H	0.494047	-0.268612	-0.439810
H293	H	0.827380	0.064721	-0.106477
H294	H	1.160713	0.398055	0.226856
H295	H	0.978143	-0.959852	-0.439938
H296	H	1.311476	-0.626518	-0.106604
H297	H	1.644809	-0.293185	0.226729
N298	N	0.965594	-0.276031	-0.934767
N299	N	1.298928	0.057302	-0.601434
N300	N	1.632261	0.390636	-0.268101
H301	H	0.995476	-0.296847	-0.966654
H302	H	1.328810	0.036487	-0.633321
H303	H	1.662143	0.369820	-0.299987
H304	H	0.935752	-0.294206	-0.898706
H305	H	1.269086	0.039127	-0.565373
H306	H	1.602419	0.372461	-0.232040
H307	H	0.978177	-1.044960	-0.439939
H308	H	1.311510	-0.711627	-0.106606
H309	H	1.644843	-0.378294	0.226727
H310	H	1.148784	-0.472520	-0.269233
H311	H	1.482117	-0.139186	0.064100
H312	H	1.815450	0.194147	0.397433
N313	N	1.161466	-0.953598	-0.256880
N314	N	1.494799	-0.620264	0.076454
N315	N	1.828132	-0.286931	0.409787
H316	H	1.150071	-0.961790	-0.204288
H317	H	1.483404	-0.628457	0.129045
H318	H	1.816738	-0.295123	0.462379
H319	H	1.214023	-0.961740	-0.268424
H320	H	1.547356	-0.628406	0.064909
H321	H	1.880689	-0.295073	0.398242
N322	N	0.918552	-0.835344	-0.499368
N323	N	1.251886	-0.502011	-0.166035
N324	N	1.585219	-0.168678	0.167298
H325	H	0.929952	-0.827147	-0.551957
H326	H	1.263285	-0.493814	-0.218623
H327	H	1.596619	-0.160480	0.114710
H328	H	0.925731	-0.868618	-0.492186
H329	H	1.259064	-0.535284	-0.158853
H330	H	1.592398	-0.201951	0.174481
H331	H	0.978021	-0.268469	-0.785170
H332	H	1.311354	0.064864	-0.451837
H333	H	1.644687	0.398198	-0.118503
N334	N	1.208389	-0.597017	-0.209812
N335	N	1.541722	-0.263684	0.123521
N336	N	1.875056	0.069649	0.456854
H337	H	1.238232	-0.618995	-0.180037
H338	H	1.571565	-0.285662	0.153296
H339	H	1.904899	0.047671	0.486629
H340	H	1.242419	-0.577522	-0.239805
H341	H	1.575752	-0.244189	0.093528
H342	H	1.909085	0.089145	0.426861
H343	H	0.633474	-0.268610	-0.439794
H344	H	0.966807	0.064723	-0.106461
H345	H	1.300140	0.398056	0.226872
N346	N	0.965444	-0.478780	-0.452280
N347	N	1.298778	-0.145446	-0.118946
N348	N	1.632111	0.187887	0.214387
H349	H	0.935599	-0.456805	-0.482061
H350	H	1.268933	-0.123472	-0.148727
H351	H	1.602266	0.209861	0.184606
H352	H	0.995393	-0.498210	-0.486371
H353	H	1.328727	-0.164877	-0.153038
H354	H	1.662060	0.168456	0.180296
H355	H	0.930924	-0.688387	-0.486928
H356	H	1.264258	-0.355054	-0.153595
H357	H	1.597591	-0.021720	0.179739
N358	N	1.208433	-0.694526	-0.209822
N359	N	1.541767	-0.361193	0.123511
N360	N	1.875100	-0.027860	0.456844
H361	H	1.238248	-0.672533	-0.180036
H362	H	1.571581	-0.339199	0.153297
H363	H	1.904915	-0.005866	0.486631
H364	H	1.178506	-0.714022	-0.175736
H365	H	1.511839	-0.380689	0.157597
H366	H	1.845173	-0.047356	0.490930
H367	H	0.930894	-0.603279	-0.486920
H368	H	1.264228	-0.269945	-0.153587
H369	H	1.597561	0.063388	0.179746
N370	N	1.161511	-1.051123	-0.256892
N371	N	1.494845	-0.717789	0.076441
N372	N	1.828178	-0.384456	0.409774
H373	H	1.154376	-1.084405	-0.264037
H374	H	1.487709	-0.751072	0.069297
H375	H	1.821042	-0.417739	0.402630
H376	H	1.214060	-1.042887	-0.268398
H377	H	1.547394	-0.709554	0.064935
H378	H	1.880727	-0.376221	0.398268
N379	N	0.965393	-0.381255	-0.452263
N380	N	1.298727	-0.047921	-0.118930
N381	N	1.632060	0.285412	0.214403
H382	H	0.972527	-0.347972	-0.445118
H383	H	1.305860	-0.014638	-0.111785
H384	H	1.639193	0.318695	0.221549
H385	H	0.976822	-0.389425	-0.504836
H386	H	1.310156	-0.056092	-0.171502
H387	H	1.643489	0.277241	0.161831
N388	N	1.208460	-0.737764	-0.209834
N389	N	1.541794	-0.404430	0.123499
N390	N	1.875127	-0.071097	0.456833
H391	H	1.238301	-0.759742	-0.180057
H392	H	1.571635	-0.426408	0.153276
H393	H	1.904968	-0.093075	0.486610
H394	H	1.242493	-0.718266	-0.239820
H395	H	1.575826	-0.384933	0.093513
H396	H	1.909159	-0.051599	0.426846
H397	H	1.148944	-0.164223	-0.785257
H398	H	1.482277	0.169111	-0.451924
H399	H	1.815610	0.502444	-0.118590
