data_functionalizedCrystal
_audit_creation_method	'MofGen! by Chris Wilmer'
_symmetry_space_group_name_H-M	'P1'
_symmetry_Int_Tables_number	1
_symmetry_cell_setting	triclinic
loop_
_symmetry_equiv_pos_as_xyz
  x,y,z
_cell_length_a	18.050591
_cell_length_b	18.050589
_cell_length_c	12.759387
_cell_angle_alpha	90.029987
_cell_angle_beta	90.028908
_cell_angle_gamma	90.024227
loop_
_atom_site_label
_atom_site_type_symbol
_atom_site_fract_x
_atom_site_fract_y
_atom_site_fract_z
Zn1	Zn	1.135351	-0.295699	0.594246
Zn2	Zn	1.135244	-0.419908	0.418569
Zn3	Zn	1.011153	-0.295728	0.418557
Zn4	Zn	1.011118	-0.419843	0.594183
O5	O	1.073217	-0.357795	0.506389
O6	O	1.239262	-0.312191	0.570974
O7	O	1.118753	-0.403474	0.271547
O8	O	1.027687	-0.191799	0.441885
O9	O	1.239183	-0.403447	0.441905
O10	O	1.118935	-0.191779	0.570963
O11	O	1.027584	-0.312240	0.271538
O12	O	0.907224	-0.312177	0.441823
O13	O	1.027628	-0.403336	0.741212
O14	O	0.907198	-0.403364	0.570854
O15	O	1.118901	-0.312128	0.741259
O16	O	1.118720	-0.523824	0.441843
O17	O	1.027525	-0.523777	0.570865
C18	C	0.880265	-0.357767	0.506331
C19	C	0.797719	-0.357773	0.506331
C20	C	0.598261	-0.308128	0.436325
C21	C	0.548838	-0.375868	0.410478
C22	C	0.646588	-0.357796	0.506378
C23	C	0.548929	-0.290079	0.532223
C24	C	0.500603	-0.357811	0.506422
C25	C	0.598253	-0.425571	0.480481
C26	C	0.598349	-0.339737	0.602271
C27	C	0.548949	-0.407523	0.576460
C28	C	0.730687	-0.357786	0.506350
C29	C	0.416507	-0.357829	0.506450
C30	C	1.073127	-0.550747	0.506371
C31	C	1.073157	-0.633293	0.506399
C32	C	1.023614	-0.832744	0.576537
C33	C	1.005506	-0.882191	0.480665
C34	C	1.073230	-0.784423	0.506413
C35	C	1.091373	-0.882058	0.602296
C36	C	1.073299	-0.930408	0.506435
C37	C	1.055087	-0.832782	0.410490
C38	C	1.140985	-0.832645	0.532186
C39	C	1.122904	-0.882069	0.436248
C40	C	1.073188	-0.700325	0.506402
C41	C	1.073341	-1.014505	0.506435
C42	C	1.266922	-0.357823	0.506448
C43	C	1.349468	-0.357835	0.506473
C44	C	1.073273	-0.357722	0.780423
C45	C	1.073297	-0.357691	0.897199
C46	C	1.073327	-0.164089	0.506429
C47	C	1.073374	-0.081543	0.506447
C48	C	1.073204	-0.357814	0.233421
C49	C	1.073324	-0.357635	0.116645
C50	C	1.168346	-0.262722	0.897268
C51	C	1.215881	-0.215227	0.952163
C52	C	1.215899	-0.215200	1.061885
C53	C	1.168376	-0.262672	1.116714
C54	C	1.120841	-0.310167	1.061819
C55	C	1.120829	-0.310191	0.952094
C56	C	1.025789	-0.405131	1.061750
C57	C	1.025773	-0.405163	0.952028
C58	C	0.978265	-0.452603	1.116579
C59	C	0.930733	-0.500103	1.061684
C60	C	0.930717	-0.500129	0.951956
C61	C	0.978238	-0.452658	0.897133
H62	H	0.527433	-0.449581	0.635720
H63	H	1.039702	-0.811227	0.329389
H64	H	0.948240	-0.903970	0.458885
H65	H	0.619912	-0.266171	0.377020
H66	H	0.527223	-0.232814	0.554029
H67	H	1.168388	-0.262639	1.206055
O68	O	0.884609	-0.546315	1.114828
C69	C	0.900801	-0.620346	1.088035
H70	H	0.929339	-0.621916	1.008382
H71	H	0.938975	-0.645348	1.149803
C72	C	0.793322	-0.663388	1.180757
C73	C	0.828367	-0.665317	1.082922
H74	H	0.748643	-0.691131	1.177608
H75	H	0.782414	-0.613513	1.198812
H76	H	0.825141	-0.684222	1.232220
H77	H	0.796552	-0.644475	1.031464
H78	H	0.839268	-0.715190	1.064859
H79	H	1.164892	-0.903591	0.376887
H80	H	1.198239	-0.810868	0.554011
O81	O	0.978285	-0.452714	1.223162
C82	C	0.997331	-0.523884	1.259803
H83	H	0.984602	-0.566670	1.196553
H84	H	1.058954	-0.525471	1.279294
C85	C	0.967722	-0.489133	1.436623
C86	C	0.952082	-0.541685	1.358942
H87	H	0.939813	-0.500113	1.497779
H88	H	0.954893	-0.441184	1.411939
H89	H	1.019075	-0.490461	1.452852
H90	H	0.900732	-0.540349	1.342704
H91	H	0.964902	-0.589634	1.383626
H92	H	1.106692	-0.903703	0.683375
O93	O	1.261966	-0.169011	0.898946
C94	C	1.245805	-0.094982	0.925787
H95	H	1.186483	-0.091207	0.955925
H96	H	1.285644	-0.075565	0.989497
C97	C	1.327329	-0.050083	0.791315
C98	C	1.254466	-0.045446	0.828324
H99	H	1.332674	-0.019525	0.731198
H100	H	1.338219	-0.099957	0.773234
H101	H	1.360520	-0.033903	0.844416
H102	H	1.221277	-0.061634	0.775228
H103	H	1.243570	0.004427	0.846393
H104	H	0.527092	-0.391154	0.329402
O105	O	0.624111	-0.493866	0.454280
C106	C	0.702217	-0.493030	0.454558
H107	H	0.722675	-0.433837	0.443006
H108	H	0.723395	-0.515147	0.532697
C109	C	0.706167	-0.614898	0.379100
C110	C	0.731294	-0.542198	0.364903
H111	H	0.724104	-0.645230	0.323800
H112	H	0.653546	-0.615463	0.378916
H113	H	0.723817	-0.633320	0.444218
H114	H	0.713636	-0.523775	0.299792
H115	H	0.783913	-0.541631	0.365074
H116	H	1.168343	-0.262746	0.807927
H117	H	0.620112	-0.324430	0.683322
O118	O	1.261967	-0.168984	1.115262
C119	C	1.219725	-0.121009	1.178747
H120	H	1.161233	-0.116413	1.145654
H121	H	1.217161	-0.143956	1.261893
C122	C	1.327899	-0.049458	1.221126
C123	C	1.256060	-0.043809	1.180475
H124	H	1.350313	-0.001838	1.222197
H125	H	1.356359	-0.081781	1.178358
H126	H	1.325752	-0.068583	1.290411
H127	H	1.258208	-0.024693	1.111188
H128	H	1.227601	-0.011481	1.223232
O129	O	0.884646	-0.546304	0.898514
C130	C	0.926890	-0.594309	0.835076
H131	H	0.983186	-0.568135	0.818674
H132	H	0.935017	-0.649336	0.877354
C133	C	0.816865	-0.639920	0.750973
C134	C	0.886007	-0.607769	0.730820
H135	H	0.791646	-0.648226	0.686665
H136	H	0.788404	-0.607580	0.793715
H137	H	0.823647	-0.685772	0.786207
H138	H	0.879224	-0.561914	0.695599
H139	H	0.914466	-0.640101	0.688070
H140	H	0.981593	-0.811086	0.635755
H141	H	0.978233	-0.452678	0.807792
