data_functionalizedCrystal
_audit_creation_method	'MofGen! by Chris Wilmer'
_symmetry_space_group_name_H-M	'P1'
_symmetry_Int_Tables_number	1
_symmetry_cell_setting	triclinic
loop_
_symmetry_equiv_pos_as_xyz
  x,y,z
_cell_length_a	11.169417
_cell_length_b	12.759399
_cell_length_c	12.759393
_cell_angle_alpha	90.030906
_cell_angle_beta	89.980603
_cell_angle_gamma	89.984005
loop_
_atom_site_label
_atom_site_type_symbol
_atom_site_fract_x
_atom_site_fract_y
_atom_site_fract_z
Zn1	Zn	1.834917	0.418191	-0.593974
Zn2	Zn	1.834792	0.593906	-0.418293
Zn3	Zn	1.634205	0.418245	-0.418314
Zn4	Zn	1.634194	0.593831	-0.593935
O5	O	1.734527	0.506043	-0.506129
O6	O	2.002850	0.441509	-0.570677
O7	O	1.808135	0.570659	-0.271274
O8	O	1.660887	0.271217	-0.441641
O9	O	2.002758	0.570606	-0.441605
O10	O	1.808350	0.271177	-0.570697
O11	O	1.660765	0.441601	-0.271290
O12	O	1.466254	0.441528	-0.441603
O13	O	1.660869	0.570478	-0.740961
O14	O	1.466246	0.570530	-0.570631
O15	O	1.808339	0.441436	-0.740990
O16	O	1.808125	0.740917	-0.441567
O17	O	1.660747	0.740862	-0.570610
C18	C	1.734453	0.779011	-0.506105
C19	C	1.734532	0.895787	-0.506130
C20	C	1.422702	0.506027	-0.506115
C21	C	1.289302	0.506046	-0.506134
C22	C	1.734617	0.505942	-0.780162
C23	C	1.734655	0.505899	-0.896939
C24	C	2.047569	0.506060	-0.506143
C25	C	2.180969	0.506067	-0.506149
C26	C	1.734634	0.232010	-0.506176
C27	C	1.734679	0.115233	-0.506196
C28	C	1.811359	0.950643	-0.439013
C29	C	1.811436	1.060367	-0.439049
C30	C	1.657848	1.060370	-0.573320
C31	C	1.657778	0.950648	-0.573289
C32	C	1.811449	0.438696	-0.951818
C33	C	1.811469	0.438651	-1.061542
C34	C	1.657899	0.573021	-1.061499
C35	C	1.657873	0.573060	-0.951777
C36	C	1.734507	0.506068	-0.233161
C37	C	1.734701	0.505815	-0.116385
H38	H	1.873998	1.105026	-0.384397
H39	H	1.595330	0.627784	-0.907093
H40	H	1.873966	0.384007	-0.907172
O41	O	1.575043	1.119539	-0.645734
H42	H	1.587983	1.205052	-0.634469
O43	O	1.574909	0.891478	-0.645687
H44	H	1.587768	0.805965	-0.634391
O45	O	1.894302	0.366175	-1.120737
H46	H	1.947692	0.319490	-1.064167
H47	H	1.873858	0.905978	-0.384330
O48	O	1.575087	0.645459	-1.120644
H49	H	1.588011	0.634148	-1.206161
