data_functionalizedCrystal
_audit_creation_method	'MofGen! by Chris Wilmer'
_symmetry_space_group_name_H-M	'P1'
_symmetry_Int_Tables_number	1
_symmetry_cell_setting	triclinic
loop_
_symmetry_equiv_pos_as_xyz
  x,y,z
_cell_length_a	11.169417
_cell_length_b	11.169416
_cell_length_c	12.759393
_cell_angle_alpha	89.971356
_cell_angle_beta	89.981660
_cell_angle_gamma	90.011219
loop_
_atom_site_label
_atom_site_type_symbol
_atom_site_fract_x
_atom_site_fract_y
_atom_site_fract_z
Zn1	Zn	1.834945	-0.477708	-0.593998
Zn2	Zn	1.834839	-0.678441	-0.418327
Zn3	Zn	1.634236	-0.477774	-0.418338
Zn4	Zn	1.634238	-0.678351	-0.593969
O5	O	1.734564	-0.578068	-0.506158
O6	O	2.002880	-0.504346	-0.570703
O7	O	1.808184	-0.651887	-0.271308
O8	O	1.660903	-0.309815	-0.441657
O9	O	2.002803	-0.651824	-0.441638
O10	O	1.808363	-0.309767	-0.570713
O11	O	1.660801	-0.504457	-0.271316
O12	O	1.466286	-0.504370	-0.441628
O13	O	1.660907	-0.651670	-0.740994
O14	O	1.466288	-0.651734	-0.570664
O15	O	1.808366	-0.504259	-0.741016
O16	O	1.808186	-0.846379	-0.441610
O17	O	1.660805	-0.846313	-0.570653
C18	C	1.734517	-0.889893	-0.506150
C19	C	1.734606	-1.023293	-0.506182
C20	C	1.422740	-0.578050	-0.506145
C21	C	1.289340	-0.578071	-0.506164
C22	C	2.047607	-0.578088	-0.506172
C23	C	2.181007	-0.578096	-0.506179
C24	C	1.734649	-0.577947	-0.780192
C25	C	1.734684	-0.577896	-0.896968
C26	C	1.734645	-0.265026	-0.506189
C27	C	1.734679	-0.131626	-0.506203
C28	C	1.811476	-0.501131	-0.951843
C29	C	1.811505	-0.501088	-1.061567
C30	C	1.657946	-0.654584	-1.061532
C31	C	1.657912	-0.654620	-0.951810
C32	C	1.900136	-0.412515	-0.951865
C33	C	1.900165	-0.412472	-1.061589
C34	C	1.734550	-0.578102	-0.233191
C35	C	1.734747	-0.577816	-0.116415
H36	H	1.595376	-0.717125	-0.907135
H37	H	1.875262	-0.319569	-0.922104
H38	H	1.866900	-0.324158	-1.095633
H39	H	1.988410	-0.445835	-0.917830
H40	H	1.993121	-0.437365	-1.091368
H41	H	1.595438	-0.717047	-1.106198
