data_functionalizedCrystal
_audit_creation_method	'MofGen! by Chris Wilmer'
_symmetry_space_group_name_H-M	'P1'
_symmetry_Int_Tables_number	1
_symmetry_cell_setting	triclinic
loop_
_symmetry_equiv_pos_as_xyz
  x,y,z
_cell_length_a	18.101395
_cell_length_b	18.101398
_cell_length_c	18.101389
_cell_angle_alpha	89.975673
_cell_angle_beta	90.016841
_cell_angle_gamma	89.973629
loop_
_atom_site_label
_atom_site_type_symbol
_atom_site_fract_x
_atom_site_fract_y
_atom_site_fract_z
Zn1	Zn	-0.295001	-1.132121	0.418847
Zn2	Zn	0.038333	-0.798788	0.752180
Zn3	Zn	0.371666	-0.465454	1.085514
Zn4	Zn	-0.418826	-1.132017	0.295009
Zn5	Zn	-0.085493	-0.798684	0.628342
Zn6	Zn	0.247840	-0.465350	0.961675
Zn7	Zn	-0.294993	-1.008280	0.295008
Zn8	Zn	0.038340	-0.674947	0.628341
Zn9	Zn	0.371674	-0.341613	0.961675
Zn10	Zn	-0.418795	-1.008231	0.418797
Zn11	Zn	-0.085461	-0.674897	0.752131
Zn12	Zn	0.247872	-0.341564	1.085464
O13	O	-0.356904	-1.070162	0.356915
O14	O	-0.023570	-0.736829	0.690249
O15	O	0.309763	-0.403495	1.023582
O16	O	-0.311443	-1.235740	0.402440
O17	O	0.021890	-0.902407	0.735774
O18	O	0.355224	-0.569073	1.069107
O19	O	-0.402410	-1.115580	0.191376
O20	O	-0.069076	-0.782247	0.524709
O21	O	0.264257	-0.448913	0.858042
O22	O	-0.191361	-1.024772	0.311456
O23	O	0.141972	-0.691439	0.644789
O24	O	0.475305	-0.358105	0.978123
O25	O	-0.402417	-1.235664	0.311457
O26	O	-0.069084	-0.902330	0.644790
O27	O	0.264249	-0.568997	0.978124
O28	O	-0.191367	-1.115757	0.402440
O29	O	0.141966	-0.782424	0.735773
O30	O	0.475300	-0.449091	1.069106
O31	O	-0.311430	-1.024671	0.191375
O32	O	0.021903	-0.691338	0.524708
O33	O	0.355237	-0.358004	0.858042
O34	O	-0.311399	-0.904641	0.311408
O35	O	0.021934	-0.571307	0.644741
O36	O	0.355268	-0.237974	0.978075
O37	O	-0.402363	-1.024688	0.522437
O38	O	-0.069030	-0.691355	0.855770
O39	O	0.264303	-0.358021	1.189103
O40	O	-0.402356	-0.904604	0.402355
O41	O	-0.069022	-0.571271	0.735689
O42	O	0.264311	-0.237938	1.069022
O43	O	-0.311412	-1.115710	0.522473
O44	O	0.021921	-0.782376	0.855807
O45	O	0.355254	-0.449043	1.189140
O46	O	-0.522455	-1.115532	0.311409
O47	O	-0.189122	-0.782199	0.644742
O48	O	0.144212	-0.448866	0.978076
O49	O	-0.522432	-1.024587	0.402356
O50	O	-0.189099	-0.691254	0.735689
O51	O	0.144235	-0.357920	1.069023
C52	C	-0.356874	-0.877752	0.356877
C53	C	-0.023540	-0.544418	0.690210
C54	C	0.309793	-0.211085	1.023543
C55	C	-0.356879	-0.795437	0.356878
C56	C	-0.023545	-0.462104	0.690211
C57	C	0.309788	-0.128771	1.023544
C58	C	-0.549314	-1.070063	0.356893
C59	C	-0.215981	-0.736730	0.690227
C60	C	0.117352	-0.403396	1.023560
C61	C	-0.631628	-1.070088	0.356909
C62	C	-0.298295	-0.736755	0.690242
C63	C	0.035038	-0.403422	1.023576
C64	C	-0.356885	-1.070205	0.550077
C65	C	-0.023552	-0.736872	0.883411
C66	C	0.309782	-0.403538	1.216744
C67	C	-0.356877	-1.070223	0.632391
C68	C	-0.023544	-0.736890	0.965725
C69	C	0.309790	-0.403556	1.299058
C70	C	-0.930719	-1.070251	0.356949
C71	C	-0.597386	-0.736918	0.690282
C72	C	-0.264053	-0.403584	1.023615
C73	C	-0.899410	-1.013163	0.414312
C74	C	-0.566077	-0.679830	0.747646
C75	C	-0.232744	-0.346497	1.080979
C76	C	-0.813792	-1.012892	0.414133
C77	C	-0.480459	-0.679559	0.747466
C78	C	-0.147126	-0.346225	1.080799
C79	C	-0.782337	-1.070170	0.356930
C80	C	-0.449003	-0.736837	0.690263
C81	C	-0.115670	-0.403504	1.023596
C82	C	-0.813472	-1.049041	0.278878
C83	C	-0.480139	-0.715708	0.612211
C84	C	-0.146806	-0.382374	0.945545
C85	C	-0.899117	-1.048673	0.279221
C86	C	-0.565784	-0.715340	0.612555
C87	C	-0.232451	-0.382006	0.945888
C88	C	-0.899073	-1.148593	0.376950
C89	C	-0.565740	-0.815259	0.710283
C90	C	-0.232407	-0.481926	1.043617
C91	C	-0.813422	-1.148132	0.378661
C92	C	-0.480089	-0.814799	0.711995
C93	C	-0.146756	-0.481465	1.045328
C94	C	-0.698477	-1.070126	0.356914
C95	C	-0.365144	-0.736793	0.690247
C96	C	-0.031811	-0.403459	1.023581
C97	C	-1.014579	-1.070293	0.356959
C98	C	-0.681245	-0.736960	0.690293
C99	C	-0.347912	-0.403627	1.023626
C100	C	-0.163742	-1.070282	0.356953
C101	C	0.169591	-0.736948	0.690287
C102	C	0.502925	-0.403615	1.023620
C103	C	-0.081428	-1.070333	0.356970
C104	C	0.251906	-0.736999	0.690303
C105	C	0.585239	-0.403666	1.023636
C106	C	-0.356934	-1.263324	0.356954
C107	C	-0.023601	-0.929991	0.690288
C108	C	0.309732	-0.596657	1.023621
C109	C	-0.356948	-1.345638	0.356971
C110	C	-0.023614	-1.012305	0.690304
C111	C	0.309719	-0.678971	1.023638
C112	C	-0.356925	-0.496347	0.356940
C113	C	-0.023592	-0.163013	0.690273
C114	C	0.309742	0.170320	1.023606
C115	C	-0.299412	-0.527670	0.299997
C116	C	0.033922	-0.194336	0.633331
C117	C	0.367255	0.138997	0.966664
C118	C	-0.299566	-0.613288	0.299754
C119	C	0.033768	-0.279955	0.633088
C120	C	0.367101	0.053379	0.966421
C121	C	-0.356901	-0.644729	0.356909
C122	C	-0.023568	-0.311396	0.690242
C123	C	0.309765	0.021938	1.023576
C124	C	-0.434909	-0.613611	0.335587
C125	C	-0.101576	-0.280278	0.668920
C126	C	0.231757	0.053056	1.002253
C127	C	-0.434590	-0.527966	0.335191
C128	C	-0.101256	-0.194632	0.668524
C129	C	0.232077	0.138701	1.001857
C130	C	-0.337109	-0.527961	0.435339
C131	C	-0.003775	-0.194628	0.768672
C132	C	0.329558	0.138706	1.102005
C133	C	-0.335371	-0.613612	0.434911
C134	C	-0.002038	-0.280279	0.768244
C135	C	0.331295	0.053055	1.101577
C136	C	-0.356893	-0.728589	0.356893
C137	C	-0.023559	-0.395255	0.690226
C138	C	0.309774	-0.061922	1.023559
C139	C	-0.356939	-0.412487	0.356954
C140	C	-0.023605	-0.079154	0.690288
C141	C	0.309728	0.254180	1.023621
C142	C	-0.356869	-1.070162	0.164505
C143	C	-0.023536	-0.736829	0.497838
C144	C	0.309798	-0.403495	0.831171
C145	C	-0.356668	-1.070287	0.082191
C146	C	-0.023335	-0.736954	0.415524
C147	C	0.309998	-0.403621	0.748858
C148	C	-0.356738	-1.070266	0.931482
C149	C	-0.023405	-0.736933	1.264816
C150	C	0.309928	-0.403600	1.598149
C151	C	-0.413780	-1.012801	0.900134
C152	C	-0.080447	-0.679467	1.233468
C153	C	0.252887	-0.346134	1.566801
C154	C	-0.414045	-1.012956	0.814516
C155	C	-0.080711	-0.679623	1.147849
C156	C	0.252622	-0.346289	1.481183
C157	C	-0.356807	-1.070244	0.783100
C158	C	-0.023474	-0.736911	1.116433
C159	C	0.309860	-0.403578	1.449767
C160	C	-0.377998	-1.148270	0.814206
C161	C	-0.044664	-0.814936	1.147539
C162	C	0.288669	-0.481603	1.480873
C163	C	-0.378372	-1.147949	0.899851
C164	C	-0.045039	-0.814616	1.233184
C165	C	0.288295	-0.481283	1.566518
C166	C	-0.278379	-1.050385	0.899905
C167	C	0.054954	-0.717052	1.233238
C168	C	0.388288	-0.383718	1.566571
C169	C	-0.278832	-1.048649	0.814254
C170	C	0.054502	-0.715315	1.147587
C171	C	0.387835	-0.381982	1.480920
C172	C	-0.356845	-1.070237	0.699240
C173	C	-0.023511	-0.736903	1.032574
C174	C	0.309822	-0.403570	1.365907
C175	C	-0.356702	-1.070279	1.015342
C176	C	-0.023369	-0.736946	1.348675
C177	C	0.309964	-0.403613	1.682009
H178	H	-0.792740	-1.026111	0.472007
H179	H	-0.459407	-0.692778	0.805340
H180	H	-0.126073	-0.359445	1.138674
Cl181	Cl	-0.393514	-0.923197	0.931909
Cl182	Cl	-0.060181	-0.589864	1.265242
Cl183	Cl	0.273153	-0.256530	1.598576
Cl184	Cl	-0.782244	-0.923237	0.393680
Cl185	Cl	-0.448911	-0.589904	0.727014
Cl186	Cl	-0.115577	-0.256571	1.060347
Cl187	Cl	-0.931155	-1.033365	0.503958
Cl188	Cl	-0.597822	-0.700031	0.837291
Cl189	Cl	-0.264488	-0.366698	1.170625
Cl190	Cl	-0.503710	-1.033264	0.782890
Cl191	Cl	-0.170377	-0.699930	1.116223
Cl192	Cl	0.162957	-0.366597	1.449556
Cl193	Cl	-0.502843	-0.645041	0.397619
Cl194	Cl	-0.169510	-0.311708	0.730953
Cl195	Cl	0.163824	0.021625	1.064286
H196	H	-0.400784	-0.955097	0.793483
H197	H	-0.067450	-0.621764	1.126816
H198	H	0.265883	-0.288430	1.460150
Cl199	Cl	-0.932742	-0.924056	0.394131
Cl200	Cl	-0.599409	-0.590723	0.727464
Cl201	Cl	-0.266076	-0.257390	1.060797
Cl202	Cl	-0.930054	-0.960257	0.253066
Cl203	Cl	-0.596720	-0.626924	0.586399
Cl204	Cl	-0.263387	-0.293590	0.919732
H205	H	-0.919830	-1.088449	0.235023
H206	H	-0.586497	-0.755116	0.568357
H207	H	-0.253163	-0.421783	0.901690
H208	H	-0.312363	-0.506120	0.242242
H209	H	0.020971	-0.172787	0.575576
H210	H	0.354304	0.160546	0.908909
H211	H	-0.234076	-1.087450	0.792868
H212	H	0.099258	-0.754117	1.126202
H213	H	0.432591	-0.420783	1.459535
Cl214	Cl	-0.782003	-1.172736	0.467347
Cl215	Cl	-0.448669	-0.839403	0.800680
Cl216	Cl	-0.115336	-0.506069	1.134014
H217	H	-0.478892	-0.507244	0.374857
H218	H	-0.145558	-0.173910	0.708190
H219	H	0.187775	0.159423	1.041523
Cl220	Cl	-0.209824	-0.495911	0.320401
Cl221	Cl	0.123509	-0.162578	0.653734
Cl222	Cl	0.456842	0.170755	0.987068
H223	H	-0.471508	-1.025796	0.921661
H224	H	-0.138174	-0.692463	1.254995
H225	H	0.195159	-0.359130	1.588328
Cl226	Cl	-0.395338	-0.646653	0.503926
Cl227	Cl	-0.062005	-0.313320	0.837260
Cl228	Cl	0.271329	0.020014	1.170593
H229	H	-0.378999	-0.507705	0.477766
H230	H	-0.045666	-0.174371	0.811100
H231	H	0.287667	0.158962	1.144433
Cl232	Cl	-0.782017	-1.111215	0.211087
Cl233	Cl	-0.448684	-0.777882	0.544421
Cl234	Cl	-0.115351	-0.444549	0.877754
Cl235	Cl	-0.466810	-1.173969	0.930710
Cl236	Cl	-0.133477	-0.840636	1.264043
Cl237	Cl	0.199856	-0.507302	1.597376
H238	H	-0.452008	-0.635026	0.278892
H239	H	-0.118675	-0.301692	0.612226
H240	H	0.214659	0.031641	0.945559
Cl241	Cl	-0.250812	-0.494660	0.465269
Cl242	Cl	0.082521	-0.161327	0.798602
Cl243	Cl	0.415854	0.172006	1.131936
Cl244	Cl	-0.316972	-1.216255	0.931875
Cl245	Cl	0.016362	-0.882922	1.265208
Cl246	Cl	0.349695	-0.549588	1.598541
H247	H	-0.337757	-1.192236	0.793859
H248	H	-0.004423	-0.858902	1.127192
H249	H	0.328910	-0.525569	1.460526
H250	H	-0.792080	-0.992380	0.261633
H251	H	-0.458746	-0.659047	0.594966
H252	H	-0.125413	-0.325714	0.928299
Cl253	Cl	-0.465497	-1.174744	0.781107
Cl254	Cl	-0.132163	-0.841411	1.114440
Cl255	Cl	0.201170	-0.508078	1.447773
H256	H	-0.792007	-1.192915	0.339927
H257	H	-0.458673	-0.859582	0.673260
H258	H	-0.125340	-0.526248	1.006593
H259	H	-0.259074	-0.994478	0.921490
H260	H	0.074259	-0.661144	1.254823
H261	H	0.407593	-0.327811	1.588157
H262	H	-0.920633	-1.167856	0.432895
H263	H	-0.587300	-0.834523	0.766229
H264	H	-0.253966	-0.501190	1.099562
Cl265	Cl	-0.246749	-0.645034	0.459745
Cl266	Cl	0.086584	-0.311701	0.793078
Cl267	Cl	0.419918	0.021632	1.126412
Cl268	Cl	-0.319786	-0.644872	0.210062
Cl269	Cl	0.013547	-0.311539	0.543396
Cl270	Cl	0.346880	0.021794	0.876729
H271	H	-0.262852	-0.991229	0.793921
H272	H	0.070482	-0.657896	1.127255
H273	H	0.403815	-0.324562	1.460588
Cl274	Cl	-0.930346	-1.214263	0.312458
Cl275	Cl	-0.597013	-0.880930	0.645791
Cl276	Cl	-0.263679	-0.547596	0.979124
H277	H	-0.235880	-1.092240	0.920179
H278	H	0.097453	-0.758907	1.253513
H279	H	0.430787	-0.425574	1.586846
H280	H	-0.451397	-0.507954	0.277877
H281	H	-0.118063	-0.174621	0.611211
H282	H	0.215270	0.158713	0.944544
Cl283	Cl	-0.210254	-0.645776	0.320386
Cl284	Cl	0.123079	-0.312443	0.653720
Cl285	Cl	0.456412	0.020890	0.987053
