data_functionalizedCrystal
_audit_creation_method	'MofGen! by Chris Wilmer'
_symmetry_space_group_name_H-M	'P1'
_symmetry_Int_Tables_number	1
_symmetry_cell_setting	triclinic
loop_
_symmetry_equiv_pos_as_xyz
  x,y,z
_cell_length_a	12.645331
_cell_length_b	16.994747
_cell_length_c	12.645323
_cell_angle_alpha	90.006372
_cell_angle_beta	90.022676
_cell_angle_gamma	90.010038
loop_
_atom_site_label
_atom_site_type_symbol
_atom_site_fract_x
_atom_site_fract_y
_atom_site_fract_z
Zn1	Zn	1.620780	-0.314043	0.599583
Zn2	Zn	1.620682	-0.445958	0.422380
Zn3	Zn	1.443495	-0.314070	0.422327
Zn4	Zn	1.443497	-0.445907	0.599595
O5	O	1.532114	-0.379995	0.510971
O6	O	1.769114	-0.331552	0.576093
O7	O	1.597136	-0.428496	0.274026
O8	O	1.467052	-0.203685	0.445813
O9	O	1.769043	-0.428470	0.445903
O10	O	1.597303	-0.203666	0.576042
O11	O	1.466957	-0.331598	0.273987
O12	O	1.295148	-0.331548	0.445825
O13	O	1.467056	-0.428382	0.747941
O14	O	1.295149	-0.428408	0.576063
O15	O	1.597305	-0.331503	0.747932
O16	O	1.597138	-0.556333	0.445915
O17	O	1.466961	-0.556295	0.576115
C18	C	1.256684	-0.379976	0.510941
C19	C	1.138854	-0.379987	0.510953
C20	C	1.532052	-0.584934	0.511019
C21	C	1.532060	-0.674257	0.511016
Zn22	Zn	1.443525	-0.945156	0.422297
Zn23	Zn	1.620827	-0.945108	0.599536
Zn24	Zn	1.443533	-0.813299	0.599577
Zn25	Zn	1.620702	-0.813214	0.422345
O26	O	1.532147	-0.879194	0.510939
O27	O	1.467094	-1.055531	0.445771
O28	O	1.597365	-0.927639	0.747889
O29	O	1.295185	-0.830846	0.576058
O30	O	1.597357	-1.055496	0.575987
O31	O	1.295179	-0.927721	0.445811
O32	O	1.467108	-0.830800	0.747919
O33	O	1.466986	-0.702907	0.576105
O34	O	1.597143	-0.830700	0.273992
O35	O	1.597151	-0.702844	0.445893
O36	O	1.466972	-0.927638	0.273956
O37	O	1.769158	-0.927556	0.576034
O38	O	1.769066	-0.830654	0.445853
C39	C	0.971253	-0.318772	0.429471
C40	C	1.093813	-0.318930	0.429113
C41	C	1.094346	-0.463080	0.480474
C42	C	0.971748	-0.462746	0.479918
C43	C	0.971701	-0.358899	0.623227
C44	C	1.094307	-0.357043	0.622603
C45	C	1.808619	-0.380014	0.511003
C46	C	1.926449	-0.380022	0.511016
C47	C	1.532192	-0.379934	0.787477
C48	C	1.532225	-0.379908	0.905307
C49	C	1.532180	-0.174254	0.510917
C50	C	1.532213	-0.084932	0.510895
C51	C	1.532097	-0.379998	0.235541
C52	C	1.532269	-0.379802	0.117712
C53	C	1.450032	-0.440567	1.072877
C54	C	1.450248	-0.440868	0.950317
C55	C	1.643928	-0.402468	0.949836
C56	C	1.643477	-0.402849	1.072435
C57	C	1.503771	-0.296348	1.072468
C58	C	1.501279	-0.296849	0.949862
C59	C	1.807577	-0.879092	0.510947
C60	C	1.925407	-0.879072	0.510981
C61	C	1.532043	-0.879165	0.234434
C62	C	1.531998	-0.879153	0.116603
C63	C	1.255642	-0.879299	0.510934
C64	C	1.137812	-0.879343	0.510932
C65	C	1.532175	-0.879268	0.786369
C66	C	1.531924	-0.879431	0.904198
C67	C	2.092957	-0.818263	0.428924
C68	C	1.970397	-0.818025	0.429121
C69	C	1.969907	-0.856576	0.622732
C70	C	2.092505	-0.856133	0.622301
C71	C	2.092617	-0.962524	0.482403
C72	C	1.970011	-0.962084	0.479892
C73	C	1.613524	-0.817954	-0.050938
C74	C	1.613912	-0.818134	0.071622
C75	C	1.562351	-0.962256	0.072094
C76	C	1.562878	-0.961900	-0.050504
C77	C	1.419713	-0.857974	-0.050607
C78	C	1.420369	-0.856139	0.072000
H79	H	1.123904	-0.257313	0.448212
H80	H	1.367416	-0.426750	0.920209
C81	C	1.671957	-0.986939	0.113550
H82	H	1.699367	-0.946717	0.157970
H83	H	1.665674	-1.034409	0.152702
H84	H	1.718461	-0.994900	0.055543
H85	H	1.504763	-1.009085	0.101230
H86	H	1.697053	-0.832148	0.100944
H87	H	0.942111	-0.509927	0.536723
C88	C	2.132596	-0.913358	0.707797
H89	H	2.073953	-0.936768	0.742644
H90	H	2.174335	-0.953222	0.675714
H91	H	2.174219	-0.885376	0.757796
C92	C	2.134370	-0.990197	0.374233
H93	H	2.179760	-0.951107	0.345533
H94	H	2.172551	-1.037904	0.382821
H95	H	2.076550	-0.998632	0.327598
H96	H	1.392052	-0.798427	-0.081533
C97	C	1.576337	-0.232460	0.908556
H98	H	1.555799	-0.182951	0.936750
H99	H	1.646659	-0.244062	0.929902
H100	H	1.572868	-0.230638	0.833548
C101	C	1.389439	-0.773525	0.111301
H102	H	1.444316	-0.753139	0.154717
H103	H	1.379059	-0.739719	0.052386
H104	H	1.325865	-0.776755	0.151070
C105	C	1.729044	-0.345652	1.112515
H106	H	1.729338	-0.345488	1.187643
H107	H	1.796284	-0.362026	1.087295
H108	H	1.714281	-0.294144	1.087341
H109	H	1.941074	-0.756192	0.448076
C110	C	1.930714	-0.985014	0.368803
H111	H	1.957964	-1.035283	0.350448
H112	H	1.855631	-0.986788	0.368541
H113	H	1.954318	-0.947121	0.318882
C114	C	2.131149	-0.773725	0.655075
H115	H	2.071921	-0.740832	0.668522
H116	H	2.172992	-0.777762	0.717243
H117	H	2.172358	-0.751733	0.599663
C118	C	1.928649	-1.026560	0.554774
H119	H	1.883441	-1.003593	0.606213
H120	H	1.890355	-1.064600	0.515210
H121	H	1.986644	-1.051255	0.589122
C122	C	1.333841	-0.911987	0.113323
H123	H	1.364800	-0.950242	0.158519
H124	H	1.282669	-0.882636	0.151621
H125	H	1.300687	-0.937559	0.055306
C126	C	1.928444	-0.775074	0.656072
H127	H	1.955810	-0.761985	0.723806
H128	H	1.950545	-0.736789	0.606010
H129	H	1.853389	-0.776173	0.658983
C130	C	2.131815	-1.023730	0.563200
H131	H	2.175512	-0.998590	0.614153
H132	H	2.072872	-1.047075	0.597600
H133	H	2.171271	-1.063277	0.527690
C134	C	1.588122	-0.734443	-0.090760
H135	H	1.527504	-0.736147	-0.135109
H136	H	1.574579	-0.701015	-0.032099
H137	H	1.646613	-0.714651	-0.129667
H138	H	1.706844	-0.359610	0.920682
C139	C	1.588174	-0.734902	0.112288
H140	H	1.588352	-0.734904	0.187417
H141	H	1.639890	-0.698936	0.087149
H142	H	1.520367	-0.719522	0.087394
C143	C	1.475654	-0.524446	0.910744
H144	H	1.485900	-0.558345	0.969596
H145	H	1.418535	-0.543336	0.869046
H146	H	1.538203	-0.523224	0.869189
H147	H	1.423734	-0.275783	1.103363
H148	H	0.942729	-0.403511	0.683985
H149	H	1.125005	-0.481301	0.399323
H150	H	1.940765	-0.899498	0.685566
C151	C	2.134575	-0.735205	0.454241
H152	H	2.179164	-0.737423	0.514651
H153	H	2.173583	-0.715798	0.395594
H154	H	2.076647	-0.701153	0.468120
C155	C	0.931409	-0.235284	0.454966
H156	H	0.887089	-0.237031	0.515568
H157	H	0.990059	-0.201842	0.468569
H158	H	0.892466	-0.215478	0.396486
C159	C	0.929592	-0.337420	0.317796
H160	H	0.885013	-0.382372	0.320651
H161	H	0.890565	-0.293737	0.291851
H162	H	0.987505	-0.347674	0.271993
C163	C	1.337798	-0.421678	1.112672
H164	H	1.340083	-0.376568	1.156994
H165	H	1.292862	-0.411615	1.053998
H166	H	1.311214	-0.465199	1.151602
C167	C	1.390237	-0.273855	0.910532
H168	H	1.362844	-0.314695	0.867135
H169	H	1.344808	-0.266131	0.969435
H170	H	1.394562	-0.226555	0.870737
H171	H	1.468663	-0.502049	1.103722
H172	H	1.667632	-0.463855	1.101072
H173	H	1.563667	-0.251076	1.101462
H174	H	1.940310	-0.832096	0.346260
C175	C	1.677118	-0.484021	0.908429
H176	H	1.623059	-0.504430	0.864016
H177	H	1.740906	-0.479339	0.869278
H178	H	1.687841	-0.518616	0.966456
H179	H	1.123093	-0.332892	0.345958
H180	H	1.696160	-0.831796	-0.081752
H181	H	2.122416	-0.832181	0.345821
H182	H	1.644878	-0.979853	-0.079106
C183	C	1.486056	-1.025591	-0.090610
H184	H	1.485854	-1.025803	-0.165738
H185	H	1.508097	-1.075615	-0.065368
H186	H	1.416818	-1.014640	-0.065474
C187	C	0.933048	-0.486936	0.369101
H188	H	0.992253	-0.496871	0.324844
H189	H	0.891212	-0.533198	0.374395
H190	H	0.891819	-0.445650	0.339688
C191	C	1.133766	-0.526383	0.558180
H192	H	1.177828	-0.502642	0.610023
H193	H	1.074926	-0.550485	0.591806
H194	H	1.172887	-0.565071	0.520649
C195	C	1.337539	-0.918183	-0.089805
H196	H	1.371368	-0.956045	-0.133503
H197	H	1.306248	-0.943830	-0.030861
H198	H	1.284318	-0.891817	-0.129259
C199	C	0.929957	-0.278474	0.660684
H200	H	0.884536	-0.257024	0.608230
H201	H	0.891811	-0.284973	0.724792
H202	H	0.987778	-0.243799	0.672111
H203	H	1.124971	-0.398400	0.686606
C204	C	1.133610	-0.274441	0.653659
H205	H	1.176993	-0.254017	0.598822
H206	H	1.074697	-0.240648	0.664074
H207	H	1.173416	-0.277702	0.717238
