data_functionalizedCrystal
_audit_creation_method	'MofGen! by Chris Wilmer'
_symmetry_space_group_name_H-M	'P1'
_symmetry_Int_Tables_number	1
_symmetry_cell_setting	triclinic
loop_
_symmetry_equiv_pos_as_xyz
  x,y,z
_cell_length_a	13.101039
_cell_length_b	14.044220
_cell_length_c	14.044220
_cell_angle_alpha	93.188878
_cell_angle_beta	93.667477
_cell_angle_gamma	86.340132
loop_
_atom_site_label
_atom_site_type_symbol
_atom_site_fract_x
_atom_site_fract_y
_atom_site_fract_z
O1	O	0.085109	-1.281968	-0.225348
O2	O	0.585109	-0.781968	0.274652
O3	O	0.085135	-1.005298	-0.217041
O4	O	0.585135	-0.505298	0.282959
O5	O	0.085112	-1.139480	-0.082860
O6	O	0.585112	-0.639480	0.417140
O7	O	0.085132	-1.147787	-0.359530
O8	O	0.585132	-0.647787	0.140470
O9	O	-0.085316	-1.129854	-0.092504
O10	O	0.414684	-0.629854	0.407496
O11	O	-0.085293	-0.995673	-0.226686
O12	O	0.414707	-0.495673	0.273314
O13	O	-0.085319	-1.272343	-0.234993
O14	O	0.414681	-0.772343	0.265007
Zn15	Zn	-0.112365	-1.132479	-0.232371
Zn16	Zn	0.387635	-0.632479	0.267629
Zn17	Zn	0.112181	-1.145162	-0.219663
Zn18	Zn	0.612181	-0.645162	0.280337
O19	O	-0.085296	-1.138161	-0.369175
O20	O	0.414704	-0.638161	0.130825
C21	C	-0.000076	-0.964864	-0.218228
C22	C	0.499924	-0.464864	0.281772
C23	C	-0.000066	-0.858722	-0.207383
C24	C	0.499934	-0.358722	0.292617
C25	C	-0.000102	-1.131031	-0.052060
C26	C	0.499898	-0.631031	0.447940
C27	C	-0.000102	-1.120187	0.054083
C28	C	0.499898	-0.620187	0.554083
N29	N	-0.265612	-1.123831	-0.241043
N30	N	0.234388	-0.623831	0.258957
C31	C	-0.474653	-1.112065	-0.252851
C32	C	0.025347	-0.612065	0.247149
C33	C	-0.525538	-1.165580	-0.199179
C34	C	-0.025538	-0.665580	0.300821
C35	C	-0.641855	-1.159034	-0.205749
C36	C	-0.141855	-0.659034	0.294251
C37	C	-0.358325	-1.118610	-0.246282
C38	C	0.141675	-0.618610	0.253718
N39	N	0.265428	-1.153817	-0.210984
N40	N	0.765428	-0.653817	0.289016
C41	C	-0.000106	-1.312777	-0.233806
C42	C	0.499894	-0.812777	0.266194
C43	C	-0.000109	-1.418920	-0.244651
C44	C	0.499891	-0.918920	0.255349
C45	C	-0.000088	-0.664383	-0.187558
C46	C	0.499912	-0.164383	0.312442
C47	C	-0.000087	-0.613253	-0.264472
C48	C	0.499913	-0.113253	0.235528
C49	C	-0.000099	-0.505116	-0.253441
C50	C	0.499901	-0.005116	0.246559
C51	C	-0.000076	-0.772529	-0.198587
C52	C	0.499924	-0.272529	0.301413
C53	C	-0.000080	-1.146610	-0.399974
C54	C	0.499920	-0.646610	0.100026
C55	C	-0.000073	-1.157455	-0.506116
C56	C	0.499927	-0.657455	-0.006116
C57	C	-0.000086	-1.100362	0.248421
C58	C	0.499914	-0.600362	0.748421
C59	C	-0.000090	-1.177276	0.299551
C60	C	0.499910	-0.677276	0.799551
C61	C	-0.000080	-1.166245	0.407688
C62	C	0.499920	-0.666245	0.907688
C63	C	-0.000095	-1.111391	0.140275
C64	C	0.499905	-0.611391	0.640275
H65	H	-0.518442	-1.061336	-0.303733
H66	H	-0.018442	-0.561336	0.196267
C67	C	0.000120	-0.614429	-0.088725
C68	C	0.500120	-0.114429	0.411275
C69	C	0.087812	-0.562356	-0.072982
C70	C	0.587812	-0.062356	0.427018
C71	C	0.088051	-0.516325	0.018054
C72	C	0.588051	-0.016325	0.518054
H73	H	-0.059244	-0.572263	-0.084492
H74	H	0.440756	-0.072263	0.415508
H75	H	0.000181	-0.660700	-0.041878
H76	H	0.500181	-0.160700	0.458122
H77	H	0.087742	-0.516090	-0.119816
H78	H	0.587742	-0.016090	0.380184
H79	H	0.147191	-0.604500	-0.077196
H80	H	0.647191	-0.104500	0.422804
H81	H	0.088111	-0.562596	0.064901
H82	H	0.588111	-0.062596	0.564901
H83	H	0.028682	-0.474164	0.022279
H84	H	0.528682	0.025836	0.522279
H85	H	0.147552	-0.480996	0.028751
H86	H	0.647552	0.019004	0.528751
C87	C	0.000010	-0.663348	-0.363236
C88	C	0.500010	-0.163348	0.136764
C89	C	0.000058	-0.762203	-0.354685
C90	C	0.500058	-0.262203	0.145315
C91	C	0.000175	-0.808386	-0.445640
C92	C	0.500175	-0.308386	0.054360
H93	H	-0.059394	-0.642180	-0.400404
H94	H	0.440606	-0.142180	0.099596
H95	H	0.059477	-0.648798	-0.393564
H96	H	0.559477	-0.148798	0.106436
H97	H	-0.059404	-0.776746	-0.324372
H98	H	0.440596	-0.276746	0.175628
H99	H	0.059458	-0.783398	-0.317534
H100	H	0.559458	-0.283398	0.182466
H101	H	0.059643	-0.793836	-0.475968
H102	H	0.559643	-0.293836	0.024032
H103	H	-0.059230	-0.787211	-0.482801
H104	H	0.440770	-0.287211	0.017199
H105	H	0.000218	-0.875464	-0.439850
H106	H	0.500218	-0.375464	0.060150
H107	H	-0.000028	-1.251413	0.262115
H108	H	0.499972	-0.751413	0.762115
C109	C	0.000078	-1.001585	0.298470
C110	C	0.500078	-0.501585	0.798470
C111	C	0.087748	-0.995756	0.360475
C112	C	0.587748	-0.495756	0.860475
C113	C	0.087922	-0.904783	0.406618
C114	C	0.587922	-0.404783	0.906618
H115	H	0.000128	-0.954683	0.252283
H116	H	0.500128	-0.454683	0.752283
H117	H	-0.059322	-0.990736	0.333915
H118	H	0.440678	-0.490736	0.833915
H119	H	0.147133	-1.006593	0.325032
H120	H	0.647133	-0.506593	0.825032
H121	H	0.087717	-1.042636	0.406681
H122	H	0.587717	-0.542636	0.906681
H123	H	0.028522	-0.893935	0.442064
H124	H	0.528522	-0.393935	0.942064
H125	H	0.087970	-0.857889	0.360424
H126	H	0.587970	-0.357889	0.860424
H127	H	0.147400	-0.900819	0.448700
H128	H	0.647400	-0.400819	0.948700
H129	H	-0.481744	-1.216314	-0.148295
H130	H	0.018256	-0.716314	0.351705
