data_functionalizedCrystal
_audit_creation_method	'MofGen! by Chris Wilmer'
_symmetry_space_group_name_H-M	'P1'
_symmetry_Int_Tables_number	1
_symmetry_cell_setting	triclinic
loop_
_symmetry_equiv_pos_as_xyz
  x,y,z
_cell_length_a	19.077105
_cell_length_b	16.959454
_cell_length_c	19.077174
_cell_angle_alpha	92.276377
_cell_angle_beta	85.483752
_cell_angle_gamma	87.716588
loop_
_atom_site_label
_atom_site_type_symbol
_atom_site_fract_x
_atom_site_fract_y
_atom_site_fract_z
Zn1	Zn	1.093734	-0.384059	-0.441867
Zn2	Zn	1.593734	0.115941	0.058133
Zn3	Zn	1.088928	-0.510707	-0.323986
Zn4	Zn	1.588928	-0.010707	0.176014
Zn5	Zn	0.971118	-0.373009	-0.319263
Zn6	Zn	1.471118	0.126991	0.180737
Zn7	Zn	0.975822	-0.510655	-0.437104
Zn8	Zn	1.475822	-0.010655	0.062896
O9	O	1.032400	-0.444608	-0.380555
O10	O	1.532400	0.055392	0.119445
O11	O	1.191747	-0.405505	-0.430199
O12	O	1.691747	0.094495	0.069801
O13	O	1.069320	-0.487839	-0.224710
O14	O	1.569320	0.012161	0.275290
O15	O	0.987426	-0.263867	-0.335543
O16	O	1.487426	0.236133	0.164457
O17	O	1.188216	-0.498553	-0.343593
O18	O	1.688216	0.001447	0.156407
O19	O	1.077511	-0.271985	-0.425619
O20	O	1.577511	0.228015	0.074381
O21	O	0.982766	-0.386673	-0.221240
O22	O	1.482766	0.113327	0.278760
O23	O	0.873091	-0.386623	-0.330926
O24	O	1.373091	0.113377	0.169074
O25	O	0.995443	-0.498465	-0.536386
O26	O	1.495443	0.001535	-0.036386
O27	O	0.876547	-0.487751	-0.417503
O28	O	1.376547	0.012249	0.082497
O29	O	1.082072	-0.405455	-0.539885
O30	O	1.582072	0.094545	-0.039885
O31	O	1.073881	-0.621309	-0.338975
O32	O	1.573881	-0.121309	0.161025
O33	O	0.990783	-0.621271	-0.422082
O34	O	1.490783	-0.121271	0.077918
C35	C	0.849240	-0.435983	-0.373185
C36	C	1.349240	0.064017	0.126815
C37	C	0.770884	-0.432312	-0.370049
C38	C	1.270884	0.067688	0.129951
C39	C	0.735888	-0.483313	-0.413581
C40	C	1.235888	0.016687	0.086419
C41	C	0.662264	-0.479854	-0.410638
C42	C	1.162264	0.020146	0.089362
C43	C	0.623638	-0.425398	-0.364158
C44	C	1.123638	0.074602	0.135842
C45	C	0.658640	-0.374392	-0.320625
C46	C	1.158640	0.125608	0.179375
C47	C	0.732263	-0.377848	-0.323572
C48	C	1.232263	0.122152	0.176428
C49	C	0.403256	-0.409407	-0.350521
C50	C	0.903256	0.090593	0.149479
C51	C	0.329629	-0.405957	-0.347575
C52	C	0.829629	0.094043	0.152425
C53	C	0.333258	-0.511418	-0.437590
C54	C	0.833258	-0.011418	0.062410
C55	C	0.406881	-0.514872	-0.440530
C56	C	0.906881	-0.014872	0.059470
C57	C	0.441877	-0.463863	-0.396999
C58	C	0.941877	0.036137	0.103001
N59	N	0.548383	-0.421864	-0.361147
N60	N	1.048383	0.078136	0.138853
N61	N	0.517131	-0.467395	-0.400014
N62	N	1.017131	0.032605	0.099986
C63	C	1.032341	-0.649971	-0.380541
C64	C	1.532341	-0.149971	0.119459
C65	C	1.032381	-0.737830	-0.380561
C66	C	1.532381	-0.237830	0.119439
C67	C	0.989196	-1.109319	-0.423827
C68	C	1.489196	-0.609319	0.076173
C69	C	1.075804	-1.109306	-0.337363
C70	C	1.575804	-0.609306	0.162637
C71	C	1.075779	-1.026758	-0.337356
C72	C	1.575779	-0.526758	0.162644
C73	C	1.032461	-0.985487	-0.380584
C74	C	1.532461	-0.485487	0.119416
C75	C	0.989168	-1.026764	-0.423819
C76	C	1.489168	-0.526764	0.076181
C77	C	1.119066	-0.985475	-0.294116
C78	C	1.619066	-0.485475	0.205884
C79	C	1.119042	-0.902923	-0.294106
C80	C	1.619042	-0.402923	0.205894
C81	C	1.075727	-0.861651	-0.337338
C82	C	1.575727	-0.361651	0.162662
C83	C	1.032433	-0.902932	-0.380576
C84	C	1.532433	-0.402932	0.119424
C85	C	0.989116	-0.861662	-0.423804
C86	C	1.489116	-0.361662	0.076196
C87	C	0.945825	-0.902942	-0.467046
C88	C	1.445825	-0.402942	0.032954
C89	C	0.945854	-0.985492	-0.467051
C90	C	1.445854	-0.485492	0.032949
C91	C	1.075698	-0.779101	-0.337333
C92	C	1.575698	-0.279101	0.162667
C93	C	0.989088	-0.779106	-0.423796
C94	C	1.489088	-0.279106	0.076204
C95	C	1.216275	-0.453267	-0.387954
C96	C	1.716275	0.046733	0.112046
C97	C	1.294632	-0.456957	-0.391107
C98	C	1.794632	0.043043	0.108893
C99	C	1.039818	-0.453186	-0.564429
C100	C	1.539818	0.046814	-0.064429
C101	C	1.042979	-0.456842	-0.642786
C102	C	1.542979	0.043158	-0.142786
C103	C	1.032480	-0.238444	-0.380586
C104	C	1.532480	0.261556	0.119414
C105	C	1.032514	-0.150590	-0.380599
C106	C	1.532514	0.349410	0.119401
C107	C	0.999402	-0.405889	-0.677791
C108	C	1.499402	0.094111	-0.177791
C109	C	1.002370	-0.409330	-0.751415
C110	C	1.502370	0.090670	-0.251415
C111	C	1.048919	-0.463722	-0.790032
C112	C	1.548919	0.036278	-0.290032
C113	C	1.092497	-0.514680	-0.755023
C114	C	1.592497	-0.014680	-0.255023
C115	C	1.089526	-0.511242	-0.681400
C116	C	1.589526	-0.011242	-0.181400
C117	C	1.062635	-0.479656	-1.010415
C118	C	1.562635	0.020344	-0.510415
C119	C	1.065604	-0.483088	-1.084043
C120	C	1.565604	0.016912	-0.584043
C121	C	0.975475	-0.377739	-1.080429
C122	C	1.475475	0.122261	-0.580429
C123	C	0.972511	-0.374303	-1.006806
C124	C	1.472511	0.125697	-0.506806
C125	C	1.016087	-0.425264	-0.971802
C126	C	1.516087	0.074736	-0.471802
N127	N	1.051954	-0.467239	-0.865288
N128	N	1.551954	0.032761	-0.365288
N129	N	1.013047	-0.421750	-0.896548
N130	N	1.513047	0.078250	-0.396548
C131	C	1.025052	-0.436007	-0.197398
C132	C	1.525052	0.063993	0.302602
C133	C	1.022027	-0.432135	-0.119047
C134	C	1.522027	0.067865	0.380953
H135	H	0.438325	-0.559218	-0.478377
H136	H	0.938325	-0.059218	0.021623
C137	C	0.927540	-0.321690	-1.118931
C138	C	1.427540	0.178310	-0.618931
H139	H	0.899395	-0.288802	-1.085387
H140	H	1.399395	0.211198	-0.585387
H141	H	0.897972	-0.351819	-1.146411
H142	H	1.397972	0.148181	-0.646411
H143	H	0.955683	-0.289858	-1.148741
H144	H	1.455683	0.210142	-0.648741
H145	H	1.154327	-1.019083	-0.258916
H146	H	1.654327	-0.519083	0.241084
H147	H	0.934604	-0.330013	-0.975368
H148	H	1.434604	0.169987	-0.475368
C149	C	1.116816	-0.542916	-1.126522
C150	C	1.616816	-0.042916	-0.626522
H151	H	1.142341	-0.572777	-1.095131
H152	H	1.642341	-0.072777	-0.595131
H153	H	1.148701	-0.515459	-1.156477
H154	H	1.648701	-0.015459	-0.656477
H155	H	1.090995	-0.577427	-1.154156
H156	H	1.590995	-0.077427	-0.654156
C157	C	1.110577	-0.535699	-0.971920
C158	C	1.610577	-0.035699	-0.471920
H159	H	1.138732	-0.568575	-1.005466
H160	H	1.638732	-0.068575	-0.505466
H161	H	1.082446	-0.567533	-0.942107
H162	H	1.582446	-0.067533	-0.442107
H163	H	1.140148	-0.505560	-0.944445
H164	H	1.640148	-0.005560	-0.444445
H165	H	0.767331	-0.527660	-0.451427
H166	H	1.267331	-0.027660	0.048573
H167	H	0.304756	-0.552946	-0.473031
H168	H	0.804756	-0.052946	0.026969
C169	C	0.287142	-0.346047	-0.296451
C170	C	0.787142	0.153953	0.203549
H171	H	0.318528	-0.316158	-0.270952
H172	H	0.818528	0.183842	0.229048
H173	H	0.257167	-0.373444	-0.264537
H174	H	0.757167	0.126556	0.235463
H175	H	0.259527	-0.311571	-0.322330
H176	H	0.759527	0.188429	0.177670
C177	C	0.441742	-0.353312	-0.302626
C178	C	0.941742	0.146688	0.197374
H179	H	0.408192	-0.320396	-0.274517
H180	H	0.908192	0.179604	0.225483
H181	H	0.471570	-0.321523	-0.330786
H182	H	0.971570	0.178477	0.169214
H183	H	0.469203	-0.383418	-0.273013
H184	H	0.969203	0.116582	0.226987
C185	C	0.623768	-0.536001	-0.458480
C186	C	1.123768	-0.036001	0.041520
H187	H	0.657316	-0.568948	-0.486564
H188	H	1.157316	-0.068948	0.013436
H189	H	0.596284	-0.505953	-0.488108
H190	H	1.096284	-0.005953	0.011892
H191	H	0.593963	-0.567769	-0.430267
H192	H	1.093963	-0.067769	0.069733
H193	H	0.627186	-0.330050	-0.282783
H194	H	1.127186	0.169950	0.217217
C195	C	1.143701	-0.574508	-0.797500
C196	C	1.643701	-0.074508	-0.297500
H197	H	1.139236	-0.569253	-0.846361
H198	H	1.639236	-0.069253	-0.346361
H199	H	1.132879	-0.626567	-0.785012
H200	H	1.632879	-0.126567	-0.285012
H201	H	1.190586	-0.564601	-0.787340
H202	H	1.690586	-0.064601	-0.287340
H203	H	0.760756	-0.336314	-0.288128
H204	H	1.260756	0.163686	0.211872
C205	C	0.941438	-0.733715	-0.471349
C206	C	1.441438	-0.233715	0.028651
H207	H	0.915660	-0.770124	-0.497098
H208	H	1.415660	-0.270124	0.002902
H209	H	0.969609	-0.704179	-0.503166
H210	H	1.469609	-0.204179	-0.003166
H211	H	0.909639	-0.698845	-0.443115
H212	H	1.409639	-0.198845	0.056885
C213	C	1.137460	-0.567291	-0.642894
C214	C	1.637460	-0.067291	-0.142894
H215	H	1.165613	-0.600173	-0.676437
H216	H	1.665613	-0.100173	-0.176437
H217	H	1.109319	-0.599117	-0.613084
H218	H	1.609319	-0.099117	-0.113084
H219	H	1.167033	-0.537158	-0.615415
H220	H	1.667033	-0.037158	-0.115415
C221	C	1.123309	-0.733692	-0.289773
C222	C	1.623309	-0.233692	0.210227
H223	H	1.117087	-0.678617	-0.295957
H224	H	1.617087	-0.178617	0.204043
H225	H	1.171090	-0.749890	-0.302030
H226	H	1.671090	-0.249890	0.197970
H227	H	1.111114	-0.744546	-0.241984
H228	H	1.611114	-0.244546	0.258016
H229	H	0.910552	-0.869329	-0.502239
H230	H	1.410552	-0.369329	-0.002239
H231	H	0.910608	-1.019110	-0.502256
H232	H	1.410608	-0.519110	-0.002256
H233	H	0.961501	-0.361593	-0.646353
H234	H	1.461501	0.138407	-0.146353
H235	H	1.154292	-0.869317	-0.258897
H236	H	1.654292	-0.369317	0.241103
C237	C	0.941578	-1.154722	-0.471387
C238	C	1.441578	-0.654722	0.028613
H239	H	0.947793	-1.209797	-0.465201
H240	H	1.447793	-0.709797	0.034799
H241	H	0.953761	-1.143862	-0.519173
H242	H	1.453761	-0.643862	-0.019173
H243	H	0.893795	-1.138525	-0.459118
H244	H	1.393795	-0.638525	0.040882
C245	C	1.123453	-1.154701	-0.289820
C246	C	1.623453	-0.654701	0.210180
H247	H	1.117273	-1.209778	-0.296021
H248	H	1.617273	-0.709778	0.203979
H249	H	1.111267	-1.138502	-0.242030
H250	H	1.611267	-0.638502	0.257970
H251	H	1.171225	-1.143842	-0.302092
H252	H	1.671225	-0.643842	0.197908
C253	C	0.954439	-0.353277	-0.789917
C254	C	1.454439	0.146723	-0.289917
H255	H	0.926298	-0.320384	-0.756374
H256	H	1.426298	0.179616	-0.256374
H257	H	0.924867	-0.383402	-0.817396
H258	H	1.424867	0.116598	-0.317396
H259	H	0.982586	-0.321449	-0.819728
H260	H	1.482586	0.178551	-0.319728
