data_functionalizedCrystal
_audit_creation_method	'MofGen! by Chris Wilmer'
_symmetry_space_group_name_H-M	'P1'
_symmetry_Int_Tables_number	1
_symmetry_cell_setting	triclinic
loop_
_symmetry_equiv_pos_as_xyz
  x,y,z
_cell_length_a	20.919309
_cell_length_b	18.760492
_cell_length_c	20.919309
_cell_angle_alpha	62.591134
_cell_angle_beta	90.173912
_cell_angle_gamma	57.442189
loop_
_atom_site_label
_atom_site_type_symbol
_atom_site_fract_x
_atom_site_fract_y
_atom_site_fract_z
Zr1	Zr	0.644071	0.719411	-0.056731
O2	O	0.541844	0.868119	-0.158958
O3	O	0.675408	0.570704	-0.025391
O4	O	0.680611	0.707820	-0.153752
O5	O	0.532537	0.740146	0.070654
O6	O	0.790074	0.698677	-0.149647
O7	O	0.536640	0.731003	-0.030597
O8	O	0.780766	0.453400	0.079967
O9	O	0.541845	0.985423	-0.158960
O10	O	0.770465	0.625046	-0.008964
O11	O	0.685711	0.638692	0.063536
O12	O	0.691838	0.800130	-0.087593
O13	O	0.607085	0.813777	-0.015093
Zr14	Zr	0.812108	0.719411	0.111299
Zr15	Zr	0.818652	0.704829	-0.050185
Zr16	Zr	0.637526	0.733993	0.104753
Zr17	Zr	0.644073	0.906496	-0.056734
Zr18	Zr	0.812106	0.532326	0.111303
O19	O	0.780771	0.868119	0.079959
O20	O	0.790076	0.847385	-0.149650
O21	O	0.532539	0.888853	0.070651
O22	O	0.914334	0.570703	0.213526
O23	O	0.923640	0.549969	-0.016083
O24	O	0.666102	0.591437	0.204218
O25	O	0.923641	0.698677	-0.016086
O26	O	0.775567	0.731002	0.208320
O27	O	0.666104	0.740145	0.204215
O28	O	0.919538	0.707820	0.085165
O29	O	0.680614	0.973831	-0.153757
O30	O	0.775564	0.464991	0.208325
O31	O	0.914333	0.453400	0.213528
O32	O	0.919535	0.441809	0.085170
O33	O	0.536643	0.997013	-0.030602
O34	O	0.675412	0.985422	-0.025399
O35	O	0.764340	0.638692	0.142161
O36	O	0.849094	0.625045	0.069662
O37	O	0.770467	0.800130	-0.008967
O38	O	0.685713	0.813777	0.063532
C39	C	0.728087	0.485396	0.027289
C40	C	0.728086	0.405974	0.027290
C41	C	0.786130	0.304034	0.085337
C42	C	0.670044	0.433284	-0.030758
C43	C	0.670044	0.358665	-0.030761
C44	C	0.728088	0.256725	0.027285
C45	C	0.786133	0.229405	0.085335
C46	C	0.612005	0.385977	-0.088814
C47	C	0.612003	0.311356	-0.088819
C48	C	0.670044	0.209415	-0.030769
C49	C	0.728091	0.182097	0.027283
C50	C	0.786135	0.080157	0.085329
C51	C	0.844178	0.052838	0.143385
C52	C	0.844174	0.127464	0.143385
C53	C	0.670049	0.134788	-0.030769
C54	C	0.786137	0.005528	0.085327
C55	C	0.509715	0.737652	0.019096
C56	C	0.435600	0.743842	0.016317
C57	C	0.441822	0.655361	0.056051
C58	C	0.372181	0.661184	0.053438
C59	C	0.296319	0.755489	0.011087
C60	C	0.290100	0.843977	-0.028649
C61	C	0.359740	0.838154	-0.026031
C62	C	0.083998	0.777645	0.001134
C63	C	0.014357	0.783461	-0.001483
C64	C	0.096443	0.600667	0.080605
C65	C	0.166080	0.594852	0.083216
C66	C	0.159855	0.683340	0.043484
C67	C	0.225134	0.761443	0.008413
C68	C	0.231039	0.677386	0.046162
C69	C	0.946464	0.701170	0.035472
C70	C	1.020578	0.694980	0.038251
C71	C	0.736275	0.701171	-0.174707
C72	C	0.739053	0.694981	-0.243262
C73	C	0.728092	0.953426	0.027279
C74	C	0.728093	1.032848	0.027278
C75	C	0.699318	0.783462	-0.316512
C76	C	0.701939	0.777639	-0.380923
C77	C	0.744291	0.683334	-0.372082
C78	C	0.784032	0.594845	-0.298824
C79	C	0.781415	0.600669	-0.234414
C80	C	0.754249	0.661177	-0.564503
C81	C	0.756861	0.655360	-0.628920
C82	C	0.674768	0.838154	-0.711015
C83	C	0.672152	0.843970	-0.646600
C84	C	0.711896	0.755482	-0.573348
C85	C	0.746969	0.677379	-0.437919
C86	C	0.709222	0.761436	-0.507512
C87	C	0.719903	0.737651	0.229276
C88	C	0.717125	0.743841	0.297830
C89	C	0.946461	0.467155	0.035477
C90	C	1.020574	0.381542	0.038257
C91	C	0.719901	0.503636	0.229280
C92	C	0.717121	0.430404	0.297836
C93	C	0.938275	0.485395	0.237468
C94	C	1.009610	0.405973	0.308803
C95	C	0.517903	0.953427	-0.182900
C96	C	0.446568	1.032849	-0.254235
C97	C	0.509717	0.971667	0.019091
C98	C	0.435604	1.057280	0.016311
C99	C	0.736278	0.935186	-0.174712
C100	C	0.739057	1.008418	-0.243268
C101	C	1.014336	0.341337	-0.001485
C102	C	1.083967	0.260904	0.001112
C103	C	1.159836	0.220673	0.043457
C104	C	1.166073	0.260886	0.083201
C105	C	1.096443	0.341322	0.080598
C106	C	0.756859	0.396014	0.371079
C107	C	0.754245	0.327216	0.435500
C108	C	0.711896	0.292804	0.426677
C109	C	0.672153	0.327201	0.353427
C110	C	0.674764	0.396003	0.289007
C111	C	1.087358	0.361551	0.304459
C112	C	1.154392	0.286934	0.371479
C113	C	1.143676	0.256735	0.442843
C114	C	1.065921	0.301165	0.447186
C115	C	0.998888	0.375786	0.380166
C116	C	0.368821	1.077280	-0.249891
C117	C	0.301787	1.151921	-0.316911
C118	C	0.312502	1.182123	-0.388275
C119	C	0.390258	1.137688	-0.392617
C120	C	0.457290	1.063055	-0.325598
C121	C	0.441843	1.097492	0.056047
C122	C	0.372212	1.177945	0.053432
C123	C	0.296343	1.218178	0.011085
C124	C	0.290106	1.177962	-0.028656
C125	C	0.359736	1.097516	-0.026045
C126	C	0.781413	1.042808	-0.234420
C127	C	0.784040	1.111607	-0.298829
C128	C	0.744306	1.146020	-0.372084
C129	C	0.701949	1.111622	-0.380930
C130	C	0.699327	1.042820	-0.316522
H131	H	0.564739	0.333609	-0.136091
H132	H	1.216527	0.155175	0.045570
H133	H	0.664833	1.014827	-0.323737
H134	H	0.377306	1.210675	0.085797
H135	H	1.227855	0.228118	0.117676
H136	H	0.622794	0.157033	-0.078040
Cl137	Cl	0.646070	0.902024	-0.327636
H138	H	0.813769	1.014800	-0.174778
H139	H	0.818530	1.139606	-0.291611
H140	H	-0.047415	0.860260	-0.035974
Cl141	Cl	1.100850	0.399505	0.214753
Cl142	Cl	0.918966	0.391900	-0.054729
H143	H	0.642411	0.910197	-0.770662
H144	H	0.227847	0.518057	0.117688
H145	H	1.198265	0.195973	0.497409
H146	H	1.057208	0.276566	0.505299
H147	H	0.791344	0.424025	0.378277
H148	H	1.078873	0.228172	-0.031253
H149	H	0.833386	0.281796	0.132606
Cl150	Cl	0.800203	0.558828	-0.426812
H151	H	0.935585	0.411945	0.383714
H152	H	0.360081	1.052695	-0.191789
H153	H	0.398973	1.162289	-0.450730
H154	H	0.228324	1.210732	-0.063134
H155	H	0.238481	1.188088	-0.313360
Cl156	Cl	0.624807	0.439222	0.196932
Cl157	Cl	0.228224	1.275949	-0.472523
H158	H	0.637674	0.299172	0.346254
H159	H	0.377253	0.589133	0.085795
H160	H	0.354645	1.064778	-0.058401
H161	H	1.217698	0.250766	0.367930
H162	H	0.564752	0.468978	-0.136075
Cl163	Cl	0.747606	1.232519	-0.453048
H164	H	0.520594	1.026879	-0.329144
H165	H	0.239652	1.283682	0.008965
Cl166	Cl	0.651992	1.154904	-0.473029
H167	H	1.101534	0.374047	0.112967
H168	H	0.833402	-0.077474	0.132599
Cl169	Cl	0.104262	0.489432	0.130555
Cl170	Cl	0.537213	1.046935	0.109285
Cl171	Cl	0.804215	0.283984	0.527578
Cl172	Cl	0.917136	0.093132	0.216362
H173	H	0.891440	-0.030171	0.190645
H174	H	0.709777	0.236781	0.479138
H175	H	0.503588	0.578567	0.090542
Cl176	Cl	0.076162	0.888888	-0.048818
Cl177	Cl	0.597081	0.561432	-0.103729
H178	H	0.354669	0.910206	-0.058377
Cl179	Cl	0.194730	0.962534	-0.081886
H180	H	0.292808	0.600603	0.080648
Cl181	Cl	0.129762	0.879994	-0.044828
H182	H	0.669583	0.849690	-0.440564
Cl183	Cl	0.810109	0.536795	-0.617801
Cl184	Cl	0.618868	0.962534	-0.657723
Cl185	Cl	0.837277	0.476289	-0.287709
Cl186	Cl	0.804179	0.549936	-0.472424
H187	H	0.813772	0.528618	-0.174770
H188	H	0.674742	0.838219	-0.514707
