data_functionalizedCrystal
_audit_creation_method	'MofGen! by Chris Wilmer'
_symmetry_space_group_name_H-M	'P1'
_symmetry_Int_Tables_number	1
_symmetry_cell_setting	triclinic
loop_
_symmetry_equiv_pos_as_xyz
  x,y,z
_cell_length_a	14.519709
_cell_length_b	10.654545
_cell_length_c	9.130313
_cell_angle_alpha	89.998240
_cell_angle_beta	89.992210
_cell_angle_gamma	84.081612
loop_
_atom_site_label
_atom_site_type_symbol
_atom_site_fract_x
_atom_site_fract_y
_atom_site_fract_z
O1	O	0.129516	1.666595	-0.121788
O2	O	0.141861	1.300997	-0.121795
O3	O	0.001500	1.493489	-0.121778
O4	O	0.269877	1.474102	-0.121805
O5	O	0.001489	1.493481	0.121821
O6	O	0.141850	1.300989	0.121804
O7	O	0.129505	1.666587	0.121811
Cu8	Cu	0.135677	1.483788	0.144050
Cu9	Cu	0.135689	1.483796	-0.144034
O10	O	0.269866	1.474095	0.121794
C11	C	0.140950	1.254204	0.000004
C12	C	0.138241	1.114786	0.000002
C13	C	0.136959	1.049290	0.132789
C14	C	0.134398	0.918295	0.132789
C15	C	0.134404	0.918304	-0.132796
C16	C	0.136958	1.049297	-0.132795
C17	C	-0.032870	1.492582	0.000022
C18	C	-0.135265	1.489874	0.000022
C19	C	-0.510212	1.479907	-0.000016
C20	C	-0.405890	1.482675	-0.000005
C21	C	-0.322742	1.484890	0.000005
C22	C	-0.218413	1.487659	0.000013
C23	C	0.304236	1.475002	-0.000009
C24	C	0.406631	1.477710	-0.000019
C25	C	0.130416	1.713380	0.000009
C26	C	0.133125	1.852798	0.000001
N27	N	0.135692	1.483803	-0.346657
C28	C	0.073651	1.569191	-0.576648
C29	C	0.073660	1.569195	-0.423311
C30	C	0.197711	1.398393	-0.423347
C31	C	0.197696	1.398385	-0.576681
N32	N	0.135667	1.483790	0.346673
H33	H	0.133355	0.864974	0.240917
C34	C	0.265185	1.305803	-0.659865
C35	C	0.356001	1.326151	-0.622645
C36	C	0.418190	1.240902	-0.699259
H37	H	0.254607	1.221960	-0.634783
H38	H	0.256352	1.318033	-0.762176
H39	H	0.364830	1.313911	-0.520357
H40	H	0.366608	1.409977	-0.647731
H41	H	0.409358	1.253132	-0.801570
H42	H	0.407605	1.157065	-0.674171
H43	H	0.479816	1.254704	-0.674026
H44	H	0.023160	1.638735	-0.360883
H45	H	0.138004	1.102607	0.240920
H46	H	0.248215	1.328860	-0.360926
H47	H	0.137999	1.102626	-0.240932
C48	C	0.133213	0.847093	-0.276922
C49	C	0.210964	0.757957	-0.284702
C50	C	0.209908	0.692348	-0.417459
H51	H	0.078594	0.805337	-0.282579
H52	H	0.134390	0.904814	-0.356051
H53	H	0.209779	0.700244	-0.205595
H54	H	0.265595	0.799680	-0.279070
H55	H	0.211085	0.750069	-0.496588
H56	H	0.155286	0.650599	-0.423104
H57	H	0.262665	0.631870	-0.422761
C58	C	0.006197	1.661961	-0.659601
C59	C	-0.048129	1.736728	-0.559621
C60	C	-0.110289	1.822189	-0.635978
H61	H	0.039693	1.714331	-0.719445
H62	H	-0.032627	1.616838	-0.719360
H63	H	-0.009309	1.781848	-0.499887
H64	H	-0.081644	1.684393	-0.499773
H65	H	-0.149113	1.777066	-0.695737
H66	H	-0.076786	1.874550	-0.695820
H67	H	-0.147162	1.872921	-0.568154
