data_functionalizedCrystal
_audit_creation_method	'MofGen! by Chris Wilmer'
_symmetry_space_group_name_H-M	'P1'
_symmetry_Int_Tables_number	1
_symmetry_cell_setting	triclinic
loop_
_symmetry_equiv_pos_as_xyz
  x,y,z
_cell_length_a	12.784890
_cell_length_b	12.837942
_cell_length_c	13.448316
_cell_angle_alpha	90.002004
_cell_angle_beta	90.003788
_cell_angle_gamma	83.967749
loop_
_atom_site_label
_atom_site_type_symbol
_atom_site_fract_x
_atom_site_fract_y
_atom_site_fract_z
O1	O	1.410970	0.006423	0.082661
O2	O	1.105970	0.050418	0.082670
O3	O	1.251707	-0.121873	0.082660
O4	O	1.265233	0.178714	0.082671
O5	O	1.251691	-0.121870	-0.082724
O6	O	1.105954	0.050421	-0.082714
O7	O	1.410954	0.006426	-0.082723
Cu8	Cu	1.258453	0.028424	-0.097819
Cu9	Cu	1.258472	0.028420	0.097766
O10	O	1.265217	0.178717	-0.082712
C11	C	1.066653	0.053280	-0.000021
C12	C	0.949521	0.061794	-0.000018
C13	C	1.247130	-0.160080	-0.000032
C14	C	1.233502	-0.273929	-0.000030
C15	C	0.781351	0.168495	-0.000012
C16	C	0.891407	0.160502	-0.000013
C17	C	0.897572	-0.028928	-0.000020
C18	C	0.787516	-0.020935	-0.000020
C19	C	0.729410	0.077780	-0.000017
C20	C	0.619353	0.085771	-0.000024
C21	C	0.625519	-0.103657	-0.000024
C22	C	0.735575	-0.111650	-0.000025
C23	C	1.397334	-0.529655	-0.000013
C24	C	1.384534	-0.636627	-0.000011
C25	C	1.195104	-0.594847	-0.000016
C26	C	1.207904	-0.487875	-0.000019
C27	C	1.309022	-0.455284	-0.000018
C28	C	1.321820	-0.348309	-0.000028
C29	C	1.132391	-0.306531	-0.000026
C30	C	1.119592	-0.413503	-0.000024
C31	C	1.450272	0.003563	-0.000029
C32	C	1.567404	-0.004950	-0.000026
C33	C	1.269795	0.216924	-0.000019
C34	C	1.283422	0.330772	-0.000014
N35	N	1.258447	0.028425	-0.235383
C36	C	1.188295	-0.028173	-0.712632
C37	C	1.188291	-0.028175	-0.608529
C38	C	1.258473	0.028411	-0.556465
C39	C	1.328670	0.084996	-0.608510
C40	C	1.328678	0.084992	-0.712611
C41	C	1.328647	0.085002	-0.391530
C42	C	1.328637	0.085008	-0.287421
C43	C	1.188259	-0.028166	-0.287447
C44	C	1.188267	-0.028169	-0.391548
C45	C	1.258464	0.028417	-0.443586
N46	N	1.258485	0.028410	0.235331
H47	H	0.572044	0.166150	-0.000027
C48	C	1.433044	-0.312459	-0.000024
H49	H	1.483805	-0.372077	-0.000011
H50	H	1.441978	-0.271601	-0.057697
H51	H	1.441973	-0.271596	0.057656
H52	H	1.112778	-0.621402	-0.000006
H53	H	1.385810	0.131078	-0.433895
C54	C	0.799497	-0.220226	-0.000033
H55	H	0.872482	-0.211996	-0.000039
H56	H	0.782731	-0.257841	0.057634
H57	H	0.782723	-0.257823	-0.057719
H58	H	1.385818	0.131064	-0.566111
C59	C	1.405882	0.147239	-0.769852
H60	H	1.447672	0.180949	-0.723937
H61	H	1.450101	0.100804	-0.810458
H62	H	1.367498	0.198384	-0.810465
H63	H	1.131114	-0.074242	-0.433936
H64	H	1.479668	-0.503120	-0.000023
C65	C	1.481674	-0.718437	-0.000004
H66	H	1.459572	-0.786815	0.000006
H67	H	1.522690	-0.709495	-0.057674
H68	H	1.522683	-0.709483	0.057679
C69	C	0.717432	0.277072	-0.000009
H70	H	0.764130	0.329956	-0.000002
H71	H	0.674363	0.284128	-0.057679
H72	H	0.674380	0.284125	0.057674
C73	C	0.948539	0.260288	-0.000012
H74	H	0.898168	0.320220	-0.000017
H75	H	0.991350	0.261109	0.057660
H76	H	0.991337	0.261108	-0.057693
C77	C	1.111076	-0.090410	-0.551291
H78	H	1.069270	-0.124100	-0.597208
H79	H	1.149446	-0.141554	-0.510677
H80	H	1.066857	-0.043963	-0.510688
H81	H	0.944901	-0.109296	-0.000014
H82	H	0.583217	-0.177525	0.000051
C83	C	1.008371	-0.449361	-0.000030
H84	H	1.013394	-0.523721	-0.000035
H85	H	0.971547	-0.423241	0.057637
H86	H	0.971559	-0.423251	-0.057716
C87	C	1.035244	-0.224719	-0.000023
H88	H	1.057346	-0.156341	-0.000017
H89	H	0.994223	-0.233670	-0.057693
H90	H	0.994239	-0.233665	0.057660
C91	C	1.111085	-0.090409	-0.769893
H92	H	1.069287	-0.124113	-0.723988
H93	H	1.066875	-0.043970	-0.810505
H94	H	1.149467	-0.141559	-0.810500
C95	C	1.111009	-0.090368	-0.230211
H96	H	1.121050	-0.082260	-0.160755
H97	H	1.040891	-0.064792	-0.247298
H98	H	1.123434	-0.162421	-0.247254
C99	C	1.405854	0.147229	-0.230152
H100	H	1.447675	0.180913	-0.276052
H101	H	1.367487	0.198377	-0.189541
H102	H	1.450057	0.100770	-0.189543
