data_functionalizedCrystal
_audit_creation_method	'MofGen! by Chris Wilmer'
_symmetry_space_group_name_H-M	'P1'
_symmetry_Int_Tables_number	1
_symmetry_cell_setting	triclinic
loop_
_symmetry_equiv_pos_as_xyz
  x,y,z
_cell_length_a	23.196401
_cell_length_b	14.560438
_cell_length_c	14.560438
_cell_angle_alpha	59.997876
_cell_angle_beta	90.013323
_cell_angle_gamma	60.007236
loop_
_atom_site_label
_atom_site_type_symbol
_atom_site_fract_x
_atom_site_fract_y
_atom_site_fract_z
Zr1	Zr	-0.075670	1.005342	0.884663
O2	O	-0.167723	1.196952	0.737970
O3	O	-0.047449	0.813732	0.929640
O4	O	-0.167722	1.005345	0.929582
O5	O	0.047421	1.005336	0.738063
O6	O	-0.167723	1.005347	1.080721
O7	O	-0.047451	1.005339	0.738027
O8	O	0.047423	0.662586	1.080824
O9	O	-0.167725	1.348097	0.737961
O10	O	-0.035416	0.892546	1.061605
O11	O	0.035386	0.892542	0.948839
O12	O	-0.106220	1.118142	0.948772
O13	O	-0.035418	1.118138	0.836006
Zr14	Zr	0.075638	1.005342	1.125768
Zr15	Zr	-0.075671	1.005346	1.125711
Zr16	Zr	0.075639	1.005338	0.884720
Zr17	Zr	-0.075673	1.246402	0.884648
Zr18	Zr	0.075640	0.764283	1.125783
O19	O	0.047417	1.196952	1.080791
O20	O	-0.167725	1.196958	1.080709
O21	O	0.047418	1.196947	0.738052
O22	O	0.167691	0.813732	1.272461
O23	O	-0.047451	0.813737	1.272379
O24	O	0.167692	0.813726	0.929722
O25	O	-0.047453	1.005348	1.272368
O26	O	0.167689	1.005339	1.080849
O27	O	0.167690	1.005337	0.929710
O28	O	0.047418	1.005345	1.272404
O29	O	-0.167726	1.348101	0.929562
O30	O	0.167693	0.662583	1.080869
O31	O	0.167693	0.662587	1.272471
O32	O	0.047422	0.662590	1.272425
O33	O	-0.047455	1.348095	0.738006
O34	O	-0.047456	1.348098	0.929607
O35	O	0.106187	0.892542	1.061659
O36	O	0.035385	0.892546	1.174425
O37	O	-0.035419	1.118142	1.061592
O38	O	0.035383	1.118138	0.948826
C39	C	-0.000013	0.703813	1.005234
C40	C	-0.000012	0.601477	1.005240
C41	C	0.052249	0.373985	1.088493
C42	C	0.052252	0.470120	1.088520
C43	C	-0.052287	0.636699	0.921934
C44	C	-0.052292	0.540564	0.921912
C45	C	-0.189281	1.005347	1.005143
C46	C	-0.253515	1.005348	1.005119
C47	C	-0.320647	1.123104	0.946227
C48	C	-0.381002	1.123105	0.946255
C49	C	-0.374222	1.005345	1.005161
C50	C	-0.307078	0.887574	1.064066
C51	C	-0.246725	0.887576	1.064045
C52	C	-0.441538	0.915123	0.996803
C53	C	-0.501891	0.915127	0.996816
C54	C	-0.560369	1.005335	1.005232
C55	C	-0.558493	1.095562	1.013613
C56	C	-0.498140	1.095564	1.013592
C57	C	-0.439660	1.005330	1.005191
C58	C	-0.692948	1.123100	0.946368
C59	C	-0.753303	1.123097	0.946404
C60	C	-0.679376	0.887563	1.064208
C61	C	-0.619023	0.887569	1.064179
C62	C	-0.625814	1.005342	1.005252
C63	C	0.189248	1.005337	1.005288
C64	C	0.253483	1.005336	1.005312
C65	C	-0.000015	1.005337	0.703701
C66	C	-0.000014	1.005335	0.601370
C67	C	-0.000020	1.306871	1.005197
C68	C	-0.000021	1.409207	1.005191
C69	C	0.036942	0.887578	0.612189
C70	C	0.036942	0.887585	0.516035
C71	C	-0.036975	1.123115	0.398244
C72	C	-0.036971	1.123107	0.494398
C73	C	-0.000018	1.005347	1.306730
C74	C	-0.000018	1.005349	1.409061
C75	C	-0.000014	0.703818	1.306748
C76	C	-0.000013	0.601484	1.409086
C77	C	0.189252	0.703808	1.005306
C78	C	0.253487	0.601471	1.005337
C79	C	0.189250	0.703814	1.306820
C80	C	0.253485	0.601478	1.409182
C81	C	-0.189283	1.306871	0.703611
C82	C	-0.253518	1.409207	0.601249
C83	C	-0.000018	1.306866	0.703683
C84	C	-0.000019	1.409200	0.601345
C85	C	-0.189284	1.306876	1.005125
C86	C	-0.253520	1.409213	1.005094
C87	C	0.320617	0.553412	1.064242
C88	C	0.380979	0.457268	1.064266
C89	C	0.374210	0.409179	1.005392
C90	C	0.307074	0.457247	0.946479
C91	C	0.246713	0.553395	0.946449
C92	C	0.246693	0.553421	1.516125
C93	C	0.307043	0.457279	1.612314
C94	C	0.374185	0.409188	1.601558
C95	C	0.380976	0.457254	1.494604
C96	C	0.320627	0.553401	1.398417
C97	C	-0.246726	1.457274	0.494306
C98	C	-0.307076	1.553446	0.398117
C99	C	-0.374218	1.601542	0.408873
C100	C	-0.381009	1.553470	0.515827
C101	C	-0.320659	1.457307	0.612014
C102	C	-0.246728	1.457273	1.063980
C103	C	-0.307079	1.553417	1.063974
C104	C	-0.374220	1.601507	1.005073
C105	C	-0.381011	1.553438	0.946185
C106	C	-0.320661	1.457289	0.946200
C107	C	-0.036969	0.553404	1.398276
C108	C	-0.036971	0.457258	1.494437
C109	C	0.036944	0.457276	1.612213
C110	C	0.036941	0.553427	1.516054
H111	H	-0.094861	0.569255	0.854076
H112	H	-0.326183	1.219003	0.898249
C113	C	-0.454856	1.252641	0.881459
H114	H	-0.450255	1.322780	0.846356
H115	H	-0.479929	1.257550	0.932275
H116	H	-0.479940	1.257514	0.825750
H117	H	-0.326198	1.418171	0.699089
C118	C	-0.077496	1.252642	0.482503
H119	H	-0.072154	1.235767	0.555090
H120	H	-0.126140	1.301224	0.442518
H121	H	-0.059142	1.300837	0.442578
H122	H	-0.435685	1.592608	0.898230
H123	H	0.326142	0.592556	1.112185
H124	H	-0.094843	0.743658	0.854130
H125	H	-0.192061	1.418120	0.485526
H126	H	0.192028	0.592563	1.524905
H127	H	-0.564360	0.791680	1.112130
H128	H	-0.423355	1.679798	1.005071
C129	C	-0.172879	1.404382	1.128778
H130	H	-0.137903	1.340241	1.120355
H131	H	-0.167587	1.366867	1.206242
H132	H	-0.167586	1.473417	1.099700
H133	H	0.094811	0.267032	1.156305
C134	C	-0.440598	1.707314	0.303065
H135	H	-0.481561	1.729086	0.324779
H136	H	-0.440594	1.675791	0.259571
H137	H	-0.440594	1.782333	0.259573
H138	H	-0.807966	1.218992	0.898451
C139	C	-0.503956	0.815889	0.987594
H140	H	-0.548278	0.828817	0.988796
H141	H	-0.467230	0.730400	1.049168
H142	H	-0.497645	0.827245	0.919109
H143	H	0.301573	0.418078	0.898545
C144	C	0.454820	0.404399	1.129084
H145	H	0.450201	0.446798	1.164157
H146	H	0.479907	0.420164	1.078285
H147	H	0.479902	0.313613	1.184819
H148	H	-0.326200	1.418170	0.898242
C149	C	-0.077624	0.606276	1.280617
H150	H	-0.099639	0.563876	1.287956
H151	H	-0.045727	0.590515	1.240670
H152	H	-0.112603	0.697061	1.240645
H153	H	0.067032	0.418134	1.699316
H154	H	-0.067065	0.418118	1.485626
C155	C	-0.299593	1.606297	0.280482
H156	H	-0.250962	1.563858	0.287861
H157	H	-0.321590	1.697073	0.240505
H158	H	-0.321603	1.590536	0.240516
H159	H	-0.301537	1.592544	1.111925
C160	C	-0.077628	1.252656	0.280580
H161	H	-0.099632	1.322787	0.287910
H162	H	-0.112605	1.257563	0.240605
H163	H	-0.045723	1.257547	0.240638
C164	C	0.077596	0.606315	1.527944
H165	H	0.099614	0.563911	1.605420
H166	H	0.045693	0.697096	1.492860
H167	H	0.112572	0.590544	1.492896
H168	H	-0.435683	1.592643	0.524572
C169	C	0.109752	0.431372	1.180148
H170	H	0.140882	0.339373	1.229734
H171	H	0.088287	0.465401	1.221281
H172	H	0.135571	0.465420	1.145954
H173	H	0.192055	0.592512	0.898485
H174	H	-0.496615	1.169027	1.020418
C175	C	-0.622806	1.194778	1.022896
H176	H	-0.659016	1.181844	1.021729
H177	H	-0.639762	1.280277	0.961327
H178	H	-0.609319	1.183397	1.091383
C179	C	-0.700412	1.252642	0.881575
H180	H	-0.749041	1.322776	0.846521
H181	H	-0.678423	1.257550	0.825846
H182	H	-0.678388	1.257526	0.932401
H183	H	0.301501	0.418154	1.699392
H184	H	0.326167	0.592516	1.311343
H185	H	-0.673854	0.791680	1.112171
H186	H	-0.393927	0.841666	0.989941
C187	C	-0.299617	0.758041	1.128856
H188	H	-0.345176	0.774905	1.120425
H189	H	-0.274526	0.709653	1.206322
H190	H	-0.274554	0.709658	1.099778
H191	H	0.423320	0.330899	1.679889
C192	C	0.454834	0.404334	1.482787
H193	H	0.489797	0.340179	1.555394
H194	H	0.460143	0.473342	1.442836
H195	H	0.460131	0.366799	1.442855
H196	H	0.067042	0.791681	0.699287
H197	H	-0.192061	0.791682	1.112003
C198	C	0.077594	0.758056	0.527934
H199	H	0.072307	0.774922	0.455349
H200	H	0.059344	0.709667	0.567876
H201	H	0.126220	0.709671	0.567905
H202	H	0.423365	0.330888	1.005426
