data_functionalizedCrystal
_audit_creation_method	'MofGen! by Chris Wilmer'
_symmetry_space_group_name_H-M	'P1'
_symmetry_Int_Tables_number	1
_symmetry_cell_setting	triclinic
loop_
_symmetry_equiv_pos_as_xyz
  x,y,z
_cell_length_a	15.500369
_cell_length_b	16.109301
_cell_length_c	16.109301
_cell_angle_alpha	83.461481
_cell_angle_beta	87.162514
_cell_angle_gamma	92.829776
loop_
_atom_site_label
_atom_site_type_symbol
_atom_site_fract_x
_atom_site_fract_y
_atom_site_fract_z
O1	O	0.071891	-1.099276	-0.110723
O2	O	0.405225	-0.765942	0.222610
O3	O	0.738558	-0.432609	0.555944
O4	O	0.071905	-0.857213	-0.124023
O5	O	0.405239	-0.523880	0.209310
O6	O	0.738572	-0.190546	0.542643
O7	O	0.071889	-0.984894	0.003658
O8	O	0.405222	-0.651561	0.336992
O9	O	0.738556	-0.318228	0.670325
O10	O	0.071907	-0.971594	-0.238405
O11	O	0.405241	-0.638261	0.094929
O12	O	0.738574	-0.304927	0.428262
O13	O	-0.071997	-0.992601	0.011380
O14	O	0.261336	-0.659268	0.344713
O15	O	0.594669	-0.325935	0.678047
O16	O	-0.071981	-0.864920	-0.116302
O17	O	0.261352	-0.531587	0.217032
O18	O	0.594686	-0.198253	0.550365
O19	O	-0.071995	-1.106983	-0.103002
O20	O	0.261338	-0.773649	0.230332
O21	O	0.594671	-0.440316	0.563665
Cu22	Cu	-0.085126	-0.986655	-0.108947
Cu23	Cu	0.248207	-0.653322	0.224387
Cu24	Cu	0.581541	-0.319988	0.557720
Cu25	Cu	0.085036	-0.977541	-0.118078
Cu26	Cu	0.418370	-0.644207	0.215255
Cu27	Cu	0.751703	-0.310874	0.548588
O28	O	-0.071979	-0.979301	-0.230683
O29	O	0.261354	-0.645968	0.102650
O30	O	0.594688	-0.312634	0.435984
C31	C	-0.000036	-0.830091	-0.119624
C32	C	0.333297	-0.496758	0.213709
C33	C	0.666630	-0.163425	0.547043
C34	C	-0.000031	-0.737796	-0.118009
C35	C	0.333302	-0.404463	0.215324
C36	C	0.666636	-0.071129	0.548658
C37	C	-0.000055	-0.988209	0.038494
C38	C	0.333279	-0.654876	0.371827
C39	C	0.666612	-0.321543	0.705161
C40	C	-0.000056	-0.986594	0.130789
C41	C	0.333278	-0.653261	0.464123
C42	C	0.666611	-0.319928	0.797456
N43	N	-0.204809	-0.993072	-0.102523
N44	N	0.128524	-0.659738	0.230810
N45	N	0.461857	-0.326405	0.564143
C46	C	-0.749988	-1.025243	-0.070413
C47	C	-0.416655	-0.691910	0.262920
C48	C	-0.083322	-0.358577	0.596254
C49	C	-0.659417	-1.020371	-0.075281
C50	C	-0.326084	-0.687038	0.258052
C51	C	0.007250	-0.353705	0.591386
C52	C	-0.614139	-0.961382	-0.134227
C53	C	-0.280806	-0.628049	0.199106
C54	C	0.052527	-0.294715	0.532439
C55	C	-0.659438	-0.907267	-0.188315
C56	C	-0.326105	-0.573934	0.145018
C57	C	0.007229	-0.240600	0.478352
C58	C	-0.750008	-0.912143	-0.183450
C59	C	-0.416674	-0.578810	0.149883
C60	C	-0.083341	-0.245477	0.483216
C61	C	-0.340678	-0.943833	-0.151746
C62	C	-0.007344	-0.610500	0.181587
C63	C	0.325989	-0.277166	0.514920
C64	C	-0.250101	-0.938959	-0.156605
C65	C	0.083232	-0.605626	0.176728
C66	C	0.416565	-0.272292	0.510061
C67	C	-0.250087	-1.052065	-0.043572
C68	C	0.083247	-0.718732	0.289762
C69	C	0.416580	-0.385398	0.623095
C70	C	-0.340658	-1.056933	-0.038709
C71	C	-0.007325	-0.723600	0.294624
C72	C	0.326008	-0.390266	0.627958
C73	C	-0.385949	-1.002821	-0.092799
C74	C	-0.052616	-0.669487	0.240534
C75	C	0.280718	-0.336154	0.573867
C76	C	-0.521561	-0.956399	-0.139203
C77	C	-0.188228	-0.623066	0.194130
C78	C	0.145106	-0.289732	0.527464
C79	C	-0.478526	-1.007808	-0.087827
C80	C	-0.145192	-0.674475	0.245506
C81	C	0.188141	-0.341141	0.578839
N82	N	0.204719	-0.971130	-0.124495
N83	N	0.538053	-0.637797	0.208839
N84	N	0.871386	-0.304464	0.542172
C85	C	-0.000052	-1.134104	-0.107401
C86	C	0.333282	-0.800771	0.225932
C87	C	0.666615	-0.467437	0.559266
C88	C	-0.000051	-1.226399	-0.109016
C89	C	0.333282	-0.893066	0.224317
C90	C	0.666615	-0.559733	0.557650
C91	C	-0.000036	-0.515524	-0.190016
C92	C	0.333298	-0.182190	0.143317
C93	C	0.666631	0.151143	0.476650
C94	C	-0.000041	-0.428804	-0.188492
C95	C	0.333292	-0.095470	0.144841
C96	C	0.666625	0.237863	0.478175
C97	C	-0.000049	-0.448678	-0.037003
C98	C	0.333284	-0.115345	0.296330
C99	C	0.666617	0.217988	0.629664
C100	C	-0.000050	-0.535397	-0.038528
C101	C	0.333284	-0.202064	0.294806
C102	C	0.666617	0.131270	0.628139
C103	C	-0.000039	-0.568817	-0.115037
C104	C	0.333295	-0.235484	0.218296
C105	C	0.666628	0.097850	0.551629
C106	C	-0.000044	-0.395378	-0.111988
C107	C	0.333290	-0.062045	0.221345
C108	C	0.666623	0.271289	0.554679
C109	C	-0.000050	-0.301352	-0.110335
C110	C	0.333283	0.031981	0.222999
C111	C	0.666617	0.365314	0.556332
C112	C	-0.000034	-0.662849	-0.116691
C113	C	0.333299	-0.329515	0.216642
C114	C	0.666633	0.003818	0.549976
C115	C	-0.000033	-0.975986	-0.265519
C116	C	0.333300	-0.642653	0.067814
C117	C	0.666633	-0.309320	0.401148
C118	C	-0.000027	-0.977601	-0.357815
C119	C	0.333307	-0.644268	-0.024481
C120	C	0.666640	-0.310934	0.308852
C121	C	-0.000046	-1.058601	0.353061
C122	C	0.333287	-0.725268	0.686395
C123	C	0.666620	-0.391935	1.019728
C124	C	-0.000039	-1.057077	0.439781
C125	C	0.333294	-0.723744	0.773115
C126	C	0.666628	-0.390410	1.106448
C127	C	-0.000034	-0.905588	0.419907
C128	C	0.333300	-0.572255	0.753240
C129	C	0.666633	-0.238921	1.086573
C130	C	-0.000035	-0.907113	0.333188
C131	C	0.333299	-0.573780	0.666521
C132	C	0.666632	-0.240446	0.999855
C133	C	-0.000045	-0.983622	0.299768
C134	C	0.333288	-0.650289	0.633101
C135	C	0.666621	-0.316956	0.966435
C136	C	-0.000037	-0.980573	0.473207
C137	C	0.333296	-0.647240	0.806540
C138	C	0.666630	-0.313906	1.139873
C139	C	-0.000029	-0.978919	0.567232
C140	C	0.333304	-0.645586	0.900566
C141	C	0.666637	-0.312253	1.233899
C142	C	-0.000051	-0.985276	0.205736
C143	C	0.333282	-0.651943	0.539070
C144	C	0.666615	-0.318609	0.872403
H145	H	-0.786847	-1.073275	-0.022409
H146	H	-0.453514	-0.739942	0.310924
H147	H	-0.120181	-0.406608	0.644258
H148	H	-0.213203	-1.096121	0.000465
H149	H	0.120131	-0.762788	0.333799
H150	H	0.453464	-0.429455	0.667132
H151	H	-0.000027	-0.843297	0.447128
H152	H	0.333307	-0.509963	0.780461
H153	H	0.666640	-0.176630	1.113795
H154	H	-0.000031	-0.846052	0.289794
H155	H	0.333302	-0.512719	0.623127
H156	H	0.666635	-0.179385	0.956461
H157	H	-0.000055	-0.578791	0.022533
H158	H	0.333279	-0.245458	0.355867
H159	H	0.666612	0.087875	0.689200
Br160	Br	-0.000023	-0.560877	-0.293850
Br161	Br	0.333310	-0.227544	0.039484
Br162	Br	0.666643	0.105789	0.372817
H163	H	-0.000038	-1.118132	0.483170
H164	H	0.333295	-0.784799	0.816503
H165	H	0.666629	-0.451466	1.149836
H166	H	-0.622540	-1.064435	-0.031244
H167	H	-0.289207	-0.731101	0.302090
H168	H	0.044126	-0.397768	0.635423
H169	H	-0.000053	-1.120900	0.325854
H170	H	0.333280	-0.787567	0.659187
H171	H	0.666614	-0.454233	0.992521
H172	H	-0.213241	-0.890919	-0.204609
H173	H	0.120093	-0.557586	0.128724
H174	H	0.453426	-0.224253	0.462058
Br175	Br	-0.402108	-1.136987	0.041293
Br176	Br	-0.068774	-0.803653	0.374627
Br177	Br	0.264559	-0.470320	0.707960
Br178	Br	-0.000061	-0.403317	0.066826
Br179	Br	0.333272	-0.069984	0.400160
Br180	Br	0.666606	0.263350	0.733493
Br181	Br	-0.402139	-0.870396	-0.225151
Br182	Br	-0.068805	-0.537062	0.108182
Br183	Br	0.264528	-0.203729	0.441516
H184	H	-0.786884	-0.868080	-0.227491
H185	H	-0.453551	-0.534747	0.105843
H186	H	-0.120217	-0.201413	0.439176
Br187	Br	-0.539974	-1.087868	-0.007835
Br188	Br	-0.206641	-0.754534	0.325498
Br189	Br	0.126693	-0.421201	0.658831
Br190	Br	-0.597993	-0.827214	-0.268322
Br191	Br	-0.264660	-0.493881	0.065011
Br192	Br	0.068673	-0.160547	0.398345
H193	H	-0.484689	-0.908367	-0.187197
H194	H	-0.151355	-0.575034	0.146136
H195	H	0.181978	-0.241701	0.479470
Br196	Br	-0.000042	-0.356479	-0.290254
Br197	Br	0.333292	-0.023146	0.043079
Br198	Br	0.666625	0.310187	0.376413
