data_functionalizedCrystal
_audit_creation_method	'MofGen! by Chris Wilmer'
_symmetry_space_group_name_H-M	'P1'
_symmetry_Int_Tables_number	1
_symmetry_cell_setting	triclinic
loop_
_symmetry_equiv_pos_as_xyz
  x,y,z
_cell_length_a	10.686220
_cell_length_b	18.101395
_cell_length_c	10.686551
_cell_angle_alpha	85.593544
_cell_angle_beta	90.308082
_cell_angle_gamma	94.412841
loop_
_atom_site_label
_atom_site_type_symbol
_atom_site_fract_x
_atom_site_fract_y
_atom_site_fract_z
Zn1	Zn	1.972201	-0.180552	-0.562382
Zn2	Zn	1.955907	-0.314596	-0.352620
Zn3	Zn	1.746310	-0.199497	-0.368699
Zn4	Zn	1.762338	-0.313095	-0.578398
O5	O	1.859189	-0.251935	-0.465525
O6	O	2.145585	-0.191033	-0.521125
O7	O	1.914577	-0.307884	-0.179207
O8	O	1.776386	-0.093345	-0.394418
O9	O	2.133614	-0.289514	-0.367014
O10	O	1.942347	-0.079426	-0.536716
O11	O	1.760587	-0.223322	-0.191020
O12	O	1.572891	-0.221866	-0.409948
O13	O	1.803703	-0.286956	-0.751819
O14	O	1.584666	-0.305327	-0.564013
O15	O	1.957888	-0.189578	-0.740052
O16	O	1.930118	-0.418036	-0.382544
O17	O	1.787904	-0.416933	-0.548422
C18	C	1.533261	-0.265490	-0.490464
C19	C	1.393831	-0.271305	-0.501162
C20	C	1.859018	-0.444354	-0.465501
C21	C	1.859063	-0.526665	-0.465524
C22	C	1.859343	-0.825742	-0.465570
C23	C	1.770109	-0.793732	-0.570159
C24	C	1.769626	-0.708148	-0.569891
C25	C	1.859204	-0.677366	-0.465548
C26	C	1.813255	-0.716429	-0.336079
C27	C	1.812677	-0.802072	-0.336708
C28	C	1.994649	-0.786916	-0.489270
C29	C	1.994091	-0.701157	-0.492229
C30	C	1.859127	-0.593511	-0.465527
C31	C	1.859417	-0.909597	-0.465582
C32	C	2.186389	-0.238328	-0.440489
C33	C	2.325822	-0.232529	-0.429821
C34	C	1.884401	-0.235986	-0.792725
C35	C	1.895145	-0.229190	-0.932159
C36	C	1.859396	-0.058762	-0.465574
C37	C	1.859485	0.023558	-0.465595
C38	C	1.834147	-0.267765	-0.139591
C39	C	1.823646	-0.274343	-0.000140
H40	H	1.345381	-0.308959	-0.570423
H41	H	1.754216	-0.318202	-0.951671
H42	H	1.669540	-0.692909	-0.554993
H43	H	1.374265	-0.194883	-0.360556
H44	H	2.028557	-0.674945	-0.587462
H45	H	1.799551	-0.681391	-0.666208
C46	C	1.988957	-0.169942	-0.997632
H47	H	1.984115	-0.172990	-1.085902
H48	H	2.071598	-0.178309	-0.969761
H49	H	1.969015	-0.121973	-0.977641
H50	H	1.799836	-0.808581	-0.666812
H51	H	1.713467	-0.827546	-0.315451
C52	C	1.635735	-0.829835	-0.550354
H53	H	1.633777	-0.864329	-0.478619
H54	H	1.610248	-0.854990	-0.622139
H55	H	1.580279	-0.792455	-0.538055
H56	H	1.874301	-0.823621	-0.256670
C57	C	2.089758	-0.672287	-0.395716
H58	H	2.048503	-0.645229	-0.337622
H59	H	2.153849	-0.640695	-0.437857
H60	H	2.125924	-0.713136	-0.352095
C61	C	1.897676	-0.689953	-0.228530
H62	H	1.961845	-0.654754	-0.261710
H63	H	1.934623	-0.731260	-0.187256
H64	H	1.848639	-0.667496	-0.170281
H65	H	1.715034	-0.700458	-0.314229
C66	C	2.048567	-0.807966	-0.613914
H67	H	1.989054	-0.840633	-0.652670
H68	H	2.123679	-0.831935	-0.597945
H69	H	2.066200	-0.764313	-0.668041
H70	H	2.061256	-0.807605	-0.412970
