data_functionalizedCrystal
_audit_creation_method	'MofGen! by Chris Wilmer'
_symmetry_space_group_name_H-M	'P1'
_symmetry_Int_Tables_number	1
_symmetry_cell_setting	triclinic
loop_
_symmetry_equiv_pos_as_xyz
  x,y,z
_cell_length_a	12.759401
_cell_length_b	17.640280
_cell_length_c	12.759393
_cell_angle_alpha	78.769370
_cell_angle_beta	89.982932
_cell_angle_gamma	78.801088
loop_
_atom_site_label
_atom_site_type_symbol
_atom_site_fract_x
_atom_site_fract_y
_atom_site_fract_z
Zn1	Zn	1.690804	-0.314627	-0.509513
Zn2	Zn	1.726233	-0.446821	-0.298343
Zn3	Zn	1.515121	-0.314666	-0.333842
Zn4	Zn	1.550609	-0.446762	-0.474000
O5	O	1.620692	-0.380719	-0.403925
O6	O	1.842527	-0.332171	-0.481507
O7	O	1.698204	-0.429331	-0.156020
O8	O	1.508747	-0.204054	-0.386864
O9	O	1.868557	-0.429293	-0.326361
O10	O	1.637820	-0.204026	-0.515929
O11	O	1.543101	-0.332238	-0.182101
O12	O	1.372805	-0.332181	-0.352429
O13	O	1.569231	-0.429193	-0.625743
O14	O	1.398879	-0.429231	-0.455402
O15	O	1.672232	-0.332114	-0.651834
O16	O	1.732616	-0.557420	-0.291926
O17	O	1.603586	-0.557377	-0.420980
C18	C	1.347721	-0.380705	-0.403914
C19	C	1.230948	-0.380717	-0.403930
C20	C	1.189711	-0.431333	-0.457415
C21	C	1.079990	-0.431343	-0.457424
C22	C	1.052750	-0.330120	-0.350453
C23	C	1.162469	-0.330107	-0.350451
C24	C	1.205437	-0.489775	-0.519170
C25	C	1.095716	-0.489785	-0.519179
C26	C	1.675825	-0.586077	-0.348770
C27	C	1.699507	-0.673930	-0.325210
C28	C	1.441213	-0.962894	-0.583291
C29	C	1.463468	-1.045445	-0.561119
C30	C	1.597910	-1.045425	-0.426871
C31	C	1.575670	-0.962871	-0.449035
C32	C	1.497320	-0.921613	-0.527246
C33	C	1.631777	-0.921590	-0.392989
C34	C	1.609534	-0.839044	-0.415148
C35	C	1.531185	-0.797780	-0.493353
C36	C	1.475077	-0.839067	-0.549404
C37	C	1.710122	-0.962851	-0.314774
C38	C	1.766229	-0.921569	-0.258728
C39	C	1.743992	-0.839022	-0.280892
C40	C	1.665642	-0.797757	-0.359097
C41	C	1.800100	-0.797735	-0.224840
C42	C	1.777857	-0.715189	-0.246999
C43	C	1.643400	-0.715212	-0.381256
C44	C	1.894729	-0.380734	-0.403936
C45	C	2.011508	-0.380741	-0.403940
C46	C	1.620738	-0.380643	-0.677979
C47	C	1.620758	-0.380610	-0.794764
C48	C	1.565373	-0.174559	-0.459318
C49	C	1.541799	-0.086706	-0.482923
C50	C	1.701556	-0.431113	-0.945781
C51	C	1.701525	-0.431146	-0.836048
C52	C	1.540009	-0.330043	-0.863218
C53	C	1.540036	-0.330014	-0.972948
C54	C	1.794808	-0.489481	-0.930094
C55	C	1.794778	-0.489515	-0.820361
C56	C	1.620691	-0.380738	-0.130952
C57	C	1.620815	-0.380548	-0.014227
H58	H	1.055844	-0.467936	-0.602397
O59	O	1.509410	-0.717594	-0.514983
C60	C	1.428247	-0.690033	-0.596050
H61	H	1.379683	-0.737634	-0.597927
H62	H	1.465899	-0.675333	-0.676642
C63	C	1.413975	-0.557019	-0.570894
C64	C	1.354322	-0.615480	-0.573193
H65	H	1.368377	-0.511029	-0.556799
H66	H	1.468659	-0.575586	-0.516281
H67	H	1.445349	-0.544778	-0.638057
H68	H	1.322961	-0.627727	-0.506028
H69	H	1.299631	-0.596913	-0.627795
O70	O	1.079922	-0.562851	-0.473516
C71	C	1.131726	-0.618231	-0.532290
H72	H	1.198692	-0.594243	-0.578488
H73	H	1.071630	-0.629386	-0.590774
C74	C	1.096790	-0.725523	-0.398342
C75	C	1.179043	-0.696063	-0.455076
H76	H	1.125973	-0.773535	-0.350715
H77	H	1.061884	-0.688212	-0.358746
H78	H	1.046716	-0.734812	-0.447089
H79	H	1.229108	-0.686765	-0.406330
H80	H	1.213959	-0.733373	-0.494663
H81	H	1.411284	-0.805472	-0.613099
H82	H	1.579607	-0.681617	-0.444950
O83	O	1.880125	-0.463442	-0.977647
C84	C	1.975493	-0.512722	-0.930159
H85	H	1.958585	-0.572834	-0.891467
H86	H	2.007899	-0.485022	-0.866632
C87	C	2.079497	-0.448941	-1.063887
C88	C	2.058732	-0.522773	-1.016373
H89	H	2.130845	-0.455139	-1.117066
H90	H	2.015247	-0.415738	-1.095880
H91	H	2.106496	-0.425865	-1.010939
H92	H	2.031721	-0.545843	-1.069319
H93	H	2.122980	-0.555981	-0.984391
H94	H	1.661700	-1.079029	-0.363189
H95	H	1.377419	-0.929299	-0.646986
H96	H	1.417786	-1.079053	-0.606777
O97	O	1.235876	-0.470210	-0.621456
C98	C	1.278691	-0.401238	-0.633378
H99	H	1.308077	-0.394488	-0.551965
H100	H	1.214222	-0.347851	-0.668558
C101	C	1.336758	-0.415421	-0.808844
C102	C	1.372859	-0.407135	-0.708853
H103	H	1.394843	-0.419056	-0.855404
H104	H	1.307910	-0.461887	-0.800815
H105	H	1.283033	-0.370931	-0.838147
H106	H	1.426573	-0.451630	-0.679546
H107	H	1.401719	-0.360676	-0.716879
O108	O	1.731929	-1.043036	-0.293249
C109	C	1.840014	-1.070538	-0.312952
H110	H	1.887707	-1.022937	-0.307831
H111	H	1.846136	-1.085149	-0.396205
C112	C	1.826809	-1.203611	-0.235219
C113	C	1.885388	-1.145148	-0.228921
H114	H	1.854798	-1.249635	-0.183389
H115	H	1.753989	-1.185083	-0.221949
H116	H	1.831916	-1.215777	-0.304601
H117	H	1.880270	-1.132976	-0.159546
H118	H	1.958209	-1.163676	-0.242178
O119	O	1.461508	-0.281019	-1.039444
C120	C	1.405768	-0.326011	-1.090833
H121	H	1.416003	-0.388273	-1.041037
H122	H	1.438988	-0.328705	-1.173270
C123	C	1.273606	-0.210942	-1.164034
C124	C	1.286170	-0.287411	-1.102869
H125	H	1.199833	-0.187131	-1.171463
H126	H	1.311160	-0.180628	-1.129416
H127	H	1.301296	-0.213198	-1.232725
H128	H	1.258492	-0.285154	-1.034175
H129	H	1.248607	-0.317724	-1.137476
H130	H	1.830019	-0.955174	-0.195046
O131	O	1.264697	-0.559044	-0.465482
C132	C	1.323039	-0.544868	-0.379912
H133	H	1.281941	-0.487385	-0.356834
H134	H	1.407602	-0.540226	-0.405313
C135	C	1.378534	-0.683904	-0.311644
C136	C	1.328051	-0.613306	-0.283294
H137	H	1.381631	-0.726121	-0.252047
H138	H	1.339231	-0.693455	-0.369297
H139	H	1.448998	-0.680024	-0.332813
H140	H	1.257585	-0.617183	-0.262139
H141	H	1.367343	-0.603757	-0.225635
O142	O	1.876315	-0.837857	-0.149002
C143	C	1.956972	-0.885568	-0.196056
H144	H	1.956720	-0.860657	-0.285496
H145	H	1.941331	-0.948140	-0.182850
C146	C	2.066858	-0.917404	-0.034623
C147	C	2.066554	-0.886804	-0.144474
H148	H	2.134453	-0.918171	-0.002803
H149	H	2.012516	-0.885263	-0.002920
H150	H	2.053818	-0.969545	-0.023633
H151	H	2.079580	-0.834661	-0.155462
H152	H	2.120900	-0.918937	-0.176178
O153	O	1.778428	-0.558825	-0.761059
C154	C	1.685221	-0.544727	-0.702674
H155	H	1.631177	-0.487270	-0.743780
H156	H	1.708095	-0.540080	-0.618122
C157	C	1.691890	-0.683790	-0.647098
C158	C	1.625508	-0.613223	-0.697590
H159	H	1.655058	-0.726042	-0.643957
H160	H	1.754688	-0.693288	-0.686430
H161	H	1.710947	-0.679906	-0.576643
H162	H	1.606464	-0.617104	-0.768048
H163	H	1.562705	-0.603726	-0.658270
H164	H	0.996982	-0.288914	-0.306914
O165	O	1.886483	-0.469869	-0.789978
C166	C	1.861196	-0.400928	-0.747159
H167	H	1.776162	-0.394273	-0.717716
H168	H	1.867581	-0.347501	-0.811651
C169	C	2.044258	-0.414951	-0.689200
C170	C	1.939820	-0.406782	-0.653030
H171	H	2.092759	-0.418559	-0.631140
H172	H	2.061296	-0.461397	-0.718052
H173	H	2.049563	-0.370427	-0.742944
H174	H	1.934513	-0.451310	-0.599297
H175	H	1.922784	-0.360343	-0.624167
H176	H	1.823544	-0.681578	-0.201360
H177	H	1.196037	-0.288886	-0.306907
H178	H	1.474242	-0.288901	-0.829595
O179	O	1.788553	-0.562558	-0.945861
C180	C	1.877167	-0.617882	-0.894090
H181	H	1.910413	-0.593879	-0.827150
H182	H	1.941658	-0.628962	-0.954229
C183	C	1.801105	-0.725250	-0.928939
C184	C	1.841933	-0.695773	-0.846716
H185	H	1.779373	-0.773298	-0.899721
H186	H	1.741405	-0.687978	-0.963822
H187	H	1.854854	-0.734477	-0.979049
H188	H	1.788180	-0.686537	-0.796616
H189	H	1.901623	-0.733046	-0.811823
