data_functionalizedCrystal
_audit_creation_method	'MofGen! by Chris Wilmer'
_symmetry_space_group_name_H-M	'P1'
_symmetry_Int_Tables_number	1
_symmetry_cell_setting	triclinic
loop_
_symmetry_equiv_pos_as_xyz
  x,y,z
_cell_length_a	8.497374
_cell_length_b	10.686203
_cell_length_c	10.686220
_cell_angle_alpha	89.652027
_cell_angle_beta	85.634072
_cell_angle_gamma	85.629853
loop_
_atom_site_label
_atom_site_type_symbol
_atom_site_fract_x
_atom_site_fract_y
_atom_site_fract_z
Zn1	Zn	0.670961	0.352261	1.956002
Zn2	Zn	1.170961	0.852261	2.456002
Zn3	Zn	0.385569	0.561978	1.972052
Zn4	Zn	0.885569	1.061978	2.472052
Zn5	Zn	0.425732	0.368354	1.746285
Zn6	Zn	0.925732	0.868354	2.246285
Zn7	Zn	0.667845	0.578082	1.762317
Zn8	Zn	1.167845	1.078082	2.262317
O9	O	0.537527	0.465169	1.859164
O10	O	1.037527	0.965169	2.359164
O11	O	0.617600	0.366606	2.133673
O12	O	1.117600	0.866606	2.633673
O13	O	0.170134	0.536288	1.942112
O14	O	0.670134	1.036288	2.442112
O15	O	0.476374	0.190679	1.760678
O16	O	0.976374	0.690679	2.260678
O17	O	0.407923	0.520684	2.145465
O18	O	0.907923	1.020684	2.645465
O19	O	0.656543	0.178856	1.914756
O20	O	1.156543	0.678856	2.414756
O21	O	0.199641	0.394033	1.776242
O22	O	0.699641	0.894033	2.276242
O23	O	0.473352	0.409649	1.572870
O24	O	0.973352	0.909649	2.072870
O25	O	0.889021	0.548132	1.788001
O26	O	1.389021	1.048132	2.288001
O27	O	0.651232	0.563736	1.584648
O28	O	1.151232	1.063736	2.084648
O29	O	0.891310	0.382222	1.930301
O30	O	1.391310	0.882222	2.430301
O31	O	0.404902	0.739654	1.957657
O32	O	0.904902	1.239654	2.457657
O33	O	0.612288	0.751486	1.803565
O34	O	1.112288	1.251486	2.303565
C35	C	0.566313	0.490187	1.533243
C36	C	1.066313	0.990187	2.033243
C37	C	0.578662	0.500921	1.393815
C38	C	1.078662	1.000921	1.893815
C39	C	0.503930	0.791083	1.884126
C40	C	1.003930	1.291083	2.384126
C41	C	0.489600	0.930501	1.894920
C42	C	0.989600	1.430501	2.394920
C43	C	0.949008	0.465171	1.859155
C44	C	1.449008	0.965171	2.359155
C45	C	1.127650	0.465184	1.859159
C46	C	1.627650	0.965184	2.359159
C47	C	0.508629	0.440053	2.186358
C48	C	1.008629	0.940053	2.686358
C49	C	0.496315	0.429351	2.325788
C50	C	0.996315	0.929351	2.825788
C51	C	0.571304	1.137981	1.834126
C52	C	1.071304	1.637981	2.334126
C53	C	0.585743	0.998555	1.823426
C54	C	1.085743	1.498555	2.323426
H55	H	0.416365	0.359867	1.374214
H56	H	0.916365	0.859867	1.874214
H57	H	0.658606	0.570417	1.345383
H58	H	1.158606	1.070417	1.845383
C59	C	0.711767	0.933183	1.729591
C60	C	1.211767	1.433183	2.229591
H61	H	0.705205	0.844911	1.734414
H62	H	1.205205	1.344911	2.234414
H63	H	0.693859	0.961141	1.646964
H64	H	1.193859	1.461141	2.146964
H65	H	0.813999	0.953148	1.749523
H66	H	1.313999	1.453148	2.249523
C67	C	0.363567	0.995878	1.988757
C68	C	0.863567	1.495878	2.488757
H69	H	0.370138	1.084150	1.983947
H70	H	0.870138	1.584150	2.483947
H71	H	0.261342	0.975907	1.968835
H72	H	0.761342	1.475907	2.468835
H73	H	0.381489	0.967922	2.071389
H74	H	0.881489	1.467922	2.571389
