data_functionalizedCrystal
_audit_creation_method	'MofGen! by Chris Wilmer'
_symmetry_space_group_name_H-M	'P1'
_symmetry_Int_Tables_number	1
_symmetry_cell_setting	triclinic
loop_
_symmetry_equiv_pos_as_xyz
  x,y,z
_cell_length_a	10.654550
_cell_length_b	15.995350
_cell_length_c	9.130313
_cell_angle_alpha	90.000982
_cell_angle_beta	89.996220
_cell_angle_gamma	83.988639
loop_
_atom_site_label
_atom_site_type_symbol
_atom_site_fract_x
_atom_site_fract_y
_atom_site_fract_z
O1	O	1.666298	0.117599	-0.121912
O2	O	1.300673	0.128803	-0.121888
O3	O	1.493480	0.001371	-0.121899
O4	O	1.473491	0.245030	-0.121900
O5	O	1.493478	0.001375	0.121700
O6	O	1.300671	0.128807	0.121711
O7	O	1.666295	0.117602	0.121687
Cu8	Cu	1.483483	0.123205	0.143942
Cu9	Cu	1.483486	0.123201	-0.144142
O10	O	1.473488	0.245034	0.121698
C11	C	1.253885	0.127982	-0.000085
C12	C	1.114473	0.125521	-0.000076
C13	C	1.034008	0.200551	-0.000098
C14	C	0.903017	0.198233	-0.000123
C15	C	0.932971	0.045849	-0.000111
C16	C	1.063959	0.048168	-0.000075
C17	C	1.016713	0.288528	-0.000111
C18	C	0.885722	0.286211	-0.000137
C19	C	1.492652	-0.029827	-0.000102
C20	C	1.490175	-0.122791	-0.000110
C21	C	1.481278	-0.460591	-0.000105
C22	C	1.343964	-0.413954	-0.000642
C23	C	1.346442	-0.317249	-0.000093
C24	C	1.485691	-0.293004	-0.000108
C25	C	1.553417	-0.333687	0.138991
C26	C	1.549968	-0.430342	0.139108
C27	C	1.552807	-0.430688	-0.137910
C28	C	1.552775	-0.333743	-0.139748
C29	C	1.488192	-0.198292	-0.000106
C30	C	1.478780	-0.555303	-0.000098
C31	C	1.713084	0.118423	-0.000119
C32	C	1.852495	0.120884	-0.000137
C33	C	1.474316	0.276232	-0.000101
C34	C	1.476793	0.369197	-0.000103
N35	N	1.483490	0.123207	0.346564
N36	N	1.483488	0.123192	-0.346765
C37	C	1.568887	0.066800	0.423211
C38	C	1.568883	0.066789	0.576548
C39	C	1.398083	0.179602	0.576578
C40	C	1.398081	0.179607	0.423244
C41	C	1.667501	0.001671	0.423195
C42	C	1.667497	0.001661	0.576532
H43	H	1.293204	-0.289138	-0.099805
O44	O	1.051390	0.329585	0.121405
C45	C	1.222434	0.378313	0.259081
C46	C	1.183332	0.331821	0.121391
H47	H	1.329114	0.380120	0.259131
H48	H	1.173700	0.445255	0.259103
H49	H	1.193432	0.343926	0.361008
H50	H	1.212329	0.366136	0.019391
H51	H	1.232055	0.264876	0.121499
H52	H	1.289082	-0.432806	-0.100393
O53	O	1.493908	-0.301629	-0.262667
C54	C	1.488157	-0.302083	-0.526498
C55	C	1.554920	-0.338545	-0.387417
H56	H	1.537473	-0.331902	-0.627394
H57	H	1.385447	-0.316138	-0.525559
H58	H	1.492173	-0.231162	-0.529500
H59	H	1.551001	-0.409472	-0.384325
H60	H	1.657598	-0.324425	-0.388412
O61	O	1.673640	-0.467777	-0.139241
C62	C	1.873755	-0.482696	-0.264622
C63	C	1.736961	-0.440615	-0.263291
H64	H	1.924982	-0.460766	-0.364923
H65	H	1.924375	-0.464647	-0.161135
H66	H	1.873147	-0.553883	-0.268839
H67	H	1.737453	-0.369421	-0.259127
H68	H	1.686397	-0.458732	-0.366774
H69	H	1.637779	-0.059156	0.624082
H70	H	1.129471	-0.012929	-0.000037
O71	O	1.775948	0.025900	0.366239
C72	C	1.958438	-0.011939	0.215006
C73	C	1.835659	-0.039497	0.279402
H74	H	2.006762	-0.064804	0.144810
H75	H	1.935450	0.046544	0.144656
H76	H	2.024044	0.002829	0.307978
H77	H	1.769994	-0.054310	0.186524
H78	H	1.858740	-0.097953	0.349791
H79	H	1.328534	0.225531	0.360839
H80	H	1.763822	0.016007	0.618142
O81	O	0.883838	-0.029267	-0.000379
C82	C	0.753299	-0.120304	-0.126564
C83	C	0.808878	-0.035213	-0.126457
H84	H	0.692660	-0.125132	-0.228472
H85	H	0.833264	-0.173567	-0.126639
H86	H	0.692753	-0.125184	-0.024585
H87	H	0.869409	-0.030251	-0.228419
H88	H	0.728852	0.018008	-0.126306
O89	O	1.314951	0.234303	0.651003
C90	C	1.096591	0.282034	0.697872
C91	C	1.190601	0.220024	0.613524
H92	H	0.996034	0.270523	0.667578
H93	H	1.111148	0.272339	0.820647
H94	H	1.113008	0.349196	0.667757
H95	H	1.174241	0.152837	0.643516
H96	H	1.176021	0.229792	0.490769
O97	O	1.642688	-0.075071	0.373612
C98	C	1.495663	-0.179715	0.369042
C99	C	1.523594	-0.092789	0.425260
H100	H	1.399388	-0.194076	0.410802
H101	H	1.495566	-0.179750	0.244179
H102	H	1.571414	-0.229703	0.410610
H103	H	1.447874	-0.042753	0.383800
H104	H	1.523736	-0.092825	0.550122
O105	O	0.831005	0.317991	0.125385
C106	C	0.862390	0.379971	0.361371
C107	C	0.924518	0.344024	0.219282
H108	H	0.937969	0.401011	0.437339
H109	H	0.791175	0.436037	0.334055
H110	H	0.812027	0.329413	0.417953
H111	H	0.974949	0.394520	0.162631
H112	H	0.995664	0.287938	0.246693
O113	O	1.058735	0.322092	-0.125491
C114	C	1.049072	0.442965	-0.284186
C115	C	1.001400	0.405069	-0.142137
H116	H	1.002717	0.510051	-0.297706
H117	H	1.155884	0.443416	-0.278401
H118	H	1.023841	0.403452	-0.381678
H119	H	1.026541	0.444550	-0.044572
H120	H	0.894597	0.404603	-0.148049
H121	H	1.289324	-0.433864	0.098560
O122	O	0.835197	0.325749	-0.121659
C123	C	0.646245	0.368094	-0.259332
C124	C	0.703294	0.323316	-0.121637
H125	H	0.539597	0.366127	-0.259375
H126	H	0.668417	0.436291	-0.259369
H127	H	0.688514	0.334960	-0.361255
H128	H	0.661058	0.356381	-0.019641
H129	H	0.681133	0.255118	-0.121729
H130	H	1.292844	-0.289694	0.099796
H131	H	1.507914	-0.451490	-0.243339
O132	O	1.491110	-0.452670	0.263109
C133	C	1.420340	-0.565651	0.405355
C134	C	1.487055	-0.540490	0.264885
H135	H	1.417016	-0.636652	0.406822
H136	H	1.474434	-0.546084	0.505240
H137	H	1.320089	-0.532827	0.407946
H138	H	1.587304	-0.573302	0.262151
H139	H	1.432864	-0.560041	0.165064
H140	H	1.650782	-0.462005	0.145409
H141	H	1.655720	-0.318967	0.144153
H142	H	1.654321	-0.317791	-0.148158
H143	H	1.506376	-0.305577	0.242515
