data_functionalizedCrystal
_audit_creation_method	'MofGen! by Chris Wilmer'
_symmetry_space_group_name_H-M	'P1'
_symmetry_Int_Tables_number	1
_symmetry_cell_setting	triclinic
loop_
_symmetry_equiv_pos_as_xyz
  x,y,z
_cell_length_a	16.109301
_cell_length_b	12.837942
_cell_length_c	15.186229
_cell_angle_alpha	89.996774
_cell_angle_beta	89.999362
_cell_angle_gamma	89.145211
loop_
_atom_site_label
_atom_site_type_symbol
_atom_site_fract_x
_atom_site_fract_y
_atom_site_fract_z
O1	O	1.113716	0.133240	-0.073172
O2	O	0.872971	0.149822	-0.073186
O3	O	0.988005	-0.009370	-0.073174
O4	O	0.998681	0.292432	-0.073184
O5	O	0.987996	-0.009372	0.073283
O6	O	0.872962	0.149820	0.073271
O7	O	1.113707	0.133238	0.073285
Zn8	Zn	0.993333	0.141528	0.096532
Zn9	Zn	0.993345	0.141531	-0.096432
O10	O	0.998673	0.292430	0.073273
C11	C	0.841938	0.149149	0.000041
C12	C	0.749483	0.147135	0.000036
C13	C	0.984394	-0.047991	0.000054
C14	C	0.973637	-0.163064	0.000052
C15	C	0.534343	0.236914	0.000043
C16	C	0.447471	0.235014	0.000049
C17	C	0.452341	0.046138	0.000051
C18	C	0.539211	0.048040	0.000052
C19	C	0.580209	0.143431	0.000043
C20	C	0.406468	0.139629	0.000048
C21	C	0.312278	0.137568	0.000055
C22	C	0.674405	0.145492	0.000039
C23	C	1.102954	-0.404066	0.000041
C24	C	1.092851	-0.512188	0.000039
C25	C	0.943328	-0.487433	0.000040
C26	C	0.953431	-0.379311	0.000042
C27	C	1.033247	-0.337632	0.000044
C28	C	1.043349	-0.229507	0.000052
C29	C	0.893827	-0.204754	0.000046
C30	C	0.883724	-0.312876	0.000044
C31	C	1.144739	0.133911	0.000056
C32	C	1.237195	0.135924	0.000056
C33	C	1.002284	0.331050	0.000043
C34	C	1.013041	0.446124	0.000040
N35	N	0.993331	0.141526	0.228224
N36	N	0.993352	0.141526	-0.228125
C37	C	1.044289	0.071059	0.453952
C38	C	1.044292	0.071057	0.546142
C39	C	0.942388	0.211996	0.546141
C40	C	0.942382	0.211992	0.453953
C41	C	0.993337	0.141525	0.407861
C42	C	0.993346	0.141526	0.592239
C43	C	0.993348	0.141524	0.692195
C44	C	0.993334	0.141526	0.307898
H45	H	0.567721	0.314588	0.000043
H46	H	1.085779	0.013679	0.416427
H47	H	0.418949	-0.031526	0.000064
Br48	Br	1.113439	-0.024584	0.608693
H49	H	0.900903	0.269370	0.583678
Br50	Br	0.799219	-0.114586	0.000066
H51	H	0.410130	0.311138	0.000050
H52	H	1.149614	-0.566277	0.000034
Br53	Br	0.835016	-0.544017	0.000005
Br54	Br	0.601464	-0.078840	0.000064
H55	H	1.108339	-0.195574	0.000057
Br56	Br	1.211271	-0.347495	0.000071
Br57	Br	0.775409	-0.369451	0.000030
Br58	Br	0.873221	0.307623	0.391392
