data_functionalizedCrystal
_audit_creation_method	'MofGen! by Chris Wilmer'
_symmetry_space_group_name_H-M	'P1'
_symmetry_Int_Tables_number	1
_symmetry_cell_setting	triclinic
loop_
_symmetry_equiv_pos_as_xyz
  x,y,z
_cell_length_a	11.792241
_cell_length_b	15.538191
_cell_length_c	14.750779
_cell_angle_alpha	82.427828
_cell_angle_beta	77.269352
_cell_angle_gamma	114.267245
loop_
_atom_site_label
_atom_site_type_symbol
_atom_site_fract_x
_atom_site_fract_y
_atom_site_fract_z
O1	O	-0.334867	-1.227751	-0.079835
O2	O	-0.204092	-0.954160	-0.079835
O3	O	-0.437437	-1.097596	-0.079829
O4	O	-0.101522	-1.084314	-0.079842
O5	O	-0.503396	-1.138144	0.079824
O6	O	-0.270050	-0.994708	0.079817
O7	O	-0.400826	-1.268299	0.079817
Zn8	Zn	-0.345910	-1.137941	0.105165
Zn9	Zn	-0.259007	-1.084517	-0.105184
O10	O	-0.167480	-1.124862	0.079810
C11	C	-0.512358	-1.117036	-0.000003
C12	C	-0.637324	-1.114539	-0.000004
C13	C	-0.223389	-0.939408	-0.000009
C14	C	-0.182633	-0.835043	-0.000009
C15	C	-0.381528	-1.283050	-0.000011
C16	C	-0.422281	-1.387414	-0.000018
C17	C	-0.866104	-1.109944	-0.000020
C18	C	-0.738792	-1.112497	-0.000011
C19	C	-0.092559	-1.105422	-0.000018
C20	C	0.032410	-1.107917	-0.000023
N21	N	-0.405223	-1.174408	0.248722
C22	C	-0.587531	-0.545184	-0.000008
C23	C	-0.549206	-0.447114	-0.000010
C24	C	-0.333634	-0.425770	-0.000018
C25	C	-0.371944	-0.523842	-0.000012
C26	C	-0.498893	-0.583541	-0.000007
C27	C	-0.283306	-0.562199	-0.000011
C28	C	-0.321611	-0.660261	-0.000009
C29	C	-0.448554	-0.719966	-0.000008
C30	C	-0.537198	-0.681604	-0.000005
C31	C	-0.156354	-0.502495	-0.000022
C32	C	-0.067716	-0.540853	-0.000022
C33	C	-0.106023	-0.638918	-0.000013
C34	C	-0.232966	-0.698623	-0.000011
C35	C	-0.017378	-0.677281	-0.000015
C36	C	-0.055683	-0.775343	-0.000013
C37	C	-0.271271	-0.796685	-0.000010
N38	N	-0.199706	-1.048058	-0.248741
C39	C	-0.034105	-0.946211	0.600530
C40	C	-0.075662	-0.971771	0.701030
C41	C	-0.282244	-1.098811	0.700999
C42	C	-0.240706	-1.073258	0.600497
C43	C	-0.116634	-0.996958	0.550270
C44	C	-0.323236	-1.124005	0.550237
C45	C	-0.281698	-1.098457	0.449743
C46	C	-0.157630	-1.022162	0.399509
C47	C	-0.075097	-0.971410	0.449776
C48	C	-0.447303	-1.200309	0.600465
C49	C	-0.529833	-1.251056	0.550205
C50	C	-0.488299	-1.225504	0.449710
C51	C	-0.364231	-1.149209	0.399476
C52	C	-0.570832	-1.276256	0.399443
C53	C	-0.529294	-1.250708	0.298949
C54	C	-0.322693	-1.123661	0.298982
H55	H	-0.374648	-0.845299	-0.000000
Cl56	Cl	-0.726795	-1.372182	0.462594
Cl57	Cl	-0.496709	-0.843245	-0.000011
H58	H	0.035649	-0.492231	-0.000029
Cl59	Cl	-0.685802	-1.346976	0.613354
H60	H	0.085988	-0.628656	-0.000028
H61	H	-0.640576	-0.730217	0.000004
H62	H	-0.221667	-1.061523	0.258086
H63	H	-0.383263	-1.160938	0.741905
Cl64	Cl	0.028111	-0.907965	0.764207
H65	H	-0.230269	-0.377148	-0.000026
Cl66	Cl	-0.108199	-0.379216	-0.000024
Cl67	Cl	-0.747134	-0.620246	0.000009
H68	H	-0.621395	-0.415889	-0.000012
Cl69	Cl	0.055749	-0.823567	-0.000015
Cl70	Cl	-0.499513	-1.232428	0.726802
H71	H	-0.123809	-1.001364	0.317681
Cl72	Cl	-0.633048	-1.314509	0.235763
Cl73	Cl	0.080876	-0.875477	0.386631
H74	H	0.066922	-0.884073	0.559634
