data_functionalizedCrystal
_audit_creation_method	'MofGen! by Chris Wilmer'
_symmetry_space_group_name_H-M	'P1'
_symmetry_Int_Tables_number	1
_symmetry_cell_setting	triclinic
loop_
_symmetry_equiv_pos_as_xyz
  x,y,z
_cell_length_a	14.519709
_cell_length_b	23.532407
_cell_length_c	13.596369
_cell_angle_alpha	89.989360
_cell_angle_beta	90.000291
_cell_angle_gamma	83.264412
loop_
_atom_site_label
_atom_site_type_symbol
_atom_site_fract_x
_atom_site_fract_y
_atom_site_fract_z
O1	O	1.222985	0.074654	-0.081674
O2	O	0.954404	0.083445	-0.081705
O3	O	1.096794	-0.003846	-0.081671
O4	O	1.080596	0.161945	-0.081708
O5	O	1.096780	-0.003850	0.081912
O6	O	0.954390	0.083441	0.081878
O7	O	1.222971	0.074649	0.081909
Zn8	Zn	1.088678	0.079044	0.107866
Zn9	Zn	1.088697	0.079050	-0.107662
O10	O	1.080582	0.161940	0.081874
C11	C	0.920042	0.083033	0.000083
C12	C	0.817676	0.081805	0.000071
C13	C	0.442833	0.077286	0.000117
C14	C	0.547126	0.078541	0.000104
C15	C	0.630251	0.079545	0.000093
C16	C	0.734551	0.080801	0.000082
C17	C	1.096374	-0.025066	0.000123
C18	C	1.095134	-0.088288	0.000131
C19	C	1.171619	-0.487046	0.000086
C20	C	1.170467	-0.546452	0.000078
O21	O	1.241369	-0.582876	0.000050
N22	N	1.085816	-0.569460	0.000069
C23	C	1.002312	-0.533059	0.000057
O24	O	0.930205	-0.558084	0.000048
C25	C	1.003465	-0.473655	0.000058
C26	C	1.088121	-0.450650	0.000077
C27	C	1.256268	-0.464041	0.000104
C28	C	1.257420	-0.404640	0.000113
C29	C	1.173922	-0.368244	0.000105
C30	C	1.089273	-0.391249	0.000087
C31	C	0.919962	-0.437255	0.000039
C32	C	0.921123	-0.377847	0.000039
C33	C	1.005779	-0.354843	0.000058
C34	C	1.006927	-0.295451	0.000087
N35	N	1.091578	-0.272443	0.000097
C36	C	1.175075	-0.308839	0.000105
C37	C	0.999897	-0.657813	0.000055
C38	C	0.998743	-0.717216	0.000061
C39	C	1.166898	-0.730604	0.000080
C40	C	1.168051	-0.671200	0.000080
C41	C	1.084548	-0.634804	0.000064
C42	C	1.177487	-0.184092	0.000126
C43	C	1.178632	-0.124685	0.000139
C44	C	1.010477	-0.111301	0.000115
C45	C	1.009332	-0.170703	0.000107
C46	C	1.092845	-0.207098	0.000109
O47	O	0.936062	-0.258992	0.000111
O48	O	1.247171	-0.283806	0.000102
C49	C	1.257333	0.075061	0.000119
C50	C	1.359700	0.076289	0.000124
C51	C	1.081001	0.183160	0.000078
C52	C	1.082241	0.246383	0.000064
N53	N	1.088673	0.079040	0.254958
N54	N	1.088710	0.079050	-0.254754
C55	C	1.088696	0.079051	0.656248
C56	C	1.088686	0.079050	0.544597
C57	C	1.088685	0.079046	0.455607
C58	C	1.088674	0.079044	0.343948
H59	H	1.245491	-0.213718	0.000124
O60	O	0.837702	-0.459563	-0.000160
C61	C	0.786851	-0.440943	-0.084881
H62	H	0.836382	-0.428530	-0.144080
H63	H	0.735107	-0.402281	-0.065736
C64	C	0.673460	-0.504840	-0.050610
C65	C	0.734296	-0.489599	-0.123322
H66	H	0.641038	-0.534852	-0.074321
H67	H	0.707717	-0.517383	0.006470
H68	H	0.630349	-0.472618	-0.034663
H69	H	0.777413	-0.521819	-0.139260
H70	H	0.700045	-0.477062	-0.180406
H71	H	1.234886	-0.760249	0.000083
H72	H	0.931894	-0.628182	0.000049
O73	O	1.337469	-0.499310	0.000159
C74	C	1.412418	-0.466254	0.000149
H75	H	1.388570	-0.421950	0.031109
H76	H	1.438403	-0.461986	-0.078325
C77	C	1.520688	-0.550174	0.026294
C78	C	1.491400	-0.495760	0.064328
H79	H	1.569410	-0.568375	0.065879
H80	H	1.470195	-0.572445	0.026297
H81	H	1.542336	-0.546610	-0.039100
H82	H	1.469741	-0.499325	0.129716
H83	H	1.541892	-0.473490	0.064337
H84	H	1.247572	-0.105958	0.000158
H85	H	1.326355	-0.385915	0.000125
H86	H	1.236985	-0.652474	0.000095
H87	H	0.929808	-0.735940	0.000062
H88	H	0.853122	-0.348216	0.000024
H89	H	0.940399	-0.189434	0.000119
O90	O	0.929456	-0.075859	0.000062
C91	C	0.948637	-0.018496	0.000094
H92	H	1.021058	-0.016140	-0.030858
H93	H	0.944968	-0.001330	0.078573
C94	C	0.787767	0.014898	-0.026057
C95	C	0.876713	0.017792	-0.064081
H96	H	0.743399	0.037284	-0.065639
H97	H	0.774843	-0.023748	-0.026075
H98	H	0.784723	0.029203	0.039341
H99	H	0.879759	0.003481	-0.129473
H100	H	0.889635	0.056437	-0.064076
