data_functionalizedCrystal
_audit_creation_method	'MofGen! by Chris Wilmer'
_symmetry_space_group_name_H-M	'P1'
_symmetry_Int_Tables_number	1
_symmetry_cell_setting	triclinic
loop_
_symmetry_equiv_pos_as_xyz
  x,y,z
_cell_length_a	11.169417
_cell_length_b	14.908183
_cell_length_c	11.169409
_cell_angle_alpha	86.666262
_cell_angle_beta	89.980487
_cell_angle_gamma	93.316011
loop_
_atom_site_label
_atom_site_type_symbol
_atom_site_fract_x
_atom_site_fract_y
_atom_site_fract_z
Zn1	Zn	1.807326	-0.359087	-0.650922
Zn2	Zn	1.795602	-0.509993	-0.438635
Zn3	Zn	1.606608	-0.359143	-0.450253
Zn4	Zn	1.595011	-0.509921	-0.639286
O5	O	1.701137	-0.434536	-0.544774
O6	O	1.973720	-0.379112	-0.622769
O7	O	1.770478	-0.490036	-0.272222
O8	O	1.642994	-0.232880	-0.486603
O9	O	1.965106	-0.489982	-0.466802
O10	O	1.790461	-0.232839	-0.634034
O11	O	1.631625	-0.379208	-0.280758
O12	O	1.437120	-0.379137	-0.475321
O13	O	1.623229	-0.489859	-0.808784
O14	O	1.428600	-0.489913	-0.614203
O15	O	1.779216	-0.379042	-0.817332
O16	O	1.759233	-0.636240	-0.455520
O17	O	1.611860	-0.636186	-0.602938
C18	C	1.389313	-0.434524	-0.544761
C19	C	1.255912	-0.434541	-0.544782
C20	C	1.683048	-0.668950	-0.526732
C21	C	1.675420	-0.769233	-0.519054
C22	C	1.587953	-0.910674	-0.431410
C23	C	1.595116	-0.816449	-0.438622
C24	C	1.748563	-0.816248	-0.592282
C25	C	1.741400	-0.910473	-0.585071
C26	C	1.661094	-0.957682	-0.504630
C27	C	1.653937	-1.051909	-0.497413
C28	C	1.807378	-1.051706	-0.651080
C29	C	1.814541	-0.957482	-0.658291
C30	C	2.014178	-0.434549	-0.544787
C31	C	2.147578	-0.434554	-0.544793
C32	C	1.701237	-0.434436	-0.857824
C33	C	1.701279	-0.434393	-0.991228
C34	C	1.719329	-0.199207	-0.562912
C35	C	1.727081	-0.098924	-0.570642
C36	C	1.701111	-0.434571	-0.232947
C37	C	1.701321	-0.434359	-0.099563
H38	H	1.588550	-1.090346	-0.431913
Cl39	Cl	1.899340	-1.110808	-0.743125
Cl40	Cl	1.487013	-0.970026	-0.330275
H41	H	1.535556	-0.778177	-0.379000
H42	H	1.879922	-0.919033	-0.723787
Cl43	Cl	1.849482	-0.756884	-0.693427
