data_functionalizedCrystal
_audit_creation_method	'MofGen! by Chris Wilmer'
_symmetry_space_group_name_H-M	'P1'
_symmetry_Int_Tables_number	1
_symmetry_cell_setting	triclinic
loop_
_symmetry_equiv_pos_as_xyz
  x,y,z
_cell_length_a	14.519731
_cell_length_b	10.967870
_cell_length_c	13.596369
_cell_angle_alpha	102.133670
_cell_angle_beta	90.006374
_cell_angle_gamma	95.788657
loop_
_atom_site_label
_atom_site_type_symbol
_atom_site_fract_x
_atom_site_fract_y
_atom_site_fract_z
O1	O	1.224674	-0.163706	-0.109540
O2	O	1.474674	0.086294	0.140460
O3	O	1.724674	0.336294	0.390460
O4	O	1.974674	0.586294	0.640460
O5	O	0.956298	-0.182942	-0.112802
O6	O	1.206298	0.067058	0.137198
O7	O	1.456298	0.317058	0.387198
O8	O	1.706298	0.567058	0.637198
O9	O	1.096679	0.008313	-0.080379
O10	O	1.346679	0.258313	0.169621
O11	O	1.596679	0.508313	0.419621
O12	O	1.846679	0.758313	0.669621
O13	O	1.084293	-0.354961	-0.141964
O14	O	1.334293	-0.104961	0.108036
O15	O	1.584293	0.145039	0.358036
O16	O	1.834293	0.395039	0.608036
O17	O	1.096697	0.008323	0.083206
O18	O	1.346697	0.258323	0.333206
O19	O	1.596697	0.508323	0.583206
O20	O	1.846697	0.758323	0.833206
O21	O	0.956315	-0.182931	0.050783
O22	O	1.206315	0.067069	0.300783
O23	O	1.456315	0.317069	0.550783
O24	O	1.706315	0.567069	0.800783
O25	O	1.224692	-0.163696	0.054044
O26	O	1.474692	0.086304	0.304044
O27	O	1.724692	0.336304	0.554044
O28	O	1.974692	0.586304	0.804044
Zn29	Zn	1.090506	-0.173312	0.078386
Zn30	Zn	1.340506	0.076688	0.328386
Zn31	Zn	1.590506	0.326688	0.578386
Zn32	Zn	1.840506	0.576688	0.828386
Zn33	Zn	1.090483	-0.173326	-0.137144
Zn34	Zn	1.340483	0.076674	0.112856
Zn35	Zn	1.590483	0.326674	0.362856
Zn36	Zn	1.840483	0.576674	0.612856
O37	O	1.084310	-0.354950	0.021621
O38	O	1.334310	-0.104950	0.271621
O39	O	1.584310	0.145050	0.521621
O40	O	1.834310	0.395050	0.771621
C41	C	0.921943	-0.182035	-0.030857
C42	C	1.171943	0.067965	0.219143
C43	C	1.421943	0.317965	0.469143
C44	C	1.671943	0.567965	0.719143
C45	C	0.819549	-0.179335	-0.030400
C46	C	1.069549	0.070665	0.219600
C47	C	1.319549	0.320665	0.469600
C48	C	1.569549	0.570665	0.719600
C49	C	1.095788	0.054810	0.009293
C50	C	1.345788	0.304810	0.259293
C51	C	1.595788	0.554810	0.509293
C52	C	1.845788	0.804810	0.759293
C53	C	1.093094	0.193342	0.032772
C54	C	1.343094	0.443342	0.282772
C55	C	1.593094	0.693342	0.532772
C56	C	1.843094	0.943342	0.782772
C57	C	0.736393	-0.177140	-0.030032
C58	C	0.986393	0.072860	0.219968
C59	C	1.236393	0.322860	0.469968
C60	C	1.486393	0.572860	0.719968
C61	C	0.632071	-0.174398	-0.029567
C62	C	0.882071	0.075602	0.220433
C63	C	1.132071	0.325602	0.470433
C64	C	1.382071	0.575602	0.720433
C65	C	0.548921	-0.172221	-0.029198
C66	C	0.798921	0.077779	0.220802
C67	C	1.048921	0.327779	0.470802
C68	C	1.298921	0.577779	0.720802
C69	C	0.444591	-0.169480	-0.028736
C70	C	0.694591	0.080520	0.221264
C71	C	0.944591	0.330520	0.471264
C72	C	1.194591	0.580520	0.721264
C73	C	1.091884	0.255092	-0.041503
C74	C	1.341884	0.505092	0.208497
C75	C	1.591884	0.755092	0.458497
C76	C	1.841884	1.005092	0.708497
C77	C	1.089100	0.398272	-0.017239
C78	C	1.339100	0.648272	0.232761
C79	C	1.589100	0.898272	0.482761
C80	C	1.839100	1.148272	0.732761
C81	C	1.259047	-0.164602	-0.027903
C82	C	1.509047	0.085398	0.222097
C83	C	1.759047	0.335398	0.472097
C84	C	2.009047	0.585398	0.722097
C85	C	1.361441	-0.167303	-0.028367
C86	C	1.611441	0.082697	0.221633
C87	C	1.861441	0.332697	0.471633
C88	C	2.111441	0.582697	0.721633
C89	C	1.085201	0.598552	-0.068050
C90	C	1.335201	0.848552	0.181950
C91	C	1.585201	1.098552	0.431950
C92	C	1.835201	1.348552	0.681950
C93	C	1.087890	0.460019	-0.091525
C94	C	1.337890	0.710019	0.158475
C95	C	1.587890	0.960019	0.408475
C96	C	1.837890	1.210019	0.658475
N97	N	1.090468	-0.173326	-0.284236
N98	N	1.340468	0.076674	-0.034236
N99	N	1.590468	0.326674	0.215764
N100	N	1.840468	0.576674	0.465764
C101	C	1.090472	-0.173327	-0.373234
C102	C	1.340472	0.076673	-0.123234
C103	C	1.590472	0.326673	0.126766
C104	C	1.840472	0.576673	0.376766
C105	C	1.090485	-0.173324	-0.484885
C106	C	1.340485	0.076676	-0.234885
C107	C	1.590485	0.326676	0.015115
C108	C	1.840485	0.576676	0.265115
C109	C	1.090501	-0.173315	-0.573874
C110	C	1.340501	0.076685	-0.323874
C111	C	1.590501	0.326685	-0.073874
C112	C	1.840501	0.576685	0.176126
C113	C	1.090513	-0.173311	-0.685531
C114	C	1.340513	0.076689	-0.435531
C115	C	1.590513	0.326689	-0.185531
C116	C	1.840513	0.576689	0.064469
N117	N	1.090529	-0.173302	0.225480
N118	N	1.340529	0.076698	0.475480
N119	N	1.590529	0.326698	0.725480
N120	N	1.840529	0.576698	0.975480
H121	H	1.092905	0.201958	-0.123057
H122	H	1.342905	0.451958	0.126943
H123	H	1.592905	0.701958	0.376943
H124	H	1.842905	0.951958	0.626943
H125	H	1.088905	0.406890	-0.173084
H126	H	1.338905	0.656890	0.076916
H127	H	1.588905	0.906890	0.326916
H128	H	1.838905	1.156890	0.576916
H129	H	1.088069	0.451400	0.064320
H130	H	1.338069	0.701400	0.314320
H131	H	1.588069	0.951400	0.564320
H132	H	1.838069	1.201400	0.814320
H133	H	1.092063	0.246474	0.114325
H134	H	1.342063	0.496474	0.364325
H135	H	1.592063	0.746474	0.614325
H136	H	1.842063	0.996474	0.864325
