data_functionalizedCrystal
_audit_creation_method	'MofGen! by Chris Wilmer'
_symmetry_space_group_name_H-M	'P1'
_symmetry_Int_Tables_number	1
_symmetry_cell_setting	triclinic
loop_
_symmetry_equiv_pos_as_xyz
  x,y,z
_cell_length_a	11.792241
_cell_length_b	10.268362
_cell_length_c	14.971494
_cell_angle_alpha	89.999629
_cell_angle_beta	83.905487
_cell_angle_gamma	90.000426
loop_
_atom_site_label
_atom_site_type_symbol
_atom_site_fract_x
_atom_site_fract_y
_atom_site_fract_z
O1	O	1.506123	0.108168	0.122592
O2	O	1.839457	0.441502	0.455925
O3	O	2.172790	0.774835	0.789259
O4	O	1.175701	0.108198	0.135227
O5	O	1.509035	0.441532	0.468560
O6	O	1.842368	0.774865	0.801894
O7	O	1.349764	0.108180	-0.001255
O8	O	1.683097	0.441513	0.332079
O9	O	2.016430	0.774846	0.665412
O10	O	1.332061	0.108187	0.259074
O11	O	1.665394	0.441520	0.592407
O12	O	1.998728	0.774854	0.925740
O13	O	1.349747	-0.108421	-0.001250
O14	O	1.683080	0.224912	0.332083
O15	O	2.016413	0.558246	0.665417
O16	O	1.175685	-0.108402	0.135232
O17	O	1.509018	0.224931	0.468565
O18	O	1.842351	0.558264	0.801898
O19	O	1.506107	-0.108432	0.122597
O20	O	1.839440	0.224901	0.455930
O21	O	2.172773	0.558235	0.789263
Cu22	Cu	1.340894	-0.128195	0.128915
Cu23	Cu	1.674227	0.205139	0.462248
Cu24	Cu	2.007561	0.538472	0.795581
Cu25	Cu	1.340914	0.127961	0.128909
Cu26	Cu	1.674247	0.461294	0.462242
Cu27	Cu	2.007580	0.794627	0.795576
O28	O	1.332044	-0.108414	0.259078
O29	O	1.665378	0.224920	0.592412
O30	O	1.998711	0.558253	0.925745
C31	C	1.133407	-0.000098	0.134436
C32	C	1.466740	0.333235	0.467769
C33	C	1.800074	0.666569	0.801102
C34	C	1.007409	-0.000087	0.132060
C35	C	1.340742	0.333247	0.465393
C36	C	1.674075	0.666580	0.798727
C37	C	0.776724	-0.000124	0.127692
C38	C	1.110058	0.333209	0.461025
C39	C	1.443391	0.666542	0.794359
C40	C	0.905094	-0.000104	0.130119
C41	C	1.238427	0.333230	0.463452
C42	C	1.571761	0.666563	0.796786
N43	N	1.340888	-0.308360	0.128918
N44	N	1.674222	0.024973	0.462251
N45	N	2.007555	0.358306	0.795585
C46	C	1.340897	-0.426203	0.128918
C47	C	1.674230	-0.092869	0.462252
C48	C	2.007563	0.240464	0.795585
C49	C	1.340911	-0.574041	0.128910
C50	C	1.674244	-0.240707	0.462244
C51	C	2.007578	0.092626	0.795577
C52	C	1.548401	-0.000133	0.123388
C53	C	1.881734	0.333201	0.456721
C54	C	2.215068	0.666534	0.790055
C55	C	1.674399	-0.000136	0.125764
C56	C	2.007733	0.333198	0.459097
C57	C	2.341066	0.666531	0.792430
C58	C	1.348962	-0.000119	-0.034580
C59	C	1.682295	0.333215	0.298753
C60	C	2.015628	0.666548	0.632087
C61	C	1.346584	-0.000112	-0.133886
C62	C	1.679918	0.333221	0.199447
C63	C	2.013251	0.666554	0.532780
N64	N	1.340928	0.308127	0.128899
N65	N	1.674262	0.641460	0.462232
N66	N	2.007595	0.974793	0.795565
C67	C	1.345479	0.117958	-0.180538
C68	C	1.678812	0.451292	0.152795
C69	C	2.012146	0.784625	0.486129
C70	C	1.343238	0.117960	-0.273846
C71	C	1.676571	0.451293	0.059487
C72	C	2.009904	0.784627	0.392821
C73	C	1.342110	-0.000110	-0.320501
C74	C	1.675443	0.333223	0.012832
C75	C	2.008776	0.666557	0.346165
C76	C	1.343212	-0.118190	-0.273843
C77	C	1.676545	0.215144	0.059491
C78	C	2.009878	0.548477	0.392824
C79	C	1.345445	-0.118190	-0.180536
C80	C	1.678778	0.215143	0.152798
C81	C	2.012112	0.548476	0.486131
C82	C	1.338560	-0.118181	-0.468325
C83	C	1.671893	0.215153	-0.134991
C84	C	2.005227	0.548486	0.198342
C85	C	1.336329	-0.118181	-0.561638
C86	C	1.669662	0.215153	-0.228305
C87	C	2.002996	0.548486	0.105028
C88	C	1.336353	0.117970	-0.561635
C89	C	1.669686	0.451303	-0.228302
C90	C	2.003019	0.784636	0.105032
C91	C	1.338586	0.117969	-0.468328
C92	C	1.671919	0.451303	-0.134994
C93	C	2.005253	0.784636	0.198339
C94	C	1.339690	-0.000111	-0.421676
C95	C	1.673023	0.333222	-0.088342
C96	C	2.006357	0.666556	0.244991
C97	C	1.332846	-0.000112	0.292404
C98	C	1.666179	0.333221	0.625737
C99	C	1.999513	0.666554	0.959070
C100	C	1.335224	-0.000110	0.391710
C101	C	1.668557	0.333223	0.725043
C102	C	2.001890	0.666557	1.058377
H103	H	1.346403	0.214105	-0.142558
H104	H	1.679737	0.547438	0.190775
H105	H	2.013070	0.880772	0.524108
H106	H	1.342342	0.214105	-0.311826
H107	H	1.675676	0.547438	0.021507
H108	H	2.009009	0.880772	0.354841
H109	H	1.335401	-0.214324	-0.599622
H110	H	1.668734	0.119009	-0.266288
H111	H	2.002068	0.452343	0.067045
H112	H	1.342287	-0.214325	-0.311836
H113	H	1.675620	0.119009	0.021497
H114	H	2.008953	0.452342	0.354830
Cl115	Cl	1.340014	0.266403	-0.409677
Cl116	Cl	1.673348	0.599736	-0.076344
Cl117	Cl	2.006681	0.933069	0.256989
H118	H	1.346329	-0.214336	-0.142551
H119	H	1.679662	0.118998	0.190782
H120	H	2.012996	0.452331	0.524115
Cl121	Cl	1.339953	-0.266627	-0.409678
Cl122	Cl	1.673286	0.066706	-0.076345
Cl123	Cl	2.006619	0.400040	0.256988
H124	H	1.335452	0.214115	-0.599623
H125	H	1.668785	0.547448	-0.266290
H126	H	2.002118	0.880782	0.067044
