data_functionalizedCrystal
_audit_creation_method	'MofGen! by Chris Wilmer'
_symmetry_space_group_name_H-M	'P1'
_symmetry_Int_Tables_number	1
_symmetry_cell_setting	triclinic
loop_
_symmetry_equiv_pos_as_xyz
  x,y,z
_cell_length_a	11.026607
_cell_length_b	27.732048
_cell_length_c	9.482900
_cell_angle_alpha	99.251554
_cell_angle_beta	78.636152
_cell_angle_gamma	95.614336
loop_
_atom_site_label
_atom_site_type_symbol
_atom_site_fract_x
_atom_site_fract_y
_atom_site_fract_z
O1	O	1.625408	0.196163	-0.120955
O2	O	1.272533	0.173153	-0.120950
O3	O	1.459925	0.115249	-0.120925
O4	O	1.438015	0.254067	-0.120980
O5	O	1.421861	0.127071	0.120862
O6	O	1.234468	0.184975	0.120837
O7	O	1.587343	0.207985	0.120832
Cu8	Cu	1.407430	0.197559	0.142912
Cu9	Cu	1.452446	0.183578	-0.143030
O10	O	1.399950	0.265889	0.120807
C11	C	1.208369	0.174819	-0.000055
C12	C	1.073891	0.162164	-0.000052
C13	C	1.440432	0.103112	-0.000028
C14	C	1.439045	0.049333	-0.000016
C15	C	0.999433	0.197105	-0.000067
C16	C	0.860443	0.184027	-0.000064
C17	C	1.541074	-0.280305	-0.000092
C18	C	1.535937	-0.482429	-0.000112
O19	O	1.629234	-0.505292	-0.000177
N20	N	1.424818	-0.511552	-0.000109
C21	C	1.314976	-0.490142	-0.000110
O22	O	1.220347	-0.519552	-0.000123
C23	C	1.320117	-0.288020	-0.000101
C24	C	1.431241	-0.258899	-0.000089
C25	C	1.652189	-0.251184	-0.000082
C26	C	1.653471	-0.200656	-0.000069
C27	C	1.543638	-0.179249	-0.000066
C28	C	1.432523	-0.208371	-0.000076
C29	C	1.210279	-0.266612	-0.000113
C30	C	1.211574	-0.216078	-0.000114
C31	C	1.322698	-0.186957	-0.000102
C32	C	1.323971	-0.136436	-0.000060
N33	N	1.435090	-0.107312	-0.000063
C34	C	1.544923	-0.128719	-0.000066
C35	C	1.312285	-0.596259	-0.000113
C36	C	1.310999	-0.646789	-0.000113
C37	C	1.531960	-0.639072	-0.000117
C38	C	1.533243	-0.588540	-0.000106
C39	C	1.423404	-0.567135	-0.000116
C40	C	1.547607	-0.022606	-0.000037
C41	C	1.548878	0.027926	-0.000018
C42	C	1.327919	0.020204	-0.000022
C43	C	1.326646	-0.030324	-0.000033
C44	C	1.436501	-0.051728	-0.000046
O45	O	1.230726	-0.113540	-0.000011
O46	O	1.639544	-0.099302	-0.000085
C47	C	1.539792	-0.330833	-0.000105
C48	C	1.428677	-0.359955	-0.000115
C49	C	1.318844	-0.338548	-0.000112
C50	C	1.427391	-0.410485	-0.000115
C51	C	1.537224	-0.431892	-0.000117
C52	C	1.648343	-0.402768	-0.000120
C53	C	1.649625	-0.352240	-0.000107
C54	C	1.207725	-0.367672	-0.000109
C55	C	1.206451	-0.418199	-0.000120
C56	C	1.316285	-0.439606	-0.000123
C57	C	1.651507	0.206319	-0.000066
C58	C	1.785986	0.218973	-0.000079
C59	C	1.419444	0.278026	-0.000094
C60	C	1.420833	0.331805	-0.000115
N61	N	1.375777	0.207393	0.344028
N62	N	1.484109	0.173742	-0.344146
C63	C	1.443101	0.186476	0.416236
C64	C	1.416774	0.194662	0.583650
H65	H	1.038583	0.236702	-0.000074
H66	H	1.119791	-0.290315	-0.000131
C67	C	0.807577	0.130532	-0.000042
H68	H	0.872314	0.110306	-0.000024
H69	H	0.772177	0.120019	-0.084354
H70	H	0.745634	0.128267	0.084290
H71	H	1.034746	0.122566	-0.000074
C72	C	1.547298	0.154094	0.332336
H73	H	1.586117	0.142030	0.399349
H74	H	1.606832	0.172913	0.272934
H75	H	1.513218	0.127355	0.272984
C76	C	1.588311	0.141358	0.571964
H77	H	1.627128	0.129294	0.638978
H78	H	1.647846	0.160176	0.512561
H79	H	1.554231	0.114619	0.512611
C80	C	1.312574	0.227045	0.667550
H81	H	1.308554	0.228302	0.769064
H82	H	1.235643	0.213630	0.642701
H83	H	1.329259	0.259186	0.642662
C84	C	0.838856	0.272468	-0.000108
H85	H	0.925339	0.274241	-0.000119
H86	H	0.798658	0.292207	0.084197
H87	H	0.825208	0.283955	-0.084447
C88	C	1.271561	0.239766	0.427927
H89	H	1.232726	0.251823	0.360915
H90	H	1.305610	0.266504	0.487300
H91	H	1.212031	0.220935	0.487309
H92	H	1.118283	-0.350248	-0.000110
H93	H	1.236153	-0.054034	-0.000002
H94	H	1.639372	0.051636	-0.000005
H95	H	1.637062	-0.040028	-0.000053
H96	H	1.743960	-0.176949	-0.000065
H97	H	1.741635	-0.268607	-0.000089
C98	C	1.655480	-0.556511	-0.000107
H99	H	1.720703	-0.576502	-0.000116
H100	H	1.647308	-0.532519	0.084205
H101	H	1.673855	-0.540761	-0.084439
H102	H	1.220507	-0.670495	-0.000097
C103	C	1.652778	-0.662626	-0.000143
H104	H	1.636089	-0.696891	-0.000160
H105	H	1.685132	-0.648647	0.084162
H106	H	1.711642	-0.656881	-0.084482
H107	H	1.222836	-0.578836	-0.000120
H108	H	1.122128	-0.198654	-0.000123
C109	C	1.207114	0.043758	-0.000027
H110	H	1.223805	0.078022	-0.000036
H111	H	1.148222	0.038012	0.084281
H112	H	1.174797	0.029775	-0.084363
C113	C	1.771865	-0.320213	-0.000110
H114	H	1.837086	-0.340206	-0.000126
H115	H	1.763699	-0.296222	0.084206
H116	H	1.790239	-0.304461	-0.084438
H117	H	1.737772	-0.420206	-0.000116
H118	H	1.115952	-0.441906	-0.000117
