data_functionalizedCrystal
_audit_creation_method	'MofGen! by Chris Wilmer'
_symmetry_space_group_name_H-M	'P1'
_symmetry_Int_Tables_number	1
_symmetry_cell_setting	triclinic
loop_
_symmetry_equiv_pos_as_xyz
  x,y,z
_cell_length_a	15.944545
_cell_length_b	14.044220
_cell_length_c	13.101039
_cell_angle_alpha	86.332523
_cell_angle_beta	86.641250
_cell_angle_gamma	91.657475
loop_
_atom_site_label
_atom_site_type_symbol
_atom_site_fract_x
_atom_site_fract_y
_atom_site_fract_z
O1	O	1.127909	-0.116989	-0.085240
O2	O	1.461242	0.216344	0.248093
O3	O	1.794576	0.549678	0.581427
O4	O	0.884488	-0.132068	-0.085238
O5	O	1.217821	0.201266	0.248096
O6	O	1.551154	0.534599	0.581429
O7	O	1.002544	0.013456	-0.085229
O8	O	1.335877	0.346789	0.248105
O9	O	1.669211	0.680122	0.581438
O10	O	1.009853	-0.262512	-0.085249
O11	O	1.343186	0.070821	0.248084
O12	O	1.676519	0.404154	0.581418
O13	O	0.994075	0.002997	0.085201
O14	O	1.327408	0.336331	0.418534
O15	O	1.660742	0.669664	0.751867
O16	O	0.876019	-0.142526	0.085192
O17	O	1.209352	0.190807	0.418525
O18	O	1.542685	0.524141	0.751858
O19	O	1.119440	-0.127448	0.085189
O20	O	1.452773	0.205886	0.418523
O21	O	1.786107	0.539219	0.751856
Zn22	Zn	0.996385	-0.136647	0.112250
Zn23	Zn	1.329718	0.196686	0.445583
Zn24	Zn	1.663051	0.530019	0.778916
Zn25	Zn	1.007543	-0.122868	-0.112298
Zn26	Zn	1.340876	0.210465	0.221035
Zn27	Zn	1.674210	0.543799	0.554369
O28	O	1.001384	-0.272971	0.085180
O29	O	1.334717	0.060362	0.418514
O30	O	1.668050	0.393696	0.751847
C31	C	0.848912	-0.136672	-0.000023
C32	C	1.182246	0.196661	0.333311
C33	C	1.515579	0.529995	0.666644
C34	C	0.755526	-0.134799	-0.000021
C35	C	1.088859	0.198535	0.333312
C36	C	1.422192	0.531868	0.666645
C37	C	1.155016	-0.122843	-0.000028
C38	C	1.488349	0.210490	0.333305
C39	C	1.821682	0.543824	0.666639
C40	C	1.248403	-0.124716	-0.000036
C41	C	1.581736	0.208617	0.333297
C42	C	1.915069	0.541951	0.666631
C43	C	0.995111	0.043541	-0.000014
C44	C	1.328444	0.376874	0.333320
C45	C	1.661778	0.710208	0.666653
C46	C	0.985569	0.148767	-0.000012
C47	C	1.318903	0.482100	0.333321
C48	C	1.652236	0.815434	0.666654
C49	C	1.526209	-0.220517	-0.000037
C50	C	1.859542	0.112817	0.333296
C51	C	2.192875	0.446150	0.666630
C52	C	1.467996	-0.179486	0.084000
C53	C	1.801330	0.153847	0.417334
C54	C	2.134663	0.487180	0.750667
C55	C	1.584546	-0.131398	-0.000024
C56	C	1.917879	0.201935	0.333309
C57	C	2.251213	0.535269	0.666642
C58	C	1.476356	-0.169151	-0.084029
C59	C	1.809690	0.164182	0.249304
C60	C	2.143023	0.497516	0.582637
C61	C	1.419387	-0.128120	-0.000032
C62	C	1.752721	0.205214	0.333301
C63	C	2.086054	0.538547	0.666635
C64	C	1.527560	-0.090396	0.084082
C65	C	1.860894	0.242937	0.417416
C66	C	2.194227	0.576271	0.750749
C67	C	1.535929	-0.080069	-0.084023
C68	C	1.869262	0.253264	0.249310
C69	C	2.202595	0.586598	0.582644
C70	C	1.477743	-0.038975	0.000035
C71	C	1.811076	0.294359	0.333368
C72	C	2.144410	0.627692	0.666702
C73	C	1.679690	-0.133289	-0.000019
C74	C	2.013023	0.200044	0.333314
C75	C	2.346356	0.533377	0.666648
C76	C	1.324246	-0.126222	-0.000030
C77	C	1.657579	0.207111	0.333304
C78	C	1.990913	0.540445	0.666637
C79	C	1.008817	-0.303056	-0.000037
C80	C	1.342150	0.030277	0.333296
C81	C	1.675484	0.363611	0.666630
C82	C	1.018359	-0.408282	-0.000045
C83	C	1.351692	-0.074948	0.333288
C84	C	1.685025	0.258385	0.666622
N85	N	0.988775	-0.146051	0.265498
N86	N	1.322109	0.187283	0.598831
N87	N	1.655442	0.520616	0.932164
C88	C	0.968127	0.341430	-0.000027
C89	C	1.301460	0.674763	0.333307
C90	C	1.634793	1.008097	0.666640
C91	C	1.035798	0.399061	-0.000031
C92	C	1.369131	0.732394	0.333303
C93	C	1.702464	1.065728	0.666636
C94	C	1.026092	0.506265	-0.000039
C95	C	1.359426	0.839599	0.333295
C96	C	1.692759	1.172932	0.666628
C97	C	0.977831	0.234216	-0.000019
C98	C	1.311164	0.567549	0.333315
C99	C	1.644497	0.900882	0.666648
N100	N	1.015158	-0.113457	-0.265546
N101	N	1.348492	0.219876	0.067787
N102	N	1.681825	0.553210	0.401121
C103	C	0.978423	-0.158853	0.474539
C104	C	1.311757	0.174480	0.807873
C105	C	1.645090	0.507813	1.141206
C106	C	1.025508	-0.100658	0.525419
C107	C	1.358841	0.232676	0.858752
C108	C	1.692175	0.566009	1.192085
C109	C	1.019748	-0.107781	0.641737
C110	C	1.353081	0.225552	0.975070
C111	C	1.686415	0.558886	1.308403
C112	C	0.984182	-0.151731	0.358211
C113	C	1.317516	0.181602	0.691544
C114	C	1.650849	0.514936	1.024878
H115	H	1.547601	-0.297273	0.000035
H116	H	1.880934	0.036060	0.333368
H117	H	2.214267	0.369393	0.666702
C118	C	1.123909	0.356954	-0.000009
C119	C	1.457242	0.690287	0.333325
C120	C	1.790576	1.023620	0.666658
H121	H	1.118960	0.289378	0.000008
H122	H	1.452293	0.622711	0.333342
H123	H	1.785626	0.956044	0.666675
H124	H	1.156526	0.381382	-0.059435
H125	H	1.489859	0.714715	0.273898
H126	H	1.823193	1.048048	0.607231
H127	H	1.150593	0.374109	0.059437
H128	H	1.483926	0.707443	0.392770
H129	H	1.817260	1.040776	0.726104
C130	C	1.445864	-0.214116	-0.180003
C131	C	1.779198	0.119217	0.153331
C132	C	2.112531	0.452550	0.486664
H133	H	1.416821	-0.168148	-0.219572
H134	H	1.750155	0.165185	0.113761
H135	H	2.083488	0.498519	0.447095
H136	H	1.492837	-0.234648	-0.219836
H137	H	1.826170	0.098685	0.113497
H138	H	2.159503	0.432018	0.446831
H139	H	1.409107	-0.267293	-0.159800
H140	H	1.742441	0.066040	0.173533
H141	H	2.075774	0.399373	0.506867
C142	C	0.918108	-0.233365	0.533695
C143	C	1.251441	0.099969	0.867029
C144	C	1.584775	0.433302	1.200362
H145	H	0.889311	-0.268935	0.486479
H146	H	1.222644	0.064398	0.819812
H147	H	1.555978	0.397732	1.153146
H148	H	0.949284	-0.275304	0.575557
H149	H	1.282617	0.058029	0.908891
H150	H	1.615951	0.391362	1.242224
H151	H	0.878500	-0.201810	0.575543
H152	H	1.211833	0.131523	0.908876
H153	H	1.545167	0.464857	1.242210
C154	C	0.880020	0.383536	-0.000018
C155	C	1.213353	0.716869	0.333316
C156	C	1.546687	1.050203	0.666649
H157	H	0.884974	0.451110	-0.000012
H158	H	1.218307	0.784444	0.333321
H159	H	1.551640	1.117777	0.666655
H160	H	0.853312	0.366388	-0.059443
H161	H	1.186645	0.699721	0.273890
H162	H	1.519978	1.033054	0.607224
H163	H	0.847422	0.359104	0.059429
H164	H	1.180755	0.692437	0.392763
H165	H	1.514089	1.025771	0.726096
H166	H	1.565580	-0.038100	-0.155066
H167	H	1.898914	0.295233	0.178267
H168	H	2.232247	0.628567	0.511600
H169	H	1.438355	-0.221484	0.155040
H170	H	1.771689	0.111850	0.488373
H171	H	2.105022	0.445183	0.821707
C172	C	1.085836	-0.026152	0.466258
C173	C	1.419169	0.307181	0.799591
C174	C	1.752503	0.640514	1.132925
H175	H	1.081860	-0.031092	0.394707
H176	H	1.415193	0.302241	0.728040
H177	H	1.748527	0.635574	1.061374
H178	H	1.071055	0.036044	0.483768
H179	H	1.404389	0.369377	0.817102
H180	H	1.737722	0.702710	1.150435
H181	H	1.141825	-0.037469	0.483787
H182	H	1.475158	0.295865	0.817120
H183	H	1.808492	0.629198	1.150454
H184	H	1.550023	-0.057147	0.155202
H185	H	1.883356	0.276186	0.488535
H186	H	2.216689	0.609519	0.821869
H187	H	1.456498	0.037832	0.000090
H188	H	1.789831	0.371166	0.333423
H189	H	2.123165	0.704499	0.666757
