data_functionalizedCrystal
_audit_creation_method	'MofGen! by Chris Wilmer'
_symmetry_space_group_name_H-M	'P1'
_symmetry_Int_Tables_number	1
_symmetry_cell_setting	triclinic
loop_
_symmetry_equiv_pos_as_xyz
  x,y,z
_cell_length_a	10.540535
_cell_length_b	14.971486
_cell_length_c	14.048226
_cell_angle_alpha	89.996377
_cell_angle_beta	90.008451
_cell_angle_gamma	84.068886
loop_
_atom_site_label
_atom_site_type_symbol
_atom_site_fract_x
_atom_site_fract_y
_atom_site_fract_z
O1	O	0.165426	1.187870	0.079054
O2	O	0.185235	0.927582	0.079080
O3	O	-0.009444	1.063666	0.079057
O4	O	0.360105	1.051786	0.079077
O5	O	-0.009460	1.063663	-0.079264
O6	O	0.185219	0.927579	-0.079241
O7	O	0.165410	1.187867	-0.079267
Zn8	Zn	0.175312	1.057723	-0.104391
Zn9	Zn	0.175333	1.057726	0.104204
O10	O	0.360089	1.051783	-0.079244
C11	C	0.184342	0.894250	-0.000077
C12	C	0.181687	0.794938	-0.000067
C13	C	-0.056745	1.062775	-0.000104
C14	C	-0.197663	1.060112	-0.000105
C15	C	0.296055	0.738356	-0.000062
C16	C	0.293553	0.645043	-0.000077
C17	C	0.176681	0.608313	-0.000089
C18	C	0.062304	0.664903	-0.000097
C19	C	0.064807	0.758214	-0.000090
C20	C	0.057094	0.470411	-0.000110
C21	C	0.054590	0.377093	-0.000116
C22	C	0.285840	0.357239	-0.000098
C23	C	0.288343	0.450551	-0.000090
C24	C	0.173965	0.507134	-0.000096
C25	C	-0.233206	0.960753	-0.000088
C26	C	-0.379775	0.957951	0.000288
C27	C	-0.407493	1.105469	0.090145
C28	C	-0.260752	1.107583	0.090204
C29	C	-0.260925	1.109025	-0.089844
C30	C	-0.407219	1.104430	-0.091012
C31	C	0.407390	1.052674	-0.000081
C32	C	0.548308	1.055337	-0.000074
C33	C	0.166304	1.221199	-0.000108
C34	C	0.168958	1.320511	-0.000111
N35	N	0.175338	1.057730	0.246565
N36	N	0.175297	1.057726	-0.246752
C37	C	0.089304	1.118102	0.296373
C38	C	0.089300	1.118106	0.396030
C39	C	0.175325	1.057732	0.445878
C40	C	0.261368	0.997356	0.396064
C41	C	0.261378	0.997358	0.296408
C42	C	0.261341	0.997356	0.603778
C43	C	0.261331	0.997354	0.703441
C44	C	0.089264	1.118105	0.703400
C45	C	0.089273	1.118106	0.603744
C46	C	0.175315	1.057729	0.553937
H47	H	0.391226	0.768253	-0.000052
H48	H	-0.028324	0.804284	-0.000093
Cl49	Cl	-0.424410	0.897414	-0.099537
H50	H	-0.040578	0.347191	-0.000128
Cl51	Cl	-0.086698	0.541543	-0.000120
H52	H	0.386684	0.598977	-0.000072
H53	H	-0.032856	0.634990	-0.000121
Cl54	Cl	0.429630	0.286107	-0.000092
H55	H	-0.190817	0.922597	-0.064780
Cl56	Cl	0.435271	0.496724	-0.000064
H57	H	-0.189308	0.923239	0.064522
Cl58	Cl	-0.423008	0.897726	0.100750
H59	H	-0.220181	1.073730	0.157910
Cl60	Cl	-0.450763	1.048107	-0.194066
H61	H	-0.238547	1.180421	0.094039
Cl62	Cl	-0.481858	1.216176	0.094929
H63	H	-0.239559	1.182126	-0.090731
Cl64	Cl	-0.018903	1.194004	0.766019
Cl65	Cl	-0.454573	1.052373	0.194226
Cl66	Cl	-0.484100	1.214198	-0.099820
Cl67	Cl	-0.194857	1.061153	-0.195466
Cl68	Cl	0.369545	0.921460	0.233793
Cl69	Cl	-0.018855	1.194002	0.233717
H70	H	0.019246	1.167266	0.436583
Cl71	Cl	-0.018880	1.193999	0.541076
H72	H	0.331383	0.948192	0.744022
Cl73	Cl	0.369515	0.921454	0.541166
Cl74	Cl	0.369522	0.921460	0.458728
