data_functionalizedCrystal
_audit_creation_method	'MofGen! by Chris Wilmer'
_symmetry_space_group_name_H-M	'P1'
_symmetry_Int_Tables_number	1
_symmetry_cell_setting	triclinic
loop_
_symmetry_equiv_pos_as_xyz
  x,y,z
_cell_length_a	9.065218
_cell_length_b	27.732048
_cell_length_c	7.540329
_cell_angle_alpha	89.991480
_cell_angle_beta	89.996962
_cell_angle_gamma	83.829270
loop_
_atom_site_label
_atom_site_type_symbol
_atom_site_fract_x
_atom_site_fract_y
_atom_site_fract_z
O1	O	1.955892	0.070866	-0.147510
O2	O	1.526237	0.076679	-0.147514
O3	O	1.754409	0.003467	-0.147478
O4	O	1.727721	0.144079	-0.147546
O5	O	1.754395	0.003466	0.147487
O6	O	1.526224	0.076678	0.147451
O7	O	1.955878	0.070866	0.147455
Cu8	Cu	1.741050	0.073772	0.174386
Cu9	Cu	1.741066	0.073773	-0.174444
O10	O	1.727707	0.144078	0.147419
C11	C	1.471280	0.076120	-0.000031
C12	C	1.307543	0.074450	-0.000032
C13	C	1.753842	-0.014544	0.000010
C14	C	1.752155	-0.068210	0.000024
C15	C	1.876369	-0.406178	-0.000066
C16	C	1.870110	-0.607880	-0.000090
O17	O	1.983695	-0.638360	-0.000167
N18	N	1.734814	-0.627927	-0.000090
C19	C	1.601073	-0.597545	-0.000095
O20	O	1.485852	-0.619225	-0.000114
C21	C	1.607334	-0.395844	-0.000083
C22	C	1.742639	-0.375800	-0.000065
C23	C	2.011663	-0.386133	-0.000050
C24	C	2.013226	-0.335710	-0.000034
C25	C	1.879496	-0.305332	-0.000034
C26	C	1.744202	-0.325377	-0.000050
C27	C	1.473594	-0.365463	-0.000101
C28	C	1.475171	-0.315035	-0.000103
C29	C	1.610476	-0.294991	-0.000085
C30	C	1.612034	-0.244577	-0.000034
N31	N	1.747331	-0.224529	-0.000034
C32	C	1.881061	-0.254907	-0.000034
C33	C	1.597796	-0.703442	-0.000098
C34	C	1.596230	-0.753867	-0.000098
C35	C	1.865268	-0.764198	-0.000096
C36	C	1.866832	-0.713772	-0.000084
C37	C	1.733092	-0.683395	-0.000098
C38	C	1.884334	-0.149016	0.000001
C39	C	1.885886	-0.098588	0.000024
C40	C	1.616849	-0.088262	0.000013
C41	C	1.615296	-0.138685	-0.000001
C42	C	1.749051	-0.169061	-0.000013
O43	O	1.498510	-0.214067	0.000023
O44	O	1.996266	-0.233218	-0.000055
C45	C	1.874806	-0.456600	-0.000082
C46	C	1.739512	-0.476645	-0.000097
C47	C	1.605781	-0.446267	-0.000097
C48	C	1.737946	-0.527070	-0.000097
C49	C	1.871677	-0.557448	-0.000097
C50	C	2.006973	-0.537401	-0.000098
C51	C	2.008537	-0.486978	-0.000082
C52	C	1.470485	-0.466314	-0.000097
C53	C	1.468933	-0.516737	-0.000111
C54	C	1.602663	-0.547115	-0.000111
C55	C	2.010836	0.071425	-0.000031
C56	C	2.174573	0.073095	-0.000042
C57	C	1.728274	0.162089	-0.000072
C58	C	1.729961	0.215755	-0.000098
N59	N	1.741050	0.073771	0.419734
N60	N	1.741078	0.073770	-0.419793
H61	H	1.993250	-0.173743	-0.000016
H62	H	2.120569	-0.410862	-0.000057
O63	O	2.017290	-0.079095	0.000346
C64	C	2.026233	-0.050236	0.153095
H65	H	1.949423	-0.062504	0.259868
H66	H	1.991288	-0.010629	0.118567
C67	C	2.281305	-0.040573	0.091219
C68	C	2.186975	-0.055644	0.222365
H69	H	2.380458	-0.043907	0.133945
H70	H	2.275279	-0.060015	-0.011695
H71	H	2.252166	-0.007569	0.062458
H72	H	2.216103	-0.088650	0.251108
H73	H	2.193009	-0.036209	0.325286
H74	H	2.123406	-0.319395	-0.000027
H75	H	1.358743	-0.533052	-0.000110
H76	H	1.361583	-0.441585	-0.000101
H77	H	1.977009	-0.697456	-0.000071
H78	H	1.363415	-0.381774	-0.000126
O79	O	1.995042	-0.793781	-0.000190
C80	C	1.964628	-0.842584	-0.000153
H81	H	1.848799	-0.845021	-0.055972
H82	H	1.970570	-0.857148	0.141352
C83	C	2.222108	-0.869935	-0.047300
C84	C	2.079849	-0.872929	-0.115873
H85	H	2.293185	-0.888654	-0.118674
H86	H	2.242600	-0.837056	-0.047319
H87	H	2.227039	-0.882071	0.070619
H88	H	2.074915	-0.860788	-0.233781
H89	H	2.059359	-0.905807	-0.115877
O90	O	1.467736	-0.674006	-0.000018
C91	C	1.348002	-0.702520	-0.000056
H92	H	1.386343	-0.739981	0.055780
H93	H	1.306474	-0.706289	-0.141563
C94	C	1.174425	-0.631961	0.047053
C95	C	1.221513	-0.677970	0.115646
H96	H	1.096397	-0.616817	0.118415
H97	H	1.255091	-0.612750	0.047072
H98	H	1.139828	-0.635109	-0.070868
H99	H	1.256125	-0.674821	0.233556
H100	H	1.140849	-0.697180	0.115649
H101	H	1.486052	-0.770182	-0.000082
O102	O	1.483960	-0.158217	-0.000238
C103	C	1.475000	-0.187053	-0.153044
H104	H	1.591560	-0.199088	-0.203976
H105	H	1.409226	-0.165061	-0.260006
C106	C	1.253446	-0.217221	-0.044117
C107	C	1.396608	-0.232006	-0.106664
H108	H	1.205084	-0.244948	-0.015513
H109	H	1.259478	-0.197792	0.058828
H110	H	1.198653	-0.198893	-0.133263
H111	H	1.451404	-0.250327	-0.017511
H112	H	1.390583	-0.251439	-0.209594
H113	H	1.366261	-0.290304	-0.000117
H114	H	2.118716	-0.470663	-0.000068
H115	H	2.115862	-0.562143	-0.000090
H116	H	1.507969	-0.063519	0.000020
