data_functionalizedCrystal
_audit_creation_method	'MofGen! by Chris Wilmer'
_symmetry_space_group_name_H-M	'P1'
_symmetry_Int_Tables_number	1
_symmetry_cell_setting	triclinic
loop_
_symmetry_equiv_pos_as_xyz
  x,y,z
_cell_length_a	16.109301
_cell_length_b	16.109304
_cell_length_c	15.186229
_cell_angle_alpha	90.000934
_cell_angle_beta	90.000638
_cell_angle_gamma	83.462059
loop_
_atom_site_label
_atom_site_type_symbol
_atom_site_fract_x
_atom_site_fract_y
_atom_site_fract_z
O1	O	-1.103132	-0.106866	-0.073167
O2	O	-0.603132	0.393134	0.426833
O3	O	-0.861070	-0.120165	-0.073181
O4	O	-0.361070	0.379835	0.426819
O5	O	-0.988749	0.007515	-0.073174
O6	O	-0.488749	0.507515	0.426826
O7	O	-0.975452	-0.234546	-0.073174
O8	O	-0.475452	0.265454	0.426826
O9	O	-0.988741	0.007517	0.073283
O10	O	-0.488741	0.507517	0.573283
O11	O	-0.861061	-0.120163	0.073277
O12	O	-0.361061	0.379837	0.573277
O13	O	-1.103123	-0.106864	0.073290
O14	O	-0.603123	0.393136	0.573290
Zn15	Zn	-0.982091	-0.113513	0.096537
Zn16	Zn	-0.482091	0.386487	0.596537
Zn17	Zn	-0.982102	-0.113516	-0.096427
Zn18	Zn	-0.482102	0.386484	0.403573
O19	O	-0.975444	-0.234545	0.073283
O20	O	-0.475444	0.265455	0.573283
C21	C	-0.830091	-0.119626	0.000046
C22	C	-0.330091	0.380374	0.500046
C23	C	-0.737795	-0.118010	0.000041
C24	C	-0.237795	0.381990	0.500041
C25	C	-0.988206	0.038491	0.000052
C26	C	-0.488206	0.538491	0.500052
C27	C	-0.986590	0.130786	0.000046
C28	C	-0.486590	0.630786	0.500046
C29	C	-0.975987	-0.265520	0.000055
C30	C	-0.475987	0.234480	0.500055
C31	C	-0.977603	-0.357816	0.000055
C32	C	-0.477603	0.142184	0.500055
C33	C	-1.134102	-0.107404	0.000061
C34	C	-0.634102	0.392596	0.500061
C35	C	-1.226398	-0.109019	0.000061
C36	C	-0.726398	0.390981	0.500061
C37	C	-0.515524	-0.190018	0.000051
C38	C	-0.015524	0.309982	0.500051
C39	C	-0.428803	-0.188494	0.000057
C40	C	0.071197	0.311506	0.500057
C41	C	-0.448676	-0.037005	0.000053
C42	C	0.051324	0.462995	0.500053
C43	C	-0.535395	-0.038530	0.000054
C44	C	-0.035395	0.461470	0.500054
C45	C	-0.568816	-0.115039	0.000048
C46	C	-0.068816	0.384961	0.500048
C47	C	-0.395377	-0.111990	0.000053
C48	C	0.104623	0.388010	0.500053
C49	C	-0.301351	-0.110337	0.000059
C50	C	0.198649	0.389663	0.500059
C51	C	-0.662848	-0.116693	0.000044
C52	C	-0.162848	0.383307	0.500044
N53	N	-0.982089	-0.113511	0.228229
N54	N	-0.482089	0.386489	0.728229
C55	C	-0.982861	0.343123	-0.079784
C56	C	-0.482861	0.843123	0.420216
C57	C	-0.981335	0.429843	-0.079784
C58	C	-0.481335	0.929843	0.420216
C59	C	-0.981330	0.429842	0.079892
C60	C	-0.481330	0.929842	0.579892
C61	C	-0.982850	0.343122	0.079890
C62	C	-0.482850	0.843122	0.579890
C63	C	-0.983620	0.299766	0.000050
C64	C	-0.483620	0.799766	0.500050
C65	C	-0.980573	0.473205	0.000052
C66	C	-0.480573	0.973205	0.500052
C67	C	-0.978919	0.567231	0.000053
C68	C	-0.478919	1.067231	0.500053
C69	C	-0.985273	0.205734	0.000048
C70	C	-0.485273	0.705734	0.500048
N71	N	-0.982110	-0.113511	-0.228120
N72	N	-0.482110	0.386489	0.271880
C73	C	-1.038645	-0.056993	0.453955
C74	C	-0.538645	0.443007	0.953955
C75	C	-1.038648	-0.056991	0.546145
C76	C	-0.538648	0.443009	1.046145
C77	C	-0.925549	-0.170032	0.546148
C78	C	-0.425549	0.329968	1.046148
C79	C	-0.925543	-0.170029	0.453960
C80	C	-0.425543	0.329971	0.953960
C81	C	-0.982096	-0.113511	0.407866
C82	C	-0.482096	0.386489	0.907866
C83	C	-0.982104	-0.113512	0.592243
C84	C	-0.482104	0.386488	1.092243
C85	C	-0.982107	-0.113510	0.692200
C86	C	-0.482107	0.386490	1.192200
C87	C	-0.982092	-0.113511	0.307903
C88	C	-0.482092	0.386489	0.807903
H89	H	-0.385416	-0.249550	0.000061
H90	H	0.114584	0.250450	0.500061
C91	C	-1.055980	0.254951	-0.172430
C92	C	-0.555980	0.754951	0.327570
C93	C	-0.983683	0.295454	-0.167540
C94	C	-0.483683	0.795454	0.332460
H95	H	-1.056481	0.225526	-0.226610
H96	H	-0.556481	0.725526	0.273390
H97	H	-1.056649	0.216725	-0.124886
H98	H	-0.556649	0.716725	0.375114
H99	H	-1.103839	0.295139	-0.169126
H100	H	-0.603839	0.795139	0.330874
H101	H	-0.935823	0.255265	-0.170837
H102	H	-0.435823	0.755265	0.329163
H103	H	-0.983006	0.333683	-0.215097
H104	H	-0.483006	0.833683	0.284903
H105	H	-0.879489	-0.216053	0.416432
H106	H	-0.379489	0.283947	0.916432
H107	H	-0.578788	0.022530	0.000054
H108	H	-0.078788	0.522530	0.500054
C109	C	-0.324566	0.032597	0.000041
C110	C	0.175434	0.532597	0.500041
C111	C	-0.411936	0.047090	0.000047
C112	C	0.088064	0.547090	0.500047
H113	H	-0.301887	0.084516	0.000030
H114	H	0.198113	0.584516	0.500030
H115	H	-0.306275	0.001736	0.051112
H116	H	0.193725	0.501736	0.551112
H117	H	-0.306282	0.001721	-0.051034
H118	H	0.193718	0.501721	0.448966
H119	H	-0.430220	0.077961	0.051126
H120	H	0.069780	0.577961	0.551126
H121	H	-0.430235	0.077965	-0.051029
H122	H	0.069765	0.577965	0.448971
C123	C	-0.601509	-0.279627	-0.075240
C124	C	-0.101509	0.220373	0.424760
C125	C	-0.552259	-0.274116	0.000050
C126	C	-0.052259	0.225884	0.500050
H127	H	-0.624180	-0.331550	-0.075241
H128	H	-0.124180	0.168450	0.424759
H129	H	-0.645659	-0.235198	-0.075236
H130	H	-0.145659	0.264802	0.424764
H131	H	-0.568083	-0.275882	-0.126306
H132	H	-0.068083	0.224118	0.373694
H133	H	-0.585687	-0.277854	0.051116
H134	H	-0.085687	0.222146	0.551116
H135	H	-0.508103	-0.318557	0.000054
H136	H	-0.008103	0.181443	0.500054
H137	H	-1.084694	-0.010969	0.583668
H138	H	-0.584694	0.489031	1.083668
C139	C	-0.781613	-0.218806	0.574551
C140	C	-0.281613	0.281194	1.074551
C141	C	-0.863391	-0.232155	0.596821
C142	C	-0.363391	0.267845	1.096821
H143	H	-0.743241	-0.257157	0.605840
H144	H	-0.243241	0.242843	1.105840
H145	H	-0.773519	-0.226898	0.513060
H146	H	-0.273519	0.273102	1.013060
H147	H	-0.772615	-0.163312	0.589667
H148	H	-0.272615	0.336688	1.089667
H149	H	-0.872391	-0.287648	0.581700
H150	H	-0.372391	0.212352	1.081700
H151	H	-0.871488	-0.224070	0.658327
H152	H	-0.371488	0.275930	1.158327
C153	C	-0.981503	0.421129	-0.237614
C154	C	-0.481503	0.921129	0.262386
C155	C	-0.980505	0.477501	-0.167540
C156	C	-0.480505	0.977501	0.332460
H157	H	-0.980994	0.450553	-0.291792
H158	H	-0.480994	0.950553	0.208208
H159	H	-0.933646	0.380952	-0.234296
H160	H	-0.433646	0.880952	0.265704
H161	H	-1.030555	0.393660	-0.234283
H162	H	-0.530555	0.893660	0.265717
H163	H	-0.931450	0.504966	-0.170867
H164	H	-0.431450	1.004966	0.329133
H165	H	-1.028367	0.517693	-0.170860
H166	H	-0.528367	1.017693	0.329140
C167	C	-0.979014	0.562779	0.150795
C168	C	-0.479014	1.062779	0.650795
C169	C	-0.980500	0.477505	0.167650
C170	C	-0.480500	0.977505	0.667650
H171	H	-0.978510	0.592202	0.204976
H172	H	-0.478510	1.092202	0.704976
H173	H	-0.930312	0.570637	0.118003
H174	H	-0.430312	1.070637	0.618003
H175	H	-1.027221	0.583332	0.117986
H176	H	-0.527221	1.083332	0.617986
H177	H	-0.932289	0.456950	0.200453
H178	H	-0.432289	0.956950	0.700453
H179	H	-1.029207	0.469642	0.200456
H180	H	-0.529207	0.969642	0.700456
H181	H	-0.983463	0.307820	0.144905
H182	H	-0.483463	0.807820	0.644905
H183	H	-1.084693	-0.010972	0.416427
H184	H	-0.584693	0.489028	0.916427
