data_functionalizedCrystal
_audit_creation_method	'MofGen! by Chris Wilmer'
_symmetry_space_group_name_H-M	'P1'
_symmetry_Int_Tables_number	1
_symmetry_cell_setting	triclinic
loop_
_symmetry_equiv_pos_as_xyz
  x,y,z
_cell_length_a	16.974800
_cell_length_b	10.723024
_cell_length_c	16.053934
_cell_angle_alpha	87.401588
_cell_angle_beta	83.785353
_cell_angle_gamma	96.072215
loop_
_atom_site_label
_atom_site_type_symbol
_atom_site_fract_x
_atom_site_fract_y
_atom_site_fract_z
O1	O	1.050084	-0.158832	-0.001550
O2	O	0.819246	-0.180290	0.014054
O3	O	0.939990	0.012124	0.005888
O4	O	0.929340	-0.351246	0.006616
O5	O	0.946600	0.022678	-0.133416
O6	O	0.825856	-0.169736	-0.125249
O7	O	1.056694	-0.148278	-0.140854
Zn8	Zn	0.942324	-0.157331	-0.155169
Zn9	Zn	0.933616	-0.171237	0.028369
O10	O	0.935950	-0.340692	-0.132687
C11	C	0.792993	-0.174396	-0.053599
C12	C	0.704921	-0.172544	-0.047646
C13	C	0.667152	-0.165917	-0.120785
C14	C	0.584401	-0.164156	-0.115194
C15	C	0.539419	-0.169031	-0.036462
C16	C	0.577193	-0.175654	0.036683
C17	C	0.659944	-0.177406	0.031090
C18	C	0.291544	-0.164400	-0.011594
C19	C	0.208787	-0.162651	-0.006007
C20	C	0.216001	-0.151151	-0.157884
C21	C	0.298752	-0.152911	-0.163469
C22	C	0.336520	-0.159527	-0.090325
N23	N	0.454833	-0.167235	-0.030745
N24	N	0.421105	-0.161314	-0.096043
C25	C	0.942520	0.063885	-0.063711
C26	C	0.940201	0.202392	-0.063552
C27	C	1.007763	0.278751	-0.068119
C28	C	1.005368	0.421906	-0.067955
C29	C	1.082947	-0.154172	-0.073198
C30	C	1.171019	-0.156025	-0.079146
N31	N	0.948274	-0.147840	-0.280429
C32	C	0.933420	0.607547	-0.063088
C33	C	0.935739	0.469041	-0.063247
C34	C	0.896887	-0.229682	-0.320668
C35	C	0.901071	-0.223038	-0.408356
C36	C	0.956640	-0.134544	-0.455804
C37	C	1.008032	-0.052698	-0.415559
C38	C	1.003851	-0.059349	-0.327873
C39	C	0.974884	-0.105523	-0.718440
C40	C	0.979060	-0.098875	-0.806132
C41	C	0.872099	-0.269218	-0.798923
C42	C	0.867919	-0.275857	-0.711235
C43	C	0.919315	-0.194015	-0.670998
N44	N	0.960917	-0.127747	-0.545435
N45	N	0.915041	-0.200818	-0.581369
N46	N	0.927673	-0.180718	0.153629
H47	H	0.540563	-0.179615	0.100788
H48	H	0.822671	-0.347915	-0.672605
O49	O	1.078942	0.230480	-0.073039
C50	C	1.206379	0.222098	-0.153610
C51	C	1.125806	0.276873	-0.148137
H52	H	1.244285	0.259564	-0.214330
H53	H	1.238856	0.250822	-0.097732
H54	H	1.195620	0.115272	-0.152841
H55	H	1.136494	0.383702	-0.148930
H56	H	1.093355	0.248050	-0.204011
O57	O	0.179435	-0.144762	-0.229015
C58	C	0.195332	-0.133446	-0.380246
C59	C	0.236840	-0.140715	-0.299754
H60	H	0.241727	-0.130145	-0.437459
H61	H	0.150004	-0.219671	-0.381028
H62	H	0.163535	-0.045042	-0.381836
H63	H	0.268681	-0.229066	-0.298110
H64	H	0.282124	-0.054429	-0.299004
H65	H	1.063206	0.487518	-0.071868
O66	O	0.851120	-0.302359	-0.447530
C67	C	0.747618	-0.322060	-0.539198
C68	C	0.804161	-0.232080	-0.494901
H69	H	0.709626	-0.265275	-0.577494
H70	H	0.784112	-0.381067	-0.582630
H71	H	0.707218	-0.386467	-0.490207
H72	H	0.844573	-0.167594	-0.543833
H73	H	0.767619	-0.173160	-0.451453
H74	H	0.880586	0.242999	-0.059517
O75	O	0.822069	-0.348597	-0.837967
C76	C	0.685822	-0.420555	-0.855495
C77	C	0.742391	-0.330566	-0.811235
H78	H	0.621390	-0.406027	-0.833886
H79	H	0.698285	-0.400604	-0.926321
H80	H	0.695918	-0.521731	-0.838999
H81	H	0.732328	-0.229358	-0.827663
H82	H	0.729915	-0.350626	-0.740419
H83	H	0.851634	-0.301738	-0.282041
O84	O	1.033104	-0.012856	-0.852099
C85	C	1.138700	0.155482	-0.849997
C86	C	1.077559	0.058100	-0.797840
H87	H	1.174647	0.212893	-0.806150
H88	H	1.180627	0.105043	-0.893731
H89	H	1.106043	0.220663	-0.888729
H90	H	1.110149	-0.007109	-0.759058
H91	H	1.035634	0.108620	-0.754159
H92	H	0.172164	-0.166625	0.058109
H93	H	1.016730	-0.038882	-0.685686
O94	O	1.061942	0.033228	-0.461771
C95	C	1.115817	0.118925	-0.600050
C96	C	1.054716	0.021570	-0.547819
H97	H	1.110007	0.109515	-0.669630
H98	H	1.104123	0.217530	-0.582138
H99	H	1.178603	0.101744	-0.587044
H100	H	0.991906	0.038633	-0.560798
H101	H	1.066480	-0.077002	-0.565740
H102	H	0.703770	-0.161957	-0.184897
O103	O	0.547834	-0.157778	-0.186324
C104	C	0.563726	-0.146497	-0.337555
C105	C	0.605236	-0.153747	-0.257063
H106	H	0.610119	-0.143209	-0.394768
H107	H	0.518397	-0.232723	-0.338327
H108	H	0.531930	-0.058092	-0.339154
H109	H	0.637077	-0.242097	-0.255412
H110	H	0.650521	-0.067459	-0.256323
O111	O	0.342541	-0.148001	-0.239905
C112	C	0.448518	-0.035154	-0.334954
C113	C	0.399003	-0.040575	-0.248355
H114	H	0.494168	0.051706	-0.341820
H115	H	0.480712	-0.122943	-0.340930
H116	H	0.407284	-0.030173	-0.386250
H117	H	0.440181	-0.045514	-0.197008
H118	H	0.366800	0.047212	-0.242452
O119	O	1.053802	0.020286	-0.288913
C120	C	1.160366	0.189891	-0.305314
C121	C	1.103827	0.099804	-0.349540
H122	H	1.200836	0.254187	-0.354311
H123	H	1.123870	0.248998	-0.261957
H124	H	1.198287	0.133111	-0.266926
H125	H	1.065894	0.156486	-0.387973
H126	H	1.140369	0.040695	-0.392847
O127	O	0.328281	-0.170618	0.059429
C128	C	0.425961	-0.071223	0.140666
C129	C	0.384401	-0.064005	0.060207
H130	H	0.471355	0.014948	0.141314
H131	H	0.379638	-0.074337	0.197929
H132	H	0.457697	-0.159687	0.142294
H133	H	0.352667	0.024450	0.058497
H134	H	0.430760	-0.060961	0.002981
H135	H	0.690693	-0.182805	0.090648
H136	H	0.877898	0.403437	-0.059343
