data_functionalizedCrystal
_audit_creation_method	'MofGen! by Chris Wilmer'
_symmetry_space_group_name_H-M	'P1'
_symmetry_Int_Tables_number	1
_symmetry_cell_setting	triclinic
loop_
_symmetry_equiv_pos_as_xyz
  x,y,z
_cell_length_a	12.759401
_cell_length_b	12.759399
_cell_length_c	12.759393
_cell_angle_alpha	89.973012
_cell_angle_beta	89.977503
_cell_angle_gamma	90.015165
loop_
_atom_site_label
_atom_site_type_symbol
_atom_site_fract_x
_atom_site_fract_y
_atom_site_fract_z
Zn1	Zn	-1.606269	0.418192	0.594089
Zn2	Zn	-1.106269	0.918192	1.094089
Zn3	Zn	-1.606161	0.593908	0.418420
Zn4	Zn	-1.106161	1.093908	0.918420
Zn5	Zn	-1.430568	0.418246	0.418420
Zn6	Zn	-0.930568	0.918246	0.918420
Zn7	Zn	-1.430561	0.593832	0.594053
Zn8	Zn	-0.930561	1.093832	1.094053
O9	O	-1.518390	0.506045	0.506246
O10	O	-1.018390	1.006045	1.006246
O11	O	-1.753276	0.441511	0.570802
O12	O	-1.253276	0.941511	1.070802
O13	O	-1.582826	0.570660	0.271399
O14	O	-1.082826	1.070660	0.771399
O15	O	-1.453923	0.271218	0.441738
O16	O	-0.953923	0.771218	0.941738
O17	O	-1.753196	0.570608	0.441739
O18	O	-1.253196	1.070608	0.941739
O19	O	-1.583010	0.271178	0.570802
O20	O	-1.083010	0.771178	1.070802
O21	O	-1.453818	0.441602	0.271399
O22	O	-0.953818	0.941602	0.771399
O23	O	-1.283546	0.441529	0.441702
O24	O	-0.783546	0.941529	0.941702
O25	O	-1.453911	0.570479	0.741079
O26	O	-0.953911	1.070479	1.241079
O27	O	-1.283541	0.570531	0.570739
O28	O	-0.783541	1.070531	1.070739
O29	O	-1.583003	0.441437	0.741106
O30	O	-1.083003	0.941437	1.241106
O31	O	-1.582819	0.740919	0.441703
O32	O	-1.082819	1.240919	0.941703
O33	O	-1.453806	0.740863	0.570740
O34	O	-0.953806	1.240863	1.070740
C35	C	-1.245422	0.506029	0.506217
C36	C	-0.745422	1.006029	1.006217
C37	C	-1.128646	0.506047	0.506230
C38	C	-0.628646	1.006047	1.006230
C39	C	-1.518329	0.779012	0.506240
C40	C	-1.018329	1.279012	1.006240
C41	C	-1.518399	0.895789	0.506273
C42	C	-1.018399	1.395789	1.006273
C43	C	-1.073809	0.573320	0.573312
C44	C	-0.573809	1.073320	1.073312
C45	C	-0.964084	0.573323	0.573330
C46	C	-0.464084	1.073323	1.073330
C47	C	-0.964044	0.438776	0.439175
C48	C	-0.464044	0.938776	0.939175
C49	C	-1.073766	0.438769	0.439163
C50	C	-0.573766	0.938769	0.939163
C51	C	-0.792423	0.506059	0.506268
C52	C	-0.292423	1.006059	1.006268
C53	C	-0.909200	0.506057	0.506260
C54	C	-0.409200	1.006057	1.006260
C55	C	-1.585715	1.060376	0.439202
C56	C	-1.085715	1.560376	0.939202
C57	C	-1.585652	0.950652	0.439162
C58	C	-1.085652	1.450652	0.939162
C59	C	-1.451198	0.950655	0.573421
C60	C	-0.951198	1.450655	1.073421
C61	C	-1.451257	1.060377	0.573454
C62	C	-0.951257	1.560377	1.073454
C63	C	-1.518468	0.505944	0.780279
C64	C	-1.018468	1.005944	1.280279
C65	C	-1.518502	0.505901	0.897056
C66	C	-1.018502	1.005901	1.397056
C67	C	-1.518480	1.232011	0.506289
C68	C	-1.018480	1.732011	1.006289
C69	C	-1.518521	1.115235	0.506346
C70	C	-1.018521	1.615235	1.006346
C71	C	-1.518372	0.506069	0.233278
C72	C	-1.018372	1.006069	0.733278
C73	C	-1.518542	0.505816	0.116502
C74	C	-1.018542	1.005816	0.616502
C75	C	-1.585725	0.438698	0.951933
C76	C	-1.085725	0.938698	1.451933
C77	C	-1.585743	0.438653	1.061658
C78	C	-1.085743	0.938653	1.561658
C79	C	-1.451311	0.573022	1.061617
C80	C	-0.951311	1.073022	1.561617
C81	C	-1.451289	0.573061	0.951895
C82	C	-0.951289	1.073061	1.451895
H83	H	-1.118488	0.628099	0.627925
H84	H	-0.618488	1.128099	1.127925
C85	C	-1.134091	0.364760	0.365363
C86	C	-0.634091	0.864760	0.865363
N87	N	-1.179527	0.309017	0.309781
N88	N	-0.679527	0.809017	0.809781
H89	H	-1.640481	0.383928	1.106334
H90	H	-1.140481	0.883928	1.606334
C91	C	-1.377219	0.890302	0.647244
C92	C	-0.877219	1.390302	1.147244
N93	N	-1.321501	0.844845	0.702854
N94	N	-0.821501	1.344845	1.202854
H95	H	-0.919441	0.628102	0.627957
H96	H	-0.419441	1.128102	1.127957
C97	C	-1.659564	0.890312	0.365291
C98	C	-1.159564	1.390312	0.865291
N99	N	-1.715234	0.844864	0.309644
N100	N	-1.215234	1.344864	0.809644
H101	H	-1.396591	0.627704	1.106280
H102	H	-0.896591	1.127704	1.606280
C103	C	-1.659652	0.364810	0.891615
C104	C	-1.159652	0.864810	1.391615
N105	N	-1.715332	0.309152	0.846186
N106	N	-1.215332	0.809152	1.346186
C107	C	-1.377331	0.646990	0.891526
C108	C	-0.877331	1.146990	1.391526
N109	N	-1.321625	0.702669	0.846056
N110	N	-0.821625	1.202669	1.346056
H111	H	-0.919348	0.384003	0.384569
H112	H	-0.419348	0.884003	0.884569
C113	C	-1.377333	1.120726	0.647321
C114	C	-0.877333	1.620726	1.147321
N115	N	-1.321654	1.166180	0.702954
N116	N	-0.821654	1.666180	1.202954
C117	C	-1.659700	1.120715	0.365372
C118	C	-1.159700	1.620715	0.865372
N119	N	-1.715423	1.166159	0.309758
N120	N	-1.215423	1.666159	0.809758
