data_functionalizedCrystal
_audit_creation_method	'MofGen! by Chris Wilmer'
_symmetry_space_group_name_H-M	'P1'
_symmetry_Int_Tables_number	1
_symmetry_cell_setting	triclinic
loop_
_symmetry_equiv_pos_as_xyz
  x,y,z
_cell_length_a	6.817900
_cell_length_b	16.417825
_cell_length_c	16.417824
_cell_angle_alpha	95.406652
_cell_angle_beta	103.385545
_cell_angle_gamma	103.385495
loop_
_atom_site_label
_atom_site_type_symbol
_atom_site_fract_x
_atom_site_fract_y
_atom_site_fract_z
V1	V	-4.025030	-0.116569	-0.261448
O2	O	-4.013072	0.004899	-0.256169
O3	O	-3.976083	-0.230461	-0.259951
O4	O	-3.976092	-0.115084	-0.375342
O5	O	-4.013063	-0.111276	-0.139979
V6	V	-4.508799	-0.102004	-0.246884
O7	O	-4.285750	-0.148519	-0.293396
O8	O	-4.698277	-0.070053	-0.214937
O9	O	-4.334540	0.011888	-0.248382
O10	O	-4.638155	-0.223472	-0.252163
O11	O	-4.638163	-0.107296	-0.368354
O12	O	-4.334531	-0.103488	-0.132990
C13	C	-3.820968	-0.258216	-0.255901
C14	C	-3.862231	-0.351326	-0.255436
C15	C	-3.917384	-0.553386	-0.177647
C16	C	-3.956178	-0.640875	-0.177217
C17	C	-4.035825	-0.665186	-0.330694
C18	C	-3.997046	-0.577700	-0.331124
C19	C	-3.937815	-0.521802	-0.254598
C20	C	-4.015388	-0.696776	-0.253738
C21	C	-4.057450	-0.791635	-0.253271
C22	C	-3.895754	-0.426937	-0.255064
C23	C	-3.820978	-0.111040	-0.403094
C24	C	-3.862245	-0.110580	-0.496205
C25	C	-3.997043	-0.186241	-0.722581
C26	C	-4.035832	-0.185802	-0.810068
C27	C	-3.956161	-0.032325	-0.785740
C28	C	-3.917387	-0.032764	-0.698255
C29	C	-3.937820	-0.109724	-0.666678
C30	C	-4.015383	-0.108847	-0.841650
C31	C	-4.057440	-0.108371	-0.936507
C32	C	-3.895764	-0.110200	-0.571814
C33	C	-4.152996	0.039639	-0.252429
C34	C	-4.090971	0.132748	-0.252900
C35	C	-4.152987	-0.107535	-0.105234
C36	C	-4.090958	-0.107991	-0.012123
H37	H	-4.013697	-0.551985	-0.393791
O38	O	-4.093271	-0.719602	-0.404949
C39	C	-4.188415	-0.865156	-0.472310
C40	C	-4.123335	-0.803627	-0.388153
H41	H	-4.212783	-0.933105	-0.458760
H42	H	-4.060638	-0.850729	-0.507026
H43	H	-4.340161	-0.857182	-0.513456
H44	H	-3.971637	-0.811567	-0.346941
H45	H	-4.251239	-0.818072	-0.353503
O46	O	-4.093609	-0.260191	-0.864294
C47	C	-4.346672	-0.395197	-0.915945
C48	C	-4.281451	-0.310992	-0.854480
H49	H	-4.498570	-0.436285	-0.908045
H50	H	-4.219019	-0.429967	-0.901457
H51	H	-4.370775	-0.381645	-0.983889
H52	H	-4.257374	-0.324469	-0.786515
H53	H	-4.409136	-0.276247	-0.869042
H54	H	-4.013684	-0.248907	-0.696874
H55	H	-3.869166	0.029549	-0.652736
O56	O	-3.936637	0.042370	-0.816526
C57	C	-4.107251	0.127973	-0.905208
C58	C	-4.129644	0.043338	-0.870423
H59	H	-4.263283	0.128791	-0.948776
H60	H	-3.983738	0.135240	-0.942332
H61	H	-4.058168	0.182577	-0.850209
H62	H	-4.178796	-0.011316	-0.925371
H63	H	-4.253101	0.036145	-0.833273
O64	O	-3.860238	-0.499128	-0.103301
C65	C	-3.953334	-0.455679	0.023772
C66	C	-4.018315	-0.517165	-0.060409
H67	H	-4.081085	-0.470251	0.058483
H68	H	-3.929227	-0.387710	0.010294
H69	H	-3.801488	-0.463595	0.064891
H70	H	-4.170190	-0.509325	-0.101569
H71	H	-4.042282	-0.585110	-0.046869
H72	H	-3.939540	-0.666586	-0.114556
