data_functionalizedCrystal
_audit_creation_method	'MofGen! by Chris Wilmer'
_symmetry_space_group_name_H-M	'P1'
_symmetry_Int_Tables_number	1
_symmetry_cell_setting	triclinic
loop_
_symmetry_equiv_pos_as_xyz
  x,y,z
_cell_length_a	25.639239
_cell_length_b	16.625548
_cell_length_c	25.639243
_cell_angle_alpha	89.989046
_cell_angle_beta	90.014050
_cell_angle_gamma	89.960246
loop_
_atom_site_label
_atom_site_type_symbol
_atom_site_fract_x
_atom_site_fract_y
_atom_site_fract_z
Zn1	Zn	-0.208224	-1.232513	0.295620
Zn2	Zn	0.125110	-0.899180	0.628953
Zn3	Zn	0.458443	-0.565846	0.962286
Zn4	Zn	-0.295635	-1.232401	0.208184
Zn5	Zn	0.037698	-0.899067	0.541517
Zn6	Zn	0.371031	-0.565734	0.874851
Zn7	Zn	-0.208217	-1.097697	0.208197
Zn8	Zn	0.125116	-0.764364	0.541530
Zn9	Zn	0.458449	-0.431031	0.874864
Zn10	Zn	-0.295632	-1.097607	0.295587
Zn11	Zn	0.037702	-0.764274	0.628921
Zn12	Zn	0.371035	-0.430940	0.962254
O13	O	-0.251927	-1.165055	0.251897
O14	O	0.081406	-0.831721	0.585230
O15	O	0.414740	-0.498388	0.918564
O16	O	-0.219823	-1.345330	0.284029
O17	O	0.113510	-1.011997	0.617362
O18	O	0.446843	-0.678664	0.950696
O19	O	-0.284038	-1.214523	0.135021
O20	O	0.049295	-0.881190	0.468354
O21	O	0.382629	-0.547856	0.801687
O22	O	-0.135053	-1.115666	0.219813
O23	O	0.198280	-0.782333	0.553146
O24	O	0.531614	-0.448999	0.886480
O25	O	-0.284044	-1.345248	0.219791
O26	O	0.049289	-1.011915	0.553124
O27	O	0.382622	-0.678581	0.886457
O28	O	-0.135058	-1.214714	0.284042
O29	O	0.198276	-0.881381	0.617375
O30	O	0.531609	-0.548048	0.950709
O31	O	-0.219813	-1.115557	0.135030
O32	O	0.113521	-0.782224	0.468364
O33	O	0.446854	-0.448890	0.801697
O34	O	-0.219809	-0.984853	0.219782
O35	O	0.113524	-0.651520	0.553115
O36	O	0.446858	-0.318186	0.886448
O37	O	-0.284038	-1.115512	0.368757
O38	O	0.049295	-0.782178	0.702090
O39	O	0.382629	-0.448845	1.035423
O40	O	-0.284032	-0.984787	0.283987
O41	O	0.049302	-0.651453	0.617320
O42	O	0.382635	-0.318120	0.950653
O43	O	-0.219820	-1.214627	0.368780
O44	O	0.113514	-0.881293	0.702114
O45	O	0.446847	-0.547960	1.035447
O46	O	-0.368800	-1.214435	0.219759
O47	O	-0.035467	-0.881102	0.553092
O48	O	0.297867	-0.547769	0.886426
O49	O	-0.368797	-1.115403	0.283974
O50	O	-0.035464	-0.782070	0.617307
O51	O	0.297869	-0.448736	0.950641
C52	C	-0.387770	-1.164919	0.251873
C53	C	-0.054436	-0.831586	0.585206
C54	C	0.278897	-0.498252	0.918540
C55	C	-0.445884	-1.164935	0.251880
C56	C	-0.112550	-0.831601	0.585214
C57	C	0.220783	-0.498268	0.918547
C58	C	-0.251920	-0.955564	0.251882
C59	C	0.081414	-0.622230	0.585216
C60	C	0.414747	-0.288897	0.918549
C61	C	-0.251929	-0.865943	0.251889
C62	C	0.081404	-0.532609	0.585222
C63	C	0.414738	-0.199276	0.918555
C64	C	-0.251929	-1.165072	0.388270
C65	C	0.081404	-0.831738	0.721603
C66	C	0.414738	-0.498405	1.054937
C67	C	-0.251930	-1.165079	0.446384
C68	C	0.081403	-0.831746	0.779717
C69	C	0.414737	-0.498412	1.113051
C70	C	-0.806236	-1.216755	0.218517
C71	C	-0.472902	-0.883422	0.551851
C72	C	-0.139569	-0.550089	0.885184
C73	C	-0.860840	-1.216786	0.218524
C74	C	-0.527507	-0.883453	0.551858
C75	C	-0.194173	-0.550120	0.885191
O76	O	-0.889067	-1.260705	0.190132
O77	O	-0.555734	-0.927372	0.523465
O78	O	-0.222400	-0.594039	0.856798
N79	N	-0.888166	-1.165196	0.251932
N80	N	-0.554833	-0.831863	0.585265
N81	N	-0.221499	-0.498530	0.918598
C82	C	-0.860885	-1.113577	0.285338
C83	C	-0.527552	-0.780244	0.618671
C84	C	-0.194218	-0.446911	0.952005
O85	O	-0.889142	-1.069699	0.313754
O86	O	-0.555809	-0.736366	0.647088
O87	O	-0.222476	-0.403033	0.980421
C88	C	-0.806282	-1.113551	0.285333
C89	C	-0.472949	-0.780217	0.618666
C90	C	-0.139615	-0.446884	0.952000
C91	C	-0.778958	-1.165138	0.251920
C92	C	-0.445625	-0.831805	0.585253
C93	C	-0.112292	-0.498472	0.918587
C94	C	-0.778912	-1.268339	0.185107
C95	C	-0.445579	-0.935006	0.518441
C96	C	-0.112245	-0.601673	0.851774
C97	C	-0.724312	-1.268307	0.185100
C98	C	-0.390978	-0.934974	0.518433
C99	C	-0.057645	-0.601640	0.851766
C100	C	-0.697034	-1.216690	0.218502
C101	C	-0.363701	-0.883357	0.551836
C102	C	-0.030368	-0.550024	0.885169
C103	C	-0.724358	-1.165106	0.251912
C104	C	-0.391025	-0.831773	0.585246
C105	C	-0.057691	-0.498439	0.918579
C106	C	-0.779002	-1.061936	0.318742
C107	C	-0.445669	-0.728603	0.652075
C108	C	-0.112335	-0.395270	0.985408
C109	C	-0.724395	-1.061915	0.318734
C110	C	-0.391062	-0.728581	0.652068
C111	C	-0.057728	-0.395248	0.985401
C112	C	-0.697072	-1.113502	0.285321
C113	C	-0.363738	-0.780169	0.618654
C114	C	-0.030405	-0.446836	0.951988
C115	C	-0.642480	-1.113457	0.285307
C116	C	-0.309147	-0.780123	0.618641
C117	C	0.024186	-0.446790	0.951974
N118	N	-0.615154	-1.165047	0.251900
N119	N	-0.281821	-0.831714	0.585233
N120	N	0.051513	-0.498380	0.918567
C121	C	-0.642431	-1.216664	0.218497
C122	C	-0.309098	-0.883330	0.551831
C123	C	0.024235	-0.549997	0.885164
C124	C	-0.975556	-1.113638	0.285346
C125	C	-0.642222	-0.780305	0.618679
C126	C	-0.308889	-0.446971	0.952013
C127	C	-1.030158	-1.113660	0.285348
C128	C	-0.696825	-0.780327	0.618682
C129	C	-0.363491	-0.446993	0.952015
C130	C	-1.030109	-1.216870	0.218535
C131	C	-0.696776	-0.883537	0.551869
C132	C	-0.363442	-0.550204	0.885202
C133	C	-0.975506	-1.216844	0.218531
C134	C	-0.642172	-0.883510	0.551864
C135	C	-0.308839	-0.550177	0.885197
C136	C	-0.948230	-1.165228	0.251939
C137	C	-0.614896	-0.831895	0.585272
C138	C	-0.281563	-0.498562	0.918605
C139	C	-0.527766	-1.216591	0.218484
C140	C	-0.194433	-0.883258	0.551817
C141	C	0.138901	-0.549924	0.885150
C142	C	-0.473161	-1.216551	0.218478
C143	C	-0.139827	-0.883218	0.551811
C144	C	0.193506	-0.549885	0.885144
C145	C	-0.473215	-1.113344	0.285292
C146	C	-0.139881	-0.780011	0.618626
C147	C	0.193452	-0.446678	0.951959
C148	C	-0.527815	-1.113380	0.285297
C149	C	-0.194482	-0.780047	0.618630
C150	C	0.138851	-0.446714	0.951964
C151	C	-0.555090	-1.165010	0.251891
C152	C	-0.221756	-0.831677	0.585224
C153	C	0.111577	-0.498344	0.918557
O154	O	-0.614218	-1.069562	0.313687
O155	O	-0.280885	-0.736229	0.647020
O156	O	0.052448	-0.402896	0.980354
O157	O	-0.614167	-1.260542	0.190091
O158	O	-0.280834	-0.927208	0.523424
O159	O	0.052499	-0.593875	0.856757
C160	C	-0.115554	-1.165213	0.251932
C161	C	0.217779	-0.831879	0.585266
C162	C	0.551113	-0.498546	0.918599
C163	C	-0.057440	-1.165280	0.251948
C164	C	0.275893	-0.831947	0.585281
C165	C	0.609227	-0.498613	0.918614
C166	C	-0.251935	-1.375363	0.251912
C167	C	0.081398	-1.042030	0.585245
C168	C	0.414732	-0.708697	0.918579
C169	C	-0.251938	-1.464985	0.251918
C170	C	0.081395	-1.131651	0.585252
C171	C	0.414728	-0.798318	0.918585
C172	C	-0.251932	-0.537767	0.251911
C173	C	0.081401	-0.204434	0.585244
C174	C	0.414734	0.128900	0.918578
C175	C	-0.251930	-0.629075	0.251903
C176	C	0.081403	-0.295742	0.585236
C177	C	0.414737	0.037591	0.918570
C178	C	-0.251931	-0.701852	0.251899
C179	C	0.081402	-0.368519	0.585233
C180	C	0.414736	-0.035185	0.918566
C181	C	-0.251928	-0.793166	0.251892
C182	C	0.081405	-0.459833	0.585226
C183	C	0.414739	-0.126499	0.918559
C184	C	-0.285375	-1.216583	0.697565
C185	C	0.047958	-0.883249	1.030898
C186	C	0.381291	-0.549916	1.364232
C187	C	-0.285376	-1.216585	0.642961
C188	C	0.047957	-0.883251	0.976294
C189	C	0.381290	-0.549918	1.309627
O190	O	-0.313826	-1.260385	0.614713
O191	O	0.019507	-0.927051	0.948047
O192	O	0.352840	-0.593718	1.281380
N193	N	-0.251936	-1.165063	0.615658
N194	N	0.081398	-0.831730	0.948991
N195	N	0.414731	-0.498397	1.282325
C196	C	-0.218496	-1.113531	0.642962
C197	C	0.114838	-0.780197	0.976296
C198	C	0.448171	-0.446864	1.309629
O199	O	-0.190052	-1.069707	0.614725
O200	O	0.143281	-0.736374	0.948059
O201	O	0.476614	-0.403041	1.281392
C202	C	-0.218498	-1.113525	0.697566
C203	C	0.114835	-0.780192	1.030899
C204	C	0.448169	-0.446858	1.364232
C205	C	-0.251937	-1.165056	0.724866
C206	C	0.081396	-0.831722	1.058199
C207	C	0.414730	-0.498389	1.391532
C208	C	-0.318812	-1.268108	0.724865
C209	C	0.014521	-0.934775	1.058198
C210	C	0.347854	-0.601442	1.391531
C211	C	-0.318811	-1.268107	0.779465
C212	C	0.014523	-0.934774	1.112799
C213	C	0.347856	-0.601440	1.446132
C214	C	-0.285372	-1.216580	0.806766
C215	C	0.047961	-0.883247	1.140099
C216	C	0.381295	-0.549913	1.473433
C217	C	-0.251935	-1.165054	0.779466
C218	C	0.081398	-0.831721	1.112799
C219	C	0.414731	-0.498388	1.446133
C220	C	-0.185061	-1.061989	0.724869
C221	C	0.148272	-0.728655	1.058203
C222	C	0.481606	-0.395322	1.391536
C223	C	-0.185066	-1.061987	0.779476
C224	C	0.148267	-0.728654	1.112810
C225	C	0.481600	-0.395320	1.446143
C226	C	-0.218505	-1.113518	0.806776
C227	C	0.114828	-0.780184	1.140109
C228	C	0.448161	-0.446851	1.473443
C229	C	-0.218495	-1.113526	0.861367
C230	C	0.114838	-0.780192	1.194701
C231	C	0.448172	-0.446859	1.528034
N232	N	-0.251936	-1.165047	0.888670
N233	N	0.081398	-0.831714	1.222003
N234	N	0.414731	-0.498381	1.555337
C235	C	-0.285374	-1.216574	0.861369
C236	C	0.047959	-0.883241	1.194703
C237	C	0.381292	-0.549908	1.528036
C238	C	-0.218494	-1.113545	0.528292
C239	C	0.114839	-0.780212	0.861625
C240	C	0.448172	-0.446879	1.194958
C241	C	-0.218489	-1.113555	0.473689
C242	C	0.114844	-0.780221	0.807023
C243	C	0.448177	-0.446888	1.140356
C244	C	-0.285371	-1.216608	0.473691
C245	C	0.047963	-0.883275	0.807025
C246	C	0.381296	-0.549941	1.140358
C247	C	-0.285373	-1.216602	0.528295
C248	C	0.047961	-0.883269	0.861628
C249	C	0.381294	-0.549936	1.194961
C250	C	-0.251935	-1.165067	0.555594
C251	C	0.081398	-0.831733	0.888928
C252	C	0.414732	-0.498400	1.222261
C253	C	-0.285368	-1.216568	0.976034
C254	C	0.047966	-0.883235	1.309368
C255	C	0.381299	-0.549901	1.642701
C256	C	-0.285362	-1.216565	1.030640
C257	C	0.047972	-0.883231	1.363973
C258	C	0.381305	-0.549898	1.697306
C259	C	-0.218482	-1.113509	1.030633
C260	C	0.114851	-0.780175	1.363966
C261	C	0.448184	-0.446842	1.697300
C262	C	-0.218486	-1.113515	0.976032
C263	C	0.114847	-0.780181	1.309366
C264	C	0.448180	-0.446848	1.642699
C265	C	-0.251933	-1.165047	0.948734
C266	C	0.081400	-0.831714	1.282068
C267	C	0.414733	-0.498381	1.615401
O268	O	-0.190061	-1.069746	0.889649
O269	O	0.143272	-0.736413	1.222983
O270	O	0.476605	-0.403079	1.556316
O271	O	-0.313818	-1.260383	0.889613
O272	O	0.019516	-0.927049	1.222946
O273	O	0.352849	-0.593716	1.556280
C274	C	-0.251934	-1.165035	1.116054
C275	C	0.081400	-0.831702	1.449388
C276	C	0.414733	-0.498368	1.782721
C277	C	-0.251923	-1.165037	1.057940
C278	C	0.081410	-0.831704	1.391274
C279	C	0.414744	-0.498371	1.724607
H280	H	-0.450916	-1.258560	0.191267
H281	H	-0.117582	-0.925227	0.524600
H282	H	0.215751	-0.591894	0.857933
H283	H	-0.191256	-1.071559	1.052871
H284	H	0.142077	-0.738225	1.386204
H285	H	0.475410	-0.404892	1.719538
Br286	Br	-0.330756	-1.286539	0.565339
Br287	Br	0.002578	-0.953206	0.898672
Br288	Br	0.335911	-0.619872	1.232005
Br289	Br	-0.564773	-1.286660	0.173147
Br290	Br	-0.231440	-0.953327	0.506480
Br291	Br	0.101894	-0.619994	0.839813
Br292	Br	-0.687238	-1.338335	0.139758
Br293	Br	-0.353905	-1.005001	0.473092
Br294	Br	-0.020572	-0.671668	0.806425
Br295	Br	-0.436185	-1.043300	0.330624
Br296	Br	-0.102852	-0.709966	0.663958
Br297	Br	0.230481	-0.376633	0.997291
H298	H	-0.801115	-1.310376	0.157907
H299	H	-0.467782	-0.977043	0.491240
H300	H	-0.134449	-0.643710	0.824573
H301	H	-0.191254	-1.071602	0.451467
H302	H	0.142080	-0.738269	0.784800
H303	H	0.475413	-0.404936	1.118133
H304	H	-0.191260	-1.071582	0.550516
H305	H	0.142073	-0.738248	0.883849
H306	H	0.475406	-0.404915	1.217183
H307	H	-0.953350	-1.071600	0.312549
H308	H	-0.620017	-0.738266	0.645883
H309	H	-0.286684	-0.404933	0.979216
H310	H	-0.953262	-1.258851	0.191323
H311	H	-0.619929	-0.925518	0.524656
H312	H	-0.286596	-0.592185	0.857990
H313	H	-0.801239	-1.019924	0.345948
H314	H	-0.467906	-0.686591	0.679281
H315	H	-0.134573	-0.353257	1.012615
H316	H	-0.157832	-1.020026	0.702651
H317	H	0.175501	-0.686692	1.035984
H318	H	0.508834	-0.353359	1.369318
Br319	Br	-0.364200	-1.338036	0.816507
Br320	Br	-0.030867	-1.004703	1.149840
Br321	Br	0.302466	-0.671369	1.483173
Br322	Br	-1.067138	-1.286919	0.173200
Br323	Br	-0.733805	-0.953586	0.506534
Br324	Br	-0.400472	-0.620252	0.839867
H325	H	-0.157837	-1.020020	0.801701
H326	H	0.175497	-0.686687	1.135034
H327	H	0.508830	-0.353353	1.468367
Br328	Br	-0.330745	-1.286506	1.067686
Br329	Br	0.002589	-0.953173	1.401020
Br330	Br	0.335922	-0.619839	1.734353
Br331	Br	-0.687380	-0.991864	0.364078
Br332	Br	-0.354047	-0.658530	0.697412
Br333	Br	-0.020714	-0.325197	1.030745
H334	H	-0.346044	-1.310069	0.702642
H335	H	-0.012711	-0.976736	1.035976
H336	H	0.320622	-0.643402	1.369309
Br337	Br	-0.173098	-1.043591	0.938981
Br338	Br	0.160236	-0.710258	1.272315
Br339	Br	0.493569	-0.376924	1.605648
Br340	Br	-0.564898	-1.043349	0.330631
Br341	Br	-0.231565	-0.710015	0.663964
Br342	Br	0.101768	-0.376682	0.997298
H343	H	-1.052400	-1.071644	0.312552
H344	H	-0.719067	-0.738311	0.645885
H345	H	-0.385734	-0.404978	0.979219
Br346	Br	-0.330761	-1.286505	0.938996
Br347	Br	0.002573	-0.953171	1.272329
Br348	Br	0.335906	-0.619838	1.605662
Br349	Br	-0.330753	-1.286536	0.436630
Br350	Br	0.002580	-0.953203	0.769963
Br351	Br	0.335913	-0.619869	1.103297
