data_functionalizedCrystal
_audit_creation_method	'MofGen! by Chris Wilmer'
_symmetry_space_group_name_H-M	'P1'
_symmetry_Int_Tables_number	1
_symmetry_cell_setting	triclinic
loop_
_symmetry_equiv_pos_as_xyz
  x,y,z
_cell_length_a	10.723024
_cell_length_b	9.198806
_cell_length_c	9.065218
_cell_angle_alpha	90.001601
_cell_angle_beta	84.741877
_cell_angle_gamma	90.003661
loop_
_atom_site_label
_atom_site_type_symbol
_atom_site_fract_x
_atom_site_fract_y
_atom_site_fract_z
O1	O	1.658028	0.120877	0.206939
O2	O	1.294956	0.120881	0.226747
O3	O	1.483997	0.120876	0.002158
O4	O	1.468988	0.120882	0.431528
O5	O	1.483982	-0.120909	0.002157
O6	O	1.294941	-0.120904	0.226746
O7	O	1.658013	-0.120908	0.206937
Cu8	Cu	1.476476	-0.142983	0.216841
Cu9	Cu	1.476494	0.142956	0.216843
O10	O	1.468973	-0.120903	0.431527
C11	C	1.248443	-0.000011	0.225305
C12	C	1.109872	-0.000009	0.220992
C13	C	1.035399	-0.000006	0.346660
C14	C	0.892178	-0.000004	0.342206
N15	N	1.476472	-0.344097	0.216839
C16	C	1.549585	-0.416295	0.302395
C17	C	1.549604	-0.583707	0.302393
C18	C	1.704526	-0.000013	0.208380
C19	C	1.843098	-0.000006	0.212693
C20	C	1.482547	-0.000014	-0.052821
C21	C	1.478234	-0.000007	-0.216639
N22	N	1.476507	0.344070	0.216834
C23	C	1.470423	-0.000010	0.486506
C24	C	1.474736	-0.000007	0.650324
H25	H	1.612170	-0.354165	0.375637
O26	O	1.632533	-0.665941	0.399408
H27	H	1.573733	-0.735313	0.478168
H28	H	1.413896	-0.406226	0.143587
O29	O	1.393610	-0.573675	0.119797
H30	H	1.294251	-0.602792	0.151107
H31	H	0.828182	0.000004	0.449788
O32	O	1.091374	-0.000006	0.493556
H33	H	1.195082	0.000002	0.474003
O34	O	1.053892	-0.000026	0.074100
H35	H	1.085231	0.098512	0.010445
H36	H	0.907086	0.000001	0.105105
