data_functionalizedCrystal
_audit_creation_method	'MofGen! by Chris Wilmer'
_symmetry_space_group_name_H-M	'P1'
_symmetry_Int_Tables_number	1
_symmetry_cell_setting	triclinic
loop_
_symmetry_equiv_pos_as_xyz
  x,y,z
_cell_length_a	14.044220
_cell_length_b	23.532407
_cell_length_c	12.503572
_cell_angle_alpha	93.496478
_cell_angle_beta	86.164750
_cell_angle_gamma	88.018778
loop_
_atom_site_label
_atom_site_type_symbol
_atom_site_fract_x
_atom_site_fract_y
_atom_site_fract_z
O1	O	1.261903	0.134222	-0.089227
O2	O	0.985982	0.129269	-0.089253
O3	O	1.132262	0.049265	-0.089219
O4	O	1.115623	0.214225	-0.089260
O5	O	1.121261	0.055293	0.089420
O6	O	0.974981	0.135296	0.089386
O7	O	1.250902	0.140249	0.089413
Cu8	Cu	1.111937	0.138323	0.105711
Cu9	Cu	1.124947	0.131195	-0.105551
O10	O	1.104622	0.220253	0.089379
C11	C	0.945188	0.130115	0.000063
C12	C	0.840023	0.123648	0.000054
C13	C	0.647472	0.111828	0.000078
C14	C	0.589407	0.157687	0.000072
C15	C	0.482265	0.151110	0.000085
C16	C	0.754624	0.118404	0.000065
C17	C	1.126337	0.031040	0.000103
C18	C	1.125063	-0.032246	0.000111
C19	C	1.203641	-0.427092	0.000060
C20	C	1.202458	-0.486556	0.000051
O21	O	1.275300	-0.519354	0.000019
N22	N	1.115494	-0.513896	0.000044
C23	C	1.029708	-0.481769	0.000034
O24	O	0.955630	-0.510484	0.000026
C25	C	1.030893	-0.422305	0.000034
C26	C	1.117862	-0.394968	0.000053
C27	C	1.290603	-0.399754	0.000077
C28	C	1.291786	-0.340294	0.000087
C29	C	1.206006	-0.308170	0.000080
C30	C	1.119044	-0.335508	0.000063
C31	C	0.945109	-0.390179	0.000016
C32	C	0.946301	-0.330712	0.000016
C33	C	1.033270	-0.303375	0.000035
C34	C	1.034447	-0.243924	0.000066
N35	N	1.121411	-0.216584	0.000074
C36	C	1.207191	-0.248707	0.000081
C37	C	1.027228	-0.606646	0.000031
C38	C	1.026042	-0.666108	0.000038
C39	C	1.198792	-0.670891	0.000053
C40	C	1.199976	-0.611428	0.000054
C41	C	1.114192	-0.579306	0.000038
C42	C	1.209668	-0.123835	0.000103
C43	C	1.210842	-0.064369	0.000118
C44	C	1.038093	-0.059591	0.000097
C45	C	1.036917	-0.119052	0.000088
C46	C	1.122713	-0.151173	0.000087
O47	O	0.961644	-0.211090	0.000095
O48	O	1.281258	-0.219985	0.000075
C49	C	1.291696	0.139403	0.000094
C50	C	1.396861	0.145869	0.000096
C51	C	1.110547	0.238478	0.000054
C52	C	1.111822	0.301763	0.000039
N53	N	1.102793	0.143337	0.254301
N54	N	1.134098	0.126177	-0.254141
C55	C	1.089342	0.150717	0.473413
C56	C	1.147546	0.118799	0.526753
C57	C	1.140062	0.122905	0.648675
C58	C	1.096825	0.146611	0.351480
H59	H	0.616718	0.067631	0.000095
O60	O	1.213733	0.082474	0.472171
C61	C	1.266400	0.053617	0.545778
H62	H	1.222706	0.053682	0.625978
H63	H	1.283139	0.007804	0.513190
H64	H	1.335944	0.076027	0.557688
O65	O	0.941572	-0.692679	0.000220
C66	C	0.930023	-0.723833	0.092718
H67	H	0.975414	-0.705100	0.157393
H68	H	0.851704	-0.721341	0.123762
H69	H	0.953612	-0.770247	0.071795
O70	O	0.863018	-0.299444	0.000146
C71	C	0.852814	-0.261803	0.092683
H72	H	0.926081	-0.253931	0.123542
H73	H	0.818367	-0.219677	0.071874
H74	H	0.805744	-0.281362	0.157457
O75	O	1.295415	-0.037907	0.000084
C76	C	1.370867	-0.079015	0.000111
H77	H	1.346780	-0.121837	-0.033718
H78	H	1.434813	-0.065255	-0.051746
H79	H	1.392023	-0.083193	0.085814
H80	H	0.874290	-0.412427	-0.000005
O81	O	1.376232	-0.313709	0.000280
C82	C	1.376397	-0.276330	0.092784
H83	H	1.323046	-0.290709	0.157452
H84	H	1.450894	-0.276733	0.123837
H85	H	1.355385	-0.231324	0.071865
O86	O	0.626041	0.210436	0.000229
C87	C	0.589115	0.243316	0.092720
H88	H	0.564784	0.213852	0.157410
H89	H	0.646930	0.271562	0.123746
H90	H	0.525774	0.271120	0.071795
H91	H	1.033896	0.181126	0.519308
H92	H	1.279531	-0.149982	0.000099
H93	H	0.957366	-0.580495	0.000027
H94	H	1.360460	-0.425903	0.000079
O95	O	1.284544	-0.584967	0.000013
C96	C	1.359992	-0.626078	0.000050
H97	H	1.335900	-0.668901	-0.033767
H98	H	1.423940	-0.612324	-0.051812
H99	H	1.381148	-0.630251	0.085755
H100	H	1.268638	-0.697057	0.000055
H101	H	0.966098	-0.141310	0.000102
H102	H	0.968253	-0.033425	0.000095
