data_functionalizedCrystal
_audit_creation_method	'MofGen! by Chris Wilmer'
_symmetry_space_group_name_H-M	'P1'
_symmetry_Int_Tables_number	1
_symmetry_cell_setting	triclinic
loop_
_symmetry_equiv_pos_as_xyz
  x,y,z
_cell_length_a	19.288864
_cell_length_b	16.176319
_cell_length_c	19.288865
_cell_angle_alpha	89.991322
_cell_angle_beta	96.863755
_cell_angle_gamma	90.019823
loop_
_atom_site_label
_atom_site_type_symbol
_atom_site_fract_x
_atom_site_fract_y
_atom_site_fract_z
O1	O	0.921350	0.069021	-0.086646
O2	O	1.421350	0.569021	0.413354
O3	O	0.719089	0.068966	-0.098335
O4	O	1.219089	0.568966	0.401665
O5	O	0.826064	0.068979	0.008640
O6	O	1.326064	0.568979	0.508640
O7	O	0.814375	0.069008	-0.193621
O8	O	1.314375	0.569008	0.306379
O9	O	0.826051	-0.068515	0.008640
O10	O	1.326051	0.431485	0.508640
O11	O	0.719077	-0.068527	-0.098335
O12	O	1.219077	0.431473	0.401665
O13	O	0.921337	-0.068472	-0.086646
O14	O	1.421337	0.431528	0.413354
Cu15	Cu	0.820206	-0.081054	-0.092490
Cu16	Cu	1.320206	0.418946	0.407510
Cu17	Cu	0.820221	0.081548	-0.092491
Cu18	Cu	1.320221	0.581548	0.407509
O19	O	0.814363	-0.068485	-0.193621
O20	O	1.314363	0.431515	0.306379
C21	C	0.693207	0.000212	-0.097959
C22	C	1.193207	0.500212	0.402041
C23	C	0.616103	0.000190	-0.096830
C24	C	1.116103	0.500190	0.403170
C25	C	0.571407	0.000212	-0.159598
C26	C	1.071407	0.500212	0.340402
C27	C	0.498960	0.000221	-0.158537
C28	C	0.998960	0.500221	0.341463
C29	C	0.471212	0.000225	-0.094705
C30	C	0.971212	0.500225	0.405295
C31	C	0.515918	0.000198	-0.031929
C32	C	1.015918	0.500198	0.468071
C33	C	0.588364	0.000181	-0.032991
C34	C	1.088364	0.500181	0.467009
C35	C	0.362955	0.048415	-0.044526
C36	C	0.862955	0.548415	0.455474
C37	C	0.290510	0.048437	-0.043466
C38	C	0.790510	0.548437	0.456534
C39	C	0.247767	0.000274	-0.091425
C40	C	0.747767	0.500274	0.408575
C41	C	0.277475	-0.047901	-0.140456
C42	C	0.777475	0.452099	0.359544
C43	C	0.349920	-0.047918	-0.141519
C44	C	0.849920	0.452082	0.358481
C45	C	0.392658	0.000243	-0.093546
C46	C	0.892658	0.500243	0.406454
C47	C	0.124514	0.000305	-0.153047
C48	C	0.624514	0.500305	0.346953
C49	C	0.052066	0.000309	-0.151984
C50	C	0.552066	0.500309	0.348016
C51	C	0.069026	0.000294	-0.025374
C52	C	0.569026	0.500294	0.474626
C53	C	0.141473	0.000281	-0.026439
C54	C	0.641473	0.500281	0.473561
C55	C	0.169212	0.000291	-0.090278
C56	C	0.669212	0.500291	0.409722
N57	N	0.820201	-0.195419	-0.092490
N58	N	1.320201	0.304581	0.407510
C59	C	0.862192	-0.238661	-0.134512
C60	C	1.362192	0.261339	0.365488
C61	C	0.862199	-0.325208	-0.134509
C62	C	1.362199	0.174792	0.365491
C63	C	0.820211	-0.368512	-0.092488
C64	C	1.320211	0.131488	0.407512
C65	C	0.778219	-0.325264	-0.050461
C66	C	1.278219	0.174736	0.449539
C67	C	0.778215	-0.238718	-0.050460
C68	C	1.278215	0.261282	0.449540
C69	C	0.778232	-0.674292	-0.050461
C70	C	1.278232	-0.174292	0.449539
C71	C	0.778236	-0.760844	-0.050467
C72	C	1.278236	-0.260844	0.449533
C73	C	0.862215	-0.760782	-0.134510
C74	C	1.362215	-0.260782	0.365490
C75	C	0.862212	-0.674236	-0.134510
C76	C	1.362212	-0.174236	0.365490
C77	C	0.820222	-0.630996	-0.092480
C78	C	1.320222	-0.130996	0.407520
C79	C	0.820216	-0.537152	-0.092483
C80	C	1.320216	-0.037152	0.407517
C81	C	0.820214	-0.462354	-0.092488
C82	C	1.320214	0.037646	0.407512
C83	C	0.947220	0.000284	-0.087022
C84	C	1.447220	0.500284	0.412978
C85	C	1.024324	0.000311	-0.088151
C86	C	1.524324	0.500311	0.411849
C87	C	0.825682	0.000229	0.034516
C88	C	1.325682	0.500229	0.534516
C89	C	0.824553	0.000222	0.111620
C90	C	1.324553	0.500222	0.611620
N91	N	0.820232	0.195913	-0.092486
N92	N	1.320232	0.695913	0.407514
C93	C	0.814745	0.000266	-0.219497
C94	C	1.314745	0.500266	0.280503
C95	C	0.815874	0.000279	-0.296601
C96	C	1.315874	0.500279	0.203399
C97	C	0.887321	0.000235	0.156316
C98	C	1.387321	0.500235	0.656316
C99	C	0.886260	0.000248	0.228763
C100	C	1.386260	0.500248	0.728763
C101	C	0.822428	0.000231	0.256511
C102	C	1.322428	0.500231	0.756511
C103	C	0.759652	0.000222	0.211805
C104	C	1.259652	0.500222	0.711805
C105	C	0.760714	0.000218	0.139359
C106	C	1.260714	0.500218	0.639359
C107	C	0.772244	-0.047944	0.364798
C108	C	1.272244	0.452056	0.864798
C109	C	0.771184	-0.047944	0.437243
C110	C	1.271184	0.452056	0.937243
C111	C	0.819148	0.000248	0.479956
C112	C	1.319148	0.500248	0.979956
C113	C	0.868184	0.048431	0.450218
C114	C	1.368184	0.548431	0.950218
C115	C	0.869246	0.048427	0.377773
C116	C	1.369246	0.548427	0.877773
C117	C	0.821269	0.000236	0.335065
C118	C	1.321269	0.500236	0.835065
C119	C	0.880770	0.000277	0.603209
C120	C	1.380770	0.500277	1.103209
C121	C	0.879707	0.000295	0.675657
C122	C	1.379707	0.500295	1.175657
C123	C	0.753097	0.000261	0.658697
C124	C	1.253097	0.500261	1.158697
C125	C	0.754162	0.000251	0.586250
C126	C	1.254162	0.500251	1.086250
C127	C	0.818001	0.000255	0.558511
C128	C	1.318001	0.500255	1.058511
H129	H	0.397751	0.087640	-0.005470
H130	H	0.897751	0.587640	0.494530
Cl131	Cl	0.725417	-0.619944	0.002348
Cl132	Cl	1.225417	-0.119944	0.502348
H133	H	0.374106	-0.087146	-0.181439
H134	H	0.874106	0.412854	0.318561
Cl135	Cl	0.223748	-0.108453	-0.200753
Cl136	Cl	0.723748	0.391547	0.299247
Cl137	Cl	0.914990	-0.619802	-0.187348
Cl138	Cl	1.414990	-0.119802	0.312652
Cl139	Cl	0.197666	0.000259	0.052474
Cl140	Cl	0.697666	0.500259	0.552474
Cl141	Cl	0.965174	0.000265	0.284963
Cl142	Cl	1.465174	0.500265	0.784963
H143	H	0.493322	0.000212	0.020044
H144	H	0.993322	0.500212	0.520044
Cl145	Cl	0.915005	-0.815147	-0.187346
Cl146	Cl	1.415005	-0.315147	0.312654
H147	H	0.707679	0.000210	0.234401
H148	H	1.207679	0.500210	0.734401
Cl149	Cl	0.725435	-0.379703	0.002368
Cl150	Cl	1.225435	0.120297	0.502368
Cl151	Cl	0.442760	0.000247	-0.237451
Cl152	Cl	0.942760	0.500247	0.262549
Cl153	Cl	0.958623	0.000317	0.731848
Cl154	Cl	1.458623	0.500317	1.231848
Cl155	Cl	0.725449	-0.815282	0.002365
Cl156	Cl	1.225449	-0.315282	0.502365
Cl157	Cl	0.961023	0.000277	0.568333
Cl158	Cl	1.461023	0.500277	1.068333
Cl159	Cl	0.672850	0.000244	0.693572
Cl160	Cl	1.172850	0.500244	1.193572
Cl161	Cl	0.914989	-0.379566	-0.187341
Cl162	Cl	1.414989	0.120434	0.312659
H163	H	0.624756	0.000163	0.018124
H164	H	1.124756	0.500163	0.518124
Cl165	Cl	0.034151	0.000288	0.054873
Cl166	Cl	0.534151	0.500288	0.554873
Cl167	Cl	0.928485	0.109022	0.503907
Cl168	Cl	1.428485	0.609022	1.003907
H169	H	0.703049	0.000236	0.549857
H170	H	1.203049	0.500236	1.049857
H171	H	0.733184	-0.087193	0.330026
H172	H	1.233184	0.412807	0.830026
H173	H	0.147101	0.000301	-0.205028
H174	H	0.647101	0.500301	0.294972
Cl175	Cl	0.253169	0.109008	0.018166
Cl176	Cl	0.753169	0.609008	0.518166
H177	H	0.731253	-0.087173	0.461449
H178	H	1.231253	0.412827	0.961449
H179	H	0.709599	0.000207	0.102967
H180	H	1.209599	0.500207	0.602967
Cl181	Cl	0.725432	-0.184357	0.002377
Cl182	Cl	1.225432	0.315643	0.502377
H183	H	0.593987	0.000222	-0.211580
H184	H	1.093987	0.500222	0.288420
H185	H	0.896379	-0.203409	-0.168735
H186	H	1.396379	0.296591	0.331265
Cl187	Cl	0.967575	0.000263	0.121448
Cl188	Cl	1.467575	0.500263	0.621448
H189	H	0.015674	0.000322	-0.203099
H190	H	0.515674	0.500322	0.296901
Cl191	Cl	0.930884	0.109002	0.340389
Cl192	Cl	1.430884	0.609002	0.840389
