data_functionalizedCrystal
_audit_creation_method	'MofGen! by Chris Wilmer'
_symmetry_space_group_name_H-M	'P1'
_symmetry_Int_Tables_number	1
_symmetry_cell_setting	triclinic
loop_
_symmetry_equiv_pos_as_xyz
  x,y,z
_cell_length_a	14.908780
_cell_length_b	14.908520
_cell_length_c	14.908694
_cell_angle_alpha	83.255478
_cell_angle_beta	96.797826
_cell_angle_gamma	96.789949
loop_
_atom_site_label
_atom_site_type_symbol
_atom_site_fract_x
_atom_site_fract_y
_atom_site_fract_z
Zn1	Zn	-1.396257	0.313858	-0.608918
Zn2	Zn	-1.379587	0.457411	-0.465375
Zn3	Zn	-1.236152	0.313877	-0.448820
Zn4	Zn	-1.236113	0.473894	-0.608841
O5	O	-1.312027	0.389760	-0.532988
O6	O	-1.521094	0.325994	-0.596837
O7	O	-1.353599	0.431481	-0.336136
O8	O	-1.264383	0.186829	-0.463161
O9	O	-1.508847	0.431462	-0.491377
O10	O	-1.382011	0.186815	-0.580784
O11	O	-1.248219	0.326027	-0.323973
O12	O	-1.109098	0.342010	-0.463086
O13	O	-1.264317	0.459555	-0.735894
O14	O	-1.109070	0.459574	-0.580653
O15	O	-1.381974	0.341977	-0.735950
O16	O	-1.353562	0.586643	-0.491302
O17	O	-1.248153	0.598753	-0.596706
C18	C	-1.076142	0.402583	-0.520066
C19	C	-0.975229	0.408092	-0.514560
C20	C	-0.798355	0.308789	-0.614216
C21	C	-0.703539	0.313962	-0.609045
C22	C	-0.690778	0.423606	-0.499044
C23	C	-0.785594	0.418433	-0.504215
C24	C	-0.839380	0.361024	-0.561803
C25	C	-0.934198	0.355856	-0.566978
C26	C	-0.921435	0.465495	-0.456973
C27	C	-0.826619	0.470668	-0.451802
C28	C	-1.299070	0.625639	-0.545814
C29	C	-1.293611	0.726546	-0.551335
C30	C	-1.325001	0.402602	-0.769784
C31	C	-1.330529	0.408075	-0.870692
C32	C	-0.548834	0.376879	-0.545955
C33	C	-0.649747	0.371370	-0.551463
C34	C	-1.325061	0.152960	-0.520134
C35	C	-1.330615	0.052049	-0.514657
C36	C	-1.393241	0.903489	-0.452054
C37	C	-1.388116	0.998300	-0.457239
C38	C	-1.278239	1.010981	-0.566895
C39	C	-1.283365	0.916170	-0.561710
C40	C	-1.340867	0.862427	-0.504286
C41	C	-1.345987	0.767615	-0.499097
C42	C	-1.236116	0.780297	-0.608757
C43	C	-1.230991	0.875108	-0.613942
C44	C	-1.231163	0.308553	-1.047644
C45	C	-1.236355	0.313692	-1.142456
C46	C	-1.346098	0.423497	-1.155129
C47	C	-1.340907	0.418358	-1.060317
C48	C	-1.283438	0.360883	-1.006578
C49	C	-1.278252	0.355739	-0.911764
C50	C	-1.387990	0.465548	-0.924439
C51	C	-1.393182	0.470688	-1.019251
C52	C	-1.299160	0.376899	-0.297113
C53	C	-1.293821	0.371161	-0.196202
H54	H	-0.782814	0.517406	-0.404913
Br55	Br	-0.977116	0.536399	-0.385847
Br56	Br	-0.617769	0.501498	-0.420880
H57	H	-0.977989	0.309111	-0.613871
Br58	Br	-1.459203	1.054025	-0.386354
Br59	Br	-1.165401	0.242676	-1.198187
H60	H	-1.184177	0.918878	-0.660697
Br61	Br	-0.871354	0.230891	-0.692381
Br62	Br	-0.647864	0.243064	-0.680175
Br63	Br	-1.471165	0.548691	-1.092191
H64	H	-1.430560	0.508156	-0.890994
H65	H	-1.392806	0.723858	-0.452337
Br66	Br	-1.200223	1.083932	-0.644837
Br67	Br	-1.471259	0.830548	-0.374107
Br68	Br	-1.424067	0.501509	-1.228076
Br69	Br	-1.165016	0.724566	-0.679632
Br70	Br	-1.153187	0.230541	-0.974708
Br71	Br	-1.200265	0.277735	-0.838833
