data_functionalizedCrystal
_audit_creation_method	'MofGen! by Chris Wilmer'
_symmetry_space_group_name_H-M	'P1'
_symmetry_Int_Tables_number	1
_symmetry_cell_setting	triclinic
loop_
_symmetry_equiv_pos_as_xyz
  x,y,z
_cell_length_a	15.944551
_cell_length_b	15.021413
_cell_length_c	15.944551
_cell_angle_alpha	90.000443
_cell_angle_beta	96.501262
_cell_angle_gamma	89.988701
loop_
_atom_site_label
_atom_site_type_symbol
_atom_site_fract_x
_atom_site_fract_y
_atom_site_fract_z
O1	O	1.114511	0.073941	-0.108326
O2	O	1.614511	0.573941	0.391674
O3	O	0.869961	0.073964	-0.121682
O4	O	1.369961	0.573964	0.378318
O5	O	0.998914	0.073944	0.007271
O6	O	1.498914	0.573944	0.507271
O7	O	0.985558	0.073961	-0.237279
O8	O	1.485558	0.573961	0.262721
O9	O	0.998929	-0.074121	0.007263
O10	O	1.498929	0.425879	0.507263
O11	O	0.869976	-0.074101	-0.121690
O12	O	1.369976	0.425899	0.378310
O13	O	1.114526	-0.074123	-0.108334
O14	O	1.614526	0.425877	0.391666
Zn15	Zn	0.992254	-0.097620	-0.115013
Zn16	Zn	1.492254	0.402380	0.384987
Zn17	Zn	0.992234	0.097461	-0.115003
Zn18	Zn	1.492234	0.597461	0.384997
O19	O	0.985573	-0.074103	-0.237287
O20	O	1.485573	0.425897	0.262713
C21	C	0.838675	-0.000066	-0.121132
C22	C	1.338675	0.499934	0.378868
C23	C	0.745429	-0.000057	-0.119470
C24	C	1.245429	0.499943	0.380530
N25	N	0.992273	-0.230758	-0.115020
N26	N	1.492273	0.269242	0.384980
C27	C	0.530572	-0.000081	-0.035565
C28	C	1.030572	0.499919	0.464435
C29	C	0.469545	0.072926	-0.074524
C30	C	0.969545	0.572926	0.425476
C31	C	0.574703	-0.000068	-0.116462
C32	C	1.074703	0.499932	0.383538
C33	C	0.469582	-0.073054	-0.074551
C34	C	0.969582	0.426946	0.425449
C35	C	0.409790	-0.000083	-0.113551
C36	C	0.909790	0.499917	0.386449
C37	C	0.514904	0.072998	-0.155443
C38	C	1.014904	0.572998	0.344557
C39	C	0.514947	-0.073047	-0.155459
C40	C	1.014947	0.426953	0.344541
C41	C	0.453937	-0.000023	-0.194476
C42	C	0.953937	0.499977	0.305524
C43	C	0.669705	-0.000059	-0.118137
C44	C	1.169705	0.499941	0.381863
C45	C	0.314789	-0.000085	-0.111883
C46	C	0.814789	0.499915	0.388117
C47	C	1.051913	-0.470426	-0.055379
C48	C	1.551913	0.029574	0.444621
C49	C	0.976013	-0.529750	-0.039061
C50	C	1.476013	-0.029750	0.460939
C51	C	0.992254	-0.412365	-0.115010
C52	C	1.492254	0.087635	0.384990
C53	C	1.068135	-0.529783	-0.131277
C54	C	1.568135	-0.029783	0.368723
C55	C	0.992242	-0.587789	-0.114997
C56	C	1.492242	-0.087789	0.385003
C57	C	0.916316	-0.470382	-0.098655
C58	C	1.416316	0.029618	0.401345
C59	C	1.008487	-0.470410	-0.190904
C60	C	1.508487	0.029590	0.309096
C61	C	0.932533	-0.529706	-0.174619
C62	C	1.432533	-0.029706	0.325381
C63	C	0.992262	-0.311307	-0.115014
C64	C	1.492262	0.188693	0.384986
C65	C	0.992225	-0.688844	-0.114993
C66	C	1.492225	-0.188844	0.385007
C67	C	1.145813	-0.000092	-0.108885
C68	C	1.645813	0.499908	0.391115
C69	C	1.239059	-0.000094	-0.110547
C70	C	1.739059	0.499906	0.389453
C71	C	0.998367	-0.000089	0.038561
C72	C	1.498367	0.499911	0.538561
C73	C	0.996705	-0.000089	0.131807
C74	C	1.496705	0.499911	0.631807
N75	N	0.992221	0.230598	-0.114990
N76	N	1.492221	0.730598	0.385010
C77	C	0.986120	-0.000069	-0.268577
C78	C	1.486120	0.499931	0.231423
C79	C	0.987782	-0.000063	-0.361823
C80	C	1.487782	0.499937	0.138177
C81	C	0.912801	-0.000069	0.346663
C82	C	1.412801	0.499931	0.846663
C83	C	0.951771	-0.073077	0.407677
C84	C	1.451771	0.426923	0.907677
C85	C	0.993698	-0.000082	0.302533
C86	C	1.493698	0.499918	0.802533
C87	C	0.951775	0.072903	0.407668
C88	C	1.451775	0.572903	0.907668
C89	C	0.990787	-0.000071	0.467445
C90	C	1.490787	0.499929	0.967445
C91	C	1.032690	-0.073150	0.362318
C92	C	1.532690	0.426850	0.862318
C93	C	1.032683	0.072895	0.362303
C94	C	1.532683	0.572895	0.862303
C95	C	1.071711	-0.000131	0.423298
C96	C	1.571711	0.499869	0.923298
C97	C	0.995372	-0.000089	0.207530
C98	C	1.495372	0.499911	0.707530
C99	C	0.989119	-0.000070	0.562446
C100	C	1.489119	0.499930	1.062446
H101	H	0.563905	0.000005	0.031573
H102	H	1.063905	0.500005	0.531573
Br103	Br	0.848348	-0.572818	-0.258669
Br104	Br	1.348348	-0.072818	0.241331
Br105	Br	0.398667	0.000047	-0.306490
Br106	Br	0.898667	0.500047	0.193510
Br107	Br	0.548200	0.175984	-0.212426
Br108	Br	1.048200	0.675984	0.287574
H109	H	1.138919	-0.000178	0.456457
H110	H	1.638919	0.499822	0.956457
H111	H	1.102312	-0.444397	-0.004923
H112	H	1.602312	0.055603	0.495077
Br113	Br	0.894711	0.175768	0.441163
Br114	Br	1.394711	0.675768	0.941163
H115	H	1.066863	0.134615	0.342176
H116	H	1.566863	0.634615	0.842176
H117	H	1.132311	-0.555876	-0.145043
H118	H	1.632311	-0.055876	0.354957
H119	H	1.022253	-0.444325	-0.255071
H120	H	1.522253	0.055675	0.244929
H121	H	0.845652	-0.000136	0.313356
H122	H	1.345652	0.499864	0.813356
H123	H	0.449428	0.134642	-0.040304
H124	H	0.949428	0.634642	0.459696
Br125	Br	0.548514	-0.175918	-0.212449
Br126	Br	1.048514	0.324082	0.287551
Br127	Br	0.809325	-0.427083	-0.075589
Br128	Br	1.309325	0.072917	0.424411
Br129	Br	0.436113	-0.175924	-0.017505
Br130	Br	0.936113	0.324076	0.482495
H131	H	0.917561	-0.134794	0.427782
H132	H	1.417561	0.365206	0.927782
H133	H	0.962271	-0.555816	0.025126
H134	H	1.462271	-0.055816	0.525126
Br135	Br	1.089687	-0.176137	0.329001
Br136	Br	1.589687	0.323863	0.829001
