data_functionalizedCrystal
_audit_creation_method	'MofGen! by Chris Wilmer'
_symmetry_space_group_name_H-M	'P1'
_symmetry_Int_Tables_number	1
_symmetry_cell_setting	triclinic
loop_
_symmetry_equiv_pos_as_xyz
  x,y,z
_cell_length_a	16.959455
_cell_length_b	18.101397
_cell_length_c	16.959455
_cell_angle_alpha	90.017520
_cell_angle_beta	90.001568
_cell_angle_gamma	90.017413
loop_
_atom_site_label
_atom_site_type_symbol
_atom_site_fract_x
_atom_site_fract_y
_atom_site_fract_z
Zn1	Zn	1.208282	-0.294993	0.446890
Zn2	Zn	1.541615	0.038340	0.780223
Zn3	Zn	1.874949	0.371673	1.113557
Zn4	Zn	1.208233	-0.418811	0.314704
Zn5	Zn	1.541566	-0.085478	0.648037
Zn6	Zn	1.874900	0.247855	0.981370
Zn7	Zn	1.076140	-0.294982	0.314728
Zn8	Zn	1.409473	0.038352	0.648061
Zn9	Zn	1.742807	0.371685	0.981394
Zn10	Zn	1.076074	-0.418791	0.446842
Zn11	Zn	1.409408	-0.085458	0.780176
Zn12	Zn	1.742741	0.247876	1.113509
O13	O	1.142182	-0.356894	0.380791
O14	O	1.475516	-0.023561	0.714124
O15	O	1.808849	0.309772	1.047458
O16	O	1.318886	-0.311432	0.429365
O17	O	1.652220	0.021902	0.762699
O18	O	1.985553	0.355235	1.096032
O19	O	1.190718	-0.402389	0.204096
O20	O	1.524051	-0.069055	0.537429
O21	O	1.857384	0.264278	0.870763
O22	O	1.093717	-0.191350	0.332289
O23	O	1.427050	0.141983	0.665622
O24	O	1.760384	0.475316	0.998956
O25	O	1.318850	-0.402400	0.332249
O26	O	1.652184	-0.069067	0.665582
O27	O	1.985517	0.264267	0.998915
O28	O	1.190801	-0.191359	0.429388
O29	O	1.524134	0.141974	0.762722
O30	O	1.857468	0.475308	1.096055
O31	O	1.093669	-0.311412	0.204114
O32	O	1.427003	0.021922	0.537447
O33	O	1.760336	0.355255	0.870780
O34	O	0.965520	-0.311392	0.332243
O35	O	1.298854	0.021942	0.665576
O36	O	1.632187	0.355275	0.998910
O37	O	1.093605	-0.402365	0.557459
O38	O	1.426938	-0.069032	0.890793
O39	O	1.760272	0.264301	1.224126
O40	O	0.965472	-0.402354	0.429307
O41	O	1.298806	-0.069021	0.762640
O42	O	1.632139	0.264313	1.095974
O43	O	1.190737	-0.311412	0.557495
O44	O	1.524071	0.021922	0.890828
O45	O	1.857404	0.355255	1.224161
O46	O	1.190654	-0.522442	0.332202
O47	O	1.523987	-0.189108	0.665536
O48	O	1.857321	0.144225	0.998869
O49	O	1.093558	-0.522427	0.429284
O50	O	1.426891	-0.189093	0.762617
O51	O	1.760224	0.144240	1.095951
C52	C	0.936816	-0.356870	0.380773
C53	C	1.270149	-0.023537	0.714106
C54	C	1.603483	0.309797	1.047439
C55	C	0.848960	-0.356877	0.380784
C56	C	1.182293	-0.023544	0.714117
C57	C	1.515626	0.309789	1.047450
C58	C	0.477485	-0.309492	0.330355
C59	C	0.810818	0.023842	0.663688
C60	C	1.144151	0.357175	0.997022
C61	C	0.477483	-0.404358	0.431272
C62	C	0.810817	-0.071025	0.764605
C63	C	1.144150	0.262309	1.097938
C64	C	0.560029	-0.404347	0.431267
C65	C	0.893362	-0.071014	0.764600
C66	C	1.226696	0.262319	1.097934
C67	C	0.601307	-0.356909	0.380805
C68	C	0.934640	-0.023576	0.714138
C69	C	1.267973	0.309758	1.047471
C70	C	0.560038	-0.309481	0.330347
C71	C	0.893371	0.023852	0.663680
C72	C	1.226705	0.357186	0.997014
C73	C	0.601304	-0.451780	0.481718
C74	C	0.934637	-0.118446	0.815051
C75	C	1.267970	0.214887	1.148385
C76	C	0.683855	-0.451772	0.481715
C77	C	1.017188	-0.118438	0.815048
C78	C	1.350521	0.214895	1.148381
C79	C	0.725134	-0.404329	0.431256
C80	C	1.058467	-0.070995	0.764589
C81	C	1.391800	0.262338	1.097922
C82	C	0.683860	-0.356898	0.380797
C83	C	1.017193	-0.023565	0.714130
C84	C	1.350527	0.309768	1.047463
C85	C	0.725138	-0.309460	0.330334
C86	C	1.058471	0.023873	0.663668
C87	C	1.391804	0.357207	0.997001
C88	C	0.683866	-0.262025	0.279879
C89	C	1.017199	0.071308	0.613212
C90	C	1.350532	0.404641	0.946545
C91	C	0.601317	-0.262038	0.279888
C92	C	0.934650	0.071295	0.613221
C93	C	1.267984	0.404628	0.946555
C94	C	0.807682	-0.404316	0.431246
C95	C	1.141015	-0.070982	0.764579
C96	C	1.474349	0.262351	1.097913
C97	C	0.807691	-0.309449	0.330326
C98	C	1.141024	0.023884	0.663660
C99	C	1.474358	0.357217	0.996993
C100	C	1.142115	-0.549305	0.380753
C101	C	1.475448	-0.215972	0.714086
C102	C	1.808781	0.117362	1.047419
C103	C	1.142158	-0.631619	0.380763
C104	C	1.475491	-0.298286	0.714096
C105	C	1.808825	0.035048	1.047429
C106	C	1.142259	-0.930710	0.380835
C107	C	1.475592	-0.597377	0.714168
C108	C	1.808926	-0.264043	1.047501
C109	C	1.203179	-0.899363	0.319590
C110	C	1.536513	-0.566030	0.652923
C111	C	1.869846	-0.232697	0.986257
C112	C	1.203390	-0.813745	0.319749
C113	C	1.536724	-0.480411	0.653082
C114	C	1.870057	-0.147078	0.986415
C115	C	1.142209	-0.782327	0.380798
C116	C	1.475542	-0.448994	0.714132
C117	C	1.808876	-0.115661	1.047465
C118	C	1.164766	-0.813354	0.464115
C119	C	1.498099	-0.480020	0.797448
C120	C	1.831432	-0.146687	1.130781
C121	C	1.165237	-0.898998	0.463781
C122	C	1.498570	-0.565665	0.797114
C123	C	1.831904	-0.232332	1.130448
C124	C	1.058619	-0.899210	0.359484
C125	C	1.391953	-0.565877	0.692818
C126	C	1.725286	-0.232543	1.026151
C127	C	1.059033	-0.813560	0.357624
C128	C	1.392366	-0.480227	0.690958
C129	C	1.725700	-0.146894	1.024291
C130	C	1.142179	-0.698468	0.380783
C131	C	1.475513	-0.365135	0.714116
C132	C	1.808846	-0.031801	1.047449
C133	C	1.142291	-1.014569	0.380856
C134	C	1.475624	-0.681236	0.714189
C135	C	1.808957	-0.347903	1.047522
C136	C	1.348351	-0.356919	0.380810
C137	C	1.681684	-0.023586	0.714143
C138	C	2.015017	0.309747	1.047476
C139	C	1.436207	-0.356930	0.380817
C140	C	1.769540	-0.023597	0.714151
C141	C	2.102874	0.309737	1.047484
C142	C	1.142169	-0.356888	0.586959
C143	C	1.475503	-0.023554	0.920292
C144	C	1.808836	0.309779	1.253626
C145	C	1.142164	-0.356885	0.674816
C146	C	1.475497	-0.023551	1.008149
C147	C	1.808830	0.309782	1.341482
C148	C	1.142272	-0.163732	0.380847
C149	C	1.475605	0.169601	0.714180
C150	C	1.808938	0.502934	1.047513
C151	C	1.142310	-0.081418	0.380870
C152	C	1.475643	0.251915	0.714204
C153	C	1.808977	0.585248	1.047537
C154	C	1.091603	-0.404260	1.046275
C155	C	1.424936	-0.070927	1.379609
C156	C	1.758270	0.262407	1.712942
C157	C	1.192748	-0.309549	1.046307
C158	C	1.526081	0.023784	1.379640
C159	C	1.859415	0.357117	1.712974
C160	C	1.192745	-0.309543	0.963761
C161	C	1.526079	0.023790	1.297095
C162	C	1.859412	0.357123	1.630428
C163	C	1.142172	-0.356897	0.922469
C164	C	1.475505	-0.023564	1.255802
C165	C	1.808838	0.309770	1.589135
C166	C	1.091601	-0.404257	0.963722
C167	C	1.424934	-0.070924	1.297055
C168	C	1.758267	0.262410	1.630389
C169	C	1.243321	-0.262190	0.922502
C170	C	1.576655	0.071144	1.255835
C171	C	1.909988	0.404477	1.589168
C172	C	1.243321	-0.262182	0.839951
C173	C	1.576655	0.071151	1.173284
C174	C	1.909988	0.404485	1.506617
C175	C	1.192743	-0.309533	0.798657
C176	C	1.526076	0.023801	1.131990
C177	C	1.859409	0.357134	1.465323
C178	C	1.142169	-0.356894	0.839915
C179	C	1.475502	-0.023561	1.173248
C180	C	1.808836	0.309773	1.506582
C181	C	1.091595	-0.404248	0.798623
C182	C	1.424929	-0.070914	1.131956
C183	C	1.758262	0.262419	1.465289
C184	C	1.041017	-0.451606	0.839879
C185	C	1.374350	-0.118272	1.173213
C186	C	1.707684	0.215061	1.506546
C187	C	1.041022	-0.451607	0.922428
C188	C	1.374355	-0.118274	1.255761
C189	C	1.707689	0.215059	1.589095
C190	C	1.192738	-0.309531	0.716108
C191	C	1.526071	0.023802	1.049442
C192	C	1.859404	0.357136	1.382775
C193	C	1.091593	-0.404245	0.716069
C194	C	1.424926	-0.070911	1.049402
C195	C	1.758259	0.262422	1.382736
C196	C	1.142185	-0.356914	1.175425
C197	C	1.475518	-0.023581	1.508758
C198	C	1.808852	0.309753	1.842091
C199	C	1.142177	-0.356906	1.087568
C200	C	1.475510	-0.023573	1.420901
C201	C	1.808844	0.309760	1.754235
H202	H	0.841282	-0.442939	0.472324
H203	H	1.174615	-0.109605	0.805657
H204	H	1.507949	0.223728	1.138990
H205	H	1.050421	-0.442816	1.079870
H206	H	1.383755	-0.109482	1.413204
H207	H	1.717088	0.223851	1.746537
H208	H	0.717451	-0.490395	0.522799
H209	H	1.050785	-0.157062	0.856132
H210	H	1.384118	0.176271	1.189466
H211	H	1.233920	-0.270975	0.682521
H212	H	1.567253	0.062359	1.015854
H213	H	1.900586	0.395692	1.349187
H214	H	1.189281	-0.792769	0.257971
H215	H	1.522614	-0.459436	0.591304
H216	H	1.855948	-0.126103	0.924637
H217	H	0.999847	-0.490166	0.956027
H218	H	1.333180	-0.156833	1.289360
H219	H	1.666513	0.176501	1.622693
H220	H	1.233927	-0.271000	1.079932
H221	H	1.567261	0.062333	1.413266
H222	H	1.900594	0.395666	1.746599
H223	H	0.567706	-0.223420	0.238809
H224	H	0.901039	0.109913	0.572142
H225	H	1.234373	0.443246	0.905476
H226	H	0.443870	-0.442985	0.472351
H227	H	0.777204	-0.109651	0.805685
H228	H	1.110537	0.223682	1.139018
H229	H	0.443877	-0.270869	0.289278
H230	H	0.777211	0.062464	0.622611
H231	H	1.110544	0.395797	0.955944
H232	H	1.011203	-0.792181	0.398966
H233	H	1.344537	-0.458848	0.732299
H234	H	1.677870	-0.125515	1.065632
H235	H	1.189241	-0.919992	0.257627
H236	H	1.522574	-0.586659	0.590960
H237	H	1.855907	-0.253326	0.924294
H238	H	1.050402	-0.442800	0.682454
H239	H	1.383735	-0.109466	1.015788
H240	H	1.717068	0.223867	1.349121
H241	H	0.567690	-0.490407	0.522796
H242	H	0.901023	-0.157074	0.856129
H243	H	1.234356	0.176260	1.189463
H244	H	1.264797	-0.920837	0.333554
H245	H	1.598130	-0.587504	0.666887
H246	H	1.931463	-0.254171	1.000221
H247	H	0.841293	-0.270814	0.289238
H248	H	1.174627	0.062519	0.622571
H249	H	1.507960	0.395852	0.955905
H250	H	1.265346	-0.793207	0.333875
H251	H	1.598679	-0.459874	0.667208
H252	H	1.932013	-0.126541	1.000542
H253	H	1.226373	-0.918924	0.481867
H254	H	1.559706	-0.585591	0.815200
H255	H	1.893040	-0.252258	1.148533
H256	H	1.122808	-0.919733	0.510986
H257	H	1.456141	-0.586400	0.844319
H258	H	1.789474	-0.253066	1.177652
H259	H	1.121750	-0.793002	0.510974
H260	H	1.455083	-0.459669	0.844307
H261	H	1.788417	-0.126336	1.177640
H262	H	1.225217	-0.791853	0.482506
H263	H	1.558550	-0.458520	0.815839
H264	H	1.891884	-0.125186	1.149173
H265	H	1.038094	-0.920857	0.299784
H266	H	1.371427	-0.587524	0.633117
H267	H	1.704761	-0.254190	0.966450
H268	H	1.042024	-0.793288	0.296310
H269	H	1.375358	-0.459955	0.629644
H270	H	1.708691	-0.126621	0.962977
H271	H	1.284500	-0.223641	0.956128
H272	H	1.617834	0.109692	1.289461
H273	H	1.951167	0.443025	1.622795
H274	H	0.999843	-0.490164	0.806248
H275	H	1.333177	-0.156831	1.139582
H276	H	1.666510	0.176502	1.472915
H277	H	1.284505	-0.223620	0.806366
H278	H	1.617838	0.109713	1.139700
H279	H	1.951171	0.443047	1.473033
H280	H	0.717484	-0.223404	0.238789
H281	H	1.050818	0.109929	0.572122
H282	H	1.384151	0.443263	0.905455
H283	H	1.013230	-0.919483	0.404091
H284	H	1.346563	-0.586150	0.737425
H285	H	1.679896	-0.252817	1.070758
