data_functionalizedCrystal
_audit_creation_method	'MofGen! by Chris Wilmer'
_symmetry_space_group_name_H-M	'P1'
_symmetry_Int_Tables_number	1
_symmetry_cell_setting	triclinic
loop_
_symmetry_equiv_pos_as_xyz
  x,y,z
_cell_length_a	10.540558
_cell_length_b	9.016244
_cell_length_c	10.540510
_cell_angle_alpha	89.997372
_cell_angle_beta	95.476776
_cell_angle_gamma	89.997750
loop_
_atom_site_label
_atom_site_type_symbol
_atom_site_fract_x
_atom_site_fract_y
_atom_site_fract_z
O1	O	-1.685854	0.123288	0.179007
O2	O	-1.316442	0.123299	0.195838
O3	O	-1.509595	0.123293	0.002714
O4	O	-1.492700	0.123294	0.372131
O5	O	-1.509580	-0.123388	0.002726
O6	O	-1.316427	-0.123381	0.195850
O7	O	-1.685838	-0.123393	0.179019
Cu8	Cu	-1.501131	-0.145911	0.187435
Cu9	Cu	-1.501149	0.145817	0.187421
O10	O	-1.492685	-0.123387	0.372143
C11	C	-1.269132	-0.000040	0.194577
C12	C	-1.128185	-0.000035	0.190785
C13	C	-0.944775	-0.000614	0.045854
C14	C	-1.091392	-0.000041	0.049698
C15	C	-1.066514	0.140826	0.258671
C16	C	-0.919972	0.140926	0.253846
C17	C	-0.919466	-0.139596	0.256729
C18	C	-1.066446	-0.141440	0.258039
N19	N	-1.501128	-0.351097	0.187444
C20	C	-1.397758	-0.414064	0.290737
C21	C	-1.397406	-0.585955	0.290440
C22	C	-1.471586	-0.586572	0.054526
C23	C	-1.470823	-0.414627	0.055155
C24	C	-1.634386	-0.414438	0.215832
C25	C	-1.633541	-0.586395	0.218809
C26	C	-0.733150	-0.000055	0.180263
C27	C	-0.874103	-0.000062	0.184004
C28	C	-1.508329	-0.000045	-0.044584
C29	C	-1.504562	-0.000036	-0.185534
N30	N	-1.501162	0.351003	0.187402
C31	C	-1.638745	-0.000605	-0.402980
C32	C	-1.642763	-0.000041	-0.256384
C33	C	-1.433825	0.140830	-0.230304
C34	C	-1.430786	0.140941	-0.377065
C35	C	-1.427890	-0.139581	-0.376861
C36	C	-1.434445	-0.141436	-0.230519
C37	C	-1.493951	-0.000046	0.419440
C38	C	-1.497718	-0.000045	0.560391
H39	H	-1.090661	-0.149944	0.360901
H40	H	-0.887918	-0.246369	0.211074
H41	H	-1.662630	-0.371087	0.310761
H42	H	-1.544860	-0.627401	-0.024273
Cl43	Cl	-1.495231	-0.304427	-0.442470
Cl44	Cl	-1.513900	-0.302336	-0.186319
Cl45	Cl	-1.424643	-0.350245	0.443674
Cl46	Cl	-1.278661	-0.154566	-0.154780
Cl47	Cl	-0.845890	0.150801	0.410491
Cl48	Cl	-1.129528	-0.302330	0.181343
H49	H	-1.479140	0.246237	-0.417282
Cl50	Cl	-1.668171	-0.649382	0.369742
H51	H	-0.916190	-0.101635	-0.009880
H52	H	-1.375506	-0.629669	0.029196
Cl53	Cl	-1.244770	-0.649513	0.262140
Cl54	Cl	-1.424741	-0.651130	0.442853
Cl55	Cl	-0.898152	0.154472	-0.039856
H56	H	-1.692282	0.099843	-0.446487
Cl57	Cl	-0.846536	-0.141068	0.414056
Cl58	Cl	-1.245961	-0.347395	0.262854
H59	H	-1.327420	0.147326	-0.400067
Cl60	Cl	-1.132277	0.302684	0.185850
H61	H	-1.373619	-0.374546	0.030403
Cl62	Cl	-1.157189	-0.155936	-0.032776
H63	H	-1.543216	-0.372970	-0.024109
Cl64	Cl	-1.276746	0.148938	-0.157146
Cl65	Cl	-1.757976	-0.652642	0.110373
H66	H	-1.711320	-0.373706	0.140528
Cl67	Cl	-1.155826	0.156395	-0.033005
Cl68	Cl	-1.101045	0.148958	0.418625
Cl69	Cl	-1.728185	-0.155964	-0.211057
H70	H	-0.891773	0.246221	0.203657
H71	H	-1.482962	0.245659	-0.199449
H72	H	-1.692580	-0.101627	-0.444927
H73	H	-1.698444	0.101107	-0.227980
Cl74	Cl	-1.267692	-0.141047	-0.411071
