data_functionalizedCrystal
_audit_creation_method	'MofGen! by Chris Wilmer'
_symmetry_space_group_name_H-M	'P1'
_symmetry_Int_Tables_number	1
_symmetry_cell_setting	triclinic
loop_
_symmetry_equiv_pos_as_xyz
  x,y,z
_cell_length_a	10.967926
_cell_length_b	10.967829
_cell_length_c	13.448316
_cell_angle_alpha	77.865540
_cell_angle_beta	102.122502
_cell_angle_gamma	87.248880
loop_
_atom_site_label
_atom_site_type_symbol
_atom_site_fract_x
_atom_site_fract_y
_atom_site_fract_z
O1	O	1.657148	0.175008	0.171296
O2	O	1.294007	0.191768	0.106193
O3	O	1.483950	0.001808	0.171299
O4	O	1.467205	0.364968	0.106191
O5	O	1.483926	0.001796	0.336680
O6	O	1.293983	0.191756	0.271575
O7	O	1.657124	0.174996	0.336678
Cu8	Cu	1.475551	0.183375	0.319227
Cu9	Cu	1.475580	0.183389	0.123644
O10	O	1.467181	0.364956	0.271573
C11	C	1.247496	0.190543	0.181125
C12	C	1.108946	0.186898	0.158006
C13	C	1.047163	0.185266	0.233372
C14	C	0.903964	0.181498	0.209480
C15	C	1.482717	-0.044699	0.261748
C16	C	1.479067	-0.183256	0.284862
C17	C	1.477452	-0.245017	0.209493
C18	C	1.473679	-0.388223	0.233380
C19	C	1.703634	0.176221	0.261744
C20	C	1.842185	0.179867	0.284856
C21	C	1.468413	0.411463	0.181121
C22	C	1.472064	0.550020	0.158001
N23	N	1.475540	0.183364	0.456791
N24	N	1.475600	0.183390	-0.013917
C25	C	1.559673	0.099285	0.537659
C26	C	1.559681	0.099284	0.641764
C27	C	1.475561	0.183369	0.664999
C28	C	1.391418	0.267452	0.584122
C29	C	1.391405	0.267446	0.480019
C30	C	1.391453	0.267461	0.801106
C31	C	1.391467	0.267469	0.905216
C32	C	1.559729	0.099299	0.962851
C33	C	1.559716	0.099293	0.858748
C34	C	1.475575	0.183378	0.777878
H35	H	1.478857	-0.191872	0.127281
F36	F	1.649224	0.009797	0.727830
F37	F	0.911604	0.181672	0.392324
H38	H	1.472260	-0.441361	0.315595
H39	H	1.473460	-0.396841	0.075782
F40	F	1.477214	-0.252711	0.392317
H41	H	1.055827	0.185502	0.075796
F42	F	1.649252	0.009809	0.834020
H43	H	1.322919	0.335912	0.603045
F44	F	1.649214	0.009794	0.512943
H45	H	1.628239	0.030834	1.028702
H46	H	1.322966	0.335939	0.924125
F47	F	0.834545	0.179669	0.102017
H48	H	1.322894	0.335911	0.414175
F49	F	1.116589	0.187082	0.340831
F50	F	1.301895	0.356952	0.715041
