data_functionalizedCrystal
_audit_creation_method	'MofGen! by Chris Wilmer'
_symmetry_space_group_name_H-M	'P1'
_symmetry_Int_Tables_number	1
_symmetry_cell_setting	triclinic
loop_
_symmetry_equiv_pos_as_xyz
  x,y,z
_cell_length_a	21.295418
_cell_length_b	21.295418
_cell_length_c	12.759393
_cell_angle_alpha	90.037482
_cell_angle_beta	90.040879
_cell_angle_gamma	90.043213
loop_
_atom_site_label
_atom_site_type_symbol
_atom_site_fract_x
_atom_site_fract_y
_atom_site_fract_z
Zn1	Zn	0.962352	-0.250306	0.594566
Zn2	Zn	1.295685	0.083027	0.927899
Zn3	Zn	1.629018	0.416360	1.261233
Zn4	Zn	0.962265	-0.355590	0.418868
Zn5	Zn	1.295598	-0.022257	0.752201
Zn6	Zn	1.628932	0.311076	1.085534
Zn7	Zn	0.857080	-0.250368	0.418837
Zn8	Zn	1.190413	0.082965	0.752170
Zn9	Zn	1.523747	0.416299	1.085503
Zn10	Zn	0.857050	-0.355571	0.594441
Zn11	Zn	1.190383	-0.022237	0.927774
Zn12	Zn	1.523717	0.311096	1.261107
O13	O	0.909687	-0.302959	0.506678
O14	O	1.243020	0.030375	0.840011
O15	O	1.576353	0.363708	1.173344
O16	O	1.050430	-0.264255	0.571325
O17	O	1.383763	0.069079	0.904658
O18	O	1.717096	0.402412	1.237991
O19	O	0.948288	-0.341666	0.271843
O20	O	1.281622	-0.008333	0.605176
O21	O	1.614955	0.325000	0.938509
O22	O	0.871093	-0.162270	0.442187
O23	O	1.204427	0.171063	0.775520
O24	O	1.537760	0.504396	1.108853
O25	O	1.050366	-0.341607	0.442240
O26	O	1.383699	-0.008273	0.775573
O27	O	1.717033	0.325060	1.108907
O28	O	0.948436	-0.162225	0.571294
O29	O	1.281769	0.171108	0.904628
O30	O	1.615103	0.504442	1.237961
O31	O	0.871009	-0.264360	0.271820
O32	O	1.204343	0.068973	0.605153
O33	O	1.537676	0.402307	0.938486
O34	O	0.768987	-0.264341	0.442065
O35	O	1.102320	0.068992	0.775399
O36	O	1.435653	0.402326	1.108732
O37	O	0.871042	-0.341573	0.741478
O38	O	1.204375	-0.008240	1.074812
O39	O	1.537709	0.325094	1.408145
O40	O	0.768965	-0.341633	0.571081
O41	O	1.102298	-0.008300	0.904414
O42	O	1.435631	0.325034	1.237748
O43	O	0.948407	-0.264236	0.741570
O44	O	1.281740	0.069098	1.074904
O45	O	1.615073	0.402431	1.408237
O46	O	0.948259	-0.443677	0.442119
O47	O	1.281592	-0.110344	0.775452
O48	O	1.614926	0.222990	1.108785
O49	O	0.870958	-0.443663	0.571111
O50	O	1.204291	-0.110329	0.904444
O51	O	1.537625	0.223004	1.237778
C52	C	0.909613	-0.466510	0.506628
C53	C	1.242946	-0.133177	0.839961
C54	C	1.576280	0.200156	1.173294
C55	C	0.909639	-0.536479	0.506641
C56	C	1.242972	-0.203145	0.839975
C57	C	1.576306	0.130188	1.173308
C58	C	0.746135	-0.302992	0.506557
C59	C	1.079468	0.030341	0.839890
C60	C	1.412802	0.363675	1.173223
C61	C	0.676167	-0.303021	0.506530
C62	C	1.009500	0.030312	0.839863
C63	C	1.342834	0.363645	1.173197
C64	C	0.950088	-1.035923	0.439681
C65	C	1.283422	-0.702590	0.773014
C66	C	1.616755	-0.369256	1.106347
C67	C	0.950065	-0.970180	0.439656
C68	C	1.283398	-0.636847	0.772989
C69	C	1.616731	-0.303514	1.106323
C70	C	0.909775	-0.937318	0.506751
C71	C	1.243109	-0.603985	0.840085
C72	C	1.576442	-0.270651	1.173418
C73	C	0.869496	-0.970203	0.573858
C74	C	1.202829	-0.636870	0.907191
C75	C	1.536162	-0.303537	1.240524
C76	C	0.869516	-1.035944	0.573873
C77	C	1.202850	-0.702611	0.907206
C78	C	1.536183	-0.369278	1.240540
N79	N	0.904884	-0.834059	0.598682
N80	N	1.238217	-0.500726	0.932015
N81	N	1.571550	-0.167393	1.265349
N82	N	0.904868	-0.771608	0.598664
N83	N	1.238201	-0.438275	0.931998
N84	N	1.571534	-0.104941	1.265331
C85	C	0.909710	-0.739243	0.506707
C86	C	1.243043	-0.405910	0.840041
C87	C	1.576376	-0.072577	1.173374
N88	N	0.914581	-0.771689	0.414766
N89	N	1.247914	-0.438356	0.748100
N90	N	1.581247	-0.105022	1.081433
N91	N	0.914600	-0.834146	0.414785
N92	N	1.247933	-0.500813	0.748119
N93	N	1.581267	-0.167480	1.081452
C94	C	0.909748	-0.866033	0.506742
C95	C	1.243082	-0.532699	0.840075
C96	C	1.576415	-0.199366	1.173408
C97	C	0.949958	-0.635080	0.439573
C98	C	1.283291	-0.301747	0.772906
C99	C	1.616624	0.031586	1.106240
C100	C	0.949929	-0.569337	0.439546
C101	C	1.283263	-0.236003	0.772880
C102	C	1.616596	0.097330	1.106213
C103	C	0.869364	-0.569361	0.573757
C104	C	1.202697	-0.236027	0.907091
C105	C	1.536031	0.097306	1.240424
C106	C	0.869389	-0.635103	0.573775
C107	C	1.202722	-0.301770	0.907108
C108	C	1.536056	0.031564	1.240441
C109	C	0.909689	-0.667959	0.506684
C110	C	1.243023	-0.334626	0.840017
C111	C	1.576356	-0.001292	1.173351
C112	C	0.643305	-0.343320	0.573608
C113	C	0.976639	-0.009987	0.906941
C114	C	1.309972	0.323346	1.240275
C115	C	0.577563	-0.343305	0.573655
C116	C	0.910896	-0.009972	0.906988
C117	C	1.244229	0.323362	1.240322
C118	C	0.544684	-0.302997	0.506606
C119	C	0.878018	0.030337	0.839939
C120	C	1.211351	0.363670	1.173272
C121	C	0.577554	-0.262690	0.439523
C122	C	0.910887	0.070644	0.772856
C123	C	1.244221	0.403977	1.106190
C124	C	0.643295	-0.262702	0.439485
C125	C	0.976629	0.070631	0.772818
C126	C	1.309962	0.403965	1.106152
N127	N	0.441411	-0.298087	0.414714
N128	N	0.774744	0.035247	0.748048
N129	N	1.108078	0.368580	1.081381
N130	N	0.378959	-0.298079	0.414753
N131	N	0.712293	0.035255	0.748086
N132	N	1.045626	0.368588	1.081420
C133	C	0.346610	-0.302957	0.506717
C134	C	0.679943	0.030377	0.840050
C135	C	1.013276	0.363710	1.173384
N136	N	0.379071	-0.307855	0.598643
N137	N	0.712404	0.025478	0.931976
N138	N	1.045737	0.358812	1.265309
N139	N	0.441528	-0.307866	0.598602
N140	N	0.774861	0.025467	0.931936
N141	N	1.108195	0.358800	1.265269
C142	C	0.473399	-0.302979	0.506640
C143	C	0.806732	0.030355	0.839973
C144	C	1.140066	0.363688	1.173306
C145	C	0.242463	-0.343241	0.573852
C146	C	0.575796	-0.009908	0.907185
C147	C	0.909129	0.323425	1.240518
C148	C	0.176719	-0.343221	0.573901
C149	C	0.510052	-0.009888	0.907234
C150	C	0.843386	0.323445	1.240567
C151	C	0.176711	-0.262609	0.439759
C152	C	0.510045	0.070724	0.773092
C153	C	0.843378	0.404057	1.106426
C154	C	0.242454	-0.262626	0.439720
C155	C	0.575787	0.070707	0.773053
C156	C	0.909121	0.404041	1.106386
C157	C	0.275326	-0.302945	0.506764
C158	C	0.608659	0.030388	0.840098
C159	C	0.941992	0.363721	1.173431
C160	C	1.073877	-0.302926	0.506800
C161	C	1.407210	0.030407	0.840133
C162	C	1.740544	0.363741	1.173466
C163	C	1.143845	-0.302912	0.506852
C164	C	1.477178	0.030421	0.840185
C165	C	1.810512	0.363755	1.173518
C166	C	0.909731	-0.302895	0.780711
C167	C	1.243064	0.030438	1.114045
C168	C	1.576397	0.363771	1.447378
C169	C	0.909750	-0.302868	0.897488
C170	C	1.243083	0.030465	1.230821
C171	C	1.576416	0.363798	1.564155
C172	C	0.909778	-0.138768	0.506751
C173	C	1.243111	0.194565	0.840084
C174	C	1.576444	0.527898	1.173418
C175	C	0.909817	-0.068800	0.506782
C176	C	1.243150	0.264533	0.840116
C177	C	1.576483	0.597866	1.173449
C178	C	0.909679	-0.302977	0.233710
C179	C	1.243012	0.030357	0.567044
C180	C	1.576346	0.363690	0.900377
C181	C	0.909782	-0.302826	0.116934
C182	C	1.243116	0.030507	0.450268
C183	C	1.576449	0.363840	0.783601
C184	C	0.950039	-0.262595	0.952400
C185	C	1.283372	0.070739	1.285733
C186	C	1.616706	0.404072	1.619066
C187	C	0.950054	-0.262572	1.062124
C188	C	1.283387	0.070761	1.395457
C189	C	1.616721	0.404095	1.728790
C190	C	0.869488	-0.343101	1.062015
C191	C	1.202822	-0.009768	1.395348
C192	C	1.536155	0.323565	1.728682
C193	C	0.869471	-0.343121	0.952293
C194	C	1.202804	-0.009787	1.285626
C195	C	1.536137	0.323546	1.618959
C196	C	0.990318	-0.222342	0.897595
C197	C	1.323651	0.110991	1.230928
C198	C	1.656984	0.444324	1.564261
C199	C	1.030611	-0.182066	0.952507
C200	C	1.363944	0.151267	1.285840
C201	C	1.697278	0.484600	1.619173
C202	C	1.030626	-0.182044	1.062231
C203	C	1.363959	0.151290	1.395564
C204	C	1.697293	0.484623	1.728897
C205	C	0.990348	-0.222297	1.117043
C206	C	1.323681	0.111036	1.450376
C207	C	1.657014	0.444370	1.783710
H208	H	0.982902	-1.062670	0.385047
H209	H	1.316235	-0.729337	0.718380
H210	H	1.649569	-0.396004	1.051713
H211	H	0.982772	-0.661833	0.384942
H212	H	1.316105	-0.328500	0.718276
H213	H	1.649438	0.004834	1.051609
Br214	Br	0.814737	-0.679726	0.664856
Br215	Br	1.148070	-0.346392	0.998189
Br216	Br	1.481404	-0.013059	1.331523
H217	H	0.990356	-0.222268	1.206388
H218	H	1.323689	0.111066	1.539721
H219	H	1.657022	0.444399	1.873055
H220	H	0.982722	-0.542567	0.384898
H221	H	1.316055	-0.209234	0.718232
H222	H	1.649388	0.124099	1.051565
H223	H	0.836696	-0.375874	1.106652
H224	H	1.170029	-0.042540	1.439985
H225	H	1.503362	0.290793	1.773319
Br226	Br	0.814858	-1.080567	0.664948
Br227	Br	1.148191	-0.747234	0.998281
Br228	Br	1.481525	-0.413900	1.331615
H229	H	0.836557	-0.542604	0.628384
H230	H	1.169890	-0.209271	0.961717
H231	H	1.503224	0.124062	1.295050
Br232	Br	0.687914	-0.398037	0.664599
Br233	Br	1.021247	-0.064704	0.997933
Br234	Br	1.354581	0.268629	1.331266
Br235	Br	0.287078	-0.397956	0.664843
Br236	Br	0.620411	-0.064623	0.998176
Br237	Br	0.953745	0.268711	1.331510
H238	H	0.670051	-0.229884	0.384862
H239	H	1.003384	0.103450	0.718195
H240	H	1.336718	0.436783	1.051529
Br241	Br	0.532955	-0.397999	0.664698
Br242	Br	0.866288	-0.064666	0.998031
Br243	Br	1.199621	0.268667	1.331365
Br244	Br	0.814789	-0.397775	0.877763
Br245	Br	1.148122	-0.064442	1.211096
Br246	Br	1.481456	0.268891	1.544429
H247	H	0.149964	-0.376037	0.628530
H248	H	0.483297	-0.042703	0.961863
H249	H	0.816631	0.290630	1.295197
Br250	Br	1.004718	-0.925551	0.348575
Br251	Br	1.338051	-0.592218	0.681908
Br252	Br	1.671385	-0.258884	1.015242
H253	H	0.550780	-0.229869	0.384933
H254	H	0.884114	0.103464	0.718266
H255	H	1.217447	0.436797	1.051599
H256	H	0.990311	-0.222358	0.808252
H257	H	1.323645	0.110976	1.141585
H258	H	1.656978	0.444309	1.474919
H259	H	0.149943	-0.229787	0.385171
H260	H	0.483276	0.103547	0.718504
H261	H	0.816609	0.436880	1.051838
Br262	Br	0.287055	-0.207931	0.348680
Br263	Br	0.620389	0.125402	0.682013
Br264	Br	0.953722	0.458735	1.015346
Br265	Br	1.085259	-0.127427	0.878122
Br266	Br	1.418592	0.205906	1.211456
Br267	Br	1.751925	0.539239	1.544789
H268	H	0.836690	-0.943443	0.628486
H269	H	1.170024	-0.610110	0.961819
H270	H	1.503357	-0.276777	1.295153
Br271	Br	1.085309	-0.127385	1.136752
Br272	Br	1.418642	0.205948	1.470085
Br273	Br	1.751975	0.539281	1.803419
