data_functionalizedCrystal
_audit_creation_method	'MofGen! by Chris Wilmer'
_symmetry_space_group_name_H-M	'P1'
_symmetry_Int_Tables_number	1
_symmetry_cell_setting	triclinic
loop_
_symmetry_equiv_pos_as_xyz
  x,y,z
_cell_length_a	19.077713
_cell_length_b	11.169417
_cell_length_c	11.169409
_cell_angle_alpha	89.978317
_cell_angle_beta	87.738419
_cell_angle_gamma	92.268232
loop_
_atom_site_label
_atom_site_type_symbol
_atom_site_fract_x
_atom_site_fract_y
_atom_site_fract_z
Zn1	Zn	-0.280142	-1.853985	0.697761
Zn2	Zn	0.053191	-1.520651	1.031095
Zn3	Zn	0.386524	-1.187318	1.364428
Zn4	Zn	-0.397854	-1.861867	0.505128
Zn5	Zn	-0.064521	-1.528533	0.838462
Zn6	Zn	0.268813	-1.195200	1.171795
Zn7	Zn	-0.280181	-1.653273	0.497092
Zn8	Zn	0.053152	-1.319940	0.830425
Zn9	Zn	0.386485	-0.986606	1.163758
Zn10	Zn	-0.397793	-1.661267	0.705763
Zn11	Zn	-0.064459	-1.327933	1.039096
Zn12	Zn	0.268874	-0.994600	1.372429
O13	O	-0.338993	-1.757598	0.601436
O14	O	-0.005659	-1.424264	0.934769
O15	O	0.327674	-1.090931	1.268103
O16	O	-0.295766	-2.022981	0.672223
O17	O	0.037567	-1.689647	1.005556
O18	O	0.370900	-1.356314	1.338890
O19	O	-0.382286	-1.834150	0.336115
O20	O	-0.048953	-1.500816	0.669449
O21	O	0.284380	-1.167483	1.002782
O22	O	-0.181693	-1.673254	0.516999
O23	O	0.151641	-1.339921	0.850332
O24	O	0.484974	-1.006587	1.183666
O25	O	-0.382249	-2.028772	0.530696
O26	O	-0.048915	-1.695438	0.864030
O27	O	0.284418	-1.362105	1.197363
O28	O	-0.181664	-1.820716	0.664430
O29	O	0.151669	-1.487382	0.997763
O30	O	0.485002	-1.154049	1.331097
O31	O	-0.295833	-1.680897	0.330211
O32	O	0.037501	-1.347564	0.663544
O33	O	0.370834	-1.014230	0.996878
O34	O	-0.295773	-1.486383	0.524758
O35	O	0.037560	-1.153050	0.858091
O36	O	0.370893	-0.819716	1.191424
O37	O	-0.382144	-1.686878	0.872648
O38	O	-0.048811	-1.353544	1.205982
O39	O	0.284523	-1.020211	1.539315
O40	O	-0.382182	-1.492256	0.678067
O41	O	-0.048849	-1.158923	1.011401
O42	O	0.284485	-0.825589	1.344734
O43	O	-0.295707	-1.828467	0.866770
O44	O	0.037626	-1.495133	1.200103
O45	O	0.370960	-1.161800	1.533436
O46	O	-0.496329	-1.841901	0.538455
O47	O	-0.162996	-1.508568	0.871788
O48	O	0.170338	-1.175234	1.205122
O49	O	-0.496284	-1.694521	0.685860
O50	O	-0.162951	-1.361187	1.019193
O51	O	0.170383	-1.027854	1.352527
C52	C	-0.338976	-1.445772	0.601409
C53	C	-0.005642	-1.112439	0.934743
C54	C	0.327691	-0.779105	1.268076
C55	C	-0.338985	-1.312373	0.601428
C56	C	-0.005652	-0.979039	0.934761
C57	C	0.327681	-0.645706	1.268094
C58	C	-0.521842	-1.769966	0.613924
C59	C	-0.188509	-1.436633	0.947257
C60	C	0.144824	-1.103299	1.280591
C61	C	-0.600066	-1.775367	0.619307
C62	C	-0.266733	-1.442034	0.952640
C63	C	0.066601	-1.108700	1.285973
C64	C	-1.040375	-1.814100	0.657876
C65	C	-0.707042	-1.480767	0.991210
C66	C	-0.373709	-1.147433	1.324543
C67	C	-0.966876	-1.809012	0.652808
C68	C	-0.633542	-1.475679	0.986142
C69	C	-0.300209	-1.142345	1.319475
C70	C	-0.930207	-1.729754	0.573463
C71	C	-0.596874	-1.396420	0.906797
C72	C	-0.263540	-1.063087	1.240130
C73	C	-0.967042	-1.655587	0.499173
C74	C	-0.633709	-1.322254	0.832506
C75	C	-0.300375	-0.988920	1.165840
C76	C	-1.040540	-1.660682	0.504236
C77	C	-0.707207	-1.327349	0.837569
C78	C	-0.373874	-0.994015	1.170903
C79	C	-0.710399	-1.706296	0.550079
C80	C	-0.377066	-1.372962	0.883413
C81	C	-0.043733	-1.039629	1.216746
C82	C	-0.636896	-1.701204	0.545025
C83	C	-0.303563	-1.367870	0.878358
C84	C	0.029771	-1.034537	1.211691
C85	C	-0.636735	-1.854631	0.698659
C86	C	-0.303401	-1.521298	1.031992
C87	C	0.029932	-1.187964	1.365325
C88	C	-0.710234	-1.859714	0.703720
C89	C	-0.376901	-1.526380	1.037053
C90	C	-0.043568	-1.193047	1.370386
C91	C	-0.747063	-1.785552	0.629425
C92	C	-0.413729	-1.452218	0.962758
C93	C	-0.080396	-1.118885	1.296092
N94	N	-0.855079	-1.724548	0.568284
N95	N	-0.521745	-1.391215	0.901617
N96	N	-0.188412	-1.057881	1.234950
N97	N	-0.822190	-1.790764	0.634599
N98	N	-0.488856	-1.457431	0.967933
N99	N	-0.155523	-1.124097	1.301266
C100	C	-0.155429	-1.745214	0.588926
C101	C	0.177904	-1.411881	0.922259
C102	C	0.511238	-1.078547	1.255592
C103	C	-0.077205	-1.739937	0.583594
C104	C	0.256128	-1.406603	0.916928
C105	C	0.589462	-1.073270	1.250261
C106	C	-0.338914	-1.757685	0.914473
C107	C	-0.005581	-1.424351	1.247807
C108	C	0.327752	-1.091018	1.581140
C109	C	-0.338881	-1.757722	1.047871
C110	C	-0.005548	-1.424388	1.381204
C111	C	0.327786	-1.091055	1.714538
C112	C	-0.339004	-1.070641	0.601454
C113	C	-0.005671	-0.737308	0.934787
C114	C	0.327663	-0.403974	1.268120
C115	C	-0.338994	-1.204040	0.601436
C116	C	-0.005660	-0.870707	0.934769
C117	C	0.327673	-0.537373	1.268102
C118	C	-0.339020	-1.757577	0.289613
C119	C	-0.005686	-1.424244	0.622946
C120	C	0.327647	-1.090910	0.956280
C121	C	-0.338855	-1.757759	0.156202
C122	C	-0.005521	-1.424426	0.489536
C123	C	0.327812	-1.091092	0.822869
H124	H	-1.070225	-1.878629	0.722500
H125	H	-0.736892	-1.545296	1.055833
H126	H	-0.403559	-1.211963	1.389166
H127	H	-0.740085	-1.924268	0.768317
H128	H	-0.406751	-1.590935	1.101650
H129	H	-0.073418	-1.257602	1.434983
F130	F	-0.749586	-1.627359	0.471013
F131	F	-0.416252	-1.294026	0.804346
F132	F	-0.082919	-0.960693	1.137680
F133	F	-0.927682	-1.887947	0.731870
F134	F	-0.594348	-1.554614	1.065204
F135	F	-0.261015	-1.221280	1.398537
H136	H	-0.937182	-1.591057	0.434562
H137	H	-0.603849	-1.257724	0.767896
H138	H	-0.270516	-0.924391	1.101229
H139	H	-1.070526	-1.600290	0.443747
H140	H	-0.737193	-1.266957	0.777081
H141	H	-0.403859	-0.933624	1.110414
H142	H	-0.606742	-1.915012	0.759145
H143	H	-0.273409	-1.581678	1.092478
H144	H	0.059925	-1.248345	1.425811
F145	F	-0.597872	-1.616851	0.460562
F146	F	-0.264539	-1.283517	0.793895
F147	F	0.068795	-0.950184	1.127229
