data_functionalizedCrystal
_audit_creation_method	'MofGen! by Chris Wilmer'
_symmetry_space_group_name_H-M	'P1'
_symmetry_Int_Tables_number	1
_symmetry_cell_setting	triclinic
loop_
_symmetry_equiv_pos_as_xyz
  x,y,z
_cell_length_a	27.440280
_cell_length_b	14.628931
_cell_length_c	14.628931
_cell_angle_alpha	59.999972
_cell_angle_beta	90.003939
_cell_angle_gamma	59.998426
loop_
_atom_site_label
_atom_site_type_symbol
_atom_site_fract_x
_atom_site_fract_y
_atom_site_fract_z
Zr1	Zr	0.469502	1.000475	-0.119852
O2	O	0.391683	1.191198	-0.265831
O3	O	0.493358	0.809764	-0.075101
O4	O	0.493358	1.000470	-0.265807
O5	O	0.391683	1.000492	0.075307
O6	O	0.573560	1.000452	-0.265788
O7	O	0.391683	1.000492	-0.075125
O8	O	0.573560	0.659315	0.075350
O9	O	0.391683	1.341630	-0.265831
O10	O	0.563386	0.888189	-0.056002
O11	O	0.503532	0.888202	0.056250
O12	O	0.503532	1.112733	-0.168282
O13	O	0.443678	1.112747	-0.056030
Zr14	Zr	0.597417	1.000447	0.120100
Zr15	Zr	0.597416	1.000447	-0.119822
Zr16	Zr	0.469502	1.000475	0.120070
Zr17	Zr	0.469502	1.240397	-0.119852
Zr18	Zr	0.597416	0.760526	0.120100
O19	O	0.573561	1.191158	0.075349
O20	O	0.573561	1.191158	-0.265789
O21	O	0.391683	1.191198	0.075306
O22	O	0.675236	0.809724	0.266079
O23	O	0.675235	0.809724	-0.075058
O24	O	0.493358	0.809764	0.266036
O25	O	0.675235	1.000430	-0.075059
O26	O	0.573561	1.000452	0.266055
O27	O	0.493358	1.000470	0.266036
O28	O	0.675235	1.000430	0.075373
O29	O	0.493358	1.341608	-0.265808
O30	O	0.573561	0.659315	0.266055
O31	O	0.675235	0.659293	0.266079
O32	O	0.675235	0.659293	0.075374
O33	O	0.391683	1.341630	-0.075126
O34	O	0.493358	1.341608	-0.075102
O35	O	0.563387	0.888189	0.168530
O36	O	0.623241	0.888176	0.056278
O37	O	0.563387	1.112720	-0.056002
O38	O	0.503532	1.112733	0.056250
C39	C	0.533459	0.700356	0.000124
C40	C	0.533459	0.598503	0.000124
C41	C	0.563151	0.553087	-0.055560
C42	C	0.563151	0.447817	-0.055561
C43	C	0.373458	1.000496	0.000086
C44	C	0.319155	1.000508	0.000074
C45	C	0.013701	0.883230	0.058764
C46	C	-0.037318	0.883223	0.058774
O47	O	-0.037134	0.783540	0.108653
N48	N	-0.094078	1.000431	0.000164
C49	C	-0.099819	1.117655	-0.058451
O50	O	-0.152782	1.217349	-0.108302
C51	C	-0.048801	1.117661	-0.058454
C52	C	0.007959	1.000444	0.000151
C53	C	0.070458	0.766023	0.117365
C54	C	0.121473	0.766031	0.117353
C55	C	0.115730	0.883245	0.058740
C56	C	0.058974	1.000452	0.000139
C57	C	-0.054542	1.234883	-0.117061
C58	C	-0.003518	1.234878	-0.117058
C59	C	0.053241	1.117662	-0.058453
C60	C	0.104246	1.117674	-0.058486
N61	N	0.161006	1.000465	0.000125
C62	C	0.166748	0.883251	0.058737
C63	C	-0.206957	1.117634	-0.058439
C64	C	-0.257975	1.117629	-0.058444
C65	C	-0.195470	0.883197	0.058783
C66	C	-0.144452	0.883203	0.058780
C67	C	-0.150197	1.000425	0.000171
C68	C	0.273881	0.883276	0.058707
C69	C	0.324897	0.883294	0.058686
C70	C	0.262388	1.117726	-0.058535
C71	C	0.211376	1.117708	-0.058519
C72	C	0.217126	1.000473	0.000110
O73	O	0.104109	1.217306	-0.108335
O74	O	0.219714	0.783573	0.108592
C75	C	0.693460	1.000426	0.000161
C76	C	0.747763	1.000414	0.000174
C77	C	0.533459	1.000461	-0.299981
C78	C	0.533459	1.000461	-0.401834
C79	C	0.533460	1.300566	0.000123
C80	C	0.533460	1.402419	0.000123
C81	C	0.575449	1.000452	-0.447234
C82	C	0.575450	1.000452	-0.552504
C83	C	0.533460	1.000461	0.300229
C84	C	0.533460	1.000461	0.402082
C85	C	0.693460	0.700321	0.000162
C86	C	0.747763	0.598456	0.000175
C87	C	0.533459	0.700356	0.300230
C88	C	0.533459	0.598503	0.402083
C89	C	0.693461	0.700321	0.300267
C90	C	0.747763	0.598456	0.402133
C91	C	0.373458	1.300602	-0.300019
C92	C	0.319155	1.402467	-0.401885
C93	C	0.373458	1.300602	0.000086
C94	C	0.319156	1.402467	0.000073
C95	C	0.533459	1.300566	-0.299982
C96	C	0.533459	1.402419	-0.401835
C97	C	0.742021	0.550626	-0.058438
C98	C	0.793039	0.454926	-0.058448
C99	C	0.849799	0.407052	0.000161
C100	C	0.855540	0.454891	0.058776
C101	C	0.804523	0.550596	0.058779
C102	C	0.804513	0.550612	0.391376
C103	C	0.855542	0.454913	0.487081
C104	C	0.849819	0.407052	0.593541
C105	C	0.793063	0.454905	0.604296
C106	C	0.742036	0.550609	0.508592
C107	C	0.262405	1.450322	-0.391128
C108	C	0.211377	1.546051	-0.486833
C109	C	0.217100	1.593917	-0.593293
C110	C	0.273856	1.546058	-0.604048
C111	C	0.324883	1.450337	-0.508345
C112	C	0.324898	1.450307	0.058676
C113	C	0.273879	1.546033	0.058660
C114	C	0.217119	1.593910	0.000047
C115	C	0.211378	1.546066	-0.058564
C116	C	0.262396	1.450349	-0.058553
C117	C	0.563151	0.553087	0.503190
C118	C	0.563152	0.447817	0.608462
H119	H	0.588569	0.408766	-0.103240
H120	H	0.809206	0.589527	0.106515
C121	C	0.786717	0.402305	-0.122914
H122	H	0.825227	0.338460	-0.114539
H123	H	0.765519	0.364974	-0.093966
H124	H	0.765509	0.471026	-0.200019
C125	C	0.499102	0.455189	0.481005
H126	H	0.480473	0.413053	0.488204
H127	H	0.469557	0.545550	0.441277
H128	H	0.526082	0.439508	0.441254
H129	H	0.278508	1.585042	-0.690740
H130	H	0.891336	0.329122	0.000151
C131	C	0.905950	0.301782	0.698809
H132	H	0.894418	0.280131	0.763759
H133	H	0.929034	0.227114	0.698813
H134	H	0.929024	0.333172	0.698801
H135	H	0.175546	1.671859	-0.671212
H136	H	0.167685	0.670581	0.165070
H137	H	0.508035	0.441475	0.047794
C138	C	0.624016	1.000439	-0.394466
H139	H	0.617642	1.000447	-0.330638
H140	H	0.662170	0.925452	-0.372609
H141	H	0.622191	1.075429	-0.447599
H142	H	0.165169	1.585002	-0.478054
H143	H	0.508037	0.559455	0.393457
H144	H	0.901761	0.415898	0.106494
C145	C	0.387304	1.397690	-0.520191
H146	H	0.383399	1.439903	-0.597304
H147	H	0.408520	1.413353	-0.485293
H148	H	0.408501	1.307332	-0.485303
C149	C	0.387329	1.397659	0.123149
H150	H	0.416896	1.333791	0.114777
H151	H	0.391803	1.466363	0.094203
H152	H	0.391804	1.360324	0.200253
C153	C	0.810817	0.603250	0.274280
H154	H	0.772303	0.667096	0.218812
H155	H	0.832014	0.640585	0.265892
H156	H	0.832020	0.534536	0.265892
H157	H	0.588574	0.592133	-0.103228
C158	C	0.499128	0.545739	0.064551
H159	H	0.480506	0.587871	0.099499
H160	H	0.469579	0.561410	0.013944
H161	H	0.526127	0.455374	0.119982
C162	C	0.387333	0.754355	0.123156
H163	H	0.416897	0.771138	0.114751
H164	H	0.391815	0.706193	0.200258
H165	H	0.391806	0.706196	0.094213
C166	C	0.484899	1.000445	-0.454583
H167	H	0.458559	1.000434	-0.412441
H168	H	0.463096	1.075419	-0.529419
H169	H	0.503088	0.925441	-0.454406
C170	C	0.624018	1.000437	-0.605237
H171	H	0.617650	1.000428	-0.669068
H172	H	0.622200	1.075413	-0.627085
H173	H	0.662173	0.925436	-0.552091
H174	H	0.278566	1.584971	0.106391
C175	C	0.161005	1.699194	0.000048
H176	H	0.172560	1.720814	0.043356
H177	H	0.137920	1.773875	-0.074616
H178	H	0.137923	1.667829	0.031431
H179	H	0.278572	0.787812	0.106450
C180	C	0.148941	1.598732	-0.123023
H181	H	0.119383	1.662577	-0.114618
H182	H	0.144453	1.636073	-0.200126
H183	H	0.144462	1.530027	-0.094068
C184	C	0.076785	0.637076	0.181837
H185	H	0.117898	0.567285	0.216724
H186	H	0.058188	0.632178	0.237301
H187	H	0.058184	0.632200	0.131246
H188	H	0.257712	1.411400	-0.106272
C189	C	0.786775	0.402238	0.721405
H190	H	0.825296	0.338377	0.776853
H191	H	0.765576	0.470926	0.729819
H192	H	0.765583	0.364886	0.729799
C193	C	0.679614	0.603213	0.520439
H194	H	0.683520	0.560986	0.597551
H195	H	0.658400	0.693570	0.485543
H196	H	0.658416	0.587507	0.485550
H197	H	0.257734	1.411355	-0.304452
H198	H	0.901750	0.415960	0.478304
H199	H	0.695808	0.589604	-0.106179
H200	H	0.588569	0.592145	0.511816
C201	C	0.597492	0.395066	0.725631
H202	H	0.592984	0.331240	0.781014
H203	H	0.638605	0.357681	0.734096
H204	H	0.582064	0.463738	0.734075
H205	H	-0.098239	0.787755	0.106511
H206	H	-0.190802	0.787754	0.106505
H207	H	-0.304187	1.213079	-0.106180
H208	H	-0.211643	1.213096	-0.106171
H209	H	-0.008203	1.330337	-0.164771
C210	C	-0.116967	1.363823	-0.181519
H211	H	-0.113070	1.433620	-0.216408
H212	H	-0.138180	1.368718	-0.236980
H213	H	-0.138162	1.368690	-0.130923
H214	H	0.165159	1.213155	-0.106255
C215	C	0.256078	1.246655	-0.123003
H216	H	0.214969	1.316468	-0.157914
H217	H	0.274688	1.251516	-0.072417
H218	H	0.274678	1.251529	-0.178467
H219	H	0.497506	1.000476	-0.558886
