data_functionalizedCrystal
_audit_creation_method	'MofGen! by Chris Wilmer'
_symmetry_space_group_name_H-M	'P1'
_symmetry_Int_Tables_number	1
_symmetry_cell_setting	triclinic
loop_
_symmetry_equiv_pos_as_xyz
  x,y,z
_cell_length_a	9.065218
_cell_length_b	9.730217
_cell_length_c	9.065215
_cell_angle_alpha	90.002321
_cell_angle_beta	85.015291
_cell_angle_gamma	90.001491
loop_
_atom_site_label
_atom_site_type_symbol
_atom_site_fract_x
_atom_site_fract_y
_atom_site_fract_z
O1	O	1.960393	0.114290	0.216355
O2	O	1.531108	0.114292	0.234101
O3	O	1.754626	0.114285	0.010585
O4	O	1.736875	0.114297	0.439870
O5	O	1.754619	-0.114295	0.010583
O6	O	1.531101	-0.114288	0.234099
O7	O	1.960386	-0.114290	0.216352
Zn8	Zn	1.745742	-0.150581	0.225225
Zn9	Zn	1.745752	0.150583	0.225228
O10	O	1.736868	-0.114283	0.439868
C11	C	1.476118	0.000002	0.232394
C12	C	1.312275	0.000003	0.227295
N13	N	1.745747	-0.356117	0.225223
C14	C	1.943754	-0.356114	0.027358
C15	C	2.042768	-0.428052	-0.071570
C16	C	2.042783	-0.571932	-0.071571
C17	C	1.943771	-0.643877	0.027364
C18	C	1.844757	-0.571939	0.126292
C19	C	1.844756	-0.428056	0.126285
C20	C	1.646745	-0.571942	0.324147
C21	C	1.646735	-0.428062	0.324157
C22	C	1.547733	-0.643887	0.423082
C23	C	1.448724	-0.571949	0.522019
C24	C	1.448714	-0.428060	0.522017
C25	C	1.547721	-0.356124	0.423085
C26	C	2.015376	0.000003	0.218059
C27	C	2.179219	0.000012	0.223159
C28	C	1.752917	-0.000003	-0.044403
C29	C	1.747819	0.000001	-0.208246
N30	N	1.745759	0.356120	0.225219
C31	C	1.738576	0.000009	0.494856
C32	C	1.743674	0.000014	0.658699
H33	H	1.943764	-0.238959	0.027361
H34	H	1.547743	-0.761041	0.423071
F35	F	2.148135	-0.351477	-0.176864
H36	H	2.123403	-0.630504	-0.152131
F37	F	1.343351	-0.648523	0.627293
F38	F	1.943773	-0.797007	0.027344
H39	H	1.368080	-0.369496	0.602571
H40	H	1.547727	-0.238969	0.423080
