data_functionalizedCrystal
_audit_creation_method	'MofGen! by Chris Wilmer'
_symmetry_space_group_name_H-M	'P1'
_symmetry_Int_Tables_number	1
_symmetry_cell_setting	triclinic
loop_
_symmetry_equiv_pos_as_xyz
  x,y,z
_cell_length_a	12.759395
_cell_length_b	29.839131
_cell_length_c	12.759387
_cell_angle_alpha	89.962744
_cell_angle_beta	89.979491
_cell_angle_gamma	90.042957
loop_
_atom_site_label
_atom_site_type_symbol
_atom_site_fract_x
_atom_site_fract_y
_atom_site_fract_z
Zn1	Zn	1.606074	-0.178811	-0.593958
Zn2	Zn	1.605882	-0.253949	-0.418259
Zn3	Zn	1.430372	-0.178836	-0.418295
Zn4	Zn	1.430282	-0.253917	-0.593898
O5	O	1.518153	-0.216378	-0.506102
O6	O	1.753069	-0.188782	-0.570661
O7	O	1.582558	-0.244009	-0.271242
O8	O	1.453797	-0.115965	-0.441637
O9	O	1.752929	-0.243985	-0.441575
O10	O	1.582884	-0.115947	-0.570696
O11	O	1.453611	-0.188823	-0.271269
O12	O	1.283339	-0.188792	-0.441579
O13	O	1.453644	-0.243930	-0.740927
O14	O	1.283273	-0.243954	-0.570593
O15	O	1.582797	-0.188751	-0.740971
O16	O	1.582471	-0.316812	-0.441517
O17	O	1.453458	-0.316788	-0.570558
C18	C	1.245185	-0.216373	-0.506084
C19	C	1.128408	-0.216381	-0.506101
C20	C	1.517963	-0.333101	-0.506050
C21	C	1.517978	-0.383035	-0.506063
C22	C	1.128378	-0.273914	-0.640227
C23	C	1.073502	-0.302684	-0.707293
C24	C	0.963781	-0.302690	-0.707306
C25	C	0.908933	-0.273921	-0.640248
C26	C	0.963808	-0.245151	-0.573182
C27	C	1.073532	-0.245150	-0.573174
C28	C	0.963838	-0.187617	-0.439063
C29	C	1.073560	-0.187613	-0.439043
C30	C	0.908990	-0.158848	-0.372005
C31	C	0.963866	-0.130079	-0.304933
C32	C	1.073594	-0.130076	-0.304922
C33	C	1.128436	-0.158843	-0.371978
C34	C	1.585452	-0.692678	-0.439009
C35	C	1.585581	-0.880351	-0.439049
O36	O	1.642799	-0.904616	-0.381997
N37	N	1.518370	-0.903820	-0.506181
C38	C	1.451127	-0.880368	-0.573313
O39	O	1.393971	-0.904636	-0.630421
C40	C	1.451004	-0.692696	-0.573277
C41	C	1.518211	-0.669229	-0.506133
C42	C	1.652655	-0.669211	-0.371871
C43	C	1.652617	-0.622296	-0.371857
C44	C	1.585377	-0.598847	-0.438981
C45	C	1.518174	-0.622314	-0.506119
C46	C	1.383766	-0.669245	-0.640413
C47	C	1.383743	-0.622324	-0.640400
C48	C	1.450951	-0.598857	-0.573256
C49	C	1.450897	-0.551950	-0.573230
N50	N	1.518108	-0.528481	-0.506098
C51	C	1.585348	-0.551929	-0.438974
C52	C	1.451195	-0.978899	-0.573326
C53	C	1.451225	-1.025817	-0.573334
C54	C	1.585680	-1.025796	-0.439071
C55	C	1.585645	-0.978878	-0.439059
C56	C	1.518406	-0.955430	-0.506194
C57	C	1.585264	-0.453404	-0.438949
C58	C	1.585218	-0.406484	-0.438939
C59	C	1.450767	-0.406508	-0.573205
C60	C	1.450808	-0.453424	-0.573212
C61	C	1.518066	-0.476870	-0.506081
O62	O	1.393717	-0.527656	-0.630260
O63	O	1.642512	-0.527653	-0.381890
C64	C	1.585489	-0.739594	-0.439022
C65	C	1.518286	-0.763060	-0.506160
C66	C	1.451045	-0.739611	-0.573284
C67	C	1.518315	-0.809978	-0.506168
C68	C	1.585555	-0.833427	-0.439044
C69	C	1.652766	-0.809958	-0.371912
C70	C	1.652729	-0.763042	-0.371898
C71	C	1.383835	-0.763081	-0.640416
C72	C	1.383876	-0.809996	-0.640423
C73	C	1.451117	-0.833445	-0.573299
C74	C	1.792186	-0.216384	-0.506121
C75	C	1.908963	-0.216387	-0.506129
C76	C	1.518232	-0.216334	-0.780136
C77	C	1.518266	-0.216315	-0.896913
C78	C	1.518372	-0.099200	-0.506177
C79	C	1.518465	-0.049265	-0.506210
C80	C	1.652762	-0.158860	-0.896978
C81	C	1.720025	-0.130126	-0.951872
C82	C	1.720050	-0.130110	-1.061594
C83	C	1.652804	-0.158830	-1.116424
C84	C	1.585541	-0.187564	-1.061531
C85	C	1.585525	-0.187578	-0.951806
C86	C	1.451041	-0.245016	-1.061465
C87	C	1.451019	-0.245035	-0.951743
C88	C	1.383794	-0.273736	-1.116295
C89	C	1.316535	-0.302473	-1.061401
C90	C	1.316513	-0.302489	-0.951673
C91	C	1.383756	-0.273770	-0.896849
C92	C	1.518134	-0.216390	-0.233135
C93	C	1.518304	-0.216282	-0.116359
H94	H	1.118172	-0.326106	-0.761892
H95	H	0.819591	-0.273924	-0.640273
H96	H	1.329138	-0.829099	-0.695099
C97	C	1.793987	-0.098534	-0.891563
H98	H	1.834041	-0.081415	-0.939971
H99	H	1.839721	-0.115725	-0.848750
H100	H	1.753819	-0.078961	-0.848774
C101	C	0.903533	-0.098438	-0.231180
H102	H	0.830328	-0.102562	-0.240793
H103	H	0.921572	-0.068261	-0.246684
H104	H	0.921465	-0.104978	-0.160553
H105	H	1.396086	-0.472531	-0.627889
H106	H	1.329081	-0.743992	-0.695078
H107	H	1.383749	-0.273781	-0.807508
H108	H	1.261728	-0.325883	-0.906985
C109	C	1.383823	-0.273719	-1.236986
H110	H	1.433520	-0.252497	-1.261828
H111	H	1.316048	-0.265943	-1.261807
H112	H	1.401940	-0.302711	-1.261781
C113	C	0.788300	-0.158851	-0.372016
H114	H	0.763496	-0.137595	-0.322482
H115	H	0.763422	-0.187832	-0.353719
H116	H	0.763522	-0.151118	-0.439856
C117	C	1.726559	-0.596489	-0.298011
H118	H	1.766613	-0.617179	-0.258051
H119	H	1.686396	-0.578216	-0.252187
H120	H	1.772309	-0.578156	-0.338247
H121	H	1.118268	-0.106644	-0.250316
C122	C	1.242576	-0.334061	-1.121714
H123	H	1.252226	-0.329937	-1.194922
H124	H	1.171995	-0.327488	-1.103724
H125	H	1.257897	-0.364252	-1.103719
H126	H	1.217719	-0.273916	-0.640215
C127	C	1.652823	-0.158811	-1.237115
H128	H	1.603140	-0.180028	-1.261908
H129	H	1.720609	-0.166578	-1.261947
H130	H	1.634709	-0.129813	-1.261949
H131	H	1.217777	-0.158843	-0.371972
H132	H	1.774815	-0.106709	-1.106288
H133	H	0.919101	-0.326114	-0.761922
H134	H	1.639946	-0.387379	-0.384258
H135	H	1.640034	-0.472488	-0.384287
H136	H	1.640372	-0.959774	-0.384385
C137	C	1.726619	-0.694998	-0.298022
H138	H	1.766626	-0.674296	-0.258037
H139	H	1.772396	-0.713270	-0.338238
H140	H	1.686457	-0.713329	-0.252204
C141	C	1.659640	-1.051596	-0.365233
H142	H	1.650029	-1.082898	-0.374864
H143	H	1.644303	-1.043937	-0.294626
H144	H	1.730223	-1.043874	-0.380678
H145	H	1.396488	-1.044919	-0.627999
C146	C	1.377217	-0.953112	-0.647168
H147	H	1.337190	-0.973812	-0.687136
H148	H	1.417356	-0.934776	-0.692986
H149	H	1.331443	-0.934844	-0.606925
C150	C	1.376813	-0.380709	-0.647040
H151	H	1.386432	-0.349406	-0.637419
H152	H	1.306231	-0.388431	-0.631617
H153	H	1.392173	-0.388367	-0.717649
C154	C	1.309779	-0.596534	-0.714251
H155	H	1.269758	-0.617232	-0.754231
H156	H	1.349933	-0.578198	-0.760057
H157	H	1.264000	-0.578266	-0.674016
C158	C	1.726727	-0.835758	-0.298076
H159	H	1.717120	-0.867060	-0.307712
H160	H	1.711388	-0.828101	-0.227467
H161	H	1.797310	-0.828034	-0.313519
C162	C	1.309844	-0.695048	-0.714280
H163	H	1.269811	-0.674357	-0.754259
H164	H	1.264090	-0.713386	-0.674072
H165	H	1.350033	-0.713315	-0.760102
C166	C	1.652741	-0.158879	-0.776288
H167	H	1.702418	-0.137659	-0.751495
H168	H	1.670839	-0.187875	-0.751448
H169	H	1.584952	-0.151105	-0.751462
H170	H	1.707456	-0.743939	-0.317223
