data_functionalizedCrystal
_audit_creation_method	'MofGen! by Chris Wilmer'
_symmetry_space_group_name_H-M	'P1'
_symmetry_Int_Tables_number	1
_symmetry_cell_setting	triclinic
loop_
_symmetry_equiv_pos_as_xyz
  x,y,z
_cell_length_a	14.044220
_cell_length_b	10.654549
_cell_length_c	13.101039
_cell_angle_alpha	93.389233
_cell_angle_beta	86.332523
_cell_angle_gamma	88.836827
loop_
_atom_site_label
_atom_site_type_symbol
_atom_site_fract_x
_atom_site_fract_y
_atom_site_fract_z
O1	O	0.128041	1.687555	0.085194
O2	O	0.461375	2.020889	0.418527
O3	O	0.794708	2.354222	0.751860
O4	O	0.140735	1.323353	0.085201
O5	O	0.474068	1.656686	0.418535
O6	O	0.807401	1.990020	0.751868
O7	O	-0.003632	1.499987	0.085188
O8	O	0.329701	1.833320	0.418521
O9	O	0.663035	2.166653	0.751854
O10	O	0.272408	1.510922	0.085208
O11	O	0.605741	1.844255	0.418541
O12	O	0.939075	2.177588	0.751874
O13	O	0.006744	1.487315	-0.085241
O14	O	0.340077	1.820649	0.248092
O15	O	0.673410	2.153982	0.581425
O16	O	0.151110	1.310682	-0.085228
O17	O	0.484443	1.644015	0.248106
O18	O	0.817777	1.977348	0.581439
O19	O	0.138417	1.674884	-0.085235
O20	O	0.471750	2.008217	0.248098
O21	O	0.805083	2.341551	0.581432
Zn22	Zn	0.146411	1.490771	-0.112291
Zn23	Zn	0.479744	1.824104	0.221043
Zn24	Zn	0.813077	2.157438	0.554376
Zn25	Zn	0.132741	1.507466	0.112257
Zn26	Zn	0.466074	1.840799	0.445590
Zn27	Zn	0.799407	2.174133	0.778923
O28	O	0.282783	1.498250	-0.085221
O29	O	0.616117	1.831584	0.248112
O30	O	0.949450	2.164917	0.581445
C31	C	0.144990	1.270126	-0.000012
C32	C	0.478324	1.603459	0.333321
C33	C	0.811657	1.936792	0.666654
C34	C	0.142202	1.130402	-0.000010
C35	C	0.475535	1.463736	0.333324
C36	C	0.808869	1.797069	0.666657
C37	C	-0.033790	1.488865	-0.000027
C38	C	0.299543	1.822198	0.333306
C39	C	0.632877	2.155532	0.666639
C40	C	-0.139110	1.474590	-0.000028
C41	C	0.194224	1.807923	0.333305
C42	C	0.527557	2.141256	0.666638
C43	C	0.224576	0.928166	-0.000008
C44	C	0.557909	1.261499	0.333325
C45	C	0.891243	1.594832	0.666659
C46	C	0.227203	1.059451	-0.000002
C47	C	0.560536	1.392784	0.333332
C48	C	0.893869	1.726117	0.666665
C49	C	0.054568	1.070063	-0.000014
C50	C	0.387901	1.403397	0.333320
C51	C	0.721235	1.736730	0.666653
C52	C	0.051942	0.938781	-0.000013
C53	C	0.385275	1.272115	0.333321
C54	C	0.718609	1.605448	0.666654
C55	C	-0.331943	1.448492	-0.000013
C56	C	0.001390	1.781825	0.333320
C57	C	0.334723	2.115159	0.666654
C58	C	-0.388911	1.549740	-0.000012
C59	C	-0.055578	1.883073	0.333321
C60	C	0.277755	2.216407	0.666655
C61	C	-0.496211	1.535219	-0.000003
C62	C	-0.162877	1.868552	0.333330
C63	C	0.170456	2.201886	0.666663
C64	C	-0.224634	1.463011	-0.000021
C65	C	0.108699	1.796344	0.333312
C66	C	0.442033	2.129678	0.666645
C67	C	0.312941	1.509372	-0.000004
C68	C	0.646275	1.842705	0.333329
C69	C	0.979608	2.176039	0.666662
C70	C	0.418261	1.523648	0.000003
C71	C	0.751594	1.856981	0.333337
C72	C	1.084927	2.190315	0.666670
C73	C	0.134161	1.728111	-0.000019
C74	C	0.467494	2.061445	0.333314
C75	C	0.800828	2.394778	0.666647
C76	C	0.136949	1.867835	-0.000015
C77	C	0.470282	2.201169	0.333318
C78	C	0.803616	2.534502	0.666652
N79	N	0.155740	1.479386	-0.265538
N80	N	0.489073	1.812719	0.067795
N81	N	0.822406	2.146053	0.401128
C82	C	0.168441	1.463898	-0.474580
C83	C	0.501774	1.797231	-0.141246
C84	C	0.835107	2.130564	0.192087
C85	C	0.110706	1.534345	-0.525461
C86	C	0.444040	1.867678	-0.192127
C87	C	0.777373	2.201011	0.141206
C88	C	0.117773	1.525727	-0.641779
C89	C	0.451107	1.859060	-0.308445
C90	C	0.784440	2.192393	0.024888
C91	C	0.161375	1.472514	-0.358251
C92	C	0.494708	1.805847	-0.024918
C93	C	0.828042	2.139181	0.308415
N94	N	0.123404	1.518860	0.265504
N95	N	0.456738	1.852193	0.598838
N96	N	0.790071	2.185527	0.932171
H97	H	0.293795	0.870405	-0.000009
H98	H	0.627128	1.203738	0.333324
H99	H	0.960461	1.537072	0.666658
H100	H	-0.357103	1.647332	0.000055
H101	H	-0.023769	1.980666	0.333388
H102	H	0.309564	2.313999	0.666722
Br103	Br	0.346130	1.141324	0.000016
Br104	Br	0.679463	1.474657	0.333350
Br105	Br	1.012796	1.807991	0.666683
Br106	Br	0.019880	1.646232	-0.452470
Br107	Br	0.353214	1.979566	-0.119137
Br108	Br	0.686547	2.312899	0.214197
Br109	Br	-0.384964	1.285849	-0.000001
Br110	Br	-0.051631	1.619183	0.333333
Br111	Br	0.281702	1.952516	0.666666
Br112	Br	-0.060793	1.166354	-0.000019
Br113	Br	0.272541	1.499687	0.333314
Br114	Br	0.605874	1.833021	0.666648
H115	H	-0.019419	0.889660	-0.000015
H116	H	0.313914	1.222993	0.333318
H117	H	0.647248	1.556327	0.666651
H118	H	0.223173	1.397119	-0.518371
H119	H	0.556507	1.730452	-0.185038
H120	H	0.889840	2.063786	0.148295
