data_functionalizedCrystal
_audit_creation_method	'MofGen! by Chris Wilmer'
_symmetry_space_group_name_H-M	'P1'
_symmetry_Int_Tables_number	1
_symmetry_cell_setting	triclinic
loop_
_symmetry_equiv_pos_as_xyz
  x,y,z
_cell_length_a	10.654554
_cell_length_b	9.730223
_cell_length_c	17.699092
_cell_angle_alpha	89.999639
_cell_angle_beta	83.886605
_cell_angle_gamma	90.000386
loop_
_atom_site_label
_atom_site_type_symbol
_atom_site_fract_x
_atom_site_fract_y
_atom_site_fract_z
O1	O	1.665975	0.114290	0.106316
O2	O	2.165975	0.614290	0.606316
O3	O	1.300320	0.114291	0.116440
O4	O	1.800320	0.614291	0.616440
O5	O	1.493473	0.114287	0.001255
O6	O	1.993473	0.614287	0.501255
O7	O	1.472822	0.114294	0.221501
O8	O	1.972822	0.614294	0.721501
O9	O	1.493471	-0.114293	0.001258
O10	O	1.993471	0.385707	0.501258
O11	O	1.300318	-0.114289	0.116443
O12	O	1.800318	0.385711	0.616443
O13	O	1.665972	-0.114290	0.106319
O14	O	2.165972	0.385710	0.606319
Zn15	Zn	1.483145	-0.150581	0.111381
Zn16	Zn	1.983145	0.349419	0.611381
Zn17	Zn	1.483148	0.150583	0.111377
Zn18	Zn	1.983148	0.650583	0.611377
O19	O	1.472820	-0.114286	0.221504
O20	O	1.972820	0.385714	0.721504
C21	C	1.253534	0.000001	0.115697
C22	C	1.753534	0.500001	0.615697
C23	C	1.114130	0.000002	0.113471
C24	C	1.614130	0.500002	0.613471
C25	C	0.932825	0.000011	0.041466
C26	C	1.432825	0.500011	0.541466
C27	C	1.063810	0.000001	0.043557
C28	C	1.563810	0.500001	0.543557
C29	C	1.033457	-0.000002	0.181298
C30	C	1.533457	0.499998	0.681298
C31	C	0.902475	-0.000002	0.179206
C32	C	1.402475	0.499998	0.679206
C33	C	0.882513	0.000025	-0.028453
C34	C	1.382513	0.500025	0.471547
C35	C	0.963177	0.000026	-0.096281
C36	C	1.463177	0.500026	0.403719
C37	C	1.094162	0.000016	-0.094189
C38	C	1.594162	0.500016	0.405811
C39	C	1.144483	0.000005	-0.024270
C40	C	1.644483	0.500005	0.475730
N41	N	1.483152	-0.356118	0.111383
N42	N	1.983152	0.143882	0.611383
C43	C	1.568702	-0.428045	0.060397
C44	C	2.068702	0.071955	0.560397
C45	C	1.568698	-0.571928	0.060388
C46	C	2.068698	-0.071928	0.560388
C47	C	1.397592	-0.571943	0.162358
C48	C	1.897592	-0.071943	0.662358
C49	C	1.397590	-0.428063	0.162363
C50	C	1.897590	0.071937	0.662363
C51	C	1.654263	-0.356100	0.009417
C52	C	2.154263	0.143900	0.509417
C53	C	1.739821	-0.428028	-0.041573
C54	C	2.239821	0.071972	0.458427
C55	C	1.739818	-0.571911	-0.041582
C56	C	2.239818	-0.071911	0.458418
C57	C	1.654257	-0.643866	0.009399
C58	C	2.154257	-0.143866	0.509399
C59	C	1.712758	0.000003	0.107061
C60	C	2.212758	0.500003	0.607061
C61	C	1.852163	0.000012	0.109288
C62	C	2.352163	0.500012	0.609288
C63	C	1.492730	-0.000000	-0.026945
C64	C	1.992730	0.500000	0.473055
C65	C	1.490505	0.000006	-0.110977
C66	C	1.990505	0.500006	0.389023
N67	N	1.483151	0.356119	0.111369
N68	N	1.983151	0.856119	0.611369
C69	C	1.489464	0.124606	-0.150453
C70	C	1.989464	0.624606	0.349547
C71	C	1.487365	0.124608	-0.229409
C72	C	1.987365	0.624608	0.270591
C73	C	1.486316	0.000008	-0.268889
C74	C	1.986316	0.500008	0.231111
C75	C	1.487354	-0.124602	-0.229408
C76	C	1.987354	0.375398	0.270592
C77	C	1.489444	-0.124603	-0.150452
C78	C	1.989444	0.375397	0.349548
C79	C	1.478924	-0.124604	-0.547826
C80	C	1.978924	0.375396	-0.047826
C81	C	1.476838	-0.124595	-0.626788
C82	C	1.976838	0.375405	-0.126788
C83	C	1.476846	0.124606	-0.626783
C84	C	1.976846	0.624606	-0.126783
C85	C	1.478935	0.124606	-0.547828
C86	C	1.978935	0.624606	-0.047828
C87	C	1.479966	-0.000003	-0.508353
C88	C	1.979966	0.499997	-0.008353
C89	C	1.482239	-0.000003	-0.422739
C90	C	1.982239	0.499997	0.077261
C91	C	1.484052	0.000007	-0.354502
C92	C	1.984052	0.500007	0.145498
C93	C	1.473563	0.000005	0.249704
C94	C	1.973563	0.500005	0.749704
C95	C	1.475788	0.000007	0.333736
C96	C	1.975788	0.500007	0.833736
H97	H	1.074440	-0.000009	0.238223
H98	H	1.574440	0.499991	0.738223
H99	H	1.327927	-0.369499	0.203880
H100	H	1.827927	0.130501	0.703880
O101	O	1.490424	0.245768	-0.112218
O102	O	1.990424	0.745768	0.387782
C103	C	1.489084	0.355743	-0.163998
C104	C	1.989084	0.855743	0.336002
H105	H	1.447853	0.319211	-0.217355
H106	H	1.947853	0.819211	0.282645
H107	H	1.428743	0.442890	-0.136702
H108	H	1.928743	0.942890	0.363298
H109	H	1.589570	0.394056	-0.179805
H110	H	2.089570	0.894056	0.320195
H111	H	0.836797	-0.000007	0.234433
H112	H	1.336797	0.499993	0.734433
H113	H	1.475981	-0.226065	-0.658930
H114	H	1.975981	0.273935	-0.158930
H115	H	1.479789	-0.226069	-0.515697
H116	H	1.979789	0.273931	-0.015697
O117	O	1.271731	0.000237	-0.022275
O118	O	1.771731	0.500237	0.477725
C119	C	1.323825	0.118600	-0.059372
C120	C	1.823825	0.618600	0.440628
H121	H	1.248077	0.201345	-0.059366
H122	H	1.748077	0.701345	0.440634
H123	H	1.404914	0.158337	-0.028298
H124	H	1.904914	0.658337	0.471702
H125	H	1.360608	0.091830	-0.120446
H126	H	1.860608	0.591830	0.379554
O127	O	1.486148	0.245621	-0.267763
O128	O	1.986148	0.745621	0.232237
C129	C	1.376241	0.253114	-0.305452
C130	C	1.876241	0.753114	0.194548
H131	H	1.300866	0.182411	-0.276079
H132	H	1.800866	0.682411	0.223921
H133	H	1.339749	0.363328	-0.303648
H134	H	1.839749	0.863328	0.196352
H135	H	1.399234	0.219665	-0.367104
H136	H	1.899234	0.719665	0.132896
O137	O	1.480103	0.245584	-0.509433
O138	O	1.980103	0.745584	-0.009433
C139	C	1.589974	0.253078	-0.471710
C140	C	2.089974	0.753078	0.028290
H141	H	1.665404	0.182461	-0.501099
H142	H	2.165404	0.682461	-0.001099
H143	H	1.626408	0.363314	-0.473449
H144	H	2.126408	0.863314	0.026551
H145	H	1.566955	0.219519	-0.410078
H146	H	2.066955	0.719519	0.089922
H147	H	1.486492	-0.226054	-0.261558
H148	H	1.986492	0.273946	0.238442
H149	H	1.490274	-0.226065	-0.118311
H150	H	1.990274	0.273935	0.381689
O151	O	1.172572	-0.000229	-0.160052
O152	O	1.672572	0.499771	0.339948
C153	C	1.249265	-0.118597	-0.162960
C154	C	1.749265	0.381403	0.337040
H155	H	1.201180	-0.201345	-0.124512
H156	H	1.701180	0.298655	0.375488
H157	H	1.264171	-0.158326	-0.223849
H158	H	1.764171	0.341674	0.276151
H159	H	1.344458	-0.091838	-0.142872
H160	H	1.844458	0.408162	0.357128
H161	H	1.654276	-0.238943	0.009422
H162	H	2.154276	0.261057	0.509422
H163	H	1.809475	-0.369435	-0.083084
H164	H	2.309475	0.130565	0.416916
H165	H	1.476000	0.226069	-0.658933
H166	H	1.976000	0.726069	-0.158933
O167	O	0.914092	0.000093	-0.164131
O168	O	1.414092	0.500093	0.335869
C169	C	0.781186	0.000068	-0.151436
C170	C	1.281186	0.500068	0.348564
H171	H	0.750256	0.043345	-0.092535
H172	H	1.250256	0.543345	0.407465
H173	H	0.741103	0.066435	-0.196215
H174	H	1.241103	0.566435	0.303785
H175	H	0.744728	-0.109590	-0.155294
H176	H	1.244728	0.390410	0.344706
H177	H	1.327933	-0.630539	0.203866
H178	H	1.827933	-0.130539	0.703866
O179	O	1.822867	-0.641632	-0.091217
O180	O	2.322867	-0.141632	0.408783
C181	C	1.802675	-0.606483	-0.166254
C182	C	2.302675	-0.106483	0.333746
H183	H	1.754271	-0.502017	-0.166428
H184	H	2.254271	-0.002017	0.333572
H185	H	1.897184	-0.601553	-0.202993
H186	H	2.397184	-0.101553	0.297007
H187	H	1.740245	-0.687456	-0.190018
H188	H	2.240245	-0.187456	0.309982
H189	H	0.775860	0.000037	-0.030164
H190	H	1.275860	0.500037	0.469836
H191	H	1.654253	-0.761025	0.009382
H192	H	2.154253	-0.261025	0.509382
