data_functionalizedCrystal
_audit_creation_method	'MofGen! by Chris Wilmer'
_symmetry_space_group_name_H-M	'P1'
_symmetry_Int_Tables_number	1
_symmetry_cell_setting	triclinic
loop_
_symmetry_equiv_pos_as_xyz
  x,y,z
_cell_length_a	17.019282
_cell_length_b	17.038272
_cell_length_c	15.500237
_cell_angle_alpha	93.033514
_cell_angle_beta	91.034092
_cell_angle_gamma	87.241387
loop_
_atom_site_label
_atom_site_type_symbol
_atom_site_fract_x
_atom_site_fract_y
_atom_site_fract_z
O1	O	1.053050	0.099876	0.006537
O2	O	0.825047	0.111730	-0.010458
O3	O	0.937693	-0.008016	-0.002055
O4	O	0.940404	0.219622	-0.001866
O5	O	0.930855	-0.000777	0.141324
O6	O	0.818209	0.118969	0.132921
O7	O	1.046212	0.107114	0.149915
Cu8	Cu	0.931586	0.113703	0.154510
Cu9	Cu	0.939673	0.105142	-0.015052
O10	O	0.933565	0.226861	0.141512
C11	C	0.792310	0.114759	0.059047
C12	C	0.704954	0.112991	0.052535
C13	C	0.931809	-0.033532	0.069451
C14	C	0.924455	-0.120346	0.068903
C15	C	0.660190	0.116104	0.127634
C16	C	0.578110	0.114429	0.121519
C17	C	0.540794	0.109648	0.040304
C18	C	0.585564	0.106532	-0.034801
C19	C	0.667643	0.108201	-0.028684
C20	C	0.293154	0.104407	0.017927
C21	C	0.211069	0.102741	0.011816
C22	C	0.203621	0.110637	0.168136
C23	C	0.285701	0.112310	0.174245
C24	C	0.330464	0.109190	0.099141
C25	C	0.456894	0.107939	0.034051
C26	C	0.414362	0.110893	0.105395
C27	C	0.991975	-0.170267	0.073936
C28	C	0.985061	-0.251838	0.073413
C29	C	0.910625	-0.283485	0.067861
C30	C	0.843100	-0.233557	0.062825
C31	C	0.850015	-0.151988	0.063342
C32	C	0.886194	-0.529313	0.066029
C33	C	0.879284	-0.610888	0.065514
C34	C	1.021246	-0.629164	0.076100
C35	C	1.028154	-0.547592	0.076622
C36	C	0.960629	-0.497672	0.071581
C37	C	0.903555	-0.366863	0.067329
C38	C	0.967700	-0.414296	0.072108
C39	C	1.078948	0.104086	0.080409
C40	C	1.166305	0.105854	0.086915
C41	C	0.939450	0.252376	0.070005
C42	C	0.946804	0.339190	0.070548
N43	N	0.925903	0.119723	0.273771
C44	C	0.973654	0.069001	0.322610
C45	C	0.969364	0.073562	0.412862
C46	C	0.917327	0.128848	0.454275
C47	C	0.869571	0.179572	0.405430
C48	C	0.873857	0.175007	0.315178
C49	C	0.901885	0.145279	0.726590
C50	C	0.897604	0.149842	0.816848
C51	C	0.997397	0.043830	0.824275
C52	C	1.001682	0.039273	0.734021
C53	C	0.953923	0.089994	0.685184
C54	C	0.912943	0.133513	0.546528
C55	C	0.958304	0.085325	0.592932
N56	N	0.945355	0.099120	0.865687
H57	H	0.541667	0.116951	0.182672
H58	H	1.076220	-0.669817	0.080203
O59	O	0.549365	0.101751	-0.113714
C60	C	0.576082	0.032110	-0.159449
H61	H	0.599522	-0.012417	-0.111808
H62	H	0.525264	0.006518	-0.198817
H63	H	0.625062	0.045915	-0.204703
H64	H	1.000670	0.040308	0.559211
O65	O	0.321824	0.116921	0.253206
C66	C	0.264712	0.119331	0.318181
H67	H	0.208897	0.092248	0.291033
H68	H	0.288280	0.084650	0.374800
H69	H	0.250776	0.183043	0.341252
H70	H	0.870574	0.178529	0.580254
O71	O	0.806915	-0.641504	0.060069
C72	C	0.748797	-0.579952	0.055748
H73	H	0.775828	-0.525853	0.030527
H74	H	0.699150	-0.599232	0.010264
H75	H	0.724416	-0.564998	0.122958
O76	O	0.450511	0.115643	0.184333
C77	C	0.423826	0.185308	0.230045
H78	H	0.363828	0.205532	0.203276
H79	H	0.418601	0.173649	0.301413
H80	H	0.467471	0.233076	0.222412
H81	H	0.834973	0.216309	0.275414
O82	O	0.711170	0.105043	-0.101611
C83	C	0.763266	0.038123	-0.102410
H84	H	0.739478	-0.007430	-0.059668
H85	H	0.768962	0.011941	-0.171356
H86	H	0.823481	0.055744	-0.076853
O87	O	0.696312	0.120714	0.206596
C88	C	0.639196	0.123120	0.271567
H89	H	0.583382	0.096042	0.244413
H90	H	0.662760	0.088432	0.328182
H91	H	0.625262	0.186830	0.294645
O92	O	0.160113	0.113518	0.241063
C93	C	0.116780	0.045138	0.242522
H94	H	0.146692	-0.003886	0.200240
H95	H	0.114027	0.025896	0.311690
H96	H	0.054583	0.058110	0.216817
O97	O	1.051933	-0.014772	0.693873
C98	C	1.008793	-0.065752	0.638582
H99	H	0.950196	-0.035211	0.620469
H100	H	1.043735	-0.081720	0.577567
H101	H	0.997565	-0.121547	0.672999
O102	O	0.820631	-0.480806	0.060986
C103	C	0.823928	-0.436809	-0.013279
H104	H	0.864603	-0.469190	-0.062332
H105	H	0.762417	-0.429066	-0.042879
H106	H	0.847429	-0.376594	0.005320
H107	H	0.827197	0.224585	0.439153
O108	O	1.024080	0.015228	0.282300
C109	C	0.981211	-0.035797	0.226779
H110	H	0.922449	-0.005502	0.208820
H111	H	1.016201	-0.051325	0.165701
H112	H	0.970319	-0.091823	0.260921
H113	H	0.782493	-0.259331	0.058300
O114	O	1.015724	0.024184	0.460202
C115	C	0.998823	-0.054385	0.436843
H116	H	0.971638	-0.057701	0.369067
H117	H	1.055485	-0.092854	0.437951
H118	H	0.955682	-0.076134	0.484620
H119	H	0.180689	0.098849	-0.054322
O120	O	0.336510	0.101406	-0.055113
C121	C	0.285971	0.096810	-0.128103
H122	H	0.224771	0.121516	-0.109667
H123	H	0.309836	0.132454	-0.181190
H124	H	0.282439	0.032744	-0.152474
H125	H	1.088767	-0.521832	0.081143
O126	O	0.831201	-0.397506	0.062053
C127	C	0.786174	-0.368292	0.133231
H128	H	0.810192	-0.310418	0.159871
H129	H	0.722273	-0.357986	0.111709
H130	H	0.789645	-0.412848	0.185668
O131	O	0.420596	0.103441	-0.044819
C132	C	0.368942	0.169890	-0.053341
H133	H	0.388507	0.219919	-0.007377
H134	H	0.369824	0.189097	-0.122647
H135	H	0.306729	0.154387	-0.036892
H136	H	1.036279	0.002534	0.864046
O137	O	0.855467	0.194634	0.679289
C138	C	0.808610	0.244397	0.735197
H139	H	0.837843	0.248634	0.801927
H140	H	0.802028	0.305491	0.708531
H141	H	0.748070	0.219306	0.740341
H142	H	1.052588	-0.144507	0.078462
O143	O	1.050728	-0.300218	0.078352
C144	C	1.117910	-0.254795	0.083349
H145	H	1.100732	-0.192602	0.109309
H146	H	1.163565	-0.282655	0.128532
H147	H	1.143758	-0.252397	0.016248
H148	H	0.795033	-0.111342	0.059243
H149	H	1.028306	-0.388526	0.076608
H150	H	0.855227	0.194866	0.850562
