data_functionalizedCrystal
_audit_creation_method	'MofGen! by Chris Wilmer'
_symmetry_space_group_name_H-M	'P1'
_symmetry_Int_Tables_number	1
_symmetry_cell_setting	triclinic
loop_
_symmetry_equiv_pos_as_xyz
  x,y,z
_cell_length_a	19.288864
_cell_length_b	19.288857
_cell_length_c	14.048226
_cell_angle_alpha	89.991412
_cell_angle_beta	89.979690
_cell_angle_gamma	83.134677
loop_
_atom_site_label
_atom_site_type_symbol
_atom_site_fract_x
_atom_site_fract_y
_atom_site_fract_z
O1	O	0.921348	0.086649	-0.079470
O2	O	0.719087	0.098338	-0.079406
O3	O	0.826064	-0.008637	-0.079429
O4	O	0.814370	0.193625	-0.079448
O5	O	0.826052	-0.008643	0.078893
O6	O	0.719074	0.098332	0.078916
O7	O	0.921335	0.086643	0.078851
Zn8	Zn	0.820202	0.092487	0.104020
Zn9	Zn	0.820219	0.092495	-0.104575
O10	O	0.814357	0.193618	0.078874
C11	C	0.693204	0.097959	-0.000237
C12	C	0.616100	0.096830	-0.000212
C13	C	0.571402	0.159598	-0.000233
C14	C	0.498955	0.158537	-0.000243
C15	C	0.471209	0.094705	-0.000252
C16	C	0.515917	0.031929	-0.000225
C17	C	0.588363	0.032991	-0.000205
C18	C	0.362953	0.044528	-0.055746
C19	C	0.290509	0.043468	-0.055772
C20	C	0.247764	0.091425	-0.000309
C21	C	0.277471	0.140454	0.055167
C22	C	0.349916	0.141517	0.055187
C23	C	0.392656	0.093546	-0.000273
C24	C	0.124510	0.153048	-0.000340
C25	C	0.052062	0.151984	-0.000344
C26	C	0.069026	0.025374	-0.000336
C27	C	0.141472	0.026439	-0.000322
C28	C	0.169210	0.090278	-0.000328
C29	C	0.825683	-0.034516	-0.000267
C30	C	0.824556	-0.111620	-0.000264
C31	C	0.824037	-0.147828	-0.086565
C32	C	0.822968	-0.220274	-0.086571
C33	C	0.822432	-0.256511	-0.000272
C34	C	0.822947	-0.220295	0.086040
C35	C	0.824009	-0.147849	0.086044
C36	C	0.861429	-0.376746	0.065825
C37	C	0.860371	-0.449190	0.065818
C38	C	0.819155	-0.479957	-0.000282
C39	C	0.779004	-0.438272	-0.066390
C40	C	0.780066	-0.365826	-0.066385
C41	C	0.821281	-0.335066	-0.000267
C42	C	0.817476	-0.594719	-0.086596
C43	C	0.816403	-0.667165	-0.086599
C44	C	0.816389	-0.667186	0.086015
C45	C	0.817455	-0.594740	0.086015
C46	C	0.818002	-0.558511	-0.000293
C47	C	0.947218	0.087022	-0.000320
C48	C	1.024321	0.088151	-0.000351
C49	C	0.814739	0.219498	-0.000290
C50	C	0.815866	0.296602	-0.000299
N51	N	0.820196	0.092481	0.246381
N52	N	0.820231	0.092495	-0.246936
C53	C	0.867580	0.045131	0.296189
C54	C	0.867585	0.045131	0.395847
C55	C	0.820208	0.092484	0.445694
C56	C	0.772819	0.139835	0.395879
C57	C	0.772811	0.139832	0.296224
C58	C	0.772839	0.139840	0.603594
C59	C	0.772847	0.139845	0.703256
C60	C	0.867613	0.045139	0.703217
C61	C	0.867605	0.045136	0.603561
C62	C	0.820216	0.092488	0.553753
H63	H	0.462555	0.209652	-0.000257
H64	H	0.745442	-0.463320	-0.120215
O65	O	0.918702	-0.005938	0.449556
H66	H	0.889585	-0.039634	0.494979
H67	H	0.822509	-0.249804	0.156305
O68	O	0.824609	-0.108748	-0.179649
H69	H	0.824059	-0.146100	-0.239662
H70	H	0.734247	0.178397	0.563043
O71	O	0.822410	-0.259340	-0.179656
H72	H	0.822971	-0.221977	-0.239669
H73	H	0.906198	0.006584	0.743776
O74	O	0.736761	-0.320863	-0.137675
H75	H	0.699043	-0.282743	-0.099337
H76	H	0.177867	-0.024674	-0.000310
O77	O	0.903671	-0.494150	0.137116
H78	H	0.932498	-0.460585	0.183094
H79	H	0.906186	0.006581	0.562975
H80	H	0.824429	-0.118370	0.156323
O81	O	0.485998	-0.036922	-0.000235
H82	H	0.428113	-0.027116	-0.000262
H83	H	0.906163	0.006574	0.255609
H84	H	0.015669	0.203100	-0.000356
O85	O	0.721735	0.190902	0.757027
H86	H	0.688770	0.223817	0.705653
O87	O	0.721722	0.190916	0.449637
H88	H	0.688064	0.161769	0.495081
H89	H	0.397751	0.005474	-0.100916
H90	H	0.624757	-0.018124	-0.000189
H91	H	0.817917	-0.565219	-0.156873
O92	O	0.815816	-0.706220	-0.179685
H93	H	0.816371	-0.668853	-0.239695
H94	H	0.815948	-0.696690	0.156281
H95	H	0.817884	-0.565261	0.156291
H96	H	0.374101	0.181436	0.100361
O97	O	0.905890	-0.343563	0.137118
H98	H	0.933639	-0.384719	0.183073
O99	O	0.721708	0.190904	0.242494
H100	H	0.688769	0.223837	0.293897
O101	O	0.039106	-0.043474	-0.000334
H102	H	0.082363	-0.086944	-0.000311
H103	H	0.593981	0.211581	-0.000240
H104	H	0.266327	0.003549	-0.100948
O105	O	0.231381	0.192183	0.115001
H106	H	0.176015	0.183203	0.105681
H107	H	0.147095	0.205029	-0.000331
