data_functionalizedCrystal
_audit_creation_method	'MofGen! by Chris Wilmer'
_symmetry_space_group_name_H-M	'P1'
_symmetry_Int_Tables_number	1
_symmetry_cell_setting	triclinic
loop_
_symmetry_equiv_pos_as_xyz
  x,y,z
_cell_length_a	11.792254
_cell_length_b	10.268362
_cell_length_c	12.837942
_cell_angle_alpha	89.999312
_cell_angle_beta	90.486231
_cell_angle_gamma	90.004577
loop_
_atom_site_label
_atom_site_type_symbol
_atom_site_fract_x
_atom_site_fract_y
_atom_site_fract_z
O1	O	1.521325	0.108299	-0.142226
O2	O	2.021325	0.608299	0.357774
O3	O	1.192471	0.108301	-0.156864
O4	O	1.692471	0.608301	0.343136
O5	O	1.349606	0.108292	0.001399
O6	O	1.849606	0.608292	0.501399
O7	O	1.364190	0.108308	-0.300489
O8	O	1.864190	0.608308	0.199511
O9	O	1.349590	-0.108309	0.001393
O10	O	1.849590	0.391691	0.501393
O11	O	1.192454	-0.108299	-0.156870
O12	O	1.692454	0.391701	0.343130
O13	O	1.521309	-0.108302	-0.142232
O14	O	2.021309	0.391698	0.357768
Cu15	Cu	1.356880	-0.128078	-0.149551
Cu16	Cu	1.856880	0.371922	0.350449
Cu17	Cu	1.356899	0.128077	-0.149545
Cu18	Cu	1.856899	0.628077	0.350455
O19	O	1.364174	-0.108293	-0.300495
O20	O	1.864174	0.391707	0.199505
C21	C	1.150078	0.000001	-0.155945
C22	C	1.650078	0.500001	0.344055
C23	C	1.023785	0.000002	-0.153185
C24	C	1.523785	0.500002	0.346815
C25	C	0.921221	0.000008	-0.150943
C26	C	1.421221	0.500008	0.349057
C27	C	0.792550	0.000008	-0.148138
C28	C	1.292550	0.500008	0.351862
N29	N	1.356875	-0.308244	-0.149555
N30	N	1.856875	0.191756	0.350445
C31	C	1.356883	-0.426086	-0.149556
C32	C	1.856883	0.073914	0.350444
C33	C	1.356897	-0.573924	-0.149546
C34	C	1.856897	-0.073924	0.350454
C35	C	1.563701	0.000001	-0.143151
C36	C	2.063701	0.500001	0.356849
C37	C	1.689994	0.000008	-0.145911
C38	C	2.189994	0.500008	0.354089
C39	C	1.344671	-0.000008	0.040045
C40	C	1.844671	0.499992	0.540045
C41	C	1.329977	-0.000005	0.155205
C42	C	1.829977	0.499995	0.655205
N43	N	1.356913	0.308243	-0.149533
N44	N	1.856913	0.808243	0.350467
C45	C	1.369109	0.000010	-0.339141
C46	C	1.869109	0.500010	0.160859
C47	C	1.383802	0.000016	-0.454301
C48	C	1.883802	0.500016	0.045699
C49	C	1.506623	0.000020	0.395163
C50	C	2.006623	0.500020	0.895163
C51	C	1.492822	0.000023	0.503367
C52	C	1.992822	0.500023	1.003367
C53	C	1.288576	0.000011	0.479819
C54	C	1.788576	0.500011	0.979819
C55	C	1.302377	0.000009	0.371615
C56	C	1.802377	0.500009	0.871615
C57	C	1.411404	0.000011	0.329291
C58	C	1.911404	0.500011	0.829291
C59	C	1.425204	-0.000000	0.221085
C60	C	1.925204	0.500000	0.721085
C61	C	1.220958	-0.000003	0.197539
C62	C	1.720958	0.499997	0.697539
C63	C	1.207158	-0.000000	0.305743
C64	C	1.707158	0.500000	0.805743
H65	H	1.595397	0.000010	0.360703
H66	H	2.095397	0.500010	0.860703
H67	H	1.143424	-0.000020	0.143894
H68	H	1.643424	0.499980	0.643894
H69	H	1.513979	-0.000003	0.186627
H70	H	2.013979	0.499997	0.686627
H71	H	1.199811	0.000023	0.514298
H72	H	1.699811	0.500023	1.014298
H73	H	1.118391	0.000002	0.340218
H74	H	1.618391	0.500002	0.840218
N75	N	1.595521	0.000035	0.574417
N76	N	2.095521	0.500035	1.074417
H77	H	1.666679	0.000036	0.531182
H78	H	2.166679	0.500036	1.031182
H79	H	1.594242	-0.080261	0.619826
H80	H	2.094242	0.419739	1.119826
