data_functionalizedCrystal
_audit_creation_method	'MofGen! by Chris Wilmer'
_symmetry_space_group_name_H-M	'P1'
_symmetry_Int_Tables_number	1
_symmetry_cell_setting	triclinic
loop_
_symmetry_equiv_pos_as_xyz
  x,y,z
_cell_length_a	23.532407
_cell_length_b	23.532407
_cell_length_c	12.503552
_cell_angle_alpha	93.492833
_cell_angle_beta	86.504341
_cell_angle_gamma	82.848678
loop_
_atom_site_label
_atom_site_type_symbol
_atom_site_fract_x
_atom_site_fract_y
_atom_site_fract_z
O1	O	-0.758561	-0.065829	0.089197
O2	O	-0.592699	-0.075831	0.089230
O3	O	-0.680631	0.012101	0.089192
O4	O	-0.670630	-0.153761	0.089234
O5	O	-0.674011	0.005482	-0.089447
O6	O	-0.586079	-0.082449	-0.089410
O7	O	-0.751941	-0.072447	-0.089443
Cu8	Cu	-0.668405	-0.078053	-0.105738
Cu9	Cu	-0.676235	-0.070225	0.105524
O10	O	-0.664009	-0.160379	-0.089406
C11	C	-0.568173	-0.078885	-0.000086
C12	C	-0.504957	-0.078119	-0.000075
C13	C	-0.677066	0.030008	-0.000130
C14	C	-0.676300	0.093225	-0.000138
C15	C	-0.776467	-0.069393	-0.000125
C16	C	-0.839684	-0.070159	-0.000130
C17	C	-0.105852	-0.125354	-0.000111
C18	C	-0.046452	-0.124642	-0.000118
O19	O	-0.009706	-0.168429	-0.000146
N20	N	-0.023825	-0.072367	-0.000129
C21	C	-0.060602	-0.020799	-0.000145
O22	O	-0.035902	0.023731	-0.000156
C23	C	-0.120001	-0.021511	-0.000146
C24	C	-0.142625	-0.073790	-0.000124
C25	C	-0.128476	-0.177628	-0.000090
C26	C	-0.187873	-0.178339	-0.000082
C27	C	-0.224645	-0.126775	-0.000094
C28	C	-0.202021	-0.074501	-0.000115
C29	C	-0.156777	0.030056	-0.000169
C30	C	-0.216179	0.029339	-0.000171
C31	C	-0.238803	-0.022940	-0.000148
C32	C	-0.298190	-0.023648	-0.000118
N33	N	-0.320817	-0.075924	-0.000107
C34	C	-0.284044	-0.127488	-0.000095
C35	C	0.064141	-0.019307	-0.000145
C36	C	0.123538	-0.018595	-0.000136
C37	C	0.137685	-0.122438	-0.000111
C38	C	0.078286	-0.123151	-0.000112
C39	C	0.041514	-0.071583	-0.000133
C40	C	-0.408782	-0.128976	-0.000076
C41	C	-0.468184	-0.129683	-0.000062
C42	C	-0.482325	-0.025839	-0.000093
C43	C	-0.422928	-0.025133	-0.000100
C44	C	-0.386157	-0.076706	-0.000095
O45	O	-0.334970	0.020116	-0.000095
O46	O	-0.308752	-0.172011	-0.000098
C47	C	-0.667574	-0.178286	-0.000081
C48	C	-0.668341	-0.241502	-0.000066
C49	C	-0.723535	0.492329	-0.000089
C50	C	-0.722824	0.551730	-0.000080
O51	O	-0.766611	0.588476	-0.000050
N52	N	-0.670548	0.574357	-0.000071
C53	C	-0.618980	0.537579	-0.000059
O54	O	-0.574450	0.562279	-0.000049
C55	C	-0.619692	0.478180	-0.000059
C56	C	-0.671971	0.455557	-0.000080
C57	C	-0.775810	0.469706	-0.000108
C58	C	-0.776521	0.410309	-0.000118
C59	C	-0.724957	0.373536	-0.000109
C60	C	-0.672682	0.396160	-0.000090
C61	C	-0.568126	0.441405	-0.000039
C62	C	-0.568842	0.382002	-0.000039
C63	C	-0.621121	0.359379	-0.000060
C64	C	-0.621829	0.299991	-0.000091
N65	N	-0.674105	0.277365	-0.000101
C66	C	-0.725669	0.314137	-0.000110
C67	C	-0.617489	0.662322	-0.000055
C68	C	-0.616776	0.721720	-0.000062
C69	C	-0.720620	0.735866	-0.000082
C70	C	-0.721332	0.676467	-0.000083
C71	C	-0.669765	0.639696	-0.000065
C72	C	-0.727158	0.189400	-0.000133
C73	C	-0.727864	0.129997	-0.000147
C74	C	-0.624020	0.115856	-0.000122
C75	C	-0.623314	0.175253	-0.000113
C76	C	-0.674887	0.212024	-0.000114
O77	O	-0.578065	0.263211	-0.000118
O78	O	-0.770192	0.289430	-0.000106
N79	N	-0.662902	-0.083558	-0.254328
C80	C	-0.689834	-0.056616	-0.526773
C81	C	-0.654812	-0.091656	-0.473434
C82	C	-0.659315	-0.087149	-0.351512
C83	C	-0.685332	-0.061122	-0.648705
N84	N	-0.681742	-0.064716	0.254115
H85	H	-0.486600	-0.172256	-0.000044
H86	H	-0.621448	-0.125040	-0.519335
H87	H	-0.574205	0.740133	-0.000064
H88	H	-0.723197	-0.023235	-0.480877
H89	H	-0.206287	-0.220910	-0.000063
O90	O	-0.373151	-0.179124	-0.000016
C91	C	-0.405866	-0.225411	-0.000020
H92	H	-0.451532	-0.209434	0.033795
H93	H	-0.385682	-0.259597	0.051860
H94	H	-0.406840	-0.244630	-0.085715
H95	H	-0.098541	-0.219620	-0.000084
H96	H	-0.575494	0.632385	-0.000050
O97	O	0.028359	0.030757	-0.000004
C98	C	-0.009836	0.036889	0.092531
H99	H	-0.013740	-0.007154	0.123381
H100	H	-0.053828	0.057600	0.071723
H101	H	0.007173	0.065180	0.157312
H102	H	-0.582038	0.085905	-0.000118
H103	H	-0.762606	0.765818	-0.000086
H104	H	-0.525555	0.459814	-0.000016
H105	H	0.059870	-0.165721	-0.000100
O106	O	-0.518036	0.024269	0.000086
C107	C	-0.511244	0.059469	0.092577
H108	H	-0.493164	0.031688	0.157255
H109	H	-0.554669	0.083698	0.123625
H110	H	-0.480409	0.091487	0.071645
O111	O	-0.251914	0.079412	-0.000376
C112	C	-0.283287	0.078676	-0.092877
H113	H	-0.258984	0.047028	-0.157537
H114	H	-0.289066	0.123438	-0.123947
H115	H	-0.327179	0.064967	-0.071949
O116	O	-0.778702	0.108119	-0.000115
C117	C	-0.824058	0.153316	-0.000144
H118	H	-0.809580	0.194832	0.033686
H119	H	-0.862500	0.143021	0.051711
H120	H	-0.836772	0.158644	-0.085848
H121	H	0.167636	-0.164425	-0.000107
O122	O	-0.518694	0.346362	-0.000070
C123	C	-0.472405	0.379074	-0.000021
H124	H	-0.485868	0.422240	-0.033842
H125	H	-0.434372	0.355050	-0.051874
H126	H	-0.459546	0.386385	0.085688
H127	H	0.141952	0.023977	-0.000137
O128	O	-0.572525	0.197214	0.000092
C129	C	-0.544537	0.181796	0.092602
H130	H	-0.577511	0.171991	0.157252
H131	H	-0.521671	0.218797	0.123681
H132	H	-0.511799	0.142135	0.071682
O133	O	-0.134884	0.080882	-0.000056
C134	C	-0.157120	0.115721	0.092461
H135	H	-0.199372	0.101575	0.123322
H136	H	-0.164867	0.162421	0.071625
H137	H	-0.125103	0.111339	0.157245
O138	O	-0.777213	0.225166	-0.000282
C139	C	-0.776488	0.256518	-0.092812
H140	H	-0.730160	0.258143	-0.123641
H141	H	-0.798743	0.302049	-0.072007
H142	H	-0.799977	0.234718	-0.157609
H143	H	-0.817802	0.499641	-0.000112
O144	O	-0.827357	0.388434	-0.000082
C145	C	-0.872709	0.433636	-0.000113
H146	H	-0.858225	0.475150	0.033711
H147	H	-0.911152	0.423346	0.051745
H148	H	-0.885422	0.438963	-0.085818
O149	O	-0.772137	0.654528	0.000098
C150	C	-0.806981	0.676785	0.092597
H151	H	-0.778800	0.691364	0.157266
H152	H	-0.832155	0.642084	0.123652
H153	H	-0.838163	0.714904	0.071670
H154	H	-0.404508	0.017438	-0.000103
