data_functionalizedCrystal
_audit_creation_method	'MofGen! by Chris Wilmer'
_symmetry_space_group_name_H-M	'P1'
_symmetry_Int_Tables_number	1
_symmetry_cell_setting	triclinic
loop_
_symmetry_equiv_pos_as_xyz
  x,y,z
_cell_length_a	10.654550
_cell_length_b	10.654550
_cell_length_c	9.730223
_cell_angle_alpha	90.000043
_cell_angle_beta	89.996763
_cell_angle_gamma	95.515083
loop_
_atom_site_label
_atom_site_type_symbol
_atom_site_fract_x
_atom_site_fract_y
_atom_site_fract_z
O1	O	0.176399	-1.667839	-0.114183
O2	O	0.193205	-1.302361	-0.114208
O3	O	0.002062	-1.493503	-0.114190
O4	O	0.367541	-1.476697	-0.114202
O5	O	0.002057	-1.493490	0.114390
O6	O	0.193199	-1.302348	0.114372
O7	O	0.176393	-1.667827	0.114396
Zn8	Zn	0.184796	-1.485085	0.150676
Zn9	Zn	0.184802	-1.485102	-0.150488
O10	O	0.367536	-1.476684	0.114378
C11	C	0.191968	-1.255556	0.000078
C12	C	0.188276	-1.116113	0.000069
C13	C	-0.044738	-1.492263	0.000098
C14	C	-0.184181	-1.488571	0.000093
C15	C	0.177630	-1.714631	0.000107
C16	C	0.181322	-1.854074	0.000107
C17	C	-0.263667	-1.601112	0.000105
C18	C	-0.394688	-1.597636	0.000095
C19	C	-0.366725	-1.369066	0.000067
C20	C	-0.235706	-1.372544	0.000067
C21	C	-0.279813	-1.733075	0.000127
C22	C	-0.410834	-1.729599	0.000117
C23	C	0.414336	-1.477924	0.000087
C24	C	0.553779	-1.481616	0.000083
N25	N	0.184790	-1.485083	0.356212
C26	C	0.300818	-1.036627	0.000069
C27	C	0.297341	-0.905607	0.000093
C28	C	0.068772	-0.933570	0.000111
C29	C	0.072250	-1.064588	0.000097
N30	N	0.184798	-1.485114	-0.356024
C31	C	0.100188	-1.569750	0.428146
C32	C	0.100189	-1.569763	0.572029
C33	C	0.269404	-1.400438	0.572032
C34	C	0.269396	-1.400420	0.428151
H35	H	-0.408693	-1.274601	0.000045
H36	H	0.395294	-1.078574	0.000057
C37	C	-0.535039	-1.690290	-0.198408
C38	C	-0.472453	-1.783442	-0.133110
H39	H	-0.573072	-1.723527	-0.280660
H40	H	-0.598226	-1.663905	-0.139052
H41	H	-0.476257	-1.620269	-0.219819
H42	H	-0.531237	-1.853459	-0.111691
H43	H	-0.409260	-1.809845	-0.192479
C44	C	0.436676	-1.233053	0.442594
C45	C	0.362402	-1.307350	0.349071
H46	H	0.494092	-1.175603	0.393770
H47	H	0.383981	-1.187435	0.498725
H48	H	0.482343	-1.285737	0.498701
H49	H	0.316727	-1.254666	0.292970
H50	H	0.415103	-1.352971	0.292917
H51	H	-0.019401	-1.129309	0.000100
H52	H	-0.025693	-0.891602	0.000142
C53	C	0.523618	-0.891136	0.000053
C54	C	0.421051	-0.818236	0.000084
H55	H	0.599993	-0.837194	0.000040
H56	H	0.520225	-0.942824	0.079753
H57	H	0.520204	-0.942814	-0.079670
H58	H	0.424459	-0.766563	0.079813
H59	H	0.424446	-0.766525	-0.079624
H60	H	0.338290	-1.331508	0.630619
C61	C	-0.072156	-1.243872	-0.117479
C62	C	-0.148338	-1.248832	0.000032
H63	H	-0.018226	-1.167489	-0.117505
H64	H	-0.022717	-1.313454	-0.117452
H65	H	-0.123864	-1.247288	-0.197177
H66	H	-0.096630	-1.245426	0.079730
H67	H	-0.197782	-1.179231	0.000018
H68	H	-0.250452	-1.784696	-0.095523
C69	C	-0.067083	-1.737110	0.442601
C70	C	0.007179	-1.662799	0.349070
H71	H	-0.124511	-1.794547	0.393782
H72	H	-0.014381	-1.782743	0.498701
H73	H	-0.112737	-1.684434	0.498738
H74	H	0.052840	-1.715475	0.292940
H75	H	-0.045530	-1.617163	0.292946
H76	H	-0.244188	-1.775092	0.098826
C77	C	-0.070485	-1.595567	0.733836
C78	C	0.007192	-1.662833	0.651098
H79	H	-0.127905	-1.653029	0.782641
H80	H	-0.020099	-1.545167	0.797271
H81	H	-0.116147	-1.542901	0.677702
H82	H	0.052861	-1.715493	0.707233
H83	H	-0.043200	-1.713256	0.587656
H84	H	-0.452596	-1.779315	0.095779
