data_functionalizedCrystal
_audit_creation_method	'MofGen! by Chris Wilmer'
_symmetry_space_group_name_H-M	'P1'
_symmetry_Int_Tables_number	1
_symmetry_cell_setting	triclinic
loop_
_symmetry_equiv_pos_as_xyz
  x,y,z
_cell_length_a	17.052863
_cell_length_b	20.875641
_cell_length_c	20.875641
_cell_angle_alpha	60.089808
_cell_angle_beta	89.367775
_cell_angle_gamma	72.457154
loop_
_atom_site_label
_atom_site_type_symbol
_atom_site_fract_x
_atom_site_fract_y
_atom_site_fract_z
Zr1	Zr	0.711994	0.863359	-0.196481
O2	O	0.608597	0.965055	-0.286572
O3	O	0.739822	0.738710	-0.165094
O4	O	0.750213	0.865199	-0.299890
O5	O	0.594411	0.845118	-0.049733
O6	O	0.866322	0.892761	-0.314683
O7	O	0.598207	0.838565	-0.151776
O8	O	0.847735	0.666494	-0.073558
O9	O	0.612998	1.071385	-0.290858
O10	O	0.843016	0.819050	-0.167301
O11	O	0.753532	0.803371	-0.080108
O12	O	0.765765	0.952296	-0.238813
O13	O	0.676282	0.936617	-0.151620
Zr14	Zr	0.891122	0.917767	-0.057327
Zr15	Zr	0.897175	0.907317	-0.220073
Zr16	Zr	0.705941	0.873809	-0.033734
Zr17	Zr	0.719013	1.032943	-0.203317
Zr18	Zr	0.884103	0.748184	-0.050490
O19	O	0.863294	1.042417	-0.088713
O20	O	0.871901	1.027558	-0.320117
O21	O	0.599990	0.979914	-0.055167
O22	O	0.994519	0.816071	0.032764
O23	O	1.003126	0.801212	-0.198640
O24	O	0.731215	0.753569	0.066310
O25	O	1.008705	0.936009	-0.204074
O26	O	0.852903	0.915927	0.046083
O27	O	0.736794	0.888365	0.060876
O28	O	1.004909	0.942561	-0.102032
O29	O	0.760192	1.106326	-0.309611
O30	O	0.842924	0.674801	0.055804
O31	O	0.990118	0.709742	0.037051
O32	O	0.994930	0.701435	-0.092311
O33	O	0.608186	1.079692	-0.161497
O34	O	0.755381	1.114632	-0.180250
O35	O	0.837350	0.828830	-0.014994
O36	O	0.926834	0.844509	-0.102187
O37	O	0.849584	0.977756	-0.173699
O38	O	0.760100	0.962076	-0.086506
C39	C	0.792779	0.678440	-0.118352
C40	C	0.789799	0.606447	-0.115450
C41	C	0.569925	0.835578	-0.097393
C42	C	0.491310	0.816917	-0.087377
C43	C	0.835107	0.580809	-0.159600
C44	C	0.832309	0.513160	-0.156865
C45	C	0.784198	0.471154	-0.109985
C46	C	0.738889	0.496795	-0.065830
C47	C	0.741692	0.564440	-0.068560
C48	C	0.770811	0.267965	-0.096933
C49	C	0.768009	0.200318	-0.094208
C50	C	0.861430	0.216686	-0.185243
C51	C	0.864225	0.284334	-0.187973
C52	C	0.818920	0.309967	-0.143815
N53	N	0.781335	0.402008	-0.107190
N54	N	0.821788	0.379109	-0.146605
C55	C	0.494706	0.738593	-0.045345
C56	C	0.420845	0.721057	-0.035932
C57	C	0.343582	0.781844	-0.068556
C58	C	0.340186	0.860169	-0.110594
C59	C	0.414054	0.877707	-0.120002
C60	C	0.262930	0.920957	-0.143214
C61	C	0.259534	0.999283	-0.185251
C62	C	0.333395	1.016817	-0.194658
C63	C	0.410658	0.956031	-0.162035
C64	C	0.189062	0.903420	-0.133805
C65	C	0.108410	1.042533	-0.208462
C66	C	0.182271	1.060069	-0.217875
C67	C	1.033191	0.945548	-0.156414
C68	C	1.111806	0.964209	-0.166430
C69	C	0.809130	0.877491	-0.330475
C70	C	0.811700	0.873055	-0.399565
C71	C	0.810337	1.102687	-0.135455
C72	C	0.813317	1.174679	-0.138358
C73	C	0.772585	0.940522	-0.469352
C74	C	0.775010	0.936351	-0.534268
C75	C	0.816546	0.864711	-0.529395
C76	C	0.855666	0.797239	-0.459600
C77	C	0.853246	0.801412	-0.394686
C78	C	0.828115	0.844773	-0.719534
C79	C	0.830531	0.840604	-0.784455
C80	C	0.749876	0.979717	-0.859119
C81	C	0.747455	0.983883	-0.794200
C82	C	0.786578	0.916412	-0.724412
N83	N	0.819024	0.860445	-0.595748
N84	N	0.784105	0.920680	-0.658061
C85	C	0.793986	0.903635	0.076667
C86	C	0.791416	0.908072	0.145757
C87	C	1.024412	0.733425	-0.147863
C88	C	1.100047	0.680093	-0.154976
C89	C	0.785207	0.691512	0.085219
C90	C	0.779657	0.623955	0.157211
C91	C	1.016840	0.746497	0.055708
C92	C	1.089905	0.697602	0.117685
C93	C	0.586276	1.034630	-0.309516
C94	C	0.513211	1.083525	-0.371492
C95	C	0.578704	1.047702	-0.105945
C96	C	0.503069	1.101033	-0.098831
C97	C	0.817909	1.089615	-0.339026
C98	C	0.823459	1.157171	-0.411019
C99	C	1.091813	0.641758	-0.192312
C100	C	1.162874	0.591655	-0.199010
C101	C	1.242167	0.579882	-0.168368
C102	C	1.250399	0.618224	-0.131030
C103	C	1.179339	0.668331	-0.124337
C104	C	0.820803	0.605520	0.225015
C105	C	0.815586	0.542053	0.292666
C106	C	0.769227	0.497019	0.292511
C107	C	0.728076	0.515459	0.224700
C108	C	0.733289	0.578928	0.157051
C109	C	1.170934	0.682826	0.101275
C110	C	1.239594	0.636895	0.159501
C111	C	1.227223	0.605735	0.234137
C112	C	1.146185	0.620515	0.250546
C113	C	1.077527	0.666450	0.192320
C114	C	0.432182	1.098309	-0.355083
C115	C	0.363523	1.144261	-0.413310
C116	C	0.375895	1.175424	-0.487946
C117	C	0.456932	1.160640	-0.504355
C118	C	0.525589	1.114693	-0.446128
C119	C	0.511303	1.139375	-0.061502
C120	C	0.440244	1.189496	-0.054823
C121	C	0.360951	1.201271	-0.085468
C122	C	0.352719	1.162926	-0.122802
C123	C	0.423778	1.112810	-0.129486
C124	C	0.869825	1.202188	-0.410839
C125	C	0.875055	1.265659	-0.478480
C126	C	0.833914	1.284117	-0.546298
C127	C	0.787547	1.239093	-0.546475
C128	C	0.782321	1.175619	-0.478836
H129	H	0.874279	0.615009	-0.197778
C130	C	0.882129	0.484976	-0.205453
N131	N	0.919649	0.463754	-0.242057
C132	C	1.184564	0.717100	0.019179
N133	N	1.194837	0.742917	-0.042655
C134	C	0.449317	1.231660	-0.013745
N135	N	0.456154	1.263415	0.017196
C136	C	1.337629	0.605260	-0.097321
N137	N	1.403332	0.595489	-0.071925
C138	C	0.860868	0.521776	0.367249
N139	N	0.894977	0.506503	0.423423
C140	C	0.598519	1.126439	-0.027790
N141	N	0.664209	1.116703	-0.002401
C142	C	0.265488	1.175875	-0.156495
N143	N	0.199783	1.185622	-0.181865
H144	H	0.045500	1.092031	-0.235029
H145	H	0.297545	1.156289	-0.399935
C146	C	0.988395	0.682695	0.210384
N147	N	0.921262	0.694929	0.223996
C148	C	0.300360	1.225959	-0.551988
N149	N	0.243463	1.264017	-0.600222
H150	H	1.027256	0.651342	-0.217276
H151	H	0.738756	0.998858	-0.473328
C152	C	0.424586	0.634901	0.010295
N153	N	0.427406	0.570003	0.045111
C154	C	0.414705	1.070629	-0.170541
N155	N	0.407866	1.038857	-0.201465
C156	C	0.282791	1.256398	-0.078105
N157	N	0.223924	1.297919	-0.072554
H158	H	0.912811	1.302312	-0.478320
H159	H	0.903400	0.318534	-0.226147
C160	C	0.915093	1.181895	-0.336247
N161	N	0.949197	1.166612	-0.280067
C162	C	0.677088	0.465909	0.224541
N163	N	0.638688	0.428582	0.224424
H164	H	1.186055	0.699538	-0.093930
H165	H	0.838175	1.335803	-0.601368
C166	C	0.763510	0.427196	0.366933
N167	N	0.759211	0.374603	0.422989
C168	C	0.731943	1.010562	-0.611029
N169	N	0.699489	1.066458	-0.668846
H170	H	0.470805	0.970304	-0.169700
C171	C	0.701768	1.062695	-0.799570
N172	N	0.667356	1.122057	-0.803615
C173	C	0.688031	0.599191	0.082468
N174	N	0.653942	0.614448	0.026293
H175	H	0.466996	1.186019	-0.565130
H176	H	0.422092	1.072935	-0.294314
H177	H	1.305573	0.624866	0.146128
H178	H	1.283136	0.568333	0.281541
C179	C	1.153800	0.549479	-0.240076
N180	N	1.146962	0.517712	-0.271004
C181	C	1.132590	0.586226	0.332652
N182	N	1.122352	0.560392	0.394496
H183	H	0.718024	1.034648	-0.915946
C184	C	0.614720	1.098427	-0.464192
N185	N	0.681853	1.086176	-0.477802
C186	C	0.742330	1.259383	-0.621086
N187	N	0.708282	1.274660	-0.677287
H188	H	0.330625	1.080595	-0.228886
H189	H	0.744562	1.138972	-0.478992
H190	H	0.898317	0.195809	-0.221193
C191	C	0.721002	0.296133	-0.048333
N192	N	0.683495	0.317343	-0.011716
C193	C	0.871145	0.770550	-0.642774
N194	N	0.903554	0.714642	-0.584953
C195	C	0.685967	0.450587	-0.014260
N196	N	0.646102	0.415785	0.024580
H197	H	0.728828	0.166119	-0.056031
H198	H	0.191836	0.839646	-0.099577
H199	H	1.300021	0.539079	-0.173822
C200	C	0.178547	1.146225	-0.264112
N201	N	0.175743	1.211118	-0.298936
C202	C	0.901355	0.718433	-0.454241
N203	N	0.935764	0.659074	-0.450202
H204	H	0.283444	0.767561	-0.060890
C205	C	0.896273	0.727192	-0.317917
N206	N	0.928685	0.671288	-0.260095
H207	H	0.864354	0.782263	-0.780479
H208	H	0.704796	0.585315	-0.032611
H209	H	0.858554	0.642182	0.225156
H210	H	0.557616	0.689110	-0.018782
