data_functionalizedCrystal
_audit_creation_method	'MofGen! by Chris Wilmer'
_symmetry_space_group_name_H-M	'P1'
_symmetry_Int_Tables_number	1
_symmetry_cell_setting	triclinic
loop_
_symmetry_equiv_pos_as_xyz
  x,y,z
_cell_length_a	16.992694
_cell_length_b	15.944551
_cell_length_c	15.455313
_cell_angle_alpha	92.664316
_cell_angle_beta	87.142206
_cell_angle_gamma	87.083481
loop_
_atom_site_label
_atom_site_type_symbol
_atom_site_fract_x
_atom_site_fract_y
_atom_site_fract_z
O1	O	1.043832	0.174669	-0.072025
O2	O	1.377166	0.508003	0.261308
O3	O	1.710499	0.841336	0.594642
O4	O	0.815548	0.172714	-0.072051
O5	O	1.148881	0.506048	0.261283
O6	O	1.482215	0.839381	0.594616
O7	O	0.935924	0.051836	-0.072029
O8	O	1.269257	0.385169	0.261304
O9	O	1.602590	0.718502	0.594637
O10	O	0.923457	0.295548	-0.072046
O11	O	1.256790	0.628881	0.261287
O12	O	1.590123	0.962215	0.594620
O13	O	0.929040	0.058718	0.072232
O14	O	1.262373	0.392051	0.405565
O15	O	1.595707	0.725384	0.738898
O16	O	0.808664	0.179596	0.072210
O17	O	1.141998	0.512930	0.405544
O18	O	1.475331	0.846263	0.738877
O19	O	1.036949	0.181551	0.072236
O20	O	1.370282	0.514885	0.405569
O21	O	1.703615	0.848218	0.738903
Cu22	Cu	0.922178	0.181202	0.085395
Cu23	Cu	1.255511	0.514536	0.418729
Cu24	Cu	1.588845	0.847869	0.752062
Cu25	Cu	0.930319	0.173063	-0.085210
Cu26	Cu	1.263652	0.506397	0.248123
Cu27	Cu	1.596985	0.839730	0.581457
O28	O	0.916573	0.302430	0.072215
O29	O	1.249906	0.635764	0.405548
O30	O	1.583240	0.969097	0.738881
C31	C	0.782894	0.173641	0.000077
C32	C	1.116227	0.506975	0.333410
C33	C	1.449560	0.840308	0.666743
C34	C	0.695850	0.166141	0.000067
C35	C	1.029183	0.499474	0.333401
C36	C	1.362516	0.832808	0.666734
C37	C	0.645613	0.238506	0.000063
C38	C	0.978946	0.571839	0.333396
C39	C	1.312280	0.905172	0.666730
C40	C	0.563826	0.231454	0.000075
C41	C	0.897159	0.564788	0.333409
C42	C	1.230492	0.898121	0.666742
C43	C	0.532276	0.152037	0.000086
C44	C	0.865610	0.485370	0.333419
C45	C	1.198943	0.818704	0.666753
C46	C	0.582519	0.079667	0.000093
C47	C	0.915852	0.413000	0.333426
C48	C	1.249186	0.746334	0.666760
C49	C	0.664305	0.086719	0.000087
C50	C	0.997638	0.420053	0.333420
C51	C	1.330971	0.753386	0.666753
C52	C	0.288676	0.122807	0.000111
C53	C	0.622009	0.456140	0.333445
C54	C	0.955343	0.789474	0.666778
C55	C	0.206884	0.115760	0.000115
C56	C	0.540217	0.449093	0.333448
C57	C	0.873551	0.782426	0.666782
C58	C	0.188196	0.267548	0.000099
C59	C	0.521529	0.600881	0.333432
C60	C	0.854862	0.934214	0.666766
C61	C	0.269984	0.274593	0.000087
C62	C	0.603318	0.607926	0.333421
C63	C	0.936651	0.941260	0.666754
C64	C	0.320220	0.202223	0.000099
C65	C	0.653553	0.535557	0.333432
C66	C	0.986886	0.868890	0.666766
N67	N	0.448677	0.144827	0.000096
N68	N	0.782010	0.478161	0.333429
N69	N	1.115343	0.811494	0.666763
N70	N	0.403817	0.209434	0.000095
N71	N	0.737151	0.542767	0.333428
N72	N	1.070484	0.876101	0.666762
C73	C	0.931964	0.023948	0.000101
C74	C	1.265298	0.357281	0.333435
C75	C	1.598631	0.690615	0.666768
C76	C	0.930413	-0.069402	0.000102
C77	C	1.263746	0.263931	0.333435
C78	C	1.597079	0.597264	0.666768
C79	C	0.852089	-0.289513	0.000081
C80	C	1.185423	0.043820	0.333414
C81	C	1.518756	0.377154	0.666748
C82	C	0.885066	-0.344697	0.071214
C83	C	1.218400	-0.011364	0.404548
C84	C	1.551733	0.321969	0.737881
C85	C	0.927606	-0.240317	0.000095
C86	C	1.260939	0.093017	0.333428
C87	C	1.594272	0.426350	0.666761
C88	C	0.891871	-0.351465	-0.071016
C89	C	1.225204	-0.018131	0.262318
C90	C	1.558537	0.315202	0.595651
C91	C	0.924889	-0.405412	0.000084
C92	C	1.258222	-0.072079	0.333417
C93	C	1.591556	0.261255	0.666751
C94	C	0.960600	-0.294269	0.071287
C95	C	1.293934	0.039064	0.404620
C96	C	1.627267	0.372398	0.737953
C97	C	0.967397	-0.301034	-0.071007
C98	C	1.300731	0.032300	0.262326
C99	C	1.634064	0.365633	0.595660
C100	C	1.000428	-0.356196	0.000144
C101	C	1.333762	-0.022863	0.333477
C102	C	1.667095	0.310471	0.666810
C103	C	0.929168	-0.145209	0.000101
C104	C	1.262502	0.188124	0.333435
C105	C	1.595835	0.521457	0.666768
C106	C	0.923332	-0.500518	0.000084
C107	C	1.256665	-0.167184	0.333417
C108	C	1.589998	0.166149	0.666750
C109	C	1.069603	0.180624	0.000107
C110	C	1.402936	0.513958	0.333440
C111	C	1.736270	0.847291	0.666773
C112	C	1.156647	0.188124	0.000110
C113	C	1.489981	0.521458	0.333444
C114	C	1.823314	0.854791	0.666777
C115	C	0.920532	0.330318	0.000082
C116	C	1.253866	0.663651	0.333415
C117	C	1.587199	0.996984	0.666749
C118	C	0.922084	0.423668	0.000076
C119	C	1.255418	0.757001	0.333409
C120	C	1.588751	1.090334	0.666743
N121	N	0.916458	0.186926	0.205390
N122	N	1.249791	0.520260	0.538723
N123	N	1.583125	0.853593	0.872056
N124	N	0.936045	0.167333	-0.205204
N125	N	1.269378	0.500666	0.128129
N126	N	1.602712	0.834000	0.461462
C127	C	0.967616	0.135594	0.250793
C128	C	1.300949	0.468928	0.584126
C129	C	1.634282	0.802261	0.917460
C130	C	0.963297	0.139932	0.341600
C131	C	1.296630	0.473265	0.674933
C132	C	1.629964	0.806598	1.008267
C133	C	0.907824	0.195606	0.387002
C134	C	1.241157	0.528939	0.720336
C135	C	1.574491	0.862272	1.053669
C136	C	0.856661	0.246940	0.341593
C137	C	1.189994	0.580273	0.674926
C138	C	1.523328	0.913607	1.008260
C139	C	0.860976	0.242598	0.250787
C140	C	1.194310	0.575931	0.584121
C141	C	1.527643	0.909265	0.917454
C142	C	0.889197	0.214325	0.658581
C143	C	1.222531	0.547658	0.991914
C144	C	1.555864	0.880992	1.325247
C145	C	0.884887	0.218665	0.749392
C146	C	1.218221	0.551999	1.082726
C147	C	1.551554	0.885332	1.416059
C148	C	0.991523	0.111655	0.749393
C149	C	1.324856	0.444988	1.082727
C150	C	1.658189	0.778322	1.416060
C151	C	0.995836	0.107321	0.658586
C152	C	1.329170	0.440655	0.991919
C153	C	1.662503	0.773988	1.325253
C154	C	0.944671	0.158653	0.613185
C155	C	1.278004	0.491986	0.946518
C156	C	1.611337	0.825319	1.279851
N157	N	0.903410	0.200042	0.479822
N158	N	1.236743	0.533376	0.813155
N159	N	1.570077	0.866709	1.146489
N160	N	0.949081	0.154211	0.520367
N161	N	1.282415	0.487544	0.853700
N162	N	1.615748	0.820878	1.187033
H163	H	0.522926	0.290381	0.000071
H164	H	0.856259	0.623715	0.333404
H165	H	1.189592	0.957048	0.666737
H166	H	0.811490	0.292268	0.378565
H167	H	1.144823	0.625602	0.711898
H168	H	1.478156	0.958935	1.045231
H169	H	0.671294	0.303176	0.000054
H170	H	1.004627	0.636509	0.333387
H171	H	1.337960	0.969842	0.666720
H172	H	0.819318	0.284397	0.213821
H173	H	1.152651	0.617730	0.547154
H174	H	1.485984	0.951064	0.880488
H175	H	1.004953	0.098132	0.378567
H176	H	1.338286	0.431466	0.711900
H177	H	1.671620	0.764799	1.045234
H178	H	0.556825	0.015004	0.000114
H179	H	0.890158	0.348337	0.333447
H180	H	1.223491	0.681671	0.666781
H181	H	1.041007	0.061987	0.621621
H182	H	1.374340	0.395320	0.954955
H183	H	1.707674	0.728654	1.288288
H184	H	0.862790	-0.376554	-0.131158
H185	H	1.196123	-0.043220	0.202176
H186	H	1.529457	0.290113	0.535509
H187	H	0.181200	0.051085	0.000123
H188	H	0.514534	0.384419	0.333456
H189	H	0.847867	0.717752	0.666789
H190	H	0.295665	0.339262	0.000069
H191	H	0.628999	0.672596	0.333402
H192	H	0.962332	1.005929	0.666735
H193	H	0.989641	-0.269266	0.131491
H194	H	1.322975	0.064067	0.464824
H195	H	1.656308	0.397401	0.798157
H196	H	1.012791	0.090262	0.213832
H197	H	1.346124	0.423596	0.547166
H198	H	1.679457	0.756929	0.880499
H199	H	1.033179	0.069863	0.786368
H200	H	1.366512	0.403196	1.119701
H201	H	1.699845	0.736529	1.453034
H202	H	0.705207	0.027792	0.000090
H203	H	1.038541	0.361126	0.333423
H204	H	1.371874	0.694459	0.666756
H205	H	0.839712	0.264005	0.786355
H206	H	1.173046	0.597339	1.119688
H207	H	1.506379	0.930672	1.453021
H208	H	0.329568	0.063878	0.000121
H209	H	0.662902	0.397211	0.333455
H210	H	0.996235	0.730545	0.666788
H211	H	0.850256	-0.364079	0.131345
H212	H	1.183590	-0.030746	0.464678
H213	H	1.516923	0.302587	0.798012
H214	H	0.847537	0.256123	0.621622
H215	H	1.180871	0.589456	0.954955
H216	H	1.514204	0.922789	1.288288
H217	H	1.002180	-0.281632	-0.131141
H218	H	1.335513	0.051702	0.202192
H219	H	1.668847	0.385035	0.535526
H220	H	0.147286	0.326467	0.000091
H221	H	0.480619	0.659800	0.333425
H222	H	0.813952	0.993134	0.666758
H223	H	1.063164	-0.385145	0.000191
H224	H	1.396497	-0.051812	0.333524
H225	H	1.729830	0.281522	0.666858
H226	H	0.789404	-0.260406	0.000145
H227	H	1.122737	0.072927	0.333478
H228	H	1.456070	0.406261	0.666812
