data_functionalizedCrystal
_audit_creation_method	'MofGen! by Chris Wilmer'
_symmetry_space_group_name_H-M	'P1'
_symmetry_Int_Tables_number	1
_symmetry_cell_setting	triclinic
loop_
_symmetry_equiv_pos_as_xyz
  x,y,z
_cell_length_a	16.120530
_cell_length_b	18.101395
_cell_length_c	16.120297
_cell_angle_alpha	92.872690
_cell_angle_beta	90.128140
_cell_angle_gamma	87.126665
loop_
_atom_site_label
_atom_site_type_symbol
_atom_site_fract_x
_atom_site_fract_y
_atom_site_fract_z
Zn1	Zn	1.247384	-0.375190	-0.534565
Zn2	Zn	1.580718	-0.041857	-0.201232
Zn3	Zn	1.914051	0.291477	0.132101
Zn4	Zn	1.254317	-0.493082	-0.395508
Zn5	Zn	1.587651	-0.159749	-0.062175
Zn6	Zn	1.920984	0.173584	0.271159
Zn7	Zn	1.115376	-0.362676	-0.388483
Zn8	Zn	1.448710	-0.029343	-0.055150
Zn9	Zn	1.782043	0.303991	0.278183
Zn10	Zn	1.108274	-0.492400	-0.527477
Zn11	Zn	1.441607	-0.159067	-0.194144
Zn12	Zn	1.774941	0.174266	0.139190
O13	O	1.181338	-0.430837	-0.461508
O14	O	1.514671	-0.097504	-0.128175
O15	O	1.848005	0.235830	0.205158
O16	O	1.364669	-0.396351	-0.522025
O17	O	1.698003	-0.063018	-0.188692
O18	O	2.031336	0.270315	0.144641
O19	O	1.241761	-0.470832	-0.278211
O20	O	1.575094	-0.137499	0.055123
O21	O	1.908427	0.195835	0.388456
O22	O	1.132958	-0.260707	-0.407888
O23	O	1.466292	0.072626	-0.074555
O24	O	1.799625	0.405959	0.258779
O25	O	1.369763	-0.482966	-0.419860
O26	O	1.703096	-0.149633	-0.086527
O27	O	2.036430	0.183700	0.246806
O28	O	1.229944	-0.269901	-0.515214
O29	O	1.563277	0.063432	-0.181880
O30	O	1.896611	0.396765	0.151453
O31	O	1.139681	-0.375023	-0.273050
O32	O	1.473015	-0.041689	0.060284
O33	O	1.806348	0.291644	0.393617
O34	O	0.998069	-0.374361	-0.401015
O35	O	1.331402	-0.041028	-0.067682
O36	O	1.664735	0.292305	0.265652
O37	O	1.120853	-0.481804	-0.644783
O38	O	1.454186	-0.148471	-0.311450
O39	O	1.787520	0.184863	0.021884
O40	O	0.992851	-0.469669	-0.503133
O41	O	1.326184	-0.136336	-0.169800
O42	O	1.659517	0.196997	0.163534
O43	O	1.223057	-0.395690	-0.649990
O44	O	1.556390	-0.062357	-0.316657
O45	O	1.889724	0.270977	0.016676
O46	O	1.234873	-0.596620	-0.412987
O47	O	1.568207	-0.263287	-0.079654
O48	O	1.901540	0.070046	0.253679
O49	O	1.127576	-0.596119	-0.509945
O50	O	1.460909	-0.262786	-0.176611
O51	O	1.794243	0.070547	0.156722
C52	C	0.965287	-0.420584	-0.450543
C53	C	1.298621	-0.087251	-0.117210
C54	C	1.631954	0.246083	0.216124
C55	C	0.872859	-0.416216	-0.445872
C56	C	1.206192	-0.082883	-0.112538
C57	C	1.539526	0.250450	0.220795
C58	C	0.703631	-0.408225	-0.437350
C59	C	1.036964	-0.074892	-0.104017
C60	C	1.370297	0.258441	0.229316
C61	C	0.659883	-0.453506	-0.485727
C62	C	0.993216	-0.120173	-0.152394
C63	C	1.326549	0.213161	0.180940
C64	C	0.565718	-0.449060	-0.480986
C65	C	0.899052	-0.115727	-0.147652
C66	C	1.232385	0.217607	0.185681
C67	C	0.797804	-0.412671	-0.442091
C68	C	1.131137	-0.079337	-0.108757
C69	C	1.464470	0.253996	0.224576
C70	C	1.181228	-0.623241	-0.461478
C71	C	1.514561	-0.289908	-0.128145
C72	C	1.847895	0.043425	0.205188
C73	C	1.181256	-0.705558	-0.461497
C74	C	1.514589	-0.372224	-0.128164
C75	C	1.847922	-0.038891	0.205170
C76	C	1.181436	-1.004659	-0.461551
C77	C	1.514769	-0.671326	-0.128218
C78	C	1.848102	-0.337992	0.205116
C79	C	1.114068	-0.973063	-0.522721
C80	C	1.447401	-0.639730	-0.189388
C81	C	1.780735	-0.306397	0.143946
C82	C	1.113774	-0.887422	-0.522504
C83	C	1.447107	-0.554089	-0.189171
C84	C	1.780440	-0.220756	0.144163
C85	C	1.181346	-0.856271	-0.461525
C86	C	1.514680	-0.522938	-0.128192
C87	C	1.848013	-0.189605	0.205142
C88	C	1.162064	-0.882548	-0.372686
C89	C	1.495398	-0.549215	-0.039352
C90	C	1.828731	-0.215881	0.293981
C91	C	1.161632	-0.968190	-0.373050
C92	C	1.494965	-0.634857	-0.039717
C93	C	1.828298	-0.301524	0.293616
C94	C	1.268265	-0.978132	-0.488456
C95	C	1.601598	-0.644799	-0.155123
C96	C	1.934932	-0.311465	0.178210
C97	C	1.267650	-0.892539	-0.490352
C98	C	1.600984	-0.559205	-0.157019
C99	C	1.934317	-0.225872	0.176315
C100	C	1.181297	-0.772409	-0.461505
C101	C	1.514631	-0.439075	-0.128172
C102	C	1.847964	-0.105742	0.205162
C103	C	1.181483	-1.088521	-0.461565
C104	C	1.514816	-0.755188	-0.128232
C105	C	1.848150	-0.421855	0.205101
C106	C	1.398232	-0.441131	-0.472517
C107	C	1.731565	-0.107797	-0.139184
C108	C	2.064899	0.225536	0.194150
C109	C	1.490660	-0.445517	-0.477208
C110	C	1.823993	-0.112184	-0.143875
C111	C	2.157326	0.221149	0.189458
C112	C	1.170389	-0.440067	-0.678403
C113	C	1.503723	-0.106733	-0.345069
C114	C	1.837056	0.226600	-0.011736
C115	C	1.165724	-0.444000	-0.770830
C116	C	1.499057	-0.110667	-0.437497
C117	C	1.832390	0.222667	-0.104163
C118	C	1.181470	-0.237683	-0.461558
C119	C	1.514803	0.095650	-0.128225
C120	C	1.848137	0.428983	0.205109
C121	C	1.181526	-0.155373	-0.461579
C122	C	1.514860	0.177961	-0.128246
C123	C	1.848193	0.511294	0.205088
C124	C	1.157175	-0.451163	-0.940055
C125	C	1.490508	-0.117830	-0.606721
C126	C	1.823842	0.215504	-0.273388
C127	C	1.205665	-0.410297	-0.983822
C128	C	1.538998	-0.076964	-0.650489
C129	C	1.872331	0.256369	-0.317156
C130	C	1.200908	-0.414283	-1.077985
C131	C	1.534242	-0.080949	-0.744651
C132	C	1.867575	0.252384	-0.411318
C133	C	1.161931	-0.447178	-0.845884
C134	C	1.495264	-0.113845	-0.512550
C135	C	1.828597	0.219488	-0.179217
C136	C	1.192292	-0.421592	-0.245460
C137	C	1.525625	-0.088259	0.087873
C138	C	1.858958	0.245074	0.421206
C139	C	1.197119	-0.417458	-0.153042
C140	C	1.530452	-0.084125	0.180292
C141	C	1.863785	0.249209	0.513625
H142	H	0.693149	-0.495611	-0.530706
H143	H	1.026482	-0.162277	-0.197372
H144	H	1.359815	0.171056	0.135961
C145	C	1.096269	-0.502467	-0.984969
C146	C	1.429602	-0.169134	-0.651635
C147	C	1.762935	0.164199	-0.318302
N148	N	1.050395	-0.541110	-1.018807
N149	N	1.383729	-0.207776	-0.685474
N150	N	1.717062	0.125557	-0.352141
C151	C	1.266581	-0.358995	-0.938909
C152	C	1.599914	-0.025661	-0.605575
C153	C	1.933248	0.307672	-0.272242
N154	N	1.312465	-0.320358	-0.905076
N155	N	1.645798	0.012975	-0.571743
N156	N	1.979132	0.346308	-0.238409
C157	C	0.658692	-0.351350	-0.376587
C158	C	0.992025	-0.018016	-0.043254
C159	C	1.325359	0.315317	0.290079
N160	N	0.624834	-0.308514	-0.330819
N161	N	0.958168	0.024820	0.002515
N162	N	1.291501	0.358153	0.335848
H163	H	1.125459	-0.997097	-0.588658
H164	H	1.458792	-0.663764	-0.255325
H165	H	1.792126	-0.330431	0.078008
C166	C	1.027519	-0.997217	-0.498444
C167	C	1.360852	-0.663884	-0.165111
C168	C	1.694186	-0.330551	0.168222
N169	N	0.962330	-1.015408	-0.480154
N170	N	1.295663	-0.682075	-0.146820
N171	N	1.628997	-0.348741	0.186513
C172	C	1.026687	-0.854796	-0.498013
C173	C	1.360021	-0.521463	-0.164680
C174	C	1.693354	-0.188130	0.168653
N175	N	0.961084	-0.830224	-0.479586
N176	N	1.294418	-0.496890	-0.146253
N177	N	1.627751	-0.163557	0.187080
C178	C	1.129372	-0.863671	-0.611309
C179	C	1.462706	-0.530337	-0.277976
C180	C	1.796039	-0.197004	0.055357
N181	N	1.141118	-0.845785	-0.678202
N182	N	1.474451	-0.512451	-0.344868
N183	N	1.807785	-0.179118	-0.011535
H184	H	1.286711	-1.003393	-0.552368
H185	H	1.620044	-0.670060	-0.219035
H186	H	1.953377	-0.336726	0.114299
H187	H	1.208812	-0.988900	-0.325680
H188	H	1.542145	-0.655567	0.007653
H189	H	1.875478	-0.322233	0.340986
C190	C	1.076061	-0.990053	-0.342964
C191	C	1.409394	-0.656720	-0.009631
C192	C	1.742727	-0.323387	0.323702
N193	N	1.011605	-1.006517	-0.320306
N194	N	1.344939	-0.673184	0.013027
N195	N	1.678272	-0.339850	0.346360
H196	H	1.209784	-0.862211	-0.325672
H197	H	1.543117	-0.528877	0.007661
H198	H	1.876451	-0.195544	0.340995
H199	H	1.099423	-0.857320	-0.350105
H200	H	1.432756	-0.523987	-0.016772
H201	H	1.766090	-0.190653	0.316561
C202	C	1.287425	-0.869872	-0.578692
C203	C	1.620759	-0.536539	-0.245359
C204	C	1.954092	-0.203205	0.087975
N205	N	1.302324	-0.852785	-0.645225
N206	N	1.635657	-0.519452	-0.311891
N207	N	1.968990	-0.186119	0.021442
H208	H	1.320141	-0.871648	-0.449401
H209	H	1.653475	-0.538314	-0.116068
H210	H	1.986808	-0.204981	0.217266
H211	H	1.318402	-0.998637	-0.443958
H212	H	1.651735	-0.665304	-0.110625
H213	H	1.985068	-0.331970	0.222709
