data_functionalizedCrystal
_audit_creation_method	'MofGen! by Chris Wilmer'
_symmetry_space_group_name_H-M	'P1'
_symmetry_Int_Tables_number	1
_symmetry_cell_setting	triclinic
loop_
_symmetry_equiv_pos_as_xyz
  x,y,z
_cell_length_a	17.077404
_cell_length_b	11.169409
_cell_length_c	17.077402
_cell_angle_alpha	89.962008
_cell_angle_beta	90.020853
_cell_angle_gamma	89.978063
loop_
_atom_site_label
_atom_site_type_symbol
_atom_site_fract_x
_atom_site_fract_y
_atom_site_fract_z
Zn1	Zn	1.200082	-0.678563	-0.312487
Zn2	Zn	1.199981	-0.477860	-0.443781
Zn3	Zn	1.068806	-0.477890	-0.312528
Zn4	Zn	1.068782	-0.678498	-0.443710
O5	O	1.134413	-0.578203	-0.378127
O6	O	1.309916	-0.651954	-0.329916
O7	O	1.182548	-0.309914	-0.426417
O8	O	1.086272	-0.504550	-0.202676
O9	O	1.309842	-0.504499	-0.426377
O10	O	1.182721	-0.651983	-0.202646
O11	O	1.086174	-0.309936	-0.329986
O12	O	0.958956	-0.504486	-0.329918
O13	O	1.086232	-0.846456	-0.426256
O14	O	0.958938	-0.651872	-0.426296
O15	O	1.182697	-0.846504	-0.329847
O16	O	1.182525	-0.504435	-0.553618
O17	O	1.086134	-0.651843	-0.553566
C18	C	0.930465	-0.578176	-0.378104
C19	C	0.843215	-0.578193	-0.378114
C20	C	0.802265	-0.655090	-0.327976
C21	C	0.720284	-0.655096	-0.327981
C22	C	0.679256	-0.578209	-0.378128
C23	C	0.720212	-0.501303	-0.428268
C24	C	0.802191	-0.501293	-0.428259
C25	C	0.549342	-0.501333	-0.428286
C26	C	0.467358	-0.501345	-0.428297
C27	C	0.467435	-0.655136	-0.328008
C28	C	0.549414	-0.655125	-0.327999
C29	C	0.590365	-0.578221	-0.378140
C30	C	1.134473	-0.891245	-0.378039
C31	C	1.134499	-1.024646	-0.378002
C32	C	1.339157	-0.578231	-0.378149
C33	C	1.426407	-0.578242	-0.378159
C34	C	1.134337	-0.578155	-0.582074
C35	C	1.134377	-0.578175	-0.669324
C36	C	1.134398	-0.266378	-0.378157
C37	C	1.134524	-0.132979	-0.377973
C38	C	1.184619	-0.501502	-0.710315
C39	C	1.184657	-0.501532	-0.792296
C40	C	1.134449	-0.578231	-0.833284
C41	C	1.084204	-0.654912	-0.792287
C42	C	1.084170	-0.654886	-0.710308
C43	C	1.084277	-0.654957	-0.963157
C44	C	1.084310	-0.654982	-1.045141
C45	C	1.184764	-0.501604	-1.045145
C46	C	1.184730	-0.501578	-0.963166
C47	C	1.134484	-0.578258	-0.922175
C48	C	1.134510	-0.578277	-0.173382
C49	C	1.134552	-0.578309	-0.086132
H50	H	0.582817	-0.717740	-0.287169
H51	H	1.043259	-0.717322	-0.676934
H52	H	0.835664	-0.717703	-0.287142
C53	C	0.341806	-0.723440	-0.283481
C54	C	0.422425	-0.739670	-0.272889
H55	H	0.314018	-0.775626	-0.249453
H56	H	0.328366	-0.740857	-0.336232
H57	H	0.328357	-0.642832	-0.271928
H58	H	0.435874	-0.820276	-0.284448
H59	H	0.435870	-0.722261	-0.220127
H60	H	1.225609	-0.439119	-0.929794
C61	C	0.984985	-0.806574	-0.971384
C62	C	1.029050	-0.739250	-0.918098
H63	H	0.950888	-0.858604	-0.943564
H64	H	1.019184	-0.852533	-1.003306
H65	H	0.954988	-0.754240	-1.003411
H66	H	1.059051	-0.791584	-0.886074
H67	H	0.994846	-0.693288	-0.886162
H68	H	0.686801	-0.438695	-0.469096
H69	H	1.225569	-0.439097	-0.825667
C70	C	0.894325	-0.339807	-0.439035
C71	C	0.847206	-0.416765	-0.483374
H72	H	0.922110	-0.287615	-0.473062
H73	H	0.930489	-0.385595	-0.409176
H74	H	0.862329	-0.294004	-0.404807
H75	H	0.879203	-0.462575	-0.517599
H76	H	0.811038	-0.370972	-0.513246
H77	H	1.225501	-0.439040	-0.676948
H78	H	0.433955	-0.438738	-0.469132
H79	H	1.043327	-0.717366	-0.825666
H80	H	0.582682	-0.438706	-0.469115
H81	H	0.686946	-0.717716	-0.287155
C82	C	1.229578	-0.433764	-1.170810
C83	C	1.240099	-0.417473	-1.090199
H84	H	1.263770	-0.381874	-1.198625
H85	H	1.176889	-0.415988	-1.184347
H86	H	1.240955	-0.514478	-1.184128
H87	H	1.228717	-0.336761	-1.076880
H88	H	1.292801	-0.435241	-1.076656
C89	C	1.073405	-0.816414	-1.137267
C90	C	1.029127	-0.739290	-1.090204
H91	H	1.039336	-0.868456	-1.165091
H92	H	1.107569	-0.862359	-1.105234
H93	H	1.103330	-0.770728	-1.173404
H94	H	0.999206	-0.784976	-1.054063
H95	H	0.994949	-0.693341	-1.122239
