data_functionalizedCrystal
_audit_creation_method	'MofGen! by Chris Wilmer'
_symmetry_space_group_name_H-M	'P1'
_symmetry_Int_Tables_number	1
_symmetry_cell_setting	triclinic
loop_
_symmetry_equiv_pos_as_xyz
  x,y,z
_cell_length_a	13.897449
_cell_length_b	13.897441
_cell_length_c	13.897448
_cell_angle_alpha	90.030599
_cell_angle_beta	89.981481
_cell_angle_gamma	89.976606
loop_
_atom_site_label
_atom_site_type_symbol
_atom_site_fract_x
_atom_site_fract_y
_atom_site_fract_z
Zn1	Zn	1.474703	-0.545450	0.383963
Zn2	Zn	1.974703	-0.045450	0.883963
Zn3	Zn	1.474597	-0.384151	0.545285
Zn4	Zn	1.974597	0.115849	1.045285
Zn5	Zn	1.313392	-0.384161	0.384007
Zn6	Zn	1.813392	0.115839	0.884007
Zn7	Zn	1.313373	-0.545396	0.545220
Zn8	Zn	1.813373	-0.045396	1.045220
O9	O	1.394016	-0.464789	0.464619
O10	O	1.894016	0.035211	0.964619
O11	O	1.609670	-0.524071	0.405371
O12	O	2.109670	-0.024071	0.905371
O13	O	1.453176	-0.249171	0.523937
O14	O	1.953176	0.250829	1.023937
O15	O	1.334842	-0.405582	0.249020
O16	O	1.834842	0.094418	0.749020
O17	O	1.609592	-0.405566	0.523893
O18	O	2.109592	0.094434	1.023893
O19	O	1.453356	-0.524081	0.248987
O20	O	1.953356	-0.024081	0.748987
O21	O	1.334739	-0.249178	0.405447
O22	O	1.834739	0.250822	0.905447
O23	O	1.178408	-0.405530	0.405384
O24	O	1.678408	0.094470	0.905384
O25	O	1.334811	-0.680385	0.523783
O26	O	1.834811	-0.180385	1.023783
O27	O	1.178394	-0.523990	0.523826
O28	O	1.678394	-0.023990	1.023826
O29	O	1.453339	-0.680424	0.405308
O30	O	1.953339	-0.180424	0.905308
O31	O	1.453158	-0.405514	0.680258
O32	O	1.953158	0.094486	1.180258
O33	O	1.334708	-0.523980	0.680210
O34	O	1.834708	-0.023980	1.180210
C35	C	1.143402	-0.464756	0.464604
C36	C	1.643402	0.035244	0.964604
C37	C	1.036188	-0.464764	0.464621
C38	C	1.536188	0.035236	0.964621
C39	C	0.949118	-0.464780	0.464624
C40	C	1.449118	0.035220	0.964624
C41	C	0.839886	-0.464810	0.464631
C42	C	1.339886	0.035190	0.964631
C43	C	1.394085	-0.716382	0.464533
C44	C	1.894085	-0.216382	0.964533
C45	C	1.394114	-0.823596	0.464497
C46	C	1.894114	-0.323596	0.964497
C47	C	1.394140	-1.019892	0.464432
C48	C	1.894140	-0.519892	0.964432
C49	C	1.394122	-0.910659	0.464471
C50	C	1.894122	-0.410659	0.964471
C51	C	1.645609	-0.464824	0.464634
C52	C	2.145609	0.035176	0.964634
C53	C	1.752823	-0.464838	0.464641
C54	C	2.252823	0.035162	0.964641
C55	C	1.393946	-0.464761	0.715233
C56	C	1.893946	0.035239	1.215233
C57	C	1.394004	-0.464782	0.822447
C58	C	1.894004	0.035218	1.322447
C59	C	1.394003	-0.214175	0.464634
C60	C	1.894003	0.285825	0.964634
C61	C	1.394161	-0.106962	0.464399
C62	C	1.894161	0.393038	0.964399
C63	C	1.394113	-0.464839	0.213026
C64	C	1.894113	0.035161	0.713026
C65	C	1.394154	-0.464859	0.105812
C66	C	1.894154	0.035141	0.605812
C67	C	1.394105	-0.464842	1.018742
C68	C	1.894105	0.035158	1.518742
C69	C	1.394046	-0.464812	0.909510
C70	C	1.894046	0.035188	1.409510
