data_functionalizedCrystal
_audit_creation_method	'MofGen! by Chris Wilmer'
_symmetry_space_group_name_H-M	'P1'
_symmetry_Int_Tables_number	1
_symmetry_cell_setting	triclinic
loop_
_symmetry_equiv_pos_as_xyz
  x,y,z
_cell_length_a	10.723023
_cell_length_b	14.853567
_cell_length_c	9.798715
_cell_angle_alpha	90.000647
_cell_angle_beta	89.996449
_cell_angle_gamma	84.051239
loop_
_atom_site_label
_atom_site_type_symbol
_atom_site_fract_x
_atom_site_fract_y
_atom_site_fract_z
O1	O	1.655909	0.126442	-0.113475
O2	O	1.292634	0.138546	-0.113477
O3	O	1.483975	0.001315	-0.113480
O4	O	1.464568	0.263672	-0.113472
O5	O	1.483961	0.001315	0.113502
O6	O	1.292620	0.138546	0.113505
O7	O	1.655895	0.126442	0.113508
Zn8	Zn	1.474255	0.132494	0.149545
Zn9	Zn	1.474274	0.132494	-0.149514
O10	O	1.464554	0.263672	0.113510
C11	C	1.246136	0.137665	0.000014
C12	C	1.107608	0.135030	0.000012
C13	C	1.045856	0.133856	-0.117572
C14	C	0.902680	0.131132	-0.117576
C15	C	1.483089	-0.032278	0.000007
C16	C	1.480453	-0.132376	-0.000005
C17	C	1.355653	-0.545568	0.000021
C18	C	1.582971	-0.565649	0.000022
C19	C	1.585449	-0.471603	0.000014
C20	C	1.473027	-0.414534	0.000011
C21	C	1.358128	-0.451512	0.000017
C22	C	1.700346	-0.434617	0.000022
C23	C	1.702828	-0.340565	0.000016
C24	C	1.590405	-0.283495	0.000003
C25	C	1.475501	-0.320478	0.000007
C26	C	1.363080	-0.263410	0.000005
C27	C	1.248174	-0.300392	-0.000001
C28	C	1.245705	-0.394442	0.000004
C29	C	1.592875	-0.189444	-0.000002
C30	C	1.365554	-0.169354	0.000001
C31	C	1.702392	0.127322	0.000014
C32	C	1.840920	0.129957	0.000006
C33	C	1.465440	0.297266	0.000020
C34	C	1.468075	0.397363	0.000023
N35	N	1.474251	0.132493	0.353644
N36	N	1.474287	0.132488	-0.353614
C37	C	1.554593	0.074619	0.421420
C38	C	1.554613	0.074616	0.578583
H39	H	0.849575	0.130120	-0.218244
H40	H	0.894018	0.130963	0.100680
H41	H	1.054479	0.134025	0.100677
C42	C	1.382764	0.198608	0.568517
C43	C	1.449620	0.254021	0.486449
C44	C	1.365352	0.314933	0.414673
H45	H	1.332337	0.235002	0.631287
H46	H	1.330686	0.165939	0.512703
H47	H	1.501676	0.286687	0.542258
H48	H	1.500042	0.217651	0.423653
H49	H	1.313275	0.282264	0.358859
H50	H	1.314930	0.351321	0.477453
H51	H	1.410702	0.352532	0.358972
C52	C	1.116587	0.135393	-0.251846
C53	C	1.071136	0.212233	-0.326517
C54	C	1.136272	0.213689	-0.450212
H55	H	1.104793	0.082571	-0.302886
H56	H	1.203406	0.137096	-0.234055
H57	H	0.984338	0.210523	-0.344312
H58	H	1.082931	0.265068	-0.275518
H59	H	1.223091	0.215392	-0.432421
H60	H	1.124473	0.160863	-0.501240
H61	H	1.105451	0.265828	-0.500886
C62	C	1.243356	-0.107548	0.000064
C63	C	1.142208	-0.160068	0.000092
C64	C	1.029622	-0.103164	0.000168
H65	H	1.239426	-0.070422	-0.079067
H66	H	1.239519	-0.070454	0.079251
H67	H	1.146044	-0.197145	-0.079086
H68	H	1.146097	-0.197192	0.079217
H69	H	1.025784	-0.066071	0.079355
H70	H	1.025705	-0.066041	-0.078964
H71	H	0.960980	-0.138790	0.000200
C72	C	1.121086	-0.434769	0.000083
C73	C	1.142986	-0.529348	0.000133
C74	C	1.028220	-0.566531	0.000230
H75	H	1.074694	-0.415338	-0.079048
H76	H	1.074779	-0.415275	0.079269
H77	H	1.189274	-0.548834	-0.079046
H78	H	1.189359	-0.548804	0.079258
H79	H	0.981912	-0.547038	0.079416
H80	H	0.981836	-0.547094	-0.078903
H81	H	1.043063	-0.630707	0.000276
C82	C	1.704982	-0.627652	-0.000252
C83	C	1.710218	-0.682224	-0.117040
C84	C	1.822608	-0.739348	-0.117350
H85	H	1.708855	-0.664838	0.078813
H86	H	1.773803	-0.592190	-0.000331
H87	H	1.641416	-0.717682	-0.116949
H88	H	1.706367	-0.645063	-0.196124
H89	H	1.891429	-0.703887	-0.117429
H90	H	1.826470	-0.776528	-0.038279
H91	H	1.826180	-0.776377	-0.196594
C92	C	1.646150	0.008427	0.343699
C93	C	1.625464	-0.080269	0.378291
C94	C	1.709775	-0.141262	0.306697
H95	H	1.729584	0.018467	0.366960
H96	H	1.633921	0.017170	0.248397
H97	H	1.637703	-0.089008	0.473572
H98	H	1.542047	-0.090338	0.355027
H99	H	1.697546	-0.132519	0.211394
H100	H	1.793203	-0.131214	0.329963
H101	H	1.695744	-0.201449	0.330148
C102	C	1.827615	-0.300469	-0.000272
C103	C	1.895572	-0.329398	-0.117066
C104	C	2.010524	-0.292470	-0.117391
H105	H	1.874058	-0.319979	0.078789
H106	H	1.813046	-0.236279	-0.000354
H107	H	1.910145	-0.393574	-0.116971
H108	H	1.849167	-0.309889	-0.196146
H109	H	1.995955	-0.228279	-0.117473
H110	H	2.056955	-0.311982	-0.038325
H111	H	2.056642	-0.312086	-0.196640
H112	H	1.156641	-0.253914	0.000006
H113	H	1.405478	0.182035	0.411970
H114	H	1.262100	-0.575683	0.000010
H115	H	1.791873	-0.481089	0.000037
H116	H	1.686429	-0.159338	0.000012
C117	C	1.646532	0.008647	0.656213
C118	C	1.769294	0.023815	0.621554
C119	C	1.854004	-0.036934	0.693055
H120	H	1.632825	-0.051619	0.632920
H121	H	1.634441	0.017429	0.751529
H122	H	1.781380	0.015026	0.526260
H123	H	1.783041	0.084069	0.644850
H124	H	1.841913	-0.028153	0.788371
H125	H	1.840285	-0.097197	0.669757
H126	H	1.937307	-0.026646	0.669559
