data_functionalizedCrystal
_audit_creation_method	'MofGen! by Chris Wilmer'
_symmetry_space_group_name_H-M	'P1'
_symmetry_Int_Tables_number	1
_symmetry_cell_setting	triclinic
loop_
_symmetry_equiv_pos_as_xyz
  x,y,z
_cell_length_a	6.817900
_cell_length_b	12.840964
_cell_length_c	16.305597
_cell_angle_alpha	81.391601
_cell_angle_beta	103.455834
_cell_angle_gamma	88.344333
loop_
_atom_site_label
_atom_site_type_symbol
_atom_site_fract_x
_atom_site_fract_y
_atom_site_fract_z
V1	V	-3.898066	0.325573	-0.118688
O2	O	-3.888310	0.319008	0.003676
O3	O	-3.850193	0.323701	-0.233389
O4	O	-3.793660	0.467406	-0.117752
O5	O	-3.945235	0.174308	-0.112761
V6	V	-4.388883	0.307438	-0.103947
O7	O	-4.143325	0.365355	-0.151025
O8	O	-4.593821	0.267656	-0.071611
O9	O	-4.213549	0.309311	0.010754
O10	O	-4.516036	0.314004	-0.226312
O11	O	-4.459111	0.458703	-0.109874
O12	O	-4.270082	0.165606	-0.104883
C13	C	-3.697135	0.318656	-0.261323
C14	C	-3.738906	0.318070	-0.355099
C15	C	-3.620886	0.620096	-0.113825
C16	C	-3.625020	0.501964	-0.113823
C17	C	-4.102051	0.131041	-0.108821
C18	C	-4.085056	0.012910	-0.108827
C19	C	-3.890852	0.315992	-0.695844
C20	C	-3.657374	0.310296	-0.654979
C21	C	-3.613759	0.310492	-0.557382
C22	C	-3.815469	0.317024	-0.526796
C23	C	-3.936688	0.219835	-0.551576
C24	C	-3.978776	0.219116	-0.649104
C25	C	-3.988499	0.418597	-0.675644
C26	C	-3.940960	0.420396	-0.578142
C27	C	-3.772877	0.317603	-0.431258
C28	C	-3.933450	0.315405	-0.791382
V29	V	-3.881008	0.811738	-0.118701
O30	O	-3.917565	0.962928	-0.112776
O31	O	-3.786742	0.664549	-0.117763
O32	O	-3.831597	0.853471	-0.233401
O33	O	-3.872398	0.772698	0.003663
V34	V	-4.369880	0.849142	-0.103966
O35	O	-4.128204	0.796304	-0.151040
O36	O	-4.572088	0.887263	-0.071632
O37	O	-4.241332	0.985082	-0.104902
O38	O	-4.450513	0.703868	-0.109892
O39	O	-4.495679	0.894098	-0.226331
O40	O	-4.196477	0.796160	0.010737
C41	C	-4.029951	0.314353	0.038683
C42	C	-3.967414	0.314945	0.132458
C43	C	-3.678090	0.861086	-0.261329
C44	C	-3.718528	0.898347	-0.355103
C45	C	-4.013918	0.771576	0.038673
C46	C	-3.952756	0.733278	0.132449
C47	C	-3.917574	0.921313	-0.403474
C48	C	-3.955596	0.956340	-0.491583
C49	C	-3.794570	0.968393	-0.531321
C50	C	-3.595507	0.945428	-0.482944
C51	C	-3.557487	0.910409	-0.394835
C52	C	-3.749966	0.702881	0.172169
C53	C	-3.692466	0.666907	0.260283
C54	C	-3.837761	0.661325	0.308674
C55	C	-4.040568	0.691728	0.268947
C56	C	-4.098062	0.727708	0.180836
H57	H	-3.520190	0.379940	-0.540885
H58	H	-3.790919	0.632024	0.380418
Br59	Br	-3.846206	1.015920	-0.650900
H60	H	-4.048715	0.911500	-0.371132
H61	H	-3.848806	0.143312	-0.515500
H62	H	-4.263197	0.752451	0.148502
H63	H	-3.464411	0.955247	-0.515312
H64	H	-4.159090	0.423783	-0.702673
Br65	Br	-3.287332	0.879238	-0.329200
Br66	Br	-3.552737	0.710449	0.106516
H67	H	-4.117695	0.975031	-0.530961
Br68	Br	-3.417225	0.625649	0.314178
H69	H	-4.158852	0.687178	0.308360
Br70	Br	-3.451097	0.186797	-0.499233
H71	H	-3.581460	0.236296	-0.668030
H72	H	-3.910174	0.141921	-0.660136
H73	H	-4.086298	0.220896	-0.531730
Br74	Br	-4.187805	0.438405	-0.545199
Br75	Br	-3.535565	0.425577	-0.706481
H76	H	-3.931807	0.492301	-0.708603
Br77	Br	-4.262182	0.219009	-0.693850
Br78	Br	-3.795680	0.540262	-0.552730
