data_functionalizedCrystal
_audit_creation_method	'MofGen! by Chris Wilmer'
_symmetry_space_group_name_H-M	'P1'
_symmetry_Int_Tables_number	1
_symmetry_cell_setting	triclinic
loop_
_symmetry_equiv_pos_as_xyz
  x,y,z
_cell_length_a	10.723023
_cell_length_b	10.723024
_cell_length_c	7.681481
_cell_angle_alpha	84.204337
_cell_angle_beta	95.778717
_cell_angle_gamma	84.467709
loop_
_atom_site_label
_atom_site_type_symbol
_atom_site_fract_x
_atom_site_fract_y
_atom_site_fract_z
O1	O	1.645493	0.186734	-0.146407
O2	O	2.145493	0.686734	0.353593
O3	O	1.282340	0.203489	-0.146414
O4	O	1.782340	0.703489	0.353586
O5	O	1.472293	0.013535	-0.146403
O6	O	1.972293	0.513535	0.353597
O7	O	1.455539	0.376689	-0.146417
O8	O	1.955539	0.876689	0.353583
O9	O	1.495673	-0.009898	0.146456
O10	O	1.995673	0.490102	0.646456
O11	O	1.305719	0.180056	0.146445
O12	O	1.805719	0.680056	0.646445
O13	O	1.668872	0.163301	0.146452
O14	O	2.168872	0.663301	0.646452
Zn15	Zn	1.491008	0.167958	0.192947
Zn16	Zn	1.991008	0.667958	0.692947
Zn17	Zn	1.460204	0.198833	-0.192908
Zn18	Zn	1.960204	0.698833	0.307092
O19	O	1.478919	0.353255	0.146442
O20	O	1.978919	0.853255	0.646442
C21	C	1.247530	0.190554	0.000015
C22	C	1.747530	0.690554	0.500015
C23	C	1.108975	0.186907	0.000012
C24	C	1.608975	0.686907	0.500012
C25	C	0.891896	0.193650	-0.151697
C26	C	1.391896	0.693650	0.348303
C27	C	1.035099	0.197420	-0.151698
C28	C	1.535099	0.697420	0.348302
C29	C	1.482764	-0.044681	0.000024
C30	C	1.982764	0.455319	0.500024
C31	C	1.479116	-0.183235	0.000018
C32	C	1.979116	0.316765	0.500018
C33	C	1.585403	-0.258218	0.000017
C34	C	2.085403	0.241782	0.500017
C35	C	1.581635	-0.401421	0.000011
C36	C	2.081635	0.098579	0.500011
C37	C	1.703682	0.176237	0.000020
C38	C	2.203682	0.676237	0.500020
C39	C	1.842236	0.179885	0.000011
C40	C	2.342236	0.679885	0.500011
C41	C	1.468448	0.411472	0.000011
C42	C	1.968448	0.911472	0.500011
C43	C	1.472095	0.550026	0.000006
C44	C	1.972095	1.050026	0.500006
N45	N	1.512040	0.146886	0.456282
N46	N	2.012040	0.646886	0.956282
N47	N	1.439182	0.219895	-0.456243
N48	N	1.939182	0.719895	0.043757
H49	H	1.077852	0.209219	-0.281581
H50	H	1.577852	0.709219	0.218419
H51	H	1.364809	0.294414	0.468556
H52	H	1.864809	0.794414	0.968556
F53	F	1.353155	-0.365768	0.000019
F54	F	1.853155	0.134232	0.500019
H55	H	1.672626	-0.465854	0.000018
H56	H	2.172626	0.034146	0.500018
F57	F	0.925231	0.168119	0.169784
F58	F	1.425231	0.668119	0.669784
H59	H	1.679190	-0.216397	0.000030
H60	H	2.179190	0.283603	0.500030
F61	F	1.609270	0.049488	0.554581
F62	F	2.109270	0.549488	1.054581
H63	H	1.385329	-0.225056	0.000004
H64	H	1.885329	0.274944	0.500004
F65	F	0.808907	0.205367	-0.321470
F66	F	1.308907	0.705367	0.178530
H67	H	1.066229	0.175122	0.129902
H68	H	1.566229	0.675122	0.629902
