data_functionalizedCrystal
_audit_creation_method	'MofGen! by Chris Wilmer'
_symmetry_space_group_name_H-M	'P1'
_symmetry_Int_Tables_number	1
_symmetry_cell_setting	triclinic
loop_
_symmetry_equiv_pos_as_xyz
  x,y,z
_cell_length_a	11.792241
_cell_length_b	16.974885
_cell_length_c	15.455313
_cell_angle_alpha	90.969048
_cell_angle_beta	87.311612
_cell_angle_gamma	96.207982
loop_
_atom_site_label
_atom_site_type_symbol
_atom_site_fract_x
_atom_site_fract_y
_atom_site_fract_z
O1	O	-0.144717	1.049683	0.001495
O2	O	0.355283	1.549683	0.501495
O3	O	-0.162043	0.820326	-0.014591
O4	O	0.337957	1.320326	0.485409
O5	O	0.011822	0.940571	-0.006163
O6	O	0.511822	1.440571	0.493837
O7	O	-0.318582	0.929439	-0.006933
O8	O	0.181418	1.429439	0.493067
O9	O	0.001921	0.933694	0.137617
O10	O	0.501921	1.433694	0.637617
O11	O	-0.171944	0.813450	0.129189
O12	O	0.328056	1.313450	0.629189
O13	O	-0.154618	1.042807	0.145275
O14	O	0.345382	1.542807	0.645275
Cu15	Cu	-0.164185	0.927501	0.150360
Cu16	Cu	0.335815	1.427501	0.650360
Cu17	Cu	-0.152476	0.935633	-0.019676
Cu18	Cu	0.347524	1.435633	0.480324
O19	O	-0.328484	0.922562	0.136847
O20	O	0.171516	1.422562	0.636847
C21	C	-0.166152	0.787526	0.055240
C22	C	0.333848	1.287526	0.555240
C23	C	-0.163631	0.700034	0.049103
C24	C	0.336369	1.200034	0.549103
C25	C	-0.148818	0.207958	0.006088
C26	C	0.351182	0.707958	0.506088
C27	C	-0.151187	0.290165	0.011866
C28	C	0.348813	0.790165	0.511866
C29	C	-0.157778	0.327511	0.093130
C30	C	0.342222	0.827511	0.593130
C31	C	-0.161987	0.282647	0.168621
C32	C	0.338013	0.782647	0.668621
C33	C	-0.159609	0.200443	0.162843
C34	C	0.340391	0.700443	0.662843
C35	C	-0.165462	0.572965	0.118816
C36	C	0.334538	1.072965	0.618816
C37	C	-0.167843	0.655176	0.124589
C38	C	0.332157	1.155176	0.624589
C39	C	-0.157041	0.662688	-0.032167
C40	C	0.342959	1.162688	0.467833
C41	C	-0.154670	0.580480	-0.037939
C42	C	0.345330	1.080480	0.462061
C43	C	-0.158874	0.535624	0.037553
C44	C	0.341126	1.035624	0.537553
N45	N	-0.160204	0.411540	0.099037
N46	N	0.339796	0.911540	0.599037
N47	N	-0.156439	0.451598	0.031644
N48	N	0.343561	0.951598	0.531644
C49	C	-0.365820	0.926700	0.065007
C50	C	0.134180	1.426700	0.565007
C51	C	-0.491822	0.928792	0.065158
C52	C	0.008178	1.428792	0.565158
C53	C	-0.722511	0.932642	0.065406
C54	C	-0.222511	1.432642	0.565406
C55	C	-0.594139	0.930503	0.065268
C56	C	-0.094139	1.430503	0.565268
C57	C	0.049159	0.936434	0.065675
C58	C	0.549159	1.436434	0.565675
C59	C	0.175161	0.934341	0.065519
C60	C	0.675161	1.434341	0.565519
C61	C	-0.150509	1.075608	0.075443
C62	C	0.349491	1.575608	0.575443
C63	C	-0.153030	1.163099	0.081574
C64	C	0.346970	1.663099	0.581574
N65	N	-0.172421	0.921787	0.269956
N66	N	0.327579	1.421787	0.769956
N67	N	-0.144232	0.941353	-0.139271
N68	N	0.355768	1.441353	0.360729
C69	C	-0.098584	0.972889	0.318931
C70	C	0.401416	1.472889	0.818931
C71	C	-0.104822	0.968575	0.409437
C72	C	0.395178	1.468575	0.909437
C73	C	-0.184904	0.913162	0.450965
C74	C	0.315096	1.413162	0.950965
C75	C	-0.258744	0.862055	0.401982
C76	C	0.241256	1.362055	0.901982
C77	C	-0.252499	0.866365	0.311478
C78	C	0.247501	1.366365	0.811478
C79	C	-0.211827	0.894556	0.721242
C80	C	0.288173	1.394556	1.221242
C81	C	-0.218069	0.890251	0.811753
C82	C	0.281931	1.390251	1.311753
C83	C	-0.064145	0.996770	0.819201
C84	C	0.435855	1.496770	1.319201
C85	C	-0.057912	1.001079	0.728695
C86	C	0.442088	1.501079	1.228695
C87	C	-0.131748	0.949969	0.679721
C88	C	0.368252	1.449969	1.179721
N89	N	-0.191285	0.908753	0.543476
N90	N	0.308715	1.408753	1.043476
N91	N	-0.125361	0.954375	0.587211
N92	N	0.374639	1.454375	1.087211
H93	H	-0.153617	0.699219	-0.093628
H94	H	0.346383	1.199219	0.406372
H95	H	-0.312623	0.824752	0.271603
H96	H	0.187377	1.324752	0.771603
H97	H	-0.323944	0.816933	0.435800
H98	H	0.176056	1.316933	0.935800
C99	C	-0.293070	0.838359	0.667379
C100	C	0.206930	1.338359	1.167379
H101	H	-0.277886	0.848857	0.607529
H102	H	0.222114	1.348857	1.107529
H103	H	-0.369869	0.846547	0.682838
H104	H	0.130131	1.346547	1.182838
H105	H	-0.281568	0.785001	0.678527
H106	H	0.218432	1.285001	1.178527
C107	C	-0.164309	0.151089	0.245874
C108	C	0.335691	0.651089	0.745874
H109	H	-0.161957	0.096782	0.230794
H110	H	0.338043	0.596782	0.730794
H111	H	-0.233060	0.157302	0.278594
H112	H	0.266940	0.657302	0.778594
H113	H	-0.100805	0.168729	0.279453
H114	H	0.399195	0.668729	0.779453
H115	H	-0.004030	1.038381	0.859085
H116	H	0.495970	1.538381	1.359085
C117	C	-0.141571	0.166880	-0.083302
C118	C	0.358429	0.666880	0.416698
H119	H	-0.140768	0.111495	-0.075935
H120	H	0.359232	0.611495	0.424065
H121	H	-0.073616	0.187626	-0.114156
H122	H	0.426384	0.687626	0.385844
H123	H	-0.205875	0.176168	-0.114958
H124	H	0.294125	0.676168	0.385042
C125	C	-0.023612	1.024795	0.463307
C126	C	0.476388	1.524795	0.963307
H127	H	0.024963	1.058422	0.425613
H128	H	0.524963	1.558422	0.925613
H129	H	0.021322	0.994575	0.496624
H130	H	0.521322	1.494575	0.996624
H131	H	-0.067027	1.056087	0.500912
H132	H	0.432973	1.556087	1.000912
C133	C	0.030125	1.062067	0.683019
C134	C	0.530125	1.562067	1.183019
H135	H	0.023245	1.057331	0.622105
H136	H	0.523245	1.557331	1.122105
H137	H	0.104911	1.052524	0.697214
H138	H	0.604911	1.552524	1.197214
H139	H	0.016496	1.113990	0.701551
H140	H	0.516496	1.613990	1.201551
C141	C	-0.306101	0.829252	0.857430
C142	C	0.193899	1.329252	1.357430
H143	H	-0.349158	0.799413	0.815300
H144	H	0.150842	1.299413	1.315300
H145	H	-0.355926	0.856076	0.894747
H146	H	0.144074	1.356076	1.394747
H147	H	-0.267503	0.794615	0.890412
H148	H	0.232497	1.294615	1.390412
C149	C	-0.147419	0.539401	-0.127327
C150	C	0.352581	1.039401	0.372673
H151	H	-0.146618	0.484017	-0.119957
H152	H	0.353382	0.984017	0.380043
H153	H	-0.079466	0.560145	-0.158185
H154	H	0.420534	1.060145	0.341815
H155	H	-0.211725	0.548688	-0.158982
H156	H	0.288275	1.048688	0.341018
H157	H	-0.147750	0.326686	-0.049603
H158	H	0.352250	0.826686	0.450397
C159	C	-0.175036	0.696260	0.213984
C160	C	0.324964	1.196260	0.713984
H161	H	-0.177173	0.657775	0.258117
H162	H	0.322827	1.157775	0.758117
H163	H	-0.242301	0.722455	0.219121
H164	H	0.257699	1.222455	0.719121
H165	H	-0.110038	0.733893	0.219865
H166	H	0.389962	1.233893	0.719865
H167	H	-0.168868	0.536454	0.180287
H168	H	0.331132	1.036454	0.680287
C169	C	-0.169240	0.323726	0.258010
C170	C	0.330760	0.823726	0.758010
H171	H	-0.170066	0.379108	0.250642
H172	H	0.329934	0.879108	0.750642
H173	H	-0.104947	0.314441	0.289672
H174	H	0.395053	0.814441	0.789672
H175	H	-0.237205	0.302977	0.288860
H176	H	0.262795	0.802977	0.788860
C177	C	-0.010492	1.033842	0.273258
C178	C	0.489508	1.533842	0.773258
H179	H	0.032596	1.063653	0.315392
H180	H	0.532596	1.563653	0.815392
H181	H	-0.049013	1.068501	0.240253
H182	H	0.450987	1.568501	0.740253
H183	H	0.039310	1.006970	0.235963
H184	H	0.539310	1.506970	0.735963
