data_functionalizedCrystal
_audit_creation_method	'MofGen! by Chris Wilmer'
_symmetry_space_group_name_H-M	'P1'
_symmetry_Int_Tables_number	1
_symmetry_cell_setting	triclinic
loop_
_symmetry_equiv_pos_as_xyz
  x,y,z
_cell_length_a	15.625020
_cell_length_b	16.109301
_cell_length_c	15.186229
_cell_angle_alpha	90.005167
_cell_angle_beta	71.913181
_cell_angle_gamma	96.134427
loop_
_atom_site_label
_atom_site_type_symbol
_atom_site_fract_x
_atom_site_fract_y
_atom_site_fract_z
O1	O	1.196237	-0.108524	-0.455275
O2	O	1.696237	0.391476	0.044725
O3	O	0.933744	-0.121460	-0.371444
O4	O	1.433744	0.378540	0.128556
O5	O	1.072202	0.006029	-0.415653
O6	O	1.572202	0.506029	0.084347
O7	O	1.057780	-0.236013	-0.411066
O8	O	1.557780	0.263987	0.088934
O9	O	1.072192	0.006031	-0.269193
O10	O	1.572192	0.506031	0.230807
O11	O	0.933735	-0.121458	-0.224984
O12	O	1.433735	0.378542	0.275016
O13	O	1.196228	-0.108523	-0.308814
O14	O	1.696228	0.391477	0.191186
Zn15	Zn	1.064980	-0.114990	-0.243645
Zn16	Zn	1.564980	0.385010	0.256355
Zn17	Zn	1.064992	-0.114992	-0.436613
Zn18	Zn	1.564992	0.385008	0.063387
O19	O	1.057771	-0.236011	-0.264605
O20	O	1.557771	0.263989	0.235395
C21	C	0.900151	-0.120874	-0.287487
C22	C	1.400151	0.379126	0.212513
C23	C	0.800065	-0.119120	-0.255523
C24	C	1.300065	0.380880	0.244477
C25	C	0.658993	-0.116646	-0.130642
C26	C	1.158993	0.383354	0.369358
C27	C	0.753039	-0.118294	-0.160686
C28	C	1.253039	0.381706	0.339314
C29	C	0.753058	-0.118293	-0.320354
C30	C	1.253058	0.381707	0.179646
C31	C	0.659012	-0.116640	-0.290323
C32	C	1.159012	0.383360	0.209677
C33	C	0.611987	-0.115818	-0.195466
C34	C	1.111987	0.384182	0.304534
C35	C	0.612005	-0.115812	-0.355148
C36	C	1.112005	0.384188	0.144852
C37	C	0.517966	-0.114164	-0.325119
C38	C	1.017966	0.385836	0.174881
C39	C	0.470934	-0.113344	-0.230266
C40	C	0.970934	0.386656	0.269734
C41	C	0.517948	-0.114170	-0.165437
C42	C	1.017948	0.385830	0.334563
C43	C	0.659031	-0.116641	-0.450004
C44	C	1.159031	0.383359	0.049996
C45	C	0.612025	-0.115813	-0.514829
C46	C	1.112025	0.384187	-0.014829
C47	C	0.517985	-0.114159	-0.484801
C48	C	1.017985	0.385841	0.015199
C49	C	0.470953	-0.113339	-0.389948
C50	C	0.970953	0.386661	0.110052
C51	C	0.470971	-0.113333	-0.549629
C52	C	0.970971	0.386667	-0.049629
C53	C	0.376932	-0.111685	-0.519600
C54	C	0.876932	0.388315	-0.019600
C55	C	0.376914	-0.111691	-0.359919
C56	C	0.876914	0.388309	0.140081
C57	C	1.071613	0.037005	-0.342236
C58	C	1.571613	0.537005	0.157764
C59	C	1.069861	0.129303	-0.341676
C60	C	1.569861	0.629303	0.158324
C61	C	1.229822	-0.109109	-0.392774
C62	C	1.729822	0.390891	0.107226
C63	C	1.329907	-0.110863	-0.424743
C64	C	1.829907	0.389137	0.075257
C65	C	1.058359	-0.266988	-0.338024
C66	C	1.558359	0.233012	0.161976
C67	C	1.060111	-0.359286	-0.338591
C68	C	1.560111	0.140714	0.161409
N69	N	1.064978	-0.114988	-0.111952
N70	N	1.564978	0.385012	0.388048
C71	C	1.147947	0.351467	-0.366627
C72	C	1.647947	0.851467	0.133373
C73	C	1.146294	0.438190	-0.366107
C74	C	1.646294	0.938190	0.133893
C75	C	0.982019	0.418543	-0.313640
C76	C	1.482019	0.918543	0.186360
C77	C	0.983673	0.331822	-0.314167
C78	C	1.483673	0.831822	0.185833
C79	C	1.066639	0.298287	-0.340657
C80	C	1.566639	0.798287	0.159343
C81	C	1.063333	0.471731	-0.339609
C82	C	1.563333	0.971731	0.160391
C83	C	1.061540	0.565759	-0.339045
C84	C	1.561540	1.065759	0.160955
C85	C	1.068432	0.204252	-0.341223
C86	C	1.568432	0.704252	0.158777
N87	N	1.065001	-0.114988	-0.568309
N88	N	1.565001	0.385012	-0.068309
C89	C	1.126308	-0.058555	0.094188
C90	C	1.626308	0.441445	0.594188
C91	C	1.126311	-0.058553	0.186377
C92	C	1.626311	0.441447	0.686377
C93	C	1.003665	-0.171424	0.225547
C94	C	1.503665	0.328576	0.725547
C95	C	1.003658	-0.171421	0.133361
C96	C	1.503658	0.328579	0.633361
C97	C	1.064985	-0.114988	0.067682
C98	C	1.564985	0.385012	0.567682
C99	C	1.064994	-0.114988	0.252057
C100	C	1.564994	0.385012	0.752057
C101	C	1.064997	-0.114987	0.352012
C102	C	1.564997	0.385013	0.852012
C103	C	1.064982	-0.114988	-0.032279
C104	C	1.564982	0.385012	0.467721
H105	H	0.791307	-0.118974	-0.107890
H106	H	1.291307	0.381026	0.392110
Cl107	Cl	0.812185	-0.119324	-0.439599
Cl108	Cl	1.312185	0.380676	0.060401
H109	H	0.914471	0.445859	-0.292071
H110	H	1.414471	0.945859	0.207929
H111	H	0.953718	-0.217376	0.111781
H112	H	1.453718	0.282624	0.611781
Cl113	Cl	1.203401	0.012393	0.011626
Cl114	Cl	1.703401	0.512393	0.511626
Cl115	Cl	1.203404	0.012395	0.219696
Cl116	Cl	1.703404	0.512395	0.719696
H117	H	0.338658	-0.111013	-0.572387
H118	H	0.838658	0.388987	-0.072387
Cl119	Cl	0.926575	-0.242368	0.308116
Cl120	Cl	1.426575	0.257632	0.808116
Cl121	Cl	0.352711	-0.111277	-0.192512
Cl122	Cl	0.852711	0.388723	0.307488
H123	H	0.917459	0.288520	-0.293020
H124	H	1.417459	0.788520	0.206980
H125	H	0.479655	-0.113510	-0.088195
H126	H	0.979655	0.386490	0.411805
Cl127	Cl	0.317792	-0.110633	-0.240668
Cl128	Cl	0.817792	0.389367	0.259332
H129	H	0.620701	-0.115986	-0.053399
H130	H	1.120701	0.384014	0.446601
Cl131	Cl	0.777253	-0.118714	-0.487755
Cl132	Cl	1.277253	0.381286	0.012245
Cl133	Cl	0.671151	-0.116844	-0.634074
Cl134	Cl	1.171151	0.383156	-0.134074
H135	H	1.212503	0.481487	-0.387256
H136	H	1.712503	0.981487	0.112744
H137	H	0.509272	-0.114011	-0.626862
H138	H	1.009272	0.385989	-0.126862
Cl139	Cl	1.252247	0.309311	-0.399931
Cl140	Cl	1.752247	0.809311	0.100069
