data_functionalizedCrystal
_audit_creation_method	'MofGen! by Chris Wilmer'
_symmetry_space_group_name_H-M	'P1'
_symmetry_Int_Tables_number	1
_symmetry_cell_setting	triclinic
loop_
_symmetry_equiv_pos_as_xyz
  x,y,z
_cell_length_a	18.050591
_cell_length_b	29.839131
_cell_length_c	29.839135
_cell_angle_alpha	90.015469
_cell_angle_beta	90.019832
_cell_angle_gamma	90.037426
loop_
_atom_site_label
_atom_site_type_symbol
_atom_site_fract_x
_atom_site_fract_y
_atom_site_fract_z
Zn1	Zn	1.135216	-0.178974	0.254080
Zn2	Zn	1.468550	0.154359	0.587414
Zn3	Zn	1.801883	0.487693	0.920747
Zn4	Zn	1.135101	-0.254083	0.178950
Zn5	Zn	1.468434	0.079250	0.512284
Zn6	Zn	1.801767	0.412583	0.845617
Zn7	Zn	1.011038	-0.178963	0.178955
Zn8	Zn	1.344371	0.154371	0.512288
Zn9	Zn	1.677705	0.487704	0.845622
Zn10	Zn	1.010955	-0.254073	0.254044
Zn11	Zn	1.344288	0.079261	0.587377
Zn12	Zn	1.677622	0.412594	0.920710
O13	O	1.073077	-0.216523	0.216507
O14	O	1.406411	0.116810	0.549841
O15	O	1.739744	0.450143	0.883174
O16	O	1.239126	-0.188947	0.244128
O17	O	1.572459	0.144387	0.577461
O18	O	1.905792	0.477720	0.910794
O19	O	1.118630	-0.244118	0.116084
O20	O	1.451963	0.089215	0.449417
O21	O	1.785297	0.422549	0.782751
O22	O	1.027594	-0.116097	0.188938
O23	O	1.360927	0.217236	0.522271
O24	O	1.694260	0.550570	0.855604
O25	O	1.239041	-0.244129	0.188930
O26	O	1.572374	0.089204	0.522263
O27	O	1.905707	0.422538	0.855597
O28	O	1.118827	-0.116105	0.244132
O29	O	1.452160	0.217228	0.577465
O30	O	1.785494	0.550561	0.910799
O31	O	1.027482	-0.188927	0.116087
O32	O	1.360815	0.144406	0.449420
O33	O	1.694148	0.477739	0.782754
O34	O	0.907102	-0.188917	0.188902
O35	O	1.240436	0.144416	0.522235
O36	O	1.573769	0.477750	0.855569
O37	O	1.027452	-0.244111	0.316916
O38	O	1.360785	0.089222	0.650249
O39	O	1.694119	0.422556	0.983582
O40	O	0.907041	-0.244100	0.244069
O41	O	1.240375	0.089233	0.577403
O42	O	1.573708	0.422567	0.910736
O43	O	1.118746	-0.188936	0.316943
O44	O	1.452080	0.144397	0.650276
O45	O	1.785413	0.477730	0.983609
O46	O	1.118549	-0.316949	0.188894
O47	O	1.451883	0.016384	0.522228
O48	O	1.785216	0.349718	0.855561
O49	O	1.027340	-0.316941	0.244065
O50	O	1.360673	0.016392	0.577398
O51	O	1.694007	0.349726	0.910732
C52	C	0.880125	-0.216506	0.216482
C53	C	1.213459	0.116827	0.549816
C54	C	1.546792	0.450160	0.883149
C55	C	0.797580	-0.216510	0.216483
C56	C	1.130913	0.116823	0.549816
C57	C	1.464246	0.450157	0.883149
C58	C	0.598141	-0.186467	0.186552
C59	C	0.931474	0.146866	0.519885
C60	C	1.264807	0.480200	0.853218
C61	C	0.548706	-0.227440	0.175494
C62	C	0.882039	0.105893	0.508827
C63	C	1.215372	0.439226	0.842160
C64	C	0.646449	-0.216524	0.216503
C65	C	0.979783	0.116810	0.549836
C66	C	1.313116	0.450143	0.883169
C67	C	0.548802	-0.175564	0.227559
C68	C	0.882136	0.157769	0.560893
C69	C	1.215469	0.491102	0.894226
C70	C	0.500464	-0.216533	0.216522
C71	C	0.833797	0.116800	0.549855
C72	C	1.167131	0.450133	0.883188
C73	C	0.598101	-0.257519	0.205424
C74	C	0.931435	0.075815	0.538757
C75	C	1.264768	0.409148	0.872090
C76	C	0.598203	-0.205615	0.257508
C77	C	0.931536	0.127718	0.590842
C78	C	1.264869	0.461052	0.924175
C79	C	0.548790	-0.246617	0.246466
C80	C	0.882123	0.086716	0.579799
C81	C	1.215457	0.420050	0.913133
C82	C	0.730548	-0.216518	0.216491
C83	C	1.063881	0.116816	0.549824
C84	C	1.397214	0.450149	0.883158
C85	C	0.416368	-0.216544	0.216534
C86	C	0.749701	0.116789	0.549867
C87	C	1.083034	0.450123	0.883200
C88	C	1.072943	-0.333246	0.216485
C89	C	1.406277	0.000088	0.549818
C90	C	1.739610	0.333421	0.883152
C91	C	1.072954	-0.383180	0.216491
C92	C	1.406287	-0.049847	0.549824
C93	C	1.739621	0.283486	0.883157
C94	C	1.120657	-0.692815	0.187822
C95	C	1.453990	-0.359482	0.521155
C96	C	1.787323	-0.026148	0.854489
C97	C	1.120748	-0.880488	0.187839
C98	C	1.454082	-0.547155	0.521173
C99	C	1.787415	-0.213821	0.854506
O100	O	1.161200	-0.904746	0.163447
O101	O	1.494534	-0.571412	0.496780
O102	O	1.827867	-0.238079	0.830114
N103	N	1.073231	-0.903965	0.216541
N104	N	1.406565	-0.570632	0.549875
N105	N	1.739898	-0.237299	0.883208
C106	C	1.025692	-0.880521	0.245243
C107	C	1.359025	-0.547188	0.578576
C108	C	1.692359	-0.213855	0.911909
O109	O	0.985283	-0.904796	0.269659
O110	O	1.318617	-0.571463	0.602992
O111	O	1.651950	-0.238130	0.936326
C112	C	1.025604	-0.692849	0.245227
C113	C	1.358938	-0.359516	0.578561
C114	C	1.692271	-0.026182	0.911894
C115	C	1.073119	-0.669374	0.216520
C116	C	1.406452	-0.336041	0.549854
C117	C	1.739786	-0.002708	0.883187
C118	C	1.168168	-0.669340	0.159118
C119	C	1.501501	-0.336007	0.492451
C120	C	1.834835	-0.002674	0.825784
C121	C	1.168142	-0.622425	0.159112
C122	C	1.501475	-0.289091	0.492445
C123	C	1.834808	0.044242	0.825779
C124	C	1.120604	-0.598984	0.187810
C125	C	1.453937	-0.265651	0.521144
C126	C	1.787271	0.067683	0.854477
C127	C	1.073093	-0.622459	0.216515
C128	C	1.406426	-0.289126	0.549848
C129	C	1.739759	0.044208	0.883181
C130	C	0.978069	-0.669406	0.273931
C131	C	1.311402	-0.336073	0.607264
C132	C	1.644736	-0.002739	0.940598
C133	C	0.978053	-0.622485	0.273925
C134	C	1.311386	-0.289152	0.607259
C135	C	1.644720	0.044182	0.940592
C136	C	1.025567	-0.599010	0.245218
C137	C	1.358901	-0.265677	0.578552
C138	C	1.692234	0.067656	0.911885
C139	C	1.025529	-0.552103	0.245207
C140	C	1.358862	-0.218769	0.578541
C141	C	1.692196	0.114564	0.911874
N142	N	1.073046	-0.528626	0.216505
N143	N	1.406379	-0.195292	0.549839
N144	N	1.739712	0.138041	0.883172
C145	C	1.120583	-0.552066	0.187807
C146	C	1.453917	-0.218733	0.521140
C147	C	1.787250	0.114600	0.854474
C148	C	1.025740	-0.979052	0.245248
C149	C	1.359073	-0.645719	0.578582
C150	C	1.692407	-0.312385	0.911915
C151	C	1.025761	-1.025970	0.245252
C152	C	1.359094	-0.692636	0.578585
C153	C	1.692427	-0.359303	0.911918
C154	C	1.120818	-1.025933	0.187849
C155	C	1.454152	-0.692600	0.521182
C156	C	1.787485	-0.359267	0.854515
C157	C	1.120793	-0.979015	0.187843
C158	C	1.454127	-0.645681	0.521177
C159	C	1.787460	-0.312348	0.854510
C160	C	1.073257	-0.955575	0.216546
C161	C	1.406590	-0.622241	0.549880
C162	C	1.739923	-0.288908	0.883213
C163	C	1.120524	-0.453540	0.187797
C164	C	1.453857	-0.120207	0.521130
C165	C	1.787191	0.213126	0.854463
C166	C	1.120491	-0.406621	0.187792
C167	C	1.453825	-0.073287	0.521125
C168	C	1.787158	0.260046	0.854459
C169	C	1.025437	-0.406661	0.245197
C170	C	1.358770	-0.073328	0.578530
C171	C	1.692104	0.260005	0.911863
C172	C	1.025467	-0.453577	0.245200
C173	C	1.358800	-0.120244	0.578533
C174	C	1.692133	0.213090	0.911866
C175	C	1.073016	-0.477015	0.216498
C176	C	1.406349	-0.143682	0.549832
C177	C	1.739683	0.189651	0.883165
O178	O	0.985104	-0.527816	0.269590
O179	O	1.318437	-0.194483	0.602924
O180	O	1.651771	0.138850	0.936257
O181	O	1.160997	-0.527783	0.163401
O182	O	1.494331	-0.194450	0.496735
O183	O	1.827664	0.138884	0.830068
C184	C	1.120683	-0.739730	0.187828
C185	C	1.454016	-0.406397	0.521161
C186	C	1.787350	-0.073064	0.854494
C187	C	1.073172	-0.763205	0.216532
C188	C	1.406505	-0.429872	0.549865
C189	C	1.739838	-0.096539	0.883199
C190	C	1.025634	-0.739765	0.245230
C191	C	1.358967	-0.406431	0.578564
C192	C	1.692301	-0.073098	0.911897
C193	C	1.073192	-0.810123	0.216535
C194	C	1.406526	-0.476790	0.549869
C195	C	1.739859	-0.143456	0.883202
C196	C	1.120730	-0.833564	0.187837
C197	C	1.454063	-0.500230	0.521170
C198	C	1.787397	-0.166897	0.854504
C199	C	1.168247	-0.810087	0.159135
C200	C	1.501580	-0.476753	0.492468
C201	C	1.834913	-0.143420	0.825802
C202	C	1.168220	-0.763171	0.159129
C203	C	1.501554	-0.429838	0.492463
C204	C	1.834887	-0.096504	0.825796
C205	C	0.978117	-0.763242	0.273932
C206	C	1.311451	-0.429908	0.607266
C207	C	1.644784	-0.096575	0.940599
C208	C	0.978147	-0.810157	0.273935
C209	C	1.311480	-0.476824	0.607269
C210	C	1.644813	-0.143491	0.940602
C211	C	1.025684	-0.833598	0.245237
C212	C	1.359018	-0.500265	0.578570
C213	C	1.692351	-0.166931	0.911904
C214	C	1.266783	-0.216540	0.216533
C215	C	1.600116	0.116793	0.549866
C216	C	1.933450	0.450126	0.883199
C217	C	1.349329	-0.216548	0.216543
C218	C	1.682662	0.116786	0.549877
C219	C	2.015995	0.450119	0.883210
C220	C	1.073103	-0.216524	0.333686
C221	C	1.406436	0.116810	0.667019
C222	C	1.739770	0.450143	1.000352
C223	C	1.073114	-0.216524	0.383620
C224	C	1.406447	0.116809	0.716953
C225	C	1.739780	0.450143	1.050287
C226	C	1.073232	-0.099345	0.216540
C227	C	1.406566	0.233989	0.549873
C228	C	1.739899	0.567322	0.883206
C229	C	1.073298	-0.049410	0.216553
C230	C	1.406632	0.283923	0.549887
C231	C	1.739965	0.617256	0.883220
C232	C	1.025613	-0.187788	0.693268
C233	C	1.358946	0.145545	1.026601
C234	C	1.692280	0.478878	1.359935
C235	C	1.025601	-0.187785	0.880941
C236	C	1.358934	0.145548	1.214274
C237	C	1.692268	0.478881	1.547608
O238	O	0.985219	-0.163362	0.905210
O239	O	1.318553	0.169972	1.238543
O240	O	1.651886	0.503305	1.571877
N241	N	1.073057	-0.216519	0.904405
N242	N	1.406391	0.116815	1.237739
N243	N	1.739724	0.450148	1.571072
C244	C	1.120517	-0.245257	0.880948
C245	C	1.453850	0.088077	1.214281
C246	C	1.787183	0.421410	1.547615
O247	O	1.160875	-0.269699	0.905212
O248	O	1.494209	0.063634	1.238545
O249	O	1.827542	0.396968	1.571879
C250	C	1.120524	-0.245261	0.693276
C251	C	1.453858	0.088072	1.026609
C252	C	1.787191	0.421405	1.359943
C253	C	1.073070	-0.216523	0.669814
C254	C	1.406403	0.116810	1.003148
C255	C	1.739737	0.450144	1.336481
C256	C	0.978162	-0.159053	0.669806
C257	C	1.311496	0.174281	1.003140
C258	C	1.644829	0.507614	1.336473
C259	C	0.978169	-0.159052	0.622891
C260	C	1.311502	0.174281	0.956224
C261	C	1.644835	0.507615	1.289558
C262	C	1.025626	-0.187787	0.599437
C263	C	1.358959	0.145547	0.932770
C264	C	1.692292	0.478880	1.266104
C265	C	1.073076	-0.216522	0.622899
C266	C	1.406410	0.116811	0.956232
C267	C	1.739743	0.450144	1.289565
C268	C	1.167979	-0.274001	0.669820
C269	C	1.501312	0.059332	1.003153
C270	C	1.834646	0.392665	1.336486
C271	C	1.167975	-0.274001	0.622899
C272	C	1.501309	0.059333	0.956232
C273	C	1.834642	0.392666	1.289565
C274	C	1.120521	-0.245262	0.599437
C275	C	1.453855	0.088071	0.932770
C276	C	1.787188	0.421404	1.266104
C277	C	1.120540	-0.245256	0.552530
C278	C	1.453873	0.088077	0.885863
C279	C	1.787207	0.421410	1.219196
N280	N	1.073084	-0.216523	0.529066
N281	N	1.406417	0.116810	0.862399
N282	N	1.739750	0.450144	1.195732
C283	C	1.025627	-0.187788	0.552519
C284	C	1.358960	0.145545	0.885853
C285	C	1.692293	0.478878	1.219186
C286	C	1.120510	-0.245252	0.979479
C287	C	1.453843	0.088082	1.312812
C288	C	1.787177	0.421415	1.646145
C289	C	1.120509	-0.245250	1.026397
C290	C	1.453843	0.088083	1.359730
C291	C	1.787176	0.421417	1.693063
C292	C	1.025593	-0.187779	1.026386
C293	C	1.358926	0.145554	1.359720
C294	C	1.692259	0.478887	1.693053
C295	C	1.025598	-0.187779	0.979468
C296	C	1.358931	0.145554	1.312801
C297	C	1.692265	0.478888	1.646134
C298	C	1.073054	-0.216518	0.956015
C299	C	1.406387	0.116815	1.289348
C300	C	1.739721	0.450148	1.622681
C301	C	1.025644	-0.187789	0.453993
C302	C	1.358977	0.145545	0.787327
C303	C	1.692311	0.478878	1.120660
C304	C	1.025657	-0.187789	0.407074
C305	C	1.358990	0.145544	0.740407
C306	C	1.692323	0.478878	1.073741
C307	C	1.120570	-0.245261	0.407088
C308	C	1.453903	0.088072	0.740421
C309	C	1.787237	0.421405	1.073755
C310	C	1.120560	-0.245259	0.454004
C311	C	1.453894	0.088074	0.787337
C312	C	1.787227	0.421407	1.120670
C313	C	1.073091	-0.216522	0.477455
C314	C	1.406425	0.116812	0.810789
C315	C	1.739758	0.450145	1.144122
O316	O	1.160895	-0.269671	0.528232
O317	O	1.494228	0.063663	0.861565
O318	O	1.827561	0.396996	1.194899
O319	O	0.985262	-0.163356	0.528247
O320	O	1.318596	0.169977	0.861581
O321	O	1.651929	0.503310	1.194914
C322	C	1.025607	-0.187789	0.740184
C323	C	1.358940	0.145544	1.073517
C324	C	1.692273	0.478878	1.406850
C325	C	1.073057	-0.216525	0.763645
C326	C	1.406391	0.116809	1.096979
C327	C	1.739724	0.450142	1.430312
C328	C	1.120515	-0.245259	0.740191
C329	C	1.453848	0.088074	1.073525
C330	C	1.787181	0.421407	1.406858
C331	C	1.073057	-0.216523	0.810563
C332	C	1.406390	0.116810	1.143896
C333	C	1.739723	0.450144	1.477230
C334	C	1.025600	-0.187788	0.834017
C335	C	1.358933	0.145545	1.167350
C336	C	1.692266	0.478879	1.500683
C337	C	0.978143	-0.159055	0.810553
C338	C	1.311477	0.174278	1.143886
C339	C	1.644810	0.507612	1.477219
C340	C	0.978150	-0.159054	0.763637
C341	C	1.311483	0.174279	1.096971
C342	C	1.644816	0.507613	1.430304
C343	C	1.167971	-0.273992	0.763655
C344	C	1.501304	0.059341	1.096989
C345	C	1.834637	0.392674	1.430322
C346	C	1.167961	-0.273991	0.810571
C347	C	1.501295	0.059343	1.143904
C348	C	1.834628	0.392676	1.477238
C349	C	1.120504	-0.245256	0.834025
C350	C	1.453837	0.088078	1.167358
C351	C	1.787171	0.421411	1.500691
C352	C	1.073051	-0.216528	1.099785
C353	C	1.406384	0.116805	1.433118
C354	C	1.739717	0.450138	1.766451
C355	C	1.073052	-0.216515	1.049850
C356	C	1.406386	0.116818	1.383184
C357	C	1.739719	0.450152	1.716517
H358	H	1.159183	-0.387509	0.164414
H359	H	1.492517	-0.054176	0.497747
H360	H	1.825850	0.279158	0.831081
Br361	Br	0.961226	-0.148784	0.485813
Br362	Br	1.294559	0.184549	0.819147
Br363	Br	1.627892	0.517882	1.152480
H364	H	1.206834	-0.603314	0.135738
H365	H	1.540167	-0.269981	0.469071
H366	H	1.873501	0.063352	0.802404
Br367	Br	0.913745	-0.120050	0.731804
Br368	Br	1.247078	0.213284	1.065137
Br369	Br	1.580411	0.546617	1.398471
H370	H	0.987014	-0.164385	0.387974
H371	H	1.320347	0.168948	0.721307
H372	H	1.653681	0.502282	1.054640
H373	H	1.159526	-1.045027	0.164481
H374	H	1.492859	-0.711693	0.497815
H375	H	1.826192	-0.378360	0.831148
Br376	Br	0.961194	-0.148776	0.947632
Br377	Br	1.294527	0.184558	1.280965
Br378	Br	1.627861	0.517891	1.614299
Br379	Br	0.634258	-0.144146	0.144293
Br380	Br	0.967592	0.189187	0.477626
Br381	Br	1.300925	0.522521	0.810959
H382	H	0.619961	-0.196369	0.292168
H383	H	0.953294	0.136964	0.625501
H384	H	1.286627	0.470298	0.958834
Br385	Br	1.185056	-0.485342	0.148844
Br386	Br	1.518389	-0.152009	0.482178
Br387	Br	1.851723	0.181324	0.815511
H388	H	0.986779	-0.472691	0.268577
H389	H	1.320112	-0.139358	0.601910
H390	H	1.653445	0.193976	0.935243
Br391	Br	0.961187	-0.148782	1.058225
Br392	Br	1.294521	0.184551	1.391559
Br393	Br	1.627854	0.517885	1.724892
H394	H	0.939374	-0.688511	0.297305
H395	H	1.272707	-0.355178	0.630638
H396	H	1.606041	-0.021844	0.963972
Br397	Br	0.913760	-0.120050	0.591057
Br398	Br	1.247093	0.213283	0.924391
Br399	Br	1.580426	0.546617	1.257724
H400	H	0.526965	-0.236674	0.140824
H401	H	0.860299	0.096659	0.474157
H402	H	1.193632	0.429992	0.807491
H403	H	1.206614	-0.297394	0.744564
H404	H	1.539947	0.035939	1.077897
H405	H	1.873281	0.369273	1.411231
H406	H	0.986730	-0.387569	0.268561
H407	H	1.320063	-0.054235	0.601895
H408	H	1.653397	0.279098	0.935228
Br409	Br	0.913538	-0.590676	0.312883
Br410	Br	1.246871	-0.257343	0.646217
Br411	Br	1.580205	0.075990	0.979550
H412	H	1.206911	-0.744061	0.135754
H413	H	1.540245	-0.410728	0.469087
H414	H	1.873578	-0.077395	0.802420
H415	H	0.527258	-0.272068	0.271803
H416	H	0.860591	0.061265	0.605136
H417	H	1.193925	0.394598	0.938470
H418	H	1.159484	-0.959904	0.164468
H419	H	1.492817	-0.626571	0.497801
H420	H	1.826151	-0.293237	0.831135
Br421	Br	0.913654	-0.842010	0.312897
Br422	Br	1.246987	-0.508677	0.646231
Br423	Br	1.580321	-0.175343	0.979564
H424	H	1.206951	-0.829180	0.135766
H425	H	1.540285	-0.495847	0.469100
H426	H	1.873618	-0.162513	0.802433
H427	H	0.939407	-0.744160	0.297303
H428	H	1.272741	-0.410827	0.630636
H429	H	1.606074	-0.077493	0.963969
Br430	Br	0.512699	-0.117826	0.243132
Br431	Br	0.846032	0.215507	0.576465
Br432	Br	1.179365	0.548841	0.909799
Br433	Br	1.184925	-0.284246	1.058231
Br434	Br	1.518259	0.049087	1.391565
Br435	Br	1.851592	0.382420	1.724898
H436	H	1.206883	-0.688421	0.135748
H437	H	1.540216	-0.355087	0.469081
H438	H	1.873549	-0.021754	0.802414
H439	H	1.206625	-0.297401	0.603806
H440	H	1.539959	0.035932	0.937139
H441	H	1.873292	0.369265	1.270472
Br442	Br	0.634039	-0.315277	0.189783
Br443	Br	0.967373	0.018057	0.523117
Br444	Br	1.300706	0.351390	0.856450
Br445	Br	1.232373	-0.312995	0.842406
Br446	Br	1.565706	0.020339	1.175739
Br447	Br	1.899039	0.353672	1.509072
H448	H	1.159210	-0.268655	0.473107
H449	H	1.492543	0.064678	0.806440
H450	H	1.825876	0.398011	1.139774
Br451	Br	1.184924	-0.284257	0.947656
Br452	Br	1.518257	0.049076	1.280990
Br453	Br	1.851591	0.382409	1.614323
Br454	Br	1.232380	-0.313009	0.701648
Br455	Br	1.565713	0.020324	1.034982
Br456	Br	1.899047	0.353658	1.368315
Br457	Br	0.961263	-1.057823	0.284206
Br458	Br	1.294597	-0.724489	0.617539
Br459	Br	1.627930	-0.391156	0.950873
Br460	Br	1.184978	-0.284253	0.375249
Br461	Br	1.518312	0.049080	0.708582
Br462	Br	1.851645	0.382413	1.041916
Br463	Br	0.913742	-0.120056	0.842392
Br464	Br	1.247075	0.213278	1.175726
Br465	Br	1.580408	0.546611	1.509059
H466	H	0.987028	-0.959970	0.268622
H467	H	1.320362	-0.626637	0.601956
H468	H	1.653695	-0.293304	0.935289
H469	H	0.939513	-0.135653	0.688898
H470	H	1.272847	0.197680	1.022231
H471	H	1.606180	0.531014	1.355564
