data_functionalizedCrystal
_audit_creation_method	'MofGen! by Chris Wilmer'
_symmetry_space_group_name_H-M	'P1'
_symmetry_Int_Tables_number	1
_symmetry_cell_setting	triclinic
loop_
_symmetry_equiv_pos_as_xyz
  x,y,z
_cell_length_a	17.699083
_cell_length_b	17.699083
_cell_length_c	16.176319
_cell_angle_alpha	89.992304
_cell_angle_beta	89.998611
_cell_angle_gamma	83.283015
loop_
_atom_site_label
_atom_site_type_symbol
_atom_site_fract_x
_atom_site_fract_y
_atom_site_fract_z
O1	O	1.004079	0.095713	-0.068632
O2	O	1.504079	0.595713	0.431368
O3	O	0.783700	0.108166	-0.068660
O4	O	1.283700	0.608166	0.431340
O5	O	0.900116	-0.008250	-0.068638
O6	O	1.400116	0.491750	0.431362
O7	O	0.887663	0.212129	-0.068654
O8	O	1.387663	0.712129	0.431346
O9	O	0.900100	-0.008257	0.068855
O10	O	1.400100	0.491743	0.568855
O11	O	0.783684	0.108158	0.068834
O12	O	1.283684	0.608158	0.568834
O13	O	1.004063	0.095706	0.068861
O14	O	1.504063	0.595706	0.568861
Cu15	Cu	0.893872	0.101931	0.081401
Cu16	Cu	1.393872	0.601931	0.581401
Cu17	Cu	0.893891	0.101940	-0.081200
Cu18	Cu	1.393891	0.601940	0.418800
O19	O	0.887647	0.212121	0.068839
O20	O	1.387647	0.712121	0.568839
C21	C	0.755495	0.107716	0.000084
C22	C	1.255495	0.607716	0.500084
C23	C	0.671477	0.106377	0.000073
C24	C	1.171477	0.606377	0.500073
C25	C	0.622856	0.174710	0.000069
C26	C	1.122856	0.674710	0.500069
C27	C	0.543913	0.173448	0.000079
C28	C	1.043913	0.673448	0.500079
C29	C	0.513592	0.103852	0.000089
C30	C	1.013592	0.603852	0.500089
C31	C	0.562219	0.035513	0.000096
C32	C	1.062219	0.535513	0.500096
C33	C	0.641161	0.036776	0.000091
C34	C	1.141161	0.536776	0.500091
C35	C	0.243856	0.030418	0.000117
C36	C	0.743856	0.530418	0.500117
C37	C	0.164908	0.029160	0.000120
C38	C	0.664908	0.529160	0.500120
C39	C	0.146608	0.167090	0.000105
C40	C	0.646608	0.667090	0.500105
C41	C	0.225550	0.168353	0.000100
C42	C	0.725550	0.668353	0.500100
C43	C	0.274170	0.100015	0.000112
C44	C	0.774170	0.600015	0.500112
C45	C	0.359769	0.101384	0.000102
C46	C	0.859769	0.601384	0.500102
C47	C	0.427995	0.102481	0.000093
C48	C	0.927995	0.602481	0.500093
C49	C	0.899662	-0.036451	0.000109
C50	C	1.399662	0.463549	0.500109
C51	C	0.898323	-0.120469	0.000109
C52	C	1.398323	0.379531	0.500109
C53	C	0.966656	-0.169090	0.000119
C54	C	1.466656	0.330910	0.500119
C55	C	0.965394	-0.248033	0.000111
C56	C	1.465394	0.251967	0.500111
C57	C	0.895798	-0.278354	0.000100
C58	C	1.395798	0.221646	0.500100
C59	C	0.827459	-0.229727	0.000088
C60	C	1.327459	0.270273	0.500088
C61	C	0.828722	-0.150785	0.000089
C62	C	1.328722	0.349215	0.500089
C63	C	0.822364	-0.548090	0.000080
C64	C	1.322364	-0.048090	0.500080
C65	C	0.821106	-0.627038	0.000081
C66	C	1.321106	-0.127038	0.500081
C67	C	0.959036	-0.645338	0.000102
C68	C	1.459036	-0.145338	0.500102
C69	C	0.960299	-0.566396	0.000104
C70	C	1.460299	-0.066396	0.500104
C71	C	0.891961	-0.517776	0.000087
C72	C	1.391961	-0.017776	0.500087
C73	C	0.893330	-0.432177	0.000094
C74	C	1.393330	0.067823	0.500094
C75	C	0.894427	-0.363951	0.000099
C76	C	1.394427	0.136049	0.500099
C77	C	1.032268	0.096156	0.000116
C78	C	1.532268	0.596156	0.500116
C79	C	1.116286	0.097494	0.000121
C80	C	1.616286	0.597494	0.500121
C81	C	0.888102	0.240322	0.000091
C82	C	1.388102	0.740322	0.500091
C83	C	0.889440	0.324340	0.000085
C84	C	1.389440	0.824340	0.500085
N85	N	0.893864	0.101925	0.195767
N86	N	1.393864	0.601925	0.695767
N87	N	0.893905	0.101941	-0.195565
N88	N	1.393905	0.601941	0.304435
C89	C	0.945429	0.050397	0.239040
C90	C	1.445429	0.550397	0.739040
C91	C	0.945432	0.050396	0.325588
C92	C	1.445432	0.550396	0.825588
C93	C	0.893875	0.101927	0.368859
C94	C	1.393875	0.601927	0.868859
C95	C	0.842305	0.153457	0.325579
C96	C	1.342305	0.653457	0.825579
C97	C	0.842299	0.153454	0.239034
C98	C	1.342299	0.653454	0.739034
C99	C	0.842331	0.153472	0.674608
C100	C	1.342331	0.653472	1.174608
C101	C	0.842344	0.153473	0.761159
C102	C	1.342344	0.653473	1.261159
C103	C	0.945465	0.050414	0.761161
C104	C	1.445465	0.550414	1.261161
C105	C	0.945458	0.050410	0.674616
C106	C	1.445458	0.550410	1.174616
C107	C	0.893886	0.101937	0.631344
C108	C	1.393886	0.601937	1.131344
C109	C	0.893882	0.101937	0.537499
C110	C	1.393882	0.601937	1.037499
C111	C	0.893883	0.101932	0.462702
C112	C	1.393883	0.601932	0.962702
H113	H	0.647537	0.231384	0.000060
H114	H	1.147537	0.731384	0.500060
N115	N	1.032747	-0.697778	0.000120
N116	N	1.532747	-0.197778	0.500120
H117	H	1.021391	-0.752389	0.000115
H118	H	1.521391	-0.252389	0.500115
H119	H	1.063095	-0.687969	-0.050843
H120	H	1.563095	-0.187969	0.449157
H121	H	0.987416	0.008438	0.203814
H122	H	1.487416	0.508438	0.703814
H123	H	0.764429	-0.651721	0.000074
H124	H	1.264429	-0.151721	0.500074
H125	H	0.987444	0.008451	0.639387
H126	H	1.487444	0.508451	1.139387
N127	N	0.132197	-0.045905	0.000137
N128	N	0.632197	0.454095	0.500137
H129	H	0.149935	-0.075842	-0.050825
H130	H	0.649935	0.424158	0.449175
H131	H	0.149941	-0.075774	0.051146
H132	H	0.649941	0.424226	0.551146
N133	N	1.041723	-0.136392	0.000139
N134	N	1.541723	0.363608	0.500139
H135	H	1.071662	-0.154123	-0.050826
H136	H	1.571662	0.345877	0.449174
H137	H	1.032093	-0.079010	0.000173
H138	H	1.532093	0.420990	0.500173
N139	N	1.001074	-0.005154	0.372262
N140	N	1.501074	0.494846	0.872262
H141	H	1.033746	-0.037787	0.331718
H142	H	1.533746	0.462213	0.831718
H143	H	1.034464	0.023814	0.408145
H144	H	1.534464	0.523814	0.908145
H145	H	0.537526	-0.021154	0.000116
H146	H	1.037526	0.478846	0.500116
N147	N	0.752394	-0.262428	0.000084
N148	N	1.252394	0.237572	0.500084
H149	H	0.709297	-0.219646	0.000077
H150	H	1.209297	0.280354	0.500077
H151	H	0.748870	-0.294779	-0.050886
H152	H	1.248870	0.205221	0.449114
H153	H	0.504328	0.229092	0.000075
H154	H	1.004328	0.729092	0.500075
H155	H	0.987456	0.008455	0.796403
H156	H	1.487456	0.508455	1.296403
N157	N	0.786729	0.209050	0.807834
N158	N	1.286729	0.709050	1.307834
H159	H	0.754054	0.241690	0.767290
H160	H	1.254054	0.741690	1.267290
H161	H	0.753337	0.180108	0.843752
H162	H	1.253337	0.680108	1.343752
N163	N	0.748660	-0.495655	0.000066
N164	N	1.248660	0.004345	0.500066
H165	H	0.704382	-0.526845	0.000063
H166	H	1.204382	-0.026845	0.500063
H167	H	0.746172	-0.462508	0.051036
H168	H	1.246172	0.037492	0.551036
N169	N	0.094165	0.240799	0.000128
N170	N	0.594165	0.740799	0.500128
H171	H	0.125353	0.285078	0.000124
H172	H	0.625353	0.785078	0.500124
H173	H	0.061000	0.243295	-0.050832
H174	H	0.561000	0.743295	0.449168
N175	N	0.296291	-0.043286	0.000135
N176	N	0.796291	0.456714	0.500135
H177	H	0.265101	-0.087564	0.000140
H178	H	0.765101	0.412436	0.500140
H179	H	0.329446	-0.045771	-0.050833
H180	H	0.829446	0.454229	0.449167
H181	H	0.800309	0.195412	0.203801
H182	H	1.300309	0.695412	0.703801
H183	H	0.773078	-0.111198	0.000081
H184	H	1.273078	0.388802	0.500081
H185	H	0.800341	0.195428	0.639382
H186	H	1.300341	0.695428	1.139382
H187	H	0.800323	0.195413	0.360816
H188	H	1.300323	0.695413	0.860816
N189	N	1.039096	-0.300475	0.000126
N190	N	1.539096	0.199525	0.500126
H191	H	1.083376	-0.269288	0.000141
H192	H	1.583376	0.230712	0.500141
H193	H	1.041564	-0.333632	0.051097
H194	H	1.541564	0.166368	0.551097
H195	H	0.680748	-0.018868	0.000095
H196	H	1.180748	0.481132	0.500095
N197	N	0.258245	0.243421	0.000082
N198	N	0.758245	0.743421	0.500082
H199	H	0.240508	0.273351	0.051049
H200	H	0.740508	0.773351	0.551049
H201	H	0.315627	0.233793	0.000046
H202	H	0.815627	0.733793	0.500046
N203	N	1.035363	-0.533693	0.000122
N204	N	1.535363	-0.033693	0.500122
H205	H	1.078462	-0.576473	0.000126
H206	H	1.578462	-0.076473	0.500126
H207	H	1.038896	-0.501331	-0.050847
H208	H	1.538896	-0.001331	0.449153
