data_functionalizedCrystal
_audit_creation_method	'MofGen! by Chris Wilmer'
_symmetry_space_group_name_H-M	'P1'
_symmetry_Int_Tables_number	1
_symmetry_cell_setting	triclinic
loop_
_symmetry_equiv_pos_as_xyz
  x,y,z
_cell_length_a	14.519709
_cell_length_b	13.339070
_cell_length_c	12.376457
_cell_angle_alpha	104.398083
_cell_angle_beta	78.691279
_cell_angle_gamma	99.654720
loop_
_atom_site_label
_atom_site_type_symbol
_atom_site_fract_x
_atom_site_fract_y
_atom_site_fract_z
O1	O	1.270325	0.113336	-0.093849
O2	O	1.005827	0.128953	-0.093882
O3	O	1.107720	-0.026174	-0.093866
O4	O	1.168433	0.268463	-0.093865
O5	O	1.082246	0.012555	0.094142
O6	O	0.980353	0.167681	0.094126
O7	O	1.244851	0.152065	0.094159
Zn8	Zn	1.108558	0.166022	0.123993
Zn9	Zn	1.142121	0.114995	-0.123716
O10	O	1.142959	0.307192	0.094143
C11	C	1.084728	-0.044518	0.000135
C12	C	1.054160	-0.156877	0.000127
C13	C	0.958546	0.147588	0.000117
C14	C	0.855611	0.145403	0.000104
C15	C	1.291847	-0.521234	0.000157
C16	C	1.320569	-0.415666	0.000172
C17	C	1.253969	-0.350964	0.000160
C18	C	1.158642	-0.391839	0.000135
C19	C	1.129915	-0.497415	0.000129
C20	C	1.092038	-0.327146	0.000132
C21	C	0.996711	-0.368021	0.000107
C22	C	0.967989	-0.473587	0.000101
C23	C	1.034589	-0.538289	0.000112
C24	C	1.120764	-0.221569	0.000137
C25	C	0.958833	-0.197751	0.000109
C26	C	0.930111	-0.303319	0.000095
C27	C	0.478665	0.137381	0.000155
C28	C	0.583543	0.139609	0.000141
C29	C	0.667135	0.141392	0.000129
C30	C	0.772019	0.143620	0.000116
C31	C	1.292133	0.133429	0.000157
C32	C	1.395069	0.135612	0.000163
C33	C	1.165951	0.325535	0.000139
C34	C	1.196520	0.437892	0.000140
N35	N	1.085658	0.200846	0.293047
N36	N	1.165026	0.080163	-0.292771
C37	C	1.218177	-0.000694	0.648054
C38	C	1.234200	-0.025068	0.529716
C39	C	1.197065	0.031408	0.470543
C40	C	1.143907	0.112263	0.529719
C41	C	1.127889	0.136644	0.648068
C42	C	1.106777	0.168747	0.470558
C43	C	1.053619	0.249601	0.529734
C44	C	1.037603	0.273977	0.648071
C45	C	1.074737	0.217501	0.707244
C46	C	1.122795	0.144365	0.352209
C47	C	1.032506	0.281703	0.352223
C48	C	1.016484	0.306077	0.470560
H49	H	1.198380	-0.188299	0.000158
N50	N	1.213409	0.006493	0.349665
N51	N	1.144980	-0.021318	0.296857
H52	H	1.156521	-0.038923	0.211482
N53	N	1.283321	-0.243131	0.000179
N54	N	1.368435	-0.206648	0.000200
H55	H	1.389170	-0.130488	0.000210
N56	N	1.417939	-0.373931	0.000201
N57	N	1.477394	-0.431707	0.000211
H58	H	1.546168	-0.402233	0.000230
H59	H	0.890366	-0.506862	0.000089
N60	N	0.832743	-0.345096	0.000065
N61	N	0.807115	-0.439357	0.000054
H62	H	0.738349	-0.468865	0.000031
N63	N	0.983320	0.356574	0.708540
N64	N	1.019734	0.433070	0.774574
H65	H	0.981398	0.491405	0.817283
H66	H	0.973202	0.371911	0.518756
H67	H	0.904601	-0.145069	0.000106
H68	H	1.011208	-0.624253	0.000097
H69	H	1.166077	0.078534	0.304038
H70	H	1.277482	-0.090897	0.481540
N71	N	1.058363	0.242408	0.828126
N72	N	1.086465	0.331519	0.880965
H73	H	1.074893	0.349107	0.966340
N74	N	0.994586	0.339397	0.291775
N75	N	1.008896	0.317621	0.186114
H76	H	0.982121	0.358365	0.143414
H77	H	1.346061	-0.573921	0.000176
N78	N	1.256122	-0.058343	0.708514
N79	N	1.241828	-0.036549	0.814175
H80	H	1.268636	-0.077262	0.856878
