data_functionalizedCrystal
_audit_creation_method	'MofGen! by Chris Wilmer'
_symmetry_space_group_name_H-M	'P1'
_symmetry_Int_Tables_number	1
_symmetry_cell_setting	triclinic
loop_
_symmetry_equiv_pos_as_xyz
  x,y,z
_cell_length_a	19.188905
_cell_length_b	23.532357
_cell_length_c	17.666332
_cell_angle_alpha	89.987974
_cell_angle_beta	89.983521
_cell_angle_gamma	82.981423
loop_
_atom_site_label
_atom_site_type_symbol
_atom_site_fract_x
_atom_site_fract_y
_atom_site_fract_z
O1	O	0.925918	0.071036	-0.063082
O2	O	0.722572	0.080622	-0.063057
O3	O	0.830395	-0.007092	-0.063055
O4	O	0.818095	0.158750	-0.063085
O5	O	0.830376	-0.007097	0.062842
O6	O	0.722553	0.080618	0.062839
O7	O	0.925900	0.071031	0.062815
Cu8	Cu	0.824225	0.075824	0.074322
Cu9	Cu	0.824247	0.075830	-0.074565
O10	O	0.818076	0.158746	0.062812
C11	C	0.696552	0.080312	-0.000106
C12	C	0.619050	0.079387	-0.000096
C13	C	0.582670	0.078946	-0.068724
C14	C	0.509849	0.078070	-0.068733
C15	C	0.473413	0.077625	-0.000110
C16	C	0.509802	0.078070	0.068527
C17	C	0.582620	0.078951	0.068534
N18	N	0.364501	0.043830	0.050965
N19	N	0.295327	0.042992	0.050954
C20	C	0.254016	0.074972	-0.000128
N21	N	0.284493	0.107815	-0.051209
N22	N	0.353674	0.108651	-0.051200
C23	C	0.394454	0.076670	-0.000110
C24	C	0.138675	0.073582	-0.068771
C25	C	0.065853	0.072710	-0.068777
C26	C	0.065807	0.072705	0.068485
C27	C	0.138628	0.073582	0.068489
C28	C	0.175058	0.074018	-0.000141
C29	C	0.830078	-0.028311	-0.000104
C30	C	0.829153	-0.091532	-0.000097
C31	C	0.823356	-0.483553	-0.068763
C32	C	0.822477	-0.542954	-0.068768
O33	O	0.822007	-0.573669	-0.127132
N34	N	0.822031	-0.572669	-0.000142
C35	C	0.822457	-0.542978	0.068492
O36	O	0.821996	-0.573707	0.126863
C37	C	0.823331	-0.483577	0.068495
C38	C	0.823784	-0.453867	-0.000135
C39	C	0.823809	-0.453842	-0.137388
C40	C	0.824689	-0.394445	-0.137383
C41	C	0.825117	-0.364759	-0.068754
C42	C	0.824665	-0.394470	-0.000130
C43	C	0.823752	-0.453887	0.137129
C44	C	0.824626	-0.394483	0.137126
C45	C	0.825079	-0.364772	0.068496
C46	C	0.825973	-0.305386	0.068503
N47	N	0.826420	-0.275672	-0.000122
C48	C	0.825992	-0.305358	-0.068751
C49	C	0.820619	-0.667723	0.068479
C50	C	0.819750	-0.727124	0.068477
C51	C	0.819769	-0.727095	-0.068783
C52	C	0.820643	-0.667694	-0.068780
C53	C	0.821066	-0.638009	-0.000146
C54	C	0.827842	-0.180620	-0.068736
C55	C	0.828725	-0.121218	-0.068726
C56	C	0.828702	-0.121251	0.068534
C57	C	0.827823	-0.180648	0.068523
C58	C	0.827390	-0.210331	-0.000118
O59	O	0.826441	-0.274633	0.126837
O60	O	0.826444	-0.274621	-0.127112
C61	C	0.951919	0.071342	-0.000139
C62	C	1.029422	0.072266	-0.000154
C63	C	0.818393	0.179965	-0.000140
C64	C	0.819318	0.243186	-0.000153
N65	N	0.824214	0.075820	0.179042
N66	N	0.824263	0.075829	-0.179285
C67	C	0.871974	0.036999	0.218653
C68	C	0.871978	0.036996	0.297900
C69	C	0.824229	0.075824	0.337534
C70	C	0.776461	0.114648	0.297914
C71	C	0.776453	0.114646	0.218667
N72	N	0.814981	0.126241	0.461944
N73	N	0.814992	0.126241	0.537225
C74	C	0.824247	0.075832	0.576298
N75	N	0.833505	0.025421	0.537247
N76	N	0.833497	0.025421	0.461959
C77	C	0.824231	0.075831	0.423463
C78	C	0.872014	0.037005	0.701838
C79	C	0.872013	0.037001	0.781087
C80	C	0.776499	0.114658	0.781099
C81	C	0.776497	0.114657	0.701851
C82	C	0.824258	0.075831	0.662226
H83	H	0.829096	-0.097030	-0.124615
H84	H	0.825056	-0.370259	-0.193269
H85	H	0.480131	0.077709	0.124400
O86	O	0.918427	-0.000768	0.663458
C87	C	0.960590	-0.035029	0.715417
H88	H	0.931974	-0.035612	0.771918
H89	H	0.971567	-0.080535	0.692529
H90	H	1.012323	-0.016646	0.723820
O91	O	0.730050	0.152288	0.336495
C92	C	0.687194	0.121877	0.382350
H93	H	0.715326	0.077253	0.394225
H94	H	0.675983	0.145673	0.438073
H95	H	0.635618	0.118113	0.351835
H96	H	0.823458	-0.478006	-0.193277
O97	O	0.829130	-0.092498	0.135264
C98	C	0.828514	-0.131451	0.195842
H99	H	0.850018	-0.176207	0.175735
H100	H	0.862640	-0.117989	0.243850
H101	H	0.772388	-0.131655	0.216925
O102	O	0.730034	0.152416	0.180303
C103	C	0.687874	0.186676	0.232273
H104	H	0.716496	0.187261	0.288753
H105	H	0.676893	0.232182	0.209367
H106	H	0.636143	0.168291	0.240725
O107	O	0.030463	0.072383	-0.135428
C108	C	-0.019936	0.121182	-0.139547
H109	H	-0.003786	0.155916	-0.100609
H110	H	-0.023515	0.137723	-0.200250
H111	H	-0.073262	0.109369	-0.121113
O112	O	0.730086	0.152298	0.819672
C113	C	0.687225	0.121887	0.865523
H114	H	0.715355	0.077263	0.877399
H115	H	0.676010	0.145683	0.921245
H116	H	0.635651	0.118123	0.835002
O117	O	0.617860	0.079350	0.135271
C118	C	0.570087	0.078787	0.195840
H119	H	0.521208	0.060136	0.175721
H120	H	0.595746	0.051395	0.243845
H121	H	0.554677	0.124374	0.216934
O122	O	0.173954	0.074041	-0.135502
C123	C	0.126226	0.073457	-0.196080
H124	H	0.071288	0.090853	-0.175966
H125	H	0.142644	0.101362	-0.244076
H126	H	0.126151	0.027686	-0.217183
H127	H	0.168249	0.073938	0.124374
O128	O	0.030411	0.072168	0.135128
C129	C	-0.003453	0.022351	0.139230
H130	H	0.024284	-0.011848	0.100288
H131	H	-0.001519	0.005783	0.199929
H132	H	-0.060506	0.032834	0.120790
H133	H	0.820965	-0.643557	0.124373
O134	O	0.827514	-0.209516	-0.135369
C135	C	0.887493	-0.250477	-0.139508
H136	H	0.907514	-0.261605	-0.079928
H137	H	0.873276	-0.290747	-0.168573
H138	H	0.930187	-0.232200	-0.173368
O139	O	0.824937	-0.365696	0.203845
C140	C	0.764223	-0.373597	0.245582
H141	H	0.743431	-0.414520	0.226065
H142	H	0.777776	-0.377126	0.308366
H143	H	0.722369	-0.335537	0.236067
O144	O	0.823192	-0.482781	0.203755
C145	C	0.762184	-0.510503	0.207861
H146	H	0.741925	-0.517207	0.148271
H147	H	0.775136	-0.553755	0.236937
H148	H	0.720159	-0.482966	0.241696
O149	O	0.821046	-0.638920	-0.135514
C150	C	0.820502	-0.677869	-0.196082
H151	H	0.797770	-0.717799	-0.175957
H152	H	0.786858	-0.656999	-0.244079
H153	H	0.876435	-0.690304	-0.217189
H154	H	0.910902	0.005386	0.813339
O155	O	0.730081	0.152428	0.663486
C156	C	0.687925	0.186689	0.715458
H157	H	0.716549	0.187274	0.771936
H158	H	0.676943	0.232195	0.692550
H159	H	0.636194	0.168305	0.723913
H160	H	0.612327	0.079301	-0.124608
H161	H	0.819418	-0.751276	-0.124664
O162	O	0.474438	0.077561	-0.135355
C163	C	0.440607	0.027729	-0.139457
H164	H	0.432437	0.011159	-0.079867
H165	H	0.387551	0.038197	-0.168510
H166	H	0.474476	-0.006464	-0.173311
H167	H	0.819392	-0.751310	0.124362
H168	H	0.827460	-0.204841	0.124407
H169	H	0.910862	0.005383	0.186392
O170	O	0.918342	-0.000794	0.336309
C171	C	0.907391	-0.057152	0.316989
H172	H	0.880480	-0.057032	0.259459
H173	H	0.960074	-0.085309	0.314275
H174	H	0.872764	-0.074688	0.361608
