data_functionalizedCrystal
_audit_creation_method	'MofGen! by Chris Wilmer'
_symmetry_space_group_name_H-M	'P1'
_symmetry_Int_Tables_number	1
_symmetry_cell_setting	triclinic
loop_
_symmetry_equiv_pos_as_xyz
  x,y,z
_cell_length_a	11.792241
_cell_length_b	10.868271
_cell_length_c	16.109301
_cell_angle_alpha	89.994353
_cell_angle_beta	83.827448
_cell_angle_gamma	90.008606
loop_
_atom_site_label
_atom_site_type_symbol
_atom_site_fract_x
_atom_site_fract_y
_atom_site_fract_z
O1	O	1.505895	-0.102207	0.113955
O2	O	2.005895	0.397793	0.613955
O3	O	1.175451	-0.102236	0.125699
O4	O	1.675451	0.397764	0.625699
O5	O	1.349750	-0.102208	-0.001161
O6	O	1.849750	0.397792	0.498839
O7	O	1.331595	-0.102235	0.240815
O8	O	1.831595	0.397765	0.740815
O9	O	1.349765	0.102436	-0.001166
O10	O	1.849765	0.602436	0.498834
O11	O	1.175465	0.102409	0.125694
O12	O	1.675465	0.602409	0.625694
O13	O	1.505909	0.102438	0.113950
O14	O	2.005909	0.602438	0.613950
Zn15	Zn	1.340689	0.134915	0.119821
Zn16	Zn	1.840689	0.634915	0.619821
Zn17	Zn	1.340670	-0.134713	0.119828
Zn18	Zn	1.840670	0.365287	0.619828
O19	O	1.331609	0.102410	0.240810
O20	O	1.831609	0.602410	0.740810
C21	C	1.133173	0.000083	0.124959
C22	C	1.633173	0.500083	0.624959
C23	C	1.007179	0.000072	0.122751
C24	C	1.507179	0.500072	0.622751
N25	N	1.340658	-0.318727	0.119826
N26	N	1.840658	0.181273	0.619826
C27	C	1.349022	0.000115	-0.032142
C28	C	1.849022	0.500115	0.467858
C29	C	1.346817	0.000116	-0.124448
C30	C	1.846817	0.500116	0.375552
C31	C	0.776502	0.000108	0.118690
C32	C	1.276502	0.500108	0.618690
C33	C	0.904868	0.000088	0.120946
C34	C	1.404868	0.500088	0.620946
C35	C	1.548186	0.000116	0.114690
C36	C	2.048186	0.500116	0.614690
C37	C	1.674181	0.000119	0.116898
C38	C	2.174181	0.500119	0.616898
C39	C	1.340666	-0.430065	0.119826
C40	C	1.840666	0.069935	0.619826
C41	C	1.340687	-0.569743	0.119823
C42	C	1.840687	-0.069743	0.619823
N43	N	1.340710	0.318929	0.119816
N44	N	1.840710	0.818929	0.619816
C45	C	1.445116	0.000105	-0.346258
C46	C	1.945116	0.500105	0.153742
C47	C	1.443036	0.000095	-0.432988
C48	C	1.943036	0.500095	0.067012
C49	C	1.236235	0.000082	-0.414087
C50	C	1.736235	0.500082	0.085913
C51	C	1.238317	0.000083	-0.327358
C52	C	1.738317	0.500083	0.172642
C53	C	1.342761	0.000101	-0.293446
C54	C	1.842761	0.500101	0.206554
C55	C	1.338599	0.000089	-0.466905
C56	C	1.838599	0.500089	0.033095
C57	C	1.336342	0.000078	-0.560942
C58	C	1.836342	0.500078	-0.060942
C59	C	1.345018	0.000110	-0.199404
C60	C	1.845018	0.500110	0.300596
C61	C	1.332338	0.000084	0.271791
C62	C	1.832338	0.500084	0.771791
C63	C	1.334542	0.000074	0.364097
C64	C	1.834542	0.500074	0.864097
H65	H	1.530161	0.000117	-0.318650
H66	H	2.030161	0.500117	0.181350
H67	H	1.526384	0.000096	-0.475984
H68	H	2.026384	0.500096	0.024016
H69	H	1.154962	0.000076	-0.284357
H70	H	1.654962	0.500076	0.215643
H71	H	1.151201	0.000069	-0.441709
H72	H	1.651201	0.500069	0.058291
