data_functionalizedCrystal
_audit_creation_method	'MofGen! by Chris Wilmer'
_symmetry_space_group_name_H-M	'P1'
_symmetry_Int_Tables_number	1
_symmetry_cell_setting	triclinic
loop_
_symmetry_equiv_pos_as_xyz
  x,y,z
_cell_length_a	23.532407
_cell_length_b	23.532357
_cell_length_c	14.421503
_cell_angle_alpha	89.998741
_cell_angle_beta	89.995102
_cell_angle_gamma	82.838519
loop_
_atom_site_label
_atom_site_type_symbol
_atom_site_fract_x
_atom_site_fract_y
_atom_site_fract_z
O1	O	0.755251	0.069129	-0.077064
O2	O	1.255251	0.569129	0.422936
O3	O	0.589385	0.079132	-0.077080
O4	O	1.089385	0.579132	0.422920
O5	O	0.677334	-0.008803	-0.077053
O6	O	1.177334	0.491197	0.422947
O7	O	0.667301	0.157064	-0.077092
O8	O	1.167301	0.657064	0.422908
O9	O	0.677320	-0.008790	0.077171
O10	O	1.177320	0.491210	0.577171
O11	O	0.589371	0.079146	0.077143
O12	O	1.089371	0.579146	0.577143
O13	O	0.755236	0.069142	0.077159
O14	O	1.255236	0.569142	0.577159
Cu15	Cu	0.672302	0.074145	0.091233
Cu16	Cu	1.172302	0.574145	0.591233
Cu17	Cu	0.672319	0.074130	-0.091154
Cu18	Cu	1.172319	0.574130	0.408846
O19	O	0.667287	0.157078	0.077132
O20	O	1.167287	0.657078	0.577132
C21	C	0.568162	0.078884	0.000029
C22	C	1.068162	0.578884	0.500029
C23	C	0.504945	0.078118	0.000024
C24	C	1.004945	0.578118	0.500024
C25	C	0.677076	-0.030013	0.000062
C26	C	1.177076	0.469987	0.500062
C27	C	0.676322	-0.093232	0.000070
C28	C	1.176322	0.406768	0.500070
C29	C	0.238788	0.022922	0.000062
C30	C	0.738788	0.522922	0.500062
C31	C	0.298188	0.023633	0.000062
C32	C	0.798188	0.523633	0.500062
O33	O	0.334940	-0.020154	0.000104
O34	O	0.834940	0.479846	0.500104
N35	N	0.320805	0.075911	0.000043
N36	N	0.820805	0.575911	0.500043
C37	C	0.284018	0.127480	0.000035
C38	C	0.784018	0.627480	0.500035
O39	O	0.308710	0.172012	0.000020
O40	O	0.808710	0.672012	0.500020
C41	C	0.224619	0.126768	0.000042
C42	C	0.724619	0.626768	0.500042
C43	C	0.202006	0.074487	0.000051
C44	C	0.702006	0.574487	0.500051
C45	C	0.216174	-0.029355	0.000073
C46	C	0.716174	0.470645	0.500073
C47	C	0.156778	-0.030066	0.000071
C48	C	0.656778	0.469934	0.500071
C49	C	0.119996	0.021499	0.000060
C50	C	0.619996	0.521499	0.500060
C51	C	0.142610	0.073776	0.000049
C52	C	0.642610	0.573776	0.500049
C53	C	0.187833	0.178337	0.000039
C54	C	0.687833	0.678337	0.500039
C55	C	0.128431	0.177620	0.000047
C56	C	0.628431	0.677620	0.500047
C57	C	0.105818	0.125339	0.000056
C58	C	0.605818	0.625339	0.500056
C59	C	0.046431	0.124630	0.000037
C60	C	0.546431	0.624630	0.500037
N61	N	0.023815	0.072353	0.000055
N62	N	0.523815	0.572353	0.500055
C63	C	0.060597	0.020787	0.000067
C64	C	0.560597	0.520787	0.500067
C65	C	0.408760	0.128971	0.000021
C66	C	0.908760	0.628971	0.500021
C67	C	0.468158	0.129684	0.000008
C68	C	0.968158	0.629684	0.500008
C69	C	0.482324	0.025837	0.000037
C70	C	0.982324	0.525837	0.500037
C71	C	0.422925	0.025125	0.000044
C72	C	0.922925	0.525125	0.500044
C73	C	0.386143	0.076694	0.000040
C74	C	0.886143	0.576694	0.500040
C75	C	-0.064140	0.019297	0.000063
C76	C	0.435860	0.519297	0.500063
C77	C	-0.123542	0.018591	0.000058
C78	C	0.376458	0.518591	0.500058
C79	C	-0.137702	0.122438	0.000034
C80	C	0.362298	0.622438	0.500034
C81	C	-0.078306	0.123145	0.000034
C82	C	0.421694	0.623145	0.500034
C83	C	-0.041525	0.071570	0.000052
C84	C	0.458475	0.571570	0.500052
O85	O	0.009644	0.168394	-0.000002
O86	O	0.509644	0.668394	0.499998
O87	O	0.035897	-0.023737	0.000094
O88	O	0.535897	0.476263	0.500094
C89	C	0.671593	-0.485250	-0.084047
C90	C	1.171593	0.014750	0.415953
C91	C	0.670876	-0.544649	-0.084053
C92	C	1.170876	-0.044649	0.415947
O93	O	0.670492	-0.575372	-0.155549
O94	O	1.170492	-0.075372	0.344451
N95	N	0.670512	-0.574354	0.000013
N96	N	1.170512	-0.074354	0.500013
C97	C	0.670860	-0.544654	0.084090
C98	C	1.170860	-0.044654	0.584090
O99	O	0.670484	-0.575374	0.155594
O100	O	1.170484	-0.075374	0.655594
C101	C	0.671573	-0.485255	0.084095
C102	C	1.171573	0.014745	0.584095
C103	C	0.671942	-0.455555	0.000023
C104	C	1.171942	0.044445	0.500023
C105	C	0.671962	-0.455550	-0.168112
C106	C	1.171962	0.044450	0.331888
C107	C	0.672680	-0.396154	-0.168106
C108	C	1.172680	0.103846	0.331894
C109	C	0.673029	-0.366460	-0.084036
C110	C	1.173029	0.133540	0.415964
C111	C	0.672661	-0.396160	0.000029
C112	C	1.172661	0.103840	0.500029
C113	C	0.671917	-0.455557	0.168170
C114	C	1.171917	0.044443	0.668170
C115	C	0.672630	-0.396154	0.168168
C116	C	1.172630	0.103846	0.668168
C117	C	0.672999	-0.366453	0.084096
C118	C	1.172999	0.133547	0.584096
C119	C	0.673729	-0.307070	0.084105
C120	C	1.173729	0.192930	0.584105
N121	N	0.674092	-0.277366	0.000039
N122	N	1.174092	0.222634	0.500039
C123	C	0.673743	-0.307061	-0.084031
C124	C	1.173743	0.192939	0.415969
C125	C	0.669361	-0.669396	0.084075
C126	C	1.169361	-0.169396	0.584075
C127	C	0.668652	-0.728794	0.084071
C128	C	1.168652	-0.228794	0.584071
C129	C	0.668667	-0.728785	-0.084072
C130	C	1.168667	-0.228785	0.415928
C131	C	0.669380	-0.669386	-0.084068
C132	C	1.169380	-0.169386	0.415932
C133	C	0.669725	-0.639692	0.000009
C134	C	1.169725	-0.139692	0.500009
C135	C	0.675252	-0.182327	-0.084013
C136	C	1.175252	0.317673	0.415987
C137	C	0.675972	-0.122926	-0.084000
C138	C	1.175972	0.377074	0.416000
C139	C	0.675954	-0.122940	0.084143
C140	C	1.175954	0.377060	0.584143
C141	C	0.675237	-0.182336	0.084130
C142	C	1.175237	0.317664	0.584130
C143	C	0.674883	-0.212027	0.000045
C144	C	1.174883	0.287973	0.500045
O145	O	0.674110	-0.276309	0.155564
O146	O	1.174110	0.223691	0.655564
O147	O	0.674111	-0.276333	-0.155524
O148	O	1.174111	0.223667	0.344476
C149	C	0.776459	0.069390	0.000047
C150	C	1.276459	0.569390	0.500047
C151	C	0.839676	0.070156	0.000046
C152	C	1.339676	0.570156	0.500046
C153	C	0.667545	0.178288	0.000015
C154	C	1.167545	0.678288	0.500015
C155	C	0.668300	0.241506	0.000000
C156	C	1.168300	0.741506	0.500000
N157	N	0.672294	0.074156	0.219514
N158	N	1.172294	0.574156	0.719514
N159	N	0.672332	0.074114	-0.219435
N160	N	1.172332	0.574114	0.280565
C161	C	0.631619	0.114799	0.469155
C162	C	1.131619	0.614799	0.969155
C163	C	0.683017	0.125562	0.530960
C164	C	1.183017	0.625562	1.030960
C165	C	0.672308	0.074142	0.408676
C166	C	1.172308	0.574142	0.908676
C167	C	0.620924	0.063392	0.530965
C168	C	1.120924	0.563392	1.030965
C169	C	0.672317	0.074130	0.591397
C170	C	1.172317	0.574130	1.091397
C171	C	0.723731	0.084930	0.469119
C172	C	1.223731	0.584930	0.969119
C173	C	0.661605	0.022738	0.469119
C174	C	1.161605	0.522738	0.969119
C175	C	0.713039	0.033479	0.530896
C176	C	1.213039	0.533479	1.030896
C177	C	0.672302	0.074150	0.303414
C178	C	1.172302	0.574150	0.803414
C179	C	0.672329	0.074121	0.696656
C180	C	1.172329	0.574121	1.196656
H181	H	-0.034199	-0.022700	0.000077
H182	H	0.465801	0.477300	0.500077
O183	O	-0.056271	0.173895	0.000149
O184	O	0.443729	0.673895	0.500149
C185	C	-0.022361	0.177425	0.080043
C186	C	0.477639	0.677425	0.580043
H187	H	-0.007311	0.132452	0.106677
H188	H	0.492689	0.632452	0.606677
H189	H	0.016409	0.199906	0.062090
H190	H	0.516409	0.699906	0.562090
H191	H	-0.048761	0.202771	0.135967
H192	H	0.451239	0.702771	0.635967
O193	O	0.754104	-0.007616	0.562929
O194	O	1.254104	0.492384	1.062929
C195	C	0.743177	-0.061625	0.530044
C196	C	1.243177	0.438375	1.030044
H197	H	0.715885	-0.055797	0.464622
H198	H	1.215885	0.444203	0.964622
H199	H	0.785459	-0.088889	0.513467
H200	H	1.285459	0.411111	1.013467
H201	H	0.719352	-0.083864	0.585448
H202	H	1.219352	0.416136	1.085448
O203	O	0.693747	0.177414	0.563486
O204	O	1.193747	0.677414	1.063486
C205	C	0.647392	0.201436	0.618622
C206	C	1.147392	0.701436	1.118622
H207	H	0.623067	0.165888	0.645728
H208	H	1.123067	0.665888	1.145728
H209	H	0.664216	0.225257	0.679595
H210	H	1.164216	0.725257	1.179595
H211	H	0.617408	0.232587	0.575132
H212	H	1.117408	0.732587	1.075132
O213	O	0.671700	-0.484463	-0.249726
O214	O	1.171700	0.015537	0.250274
C215	C	0.720628	-0.525541	-0.254769
C216	C	1.220628	-0.025541	0.245231
H217	H	0.736957	-0.536695	-0.181776
H218	H	1.236957	-0.036695	0.318224
H219	H	0.709040	-0.565792	-0.290372
H220	H	1.209040	-0.065792	0.209628
H221	H	0.755452	-0.507355	-0.296237
H222	H	1.255452	-0.007355	0.203763
O223	O	0.517979	-0.024308	0.000016
O224	O	1.017979	0.475692	0.500016
C225	C	0.485288	-0.070608	0.000057
C226	C	0.985288	0.429392	0.500057
H227	H	0.440870	-0.055904	-0.029147
H228	H	0.940870	0.444096	0.470853
H229	H	0.507413	-0.106721	-0.044704
H230	H	1.007413	0.393279	0.455296
H231	H	0.481146	-0.086639	0.074052
H232	H	0.981146	0.413361	0.574052
O233	O	0.134746	-0.080816	0.000212
O234	O	0.634746	0.419184	0.500212
C235	C	0.100821	-0.084336	0.080101
C236	C	0.600821	0.415664	0.580101
H237	H	0.085765	-0.039360	0.106716
H238	H	0.585765	0.460640	0.606716
H239	H	0.062054	-0.106820	0.062148
H240	H	0.562054	0.393180	0.562148
H241	H	0.127210	-0.109675	0.136038
H242	H	0.627210	0.390325	0.636038
H243	H	0.767199	0.094070	0.442067
H244	H	1.267199	0.594070	0.942067
H245	H	0.246117	-0.071348	0.000085
H246	H	0.746117	0.428652	0.500085
H247	H	0.668380	-0.752973	-0.152527
H248	H	1.168380	-0.252973	0.347473
O249	O	0.209695	0.229174	0.000079
O250	O	0.709695	0.729174	0.500079
C251	C	0.164483	0.274526	0.000055
C252	C	0.664483	0.774526	0.500055
H253	H	0.124220	0.258788	0.029250
H254	H	0.624220	0.758788	0.529250
H255	H	0.176679	0.311049	0.044831
H256	H	0.676679	0.811049	0.544831
H257	H	0.155989	0.290415	-0.073934
H258	H	0.655989	0.790415	0.426066
O259	O	0.650676	-0.029075	0.436723
O260	O	1.150676	0.470925	0.936723
C261	C	0.596434	-0.040241	0.468198
C262	C	1.096434	0.459759	0.968198
H263	H	0.569157	0.001901	0.485574
H264	H	1.069157	0.501901	0.985574
H265	H	0.574479	-0.063382	0.411615
H266	H	1.074479	0.436618	0.911615
H267	H	0.601805	-0.068270	0.532854
H268	H	1.101805	0.431730	1.032854
H269	H	0.577466	0.054305	0.558133
H270	H	1.077466	0.554305	1.058133
O271	O	0.092644	0.227679	-0.000084
O272	O	0.592644	0.727679	0.499916
C273	C	0.057877	0.230378	-0.079970
C274	C	0.557877	0.730378	0.420030
H275	H	0.055128	0.185189	-0.106591
H276	H	0.555128	0.685189	0.393409
H277	H	0.013109	0.251857	-0.062011
H278	H	0.513109	0.751857	0.437989
H279	H	0.077278	0.256270	-0.135906
H280	H	0.577278	0.756270	0.364094
O281	O	0.668276	-0.757551	0.165821
O282	O	1.168276	-0.257551	0.665821
C283	C	0.668754	-0.718599	0.240018
C284	C	1.168754	-0.218599	0.740018
H285	H	0.651235	-0.673797	0.215365
H286	H	1.151235	-0.173797	0.715365
H287	H	0.640888	-0.731983	0.298815
H288	H	1.140888	-0.231983	0.798815
H289	H	0.714524	-0.718521	0.265871
H290	H	1.214524	-0.218521	0.765871
H291	H	-0.167661	0.164421	0.000020
H292	H	0.332339	0.664421	0.500020
H293	H	0.669644	-0.645222	0.152544
H294	H	1.169644	-0.145222	0.652544
H295	H	-0.141950	-0.023984	0.000063
H296	H	0.358050	0.476016	0.500063
H297	H	0.404518	-0.017447	0.000052
H298	H	0.904518	0.482553	0.500052
O299	O	0.676303	-0.094161	-0.165754
O300	O	1.176303	0.405839	0.334246
C301	C	0.675853	-0.133114	-0.239955
C302	C	1.175853	0.366886	0.260045
H303	H	0.657306	-0.172992	-0.215309
H304	H	1.157306	0.327008	0.284691
H305	H	0.648412	-0.112176	-0.298756
H306	H	1.148412	0.387824	0.201244
H307	H	0.721475	-0.145671	-0.265800
H308	H	1.221475	0.354329	0.234200
O309	O	0.669708	-0.640622	-0.165817
O310	O	1.169708	-0.140622	0.334183
C311	C	0.669264	-0.679578	-0.240014
C312	C	1.169264	-0.179578	0.259986
H313	H	0.650722	-0.719459	-0.215365
H314	H	1.150722	-0.219459	0.284635
H315	H	0.641821	-0.658646	-0.298817
H316	H	1.141821	-0.158646	0.201183
H317	H	0.714887	-0.692131	-0.265857
H318	H	1.214887	-0.192131	0.234143
O319	O	0.490026	0.180520	0.000029
O320	O	0.990026	0.680520	0.500029
C321	C	0.444817	0.225876	-0.000007
C322	C	0.944817	0.725876	0.499993
H323	H	0.404553	0.210145	0.029194
H324	H	0.904553	0.710145	0.529194
H325	H	0.457016	0.262403	0.044758
H326	H	0.957016	0.762403	0.544758
H327	H	0.436325	0.241757	-0.074000
H328	H	0.936325	0.741757	0.426000
O329	O	0.372975	0.179033	-0.000122
O330	O	0.872975	0.679033	0.499878
C331	C	0.338206	0.181728	-0.080007
C332	C	0.838206	0.681728	0.419993
H333	H	0.335453	0.136538	-0.106618
H334	H	0.835453	0.636538	0.393382
H335	H	0.293440	0.203213	-0.062051
H336	H	0.793440	0.703213	0.437949
H337	H	0.357610	0.207614	-0.135949
H338	H	0.857610	0.707614	0.364051
O339	O	0.674984	-0.211232	-0.165638
O340	O	1.174984	0.288768	0.334362
C341	C	0.723907	-0.252315	-0.170694
C342	C	1.223907	0.247685	0.329306
H343	H	0.740238	-0.263477	-0.097705
H344	H	1.240238	0.236523	0.402295
H345	H	0.712311	-0.292561	-0.206303
H346	H	1.212311	0.207439	0.293697
H347	H	0.758732	-0.234131	-0.212163
H348	H	1.258732	0.265869	0.287837
H349	H	0.672979	-0.371978	-0.236566
H350	H	1.172979	0.128022	0.263434
H351	H	0.674941	-0.206519	0.152588
H352	H	1.174941	0.293481	0.652588
O353	O	0.671530	-0.484306	0.249922
O354	O	1.171530	0.015694	0.749922
C355	C	0.672001	-0.445349	0.324113
C356	C	1.172001	0.054651	0.824113
H357	H	0.654485	-0.400548	0.299449
H358	H	1.154485	0.099452	0.799449
H359	H	0.644129	-0.458728	0.382906
H360	H	1.144129	0.041272	0.882906
H361	H	0.717769	-0.445269	0.349977
H362	H	1.217769	0.054731	0.849977
O363	O	0.672864	-0.367267	0.249816
O364	O	1.172864	0.132733	0.749816
C365	C	0.623954	-0.326165	0.254827
C366	C	1.123954	0.173835	0.754827
H367	H	0.589265	-0.339356	0.207110
H368	H	1.089265	0.160644	0.707110
H369	H	0.607393	-0.323231	0.329178
H370	H	1.107393	0.176769	0.829178
H371	H	0.635653	-0.282670	0.232247
H372	H	1.135653	0.217330	0.732247
H373	H	0.676242	-0.098752	0.152591
H374	H	1.176242	0.401248	0.652591
H375	H	0.597245	0.149208	0.442046
H376	H	1.097245	0.649208	0.942046
