data_functionalizedCrystal
_audit_creation_method	'MofGen! by Chris Wilmer'
_symmetry_space_group_name_H-M	'P1'
_symmetry_Int_Tables_number	1
_symmetry_cell_setting	triclinic
loop_
_symmetry_equiv_pos_as_xyz
  x,y,z
_cell_length_a	14.853567
_cell_length_b	14.853567
_cell_length_c	15.186229
_cell_angle_alpha	90.000386
_cell_angle_beta	90.000050
_cell_angle_gamma	96.365070
loop_
_atom_site_label
_atom_site_type_symbol
_atom_site_fract_x
_atom_site_fract_y
_atom_site_fract_z
O1	O	0.117703	-1.196363	-0.073160
O2	O	0.451036	-0.863030	0.260173
O3	O	0.784370	-0.529697	0.593506
O4	O	0.131724	-0.933904	-0.073174
O5	O	0.465058	-0.600571	0.260159
O6	O	0.798391	-0.267237	0.593492
O7	O	-0.006516	-1.072144	-0.073170
O8	O	0.326817	-0.738811	0.260164
O9	O	0.660151	-0.405478	0.593497
O10	O	0.255943	-1.058123	-0.073165
O11	O	0.589277	-0.724790	0.260168
O12	O	0.922610	-0.391456	0.593502
O13	O	-0.006518	-1.072135	0.073288
O14	O	0.326815	-0.738802	0.406621
O15	O	0.660149	-0.405468	0.739954
O16	O	0.131722	-0.933895	0.073283
O17	O	0.465056	-0.600561	0.406616
O18	O	0.798389	-0.267228	0.739949
O19	O	0.117701	-1.196354	0.073297
O20	O	0.451034	-0.863021	0.406630
O21	O	0.784368	-0.529687	0.739964
Zn22	Zn	0.124711	-1.065123	0.096543
Zn23	Zn	0.458045	-0.731790	0.429877
Zn24	Zn	0.791378	-0.398456	0.763210
Zn25	Zn	0.124714	-1.065135	-0.096421
Zn26	Zn	0.458047	-0.731802	0.236913
Zn27	Zn	0.791381	-0.398468	0.570246
O28	O	0.255942	-1.058114	0.073292
O29	O	0.589275	-0.724780	0.406626
O30	O	0.922608	-0.391447	0.739959
C31	C	-0.040106	-1.071504	0.000056
C32	C	0.293228	-0.738171	0.333390
C33	C	0.626561	-0.404838	0.666723
C34	C	-0.140189	-1.069601	0.000049
C35	C	0.193144	-0.736267	0.333382
C36	C	0.526477	-0.402934	0.666715
C37	C	0.131088	-0.900311	0.000052
C38	C	0.464421	-0.566977	0.333386
C39	C	0.797755	-0.233644	0.666719
C40	C	0.129184	-0.800227	0.000047
C41	C	0.462518	-0.466894	0.333380
C42	C	0.795851	-0.133560	0.666713
N43	N	0.124709	-1.065121	0.228236
N44	N	0.458042	-0.731788	0.561569
N45	N	0.791376	-0.398455	0.894902
C46	C	-0.552723	-0.979435	0.000061
C47	C	-0.219390	-0.646102	0.333394
C48	C	0.113943	-0.312768	0.666727
C49	C	-0.574004	-1.143668	0.000069
C50	C	-0.240671	-0.810334	0.333403
C51	C	0.092662	-0.477001	0.666736
C52	C	-0.479971	-1.145458	0.000064
C53	C	-0.146637	-0.812124	0.333398
C54	C	0.186696	-0.478791	0.666731
C55	C	-0.422309	-1.064235	0.000059
C56	C	-0.088975	-0.730902	0.333392
C57	C	0.244358	-0.397569	0.666725
C58	C	-0.458680	-0.981223	0.000058
C59	C	-0.125347	-0.647889	0.333391
C60	C	0.207986	-0.314556	0.666725
C61	C	-0.443591	-1.228469	0.000074
C62	C	-0.110258	-0.895136	0.333407
C63	C	0.223075	-0.561802	0.666740
C64	C	-0.349552	-1.230262	0.000070
C65	C	-0.016219	-0.896929	0.333403
C66	C	0.317114	-0.563596	0.666736
C67	C	-0.291889	-1.149039	0.000058
C68	C	0.041445	-0.815706	0.333391
C69	C	0.374778	-0.482372	0.666724
C70	C	-0.328266	-1.066023	0.000056
C71	C	0.005067	-0.732690	0.333390
C72	C	0.338401	-0.399356	0.666723
C73	C	-0.270604	-0.984800	0.000051
C74	C	0.062729	-0.651467	0.333384
C75	C	0.396063	-0.318134	0.666717
C76	C	-0.306979	-0.901783	0.000043
C77	C	0.026354	-0.568450	0.333376
C78	C	0.359687	-0.235117	0.666709
C79	C	-0.401017	-0.899999	0.000046
C80	C	-0.067683	-0.566666	0.333380
C81	C	0.265650	-0.233332	0.666713
C82	C	-0.197851	-1.150823	0.000054
C83	C	0.135482	-0.817490	0.333388
C84	C	0.468815	-0.484157	0.666721
C85	C	-0.176561	-0.986588	0.000048
C86	C	0.156772	-0.653255	0.333381
C87	C	0.490105	-0.319921	0.666715
C88	C	0.289531	-1.058754	0.000064
C89	C	0.622865	-0.725420	0.333398
C90	C	0.956198	-0.392087	0.666731
C91	C	0.389615	-1.060657	0.000066
C92	C	0.722948	-0.727324	0.333400
C93	C	1.056282	-0.393991	0.666733
C94	C	0.118337	-1.229947	0.000068
C95	C	0.451671	-0.896614	0.333402
C96	C	0.785004	-0.563281	0.666735
C97	C	0.120241	-1.330031	0.000068
C98	C	0.453575	-0.996698	0.333402
C99	C	0.786908	-0.663365	0.666735
C100	C	0.039019	-0.387693	0.000065
C101	C	0.372352	-0.054360	0.333398
C102	C	0.705685	0.278974	0.666731
C103	C	0.203251	-0.366412	0.000067
C104	C	0.536585	-0.033079	0.333400
C105	C	0.869918	0.300255	0.666733
C106	C	0.205042	-0.460446	0.000064
C107	C	0.538375	-0.127112	0.333397
C108	C	0.871708	0.206221	0.666731
C109	C	0.123819	-0.518108	0.000060
C110	C	0.457152	-0.184774	0.333393
C111	C	0.790486	0.148559	0.666727
C112	C	0.040806	-0.481736	0.000059
C113	C	0.374140	-0.148402	0.333393
C114	C	0.707473	0.184931	0.666726
C115	C	0.288053	-0.496825	0.000056
C116	C	0.621386	-0.163492	0.333389
C117	C	0.954719	0.169842	0.666723
C118	C	0.289846	-0.590864	0.000052
C119	C	0.623180	-0.257531	0.333385
C120	C	0.956513	0.075803	0.666719
C121	C	0.208623	-0.648528	0.000055
C122	C	0.541956	-0.315194	0.333388
C123	C	0.875289	0.018139	0.666721
C124	C	0.125607	-0.612150	0.000055
C125	C	0.458940	-0.278817	0.333388
C126	C	0.792273	0.054516	0.666721
C127	C	0.044384	-0.669812	0.000051
C128	C	0.377717	-0.336479	0.333384
C129	C	0.711051	-0.003146	0.666718
C130	C	-0.038633	-0.633437	0.000057
C131	C	0.294700	-0.300104	0.333391
C132	C	0.628034	0.033230	0.666724
C133	C	-0.040417	-0.539399	0.000062
C134	C	0.292916	-0.206066	0.333395
C135	C	0.626249	0.127267	0.666728
C136	C	0.210407	-0.742565	0.000050
C137	C	0.543740	-0.409232	0.333384
C138	C	0.877074	-0.075898	0.666717
C139	C	0.046172	-0.763855	0.000046
C140	C	0.379505	-0.430522	0.333379
C141	C	0.712838	-0.097188	0.666712
N142	N	0.124709	-1.065144	-0.228113
N143	N	0.458043	-0.731811	0.105220
N144	N	0.791376	-0.398477	0.438553
C145	C	0.063517	-1.126355	0.453961
C146	C	0.396850	-0.793022	0.787294
C147	C	0.730184	-0.459688	1.120627
C148	C	0.063515	-1.126358	0.546150
C149	C	0.396848	-0.793024	0.879484
C150	C	0.730181	-0.459691	1.212817
C151	C	0.185904	-1.003904	0.546155
C152	C	0.519238	-0.670570	0.879489
C153	C	0.852571	-0.337237	1.212822
C154	C	0.185901	-1.003897	0.453967
C155	C	0.519235	-0.670564	0.787301
C156	C	0.852568	-0.337231	1.120634
C157	C	0.124709	-1.065128	0.407872
C158	C	0.458042	-0.731795	0.741206
C159	C	0.791375	-0.398461	1.074539
C160	C	0.124710	-1.065137	0.592250
C161	C	0.458043	-0.731804	0.925583
C162	C	0.791376	-0.398471	1.258917
C163	C	0.124708	-1.065140	0.692206
C164	C	0.458041	-0.731807	1.025540
C165	C	0.791374	-0.398473	1.358873
C166	C	0.124709	-1.065124	0.307910
C167	C	0.458043	-0.731791	0.641243
C168	C	0.791376	-0.398458	0.974577
H169	H	-0.129618	-0.920445	0.000040
H170	H	0.203715	-0.587112	0.333373
H171	H	0.537049	-0.253779	0.666706
H172	H	0.235732	-0.954035	0.416440
H173	H	0.569065	-0.620701	0.749773
H174	H	0.902398	-0.287368	1.083106
Cl175	Cl	-0.234480	-0.799679	0.000043
Cl176	Cl	0.098854	-0.466346	0.333377
Cl177	Cl	0.432187	-0.133013	0.666710
H178	H	-0.430643	-0.832411	0.000041
H179	H	-0.097309	-0.499078	0.333374
H180	H	0.236024	-0.165744	0.666707
H181	H	-0.019971	-0.810798	0.000046
H182	H	0.313362	-0.477465	0.333379
H183	H	0.646696	-0.144131	0.666713
Cl184	Cl	-0.013414	-1.203327	0.396017
Cl185	Cl	0.319919	-0.869994	0.729350
Cl186	Cl	0.653252	-0.536661	1.062683
H187	H	0.013686	-1.176213	0.583673
H188	H	0.347019	-0.842880	0.917006
H189	H	0.680353	-0.509547	1.250340
Cl190	Cl	0.314762	-0.788291	0.000036
Cl191	Cl	0.648095	-0.454958	0.333369
Cl192	Cl	0.981429	-0.121624	0.666702
H193	H	0.357443	-0.620472	0.000047
H194	H	0.690777	-0.287139	0.333380
H195	H	1.024110	0.046194	0.666713
Cl196	Cl	-0.598450	-0.875076	0.000042
Cl197	Cl	-0.265116	-0.541743	0.333376
Cl198	Cl	0.068217	-0.208409	0.666709
Cl199	Cl	-0.303832	-1.334624	0.000065
Cl200	Cl	0.029502	-1.001291	0.333398
Cl201	Cl	0.362835	-0.667958	0.666731
Cl202	Cl	-0.516083	-1.330570	0.000100
Cl203	Cl	-0.182750	-0.997237	0.333433
Cl204	Cl	0.150584	-0.663903	0.666767
H205	H	-0.104764	-0.680397	0.000048
H206	H	0.228569	-0.347064	0.333382
H207	H	0.561902	-0.013731	0.666715
H208	H	0.235727	-0.954052	0.583695
H209	H	0.569061	-0.620719	0.917028
H210	H	0.902394	-0.287386	1.250362
H211	H	-0.108005	-0.509774	0.000088
H212	H	0.225328	-0.176440	0.333421
H213	H	0.558661	0.156893	0.666755
Cl214	Cl	-0.152125	-1.255178	0.000080
Cl215	Cl	0.181208	-0.921845	0.333414
Cl216	Cl	0.514541	-0.588512	0.666747
Cl217	Cl	-0.065340	-0.341967	0.000077
Cl218	Cl	0.267993	-0.008633	0.333410
Cl219	Cl	0.601326	0.324700	0.666744
Cl220	Cl	0.305354	-0.293923	0.000059
Cl221	Cl	0.638687	0.039410	0.333393
Cl222	Cl	0.972021	0.372744	0.666726
Cl223	Cl	0.390154	-0.424333	0.000046
Cl224	Cl	0.723487	-0.091000	0.333379
Cl225	Cl	1.056820	0.242333	0.666713
H226	H	-0.620958	-1.209795	0.000081
H227	H	-0.287624	-0.876462	0.333414
H228	H	0.045709	-0.543129	0.666748
