data_functionalizedCrystal
_audit_creation_method	'MofGen! by Chris Wilmer'
_symmetry_space_group_name_H-M	'P1'
_symmetry_Int_Tables_number	1
_symmetry_cell_setting	triclinic
loop_
_symmetry_equiv_pos_as_xyz
  x,y,z
_cell_length_a	15.538191
_cell_length_b	16.109301
_cell_length_c	14.586319
_cell_angle_alpha	90.003133
_cell_angle_beta	89.997979
_cell_angle_gamma	65.366787
loop_
_atom_site_label
_atom_site_type_symbol
_atom_site_fract_x
_atom_site_fract_y
_atom_site_fract_z
O1	O	0.121088	1.066621	0.076175
O2	O	0.136158	0.820015	0.076189
O3	O	-0.008521	0.991322	0.076184
O4	O	0.265767	0.895314	0.076180
O5	O	-0.008513	0.991304	-0.076297
O6	O	0.136167	0.819997	-0.076292
O7	O	0.121097	1.066603	-0.076306
Cu8	Cu	0.128632	0.943298	-0.090221
Cu9	Cu	0.128622	0.943320	0.090105
O10	O	0.265776	0.895296	-0.076300
C11	C	0.135552	0.789215	-0.000050
C12	C	0.133722	0.697472	-0.000044
C13	C	-0.043615	1.001358	-0.000054
C14	C	-0.148198	1.031279	-0.000047
C15	C	0.215316	0.450596	-0.000056
C16	C	0.213589	0.364396	-0.000062
C17	C	0.041932	0.436032	-0.000056
C18	C	0.043660	0.522229	-0.000056
C19	C	0.130355	0.529508	-0.000052
C20	C	0.126900	0.357111	-0.000057
C21	C	0.125027	0.263649	-0.000063
C22	C	0.132228	0.622975	-0.000047
C23	C	-0.435898	0.734025	-0.000050
C24	C	-0.534172	0.762161	-0.000053
C25	C	-0.556664	0.920419	-0.000062
C26	C	-0.458389	0.892297	-0.000054
C27	C	-0.398013	0.799099	-0.000049
C28	C	-0.420505	0.957370	-0.000053
C29	C	-0.322239	0.929249	-0.000049
C30	C	-0.261857	0.836055	-0.000047
C31	C	-0.299747	0.770978	-0.000046
C32	C	-0.480882	1.050568	-0.000064
C33	C	-0.442998	1.115641	-0.000063
C34	C	-0.344730	1.087520	-0.000053
C35	C	-0.284349	0.994326	-0.000051
C36	C	-0.306840	1.152598	-0.000055
C37	C	-0.208574	1.124477	-0.000052
C38	C	-0.186083	0.966206	-0.000048
C39	C	0.300870	0.885260	-0.000060
C40	C	0.405453	0.855340	-0.000062
C41	C	0.121703	1.097403	-0.000065
C42	C	0.123533	1.189147	-0.000065
N43	N	0.128639	0.943290	-0.217053
C44	C	0.185781	0.976482	-0.452063
C45	C	0.185775	0.976493	-0.548045
C46	C	0.071459	0.910145	-0.548047
C47	C	0.071462	0.910141	-0.452067
C48	C	0.128628	0.943306	-0.404078
C49	C	0.128619	0.943321	-0.596039
C50	C	0.128612	0.943332	-0.700106
C51	C	0.128634	0.943297	-0.300004
N52	N	0.128608	0.943338	0.216937
H53	H	0.285908	0.456517	-0.000059
H54	H	-0.028652	0.430094	-0.000065
Br55	Br	-0.353950	0.607540	-0.000030
H56	H	-0.492169	1.191523	-0.000071
Br57	Br	-0.388789	1.279076	-0.000084
Br58	Br	-0.071653	0.629334	-0.000063
H59	H	-0.136921	0.890314	-0.000037
H60	H	0.232314	1.003509	-0.587110
H61	H	-0.181843	0.813161	-0.000050
H62	H	-0.250585	0.695087	-0.000035
H63	H	0.024918	0.883142	-0.587131
H64	H	0.282773	0.300146	-0.000067
H65	H	-0.565012	0.709164	-0.000068
Br66	Br	-0.157154	1.212790	-0.000073
H67	H	-0.605834	0.996301	-0.000070
Br68	Br	-0.006110	0.865114	-0.386938
H69	H	-0.560896	1.073460	-0.000059
H70	H	0.232330	1.003487	-0.412993
