data_functionalizedCrystal
_audit_creation_method	'MofGen! by Chris Wilmer'
_symmetry_space_group_name_H-M	'P1'
_symmetry_Int_Tables_number	1
_symmetry_cell_setting	triclinic
loop_
_symmetry_equiv_pos_as_xyz
  x,y,z
_cell_length_a	19.188930
_cell_length_b	10.654550
_cell_length_c	18.266242
_cell_angle_alpha	90.003246
_cell_angle_beta	90.019668
_cell_angle_gamma	83.814842
loop_
_atom_site_label
_atom_site_type_symbol
_atom_site_fract_x
_atom_site_fract_y
_atom_site_fract_z
O1	O	-0.927172	-0.156779	-0.061115
O2	O	-0.427172	0.343221	0.438885
O3	O	-0.723998	-0.177884	-0.061064
O4	O	-0.223998	0.322116	0.438936
O5	O	-0.830256	0.015506	-0.061088
O6	O	-0.330256	0.515506	0.438912
O7	O	-0.820914	-0.350170	-0.061091
O8	O	-0.320914	0.149830	0.438909
O9	O	-0.830244	0.015511	0.060674
O10	O	-0.330244	0.515511	0.560674
O11	O	-0.723986	-0.177880	0.060698
O12	O	-0.223986	0.322120	0.560698
O13	O	-0.927160	-0.156775	0.060647
O14	O	-0.427160	0.343225	0.560647
Zn15	Zn	-0.825571	-0.167327	0.080005
Zn16	Zn	-0.325571	0.332673	0.580005
Zn17	Zn	-0.825587	-0.167332	-0.080422
Zn18	Zn	-0.325587	0.332668	0.419578
O19	O	-0.820902	-0.350166	0.060671
O20	O	-0.320902	0.149834	0.560671
C21	C	-0.697977	-0.177199	-0.000177
C22	C	-0.197977	0.322801	0.499823
C23	C	-0.620459	-0.175147	-0.000158
C24	C	-0.120459	0.324853	0.499842
C25	C	-0.829564	0.062292	-0.000208
C26	C	-0.329564	0.562292	0.499792
C27	C	-0.827512	0.201692	-0.000210
C28	C	-0.327512	0.701692	0.499790
C29	C	-0.953181	-0.157460	-0.000242
C30	C	-0.453181	0.342540	0.499758
C31	C	-1.030699	-0.159512	-0.000266
C32	C	-0.530699	0.340488	0.499734
C33	C	-0.576277	-0.288622	-0.000170
C34	C	-0.076277	0.211378	0.499830
C35	C	-0.503441	-0.286695	-0.000178
C36	C	-0.003441	0.213305	0.499822
C37	C	-0.474789	-0.171286	-0.000188
C38	C	0.025211	0.328714	0.499812
C39	C	-0.518981	-0.057795	-0.000172
C40	C	-0.018981	0.442205	0.499828
C41	C	-0.591816	-0.059726	-0.000156
C42	C	-0.091816	0.440274	0.499844
N43	N	-0.366236	-0.083071	-0.041658
N44	N	0.133764	0.416929	0.458342
N45	N	-0.297046	-0.081245	-0.041674
N46	N	0.202954	0.418755	0.458326
C47	C	-0.255343	-0.165461	-0.000233
C48	C	0.244657	0.334539	0.499767
N49	N	-0.285443	-0.251593	0.041216
N50	N	0.214557	0.248407	0.541216
N51	N	-0.354639	-0.253423	0.041228
N52	N	0.145361	0.246577	0.541228
C53	C	-0.395813	-0.169179	-0.000205
C54	C	0.104187	0.330821	0.499795
C55	C	-0.132183	-0.276855	-0.000253
C56	C	0.367817	0.223145	0.499747
C57	C	-0.059345	-0.274922	-0.000257
C58	C	0.440655	0.225078	0.499743
C59	C	-0.074887	-0.046020	-0.000258
C60	C	0.425113	0.453980	0.499742
C61	C	-0.147723	-0.047955	-0.000247
C62	C	0.352277	0.452045	0.499753
C63	C	-0.176366	-0.163376	-0.000248
C64	C	0.323634	0.336624	0.499752
C65	C	-0.821594	-0.396951	-0.000211
C66	C	-0.321594	0.103049	0.499789
C67	C	-0.823646	-0.536351	-0.000214
C68	C	-0.323646	-0.036351	0.499786
N69	N	-0.825565	-0.167322	0.189492
N70	N	-0.325565	0.332678	0.689492
C71	C	-0.890075	0.282501	-0.000223
C72	C	-0.390075	0.782501	0.499777
C73	C	-0.888142	0.413481	-0.000228
C74	C	-0.388142	0.913481	0.499772
C75	C	-0.761078	0.382829	-0.000203
C76	C	-0.261078	0.882829	0.499797
C77	C	-0.763012	0.251852	-0.000203
C78	C	-0.263012	0.751852	0.499797
C79	C	-0.954575	0.232341	-0.000230
C80	C	-0.454575	0.732341	0.499770
C81	C	-1.017143	0.313152	-0.000242
C82	C	-0.517143	0.813152	0.499758
C83	C	-1.015211	0.444132	-0.000247
C84	C	-0.515211	0.944132	0.499753
C85	C	-0.950710	0.494301	-0.000239
C86	C	-0.450710	0.994301	0.499761
C87	C	-0.872647	-0.081719	0.771758
C88	C	-0.372647	0.418281	1.271758
C89	C	-0.872649	-0.081722	0.695114
C90	C	-0.372649	0.418278	1.195114
C91	C	-0.825585	-0.167323	0.656804
C92	C	-0.325585	0.332677	1.156804
C93	C	-0.778529	-0.252949	0.695146
C94	C	-0.278529	0.247051	1.195146
C95	C	-0.778534	-0.252952	0.771790
C96	C	-0.278534	0.247048	1.271790
N97	N	-0.763880	-0.183597	0.536493
N98	N	-0.263880	0.316403	1.036493
N99	N	-0.763877	-0.183586	0.463685
N100	N	-0.263877	0.316414	0.963685
C101	C	-0.825569	-0.167320	0.425882
C102	C	-0.325569	0.332680	0.925882
N103	N	-0.887265	-0.151040	0.463638
N104	N	-0.387265	0.348960	0.963638
N105	N	-0.887266	-0.151044	0.536452
N106	N	-0.387266	0.348956	1.036452
C107	C	-0.825575	-0.167329	0.573697
C108	C	-0.325575	0.332671	1.073697
C109	C	-0.872626	-0.081708	0.304442
C110	C	-0.372626	0.418292	0.804442
C111	C	-0.872628	-0.081719	0.227796
C112	C	-0.372628	0.418281	0.727796
C113	C	-0.778503	-0.252940	0.227830
C114	C	-0.278503	0.247060	0.727830
C115	C	-0.778507	-0.252935	0.304475
C116	C	-0.278507	0.247065	0.804475
C117	C	-0.825568	-0.167312	0.342776
C118	C	-0.325568	0.332688	0.842776
N119	N	-0.825595	-0.167329	0.810091
N120	N	-0.325595	0.332671	1.310091
H121	H	-0.467461	-0.379103	-0.000186
H122	H	0.032539	0.120897	0.499814
H123	H	-0.956156	0.125693	-0.000224
H124	H	-0.456156	0.625693	0.499776
O125	O	-0.607174	-0.413105	-0.000165
O126	O	-0.107174	0.086895	0.499835
H127	H	-0.639964	-0.419449	0.049469
H128	H	-0.139964	0.080551	0.549469
O129	O	-0.691512	0.436932	-0.000180
O130	O	-0.191512	0.936932	0.499820
H131	H	-0.700679	0.541585	-0.000172
H132	H	-0.200679	1.041585	0.499828
O133	O	-0.923393	0.010628	0.653754
O134	O	-0.423393	0.510628	1.153754
H135	H	-0.956114	0.070171	0.693264
H136	H	-0.456114	0.570171	1.193264
H137	H	-0.183697	0.044449	-0.000241
H138	H	0.316303	0.544449	0.499759
H139	H	-0.740218	-0.322668	0.803001
H140	H	-0.240218	0.177332	1.303001
H141	H	-1.069658	0.272296	-0.000267
H142	H	-0.569658	0.772296	0.499733
O143	O	-0.923391	0.010618	0.345762
O144	O	-0.423391	0.510618	0.845762
H145	H	-0.956120	0.070134	0.306227
H146	H	-0.456120	0.570134	0.806227
O147	O	-0.923377	0.010626	0.186445
O148	O	-0.423377	0.510626	0.686445
H149	H	-0.956095	0.070169	0.225958
H150	H	-0.456095	0.570169	0.725958
H151	H	-0.910969	-0.012003	0.802941
H152	H	-0.410969	0.487997	1.302941
O153	O	-0.695535	0.164679	-0.000182
O154	O	-0.195535	0.664679	0.499818
H155	H	-0.650359	0.221560	-0.000164
H156	H	-0.150359	0.721560	0.499836
O157	O	-0.727754	-0.345257	0.653834
O158	O	-0.227754	0.154743	1.153834
H159	H	-0.735645	-0.330856	0.594098
H160	H	-0.235645	0.169144	1.094098
H161	H	-0.051560	0.047949	-0.000312
H162	H	0.448440	0.547949	0.499688
H163	H	-1.066157	0.509926	-0.000264
H164	H	-0.566157	1.009926	0.499736
H165	H	-0.740186	-0.322643	0.196639
H166	H	-0.240186	0.177357	0.696639
H167	H	-0.155505	-0.370837	-0.000244
H168	H	0.344495	0.129163	0.499756
H169	H	-0.740190	-0.322642	0.335687
H170	H	-0.240190	0.177358	0.835687
O171	O	-0.948623	0.635573	-0.000240
O172	O	-0.448623	1.135573	0.499760
H173	H	-0.975549	0.676723	-0.049872
H174	H	-0.475549	1.176723	0.450128
O175	O	-0.488085	0.066686	-0.000183
O176	O	0.011915	0.566686	0.499817
H177	H	-0.430015	0.048966	-0.000203
H178	H	0.069985	0.548966	0.499797
O179	O	-0.639476	0.062669	-0.000147
O180	O	-0.139476	0.562669	0.499853
H181	H	-0.607320	0.143248	-0.000157
H182	H	-0.107320	0.643248	0.499843
O183	O	-0.011686	-0.397319	-0.000264
O184	O	0.488314	0.102681	0.499736
H185	H	-0.021957	-0.452563	-0.049895
H186	H	0.478043	0.047437	0.450105
