data_functionalizedCrystal
_audit_creation_method	'MofGen! by Chris Wilmer'
_symmetry_space_group_name_H-M	'P1'
_symmetry_Int_Tables_number	1
_symmetry_cell_setting	triclinic
loop_
_symmetry_equiv_pos_as_xyz
  x,y,z
_cell_length_a	14.519709
_cell_length_b	8.559649
_cell_length_c	13.596369
_cell_angle_alpha	89.998228
_cell_angle_beta	90.012081
_cell_angle_gamma	76.729405
loop_
_atom_site_label
_atom_site_type_symbol
_atom_site_fract_x
_atom_site_fract_y
_atom_site_fract_z
O1	O	-1.208821	-0.209416	0.081660
O2	O	-0.875488	0.123917	0.414993
O3	O	-0.542155	0.457251	0.748327
O4	O	-0.938574	-0.234077	0.081690
O5	O	-0.605241	0.099256	0.415023
O6	O	-0.271908	0.432589	0.748356
O7	O	-1.097507	0.010787	0.081671
O8	O	-0.764173	0.344121	0.415005
O9	O	-0.430840	0.677454	0.748338
O10	O	-1.049889	-0.454281	0.081679
O11	O	-0.716556	-0.120947	0.415012
O12	O	-0.383222	0.212386	0.748345
O13	O	-1.097525	0.010801	-0.081912
O14	O	-0.764192	0.344134	0.251422
O15	O	-0.430859	0.677467	0.584755
O16	O	-0.938593	-0.234064	-0.081893
O17	O	-0.605259	0.099269	0.251440
O18	O	-0.271926	0.432603	0.584773
O19	O	-1.208840	-0.209403	-0.081923
O20	O	-0.875506	0.123931	0.251410
O21	O	-0.542173	0.457264	0.584744
Zn22	Zn	-1.073719	-0.221731	-0.107880
Zn23	Zn	-0.740386	0.111602	0.225453
Zn24	Zn	-0.407052	0.444936	0.558786
Zn25	Zn	-1.073695	-0.221749	0.107647
Zn26	Zn	-0.740362	0.111585	0.440981
Zn27	Zn	-0.407028	0.444918	0.774314
O28	O	-1.049907	-0.454267	-0.081904
O29	O	-0.716574	-0.120934	0.251429
O30	O	-0.383241	0.212399	0.584762
C31	C	-0.904306	-0.232921	-0.000098
C32	C	-0.570973	0.100412	0.333235
C33	C	-0.237640	0.433745	0.666569
C34	C	-0.802172	-0.229477	-0.000087
C35	C	-0.468839	0.103856	0.333247
C36	C	-0.135506	0.437189	0.666580
C37	C	-1.101125	0.070313	-0.000119
C38	C	-0.767791	0.403647	0.333215
C39	C	-0.434458	0.736980	0.666548
C40	C	-1.111866	0.247663	-0.000114
C41	C	-0.778533	0.580996	0.333219
C42	C	-0.445199	0.914330	0.666552
C43	C	-1.243108	-0.210559	-0.000133
C44	C	-0.909774	0.122775	0.333200
C45	C	-0.576441	0.456108	0.666534
C46	C	-1.345242	-0.214003	-0.000138
C47	C	-1.011909	0.119331	0.333195
C48	C	-0.678575	0.452664	0.666529
C49	C	-0.428186	-0.216798	-0.000131
C50	C	-0.094853	0.116535	0.333202
C51	C	0.238480	0.449869	0.666535
C52	C	-0.532242	-0.220319	-0.000119
C53	C	-0.198908	0.113014	0.333215
C54	C	0.134425	0.446348	0.666548
C55	C	-0.615176	-0.223137	-0.000108
C56	C	-0.281843	0.110196	0.333225
C57	C	0.051491	0.443529	0.666559
C58	C	-0.719238	-0.226659	-0.000097
C59	C	-0.385904	0.106674	0.333236
C60	C	-0.052571	0.440008	0.666570
C61	C	-1.046289	-0.513793	-0.000112
C62	C	-0.712956	-0.180460	0.333221
C63	C	-0.379623	0.152873	0.666554
C64	C	-1.035548	-0.691143	-0.000110
C65	C	-0.702215	-0.357810	0.333223
C66	C	-0.368881	-0.024476	0.666557
N67	N	-1.073742	-0.221718	-0.254972
N68	N	-0.740409	0.111615	0.078361
N69	N	-0.407076	0.444949	0.411694
N70	N	-1.073680	-0.221749	0.254739
N71	N	-0.740346	0.111584	0.588072
N72	N	-0.407013	0.444917	0.921406
C73	C	-1.073683	-0.221751	0.343737
C74	C	-0.740350	0.111583	0.677070
C75	C	-0.407016	0.444916	1.010404
C76	C	-1.073696	-0.221747	0.455388
C77	C	-0.740363	0.111586	0.788722
C78	C	-0.407030	0.444920	1.122055
C79	C	-1.073713	-0.221736	0.544379
C80	C	-0.740380	0.111598	0.877712
C81	C	-0.407046	0.444931	1.211045
C82	C	-1.073726	-0.221729	0.656037
C83	C	-0.740392	0.111604	0.989371
C84	C	-0.407059	0.444937	1.322704
H85	H	-0.961991	0.225570	-0.000105
H86	H	-0.628658	0.558904	0.333228
H87	H	-0.295324	0.892237	0.666562
H88	H	-1.185428	0.330959	-0.000130
H89	H	-0.852095	0.664292	0.333203
H90	H	-0.518761	0.997625	0.666536
