data_functionalizedCrystal
_audit_creation_method	'MofGen! by Chris Wilmer'
_symmetry_space_group_name_H-M	'P1'
_symmetry_Int_Tables_number	1
_symmetry_cell_setting	triclinic
loop_
_symmetry_equiv_pos_as_xyz
  x,y,z
_cell_length_a	27.440280
_cell_length_b	14.395555
_cell_length_c	14.395555
_cell_angle_alpha	59.998369
_cell_angle_beta	89.995994
_cell_angle_gamma	59.994588
loop_
_atom_site_label
_atom_site_type_symbol
_atom_site_fract_x
_atom_site_fract_y
_atom_site_fract_z
Zr1	Zr	0.469490	1.016753	-0.122014
O2	O	0.391671	1.210567	-0.270347
O3	O	0.493347	0.822944	-0.076532
O4	O	0.493346	1.016742	-0.270339
O5	O	0.391671	1.016776	0.076328
O6	O	0.573548	1.016727	-0.270345
O7	O	0.391672	1.016769	-0.076540
O8	O	0.573549	0.670059	0.076342
O9	O	0.391670	1.363444	-0.270359
O10	O	0.563374	0.902648	-0.057151
O11	O	0.503520	0.902664	0.056937
O12	O	0.503519	1.130835	-0.171247
O13	O	0.443665	1.130851	-0.057160
Zr14	Zr	0.597402	1.016740	0.121783
Zr15	Zr	0.597403	1.016729	-0.122023
Zr16	Zr	0.469489	1.016764	0.121791
Zr17	Zr	0.469489	1.260575	-0.122033
Zr18	Zr	0.597404	0.772918	0.121801
O19	O	0.573546	1.210549	0.076300
O20	O	0.573547	1.210533	-0.270360
O21	O	0.391670	1.210582	0.076313
O22	O	0.675221	0.822926	0.270116
O23	O	0.675223	0.822911	-0.076544
O24	O	0.493346	0.822960	0.270129
O25	O	0.675221	1.016717	-0.076559
O26	O	0.573546	1.016751	0.270108
O27	O	0.493344	1.016766	0.270114
O28	O	0.675221	1.016724	0.076308
O29	O	0.493344	1.363425	-0.270366
O30	O	0.573549	0.670068	0.270135
O31	O	0.675222	0.670049	0.270128
O32	O	0.675223	0.670040	0.076335
O33	O	0.391669	1.363453	-0.076566
O34	O	0.493343	1.363434	-0.076573
O35	O	0.563373	0.902658	0.171016
O36	O	0.623228	0.902642	0.056928
O37	O	0.563373	1.130829	-0.057168
O38	O	0.503518	1.130846	0.056919
C39	C	0.533448	0.711762	-0.000092
C40	C	0.533449	0.608253	-0.000084
C41	C	0.500806	0.485790	0.062083
C42	C	0.557087	0.471503	0.107198
C43	C	0.477178	0.623879	-0.045147
C44	C	0.589758	0.409526	0.045030
C45	C	0.509809	0.561966	-0.107374
C46	C	0.566124	0.547632	-0.062286
C47	C	0.373447	1.016776	-0.000105
C48	C	0.319144	1.016786	-0.000101
C49	C	-0.017553	1.016713	-0.084333
C50	C	-0.068571	1.016704	-0.084334
O51	O	-0.094946	1.016652	-0.155932
N52	N	-0.094089	1.016710	-0.000119
C53	C	-0.068583	1.016713	0.084108
O54	O	-0.094973	1.016716	0.155739
C55	C	-0.017564	1.016713	0.084112
C56	C	0.007948	1.016720	-0.000115
C57	C	0.007959	1.016719	-0.168552
C58	C	0.058973	1.016731	-0.168553
C59	C	0.084474	1.016737	-0.084334
C60	C	0.058962	1.016731	-0.000115
C61	C	0.007944	1.016705	0.168343
C62	C	0.058967	1.016704	0.168341
C63	C	0.084479	1.016711	0.084114
C64	C	0.135477	1.016749	0.084104
N65	N	0.160995	1.016743	-0.000111
C66	C	0.135494	1.016737	-0.084329
C67	C	-0.175727	1.016710	0.084093
C68	C	-0.226748	1.016720	0.084085
C69	C	-0.226732	1.016709	-0.084356
C70	C	-0.175712	1.016709	-0.084351
C71	C	-0.150209	1.016704	-0.000121
C72	C	0.242626	1.016763	-0.084324
C73	C	0.293643	1.016780	-0.084320
C74	C	0.293624	1.016784	0.084124
C75	C	0.242610	1.016774	0.084117
C76	C	0.217113	1.016759	-0.000113
O77	O	0.161885	1.016796	0.155668
O78	O	0.161894	1.016717	-0.155940
C79	C	0.693446	1.016717	-0.000127
C80	C	0.747748	1.016707	-0.000131
C81	C	0.533447	1.016733	-0.305079
C82	C	0.533448	1.016728	-0.408581
C83	C	0.533444	1.321731	-0.000139
C84	C	0.533443	1.425240	-0.000147
C85	C	0.566086	0.892310	-0.406959
C86	C	0.509806	0.954515	-0.499982
C87	C	0.589715	0.954529	-0.499987
C88	C	0.477134	1.078933	-0.500241
C89	C	0.557083	1.078930	-0.500231
C90	C	0.500769	1.141225	-0.593271
C91	C	0.533445	1.016760	0.304848
C92	C	0.533445	1.016765	0.408350
C93	C	0.693448	0.711733	-0.000103
C94	C	0.747751	0.608214	-0.000099
C95	C	0.533447	0.711776	0.304871
C96	C	0.533447	0.608272	0.408381
C97	C	0.693447	0.711746	0.304860
C98	C	0.747749	0.608232	0.408366
C99	C	0.373446	1.321747	-0.305092
C100	C	0.319143	1.425261	-0.408598
C101	C	0.373445	1.321761	-0.000128
C102	C	0.319141	1.425279	-0.000133
C103	C	0.533445	1.321717	-0.305103
C104	C	0.533445	1.425221	-0.408613
C105	C	0.742009	0.559603	-0.059655
C106	C	0.793028	0.462349	-0.059674
C107	C	0.849788	0.413702	-0.000129
C108	C	0.855528	0.462322	0.059429
C109	C	0.804510	0.559580	0.059440
C110	C	0.804499	0.559612	0.397422
C111	C	0.855527	0.462363	0.494667
C112	C	0.849804	0.413729	0.602857
C113	C	0.793048	0.462358	0.613799
C114	C	0.742022	0.559612	0.516555
C115	C	0.262393	1.473893	-0.397653
C116	C	0.211365	1.571172	-0.494899
C117	C	0.217088	1.619811	-0.603088
C118	C	0.273844	1.571176	-0.614031
C119	C	0.324871	1.473905	-0.516786
C120	C	0.324883	1.473900	0.059414
C121	C	0.273864	1.571181	0.059405
C122	C	0.217105	1.619832	-0.000143
C123	C	0.211364	1.571207	-0.059696
C124	C	0.262382	1.473935	-0.059694
C125	C	0.500812	0.547690	0.406774
C126	C	0.557095	0.409575	0.499798
C127	C	0.477185	0.561930	0.499799
C128	C	0.589763	0.471458	0.500043
C129	C	0.509813	0.623887	0.500029
C130	C	0.566129	0.485781	0.593071
H131	H	0.473249	0.458540	0.114744
C132	C	-0.254789	1.016689	-0.176992
N133	N	-0.275923	1.016672	-0.246760
C134	C	0.786700	0.408874	-0.125183
N135	N	0.781932	0.368596	-0.174522
C136	C	0.482776	0.747721	0.498690
N137	N	0.462405	0.841005	0.497671
C138	C	0.412892	0.747645	-0.096604
N139	N	0.364471	0.840859	-0.135354
C140	C	0.256057	1.420448	-0.125189
N141	N	0.251287	1.380164	-0.174521
C142	C	0.412818	1.149919	-0.499130
N143	N	0.364376	1.203379	-0.498288
C144	C	-0.020105	1.016684	0.261008
N145	N	-0.041228	1.016661	0.330812
H146	H	0.175567	1.699037	-0.000135
C147	C	0.905904	0.306705	-0.000144
N148	N	0.948168	0.226110	-0.000155
H149	H	0.637370	0.434072	0.499218
H150	H	0.314412	1.016789	-0.152911
C151	C	0.810809	0.613099	0.278422
N152	N	0.815567	0.653386	0.188794
C153	C	0.463427	1.283464	-0.700863
N154	N	0.435298	1.390596	-0.781905
H155	H	0.577092	1.131461	-0.499262
C156	C	0.584107	0.285783	0.501068
N157	N	0.604449	0.192548	0.502018
C158	C	0.280129	1.624681	-0.733050
N159	N	0.284862	1.664976	-0.822699
H160	H	0.577094	0.434232	0.197917
H161	H	0.788397	0.422746	0.701900
H162	H	0.371078	1.434309	-0.525711
H163	H	0.371095	1.434296	0.107912
H164	H	0.175534	1.699015	-0.682262
C165	C	0.148923	1.624720	-0.125177
N166	N	0.101890	1.665018	-0.174485
H167	H	0.637302	0.901919	-0.500885
C168	C	-0.254809	1.016726	0.176734
N169	N	-0.275941	1.016722	0.246525
C170	C	0.463585	0.584289	0.299021
N171	N	0.435550	0.611854	0.217860
H172	H	-0.154967	1.016717	0.152682
C173	C	0.603471	0.449251	0.700652
N174	N	0.631599	0.421727	0.781685
H175	H	0.695797	0.599211	-0.108158
C176	C	0.679598	0.613081	0.528613
N177	N	0.632581	0.653350	0.537704
C178	C	0.412899	0.612192	0.501025
N179	N	0.364478	0.650050	0.501940
H180	H	0.637365	0.317951	0.083223
C181	C	0.148940	1.624651	-0.482836
N182	N	0.101922	1.664929	-0.473748
H183	H	0.593765	0.574592	-0.114872
C184	C	0.917969	0.408785	0.124933
N185	N	0.965002	0.368450	0.174278
H186	H	0.221832	1.016787	0.152692
C187	C	0.482775	0.612226	-0.229888
N188	N	0.462405	0.650086	-0.322167
C189	C	0.214586	1.016753	-0.176984
N190	N	0.193464	1.016754	-0.246780
H191	H	0.809193	0.599146	0.107945
C192	C	0.603312	0.750186	-0.299198
N193	N	0.631347	0.643141	-0.218031
H194	H	0.891358	0.334538	0.682030
H195	H	0.079743	1.016731	-0.237134
C196	C	0.917953	0.408877	0.482605
N197	N	0.964970	0.368590	0.473516
H198	H	0.257722	1.434296	-0.309569
H199	H	0.278550	1.610754	0.107905
H200	H	-0.012798	1.016710	-0.237134
H201	H	0.079730	1.016696	0.236934
C202	C	0.321687	1.016783	0.176764
N203	N	0.342829	1.016771	0.246547
C204	C	-0.147650	1.016704	-0.177000
N205	N	-0.126515	1.016694	-0.246784
H206	H	0.489810	0.901937	-0.500908
