data_functionalizedCrystal
_audit_creation_method	'MofGen! by Chris Wilmer'
_symmetry_space_group_name_H-M	'P1'
_symmetry_Int_Tables_number	1
_symmetry_cell_setting	triclinic
loop_
_symmetry_equiv_pos_as_xyz
  x,y,z
_cell_length_a	10.489716
_cell_length_b	10.489711
_cell_length_c	16.776229
_cell_angle_alpha	89.997079
_cell_angle_beta	89.993252
_cell_angle_gamma	84.528072
loop_
_atom_site_label
_atom_site_type_symbol
_atom_site_fract_x
_atom_site_fract_y
_atom_site_fract_z
O1	O	1.694057	0.179824	-0.066275
O2	O	2.194057	0.679824	0.433725
O3	O	1.322856	0.196750	-0.066277
O4	O	1.822856	0.696750	0.433723
O5	O	1.516923	0.002686	-0.066278
O6	O	2.016923	0.502686	0.433722
O7	O	1.499990	0.373888	-0.066274
O8	O	1.999990	0.873888	0.433726
O9	O	1.516897	0.002674	0.066299
O10	O	2.016897	0.502674	0.566299
O11	O	1.322830	0.196738	0.066300
O12	O	1.822830	0.696738	0.566300
O13	O	1.694031	0.179812	0.066302
O14	O	2.194031	0.679812	0.566302
Zn15	Zn	1.508426	0.188273	0.087350
Zn16	Zn	2.008426	0.688273	0.587350
Zn17	Zn	1.508461	0.188289	-0.087325
Zn18	Zn	2.008461	0.688289	0.412675
O19	O	1.499964	0.373876	0.066303
O20	O	1.999964	0.873876	0.566303
C21	C	1.275311	0.195472	0.000011
C22	C	1.775311	0.695472	0.500011
C23	C	1.133680	0.191667	0.000010
C24	C	1.633680	0.691667	0.500010
C25	C	1.035994	0.310673	0.000009
C26	C	1.535994	0.810673	0.500009
C27	C	0.958641	0.247782	0.065379
C28	C	1.458641	0.747782	0.565379
C29	C	0.958674	0.247766	-0.065331
C30	C	1.458674	0.747766	0.434669
C31	C	1.058193	0.128826	0.065434
C32	C	1.558193	0.628826	0.565434
C33	C	1.058231	0.128827	-0.065335
C34	C	1.558231	0.628827	0.434665
C35	C	0.980928	0.065849	0.000051
C36	C	1.480928	0.565849	0.500051
C37	C	1.515639	-0.044852	0.000008
C38	C	2.015639	0.455148	0.500008
C39	C	1.511837	-0.186483	0.000001
C40	C	2.011837	0.313517	0.500001
C41	C	1.628543	-0.368880	0.000010
C42	C	2.128543	0.131120	0.500010
C43	C	1.570234	-0.276737	0.065376
C44	C	2.070234	0.223263	0.565376
C45	C	1.570228	-0.276749	-0.065334
C46	C	2.070228	0.223251	0.434666
C47	C	1.446690	-0.346677	0.065437
C48	C	1.946690	0.153323	0.565437
C49	C	1.446701	-0.346698	-0.065332
C50	C	1.946701	0.153302	0.434668
C51	C	1.388302	-0.254583	0.000050
C52	C	1.888302	0.245417	0.500050
C53	C	1.741576	0.181090	0.000012
C54	C	2.241576	0.681090	0.500012
C55	C	1.883207	0.184895	0.000008
C56	C	2.383207	0.684895	0.500008
C57	C	1.501248	0.421414	0.000015
C58	C	2.001248	0.921414	0.500015
C59	C	1.505050	0.563045	0.000017
C60	C	2.005050	1.063045	0.500017
N61	N	1.508412	0.188261	0.206561
N62	N	2.008412	0.688261	0.706561
N63	N	1.508485	0.188291	-0.206536
N64	N	2.008485	0.688291	0.293464
C65	C	1.594372	0.102365	0.248278
C66	C	2.094372	0.602365	0.748278
C67	C	1.594379	0.102364	0.331730
C68	C	2.094379	0.602364	0.831730
C69	C	1.508431	0.188266	0.373464
C70	C	2.008431	0.688266	0.873464
C71	C	1.422463	0.274166	0.331742
C72	C	1.922463	0.774166	0.831742
C73	C	1.422450	0.274160	0.248291
C74	C	1.922450	0.774160	0.748291
C75	C	1.422509	0.274191	0.668289
C76	C	1.922509	0.774191	1.168289
C77	C	1.422530	0.274194	0.751745
C78	C	1.922530	0.774194	1.251745
C79	C	1.594437	0.102396	0.751728
C80	C	2.094437	0.602396	1.251728
C81	C	1.594425	0.102390	0.668277
C82	C	2.094425	0.602390	1.168277
C83	C	1.508452	0.188285	0.626562
C84	C	2.008452	0.688285	1.126562
C85	C	1.508444	0.188283	0.536074
C86	C	2.008444	0.688283	1.036074
C87	C	1.508445	0.188275	0.463951
C88	C	2.008445	0.688275	0.963951
H89	H	1.101743	0.078633	-0.120604
H90	H	1.601743	0.578633	0.379396
H91	H	1.394469	-0.377487	0.120761
H92	H	1.894469	0.122513	0.620761
Br93	Br	1.077107	0.483202	0.000111
Br94	Br	1.577107	0.983202	0.500111
H95	H	1.352509	0.344132	0.634331
H96	H	1.852509	0.844132	1.134331
Br97	Br	1.305807	0.390741	0.388378
Br98	Br	1.805807	0.890741	0.888378
Br99	Br	0.886140	0.331500	0.157493
Br100	Br	1.386140	0.831500	0.657493
Br101	Br	1.657308	-0.225091	0.157481
Br102	Br	2.157308	0.274909	0.657481
Br103	Br	1.305777	0.390729	0.191675
Br104	Br	1.805777	0.890729	0.691675
Br105	Br	0.940213	-0.106808	0.000110
Br106	Br	1.440213	0.393192	0.500110
Br107	Br	1.711116	-0.014180	0.808345
Br108	Br	2.211116	0.485820	1.308345
Br109	Br	1.711078	-0.014187	0.611641
Br110	Br	2.211078	0.485813	1.111641
Br111	Br	1.657372	-0.225138	-0.157437
Br112	Br	2.157372	0.274862	0.342563
H113	H	1.664373	0.032421	0.365696
H114	H	2.164373	0.532421	0.865696
Br115	Br	1.130370	0.045132	0.157639
Br116	Br	1.630370	0.545132	0.657639
Br117	Br	1.711031	-0.014213	0.191648
Br118	Br	2.211031	0.485787	0.691648
Br119	Br	0.886204	0.331543	-0.157429
Br120	Br	1.386204	0.831543	0.342571
Br121	Br	1.797716	-0.451720	0.000114
Br122	Br	2.297716	0.048280	0.500114
Br123	Br	1.305881	0.390784	0.808385
Br124	Br	1.805881	0.890784	1.308385
Br125	Br	1.218970	-0.172133	0.000098
Br126	Br	1.718970	0.327867	0.500098
H127	H	1.394502	-0.377709	-0.120598
H128	H	1.894502	0.122291	0.379402
