data_functionalizedCrystal
_audit_creation_method	'MofGen! by Chris Wilmer'
_symmetry_space_group_name_H-M	'P1'
_symmetry_Int_Tables_number	1
_symmetry_cell_setting	triclinic
loop_
_symmetry_equiv_pos_as_xyz
  x,y,z
_cell_length_a	10.654541
_cell_length_b	15.944564
_cell_length_c	9.730217
_cell_angle_alpha	90.003998
_cell_angle_beta	89.999791
_cell_angle_gamma	96.006069
loop_
_atom_site_label
_atom_site_type_symbol
_atom_site_fract_x
_atom_site_fract_y
_atom_site_fract_z
O1	O	1.666321	-0.117964	-0.114252
O2	O	2.166321	0.382036	0.385748
O3	O	1.300697	-0.129206	-0.114264
O4	O	1.800697	0.370794	0.385736
O5	O	1.493485	-0.001369	-0.114245
O6	O	1.993485	0.498631	0.385755
O7	O	1.473533	-0.245802	-0.114272
O8	O	1.973533	0.254198	0.385728
O9	O	1.493478	-0.001369	0.114335
O10	O	1.993478	0.498631	0.614335
O11	O	1.300690	-0.129206	0.114316
O12	O	1.800690	0.370794	0.614316
O13	O	1.666314	-0.117964	0.114328
O14	O	2.166314	0.382036	0.614328
Zn15	Zn	1.483501	-0.123585	0.150614
Zn16	Zn	1.983501	0.376415	0.650614
Zn17	Zn	1.483510	-0.123585	-0.150550
Zn18	Zn	1.983510	0.376415	0.349450
O19	O	1.473526	-0.245802	0.114308
O20	O	1.973526	0.254198	0.614308
C21	C	1.253906	-0.128381	0.000024
C22	C	1.753906	0.371619	0.500024
C23	C	1.114494	-0.125913	0.000020
C24	C	1.614494	0.374087	0.500020
C25	C	1.492650	0.029930	0.000046
C26	C	1.992650	0.529930	0.500046
C27	C	1.490159	0.123190	0.000047
C28	C	1.990159	0.623190	0.500047
C29	C	1.084556	-0.278777	-0.000014
C30	C	1.584556	0.221223	0.499986
C31	C	1.004093	-0.354046	-0.000036
C32	C	1.504093	0.145954	0.499964
C33	C	0.873105	-0.351722	-0.000038
C34	C	1.373105	0.148278	0.499962
C35	C	0.822578	-0.274120	-0.000012
C36	C	1.322578	0.225880	0.499988
C37	C	0.903041	-0.198851	0.000010
C38	C	1.403041	0.301149	0.500010
C39	C	1.034031	-0.201184	0.000007
C40	C	1.534031	0.298816	0.500007
C41	C	0.932979	-0.045989	0.000054
C42	C	1.432979	0.454011	0.500054
C43	C	1.063968	-0.048311	0.000046
C44	C	1.563968	0.451689	0.500046
C45	C	0.882453	0.031613	0.000080
C46	C	1.382453	0.531613	0.500080
C47	C	0.962916	0.106884	0.000092
C48	C	1.462916	0.606884	0.500092
C49	C	1.093912	0.104556	0.000092
C50	C	1.593912	0.604556	0.500092
C51	C	1.144431	0.026958	0.000068
C52	C	1.644431	0.526958	0.500068
C53	C	1.364699	0.338771	0.000025
C54	C	1.864699	0.838771	0.500025
C55	C	1.422944	0.399451	0.112732
C56	C	1.922944	0.899451	0.612732
C57	C	1.485651	0.293941	0.000038
C58	C	1.985651	0.793941	0.500038
C59	C	1.422979	0.399434	-0.112630
C60	C	1.922979	0.899434	0.387370
C61	C	1.481288	0.458878	0.000022
C62	C	1.981288	0.958878	0.500022
C63	C	1.543929	0.353392	0.112837
C64	C	2.043929	0.853392	0.612837
C65	C	1.543947	0.353369	-0.112627
C66	C	2.043947	0.853369	0.387373
C67	C	1.602280	0.414031	0.000107
C68	C	2.102280	0.914031	0.500107
C69	C	1.488161	0.198924	0.000048
C70	C	1.988161	0.698924	0.500048
C71	C	1.478787	0.553893	0.000022
C72	C	1.978787	1.053893	0.500022
C73	C	1.713105	-0.118789	0.000037
C74	C	2.213105	0.381211	0.500037
C75	C	1.852516	-0.121258	0.000032
C76	C	2.352516	0.378742	0.500032
N77	N	1.483504	-0.123585	0.356151
N78	N	1.983504	0.376415	0.856151
C79	C	1.474343	0.722898	0.000017
C80	C	1.974343	1.222898	0.500017
C81	C	1.476784	0.629634	0.000011
C82	C	1.976784	1.129634	0.500011
C83	C	1.654287	-0.010418	0.356159
C84	C	2.154287	0.489582	0.856159
C85	C	1.739687	0.046163	0.428103
C86	C	2.239687	0.546163	0.928103
C87	C	1.739699	0.046163	0.571982
C88	C	2.239699	0.546163	1.071982
C89	C	1.654300	-0.010423	0.643921
C90	C	2.154300	0.489577	1.143921
C91	C	1.568901	-0.067003	0.571978
C92	C	2.068901	0.432997	1.071978
C93	C	1.568900	-0.066999	0.428094
C94	C	2.068900	0.433001	0.928094
C95	C	1.398114	-0.180165	0.571969
C96	C	1.898114	0.319835	1.071969
C97	C	1.398105	-0.180170	0.428090
C98	C	1.898105	0.319830	0.928090
C99	C	1.312715	-0.236750	0.643909
C100	C	1.812715	0.263250	1.143909
C101	C	1.227319	-0.293336	0.571965
C102	C	1.727319	0.206664	1.071965
C103	C	1.227311	-0.293334	0.428076
C104	C	1.727311	0.206666	0.928076
C105	C	1.312706	-0.236750	0.356146
C106	C	1.812706	0.263250	0.856146
N107	N	1.483513	-0.123584	0.643913
N108	N	1.983513	0.376416	1.143913
H109	H	1.191212	-0.280678	-0.000044
H110	H	1.691212	0.219322	0.499956
Br111	Br	1.203102	0.206714	0.000139
Br112	Br	1.703102	0.706714	0.500139
H113	H	1.654305	-0.010412	0.761076
H114	H	2.154305	0.489588	1.261076
H115	H	1.264308	0.306044	0.000134
H116	H	1.764308	0.806044	0.500134
Br117	Br	0.894339	0.212190	0.000144
Br118	Br	1.394339	0.712190	0.500144
Br119	Br	1.111421	-0.370115	0.669599
Br120	Br	1.611421	0.129885	1.169599
Br121	Br	1.769749	0.468332	0.000209
Br122	Br	2.269749	0.968332	0.500209
H123	H	1.809235	0.092238	0.630559
H124	H	2.309235	0.592238	1.130559
H125	H	1.595064	0.332943	-0.207912
H126	H	2.095064	0.832943	0.292088
Br127	Br	1.312717	-0.236747	0.839176
Br128	Br	1.812717	0.263253	1.339176
Br129	Br	1.337680	0.433458	0.271542
Br130	Br	1.837680	0.933458	0.771542
Br131	Br	1.337682	0.433416	-0.271428
Br132	Br	1.837682	0.933416	0.228572
Br133	Br	1.629127	0.319589	0.271822
Br134	Br	2.129127	0.819589	0.771822
H135	H	1.251086	0.025055	0.000051
H136	H	1.751086	0.525055	0.500051
Br137	Br	1.111394	-0.370120	0.330451
Br138	Br	1.611394	0.129880	0.830451
H139	H	0.715920	-0.272234	0.000004
H140	H	1.215920	0.227766	0.500004
H141	H	1.045246	-0.417228	-0.000054
H142	H	1.545246	0.082772	0.499946
Br143	Br	0.763899	-0.453872	-0.000049
Br144	Br	1.263899	0.046128	0.499951
Br145	Br	1.654299	-0.010426	0.160892
Br146	Br	2.154299	0.489574	0.660892
H147	H	1.312711	-0.236747	0.238991
H148	H	1.812711	0.263253	0.738991
H149	H	1.809216	0.092236	0.369517
H150	H	2.309216	0.592236	0.869517
H151	H	0.775795	0.033501	0.000087
H152	H	1.275795	0.533501	0.500087
