data_functionalizedCrystal
_audit_creation_method	'MofGen! by Chris Wilmer'
_symmetry_space_group_name_H-M	'P1'
_symmetry_Int_Tables_number	1
_symmetry_cell_setting	triclinic
loop_
_symmetry_equiv_pos_as_xyz
  x,y,z
_cell_length_a	19.121063
_cell_length_b	19.121141
_cell_length_c	19.121277
_cell_angle_alpha	90.097536
_cell_angle_beta	85.243870
_cell_angle_gamma	89.873858
loop_
_atom_site_label
_atom_site_type_symbol
_atom_site_fract_x
_atom_site_fract_y
_atom_site_fract_z
Zn1	Zn	-0.343639	-1.039487	0.456076
Zn2	Zn	-0.456253	-1.039423	0.343422
Zn3	Zn	-0.333617	-0.927725	0.333449
Zn4	Zn	-0.455808	-0.917234	0.455601
O5	O	-0.397329	-0.980967	0.397137
O6	O	-0.362957	-1.137389	0.445504
O7	O	-0.435978	-1.028970	0.243832
O8	O	-0.236680	-0.946968	0.345740
O9	O	-0.445695	-1.137341	0.362738
O10	O	-0.244043	-1.029079	0.435833
O11	O	-0.345878	-0.946905	0.236505
O12	O	-0.345446	-0.828423	0.345281
O13	O	-0.444936	-0.929087	0.553931
O14	O	-0.435218	-0.820716	0.435025
O15	O	-0.362525	-1.018907	0.554280
O16	O	-0.554460	-1.018797	0.362278
O17	O	-0.554133	-0.929025	0.444696
C18	C	-0.389197	-0.799182	0.389020
C19	C	-0.385736	-0.721413	0.385564
C20	C	-0.430914	-0.680882	0.430599
C21	C	-0.427653	-0.607809	0.427355
C22	C	-0.379216	-0.575268	0.379073
C23	C	-0.334032	-0.615805	0.334037
C24	C	-0.337291	-0.688876	0.337285
C25	C	-0.367032	-0.354840	0.366937
C26	C	-0.363778	-0.281763	0.363691
C27	C	-0.457398	-0.273772	0.457011
C28	C	-0.460655	-0.346845	0.460251
C29	C	-0.415469	-0.387375	0.415217
C30	C	-0.375882	-0.500576	0.375755
C31	C	-0.418800	-0.462066	0.418539
C32	C	-0.579778	-0.972784	0.404534
C33	C	-0.657834	-0.969346	0.407725
C34	C	-0.694655	-1.014503	0.366352
C35	C	-0.767997	-1.011274	0.369358
C36	C	-0.804517	-0.962883	0.413732
C37	C	-0.767691	-0.917724	0.455110
C38	C	-0.694350	-0.920957	0.452108
C39	C	-1.025951	-0.950784	0.424945
C40	C	-1.099297	-0.947552	0.427942
C41	C	-1.099598	-1.041104	0.342191
C42	C	-1.026256	-1.044330	0.339190
C43	C	-0.989436	-0.999173	0.380570
C44	C	-0.879484	-0.959579	0.416804
C45	C	-0.914471	-1.002481	0.377502
C46	C	-0.214170	-0.989201	0.389727
C47	C	-0.136118	-0.992710	0.386570
C48	C	-0.404799	-0.972834	0.580297
C49	C	-0.407982	-0.969368	0.658349
C50	C	-0.405490	-0.163462	0.405278
C51	C	-0.408957	-0.241232	0.408726
C52	C	-0.366573	-1.014502	0.695201
C53	C	-0.369560	-1.011237	0.768539
C54	C	-0.413961	-0.962841	0.805024
C55	C	-0.455372	-0.917703	0.768167
C56	C	-0.452380	-0.920965	0.694830
C57	C	-0.425138	-0.950649	1.026444
C58	C	-0.428129	-0.947392	1.099786
C59	C	-0.342316	-1.040925	1.100152
C60	C	-0.339331	-1.044186	1.026814
C61	C	-0.380739	-0.999045	0.989964
C62	C	-0.417018	-0.959504	0.879987
C63	C	-0.377678	-1.002379	0.915002
C64	C	-0.389904	-0.989062	1.214689
C65	C	-0.386720	-0.992525	1.136637
H66	H	-0.300498	-0.721876	0.300616
Br67	Br	-0.484532	-0.506229	0.484064
Br68	Br	-0.975991	-0.889499	0.481104
H69	H	-0.491522	-0.878296	0.797879
H70	H	-0.294591	-0.589305	0.294728
H71	H	-0.464287	-0.907980	1.129490
H72	H	-0.464442	-0.574811	0.464026
Br73	Br	-0.305704	-0.409836	0.305823
H74	H	-0.884734	-1.041883	0.341374
Br75	Br	-0.508576	-0.859706	0.644816
Br76	Br	-0.317411	-1.068048	0.865485
H77	H	-1.129585	-1.077869	0.308503
H78	H	-0.336446	-0.474074	0.336443
H79	H	-0.453173	-0.920103	0.909702
Br80	Br	-0.976699	-1.110014	0.278974
H81	H	-0.909227	-0.920178	0.452932
H82	H	-0.470359	-0.707370	0.469913
Br83	Br	-1.148858	-0.881863	0.488157
H84	H	-0.324327	-0.255271	0.324378
Br85	Br	-0.526397	-0.391002	0.525775
H86	H	-0.664925	-1.053905	0.330215
Br87	Br	-0.817967	-1.072566	0.313211
Br88	Br	-0.518721	-0.218764	0.518122
Br89	Br	-0.817253	-0.852055	0.515340
Br90	Br	-0.644378	-0.859674	0.508263
H91	H	-0.330419	-1.053913	0.665500
H92	H	-0.335842	-1.047991	0.798540
H93	H	-0.303177	-1.083596	0.997113
H94	H	-0.308603	-1.077675	1.130164
H95	H	-0.458866	-0.913902	0.996450
