data_functionalizedCrystal
_audit_creation_method	'MofGen! by Chris Wilmer'
_symmetry_space_group_name_H-M	'P1'
_symmetry_Int_Tables_number	1
_symmetry_cell_setting	triclinic
loop_
_symmetry_equiv_pos_as_xyz
  x,y,z
_cell_length_a	10.723024
_cell_length_b	10.723024
_cell_length_c	9.798715
_cell_angle_alpha	89.998022
_cell_angle_beta	89.996609
_cell_angle_gamma	84.467869
loop_
_atom_site_label
_atom_site_type_symbol
_atom_site_fract_x
_atom_site_fract_y
_atom_site_fract_z
O1	O	1.657187	0.175024	-0.113478
O2	O	1.294035	0.191778	-0.113483
O3	O	1.483988	0.001825	-0.113475
O4	O	1.467234	0.364977	-0.113486
O5	O	1.483974	0.001824	0.113507
O6	O	1.294021	0.191777	0.113499
O7	O	1.657173	0.175024	0.113504
Zn8	Zn	1.475595	0.183401	0.149540
Zn9	Zn	1.475613	0.183401	-0.149519
O10	O	1.467220	0.364977	0.113496
C11	C	1.247528	0.190558	0.000008
C12	C	1.108974	0.186911	0.000006
C13	C	1.033991	0.293198	0.000002
C14	C	0.890788	0.289431	0.000001
C15	C	1.482762	-0.044675	0.000014
C16	C	1.479114	-0.183229	0.000009
C17	C	1.585401	-0.258212	0.000009
C18	C	1.581634	-0.401415	0.000004
C19	C	1.703680	0.176243	0.000010
C20	C	1.842234	0.179891	0.000003
C21	C	1.468447	0.411477	0.000004
C22	C	1.472094	0.550031	-0.000000
N23	N	1.475591	0.183399	0.353640
N24	N	1.475627	0.183393	-0.353619
C25	C	1.555347	0.103292	0.421420
C26	C	1.555367	0.103288	0.578582
H27	H	0.906659	0.088896	-0.000002
H28	H	0.826355	0.380421	-0.000008
H29	H	1.679187	-0.216390	0.000018
H30	H	1.623611	0.034707	0.363100
H31	H	1.672624	-0.465848	0.000009
H32	H	1.407345	0.251984	0.588102
H33	H	1.623654	0.034709	0.636870
H34	H	1.381099	-0.385544	0.000010
H35	H	1.407319	0.251975	0.411961
H36	H	1.075814	0.386984	0.000007
H37	H	1.385328	-0.225051	-0.000001
H38	H	1.067152	0.093125	-0.000026
