data_functionalizedCrystal
_audit_creation_method	'MofGen! by Chris Wilmer'
_symmetry_space_group_name_H-M	'P1'
_symmetry_Int_Tables_number	1
_symmetry_cell_setting	triclinic
loop_
_symmetry_equiv_pos_as_xyz
  x,y,z
_cell_length_a	11.792241
_cell_length_b	27.732064
_cell_length_c	10.268362
_cell_angle_alpha	89.998812
_cell_angle_beta	89.999626
_cell_angle_gamma	83.421419
loop_
_atom_site_label
_atom_site_type_symbol
_atom_site_fract_x
_atom_site_fract_y
_atom_site_fract_z
O1	O	1.504799	0.066248	-0.108161
O2	O	1.174240	0.073075	-0.108190
O3	O	1.349776	-0.000675	-0.108180
O4	O	1.329263	0.139998	-0.108171
O5	O	1.349761	-0.000678	0.108421
O6	O	1.174225	0.073072	0.108411
O7	O	1.504784	0.066245	0.108440
Cu8	Cu	1.339503	0.069658	0.128202
Cu9	Cu	1.339521	0.069662	-0.127953
O10	O	1.329248	0.139995	0.108429
C11	C	1.131956	0.072645	0.000106
C12	C	1.005983	0.071361	0.000095
C13	C	0.775346	0.069001	0.000132
C14	C	0.903689	0.070312	0.000111
C15	C	1.349335	-0.018686	0.000116
C16	C	1.348030	-0.072348	0.000104
C17	C	1.235411	-0.450074	0.000089
C18	C	1.240215	-0.248386	0.000088
O19	O	1.152826	-0.217640	0.000028
N20	N	1.344305	-0.228655	0.000097
C21	C	1.447200	-0.259349	0.000098
O22	O	1.535845	-0.237938	0.000092
C23	C	1.442395	-0.461036	0.000090
C24	C	1.338299	-0.480764	0.000094
C25	C	1.131323	-0.469803	0.000092
C26	C	1.130123	-0.520222	0.000099
C27	C	1.233011	-0.550912	0.000104
C28	C	1.337099	-0.531183	0.000101
C29	C	1.545290	-0.491729	0.000081
C30	C	1.544079	-0.542153	0.000076
C31	C	1.439983	-0.561882	0.000080
C32	C	1.438787	-0.612293	0.000113
N33	N	1.334697	-0.632024	0.000104
C34	C	1.231809	-0.601334	0.000100
C35	C	1.449716	-0.153460	0.000105
C36	C	1.450918	-0.103038	0.000109
C37	C	1.243932	-0.092079	0.000097
C38	C	1.242731	-0.142501	0.000102
C39	C	1.345627	-0.173191	0.000095
C40	C	1.229297	-0.707218	0.000116
C41	C	1.228106	-0.757642	0.000129
C42	C	1.435092	-0.768597	0.000135
C43	C	1.436283	-0.718177	0.000129
C44	C	1.333377	-0.687489	0.000115
O45	O	1.526129	-0.643067	0.000158
O46	O	1.143177	-0.622754	0.000077
C47	C	1.236611	-0.399655	0.000082
C48	C	1.340699	-0.379926	0.000079
C49	C	1.443587	-0.410616	0.000084
C50	C	1.341900	-0.329505	0.000083
C51	C	1.239012	-0.298814	0.000079
C52	C	1.134923	-0.318546	0.000070
C53	C	1.133723	-0.368965	0.000077
C54	C	1.547676	-0.390885	0.000093
C55	C	1.548868	-0.340465	0.000087
C56	C	1.445980	-0.309775	0.000082
C57	C	1.547069	0.066675	0.000140
C58	C	1.673041	0.067959	0.000143
C59	C	1.329689	0.158006	0.000130
C60	C	1.330994	0.211668	0.000134
N61	N	1.339499	0.069655	0.308368
N62	N	1.339534	0.069661	-0.308119
C63	C	1.339515	0.069661	0.574039
C64	C	1.339502	0.069659	0.426201
H65	H	1.143335	-0.773702	0.000139
C66	C	1.657268	-0.575912	0.000075
C67	C	1.742810	-0.573498	0.112550
C68	C	1.855998	-0.607256	0.112554
C69	C	1.883643	-0.643427	0.000082
C70	C	1.798099	-0.645842	-0.112402
C71	C	1.684912	-0.612084	-0.112405
H72	H	1.722348	-0.546721	0.195816
H73	H	1.919323	-0.605468	0.195822
H74	H	1.967431	-0.668416	0.000085
H75	H	1.818561	-0.672619	-0.195667
H76	H	1.621586	-0.613872	-0.195674
C77	C	1.562909	-0.187216	0.000114
C78	C	1.590574	-0.223385	-0.112358
C79	C	1.703767	-0.257139	-0.112340
C80	C	1.789294	-0.254723	0.000150
C81	C	1.761631	-0.218553	0.112630
C82	C	1.648438	-0.184799	0.112612
H83	H	1.527260	-0.225174	-0.195637
H84	H	1.724244	-0.283915	-0.195605
H85	H	1.873086	-0.279710	0.000163
H86	H	1.824945	-0.216763	0.195909
H87	H	1.627961	-0.158023	0.195877
C88	C	1.659802	-0.470039	0.000057
C89	C	1.745031	-0.481501	0.112514
C90	C	1.859553	-0.459814	0.112481
C91	C	1.888845	-0.426663	-0.000007
C92	C	1.803614	-0.415199	-0.112473
C93	C	1.689093	-0.436887	-0.112440
H94	H	1.723349	-0.506043	0.195792
H95	H	1.922646	-0.468300	0.195736
H96	H	1.973621	-0.410609	-0.000031
H97	H	1.825296	-0.390658	-0.195751
H98	H	1.625999	-0.428400	-0.195695
H99	H	1.145501	-0.682237	0.000105
C100	C	1.021744	-0.284780	0.000061
C101	C	0.994130	-0.248610	-0.112424
C102	C	0.880958	-0.214842	-0.112441
C103	C	0.795402	-0.217244	0.000027
C104	C	0.823015	-0.253415	0.112520
C105	C	0.936186	-0.287183	0.112537
H106	H	1.057465	-0.246831	-0.195686
H107	H	0.860518	-0.188066	-0.195716
H108	H	0.711626	-0.192247	0.000014
H109	H	0.759679	-0.255194	0.195782
H110	H	0.956626	-0.313960	0.195812
H111	H	1.045357	-0.536280	0.000091
H112	H	1.631462	-0.415868	0.000095
H113	H	1.521047	-0.702114	0.000144
C114	C	1.130752	-0.058314	0.000081
C115	C	1.103144	-0.022144	-0.112403
C116	C	0.989970	0.011623	-0.112430
C117	C	0.904405	0.009219	0.000027
C118	C	0.932011	-0.026953	0.112520
C119	C	1.045184	-0.060720	0.112547
H120	H	1.166486	-0.020363	-0.195658
H121	H	0.969535	0.038400	-0.195705
H122	H	0.820627	0.034215	0.000007
H123	H	0.868668	-0.028734	0.195775
H124	H	1.065619	-0.087497	0.195822
H125	H	1.633642	-0.324408	0.000094
C126	C	1.548263	-0.802363	0.000131
C127	C	1.575896	-0.838539	0.112598
C128	C	1.689067	-0.872307	0.112582
C129	C	1.774605	-0.869899	0.000099
C130	C	1.746975	-0.833722	-0.112376
C131	C	1.633803	-0.799953	-0.112360
H132	H	1.512573	-0.840323	0.195872
H133	H	1.709521	-0.899088	0.195844
H134	H	1.858382	-0.894896	0.000087
H135	H	1.810297	-0.831938	-0.195650
H136	H	1.613350	-0.773173	-0.195622
H137	H	1.047534	-0.444820	0.000084
H138	H	1.157967	-0.158560	0.000110
H139	H	1.535683	-0.086980	0.000126
H140	H	1.048957	-0.385023	0.000082
