data_functionalizedCrystal
_audit_creation_method	'MofGen! by Chris Wilmer'
_symmetry_space_group_name_H-M	'P1'
_symmetry_Int_Tables_number	1
_symmetry_cell_setting	triclinic
loop_
_symmetry_equiv_pos_as_xyz
  x,y,z
_cell_length_a	6.817900
_cell_length_b	17.982959
_cell_length_c	17.078481
_cell_angle_alpha	96.484289
_cell_angle_beta	99.306161
_cell_angle_gamma	102.451857
loop_
_atom_site_label
_atom_site_type_symbol
_atom_site_fract_x
_atom_site_fract_y
_atom_site_fract_z
V1	V	-3.974480	-0.105234	-0.247692
V2	V	-3.474480	0.394766	0.252308
O3	O	-3.968302	0.005240	-0.242636
O4	O	-3.468302	0.505240	0.257364
O5	O	-3.921245	-0.208838	-0.246326
O6	O	-3.421245	0.291162	0.253674
O7	O	-3.905609	-0.103535	-0.355570
O8	O	-3.405609	0.396465	0.144430
O9	O	-3.984046	-0.100792	-0.132636
O10	O	-3.484046	0.399208	0.367364
V11	V	-4.461387	-0.092030	-0.233891
V12	V	-3.961387	0.407970	0.266109
O13	O	-4.228316	-0.134200	-0.277967
O14	O	-3.728316	0.365800	0.222033
O15	O	-4.657750	-0.063065	-0.203616
O16	O	-4.157750	0.436935	0.296384
O17	O	-4.291416	0.011574	-0.235257
O18	O	-3.791416	0.511574	0.264743
O19	O	-4.584963	-0.202504	-0.238947
O20	O	-4.084963	0.297496	0.261053
O21	O	-4.569219	-0.096473	-0.348947
O22	O	-4.069219	0.403527	0.151053
O23	O	-4.307052	-0.093729	-0.126013
O24	O	-3.807052	0.406271	0.373987
C25	C	-3.765732	-0.234097	-0.242503
C26	C	-3.265732	0.265903	0.257497
C27	C	-3.803356	-0.318794	-0.242105
C28	C	-3.303356	0.181206	0.257895
C29	C	-3.745786	-0.099772	-0.381854
C30	C	-3.245786	0.400228	0.118146
C31	C	-3.770728	-0.099068	-0.470046
C32	C	-3.270728	0.400932	0.029954
C33	C	-4.002196	-0.362462	-0.245888
C34	C	-3.502196	0.137538	0.254112
C35	C	-4.037538	-0.442045	-0.245519
C36	C	-3.537538	0.057955	0.254481
C37	C	-3.874035	-0.477956	-0.241361
C38	C	-3.374035	0.022044	0.258639
C39	C	-3.675180	-0.434282	-0.237581
C40	C	-3.175180	0.065718	0.262419
C41	C	-3.639843	-0.354702	-0.237956
C42	C	-3.139843	0.145298	0.262044
C43	C	-3.817687	-0.755219	-0.236070
C44	C	-3.317687	-0.255219	0.263930
C45	C	-3.853040	-0.834804	-0.235693
C46	C	-3.353040	-0.334804	0.264307
C47	C	-4.215382	-0.842561	-0.243633
C48	C	-3.715382	-0.342561	0.256367
C49	C	-4.180045	-0.762981	-0.244007
C50	C	-3.680045	-0.262981	0.255993
C51	C	-3.981196	-0.719315	-0.240231
C52	C	-3.481196	-0.219315	0.259769
C53	C	-3.942877	-0.633023	-0.240633
C54	C	-3.442877	-0.133023	0.259367
C55	C	-3.912350	-0.564246	-0.240954
C56	C	-3.412350	-0.064246	0.259046
C57	C	-3.963600	-0.102541	-0.515533
C58	C	-3.463600	0.397459	-0.015533
C59	C	-3.987024	-0.101879	-0.598399
C60	C	-3.487024	0.398121	-0.098399
C61	C	-3.817575	-0.097751	-0.635778
C62	C	-3.317575	0.402249	-0.135778
C63	C	-3.624686	-0.094275	-0.590285
C64	C	-3.124686	0.405725	-0.090285
C65	C	-3.601263	-0.094931	-0.507419
C66	C	-3.101263	0.405069	-0.007419
C67	C	-3.868202	-0.095376	-0.883173
C68	C	-3.368202	0.404624	-0.383173
C69	C	-3.891643	-0.094722	-0.966045
C70	C	-3.391643	0.405278	-0.466045
C71	C	-4.253979	-0.102325	-0.974154
C72	C	-3.753979	0.397675	-0.474154
C73	C	-4.230540	-0.102985	-0.891287
C74	C	-3.730540	0.397015	-0.391287
C75	C	-4.037652	-0.099506	-0.845801
C76	C	-3.537652	0.400494	-0.345801
N77	N	-3.841515	-0.097077	-0.720480
N78	N	-3.341515	0.402923	-0.220480
N79	N	-4.013713	-0.100174	-0.761099
N80	N	-3.513713	0.399826	-0.261099
C81	C	-4.110271	0.036829	-0.239078
C82	C	-3.610271	0.536829	0.260922
C83	C	-4.051884	0.121525	-0.239481
C84	C	-3.551884	0.621525	0.260519
C85	C	-4.130218	-0.097495	-0.099725
C86	C	-3.630218	0.402505	0.400275
C87	C	-4.084515	-0.098195	-0.011532
C88	C	-3.584515	0.401805	0.488468
H89	H	-4.135341	-0.333228	-0.249266
H90	H	-3.635341	0.166772	0.250734
F91	F	-3.679007	-0.873022	-0.231268
F92	F	-3.179007	-0.373022	0.268732
H93	H	-3.477931	-0.319149	-0.234879
H94	H	-2.977931	0.180851	0.265121
H95	H	-4.377299	-0.878124	-0.246709
H96	H	-3.877299	-0.378124	0.253291
H97	H	-4.199450	-0.477597	-0.248600
H98	H	-3.699450	0.022403	0.251400
F99	F	-3.711281	-0.090327	-1.005825
F100	F	-3.211281	0.409673	-0.505825
H101	H	-3.486718	-0.090909	-0.620724
H102	H	-2.986718	0.409091	-0.120724
F103	F	-3.395980	-0.091230	-0.459008
F104	F	-2.895980	0.408770	0.040992
H105	H	-4.313188	-0.733746	-0.247389
H106	H	-3.813188	-0.233746	0.252611
F107	F	-3.606057	-0.708755	-0.232046
F108	F	-3.106057	-0.208755	0.267954
H109	H	-3.542058	-0.463528	-0.234201
H110	H	-3.042058	0.036472	0.265799
H111	H	-4.101591	-0.105908	-0.485106
H112	H	-3.601591	0.394092	0.014894
F113	F	-4.192308	-0.105583	-0.646807
F114	F	-3.692308	0.394417	-0.146807
H115	H	-4.368527	-0.106346	-0.860859
H116	H	-3.868527	0.393654	-0.360859
F117	F	-4.459251	-0.106025	-1.022569
F118	F	-3.959251	0.393975	-0.522569
H119	H	-3.711158	-0.092570	-0.846153
H120	H	-3.211158	0.407430	-0.346153
