data_functionalizedCrystal
_audit_creation_method	'MofGen! by Chris Wilmer'
_symmetry_space_group_name_H-M	'P1'
_symmetry_Int_Tables_number	1
_symmetry_cell_setting	triclinic
loop_
_symmetry_equiv_pos_as_xyz
  x,y,z
_cell_length_a	19.121241
_cell_length_b	29.839131
_cell_length_c	19.120915
_cell_angle_alpha	92.398903
_cell_angle_beta	89.877787
_cell_angle_gamma	92.469032
loop_
_atom_site_label
_atom_site_type_symbol
_atom_site_fract_x
_atom_site_fract_y
_atom_site_fract_z
Zn1	Zn	1.054809	-0.162191	-0.442143
Zn2	Zn	1.059714	-0.233989	-0.324885
Zn3	Zn	0.942580	-0.161928	-0.319913
Zn4	Zn	0.937517	-0.240351	-0.437069
O5	O	0.998655	-0.199615	-0.381003
O6	O	1.153567	-0.169163	-0.430793
O7	O	1.048348	-0.221658	-0.226122
O8	O	0.957533	-0.099095	-0.336170
O9	O	1.157171	-0.221913	-0.344643
O10	O	1.039987	-0.099289	-0.425972
O11	O	0.962290	-0.168715	-0.222470
O12	O	0.843800	-0.174883	-0.331250
O13	O	0.948904	-0.232755	-0.535846
O14	O	0.840080	-0.232500	-0.417324
O15	O	1.035078	-0.175331	-0.539574
O16	O	1.043438	-0.297701	-0.339723
O17	O	0.953660	-0.302374	-0.422145
C18	C	0.816502	-0.204354	-0.373198
C19	C	0.738575	-0.206392	-0.369875
C20	C	0.700087	-0.179933	-0.413236
C21	C	0.626867	-0.181847	-0.410108
C22	C	0.592137	-0.210221	-0.363623
C23	C	0.630631	-0.236681	-0.320257
C24	C	0.703849	-0.234765	-0.323382
C25	C	0.371157	-0.217375	-0.351937
C26	C	0.297933	-0.219290	-0.348817
C27	C	0.294175	-0.164454	-0.438668
C28	C	0.367395	-0.162543	-0.441791
C29	C	0.405882	-0.189001	-0.398423
C30	C	0.517294	-0.212178	-0.360426
C31	C	0.480724	-0.187041	-0.401617
C32	C	0.998550	-0.316339	-0.380939
C33	C	0.998569	-0.366272	-0.380938
C34	C	1.041576	-0.675983	-0.427826
C35	C	1.041650	-0.863655	-0.427871
O36	O	1.078114	-0.887979	-0.467689
N37	N	0.998771	-0.887056	-0.381086
C38	C	0.955866	-0.863536	-0.334288
O39	O	0.919390	-0.887746	-0.294500
C40	C	0.955788	-0.675865	-0.334247
C41	C	0.998676	-0.652466	-0.381031
C42	C	1.084460	-0.652584	-0.474607
C43	C	1.084444	-0.605669	-0.474592
C44	C	1.041544	-0.582152	-0.427797
C45	C	0.998660	-0.605551	-0.381016
C46	C	0.912880	-0.652346	-0.287453
C47	C	0.912863	-0.605425	-0.287448
C48	C	0.955751	-0.582027	-0.334232
C49	C	0.955744	-0.535119	-0.334207
N50	N	0.998624	-0.511718	-0.380993
C51	C	1.041524	-0.535235	-0.427788
C52	C	0.955910	-0.962066	-0.334312
C53	C	0.955931	-1.008984	-0.334322
C54	C	1.041714	-1.009100	-0.427906
C55	C	1.041697	-0.962181	-0.427893
C56	C	0.998790	-0.938665	-0.381098
C57	C	1.041487	-0.436709	-0.427754
C58	C	1.041469	-0.389789	-0.427733
C59	C	0.955683	-0.389678	-0.334152
C60	C	0.955703	-0.436593	-0.334169
C61	C	0.998607	-0.460108	-0.380976
O62	O	0.919294	-0.510767	-0.294416
O63	O	1.077982	-0.511017	-0.467581
C64	C	1.041592	-0.722898	-0.427840
C65	C	0.998708	-0.746297	-0.381060
C66	C	0.955808	-0.722780	-0.334264
C67	C	0.998729	-0.793215	-0.381069
C68	C	1.041629	-0.816731	-0.427864
C69	C	1.084508	-0.793331	-0.474650
C70	C	1.084492	-0.746415	-0.474636
C71	C	0.912929	-0.746181	-0.287479
C72	C	0.912949	-0.793096	-0.287496
C73	C	0.955849	-0.816613	-0.334292
C74	C	1.181519	-0.194858	-0.388839
C75	C	1.259445	-0.192831	-0.392178
C76	C	0.990879	-0.204782	-0.563858
C77	C	0.987565	-0.206984	-0.641780
C78	C	0.998778	-0.082435	-0.381083
C79	C	0.998831	-0.032500	-0.381117
C80	C	0.966580	-0.220962	-1.082394
C81	C	0.969691	-0.218886	-1.009178
C82	C	1.016116	-0.187954	-0.974514
C83	C	1.059428	-0.159092	-1.013071
C84	C	1.056313	-0.161165	-1.086285
C85	C	1.027762	-0.180195	-0.753551
C86	C	1.030875	-0.178125	-0.680331
C87	C	0.941137	-0.237919	-0.676443
C88	C	0.938029	-0.239992	-0.749659
C89	C	0.981339	-0.211128	-0.788209
C90	C	1.019298	-0.185832	-0.899676
C91	C	0.978152	-0.213247	-0.863046
C92	C	1.006441	-0.194435	-0.198861
C93	C	1.009890	-0.192103	-0.120945
H94	H	0.402485	-0.238919	-0.316624
H95	H	0.595532	-0.160302	-0.445419
F96	F	1.080291	-0.145202	-0.643441
F97	F	0.917171	-0.253886	-1.119279
H98	H	0.920786	-0.455645	-0.296069
H99	H	0.602348	-0.259782	-0.282404
F100	F	0.888624	-0.272918	-0.786546
F101	F	0.480325	-0.242376	-0.310955
F102	F	1.087343	-0.937283	-0.477687
F103	F	0.895045	-0.268634	-0.635411
F104	F	1.108823	-0.126162	-0.976177
F105	F	1.073885	-0.149494	-0.794570
F106	F	0.404352	-0.132346	-0.491271
H107	H	1.091578	-0.137664	-1.117673
H108	H	0.262830	-0.142913	-0.473975
F109	F	1.087372	-1.034136	-0.477709
H110	H	0.877921	-0.586281	-0.249343
F111	F	0.910237	-0.937045	-0.284506
H112	H	1.076396	-0.370739	-0.465830
F113	F	1.087151	-0.461728	-0.477570
F114	F	1.068691	-0.152903	-0.862777
H115	H	0.934431	-0.242391	-0.977793
H116	H	1.119364	-0.586621	-0.512690
H117	H	0.940350	-0.238430	-0.891272
H118	H	0.728359	-0.156829	-0.451092
H119	H	0.877993	-0.727037	-0.249373
F120	F	0.260972	-0.249500	-0.299351
H121	H	0.509004	-0.163937	-0.439462
F122	F	0.744812	-0.262926	-0.277231
H123	H	1.119394	-0.671727	-0.512717
F124	F	0.910293	-1.033881	-0.284519
H125	H	0.877956	-0.671389	-0.249357
F126	F	0.910029	-0.364641	-0.284351
H127	H	1.119415	-0.727367	-0.512732
H128	H	0.878026	-0.812143	-0.249393
F129	F	1.130168	-0.818367	-0.524451
