data_functionalizedCrystal
_audit_creation_method	'MofGen! by Chris Wilmer'
_symmetry_space_group_name_H-M	'P1'
_symmetry_Int_Tables_number	1
_symmetry_cell_setting	triclinic
loop_
_symmetry_equiv_pos_as_xyz
  x,y,z
_cell_length_a	15.944551
_cell_length_b	15.944551
_cell_length_c	15.021413
_cell_angle_alpha	89.996935
_cell_angle_beta	89.997174
_cell_angle_gamma	96.501262
loop_
_atom_site_label
_atom_site_type_symbol
_atom_site_fract_x
_atom_site_fract_y
_atom_site_fract_z
O1	O	1.114529	-0.108321	-0.073941
O2	O	1.614529	0.391679	0.426059
O3	O	0.869979	-0.121677	-0.073964
O4	O	1.369979	0.378323	0.426036
O5	O	0.998932	0.007276	-0.073944
O6	O	1.498932	0.507276	0.426056
O7	O	0.985576	-0.237274	-0.073961
O8	O	1.485576	0.262726	0.426039
O9	O	0.998912	0.007257	0.074121
O10	O	1.498912	0.507257	0.574121
O11	O	0.869959	-0.121695	0.074101
O12	O	1.369959	0.378305	0.574101
O13	O	1.114508	-0.108339	0.074123
O14	O	1.614508	0.391661	0.574123
Zn15	Zn	0.992230	-0.115020	0.097620
Zn16	Zn	1.492230	0.384980	0.597620
Zn17	Zn	0.992257	-0.114996	-0.097461
Zn18	Zn	1.492257	0.385004	0.402539
O19	O	0.985555	-0.237292	0.074103
O20	O	1.485555	0.262708	0.574103
C21	C	0.838675	-0.121132	0.000066
C22	C	1.338675	0.378868	0.500066
C23	C	0.745429	-0.119470	0.000057
C24	C	1.245429	0.380530	0.500057
C25	C	0.530572	-0.035565	0.000081
C26	C	1.030572	0.464435	0.500081
C27	C	0.469562	-0.074518	-0.072926
C28	C	0.969562	0.425482	0.427074
C29	C	0.574703	-0.116462	0.000068
C30	C	1.074703	0.383538	0.500068
C31	C	0.469564	-0.074556	0.073054
C32	C	0.969564	0.425444	0.573054
C33	C	0.409790	-0.113551	0.000083
C34	C	0.909790	0.386449	0.500083
C35	C	0.514921	-0.155438	-0.072998
C36	C	1.014921	0.344562	0.427002
C37	C	0.514930	-0.155464	0.073047
C38	C	1.014930	0.344536	0.573047
C39	C	0.453937	-0.194476	0.000023
C40	C	0.953937	0.305524	0.500023
C41	C	0.669705	-0.118137	0.000059
C42	C	1.169705	0.381863	0.500059
C43	C	0.314789	-0.111883	0.000085
C44	C	0.814789	0.388117	0.500085
C45	C	0.998367	0.038561	0.000089
C46	C	1.498367	0.538561	0.500089
C47	C	0.996705	0.131807	0.000089
C48	C	1.496705	0.631807	0.500089
C49	C	1.145813	-0.108885	0.000092
C50	C	1.645813	0.391115	0.500092
C51	C	1.239059	-0.110547	0.000094
C52	C	1.739059	0.389453	0.500094
C53	C	0.986120	-0.268577	0.000069
C54	C	1.486120	0.231423	0.500069
C55	C	0.987782	-0.361823	0.000063
C56	C	1.487782	0.138177	0.500063
N57	N	0.992218	-0.115036	0.230758
N58	N	1.492218	0.384964	0.730758
C59	C	0.912801	0.346663	0.000069
C60	C	1.412801	0.846663	0.500069
C61	C	0.951753	0.407672	0.073077
C62	C	1.451753	0.907672	0.573077
C63	C	0.993698	0.302533	0.000082
C64	C	1.493698	0.802533	0.500082
C65	C	0.951792	0.407673	-0.072903
C66	C	1.451792	0.907673	0.427097
C67	C	0.990787	0.467445	0.000071
C68	C	1.490787	0.967445	0.500071
C69	C	1.032672	0.362313	0.073150
C70	C	1.532672	0.862313	0.573150
C71	C	1.032700	0.362308	-0.072895
C72	C	1.532700	0.862308	0.427105
C73	C	1.071711	0.423298	0.000131
C74	C	1.571711	0.923298	0.500131
C75	C	0.995372	0.207530	0.000089
C76	C	1.495372	0.707530	0.500089
C77	C	0.989119	0.562446	0.000070
C78	C	1.489119	1.062446	0.500070
N79	N	0.992276	-0.114973	-0.230598
N80	N	1.492276	0.385027	0.269402
C81	C	0.932581	-0.174636	0.470432
C82	C	1.432581	0.325364	0.970432
C83	C	1.008481	-0.190943	0.529772
C84	C	1.508481	0.309057	1.029772
C85	C	0.992239	-0.115015	0.412365
C86	C	1.492239	0.384985	0.912365
C87	C	0.916360	-0.098727	0.529766
C88	C	1.416360	0.401273	1.029766
C89	C	0.992253	-0.114997	0.587789
C90	C	1.492253	0.385003	1.087789
C91	C	1.068178	-0.131360	0.470398
C92	C	1.568178	0.368640	0.970398
C93	C	0.976006	-0.039111	0.470387
C94	C	1.476006	0.460889	0.970387
C95	C	1.051962	-0.055386	0.529701
C96	C	1.551962	0.444614	1.029701
C97	C	0.992230	-0.115028	0.311307
C98	C	1.492230	0.384972	0.811307
C99	C	0.992271	-0.114984	0.688844
C100	C	1.492271	0.385016	1.188844
H101	H	0.449461	-0.040295	-0.134642
H102	H	0.949461	0.459705	0.365358
H103	H	0.852184	-0.084959	0.555847
H104	H	1.352184	0.415041	1.055847
H105	H	0.563905	0.031573	-0.000005
H106	H	1.063905	0.531573	0.499995
H107	H	1.132368	-0.145206	0.444430
H108	H	1.632368	0.354794	0.944430
C109	C	0.905568	0.434816	-0.156284
C110	C	1.405568	0.934816	0.343716
H111	H	0.849124	0.408299	-0.156194
H112	H	1.349124	0.908299	0.343806
H113	H	0.905290	0.494360	-0.155979
H114	H	1.405290	0.994360	0.344021
H115	H	0.933766	0.418514	-0.208122
H116	H	1.433766	0.918514	0.291878
H117	H	1.066851	0.342314	0.134941
H118	H	1.566851	0.842314	0.634941
C119	C	0.541925	-0.201633	-0.156459
C120	C	1.041925	0.298367	0.343541
H121	H	0.601417	-0.202385	-0.155966
H122	H	1.101417	0.297615	0.344034
H123	H	0.514988	-0.257910	-0.156652
H124	H	1.014988	0.242090	0.343348
H125	H	0.526042	-0.173093	-0.208249
H126	H	1.026042	0.326907	0.291751
H127	H	0.962240	0.025051	0.444283
H128	H	1.462240	0.525051	0.944283
H129	H	1.022224	-0.255126	0.555856
H130	H	1.522224	0.244874	1.055856
C131	C	1.120194	0.012737	0.564646
C132	C	1.620194	0.512737	1.064646
H133	H	1.174044	0.001032	0.544208
H134	H	1.674044	0.501032	1.044208
H135	H	1.109116	0.066513	0.543414
H136	H	1.609116	0.566513	1.043414
H137	H	1.119527	0.012679	0.627886
H138	H	1.619527	0.512679	1.127886
H139	H	0.420779	-0.261683	-0.000023
H140	H	0.920779	0.238317	0.499977
C141	C	0.864500	-0.242798	0.435263
C142	C	1.364500	0.257202	0.935263
H143	H	0.876182	-0.296690	0.455597
H144	H	1.376182	0.203310	0.955597
H145	H	0.810699	-0.231766	0.456461
H146	H	1.310699	0.268234	0.956461
H147	H	0.864634	-0.242001	0.372026
H148	H	1.364634	0.257999	0.872026
H149	H	1.066896	0.342185	-0.134615
H150	H	1.566896	0.842185	0.365385
H151	H	0.535052	-0.189659	0.134767
H152	H	1.035052	0.310341	0.634767
H153	H	0.449470	-0.040332	0.134773
H154	H	0.949470	0.459668	0.634773
H155	H	0.917528	0.427772	0.134794
H156	H	1.417528	0.927772	0.634794
C157	C	0.822095	0.301661	0.000156
C158	C	1.322095	0.801661	0.500156
H159	H	0.793480	0.317077	0.052091
H160	H	1.293480	0.817077	0.552091
H161	H	0.793075	0.317839	-0.051181
H162	H	1.293075	0.817839	0.448819
H163	H	0.823775	0.242295	-0.000367
H164	H	1.323775	0.742295	0.499633
C165	C	1.162496	0.468102	0.000194
C166	C	1.662496	0.968102	0.500194
H167	H	1.191087	0.452584	0.052102
H168	H	1.691087	0.952584	0.552102
H169	H	1.191453	0.451885	-0.051171
H170	H	1.691453	0.951885	0.448829
H171	H	1.160954	0.527488	-0.000291
H172	H	1.660954	1.027488	0.499709
