data_functionalizedCrystal
_audit_creation_method	'MofGen! by Chris Wilmer'
_symmetry_space_group_name_H-M	'P1'
_symmetry_Int_Tables_number	1
_symmetry_cell_setting	triclinic
loop_
_symmetry_equiv_pos_as_xyz
  x,y,z
_cell_length_a	12.759394
_cell_length_b	12.759401
_cell_length_c	12.759393
_cell_angle_alpha	90.019465
_cell_angle_beta	89.967655
_cell_angle_gamma	89.986954
loop_
_atom_site_label
_atom_site_type_symbol
_atom_site_fract_x
_atom_site_fract_y
_atom_site_fract_z
Zn1	Zn	-0.418254	-1.606254	-0.594004
Zn2	Zn	-0.593973	-1.606148	-0.418322
Zn3	Zn	-0.418303	-1.430556	-0.418341
Zn4	Zn	-0.593886	-1.430544	-0.593961
O5	O	-0.506104	-1.518376	-0.506157
O6	O	-0.441580	-1.753261	-0.570710
O7	O	-0.570727	-1.582816	-0.271304
O8	O	-0.271276	-1.453912	-0.441669
O9	O	-0.570680	-1.753183	-0.441637
O10	O	-0.271240	-1.582997	-0.570728
O11	O	-0.441663	-1.453809	-0.271317
O12	O	-0.441579	-1.283533	-0.441626
O13	O	-0.570531	-1.453892	-0.740988
O14	O	-0.570579	-1.283525	-0.570654
O15	O	-0.441495	-1.582985	-0.741020
O16	O	-0.740983	-1.582804	-0.441595
O17	O	-0.740919	-1.453789	-0.570636
C18	C	-0.506076	-1.245408	-0.506138
C19	C	-0.506089	-1.128632	-0.506155
C20	C	-0.438986	-1.073811	-0.573466
C21	C	-0.438992	-0.964087	-0.573471
C22	C	-0.573214	-0.964014	-0.438851
C23	C	-0.573201	-1.073736	-0.438841
C24	C	-0.315148	-0.814167	-0.611239
C25	C	-0.248054	-0.759342	-0.678566
C26	C	-0.232041	-0.794999	-0.781105
C27	C	-0.283137	-0.885478	-0.816338
C28	C	-0.350238	-0.940297	-0.749016
C29	C	-0.366232	-0.904642	-0.646462
C30	C	-0.697047	-1.223658	-0.401085
C31	C	-0.764154	-1.278479	-0.333767
C32	C	-0.780178	-1.242824	-0.231226
C33	C	-0.729101	-1.152341	-0.195997
C34	C	-0.661993	-1.097521	-0.263315
C35	C	-0.645968	-1.133183	-0.365855
C36	C	-0.779072	-1.518312	-0.506132
C37	C	-0.895848	-1.518382	-0.506156
C38	C	-0.895862	-1.652826	-0.371886
C39	C	-0.950729	-1.720076	-0.304764
C40	C	-1.060451	-1.720137	-0.304793
C41	C	-1.115307	-1.652944	-0.371953
C42	C	-1.060440	-1.585695	-0.439075
C43	C	-0.950716	-1.585638	-0.439037
C44	C	-1.060427	-1.451257	-0.573348
C45	C	-0.950705	-1.451188	-0.573316
C46	C	-1.115283	-1.384064	-0.640509
C47	C	-1.060416	-1.316807	-0.707628
C48	C	-0.950688	-1.316748	-0.707595
C49	C	-0.895838	-1.383939	-0.640439
C50	C	-0.232071	-1.518467	-0.506205
C51	C	-0.115294	-1.518507	-0.506226
C52	C	-0.505998	-1.518449	-0.780190
C53	C	-0.505953	-1.518480	-0.896967
C54	C	-0.506124	-0.792409	-0.506173
C55	C	-0.506108	-0.909185	-0.506170
C56	C	-0.438737	-1.451331	-0.951836
C57	C	-0.438705	-1.451355	-1.061560
C58	C	-0.573107	-1.585688	-1.061537
C59	C	-0.573144	-1.585657	-0.951815
C60	C	-0.401101	-1.327505	-1.211511
C61	C	-0.333868	-1.260364	-1.266383
C62	C	-0.231364	-1.244260	-1.230795
C63	C	-0.196071	-1.295312	-1.140336
C64	C	-0.263297	-1.362460	-1.085469
C65	C	-0.365816	-1.378544	-1.121056
C66	C	-0.610737	-1.709509	-0.801862
C67	C	-0.677959	-1.776663	-0.746993
C68	C	-0.780465	-1.792778	-0.782579
C69	C	-0.815755	-1.741745	-0.873042
C70	C	-0.748533	-1.674590	-0.927910
C71	C	-0.646027	-1.658474	-0.892317
C72	C	-0.506134	-1.518363	-0.233190
C73	C	-0.505884	-1.518535	-0.116413
H74	H	-0.270102	-0.914496	-0.899840
H75	H	-1.105124	-1.774903	-0.250141
H76	H	-1.204648	-1.653010	-0.371979
F77	F	-0.892340	-1.791588	-0.233295
H78	H	-0.649213	-1.818228	-0.673342
F79	F	-0.160638	-0.736644	-0.852760
F80	F	-0.892302	-1.245175	-0.779043
H81	H	-0.835193	-1.847471	-0.737901
H82	H	-0.328169	-0.785134	-0.527739
H83	H	-1.105089	-1.262109	-0.762309
F84	F	-0.501643	-1.692345	-0.763968
F85	F	-1.232058	-1.383783	-0.640189
H86	H	-0.806497	-1.383890	-0.640399
F87	F	-0.818521	-1.374776	-0.371267
F88	F	-0.225742	-1.416792	-0.989203
F89	F	-0.924852	-1.758900	-0.910923
F90	F	-0.193691	-0.663040	-0.641072
H91	H	-0.384026	-1.396630	-0.907182
F92	F	-0.086964	-1.278182	-1.102476
H93	H	-0.176623	-1.189593	-1.275480
H94	H	-0.362614	-1.218798	-1.340036
H95	H	-0.627855	-0.919305	-0.384048
H96	H	-0.683996	-1.252703	-0.484580
F97	F	-0.607608	-1.001236	-0.225808
H98	H	-0.484572	-1.340598	-1.240488
H99	H	-0.806521	-1.652769	-0.371843
H100	H	-0.627811	-1.640382	-1.106208
F101	F	-0.786093	-1.620276	-1.024190
H102	H	-0.834853	-1.287450	-0.176429
F103	F	-0.404617	-1.036585	-0.786507
F104	F	-0.367556	-1.132231	-0.645103
H105	H	-0.742154	-1.123307	-0.112502
