data_functionalizedCrystal
_audit_creation_method	'MofGen! by Chris Wilmer'
_symmetry_space_group_name_H-M	'P1'
_symmetry_Int_Tables_number	1
_symmetry_cell_setting	triclinic
loop_
_symmetry_equiv_pos_as_xyz
  x,y,z
_cell_length_a	10.654558
_cell_length_b	22.010155
_cell_length_c	10.654551
_cell_angle_alpha	89.992869
_cell_angle_beta	84.486839
_cell_angle_gamma	90.007915
loop_
_atom_site_label
_atom_site_type_symbol
_atom_site_fract_x
_atom_site_fract_y
_atom_site_fract_z
O1	O	1.667845	0.050513	0.176431
O2	O	1.302368	0.050515	0.193226
O3	O	1.493509	0.050514	0.002090
O4	O	1.476704	0.050514	0.367568
O5	O	1.493474	-0.050536	0.002118
O6	O	1.302333	-0.050535	0.193255
O7	O	1.667810	-0.050538	0.176460
Cu8	Cu	1.485068	-0.059763	0.184860
Cu9	Cu	1.485109	0.059741	0.184826
O10	O	1.476669	-0.050537	0.367596
C11	C	1.255553	-0.000010	0.192005
C12	C	1.116110	-0.000008	0.188309
N13	N	1.485049	-0.143816	0.184883
C14	C	0.919590	0.055074	0.183098
C15	C	1.050613	0.055075	0.186560
C16	C	1.050579	-0.055096	0.186584
C17	C	0.919560	-0.055096	0.183113
C18	C	0.854099	0.110161	0.181361
C19	C	0.919621	0.165249	0.183084
C20	C	1.050643	0.165249	0.186546
C21	C	1.116144	0.110162	0.188285
C22	C	1.569752	-0.563596	0.100203
C23	C	1.569757	-0.627203	0.100195
O24	O	1.641725	-0.660095	0.028212
N25	N	1.485108	-0.659023	0.184800
C26	C	1.400440	-0.627232	0.269411
O27	O	1.328439	-0.660137	0.341372
C28	C	1.400429	-0.563625	0.269412
C29	C	1.485092	-0.531809	0.184810
C30	C	1.654407	-0.531779	0.015607
C31	C	1.654403	-0.468176	0.015617
C32	C	1.569743	-0.436389	0.100224
C33	C	1.485087	-0.468206	0.184820
C34	C	1.315755	-0.531835	0.354016
C35	C	1.315751	-0.468224	0.354009
C36	C	1.400414	-0.436408	0.269407
C37	C	1.400423	-0.372815	0.269438
N38	N	1.485072	-0.340996	0.184832
C39	C	1.569732	-0.372783	0.100226
C40	C	1.400467	-0.760809	0.269400
C41	C	1.400483	-0.824415	0.269405
C42	C	1.569800	-0.824382	0.100187
C43	C	1.569789	-0.760775	0.100188
C44	C	1.485116	-0.728990	0.184794
C45	C	1.569717	-0.239211	0.100255
C46	C	1.569708	-0.175602	0.100276
C47	C	1.400388	-0.175641	0.269489
C48	C	1.400400	-0.239244	0.269473
C49	C	1.485069	-0.271028	0.184845
O50	O	1.328489	-0.339883	0.341380
O51	O	1.641710	-0.339869	0.028265
C52	C	1.714625	-0.000012	0.177681
C53	C	1.854068	-0.000009	0.181377
C54	C	1.492257	-0.000010	-0.044694
C55	C	1.488565	-0.000006	-0.184137
N56	N	1.485139	0.143793	0.184793
C57	C	1.486851	0.055076	-0.249665
C58	C	1.483371	0.055073	-0.380685
C59	C	1.483323	-0.055097	-0.380640
C60	C	1.486794	-0.055094	-0.249620
C61	C	1.488622	0.110164	-0.184182
C62	C	1.486910	0.165250	-0.249709
C63	C	1.483430	0.165248	-0.380730
C64	C	1.481661	0.110159	-0.446222
C65	C	1.477921	-0.000012	0.414380
C66	C	1.481613	-0.000012	0.553823
H67	H	0.747413	0.110167	0.178547
Cl68	Cl	1.676162	-0.279158	-0.006134
H69	H	0.866283	0.210098	0.181659
Cl70	Cl	1.493003	0.110172	-0.019471
Cl71	Cl	1.760851	-0.571729	-0.090770
Cl72	Cl	1.676224	-0.720785	-0.006175
H73	H	1.103919	-0.099945	0.188003
Cl74	Cl	1.133013	0.234501	0.188695
Cl75	Cl	1.280862	0.110165	0.192618
H76	H	1.488162	-0.099946	-0.196263
Cl77	Cl	0.837185	-0.124344	0.180931
H78	H	1.638656	-0.149700	0.031383
Cl79	Cl	1.760832	-0.428185	-0.090752
Cl80	Cl	1.481264	0.234497	-0.463103
Cl81	Cl	1.676226	-0.864356	-0.006179
Cl82	Cl	1.294062	-0.864405	0.375783
Cl83	Cl	1.294021	-0.720856	0.375782
H84	H	1.246814	-0.557731	0.422906
H85	H	1.246796	-0.442347	0.422904
Cl86	Cl	1.489130	0.234501	-0.167378
Cl87	Cl	1.293976	-0.279240	0.375847
H88	H	1.331462	-0.149750	0.338379
H89	H	1.478809	0.110161	-0.552906
Cl90	Cl	1.481103	-0.124347	-0.462975
