data_functionalizedCrystal
_audit_creation_method	'MofGen! by Chris Wilmer'
_symmetry_space_group_name_H-M	'P1'
_symmetry_Int_Tables_number	1
_symmetry_cell_setting	triclinic
loop_
_symmetry_equiv_pos_as_xyz
  x,y,z
_cell_length_a	33.428889
_cell_length_b	33.428139
_cell_length_c	33.424847
_cell_angle_alpha	60.004234
_cell_angle_beta	60.008465
_cell_angle_gamma	59.994972
loop_
_atom_site_label
_atom_site_type_symbol
_atom_site_fract_x
_atom_site_fract_y
_atom_site_fract_z
O1	O	0.055565	-0.584504	0.488714
O2	O	0.555565	-0.084504	0.988714
O3	O	0.020982	-0.455083	0.393778
O4	O	0.520982	0.044917	0.893778
O5	O	0.102943	-0.536959	0.393689
O6	O	0.602943	-0.036959	0.893689
O7	O	-0.026396	-0.502628	0.488803
O8	O	0.473604	-0.002628	0.988803
O9	O	0.130140	-0.509767	0.420792
O10	O	0.630140	-0.009767	0.920792
O11	O	0.048179	-0.427891	0.420881
O12	O	0.548179	0.072109	0.920881
O13	O	0.082762	-0.557312	0.515817
O14	O	0.582762	-0.057312	1.015817
Cu15	Cu	0.067954	-0.490119	0.470823
Cu16	Cu	0.567954	0.009881	0.970823
Cu17	Cu	0.035790	-0.522276	0.438771
Cu18	Cu	0.535790	-0.022276	0.938771
O19	O	0.000801	-0.475436	0.515906
O20	O	0.500801	0.024564	1.015906
N21	N	0.090577	-0.467504	0.493370
N22	N	0.590577	0.032496	0.993370
N23	N	0.013171	-0.544895	0.416225
N24	N	0.513171	-0.044895	0.916225
C25	C	0.143377	-0.280390	0.546067
C26	C	0.643377	0.219610	1.046067
C27	C	0.143515	-0.414755	0.680369
C28	C	0.643515	0.085245	1.180369
C29	C	0.143392	-0.414735	0.546069
C30	C	0.643392	0.085265	1.046069
C31	C	0.277766	-0.414702	0.545966
C32	C	0.777766	0.085298	1.045966
C33	C	0.158177	-0.324719	0.560828
C34	C	0.658177	0.175281	1.060828
C35	C	0.158255	-0.399967	0.636038
C36	C	0.658255	0.100033	1.136038
C37	C	0.233434	-0.399936	0.560773
C38	C	0.733434	0.100064	1.060773
C39	C	0.158186	-0.399955	0.560829
C40	C	0.658186	0.100045	1.060829
C41	C	0.124540	-0.223964	0.527278
C42	C	0.624540	0.276036	1.027278
C43	C	0.124565	-0.433545	0.527281
C44	C	0.624565	0.066455	1.027281
C45	C	0.177014	-0.381145	0.579617
C46	C	0.677014	0.118855	1.079617
C47	C	0.359814	-0.400540	0.502735
C48	C	0.859814	0.099460	1.002735
C49	C	0.411105	-0.417624	0.485606
C50	C	0.911105	0.082376	0.985606
C51	C	0.411136	-0.500620	0.517255
C52	C	0.911136	-0.000620	1.017255
C53	C	0.359845	-0.483534	0.534385
C54	C	0.859845	0.016466	1.034385
C55	C	0.136887	-0.198305	0.476855
C56	C	0.636887	0.301695	0.976855
C57	C	0.119761	-0.147011	0.459777
C58	C	0.619761	0.352989	0.959777
C59	C	0.077945	-0.147038	0.543547
C60	C	0.577945	0.352962	1.043547
C61	C	0.095072	-0.198332	0.560625
C62	C	0.595072	0.301668	1.060625
C63	C	0.074134	-0.421169	0.539710
C64	C	0.574134	0.078831	1.039710
C65	C	0.057023	-0.438269	0.522625
C66	C	0.557023	0.061731	1.022625
C67	C	0.140770	-0.480120	0.480694
C68	C	0.640770	0.019880	0.980694
C69	C	0.157883	-0.463020	0.497773
C70	C	0.657883	0.036980	0.997773
C71	C	0.074339	-0.421208	0.762475
C72	C	0.574339	0.078792	1.262475
C73	C	0.057288	-0.438323	0.813768
C74	C	0.557288	0.061677	1.313768
C75	C	0.141075	-0.480183	0.813699
C76	C	0.641075	0.019817	1.313699
C77	C	0.158125	-0.463069	0.762404
C78	C	0.658125	0.036931	1.262404
C79	C	0.124756	-0.433580	0.736794
C80	C	0.624756	0.066420	1.236794
C81	C	0.334186	-0.433494	0.527123
C82	C	0.834186	0.066506	1.027123
C83	C	-0.173769	-0.597444	0.363037
C84	C	0.326231	-0.097444	0.863037
C85	C	-0.039302	-0.597595	0.228856
C86	C	0.460698	-0.097595	0.728856
C87	C	-0.039496	-0.597587	0.363300
C88	C	0.460504	-0.097587	0.863300
C89	C	-0.039512	-0.731889	0.363237
C90	C	0.460488	-0.231889	0.863237
C91	C	-0.129442	-0.612265	0.348329
C92	C	0.370558	-0.112265	0.848329
C93	C	-0.054138	-0.612351	0.273187
C94	C	0.445862	-0.112351	0.773187
C95	C	-0.054257	-0.687554	0.348440
C96	C	0.445743	-0.187554	0.848440
C97	C	-0.054247	-0.612346	0.348477
C98	C	0.445753	-0.112346	0.848477
C99	C	-0.230191	-0.578579	0.381758
C100	C	0.269809	-0.078579	0.881758
C101	C	-0.020722	-0.578803	0.382168
C102	C	0.479278	-0.078803	0.882168
C103	C	-0.073020	-0.631130	0.329609
C104	C	0.426980	-0.131130	0.829609
C105	C	-0.053713	-0.813916	0.406386
C106	C	0.446287	-0.313916	0.906386
C107	C	-0.036654	-0.865210	0.423504
C108	C	0.463346	-0.365210	0.923504
C109	C	0.046338	-0.865293	0.391984
C110	C	0.546338	-0.365293	0.891984
C111	C	0.029278	-0.813999	0.374865
C112	C	0.529278	-0.313999	0.874865
C113	C	-0.255900	-0.590938	0.432169
C114	C	0.244100	-0.090938	0.932169
C115	C	-0.307191	-0.573786	0.449185
C116	C	0.192809	-0.073786	0.949185
C117	C	-0.307060	-0.531922	0.365377
C118	C	0.192940	-0.031922	0.865377
C119	C	-0.255769	-0.549074	0.348360
C120	C	0.244231	-0.049074	0.848360
C121	C	-0.033081	-0.528377	0.369764
C122	C	0.466919	-0.028377	0.869764
C123	C	-0.016014	-0.511306	0.386922
C124	C	0.483986	-0.011306	0.886922
C125	C	0.025770	-0.595083	0.428877
C126	C	0.525770	-0.095083	0.928877
C127	C	0.008703	-0.612156	0.411725
C128	C	0.508703	-0.112156	0.911725
C129	C	-0.032755	-0.528393	0.146761
C130	C	0.467245	-0.028393	0.646761
C131	C	-0.015585	-0.511324	0.095468
C132	C	0.484415	-0.011324	0.595468
C133	C	0.026262	-0.595106	0.095516
C134	C	0.526262	-0.095106	0.595516
C135	C	0.009094	-0.612174	0.146811
C136	C	0.509094	-0.112174	0.646811
C137	C	-0.020417	-0.578816	0.172432
C138	C	0.479583	-0.078816	0.672432
C139	C	-0.020748	-0.788312	0.382068
C140	C	0.479252	-0.288312	0.882068
N141	N	0.436037	-0.467415	0.493101
N142	N	0.936037	0.032585	0.993101
O143	O	0.592642	-0.471896	0.376066
O144	O	1.092642	0.028104	0.876066
O145	O	0.592838	-0.567146	0.505347
O146	O	1.092838	-0.067146	1.005347
O147	O	0.592754	-0.566928	0.423360
O148	O	1.092754	-0.066928	0.923360
O149	O	0.592727	-0.472113	0.458053
O150	O	1.092727	0.027887	0.958053
O151	O	0.511269	-0.539835	0.450606
O152	O	1.011269	-0.039835	0.950606
O153	O	0.511353	-0.540052	0.532594
O154	O	1.011353	-0.040052	1.032594
O155	O	0.511157	-0.444802	0.403312
O156	O	1.011157	0.055198	0.903312
Cu157	Cu	0.503815	-0.489954	0.470441
Cu158	Cu	1.003815	0.010046	0.970441
Cu159	Cu	0.600180	-0.521995	0.438219
Cu160	Cu	1.100180	-0.021995	0.938219
O161	O	0.511242	-0.445020	0.485300
O162	O	1.011242	0.054980	0.985300
N163	N	0.667959	-0.544533	0.415554
N164	N	1.167959	-0.044533	0.915554
N165	N	0.090544	-0.122107	0.493359
N166	N	0.590544	0.377893	0.993359
O167	O	-0.026406	0.034587	0.488773
O168	O	0.473594	0.534587	0.988773
O169	O	0.102877	0.034627	0.393499
O170	O	0.602877	0.534627	0.893499
O171	O	0.020848	0.034591	0.393771
O172	O	0.520848	0.534591	0.893771
O173	O	0.055623	0.034623	0.488500
O174	O	0.555623	0.534623	0.988500
O175	O	0.048051	-0.046899	0.420925
O176	O	0.548051	0.453101	0.920925
O177	O	0.130080	-0.046864	0.420653
O178	O	0.630080	0.453136	0.920653
O179	O	0.000796	-0.046903	0.515927
O180	O	0.500796	0.453097	1.015927
Cu181	Cu	0.067922	-0.054324	0.470769
Cu182	Cu	0.567922	0.445676	0.970769
Cu183	Cu	0.035752	0.042048	0.438656
Cu184	Cu	0.535752	0.542048	0.938656
O185	O	0.082825	-0.046867	0.515655
O186	O	0.582825	0.453133	1.015655
N187	N	0.013123	0.109830	0.416068
N188	N	0.513123	0.609830	0.916068
N189	N	0.090892	-0.467554	0.838649
N190	N	0.590892	0.032446	1.338649
O191	O	0.086330	-0.584488	0.995334
O192	O	0.586330	-0.084488	1.495334
O193	O	-0.008902	-0.455160	0.995379
O194	O	0.491098	0.044840	1.495379
O195	O	-0.008679	-0.537172	0.995355
O196	O	0.491321	-0.037172	1.495355
O197	O	0.086107	-0.502475	0.995358
O198	O	0.586107	-0.002475	1.495358
O199	O	0.018452	-0.509990	0.913868
O200	O	0.518452	-0.009990	1.413868
O201	O	0.018230	-0.427978	0.913891
O202	O	0.518230	0.072022	1.413891
O203	O	0.113461	-0.557306	0.913847
O204	O	0.613461	-0.057306	1.413847
Cu205	Cu	0.068323	-0.490160	0.906429
Cu206	Cu	0.568323	0.009840	1.406429
Cu207	Cu	0.036237	-0.522306	1.002797
Cu208	Cu	0.536237	-0.022306	1.502797
O209	O	0.113239	-0.475293	0.913870
O210	O	0.613239	0.024707	1.413870
N211	N	0.013667	-0.544916	1.070577
N212	N	0.513667	-0.044916	1.570577
C213	C	0.031339	-0.425179	0.394250
C214	C	0.531339	0.074821	0.894250
C215	C	0.132837	-0.526572	0.394139
C216	C	0.632837	-0.026572	0.894139
C217	C	0.072405	-0.587216	0.515344
C218	C	0.572405	-0.087216	1.015344
C219	C	-0.029093	-0.485823	0.515455
C220	C	0.470907	0.014177	1.015455
C221	C	0.552119	-0.566716	0.535258
C222	C	1.052119	-0.066716	1.035258
C223	C	0.552016	-0.566447	0.433726
C224	C	1.052016	-0.066447	0.933726
C225	C	0.551873	-0.445232	0.373402
C226	C	1.051873	0.054768	0.873402
C227	C	0.551980	-0.445502	0.474933
C228	C	1.051980	0.054498	0.974933
C229	C	0.132731	-0.006013	0.393923
C230	C	0.632731	0.493987	0.893923
C231	C	0.031182	-0.006158	0.394293
C232	C	0.531182	0.493842	0.894293
C233	C	-0.029092	-0.006163	0.515469
C234	C	0.470908	0.493837	1.015469
C235	C	0.072491	-0.006119	0.515133
C236	C	0.572491	0.493881	1.015133
C237	C	-0.008451	-0.425276	0.954641
C238	C	0.491549	0.074724	1.454641
C239	C	-0.008170	-0.526833	0.954596
C240	C	0.491830	-0.026833	1.454596
C241	C	0.113010	-0.587190	0.954585
C242	C	0.613010	-0.087190	1.454585
C243	C	0.112735	-0.485627	0.954611
C244	C	0.612735	0.014373	1.454611
H245	H	0.016234	-0.428240	0.834672
H246	H	0.516234	0.071760	1.334672
H247	H	0.338981	-0.510371	0.554246
H248	H	0.838981	-0.010371	1.054246
O249	O	0.552187	-0.606328	0.584441
O250	O	1.052187	-0.106328	1.084441
H251	H	0.585415	-0.615290	0.591364
H252	H	1.085415	-0.115290	1.091364
O253	O	0.082351	-0.006110	0.554559
O254	O	0.582351	0.493890	1.054559
H255	H	0.078095	-0.039326	0.587102
H256	H	0.578095	0.460674	1.087102
O257	O	-0.048059	-0.376080	0.954661
O258	O	0.451941	0.123920	1.454661
H259	H	-0.034209	-0.352050	0.954671
H260	H	0.465791	0.147950	1.454671
O261	O	0.100293	-0.893000	0.384223
O262	O	0.600293	-0.393000	0.884223
H263	H	0.114339	-0.916381	0.362266
H264	H	0.614339	-0.416381	0.862266
H265	H	0.079796	-0.624394	0.545162
H266	H	0.579796	-0.124394	1.045162
O267	O	0.021553	-0.375932	0.354752
O268	O	0.521553	0.124068	0.854752
H269	H	0.054671	-0.375798	0.321469
H270	H	0.554671	0.124202	0.821469
H271	H	-0.066242	-0.478508	0.545321
H272	H	0.433758	0.021492	1.045321
O273	O	-0.072207	-0.892832	0.449737
O274	O	0.427793	-0.392832	0.949737
H275	H	-0.109861	-0.866354	0.451875
H276	H	0.390139	-0.366354	0.951875
O277	O	0.182042	-0.536254	0.354574
O278	O	0.682042	-0.036254	0.854574
H279	H	0.206046	-0.574146	0.368479
H280	H	0.706046	-0.074146	0.868479
O281	O	0.152184	-0.475798	0.954607
O282	O	0.652184	0.024202	1.454607
H283	H	0.161056	-0.444565	0.921398
H284	H	0.661056	0.055435	1.421398
H285	H	0.552029	-0.596233	0.426301
H286	H	1.052029	-0.096233	0.926301
H287	H	0.551811	-0.415327	0.336274
H288	H	1.051811	0.084673	0.836274
H289	H	-0.037935	-0.534246	0.954563
H290	H	0.462065	-0.034246	1.454563
H291	H	0.551974	-0.415718	0.482355
H292	H	1.051974	0.084282	0.982355
H293	H	0.169783	-0.005775	0.363939
H294	H	0.669783	0.494225	0.863939
H295	H	0.023733	-0.006162	0.364531
H296	H	0.523733	0.493838	0.864531
O297	O	0.152619	-0.636386	0.954567
O298	O	0.652619	-0.136386	1.454567
H299	H	0.163011	-0.653486	0.987775
H300	H	0.663011	-0.153486	1.487775
O301	O	-0.078274	-0.006167	0.555088
O302	O	0.421726	0.493833	1.055088
H303	H	-0.102322	-0.006173	0.541254
H304	H	0.397678	0.493827	1.041254
H305	H	0.047163	-0.397193	0.741627
H306	H	0.547163	0.102807	1.241627
H307	H	0.199181	-0.473148	0.741498
H308	H	0.699181	0.026852	1.241498
O309	O	0.177065	-0.511985	0.841324
O310	O	0.677065	-0.011985	1.341324
H311	H	0.214988	-0.517716	0.814849
H312	H	0.714988	-0.017716	1.314849
H313	H	0.015959	-0.428182	0.532734
H314	H	0.515959	0.071818	1.032734
O315	O	0.038196	-0.389384	0.571540
O316	O	0.538196	0.110616	1.071540
H317	H	0.014805	-0.355504	0.551205
H318	H	0.514805	0.144496	1.051205
O319	O	0.176690	-0.511902	0.448854
O320	O	0.676690	-0.011902	0.948854
H321	H	0.200093	-0.545789	0.469170
H322	H	0.700093	-0.045789	0.969170
O323	O	0.212277	-0.476372	0.484375
O324	O	0.712277	0.023628	0.984375
H325	H	0.229047	-0.462568	0.443931
H326	H	0.729047	0.037432	0.943931
O327	O	0.438809	-0.554593	0.525093
O328	O	0.938809	-0.054593	1.025093
H329	H	0.428945	-0.566965	0.506991
H330	H	0.928945	-0.066965	1.006991
O331	O	0.438753	-0.382083	0.459301
O332	O	0.938753	0.117917	0.959301
H333	H	0.428880	-0.354656	0.426013
H334	H	0.928880	0.145344	0.926013
O335	O	0.332136	-0.346567	0.494909
O336	O	0.832136	0.153433	0.994909
H337	H	0.341951	-0.325693	0.455050
H338	H	0.841951	0.174307	0.955050
O339	O	0.168669	-0.225952	0.440889
O340	O	0.668669	0.274048	0.940889
H341	H	0.174370	-0.199490	0.402956
H342	H	0.674370	0.300510	0.902956
H343	H	0.129813	-0.126117	0.418717
H344	H	0.629813	0.373883	0.918717
H345	H	0.085016	-0.219221	0.601683
H346	H	0.585016	0.280779	1.101683
O347	O	0.046165	-0.119387	0.579512
O348	O	0.546165	0.380613	1.079512
H349	H	0.040459	-0.145849	0.617444
H350	H	0.540459	0.354151	1.117444
H351	H	-0.056788	-0.501226	0.167618
H352	H	0.443212	-0.001226	0.667618
O353	O	-0.028904	-0.456937	0.067783
O354	O	0.471096	0.043063	0.567783
H355	H	-0.052314	-0.436613	0.094219
H356	H	0.447686	0.063387	0.594219
H357	H	0.050281	-0.622271	0.074658
H358	H	0.550281	-0.122271	0.574658
H359	H	-0.057039	-0.501216	0.345698
H360	H	0.442961	-0.001216	0.845698
O361	O	0.022404	-0.666562	0.174499
O362	O	0.522404	-0.166562	0.674499
H363	H	0.008622	-0.683344	0.164616
H364	H	0.508622	-0.183344	0.664616
O365	O	-0.029255	-0.456918	0.373463
O366	O	0.470745	0.043082	0.873463
H367	H	-0.052546	-0.436593	0.349991
H368	H	0.447454	0.063407	0.849991
H369	H	0.049734	-0.622248	0.452940
H370	H	0.549734	-0.122248	0.952940
H371	H	0.018765	-0.653217	0.421828
H372	H	0.518765	-0.153217	0.921828
H373	H	-0.094449	-0.793002	0.412253
H374	H	0.405551	-0.293002	0.912253
O375	O	0.064833	-0.786384	0.348641
O376	O	0.564833	-0.286384	0.848641
H377	H	0.102483	-0.812867	0.346517
H378	H	0.602483	-0.312867	0.846517
H379	H	-0.235077	-0.614964	0.459366
H380	H	0.264923	-0.114964	0.959366
H381	H	-0.327887	-0.507903	0.338181
H382	H	0.172113	-0.007903	0.838181
O383	O	-0.334942	-0.587116	0.503555
O384	O	0.165058	-0.087116	1.003555
H385	H	-0.325138	-0.573345	0.520417
H386	H	0.174862	-0.073345	1.020417
O387	O	-0.228039	-0.535742	0.293988
O388	O	0.271961	-0.035742	0.793988
H389	H	-0.254445	-0.512343	0.273626
H390	H	0.245555	-0.012343	0.773626
