data_functionalizedCrystal
_audit_creation_method	'MofGen! by Chris Wilmer'
_symmetry_space_group_name_H-M	'P1'
_symmetry_Int_Tables_number	1
_symmetry_cell_setting	triclinic
loop_
_symmetry_equiv_pos_as_xyz
  x,y,z
_cell_length_a	12.759401
_cell_length_b	17.640280
_cell_length_c	12.759393
_cell_angle_alpha	78.769382
_cell_angle_beta	89.981287
_cell_angle_gamma	78.802151
loop_
_atom_site_label
_atom_site_type_symbol
_atom_site_fract_x
_atom_site_fract_y
_atom_site_fract_z
Zn1	Zn	1.690798	-0.314597	-0.509562
Zn2	Zn	1.726226	-0.446790	-0.298393
Zn3	Zn	1.515115	-0.314639	-0.333886
Zn4	Zn	1.550604	-0.446735	-0.474045
O5	O	1.620686	-0.380690	-0.403972
O6	O	1.842521	-0.332138	-0.481560
O7	O	1.698197	-0.429301	-0.156069
O8	O	1.508741	-0.204028	-0.386908
O9	O	1.868549	-0.429260	-0.326415
O10	O	1.637815	-0.203997	-0.515976
O11	O	1.543094	-0.332210	-0.182146
O12	O	1.372801	-0.332156	-0.352468
O13	O	1.569227	-0.429166	-0.625789
O14	O	1.398874	-0.429207	-0.455443
O15	O	1.672227	-0.332085	-0.651883
O16	O	1.732609	-0.557389	-0.291976
O17	O	1.603580	-0.557348	-0.421027
C18	C	1.347716	-0.380681	-0.403953
C19	C	1.230944	-0.380696	-0.403965
C20	C	1.189706	-0.431307	-0.457458
C21	C	1.079983	-0.431310	-0.457478
C22	C	1.052743	-0.330088	-0.350505
C23	C	1.162464	-0.330082	-0.350492
C24	C	0.937705	-0.459671	-0.573724
C25	C	0.896467	-0.510294	-0.627204
C26	C	0.952796	-0.587429	-0.622444
C27	C	1.050365	-0.613957	-0.564184
C28	C	1.091599	-0.563338	-0.510695
C29	C	1.035268	-0.486192	-0.515479
C30	C	1.304746	-0.301729	-0.234241
C31	C	1.345982	-0.251113	-0.180746
C32	C	1.289655	-0.173977	-0.185496
C33	C	1.192083	-0.147452	-0.243736
C34	C	1.150847	-0.198067	-0.297232
C35	C	1.207181	-0.275203	-0.292484
C36	C	1.675818	-0.586048	-0.348819
C37	C	1.699500	-0.673900	-0.325259
C38	C	1.441209	-0.962868	-0.583333
C39	C	1.463464	-1.045419	-0.561162
C40	C	1.597905	-1.045396	-0.426917
C41	C	1.575665	-0.962844	-0.449081
C42	C	1.497315	-0.921586	-0.527289
C43	C	1.631771	-0.921561	-0.393037
C44	C	1.609529	-0.839016	-0.415195
C45	C	1.531180	-0.797753	-0.493397
C46	C	1.475073	-0.839041	-0.549447
C47	C	1.710115	-0.962820	-0.314823
C48	C	1.766221	-0.921538	-0.258779
C49	C	1.743985	-0.838991	-0.280942
C50	C	1.665636	-0.797728	-0.359145
C51	C	1.800092	-0.797703	-0.224892
C52	C	1.777850	-0.715158	-0.247051
C53	C	1.643394	-0.715182	-0.381303
C54	C	1.894722	-0.380701	-0.403990
C55	C	2.011500	-0.380705	-0.403998
C56	C	1.620734	-0.380614	-0.678025
C57	C	1.620754	-0.380582	-0.794811
C58	C	1.565367	-0.174531	-0.459363
C59	C	1.541794	-0.086679	-0.482967
C60	C	1.567138	-0.431109	-0.836094
C61	C	1.567168	-0.431079	-0.945826
C62	C	1.674430	-0.329990	-0.972984
C63	C	1.674406	-0.330024	-0.863253
C64	C	1.554672	-0.524247	-1.070748
C65	C	1.501038	-0.574766	-1.112036
C66	C	1.401770	-0.586907	-1.073161
C67	C	1.356113	-0.548517	-0.993003
C68	C	1.409740	-0.497991	-0.951722
C69	C	1.509026	-0.485866	-0.990591
C70	C	1.686891	-0.236855	-0.738329
C71	C	1.740512	-0.186325	-0.697047
C72	C	1.839779	-0.174176	-0.735922
C73	C	1.885429	-0.212553	-0.816088
C74	C	1.831808	-0.263083	-0.857370
C75	C	1.732542	-0.275233	-0.818487
C76	C	1.620684	-0.380709	-0.130999
C77	C	1.620807	-0.380519	-0.014274
H78	H	1.245460	-0.472518	-0.501003
H79	H	1.606060	-0.246746	-0.706665
H80	H	1.728225	-1.030034	-0.296788
O81	O	1.507161	-0.708721	-0.517270
H82	H	1.443239	-0.686969	-0.581051
H83	H	1.661694	-1.078999	-0.363237
O84	O	0.908320	-0.642036	-0.680115
H85	H	0.965744	-0.661013	-0.739774
O86	O	1.850754	-0.966037	-0.174457
H87	H	1.856810	-1.030372	-0.168476
O88	O	1.360523	-0.456597	-0.865255
H89	H	1.282486	-0.473530	-0.845150
H90	H	1.523443	-0.472272	-0.780372
H91	H	0.996975	-0.288882	-0.306966
H92	H	1.096218	-0.676772	-0.560302
H93	H	1.635511	-0.514375	-1.102398
O94	O	1.356703	-0.918358	-0.667686
H95	H	1.321418	-0.960930	-0.702937
O96	O	1.838389	-0.670635	-0.186616
H97	H	1.881657	-0.632980	-0.243815
O98	O	1.402953	-1.089949	-0.621619
H99	H	1.344743	-1.047390	-0.679728
H100	H	1.275273	-0.558399	-0.961366
O101	O	0.791243	-0.481685	-0.690051
H102	H	0.759008	-0.419535	-0.684399
O103	O	1.732289	-0.275451	-1.046795
H104	H	1.697619	-0.213427	-1.042375
O105	O	0.876932	-0.376479	-0.578827
H106	H	0.802148	-0.366550	-0.628294
H107	H	1.883428	-0.133021	-0.702312
H108	H	1.703330	-0.155071	-0.631779
H109	H	1.868983	-0.294328	-0.922649
H110	H	1.538221	-0.606024	-1.177302
H111	H	1.071402	-0.176462	-0.344663
O112	O	1.131321	-0.064252	-0.248872
H113	H	1.176392	-0.033509	-0.201900
O114	O	1.334127	-0.119379	-0.127798
H115	H	1.411438	-0.150778	-0.086498
H116	H	1.425432	-0.272717	-0.133321
O117	O	1.343894	-0.641367	-1.117723
H118	H	1.392310	-0.666012	-1.180000
O119	O	1.365497	-0.384933	-0.229117
H120	H	1.440261	-0.394878	-0.179615
O121	O	1.884616	-0.842204	-0.140562
H122	H	1.890666	-0.906539	-0.134580
O123	O	1.558885	-0.670676	-0.465656
H124	H	1.581109	-0.686475	-0.543889
H125	H	1.966257	-0.202656	-0.847747
O126	O	1.390564	-0.794534	-0.633800
H127	H	1.412788	-0.810333	-0.712033
O128	O	1.196832	-0.591933	-0.447873
H129	H	1.229080	-0.654076	-0.453550
