data_functionalizedCrystal
_audit_creation_method	'MofGen! by Chris Wilmer'
_symmetry_space_group_name_H-M	'P1'
_symmetry_Int_Tables_number	1
_symmetry_cell_setting	triclinic
loop_
_symmetry_equiv_pos_as_xyz
  x,y,z
_cell_length_a	15.298068
_cell_length_b	18.050590
_cell_length_c	18.050582
_cell_angle_alpha	89.975956
_cell_angle_beta	80.293237
_cell_angle_gamma	99.677990
loop_
_atom_site_label
_atom_site_type_symbol
_atom_site_fract_x
_atom_site_fract_y
_atom_site_fract_z
Zn1	Zn	1.379311	-0.099468	-0.616774
Zn2	Zn	1.879311	0.400532	-0.116774
Zn3	Zn	1.379226	-0.223665	-0.492571
Zn4	Zn	1.879226	0.276335	0.007429
Zn5	Zn	1.228444	-0.120945	-0.471066
Zn6	Zn	1.728444	0.379055	0.028934
Zn7	Zn	1.228409	-0.245090	-0.595193
Zn8	Zn	1.728409	0.254910	-0.095193
O9	O	1.303847	-0.172292	-0.543901
O10	O	1.803847	0.327708	-0.043901
O11	O	1.505555	-0.097989	-0.618330
O12	O	2.005555	0.402011	-0.118330
O13	O	1.359203	-0.210061	-0.385790
O14	O	1.859203	0.289939	0.114210
O15	O	1.248507	-0.014164	-0.490426
O16	O	1.748507	0.485836	0.009574
O17	O	1.505493	-0.189236	-0.527078
O18	O	2.005493	0.310764	-0.027078
O19	O	1.359349	0.001615	-0.597478
O20	O	1.859349	0.501615	-0.097478
O21	O	1.248425	-0.134593	-0.369991
O22	O	1.748425	0.365407	0.130009
O23	O	1.102184	-0.155367	-0.469500
O24	O	1.602184	0.344633	0.030500
O25	O	1.248447	-0.225751	-0.701984
O26	O	1.748447	0.274249	-0.201984
O27	O	1.102158	-0.246576	-0.560696
O28	O	1.602158	0.253424	-0.060696
O29	O	1.359314	-0.118763	-0.717839
O30	O	1.859314	0.381237	-0.217839
O31	O	1.359169	-0.330439	-0.506152
O32	O	1.859169	0.169561	-0.006152
O33	O	1.248364	-0.346179	-0.581548
O34	O	1.748364	0.153821	-0.081548
C35	C	1.069434	-0.205628	-0.510423
C36	C	1.569434	0.294372	-0.010423
C37	C	0.969151	-0.219907	-0.496118
C38	C	1.469151	0.280093	0.003882
C39	C	0.686603	-0.070424	-0.646139
C40	C	1.186603	0.429576	-0.146139
C41	C	0.780824	-0.057011	-0.659583
C42	C	1.280824	0.442989	-0.159583
C43	C	0.827910	-0.097733	-0.618718
C44	C	1.327910	0.402267	-0.118718
C45	C	0.780766	-0.151872	-0.564407
C46	C	1.280766	0.348128	-0.064407
C47	C	0.686536	-0.165291	-0.550965
C48	C	1.186536	0.334709	-0.050965
C49	C	0.827844	-0.192600	-0.523544
C50	C	1.327844	0.307400	-0.023544
C51	C	0.780700	-0.246739	-0.469233
C52	C	1.280700	0.253261	0.030767
C53	C	0.686479	-0.260156	-0.455794
C54	C	1.186479	0.239844	0.044206
C55	C	0.639392	-0.219433	-0.496659
C56	C	1.139392	0.280567	0.003341
C57	C	0.922074	-0.179181	-0.536986
C58	C	1.422074	0.320819	-0.036986
C59	C	0.922007	-0.274048	-0.441812
C60	C	1.422007	0.225952	0.058188
C61	C	0.827786	-0.287462	-0.428368
C62	C	1.327786	0.212538	0.071632
C63	C	1.303778	-0.365254	-0.543862
C64	C	1.803778	0.134746	-0.043862
C65	C	1.303831	-0.447792	-0.543881
C66	C	1.803831	0.052208	-0.043881
C67	C	1.364212	-0.638638	-0.502968
C68	C	1.864212	-0.138638	-0.002968
C69	C	1.386245	-0.684842	-0.573893
C70	C	1.886245	-0.184842	-0.073893
C71	C	1.303882	-0.598915	-0.543918
C72	C	1.803882	-0.098915	-0.043918
C73	C	1.281940	-0.699781	-0.473037
C74	C	1.781940	-0.199781	0.026963
C75	C	1.303933	-0.744893	-0.543948
C76	C	1.803933	-0.244893	-0.043948
C77	C	1.325958	-0.644025	-0.614885
C78	C	1.825958	-0.144025	-0.114885
C79	C	1.221615	-0.658966	-0.513978
C80	C	1.721615	-0.158966	-0.013978
C81	C	1.243617	-0.705151	-0.584945
C82	C	1.743617	-0.205151	-0.084945
C83	C	1.303855	-0.514821	-0.543900
C84	C	1.803855	-0.014821	-0.043900
C85	C	1.303960	-0.828986	-0.543974
C86	C	1.803960	-0.328986	-0.043974
C87	C	1.539176	-0.138827	-0.577510
C88	C	2.039176	0.361173	-0.077510
C89	C	1.639459	-0.124566	-0.591833
C90	C	2.139459	0.375434	-0.091833
C91	C	1.303886	-0.172251	-0.737612
C92	C	1.803886	0.327749	-0.237612
C93	C	1.303903	-0.172234	-0.820161
C94	C	1.803903	0.327766	-0.320161
C95	C	1.303942	0.021427	-0.543960
C96	C	1.803942	0.521427	-0.043960
C97	C	1.303982	0.103978	-0.543986
C98	C	1.803982	0.603978	-0.043986
C99	C	1.243670	-0.230325	-1.060372
C100	C	1.743670	0.269675	-0.560372
C101	C	1.221618	-0.165725	-1.007838
C102	C	1.721618	0.334275	-0.507838
C103	C	1.303979	-0.172114	-1.117292
C104	C	1.803979	0.327886	-0.617292
C105	C	1.325951	-0.236775	-1.022733
C106	C	1.825951	0.263225	-0.522733
C107	C	1.303940	-0.172177	-0.971301
C108	C	1.803940	0.327823	-0.471301
C109	C	1.281885	-0.107484	-1.065839
C110	C	1.781885	0.392516	-0.565839
C111	C	1.386257	-0.178574	-1.080744
C112	C	1.886257	0.321426	-0.580744
C113	C	1.364236	-0.113923	-1.028236
C114	C	1.864236	0.386077	-0.528236
C115	C	1.304000	-0.172079	-1.201393
C116	C	1.804000	0.327921	-0.701393
C117	C	1.303919	-0.172204	-0.887202
C118	C	1.803919	0.327796	-0.387202
C119	C	1.303860	-0.172272	-0.350951
C120	C	1.803860	0.327728	0.149049
C121	C	1.304019	-0.172055	-0.268428
C122	C	1.804019	0.327945	0.231572
H123	H	0.904629	-0.086806	-0.629665
H124	H	1.404629	0.413194	-0.129665
C125	C	1.433148	-0.599542	-0.456248
C126	C	1.933148	-0.099542	0.043752
H127	H	1.403055	-0.574900	-0.415633
H128	H	1.903055	-0.074900	0.084367
H129	H	1.476535	-0.563650	-0.487192
H130	H	1.976535	-0.063650	0.012808
H131	H	1.462375	-0.635962	-0.437086
H132	H	1.962375	-0.135962	0.062914
H133	H	1.455839	-0.696597	-0.599233
H134	H	1.955839	-0.196597	-0.099233
H135	H	1.263361	-0.724164	-0.413081
H136	H	1.763361	-0.224164	0.086919
H137	H	0.648257	-0.037278	-0.679410
H138	H	1.148257	0.462722	-0.179410
C139	C	0.832680	0.002534	-0.719321
C140	C	1.332680	0.502534	-0.219321
H141	H	0.895540	0.004687	-0.721480
H142	H	1.395540	0.504687	-0.221480
H143	H	0.817247	0.050252	-0.706347
H144	H	1.317247	0.550252	-0.206347
H145	H	0.817254	-0.010611	-0.767000
H146	H	1.317254	0.489389	-0.267000
C147	C	1.351088	-0.310609	-0.997016
C148	C	1.851088	0.189391	-0.497016
H149	H	1.308193	-0.351890	-1.007800
H150	H	1.808193	0.148110	-0.507800
H151	H	1.351436	-0.309921	-0.944445
H152	H	1.851436	0.190079	-0.444445
H153	H	1.409140	-0.315571	-1.022955
H154	H	1.909140	0.184429	-0.522955
C155	C	1.433113	-0.047400	-1.008975
C156	C	1.933113	0.452600	-0.508975
H157	H	1.477205	-0.065889	-0.986299
H158	H	1.977205	0.434111	-0.486299
H159	H	1.403160	-0.015852	-0.975066
H160	H	1.903160	0.484148	-0.475066
H161	H	1.461479	-0.019425	-1.053685
H162	H	1.961479	0.480575	-0.553685
C163	C	1.174746	-0.296722	-1.079813
C164	C	1.674746	0.203278	-0.579813
H165	H	1.116300	-0.292025	-1.054553
H166	H	1.616300	0.207975	-0.554553
H167	H	1.189794	-0.342594	-1.064323
H168	H	1.689794	0.157406	-0.564323
H169	H	1.175614	-0.296497	-1.132562
H170	H	1.675614	0.203503	-0.632562
C171	C	0.775926	-0.347016	-0.368633
C172	C	1.275926	0.152984	0.131367
H173	H	0.817457	-0.369347	-0.346214
H174	H	1.317457	0.130653	0.153786
H175	H	0.739173	-0.384645	-0.391741
H176	H	1.239173	0.115355	0.108259
H177	H	0.739162	-0.323791	-0.331080
H178	H	1.239162	0.176209	0.168920
H179	H	1.455834	-0.184041	-1.112393
H180	H	1.955834	0.315959	-0.612393
C181	C	1.127627	-0.643056	-0.479729
C182	C	1.627627	-0.143056	0.020271
H183	H	1.104497	-0.617387	-0.516041
H184	H	1.604497	-0.117387	-0.016041
H185	H	1.131949	-0.612759	-0.437047
H186	H	1.631949	-0.112759	0.062953
H187	H	1.088441	-0.689213	-0.464976
H188	H	1.588441	-0.189213	0.035024
C189	C	0.973792	-0.318844	-0.396857
C190	C	1.473792	0.181156	0.103143
H191	H	1.036661	-0.303093	-0.412634
H192	H	1.536661	0.196907	0.087366
H193	H	0.958348	-0.370957	-0.405430
H194	H	1.458348	0.129043	0.094570
H195	H	0.958329	-0.310103	-0.344770
H196	H	1.458329	0.189897	0.155230
H197	H	0.960449	-0.135100	-0.581205
H198	H	1.460449	0.364900	-0.081205
H199	H	0.562670	-0.230357	-0.485721
H200	H	1.062670	0.269643	0.014279
H201	H	1.344469	-0.619744	-0.674881
H202	H	1.844469	-0.119744	-0.174881
H203	H	1.152020	-0.160281	-0.976202
H204	H	1.652020	0.339719	-0.476202
H205	H	0.648097	-0.304245	-0.411576
H206	H	1.148097	0.195755	0.088424
H207	H	1.192620	-0.733940	-0.619637
H208	H	1.692620	-0.233940	-0.119637
C209	C	1.256613	-0.033653	-1.091414
C210	C	1.756613	0.466347	-0.591414
H211	H	1.256742	-0.034095	-1.144062
H212	H	1.756742	0.465905	-0.644062
H213	H	1.299156	0.007676	-1.080203
H214	H	1.799156	0.507676	-0.580203
H215	H	1.198326	-0.029005	-1.065761
H216	H	1.698326	0.470995	-0.565761
