data_functionalizedCrystal
_audit_creation_method	'MofGen! by Chris Wilmer'
_symmetry_space_group_name_H-M	'P1'
_symmetry_Int_Tables_number	1
_symmetry_cell_setting	triclinic
loop_
_symmetry_equiv_pos_as_xyz
  x,y,z
_cell_length_a	17.077404
_cell_length_b	19.076808
_cell_length_c	17.077404
_cell_angle_alpha	92.314943
_cell_angle_beta	90.005736
_cell_angle_gamma	92.323651
loop_
_atom_site_label
_atom_site_type_symbol
_atom_site_fract_x
_atom_site_fract_y
_atom_site_fract_z
Zn1	Zn	1.187377	-0.280314	0.431267
Zn2	Zn	1.520710	0.053019	0.764600
Zn3	Zn	1.854044	0.386353	1.097933
Zn4	Zn	1.182038	-0.397992	0.294721
Zn5	Zn	1.515372	-0.064659	0.628055
Zn6	Zn	1.848705	0.268674	0.961388
Zn7	Zn	1.056141	-0.280308	0.300015
Zn8	Zn	1.389474	0.053025	0.633348
Zn9	Zn	1.722807	0.386359	0.966682
Zn10	Zn	1.050800	-0.397981	0.425945
Zn11	Zn	1.384133	-0.064648	0.759279
Zn12	Zn	1.717467	0.268685	1.092612
O13	O	1.119089	-0.339149	0.362987
O14	O	1.452422	-0.005815	0.696320
O15	O	1.785756	0.327518	1.029654
O16	O	1.296515	-0.295931	0.413165
O17	O	1.629849	0.037402	0.746499
O18	O	1.963182	0.370735	1.079832
O19	O	1.165339	-0.382383	0.185576
O20	O	1.498672	-0.049050	0.518910
O21	O	1.832005	0.284283	0.852243
O22	O	1.078019	-0.181813	0.321868
O23	O	1.411352	0.151520	0.655202
O24	O	1.744686	0.484854	0.988535
O25	O	1.292593	-0.382389	0.312846
O26	O	1.625926	-0.049056	0.646179
O27	O	1.959260	0.284278	0.979513
O28	O	1.174438	-0.181818	0.418298
O29	O	1.507771	0.151516	0.751632
O30	O	1.841104	0.484849	1.084965
O31	O	1.072842	-0.295921	0.189466
O32	O	1.406175	0.037412	0.522799
O33	O	1.739509	0.370746	0.856132
O34	O	0.945586	-0.295910	0.316708
O35	O	1.278919	0.037423	0.650042
O36	O	1.612252	0.370756	0.983375
O37	O	1.068916	-0.382370	0.536498
O38	O	1.402250	-0.049037	0.869831
O39	O	1.735583	0.284296	1.203165
O40	O	0.941662	-0.382364	0.409229
O41	O	1.274995	-0.049031	0.742562
O42	O	1.608329	0.284302	1.075895
O43	O	1.169259	-0.295921	0.540408
O44	O	1.502592	0.037413	0.873741
O45	O	1.835926	0.370746	1.207074
O46	O	1.160160	-0.496486	0.307686
O47	O	1.493493	-0.163153	0.641019
O48	O	1.826827	0.170180	0.974353
O49	O	1.063740	-0.496478	0.404096
O50	O	1.397073	-0.163145	0.737429
O51	O	1.730406	0.170188	1.070762
C52	C	0.915142	-0.339136	0.362966
C53	C	1.248475	-0.005803	0.696299
C54	C	1.581808	0.327531	1.029633
C55	C	0.827891	-0.339148	0.362975
C56	C	1.161225	-0.005814	0.696308
C57	C	1.494558	0.327519	1.029641
C58	C	0.784876	-0.384232	0.411067
C59	C	1.118209	-0.050899	0.744400
C60	C	1.451542	0.282435	1.077733
C61	C	0.702895	-0.384234	0.411079
C62	C	1.036228	-0.050900	0.744412
C63	C	1.369562	0.282433	1.077746
C64	C	0.663932	-0.339154	0.362995
C65	C	0.997265	-0.005820	0.696328
C66	C	1.330598	0.327513	1.029662
C67	C	0.706953	-0.294064	0.314901
C68	C	1.040287	0.039269	0.648235
C69	C	1.373620	0.372603	0.981568
C70	C	0.788933	-0.294060	0.314893
C71	C	1.122266	0.039274	0.648227
C72	C	1.455599	0.372607	0.981560
C73	C	0.536083	-0.294078	0.314919
C74	C	0.869416	0.039255	0.648253
C75	C	1.202749	0.372589	0.981586
C76	C	0.454098	-0.294083	0.314926
C77	C	0.787431	0.039250	0.648259
C78	C	1.120765	0.372583	0.981593
C79	C	0.450045	-0.384252	0.411105
C80	C	0.783379	-0.050919	0.744438
C81	C	1.116712	0.282415	1.077772
C82	C	0.532024	-0.384248	0.411097
C83	C	0.865358	-0.050914	0.744431
C84	C	1.198691	0.282419	1.077764
C85	C	0.575040	-0.339159	0.363002
C86	C	0.908374	-0.005825	0.696336
C87	C	1.241707	0.327508	1.029669
C88	C	1.110812	-0.522021	0.354756
C89	C	1.444146	-0.188688	0.688089
C90	C	1.777479	0.144646	1.021423
C91	C	1.107343	-0.600255	0.351261
C92	C	1.440676	-0.266921	0.684594
C93	C	1.774010	0.066412	1.017928
C94	C	1.155876	-0.636951	0.399866
C95	C	1.489209	-0.303617	0.733199
C96	C	1.822543	0.029716	1.066532
C97	C	1.152613	-0.710459	0.396583
C98	C	1.485946	-0.377126	0.729917
C99	C	1.819280	-0.043793	1.063250
C100	C	1.100821	-0.747271	0.344692
C101	C	1.434154	-0.413937	0.678025
C102	C	1.767488	-0.080604	1.011358
C103	C	1.052283	-0.710569	0.296085
C104	C	1.385616	-0.377236	0.629418
C105	C	1.718950	-0.043903	0.962752
C106	C	1.055542	-0.637062	0.299372
C107	C	1.388876	-0.303729	0.632705
C108	C	1.722209	0.029605	0.966039
C109	C	1.085691	-0.967120	0.329476
C110	C	1.419024	-0.633787	0.662810
C111	C	1.752357	-0.300454	0.996143
C112	C	1.082437	-1.040633	0.326191
C113	C	1.415770	-0.707300	0.659525
C114	C	1.749103	-0.373966	0.992858
C115	C	1.182766	-1.040518	0.426691
C116	C	1.516100	-0.707184	0.760024
C117	C	1.849433	-0.373851	1.093358
C118	C	1.186024	-0.967009	0.429970
C119	C	1.519358	-0.633676	0.763303
C120	C	1.852691	-0.300342	1.096637
C121	C	1.137483	-0.930314	0.381366
C122	C	1.470817	-0.596981	0.714700
C123	C	1.804150	-0.263647	1.048033
N124	N	1.097487	-0.822408	0.341333
N125	N	1.430820	-0.489075	0.674667
N126	N	1.764153	-0.155742	1.008000
N127	N	1.140814	-0.855178	0.384729
N128	N	1.474148	-0.521844	0.718063
N129	N	1.807481	-0.188511	1.051396
C130	C	1.323833	-0.339162	0.363009
C131	C	1.657166	-0.005829	0.696342
C132	C	1.990499	0.327505	1.029675
C133	C	1.411082	-0.339168	0.363018
C134	C	1.744416	-0.005834	0.696351
C135	C	2.077749	0.327499	1.029685
C136	C	1.119087	-0.339145	0.567731
C137	C	1.452421	-0.005812	0.901065
C138	C	1.785754	0.327522	1.234398
C139	C	1.119087	-0.339143	0.654981
C140	C	1.452420	-0.005810	0.988315
C141	C	1.785753	0.327523	1.321648
C142	C	1.127420	-0.155562	0.371267
C143	C	1.460753	0.177771	0.704601
C144	C	1.794086	0.511104	1.037934
C145	C	1.130969	-0.077329	0.374796
C146	C	1.464303	0.256004	0.708129
C147	C	1.797636	0.589338	1.041463
C148	C	1.167246	-0.384180	1.028772
C149	C	1.500579	-0.050847	1.362106
C150	C	1.833913	0.282487	1.695439
C151	C	1.167242	-0.384179	0.946792
C152	C	1.500576	-0.050846	1.280125
C153	C	1.833909	0.282488	1.613458
C154	C	1.119087	-0.339159	0.907829
C155	C	1.452420	-0.005826	1.241163
C156	C	1.785753	0.327507	1.574496
C157	C	1.070925	-0.294142	0.950852
C158	C	1.404259	0.039191	1.284185
C159	C	1.737592	0.372524	1.617518
C160	C	1.070925	-0.294147	1.032830
C161	C	1.404259	0.039186	1.366164
C162	C	1.737592	0.372519	1.699497
C163	C	1.070930	-0.294134	0.779982
C164	C	1.404264	0.039199	1.113315
C165	C	1.737597	0.372532	1.446649
C166	C	1.070931	-0.294128	0.697998
C167	C	1.404264	0.039205	1.031331
C168	C	1.737598	0.372538	1.364664
C169	C	1.167247	-0.384166	0.693943
C170	C	1.500580	-0.050833	1.027277
C171	C	1.833914	0.282500	1.360610
C172	C	1.167247	-0.384171	0.775922
C173	C	1.500581	-0.050838	1.109255
C174	C	1.833914	0.282496	1.442589
C175	C	1.119087	-0.339153	0.818939
C176	C	1.452420	-0.005820	1.152272
C177	C	1.785754	0.327514	1.485605
C178	C	1.119085	-0.339167	1.159038
C179	C	1.452419	-0.005834	1.492372
C180	C	1.785752	0.327500	1.825705
C181	C	1.119090	-0.339165	1.071789
C182	C	1.452424	-0.005832	1.405122
C183	C	1.785757	0.327502	1.738455
H184	H	0.563746	-0.420960	0.450247
H185	H	0.897079	-0.087626	0.783580
H186	H	1.230413	0.245707	1.116914
H187	H	1.206464	-0.420827	0.807643
H188	H	1.539797	-0.087493	1.140976
H189	H	1.873131	0.245840	1.474310
H190	H	0.675223	-0.257356	0.275754
H191	H	1.008556	0.075977	0.609087
H192	H	1.341890	0.409311	0.942421
F193	F	0.826336	-0.432217	0.462241
F194	F	1.159669	-0.098883	0.795575
F195	F	1.493003	0.234450	1.128908
H196	H	1.228197	-0.937039	0.472224
H197	H	1.561531	-0.603705	0.805558
H198	H	1.894864	-0.270372	1.138891
H199	H	1.016021	-0.607185	0.259794
H200	H	1.349354	-0.273851	0.593127
H201	H	1.682688	0.059482	0.926461
H202	H	1.031713	-0.257476	0.815004
H203	H	1.365046	0.075857	1.148337
H204	H	1.698379	0.409191	1.481671
H205	H	1.198054	-0.606984	0.442118
H206	H	1.531387	-0.273650	0.775451
H207	H	1.864721	0.059683	1.108785
F208	F	1.218498	-0.432089	0.901014
F209	F	1.551831	-0.098756	1.234347
F210	F	1.885164	0.234577	1.567681
H211	H	0.667875	-0.420947	0.450240
H212	H	1.001208	-0.087613	0.783573
H213	H	1.334542	0.245720	1.116906
F214	F	1.019682	-0.246222	0.909383
F215	F	1.353015	0.087111	1.242717
F216	F	1.686349	0.420445	1.576050
H217	H	1.222285	-1.070403	0.466262
H218	H	1.555618	-0.737069	0.799596
H219	H	1.888951	-0.403736	1.132929
H220	H	1.031721	-0.257467	0.666277
H221	H	1.365054	0.075866	0.999610
H222	H	1.698388	0.409199	1.332944
F223	F	1.218501	-0.432080	0.648161
F224	F	1.551834	-0.098747	0.981495
F225	F	1.885168	0.234586	1.314828
F226	F	1.218506	-0.432093	1.070232
F227	F	1.551839	-0.098760	1.403565
F228	F	1.885172	0.234574	1.736898
F229	F	0.412632	-0.246107	0.263746
F230	F	0.745965	0.087226	0.597080
F231	F	1.079298	0.420560	0.930413
F232	F	1.019675	-0.246233	1.078612
F233	F	1.353008	0.087100	1.411945
F234	F	1.686341	0.420433	1.745278
H235	H	0.415018	-0.420963	0.450268
H236	H	0.748351	-0.087630	0.783602
H237	H	1.081684	0.245704	1.116935
F238	F	0.834713	-0.246073	0.263709
F239	F	1.168046	0.087260	0.597042
F240	F	1.501380	0.420594	0.930376
F241	F	0.581862	-0.246088	0.263732
F242	F	0.915195	0.087245	0.597065
F243	F	1.248529	0.420579	0.930399
H244	H	1.192140	-0.740334	0.436156
H245	H	1.525473	-0.407001	0.769490
H246	H	1.858806	-0.073667	1.102823
F247	F	1.027312	-1.079809	0.270956
F248	F	1.360646	-0.746475	0.604289
F249	F	1.693979	-0.413142	0.937623
H250	H	1.046168	-0.937249	0.289900
H251	H	1.379502	-0.603916	0.623233
H252	H	1.712835	-0.270583	0.956566
H253	H	1.010110	-0.740547	0.253837
H254	H	1.343443	-0.407214	0.587170
H255	H	1.676776	-0.073880	0.920503
