data_functionalizedCrystal
_audit_creation_method	'MofGen! by Chris Wilmer'
_symmetry_space_group_name_H-M	'P1'
_symmetry_Int_Tables_number	1
_symmetry_cell_setting	triclinic
loop_
_symmetry_equiv_pos_as_xyz
  x,y,z
_cell_length_a	10.268362
_cell_length_b	12.837943
_cell_length_c	12.811415
_cell_angle_alpha	90.588083
_cell_angle_beta	95.436139
_cell_angle_gamma	89.996663
loop_
_atom_site_label
_atom_site_type_symbol
_atom_site_fract_x
_atom_site_fract_y
_atom_site_fract_z
O1	O	0.140512	-1.376632	0.272979
O2	O	0.138927	-1.074768	0.259494
O3	O	0.121758	-1.233294	0.114203
O4	O	0.157681	-1.218107	0.418270
O5	O	-0.094843	-1.233280	0.114195
O6	O	-0.077674	-1.074755	0.259486
O7	O	-0.076090	-1.376618	0.272971
Cu8	Cu	-0.096659	-1.225685	0.266228
Cu9	Cu	0.159497	-1.225702	0.266237
O10	O	-0.058920	-1.218093	0.418262
C11	C	0.030090	-1.036121	0.254935
C12	C	0.028488	-0.920986	0.241349
N13	N	-0.276826	-1.225681	0.266221
C14	C	0.008830	-1.232436	0.075010
C15	C	-0.004957	-1.229887	-0.041764
C16	C	-0.542495	-1.225696	0.266235
C17	C	-0.394658	-1.225685	0.266230
N18	N	0.339663	-1.225714	0.266236
C19	C	0.032751	-1.415266	0.277530
C20	C	0.034361	-1.530401	0.291116
C21	C	0.047766	-0.680732	0.404679
C22	C	0.046260	-0.572551	0.391919
C23	C	0.023963	-0.596441	0.203068
C24	C	0.025468	-0.704622	0.215829
C25	C	0.037372	-0.746763	0.316637
C26	C	0.038886	-0.854946	0.329397
C27	C	0.016580	-0.878833	0.140547
C28	C	0.015074	-0.770652	0.127787
C29	C	0.205301	-1.225093	-0.261175
C30	C	0.192353	-1.222698	-0.370894
C31	C	-0.043800	-1.222694	-0.370922
C32	C	-0.030852	-1.225089	-0.261203
C33	C	0.093703	-1.226290	-0.206333
C34	C	0.106650	-1.228693	-0.096613
C35	C	-0.129503	-1.228681	-0.096643
C36	C	-0.142451	-1.226286	-0.206362
C37	C	0.054010	-1.218951	0.457455
C38	C	0.067806	-1.221500	0.574229
H39	H	0.048577	-0.889255	0.411481
H40	H	0.208068	-1.229674	-0.051939
Cl41	Cl	0.361879	-1.226619	-0.192192
Cl42	Cl	0.008982	-0.543444	0.076348
H43	H	-0.220374	-1.229660	-0.051980
H44	H	0.283228	-1.221719	-0.415541
Cl45	Cl	0.059323	-0.489543	0.502605
Cl46	Cl	0.000108	-0.717664	0.001063
Cl47	Cl	-0.200370	-1.221154	-0.439918
H48	H	-0.243860	-1.225304	-0.251052
Cl49	Cl	0.062748	-0.733714	0.531406
Cl50	Cl	0.003533	-0.961851	0.029859
