data_functionalizedCrystal
_audit_creation_method	'MofGen! by Chris Wilmer'
_symmetry_space_group_name_H-M	'P1'
_symmetry_Int_Tables_number	1
_symmetry_cell_setting	triclinic
loop_
_symmetry_equiv_pos_as_xyz
  x,y,z
_cell_length_a	17.699097
_cell_length_b	8.559649
_cell_length_c	7.088929
_cell_angle_alpha	84.661815
_cell_angle_beta	96.193234
_cell_angle_gamma	76.533548
loop_
_atom_site_label
_atom_site_type_symbol
_atom_site_fract_x
_atom_site_fract_y
_atom_site_fract_z
O1	O	0.983753	0.218668	-0.159134
O2	O	0.761874	0.244937	-0.159102
O3	O	0.892361	-0.000873	-0.159119
O4	O	0.853266	0.464478	-0.159117
O5	O	0.909814	-0.033775	0.158854
O6	O	0.779326	0.212036	0.158871
O7	O	1.001206	0.185766	0.158839
Cu8	Cu	0.891859	0.195897	0.187888
Cu9	Cu	0.871220	0.234807	-0.188151
O10	O	0.870718	0.431577	0.158856
C11	C	0.742457	0.227541	-0.000111
C12	C	0.658603	0.224705	-0.000099
C13	C	0.134362	0.225270	-0.173504
C14	C	0.213155	0.227922	-0.173494
C15	C	0.262058	0.211315	-0.000159
C16	C	0.232168	0.192040	0.173177
C17	C	0.153378	0.189377	0.173166
C18	C	0.549919	0.202777	0.173228
C19	C	0.628714	0.205446	0.173226
C20	C	0.609697	0.241322	-0.173432
C21	C	0.530907	0.238659	-0.173444
C22	C	0.501024	0.219375	-0.000108
C23	C	0.415588	0.216497	-0.000121
C24	C	0.347491	0.214205	-0.000145
C25	C	0.904050	-0.076865	-0.000136
C26	C	0.912869	-0.254277	-0.000148
C27	C	1.020622	0.203163	-0.000156
C28	C	1.104476	0.206001	-0.000180
C29	C	0.859029	0.507569	-0.000131
C30	C	0.850210	0.684982	-0.000131
N31	N	0.906381	0.168529	0.452374
N32	N	0.856705	0.262162	-0.452637
H33	H	0.237485	0.243603	-0.314631
C34	C	0.716840	0.362884	0.485451
C35	C	0.787194	0.393157	0.437159
H36	H	0.673929	0.443762	0.417422
H37	H	0.713009	0.259632	0.452731
H38	H	0.715863	0.364756	0.618951
H39	H	0.788174	0.391274	0.303660
H40	H	0.791026	0.496436	0.469865
H41	H	0.271992	0.178508	0.314310
C42	C	0.051213	0.105764	-0.374635
C43	C	0.080609	0.243527	-0.364041
H44	H	0.018026	0.117041	-0.492264
H45	H	0.093528	0.012913	-0.367433
H46	H	0.022135	0.093927	-0.271405
H47	H	0.109692	0.255358	-0.467263
H48	H	0.038287	0.336404	-0.371261
C49	C	0.520027	0.274369	-0.516113
C50	C	0.477154	0.256905	-0.363978
H51	H	0.486843	0.285618	-0.633741
H52	H	0.539964	0.367821	-0.508907
H53	H	0.562344	0.181494	-0.508880
H54	H	0.434839	0.349786	-0.371203
H55	H	0.457205	0.163444	-0.371188
C56	C	0.180083	0.154196	0.515835
C57	C	0.120523	0.168202	0.363688
H58	H	0.159798	0.141128	0.633456
H59	H	0.221603	0.062826	0.508627
H60	H	0.199231	0.249152	0.508619
H61	H	0.101378	0.073241	0.370897
H62	H	0.078989	0.259580	0.370900
H63	H	0.789818	-0.231294	-0.000117
H64	H	0.634037	0.257018	-0.314570
C65	C	0.987657	-0.527074	-0.000149
C66	C	0.994404	-0.367300	-0.000161
H67	H	1.037993	-0.596845	-0.000170
H68	H	0.966297	-0.557841	0.110739
H69	H	0.954114	-0.534896	-0.111031
H70	H	1.027942	-0.359475	0.110729
H71	H	1.015775	-0.336525	-0.111060
H72	H	0.525602	0.187051	0.314368
H73	H	0.957870	0.071510	0.534014
H74	H	0.668530	0.191922	0.314385
