data_functionalizedCrystal
_audit_creation_method	'MofGen! by Chris Wilmer'
_symmetry_space_group_name_H-M	'P1'
_symmetry_Int_Tables_number	1
_symmetry_cell_setting	triclinic
loop_
_symmetry_equiv_pos_as_xyz
  x,y,z
_cell_length_a	16.109301
_cell_length_b	11.026623
_cell_length_c	14.586319
_cell_angle_alpha	90.001738
_cell_angle_beta	90.003489
_cell_angle_gamma	83.975856
loop_
_atom_site_label
_atom_site_type_symbol
_atom_site_fract_x
_atom_site_fract_y
_atom_site_fract_z
O1	O	1.126506	-0.155966	0.076188
O2	O	0.887353	-0.175376	0.076200
O3	O	0.987108	0.010974	0.076190
O4	O	1.026751	-0.342316	0.076198
O5	O	0.987094	0.010963	-0.076291
O6	O	0.887339	-0.175387	-0.076281
O7	O	1.126492	-0.155977	-0.076293
Cu8	Cu	1.006915	-0.165683	-0.090210
Cu9	Cu	1.006931	-0.165670	0.090117
O10	O	1.026737	-0.342327	-0.076283
C11	C	0.856253	-0.174595	-0.000039
C12	C	0.763605	-0.172238	-0.000034
C13	C	0.470022	-0.275108	-0.000048
C14	C	0.557076	-0.277334	-0.000042
C15	C	0.543817	-0.056236	-0.000035
C16	C	0.456764	-0.054011	-0.000033
C17	C	0.419870	-0.163451	-0.000045
C18	C	0.593976	-0.167902	-0.000040
C19	C	0.688363	-0.170315	-0.000035
C20	C	0.325476	-0.161038	-0.000049
C21	C	0.979788	0.056177	-0.000049
C22	C	0.957986	0.190882	-0.000046
C23	C	1.018182	0.264711	-0.000048
C24	C	0.995651	0.403936	-0.000045
C25	C	1.157592	-0.156758	-0.000052
C26	C	1.250241	-0.159115	-0.000051
C27	C	1.034057	0.612470	-0.000044
C28	C	1.055855	0.477764	-0.000047
N29	N	1.006909	-0.165692	-0.217041
C30	C	1.068361	-0.239292	-0.452049
C31	C	1.068369	-0.239284	-0.548030
C32	C	0.945486	-0.092043	-0.548037
C33	C	0.945483	-0.092046	-0.452058
C34	C	1.006920	-0.165677	-0.404066
C35	C	1.006931	-0.165666	-0.596027
C36	C	1.006938	-0.165656	-0.700094
C37	C	1.006914	-0.165686	-0.299992
N38	N	1.006942	-0.165652	0.216948
H39	H	0.573867	0.032865	-0.000028
C40	C	0.401593	0.068827	-0.000036
N41	N	0.360038	0.161345	-0.000038
C42	C	1.148019	0.423924	-0.000053
N43	N	1.217436	0.383370	-0.000058
C44	C	0.865827	0.244730	-0.000043
N45	N	0.796411	0.285287	-0.000043
H46	H	0.895449	-0.032093	-0.412989
C47	C	0.903487	0.457779	-0.000042
N48	N	0.834071	0.498336	-0.000042
H49	H	1.118401	-0.299227	-0.587093
H50	H	0.439986	-0.364221	-0.000056
H51	H	1.118387	-0.299248	-0.412977
H52	H	0.597907	-0.368257	-0.000044
H53	H	1.086398	0.224847	-0.000057
H54	H	0.895466	-0.032096	-0.587124
