data_functionalizedCrystal
_audit_creation_method	'MofGen! by Chris Wilmer'
_symmetry_space_group_name_H-M	'P1'
_symmetry_Int_Tables_number	1
_symmetry_cell_setting	triclinic
loop_
_symmetry_equiv_pos_as_xyz
  x,y,z
_cell_length_a	18.050591
_cell_length_b	19.121111
_cell_length_c	18.050582
_cell_angle_alpha	92.417072
_cell_angle_beta	90.019760
_cell_angle_gamma	87.533013
loop_
_atom_site_label
_atom_site_type_symbol
_atom_site_fract_x
_atom_site_fract_y
_atom_site_fract_z
Zn1	Zn	1.122670	0.279726	0.432617
Zn2	Zn	1.622670	0.779726	0.932617
Zn3	Zn	1.117281	0.397170	0.313721
Zn4	Zn	1.617281	0.897170	0.813721
Zn5	Zn	0.998489	0.279729	0.308431
Zn6	Zn	1.498489	0.779729	0.808431
Zn7	Zn	0.993139	0.397133	0.437857
Zn8	Zn	1.493139	0.897133	0.937857
O9	O	1.057894	0.338440	0.373157
O10	O	1.557894	0.838440	0.873157
O11	O	1.225879	0.295318	0.416866
O12	O	1.725879	0.795318	0.916866
O13	O	1.101506	0.381608	0.209095
O14	O	1.601506	0.881608	0.709095
O15	O	1.019456	0.181444	0.320498
O16	O	1.519456	0.681444	0.820498
O17	O	1.221919	0.381604	0.329514
O18	O	1.721919	0.881604	0.829514
O19	O	1.110691	0.181441	0.411737
O20	O	1.610691	0.681441	0.911737
O21	O	1.014230	0.295325	0.205209
O22	O	1.514230	0.795325	0.705209
O23	O	0.893855	0.295290	0.325579
O24	O	1.393855	0.795290	0.825579
O25	O	1.010338	0.381542	0.541086
O26	O	1.510338	0.881542	1.041086
O27	O	0.889924	0.381546	0.420668
O28	O	1.389924	0.881546	0.920668
O29	O	1.105503	0.295283	0.537236
O30	O	1.605503	0.795283	1.037236
O31	O	1.096319	0.495450	0.334595
O32	O	1.596319	0.995450	0.834595
O33	O	1.005112	0.495423	0.425797
O34	O	1.505112	0.995423	0.925797
C35	C	0.864943	0.338415	0.373118
C36	C	1.364943	0.838415	0.873118
C37	C	0.782397	0.338421	0.373120
C38	C	1.282397	0.838421	0.873120
C39	C	1.049570	0.520921	0.381355
C40	C	1.549570	1.020921	0.881355
C41	C	1.046077	0.598987	0.384887
C42	C	1.546077	1.098987	0.884887
C43	C	0.535690	0.291466	0.321526
C44	C	1.035690	0.791466	0.821526
C45	C	0.585894	0.274367	0.388531
C46	C	1.085894	0.774367	0.888531
C47	C	0.485275	0.338457	0.373183
C48	C	0.985275	0.838457	0.873183
C49	C	0.582156	0.355506	0.306149
C50	C	1.082156	0.855506	0.806149
C51	C	0.631261	0.338438	0.373148
C52	C	1.131261	0.838438	0.873148
C53	C	0.534393	0.321324	0.440223
C54	C	1.034393	0.821324	0.940223
C55	C	0.530650	0.402493	0.357796
C56	C	1.030650	0.902493	0.857796
C57	C	0.580830	0.385418	0.424849
C58	C	1.080830	0.885418	0.924849
C59	C	0.401177	0.338466	0.373201
C60	C	0.901177	0.838466	0.873201
C61	C	0.715358	0.338428	0.373137
C62	C	1.215358	0.838428	0.873137
C63	C	1.091959	0.635653	0.339102
C64	C	1.591959	1.135653	0.839102
C65	C	1.088678	0.709004	0.342428
C66	C	1.588678	1.209004	0.842428
C67	C	1.039511	0.745688	0.391537
C68	C	1.539511	1.245688	0.891537
C69	C	0.993627	0.709017	0.437327
C70	C	1.493627	1.209017	0.937327
C71	C	0.996912	0.635667	0.434004
C72	C	1.496912	1.135667	0.934004
C73	C	1.027218	0.967158	0.403947
C74	C	1.527218	1.467158	0.903947
C75	C	1.023934	1.040514	0.407265
C76	C	1.523934	1.540514	0.907265
C77	C	1.118987	1.040496	0.312367
C78	C	1.618987	1.540496	0.812367
C79	C	1.122265	0.967145	0.309045
C80	C	1.622265	1.467145	0.809045
C81	C	1.076383	0.930480	0.354838
C82	C	1.576383	1.430480	0.854838
C83	C	1.036154	0.820665	0.394936
C84	C	1.536154	1.320665	0.894936
C85	C	1.079744	0.855504	0.351442
C86	C	1.579744	1.355504	0.851442
C87	C	1.251599	0.338465	0.373195
C88	C	1.751599	0.838465	0.873195
C89	C	1.334144	0.338476	0.373212
C90	C	1.834144	0.838476	0.873212
C91	C	1.057925	0.338408	0.566861
C92	C	1.557925	0.838408	1.066861
C93	C	1.057938	0.338395	0.649406
C94	C	1.557938	0.838395	1.149406
C95	C	1.066265	1.155246	0.364952
C96	C	1.566265	1.655246	0.864952
C97	C	1.069816	1.077180	0.361480
C98	C	1.569816	1.577180	0.861480
C99	C	1.057909	0.338420	0.180204
C100	C	1.557909	0.838420	0.680204
C101	C	1.058049	0.338235	0.097650
C102	C	1.558049	0.838235	0.597650
C103	C	1.006228	0.385239	0.850948
C104	C	1.506228	0.885239	1.350948
C105	C	1.073208	0.402411	0.901119
C106	C	1.573208	0.902411	1.401119
C107	C	1.057977	0.338342	0.800534
C108	C	1.557977	0.838342	1.300534
C109	C	0.991035	0.321150	0.897444
C110	C	1.491035	0.821150	1.397444
C111	C	1.058009	0.338291	0.946517
C112	C	1.558009	0.838291	1.446517
C113	C	1.124991	0.355547	0.849620
C114	C	1.624991	0.855547	1.349620
C115	C	1.042774	0.274256	0.845939
C116	C	1.542774	0.774256	1.345939
C117	C	1.109802	0.291404	0.896087
C118	C	1.609802	0.791404	1.396087
C119	C	1.057958	0.338372	0.716437
C120	C	1.557958	0.838372	1.216437
C121	C	1.058036	0.338260	1.030612
C122	C	1.558036	0.838260	1.530612
H123	H	0.515804	0.251706	0.277907
H124	H	1.015804	0.751706	0.777907
H125	H	0.962502	0.424950	0.831062
H126	H	1.462502	0.924950	1.331062
N127	N	0.616208	0.206421	0.404856
N128	N	1.116208	0.706421	0.904856
N129	N	0.574000	0.157785	0.415976
N130	N	1.074000	0.657785	0.915976
H131	H	0.595407	0.109797	0.427502
H132	H	1.095407	0.609797	0.927502
H133	H	1.029875	0.220098	0.821781
H134	H	1.529875	0.720098	1.321781
N135	N	1.142192	0.598184	0.288947
N136	N	1.642192	1.098184	0.788947
N137	N	1.191335	0.557206	0.313268
N138	N	1.691335	1.057206	0.813268
H139	H	1.226815	0.530744	0.277846
H140	H	1.726815	1.030744	0.777846
N141	N	0.608508	0.373627	0.235058
N142	N	1.108508	0.873627	0.735058
N143	N	0.645689	0.426786	0.229236
N144	N	1.145689	0.926786	0.729236
H145	H	0.664299	0.439581	0.179027
H146	H	1.164299	0.939581	0.679027
H147	H	0.934409	0.306630	0.918479
H148	H	1.434409	0.806630	1.418479
H149	H	1.126040	0.738855	0.305144
H150	H	1.626040	1.238855	0.805144
N151	N	1.172479	0.929691	0.258860
N152	N	1.672479	1.429691	0.758860
N153	N	1.167211	0.937945	0.190705
N154	N	1.667211	1.437945	0.690705
H155	H	1.202673	0.911499	0.155252
H156	H	1.702673	1.411499	0.655252
N157	N	0.508151	0.303156	0.511339
N158	N	1.008151	0.803156	1.011339
N159	N	0.440093	0.300214	0.522825
N160	N	0.940093	0.800214	1.022825
H161	H	0.421557	0.287385	0.573050
H162	H	0.921557	0.787385	1.073050
H163	H	1.119779	0.825634	0.311460
H164	H	1.619779	1.325634	0.811460
H165	H	0.983905	1.070380	0.447268
H166	H	1.483905	1.570380	0.947268
N167	N	0.605603	0.435257	0.479696
N168	N	1.105603	0.935257	0.979696
N169	N	0.589945	0.428916	0.546461
N170	N	1.089945	0.928916	1.046461
H171	H	0.607441	0.464112	0.585199
H172	H	1.107441	0.964112	1.085199
N173	N	0.500314	0.470421	0.341450
N174	N	1.000314	0.970421	0.841450
N175	N	0.514891	0.496493	0.281082
N176	N	1.014891	0.996493	0.781082
H177	H	0.493466	0.544467	0.269530
H178	H	0.993466	1.044467	0.769530
H179	H	0.996121	0.850541	0.434919
H180	H	1.496121	1.350541	0.934919
H181	H	1.086086	0.456585	0.925261
H182	H	1.586086	0.956585	1.425261
H183	H	1.156342	1.070357	0.275086
H184	H	1.656342	1.570357	0.775086
N185	N	0.980347	0.929723	0.450727
N186	N	1.480347	1.429723	0.950727
N187	N	0.936451	0.962488	0.494568
N188	N	1.436451	1.462488	0.994568
H189	H	0.903346	0.936047	0.527608
H190	H	1.403346	1.436047	1.027608
N191	N	0.943414	0.746497	0.487493
N192	N	1.443414	1.246497	0.987493
N193	N	0.940487	0.811987	0.490455
N194	N	1.440487	1.311987	0.990455
H195	H	0.905022	0.838458	0.525885
H196	H	1.405022	1.338458	1.025885
H197	H	1.181631	0.370129	0.828679
H198	H	1.681631	0.870129	1.328679
N199	N	0.950044	0.598222	0.480783
N200	N	1.450044	1.098222	0.980783
N201	N	0.906149	0.630981	0.524629
N202	N	1.406149	1.130981	1.024629
H203	H	0.873049	0.604537	0.557671
H204	H	1.373049	1.104537	1.057671
N205	N	1.164783	0.241627	0.920860
N206	N	1.664783	0.741627	1.420860
N207	N	1.231520	0.248071	0.905175
N208	N	1.731520	0.748071	1.405175
H209	H	1.270352	0.212918	0.922671
H210	H	1.770352	0.712918	1.422671
