data_functionalizedCrystal
_audit_creation_method	'MofGen! by Chris Wilmer'
_symmetry_space_group_name_H-M	'P1'
_symmetry_Int_Tables_number	1
_symmetry_cell_setting	triclinic
loop_
_symmetry_equiv_pos_as_xyz
  x,y,z
_cell_length_a	17.038272
_cell_length_b	17.038272
_cell_length_c	15.500227
_cell_angle_alpha	93.033254
_cell_angle_beta	86.956295
_cell_angle_gamma	91.111556
loop_
_atom_site_label
_atom_site_type_symbol
_atom_site_fract_x
_atom_site_fract_y
_atom_site_fract_z
O1	O	1.052160	0.167139	-0.071836
O2	O	0.824350	0.164430	-0.071862
O3	O	0.936901	0.051879	-0.071842
O4	O	0.939609	0.279690	-0.071856
O5	O	0.930069	0.058680	0.072045
O6	O	0.817518	0.171231	0.072026
O7	O	1.045328	0.173940	0.072051
Cu8	Cu	0.930799	0.173207	0.085177
Cu9	Cu	0.938879	0.165164	-0.084987
O10	O	0.932777	0.286491	0.072032
C11	C	0.791641	0.165368	0.000079
C12	C	0.704358	0.158019	0.000069
C13	C	0.658749	0.225482	0.000066
C14	C	0.576737	0.218574	0.000078
C15	C	0.540335	0.144201	0.000088
C16	C	0.585950	0.076733	0.000094
C17	C	0.667961	0.083642	0.000088
C18	C	0.292946	0.119792	0.000112
C19	C	0.210929	0.112887	0.000116
C20	C	0.201721	0.254729	0.000102
C21	C	0.283734	0.261632	0.000091
C22	C	0.329342	0.194164	0.000101
C23	C	0.456505	0.137138	0.000098
C24	C	0.413170	0.201228	0.000098
C25	C	0.931022	0.025987	0.000101
C26	C	0.923674	-0.061297	0.000100
C27	C	0.991137	-0.106906	0.000108
C28	C	0.984229	-0.188918	0.000100
C29	C	0.909856	-0.225320	0.000088
C30	C	0.842388	-0.179705	0.000077
C31	C	0.849297	-0.097694	0.000080
C32	C	0.885446	-0.472708	0.000074
C33	C	0.878541	-0.554725	0.000074
C34	C	1.020383	-0.563932	0.000094
C35	C	1.027286	-0.481919	0.000102
C36	C	0.959818	-0.436312	0.000087
C37	C	0.902792	-0.309149	0.000082
C38	C	0.966882	-0.352484	0.000087
C39	C	1.078037	0.173003	0.000109
C40	C	1.165320	0.180351	0.000113
C41	C	0.938656	0.312383	0.000087
C42	C	0.946004	0.399667	0.000082
N43	N	0.925122	0.178864	0.204861
N44	N	0.944561	0.159501	-0.204671
C45	C	0.972833	0.131192	0.250145
C46	C	0.968547	0.135478	0.340718
C47	C	0.916555	0.187440	0.386003
C48	C	0.868839	0.235114	0.340712
C49	C	0.873121	0.230823	0.250142
C50	C	0.901128	0.202884	0.659467
C51	C	0.896851	0.207172	0.750044
C52	C	0.996559	0.107535	0.750044
C53	C	1.000840	0.103252	0.659471
C54	C	0.953121	0.150923	0.614188
C55	C	0.912174	0.191824	0.478582
C56	C	0.957498	0.146534	0.521610
H57	H	0.313367	0.322194	0.000073
O58	O	1.085934	-0.608195	0.000253
C59	C	1.201542	-0.637607	0.074774
C60	C	1.127319	-0.587442	0.074718
H61	H	1.235032	-0.620835	0.134964
H62	H	1.183875	-0.702485	0.074825
H63	H	1.240696	-0.626601	0.014533
H64	H	1.088132	-0.598380	0.134949
H65	H	1.145042	-0.522580	0.074623
H66	H	0.442811	0.261782	0.000095
H67	H	0.164579	0.309658	0.000096
H68	H	0.834269	0.269642	0.213271
O69	O	0.818219	0.285500	0.384663
C70	C	0.683418	0.323691	0.412351
C71	C	0.740655	0.266563	0.362540
H72	H	0.620697	0.308411	0.394469
H73	H	0.688485	0.318566	0.484873
H74	H	0.698710	0.386432	0.394541
H75	H	0.725401	0.203798	0.380277
H76	H	0.735577	0.271757	0.290030
O77	O	0.532389	0.284090	0.000220
C78	C	0.430884	0.362113	0.074723
C79	C	0.481070	0.287897	0.074683
H80	H	0.389369	0.365207	0.134912
H81	H	0.470945	0.416488	0.074763
H82	H	0.395146	0.359558	0.014481
H83	H	0.516814	0.290376	0.134915
H84	H	0.440966	0.233553	0.074599
H85	H	0.330070	0.064854	0.000122
H86	H	0.426857	0.076584	0.000130
H87	H	0.999827	0.104223	0.484736
H88	H	1.015175	0.088882	0.213280
O89	O	0.861602	0.242318	0.522440
C90	C	0.763189	0.340726	0.512894
C91	C	0.820418	0.283569	0.463115
H92	H	0.729888	0.374105	0.464951
H93	H	0.719651	0.306225	0.555280
H94	H	0.797709	0.384205	0.555314
H95	H	0.785964	0.240078	0.420648
H96	H	0.863956	0.318122	0.420783
H97	H	0.181294	0.052321	0.000123
H98	H	0.688381	0.286045	0.000058
H99	H	1.087848	-0.452287	0.000111
O100	O	0.550562	0.004497	-0.000050
C101	C	0.466807	-0.089127	-0.074558
C102	C	0.506851	-0.007307	-0.074509
H103	H	0.431444	-0.098690	-0.134742
H104	H	0.513464	-0.136196	-0.074611
H105	H	0.425823	-0.093045	-0.014312
H106	H	0.547831	-0.003312	-0.134745
H107	H	0.460153	0.039723	-0.074412
O108	O	0.712153	0.018026	0.000048
C109	C	0.712634	-0.123388	0.000109
C110	C	0.662495	-0.049142	0.000131
H111	H	0.672505	-0.177711	0.000195
H112	H	0.754093	-0.126602	-0.060124
H113	H	0.748428	-0.120808	0.060310
H114	H	0.626652	-0.051671	-0.060029
H115	H	0.621086	-0.045954	0.060403
O116	O	1.049841	-0.233103	0.000152
C117	C	1.191259	-0.233583	0.000134
C118	C	1.117014	-0.183449	0.000095
H119	H	1.245587	-0.193460	0.000070
H120	H	1.188760	-0.269348	0.060364
H121	H	1.194391	-0.275068	-0.060070
H122	H	1.113834	-0.141920	0.060258
H123	H	1.119543	-0.147737	-0.060175
O124	O	0.806234	-0.589963	0.000015
C125	C	0.666273	-0.572179	0.000026
C126	C	0.748107	-0.532171	0.000073
H127	H	0.619255	-0.525472	0.000092
H128	H	0.662312	-0.613163	-0.060207
H129	H	0.656669	-0.607526	0.060227
H130	H	0.757765	-0.496783	-0.060087
H131	H	0.752029	-0.491233	0.060346
H132	H	1.051699	-0.077273	0.000123
O133	O	0.819938	-0.428388	-0.000089
C134	C	0.748968	-0.333947	-0.074618
C135	C	0.823189	-0.384113	-0.074552
H136	H	0.751580	-0.298125	-0.134806
H137	H	0.694605	-0.374023	-0.074679
H138	H	0.745798	-0.292511	-0.014375
H139	H	0.826435	-0.425554	-0.134785
H140	H	0.877517	-0.343990	-0.074446
H141	H	0.781832	-0.209350	0.000063
H142	H	0.794361	-0.060560	0.000073
H143	H	1.027437	-0.322844	0.000077
H144	H	0.842237	-0.338796	0.000075
O145	O	1.014931	0.089289	0.384807
C146	C	1.116266	0.084627	0.487019
C147	C	1.063770	0.137028	0.437155
H148	H	1.155777	0.123203	0.529341
H149	H	1.077790	0.045142	0.529491
H150	H	1.154133	0.046734	0.439083
H151	H	1.025895	0.174969	0.485028
H152	H	1.102291	0.176461	0.394670
H153	H	1.043177	0.060940	0.622602
O154	O	1.042865	0.061109	0.793940
C155	C	1.078445	-0.071051	0.821709
C156	C	1.025973	-0.018559	0.771927
H157	H	1.064795	-0.135473	0.803944
H158	H	1.142883	-0.057513	0.803878
H159	H	1.066465	-0.059020	0.894216
H160	H	1.037883	-0.030560	0.699409
H161	H	0.961552	-0.032107	0.789830
H162	H	0.854510	0.249490	0.786912
H163	H	0.862274	0.241701	0.622605
