data_functionalizedCrystal
_audit_creation_method	'MofGen! by Chris Wilmer'
_symmetry_space_group_name_H-M	'P1'
_symmetry_Int_Tables_number	1
_symmetry_cell_setting	triclinic
loop_
_symmetry_equiv_pos_as_xyz
  x,y,z
_cell_length_a	25.639242
_cell_length_b	25.639240
_cell_length_c	25.639233
_cell_angle_alpha	90.025929
_cell_angle_beta	90.014348
_cell_angle_gamma	90.025061
loop_
_atom_site_label
_atom_site_type_symbol
_atom_site_fract_x
_atom_site_fract_y
_atom_site_fract_z
Zn1	Zn	0.799247	-0.208322	0.295607
Zn2	Zn	1.132580	0.125012	0.628940
Zn3	Zn	1.465913	0.458345	0.962274
Zn4	Zn	0.799179	-0.295741	0.208160
Zn5	Zn	1.132512	0.037593	0.541494
Zn6	Zn	1.465846	0.370926	0.874827
Zn7	Zn	0.711823	-0.208309	0.208183
Zn8	Zn	1.045156	0.125024	0.541516
Zn9	Zn	1.378490	0.458357	0.874850
Zn10	Zn	0.711777	-0.295716	0.295562
Zn11	Zn	1.045110	0.037617	0.628896
Zn12	Zn	1.378444	0.370950	0.962229
O13	O	0.755506	-0.252022	0.251878
O14	O	1.088840	0.081311	0.585212
O15	O	1.422173	0.414645	0.918545
O16	O	0.872403	-0.219933	0.284016
O17	O	1.205736	0.113400	0.617350
O18	O	1.539069	0.446733	0.950683
O19	O	0.787582	-0.284148	0.134998
O20	O	1.120915	0.049186	0.468332
O21	O	1.454249	0.382519	0.801665
O22	O	0.723467	-0.135146	0.219808
O23	O	1.056801	0.198188	0.553142
O24	O	1.390134	0.531521	0.886475
O25	O	0.872353	-0.284160	0.219770
O26	O	1.205687	0.049174	0.553103
O27	O	1.539020	0.382507	0.886436
O28	O	0.787697	-0.135155	0.284038
O29	O	1.121030	0.198178	0.617372
O30	O	1.454364	0.531512	0.950705
O31	O	0.723402	-0.219912	0.135015
O32	O	1.056735	0.113421	0.468348
O33	O	1.390068	0.446755	0.801682
O34	O	0.638652	-0.219889	0.219765
O35	O	0.971985	0.113445	0.553098
O36	O	1.305318	0.446778	0.886432
O37	O	0.723389	-0.284118	0.368733
O38	O	1.056722	0.049215	0.702067
O39	O	1.390056	0.382548	1.035400
O40	O	0.638618	-0.284106	0.283962
O41	O	0.971951	0.049227	0.617295
O42	O	1.305285	0.382561	0.950629
O43	O	0.787653	-0.219910	0.368766
O44	O	1.120986	0.113423	0.702100
O45	O	1.454319	0.446757	1.035433
O46	O	0.787538	-0.368903	0.219726
O47	O	1.120871	-0.035569	0.553060
O48	O	1.454204	0.297764	0.886393
O49	O	0.723324	-0.368885	0.283940
O50	O	1.056657	-0.035551	0.617273
O51	O	1.389990	0.297782	0.950607
C52	C	0.619664	-0.251994	0.251861
C53	C	0.952997	0.081340	0.585195
C54	C	1.286330	0.414673	0.918528
C55	C	0.561550	-0.251994	0.251866
C56	C	0.894883	0.081339	0.585200
C57	C	1.228216	0.414672	0.918533
C58	C	0.310390	-0.218639	0.285392
C59	C	0.643724	0.114695	0.618726
C60	C	0.977057	0.448028	0.952059
C61	C	0.364994	-0.218634	0.285389
C62	C	0.698328	0.114700	0.618723
C63	C	1.031661	0.448033	0.952056
O64	O	0.393260	-0.190251	0.313891
O65	O	0.726593	0.143083	0.647224
O66	O	1.059927	0.476416	0.980557
N67	N	0.392276	-0.252016	0.251884
N68	N	0.725609	0.081317	0.585218
N69	N	1.058943	0.414651	0.918551
C70	C	0.364950	-0.285409	0.218383
C71	C	0.698283	0.047924	0.551717
C72	C	1.031617	0.381257	0.885050
O73	O	0.393169	-0.313803	0.189885
O74	O	0.726502	0.019530	0.523218
O75	O	1.059836	0.352863	0.856551
C76	C	0.310347	-0.285417	0.218389
C77	C	0.643680	0.047917	0.551723
C78	C	0.977013	0.381250	0.885056
C79	C	0.283068	-0.252028	0.251893
C80	C	0.616402	0.081305	0.585227
C81	C	0.949735	0.414638	0.918560
C82	C	0.283112	-0.185254	0.318894
C83	C	0.616445	0.148080	0.652227
C84	C	0.949778	0.481413	0.985561
C85	C	0.228511	-0.185258	0.318896
C86	C	0.561844	0.148075	0.652229
C87	C	0.895178	0.481408	0.985563
C88	C	0.201189	-0.218648	0.285397
C89	C	0.534522	0.114685	0.618730
C90	C	0.867856	0.448019	0.952063
C91	C	0.228468	-0.252033	0.251895
C92	C	0.561801	0.081300	0.585229
C93	C	0.895134	0.414634	0.918562
C94	C	0.283022	-0.318812	0.184892
C95	C	0.616355	0.014521	0.518225
C96	C	0.949689	0.347854	0.851558
C97	C	0.228415	-0.318817	0.184901
C98	C	0.561748	0.014516	0.518234
C99	C	0.895082	0.347850	0.851568
C100	C	0.201136	-0.285429	0.218405
C101	C	0.534470	0.047904	0.551738
C102	C	0.867803	0.381238	0.885071
C103	C	0.146545	-0.285427	0.218398
C104	C	0.479879	0.047906	0.551732
C105	C	0.813212	0.381239	0.885065
N106	N	0.119264	-0.252045	0.251904
N107	N	0.452597	0.081288	0.585237
N108	N	0.785930	0.414622	0.918570
C109	C	0.146586	-0.218655	0.285403
C110	C	0.479919	0.114678	0.618736
C111	C	0.813252	0.448011	0.952069
C112	C	0.479621	-0.285392	0.218374
C113	C	0.812954	0.047942	0.551707
C114	C	1.146287	0.381275	0.885041
C115	C	0.534223	-0.285382	0.218365
C116	C	0.867556	0.047951	0.551698
C117	C	1.200890	0.381284	0.885032
C118	C	0.534264	-0.218607	0.285372
C119	C	0.867597	0.114726	0.618705
C120	C	1.200930	0.448060	0.952039
C121	C	0.479660	-0.218614	0.285378
C122	C	0.812994	0.114719	0.618711
C123	C	1.146327	0.448052	0.952045
C124	C	0.452339	-0.252010	0.251879
C125	C	0.785673	0.081324	0.585213
C126	C	1.119006	0.414657	0.918546
C127	C	0.031921	-0.218667	0.285404
C128	C	0.365254	0.114666	0.618738
C129	C	0.698587	0.447999	0.952071
C130	C	-0.022685	-0.218673	0.285402
C131	C	0.310649	0.114660	0.618735
C132	C	0.643982	0.447993	0.952069
C133	C	-0.022721	-0.285450	0.218397
C134	C	0.310613	0.047883	0.551731
C135	C	0.643946	0.381217	0.885064
C136	C	0.031880	-0.285442	0.218398
C137	C	0.365213	0.047891	0.551731
C138	C	0.698547	0.381224	0.885064
C139	C	0.059199	-0.252049	0.251905
C140	C	0.392533	0.081284	0.585239
C141	C	0.725866	0.414617	0.918572
O142	O	0.118245	-0.313797	0.189913
O143	O	0.451578	0.019536	0.523246
O144	O	0.784912	0.352870	0.856580
O145	O	0.118360	-0.190271	0.313902
O146	O	0.451694	0.143062	0.647235
O147	O	0.785027	0.476396	0.980568
C148	C	0.755432	-0.387865	0.251837
C149	C	1.088766	-0.054531	0.585171
C150	C	1.422099	0.278802	0.918504
C151	C	0.755449	-0.445979	0.251837
C152	C	1.088782	-0.112645	0.585171
C153	C	1.422115	0.220688	0.918504
C154	C	0.788967	-0.806308	0.285383
C155	C	1.122301	-0.472975	0.618716
C156	C	1.455634	-0.139641	0.952050
C157	C	0.788983	-0.860912	0.285394
C158	C	1.122316	-0.527579	0.618727
C159	C	1.455650	-0.194246	0.952060
O160	O	0.817394	-0.889120	0.313874
O161	O	1.150727	-0.555787	0.647207
O162	O	1.484060	-0.222454	0.980540
N163	N	0.755579	-0.888261	0.251929
N164	N	1.088912	-0.554928	0.585262
N165	N	1.422246	-0.221594	0.918595
C166	C	0.722154	-0.861003	0.218455
C167	C	1.055487	-0.527669	0.551788
C168	C	1.388820	-0.194336	0.885121
O169	O	0.693742	-0.889279	0.189991
O170	O	1.027075	-0.555946	0.523325
O171	O	1.360409	-0.222612	0.856658
C172	C	0.722136	-0.806399	0.218447
C173	C	1.055469	-0.473066	0.551780
C174	C	1.388803	-0.139733	0.885114
C175	C	0.755546	-0.779053	0.251911
C176	C	1.088879	-0.445720	0.585244
C177	C	1.422212	-0.112387	0.918577
C178	C	0.822374	-0.778962	0.318844
C179	C	1.155707	-0.445629	0.652178
C180	C	1.489041	-0.112295	0.985511
C181	C	0.822359	-0.724361	0.318833
C182	C	1.155693	-0.391028	0.652166
C183	C	1.489026	-0.057695	0.985499
C184	C	0.788938	-0.697107	0.285360
C185	C	1.122271	-0.363774	0.618694
C186	C	1.455604	-0.030440	0.952027
C187	C	0.755531	-0.724453	0.251899
C188	C	1.088864	-0.391120	0.585232
C189	C	1.422198	-0.057786	0.918566
C190	C	0.688708	-0.779142	0.184976
C191	C	1.022042	-0.445809	0.518309
C192	C	1.355375	-0.112475	0.851643
C193	C	0.688693	-0.724535	0.184972
C194	C	1.022027	-0.391202	0.518305
C195	C	1.355360	-0.057868	0.851638
C196	C	0.722103	-0.697189	0.218435
C197	C	1.055437	-0.363856	0.551768
C198	C	1.388770	-0.030522	0.885102
C199	C	0.722094	-0.642598	0.218415
C200	C	1.055428	-0.309264	0.551748
C201	C	1.388761	0.024069	0.885082
N202	N	0.755498	-0.615249	0.251880
N203	N	1.088832	-0.281916	0.585213
N204	N	1.422165	0.051418	0.918547
C205	C	0.788920	-0.642504	0.285353
C206	C	1.122253	-0.309170	0.618686
C207	C	1.455587	0.024163	0.952019
C208	C	0.722193	-0.975673	0.218474
C209	C	1.055526	-0.642340	0.551807
C210	C	1.388859	-0.309007	0.885141
C211	C	0.722213	-1.030276	0.218478
C212	C	1.055546	-0.696942	0.551812
C213	C	1.388879	-0.363609	0.885145
C214	C	0.789041	-1.030181	0.285418
C215	C	1.122375	-0.696848	0.618752
C216	C	1.455708	-0.363515	0.952085
C217	C	0.789024	-0.975578	0.285411
C218	C	1.122357	-0.642245	0.618744
C219	C	1.455690	-0.308911	0.952077
C220	C	0.755597	-0.948324	0.251939
C221	C	1.088930	-0.614991	0.585272
C222	C	1.422263	-0.281658	0.918606
C223	C	0.788887	-0.527838	0.285326
C224	C	1.122220	-0.194505	0.618659
C225	C	1.455553	0.138828	0.951992
C226	C	0.788870	-0.473233	0.285310
C227	C	1.122204	-0.139900	0.618643
C228	C	1.455537	0.193434	0.951976
C229	C	0.722040	-0.473332	0.218372
C230	C	1.055373	-0.139999	0.551705
C231	C	1.388707	0.193335	0.885039
C232	C	0.722058	-0.527933	0.218386
C233	C	1.055391	-0.194599	0.551719
C234	C	1.388725	0.138734	0.885053
C235	C	0.755483	-0.555185	0.251867
C236	C	1.088816	-0.221851	0.585200
C237	C	1.422150	0.111482	0.918534
O238	O	0.693697	-0.614355	0.189951
O239	O	1.027030	-0.281022	0.523285
O240	O	1.360363	0.052312	0.856618
O241	O	0.817322	-0.614221	0.313816
O242	O	1.150655	-0.280887	0.647149
O243	O	1.483989	0.052446	0.980483
C244	C	0.891879	-0.252051	0.251895
C245	C	1.225213	0.081283	0.585229
C246	C	1.558546	0.414616	0.918562
C247	C	0.949993	-0.252063	0.251903
C248	C	1.283327	0.081270	0.585236
C249	C	1.616660	0.414604	0.918570
C250	C	0.755523	-0.252013	0.388251
C251	C	1.088857	0.081321	0.721585
C252	C	1.422190	0.414654	1.054918
C253	C	0.755530	-0.252009	0.446365
C254	C	1.088864	0.081324	0.779699
C255	C	1.422197	0.414658	1.113032
C256	C	0.755595	-0.115649	0.251931
C257	C	1.088928	0.217684	0.585264
C258	C	1.422261	0.551018	0.918597
C259	C	0.755632	-0.057535	0.251953
C260	C	1.088966	0.275798	0.585287
C261	C	1.422299	0.609132	0.918620
C262	C	0.755520	-0.251993	0.116036
C263	C	1.088853	0.081340	0.449369
C264	C	1.422186	0.414673	0.782702
C265	C	0.755614	-0.251850	0.057922
C266	C	1.088947	0.081483	0.391255
C267	C	1.422280	0.414817	0.724589
C268	C	0.789035	-0.218476	0.806751
C269	C	1.122368	0.114857	1.140085
C270	C	1.455701	0.448190	1.473418
C271	C	0.789041	-0.218462	0.861356
C272	C	1.122375	0.114872	1.194689
C273	C	1.455708	0.448205	1.528022
O274	O	0.817486	-0.190013	0.889612
O275	O	1.150819	0.143321	1.222945
O276	O	1.484152	0.476654	1.556278
N277	N	0.755588	-0.251886	0.888648
N278	N	1.088921	0.081447	1.221981
N279	N	1.422255	0.414780	1.555315
C280	C	0.722122	-0.285324	0.861333
C281	C	1.055456	0.048010	1.194667
C282	C	1.388789	0.381343	1.528000
O283	O	0.693668	-0.313752	0.889561
O284	O	1.027001	0.019581	1.222895
O285	O	1.360335	0.352914	1.556228
C286	C	0.722114	-0.285335	0.806730
C287	C	1.055447	0.047998	1.140063
C288	C	1.388780	0.381332	1.473397
C289	C	0.755573	-0.251912	0.779440
C290	C	1.088906	0.081421	1.112774
C291	C	1.422240	0.414754	1.446107
C292	C	0.822491	-0.185056	0.779462
C293	C	1.155824	0.148278	1.112795
C294	C	1.489158	0.481611	1.446128
C295	C	0.822485	-0.185071	0.724861
C296	C	1.155818	0.148262	1.058194
C297	C	1.489152	0.481596	1.391528
C298	C	0.789023	-0.218507	0.697550
C299	C	1.122356	0.114827	1.030884
C300	C	1.455690	0.448160	1.364217
C301	C	0.755567	-0.251927	0.724840
C302	C	1.088900	0.081406	1.058173
C303	C	1.422234	0.414739	1.391506
C304	C	0.688646	-0.318770	0.779416
C305	C	1.021979	0.014564	1.112749
C306	C	1.355312	0.347897	1.446083
C307	C	0.688640	-0.318778	0.724809
C308	C	1.021973	0.014556	1.058142
C309	C	1.355306	0.347889	1.391476
C310	C	0.722099	-0.285355	0.697519
C311	C	1.055432	0.047979	1.030853
C312	C	1.388766	0.381312	1.364186
C313	C	0.722099	-0.285379	0.642928
C314	C	1.055432	0.047955	0.976262
C315	C	1.388766	0.381288	1.309595
N316	N	0.755552	-0.251954	0.615636
N317	N	1.088886	0.081379	0.948969
N318	N	1.422219	0.414713	1.282303
C319	C	0.789014	-0.218518	0.642947
C320	C	1.122348	0.114815	0.976280
C321	C	1.455681	0.448148	1.309614
C322	C	0.722143	-0.285296	0.976004
C323	C	1.055476	0.048037	1.309337
C324	C	1.388809	0.381370	1.642671
C325	C	0.722154	-0.285288	1.030606
C326	C	1.055487	0.048045	1.363940
C327	C	1.388820	0.381379	1.697273
C328	C	0.789072	-0.218425	1.030625
C329	C	1.122405	0.114908	1.363958
C330	C	1.455739	0.448241	1.697292
C331	C	0.789063	-0.218437	0.976022
C332	C	1.122397	0.114897	1.309355
C333	C	1.455730	0.448230	1.642688
C334	C	0.755596	-0.251872	0.948712
C335	C	1.088929	0.081461	1.282045
C336	C	1.422263	0.414795	1.615378
C337	C	0.789000	-0.218553	0.528282
C338	C	1.122333	0.114780	0.861615
C339	C	1.455666	0.448114	1.194948
C340	C	0.788992	-0.218573	0.473676
C341	C	1.122326	0.114760	0.807010
C342	C	1.455659	0.448094	1.140343
C343	C	0.722072	-0.285434	0.473662
C344	C	1.055406	0.047900	0.806996
C345	C	1.388739	0.381233	1.140329
C346	C	0.722081	-0.285416	0.528263
C347	C	1.055415	0.047917	0.861596
C348	C	1.388748	0.381251	1.194930
C349	C	0.755547	-0.251971	0.555571
C350	C	1.088880	0.081362	0.888905
C351	C	1.422213	0.414695	1.222238
O352	O	0.693668	-0.313812	0.614637
O353	O	1.027001	0.019522	0.947971
O354	O	1.360334	0.352855	1.281304
O355	O	0.817459	-0.190090	0.614712
O356	O	1.150792	0.143244	0.948045
O357	O	1.484126	0.476577	1.281379
H358	H	-0.044976	-0.312633	0.191121
H359	H	0.288357	0.020700	0.524454
H360	H	0.621691	0.354034	0.857788
H361	H	0.206173	-0.346013	0.157623
H362	H	0.539506	-0.012680	0.490956
H363	H	0.872840	0.320653	0.824290
O364	O	0.061309	-0.321447	0.182260
O365	O	0.394643	0.011886	0.515593
O366	O	0.727976	0.345219	0.848926
H367	H	0.050818	-0.362496	0.191150
H368	H	0.384151	-0.029163	0.524484
H369	H	0.717485	0.304171	0.857817
O370	O	0.450156	-0.321404	0.182230
O371	O	0.783489	0.011930	0.515563
O372	O	1.116823	0.345263	0.848897
H373	H	0.460631	-0.362451	0.191109
H374	H	0.793965	-0.029117	0.524443
H375	H	1.127298	0.304216	0.857776
O376	O	0.652644	-0.695142	0.148863
O377	O	0.985977	-0.361808	0.482196
O378	O	1.319310	-0.028475	0.815529
H379	H	0.611606	-0.705649	0.157790
H380	H	0.944939	-0.372316	0.491123
H381	H	1.278273	-0.038983	0.824457
H382	H	0.816078	-0.450970	0.312560
H383	H	1.149412	-0.117636	0.645893
H384	H	1.482745	0.215697	0.979226
O385	O	0.824940	-0.557228	0.321433
O386	O	1.158273	-0.223895	0.654766
O387	O	1.491607	0.109438	0.988099
H388	H	0.848168	-0.529032	0.344692
H389	H	1.181501	-0.195699	0.678025
H390	H	1.514835	0.137634	1.011358
O391	O	0.858580	-0.148986	0.808916
O392	O	1.191914	0.184347	1.142249
O393	O	1.525247	0.517681	1.475582
H394	H	0.885170	-0.172384	0.833794
H395	H	1.218503	0.160950	1.167127
H396	H	1.551836	0.494283	1.500460
O397	O	0.858402	-0.694869	0.354918
O398	O	1.191735	-0.361536	0.688251
O399	O	1.525069	-0.028203	1.021584
H400	H	0.881642	-0.723002	0.378191
H401	H	1.214975	-0.389669	0.711524
H402	H	1.548309	-0.056335	1.044858
O403	O	0.686143	-0.946284	0.182359
O404	O	1.019477	-0.612951	0.515693
O405	O	1.352810	-0.279618	0.849026
H406	H	0.659510	-0.921415	0.205725
H407	H	0.992843	-0.588082	0.539058
H408	H	1.326177	-0.254749	0.872391
O409	O	0.825154	-0.182353	1.060091
O410	O	1.158487	0.150981	1.393424
O411	O	1.491821	0.484314	1.726758
H412	H	0.851739	-0.205750	1.084974
H413	H	1.185072	0.127583	1.418307
H414	H	1.518405	0.460916	1.751641
H415	H	0.694841	-0.312636	0.550483
H416	H	1.028174	0.020697	0.883817
H417	H	1.361508	0.354030	1.217150
O418	O	0.825147	-0.182386	0.946588
O419	O	1.158481	0.150948	1.279922
O420	O	1.491814	0.484281	1.613255
H421	H	0.848413	-0.159134	0.974758
H422	H	1.181747	0.174199	1.308092
H423	H	1.515080	0.507533	1.641425
O424	O	0.686067	-0.321338	1.060039
O425	O	1.019401	0.011995	1.393372
O426	O	1.352734	0.345329	1.726705
H427	H	0.662797	-0.344585	1.031868
H428	H	0.996130	-0.011252	1.365202
H429	H	1.329464	0.322081	1.698535
O430	O	0.652672	-0.808627	0.148883
O431	O	0.986005	-0.475294	0.482216
O432	O	1.319338	-0.141960	0.815549
H433	H	0.626064	-0.833511	0.172263
H434	H	0.959397	-0.500178	0.505597
H435	H	1.292731	-0.166844	0.838930
H436	H	0.694830	-0.312658	0.451416
H437	H	1.028163	0.020676	0.784749
H438	H	1.361497	0.354009	1.118083
H439	H	0.457454	-0.191426	0.312659
H440	H	0.790787	0.141907	0.645992
H441	H	1.124120	0.475240	0.979326
O442	O	0.563639	-0.321388	0.182221
O443	O	0.896972	0.011945	0.515554
O444	O	1.230306	0.345278	0.848888
H445	H	0.606200	-0.315776	0.187839
H446	H	0.939533	0.017557	0.521172
H447	H	1.272866	0.350890	0.854506
O448	O	0.686048	-0.321363	0.946545
O449	O	1.019381	0.011971	1.279879
O450	O	1.352714	0.345304	1.613212
H451	H	0.659457	-0.297958	0.921676
H452	H	0.992790	0.035376	1.255010
H453	H	1.326123	0.368709	1.588343
H454	H	0.816254	-1.052382	0.312674
H455	H	1.149587	-0.719049	0.646008
H456	H	1.482921	-0.385715	0.979341
H457	H	0.694857	-0.550199	0.191133
H458	H	1.028190	-0.216866	0.524466
H459	H	1.361524	0.116468	0.857800
O460	O	0.825081	-0.182522	0.444241
O461	O	1.158414	0.150811	0.777574
O462	O	1.491748	0.484144	1.110908
H463	H	0.848345	-0.159267	0.472409
H464	H	1.181679	0.174066	0.805743
H465	H	1.515012	0.507400	1.139076
H466	H	0.695012	-1.052536	0.191223
H467	H	1.028346	-0.719203	0.524557
H468	H	1.361679	-0.385869	0.857890
O469	O	0.652551	-0.354812	0.808842
O470	O	0.985884	-0.021479	1.142176
O471	O	1.319217	0.311855	1.475509
H472	H	0.629278	-0.378054	0.780669
H473	H	0.962612	-0.044720	1.114003
H474	H	1.295945	0.288613	1.447336
O475	O	0.685992	-0.443932	0.182271
O476	O	1.019325	-0.110598	0.515605
O477	O	1.352658	0.222735	0.848938
H478	H	0.691593	-0.401369	0.187893
H479	H	1.024926	-0.068036	0.521226
H480	H	1.358259	0.265297	0.854560
H481	H	0.556519	-0.191420	0.312649
H482	H	0.889852	0.141914	0.645982
H483	H	1.223186	0.475247	0.979316
H484	H	0.661380	-0.346000	0.702576
H485	H	0.994714	-0.012667	1.035909
H486	H	1.328047	0.320667	1.369243
O487	O	0.199095	-0.149247	0.355035
O488	O	0.532428	0.184086	0.688369
O489	O	0.865761	0.517419	1.021702
H490	H	0.174216	-0.172689	0.381592
H491	H	0.507550	0.160645	0.714926
H492	H	0.840883	0.493978	1.048259
O493	O	0.858427	-0.808354	0.354948
O494	O	1.191760	-0.475021	0.688281
O495	O	1.525093	-0.141688	1.021614
H496	H	0.881652	-0.780157	0.378208
H497	H	1.214985	-0.446823	0.711541
H498	H	1.548319	-0.113490	1.044874
O499	O	0.825098	-0.182487	0.557732
O500	O	1.158431	0.150847	0.891066
O501	O	1.491764	0.484180	1.224399
H502	H	0.848362	-0.159257	0.529576
H503	H	1.181695	0.174077	0.862909
H504	H	1.515028	0.507410	1.196242
O505	O	-0.052103	-0.182660	0.321542
O506	O	0.281230	0.150674	0.654875
O507	O	0.614563	0.484007	0.988209
H508	H	-0.076973	-0.156021	0.298194
H509	H	0.256360	0.177312	0.631527
H510	H	0.589693	0.510645	0.964861
O511	O	0.858572	-0.149020	0.695431
O512	O	1.191906	0.184313	1.028765
O513	O	1.525239	0.517647	1.362098
H514	H	0.849628	-0.107982	0.705920
H515	H	1.182962	0.225351	1.039254
H516	H	1.516295	0.558684	1.372587
O517	O	0.061383	-0.182646	0.321538
O518	O	0.394717	0.150688	0.654871
O519	O	0.728050	0.484021	0.988204
H520	H	0.033234	-0.159430	0.344826
H521	H	0.366567	0.173903	0.678159
H522	H	0.699901	0.507236	1.011493
O523	O	0.825059	-0.946084	0.321501
O524	O	1.158393	-0.612751	0.654834
O525	O	1.491726	-0.279417	0.988167
H526	H	0.848301	-0.974215	0.344775
H527	H	1.181634	-0.640881	0.678109
H528	H	1.514967	-0.307548	1.011442
H529	H	0.305351	-0.158064	0.346176
H530	H	0.638685	0.175270	0.679509
H531	H	0.972018	0.508603	1.012842
H532	H	0.305223	-0.346001	0.157609
H533	H	0.638556	-0.012667	0.490943
H534	H	0.971890	0.320666	0.824276
