data_functionalizedCrystal
_audit_creation_method	'MofGen! by Chris Wilmer'
_symmetry_space_group_name_H-M	'P1'
_symmetry_Int_Tables_number	1
_symmetry_cell_setting	triclinic
loop_
_symmetry_equiv_pos_as_xyz
  x,y,z
_cell_length_a	15.072220
_cell_length_b	14.044220
_cell_length_c	14.044220
_cell_angle_alpha	86.811122
_cell_angle_beta	90.001345
_cell_angle_gamma	89.992119
loop_
_atom_site_label
_atom_site_type_symbol
_atom_site_fract_x
_atom_site_fract_y
_atom_site_fract_z
O1	O	0.073692	-1.277179	0.230162
O2	O	0.573692	-0.777179	0.730162
O3	O	0.073714	-1.000508	0.221856
O4	O	0.573714	-0.500508	0.721856
O5	O	0.073694	-1.134691	0.087674
O6	O	0.573694	-0.634691	0.587674
O7	O	0.073711	-1.142996	0.364345
O8	O	0.573711	-0.642996	0.864345
O9	O	-0.073871	-1.134655	0.087679
O10	O	0.426129	-0.634655	0.587679
O11	O	-0.073851	-1.000472	0.221862
O12	O	0.426149	-0.500472	0.721862
O13	O	-0.073873	-1.277144	0.230167
O14	O	0.426127	-0.777144	0.730167
Zn15	Zn	-0.097291	-1.138802	0.226015
Zn16	Zn	0.402709	-0.638802	0.726015
Zn17	Zn	0.097132	-1.138849	0.226009
Zn18	Zn	0.597132	-0.638849	0.726009
O19	O	-0.073854	-1.142961	0.364350
O20	O	0.426146	-0.642961	0.864350
C21	C	-0.000066	-0.964868	0.218223
C22	C	0.499934	-0.464868	0.718223
C23	C	-0.000058	-0.858725	0.207379
C24	C	0.499942	-0.358725	0.707379
N25	N	-0.229980	-1.138777	0.226020
N26	N	0.270020	-0.638777	0.726020
C27	C	-0.000088	-1.131037	0.052054
C28	C	0.499912	-0.631037	0.552054
C29	C	-0.000088	-1.120193	-0.054088
C30	C	0.499912	-0.620193	0.445912
C31	C	-0.589182	-1.138847	0.226005
C32	C	-0.089182	-0.638847	0.726005
C33	C	-0.551564	-1.066763	0.297518
C34	C	-0.051564	-0.566763	0.797518
C35	C	-0.448739	-1.066967	0.297819
C36	C	0.051261	-0.566967	0.797819
C37	C	-0.410978	-1.138811	0.226012
C38	C	0.089022	-0.638811	0.726012
C39	C	-0.448275	-1.240266	0.256192
C40	C	0.051725	-0.740266	0.756192
C41	C	-0.551133	-1.239872	0.256710
C42	C	-0.051133	-0.739872	0.756710
C43	C	-0.551286	-1.110345	0.124155
C44	C	-0.051286	-0.610345	0.624155
C45	C	-0.448423	-1.108116	0.124630
C46	C	0.051577	-0.608116	0.624630
C47	C	-0.310264	-1.138798	0.226015
C48	C	0.189736	-0.638798	0.726015
C49	C	-0.689895	-1.138867	0.226004
C50	C	-0.189895	-0.638867	0.726004
N51	N	0.229821	-1.138881	0.225997
N52	N	0.729821	-0.638881	0.725997
C53	C	-0.000092	-1.312783	0.233800
C54	C	0.499908	-0.812783	0.733800
C55	C	-0.000094	-1.418926	0.244645
C56	C	0.499906	-0.918926	0.744645
C57	C	-0.000076	-0.664388	0.187553
C58	C	0.499924	-0.164388	0.687553
C59	C	-0.000075	-0.613258	0.264467
C60	C	0.499925	-0.113258	0.764467
C61	C	-0.000086	-0.505122	0.253435
C62	C	0.499914	-0.005122	0.753435
C63	C	-0.000066	-0.772534	0.198583
C64	C	0.499934	-0.272534	0.698583
C65	C	-0.000074	-1.100366	-0.248426
C66	C	0.499926	-0.600366	0.251574
C67	C	-0.000078	-1.177281	-0.299556
C68	C	0.499922	-0.677281	0.200444
C69	C	-0.000070	-1.166249	-0.407692
C70	C	0.499930	-0.666249	0.092308
C71	C	-0.000082	-1.111397	-0.140280
C72	C	0.499918	-0.611397	0.359720
C73	C	-0.000069	-1.146614	0.399969
C74	C	0.499931	-0.646614	0.899969
C75	C	-0.000063	-1.157459	0.506112
C76	C	0.499937	-0.657459	1.006112
H77	H	-0.423523	-0.991826	0.278595
H78	H	0.076477	-0.491826	0.778595
C79	C	-0.415228	-1.314939	0.188177
C80	C	0.084772	-0.814939	0.688177
N81	N	-0.390335	-1.371181	0.136946
N82	N	0.109665	-0.871181	0.636946
C83	C	-0.000080	-0.613811	0.087408
C84	C	0.499920	-0.113811	0.587408
N85	N	-0.000079	-0.575706	0.011979
N86	N	0.499921	-0.075706	0.511979
H87	H	-0.576016	-1.295635	0.207128
H88	H	-0.076016	-0.795635	0.707128
H89	H	-0.000067	-0.650697	0.338600
H90	H	0.499933	-0.150697	0.838600
H91	H	-0.000066	-1.026239	-0.285863
H92	H	0.499934	-0.526239	0.214137
C93	C	-0.585029	-0.964952	0.271827
C94	C	-0.085029	-0.464952	0.771827
N95	N	-0.610247	-0.888267	0.252479
N96	N	-0.110247	-0.388267	0.752479
C97	C	-0.586465	-1.092246	0.398804
C98	C	-0.086465	-0.592246	0.898804
N99	N	-0.612753	-1.111444	0.475092
N100	N	-0.112753	-0.611444	0.975092
H101	H	-0.424121	-1.086044	0.373224
H102	H	0.075879	-0.586044	0.873224
C103	C	-0.413471	-1.272929	0.355817
C104	C	0.086529	-0.772929	0.855817
N105	N	-0.387262	-1.297523	0.430858
N106	N	0.112738	-0.797523	0.930858
C107	C	-0.583530	-1.272046	0.357409
C108	C	-0.083530	-0.772046	0.857409
N109	N	-0.607926	-1.296273	0.433261
N110	N	-0.107926	-0.796273	0.933261
H111	H	-0.577272	-1.037515	0.097225
H112	H	-0.077272	-0.537515	0.597225
C113	C	-0.415497	-1.007231	0.093954
C114	C	0.084503	-0.507231	0.593954
N115	N	-0.390693	-0.931244	0.070852
N116	N	0.109307	-0.431244	0.570852
H117	H	-0.422722	-1.156561	0.068268
H118	H	0.077278	-0.656561	0.568268
H119	H	-0.575612	-1.162815	0.070838
H120	H	-0.075612	-0.662815	0.570838
H121	H	-0.000024	-1.251414	-0.262117
H122	H	0.499976	-0.751414	0.237883
