data_functionalizedCrystal
_audit_creation_method	'MofGen! by Chris Wilmer'
_symmetry_space_group_name_H-M	'P1'
_symmetry_Int_Tables_number	1
_symmetry_cell_setting	triclinic
loop_
_symmetry_equiv_pos_as_xyz
  x,y,z
_cell_length_a	19.288864
_cell_length_b	9.198806
_cell_length_c	19.288865
_cell_angle_alpha	89.991591
_cell_angle_beta	96.863755
_cell_angle_gamma	90.017783
loop_
_atom_site_label
_atom_site_type_symbol
_atom_site_fract_x
_atom_site_fract_y
_atom_site_fract_z
O1	O	0.921348	0.121375	-0.086646
O2	O	1.421348	0.621375	0.413354
O3	O	0.719087	0.121278	-0.098335
O4	O	1.219087	0.621278	0.401665
O5	O	0.826062	0.121301	0.008640
O6	O	1.326062	0.621301	0.508640
O7	O	0.814373	0.121353	-0.193621
O8	O	1.314373	0.621353	0.306379
O9	O	0.826054	-0.120484	0.008640
O10	O	1.326054	0.379516	0.508640
O11	O	0.719079	-0.120507	-0.098335
O12	O	1.219079	0.379493	0.401665
O13	O	0.921339	-0.120410	-0.086646
O14	O	1.421339	0.379590	0.413354
Cu15	Cu	0.820208	-0.142535	-0.092490
Cu16	Cu	1.320208	0.357465	0.407510
Cu17	Cu	0.820218	0.143403	-0.092491
Cu18	Cu	1.320218	0.643403	0.407509
O19	O	0.814365	-0.120432	-0.193621
O20	O	1.314365	0.379568	0.306379
C21	C	0.693207	0.000373	-0.097959
C22	C	1.193207	0.500373	0.402041
C23	C	0.616103	0.000334	-0.096830
C24	C	1.116103	0.500334	0.403170
N25	N	0.820206	-0.343649	-0.092490
N26	N	1.320206	0.156351	0.407510
C27	C	0.571407	0.000373	-0.159598
C28	C	1.071407	0.500373	0.340402
C29	C	0.498960	0.000389	-0.158537
C30	C	0.998960	0.500389	0.341463
C31	C	0.471212	0.000395	-0.094705
C32	C	0.971212	0.500395	0.405295
C33	C	0.515918	0.000348	-0.031929
C34	C	1.015918	0.500348	0.468071
C35	C	0.588364	0.000317	-0.032991
C36	C	1.088364	0.500317	0.467009
C37	C	0.362953	0.085139	-0.044526
C38	C	0.862953	0.585139	0.455474
C39	C	0.290509	0.085178	-0.043466
C40	C	0.790509	0.585178	0.456534
C41	C	0.247767	0.000482	-0.091425
C42	C	0.747767	0.500482	0.408575
C43	C	0.277476	-0.084235	-0.140456
C44	C	0.777476	0.415765	0.359544
C45	C	0.349922	-0.084265	-0.141519
C46	C	0.849922	0.415735	0.358481
C47	C	0.392658	0.000427	-0.093546
C48	C	0.892658	0.500427	0.406454
C49	C	0.124514	0.000536	-0.153047
C50	C	0.624514	0.500536	0.346953
C51	C	0.052066	0.000543	-0.151984
C52	C	0.552066	0.500543	0.348016
C53	C	0.069026	0.000516	-0.025374
C54	C	0.569026	0.500516	0.474626
C55	C	0.141473	0.000495	-0.026439
C56	C	0.641473	0.500495	0.473561
C57	C	0.169212	0.000512	-0.090278
C58	C	0.669212	0.500512	0.409722
C59	C	0.865124	-0.415837	-0.047378
C60	C	1.365124	0.084163	0.452622
C61	C	0.865135	-0.583249	-0.047376
C62	C	1.365135	-0.083249	0.452624
C63	C	0.947220	0.000499	-0.087022
C64	C	1.447220	0.500499	0.412978
C65	C	1.024324	0.000547	-0.088151
C66	C	1.524324	0.500547	0.411849
C67	C	0.825682	0.000404	0.034516
C68	C	1.325682	0.500404	0.534516
C69	C	0.824553	0.000390	0.111620
C70	C	1.324553	0.500390	0.611620
N71	N	0.820226	0.344517	-0.092486
N72	N	1.320226	0.844517	0.407514
C73	C	0.814745	0.000468	-0.219497
C74	C	1.314745	0.500468	0.280503
C75	C	0.815874	0.000491	-0.296601
C76	C	1.315874	0.500491	0.203399
C77	C	0.887321	0.000413	0.156316
C78	C	1.387321	0.500413	0.656316
C79	C	0.886260	0.000436	0.228763
C80	C	1.386260	0.500436	0.728763
C81	C	0.822428	0.000406	0.256511
C82	C	1.322428	0.500406	0.756511
C83	C	0.759652	0.000391	0.211805
C84	C	1.259652	0.500391	0.711805
C85	C	0.760714	0.000383	0.139359
C86	C	1.260714	0.500383	0.639359
C87	C	0.772245	-0.084310	0.364798
C88	C	1.272245	0.415690	0.864798
C89	C	0.771185	-0.084311	0.437243
C90	C	1.271185	0.415689	0.937243
C91	C	0.819148	0.000437	0.479956
C92	C	1.319148	0.500437	0.979956
C93	C	0.868182	0.085167	0.450218
C94	C	1.368182	0.585167	0.950218
C95	C	0.869245	0.085160	0.377773
C96	C	1.369245	0.585160	0.877773
C97	C	0.821269	0.000416	0.335065
C98	C	1.321269	0.500416	0.835065
C99	C	0.880770	0.000486	0.603209
C100	C	1.380770	0.500486	1.103209
C101	C	0.879707	0.000518	0.675657
C102	C	1.379707	0.500518	1.175657
C103	C	0.753097	0.000459	0.658697
C104	C	1.253097	0.500459	1.158697
C105	C	0.754162	0.000442	0.586250
C106	C	1.254162	0.500442	1.086250
C107	C	0.818000	0.000449	0.558511
C108	C	1.318000	0.500449	1.058511
H109	H	0.593987	0.000390	-0.211580
H110	H	1.093987	0.500390	0.288420
H111	H	0.903570	-0.353703	-0.008756
H112	H	1.403570	0.146297	0.491244
H113	H	0.703049	0.000415	0.549857
H114	H	1.203049	0.500415	1.049857
H115	H	0.462561	0.000417	-0.209652
H116	H	0.962561	0.500417	0.290348
F117	F	0.769947	-0.424860	-0.142967
F118	F	1.269947	0.075140	0.357033
F119	F	0.915405	-0.664386	0.003104
F120	F	1.415405	-0.164386	0.503104
H121	H	0.046435	0.000611	0.026600
H122	H	0.546435	0.500611	0.526600
F123	F	0.189044	0.000461	0.040368
F124	F	0.689044	0.500461	0.540368
H125	H	0.266324	0.154166	-0.003545
H126	H	0.766324	0.654166	0.496455
F127	F	0.769961	-0.574355	-0.142974
F128	F	1.269961	-0.074355	0.357026
F129	F	0.955264	0.000452	0.126798
F130	F	1.455264	0.500452	0.626798
H131	H	0.731256	-0.153295	0.461449
H132	H	1.231256	0.346705	0.961449
F133	F	0.635935	0.000276	0.033818
F134	F	1.135935	0.500276	0.533818
H135	H	0.493322	0.000373	0.020044
H136	H	0.993322	0.500373	0.520044
F137	F	0.953069	0.000463	0.276341
F138	F	1.453069	0.500463	0.776341
H139	H	0.397749	0.154118	-0.005470
H140	H	0.897749	0.654118	0.494530
F141	F	0.381539	-0.174428	-0.193697
F142	F	0.881539	0.325572	0.306303
F143	F	0.685161	0.000434	0.688223
F144	F	1.185161	0.500434	1.188223
F145	F	0.921426	0.175340	0.346125
F146	F	1.421426	0.675340	0.846125
F147	F	0.919232	0.175372	0.495672
F148	F	1.419232	0.675372	0.995672
H149	H	0.733186	-0.153330	0.330026
H150	H	1.233186	0.346670	0.830026
F151	F	0.948712	0.000487	0.573684
F152	F	1.448712	0.500487	1.073684
F153	F	0.946517	0.000552	0.723227
F154	F	1.446517	0.500552	1.223227
H155	H	0.707679	0.000370	0.234401
H156	H	1.207679	0.500370	0.734401
H157	H	0.709599	0.000364	0.102967
H158	H	1.209599	0.500364	0.602967
H159	H	0.147101	0.000529	-0.205028
H160	H	0.647101	0.500529	0.294972
F161	F	0.004496	0.000577	-0.218794
F162	F	0.504496	0.500577	0.281206
F163	F	0.231993	-0.174381	-0.191503
F164	F	0.731993	0.325619	0.308497
