data_functionalizedCrystal
_audit_creation_method	'MofGen! by Chris Wilmer'
_symmetry_space_group_name_H-M	'P1'
_symmetry_Int_Tables_number	1
_symmetry_cell_setting	triclinic
loop_
_symmetry_equiv_pos_as_xyz
  x,y,z
_cell_length_a	16.109302
_cell_length_b	27.731996
_cell_length_c	14.586319
_cell_angle_alpha	89.990257
_cell_angle_beta	89.994552
_cell_angle_gamma	83.041584
loop_
_atom_site_label
_atom_site_type_symbol
_atom_site_fract_x
_atom_site_fract_y
_atom_site_fract_z
O1	O	1.102341	0.062133	-0.076294
O2	O	1.435674	0.395467	0.257040
O3	O	1.769008	0.728800	0.590373
O4	O	0.860181	0.069865	-0.076288
O5	O	1.193514	0.403198	0.257045
O6	O	1.526848	0.736532	0.590379
O7	O	0.988805	-0.004368	-0.076271
O8	O	1.322138	0.328966	0.257062
O9	O	1.655471	0.662299	0.590395
O10	O	0.973718	0.136366	-0.076311
O11	O	1.307051	0.469699	0.257023
O12	O	1.640384	0.803033	0.590356
O13	O	0.988796	-0.004369	0.076210
O14	O	1.322129	0.328964	0.409543
O15	O	1.655462	0.662298	0.742876
O16	O	0.860172	0.069864	0.076193
O17	O	1.193506	0.403197	0.409526
O18	O	1.526839	0.736531	0.742859
O19	O	1.102332	0.062132	0.076187
O20	O	1.435666	0.395465	0.409520
O21	O	1.768999	0.728799	0.742854
Cu22	Cu	0.981251	0.065998	0.090113
Cu23	Cu	1.314585	0.399331	0.423446
Cu24	Cu	1.647918	0.732665	0.756779
Cu25	Cu	0.981262	0.065999	-0.090214
Cu26	Cu	1.314595	0.399333	0.243120
Cu27	Cu	1.647929	0.732666	0.576453
O28	O	0.973709	0.136365	0.076170
O29	O	1.307042	0.469698	0.409504
O30	O	1.640375	0.803032	0.742837
C31	C	0.829206	0.069551	-0.000047
C32	C	1.162539	0.402885	0.333287
C33	C	1.495872	0.736218	0.666620
C34	C	0.736922	0.068612	-0.000044
C35	C	1.070256	0.401945	0.333290
C36	C	1.403589	0.735279	0.666623
C37	C	0.524604	0.066440	0.083065
C38	C	0.857938	0.399773	0.416399
C39	C	1.191271	0.733107	0.749732
C40	C	0.437895	0.065552	0.083062
C41	C	0.771229	0.398886	0.416396
C42	C	1.104562	0.732219	0.749729
C43	C	0.437916	0.065556	-0.083181
C44	C	0.771249	0.398889	0.250153
C45	C	1.104582	0.732223	0.583486
C46	C	0.524624	0.066440	-0.083177
C47	C	0.857957	0.399773	0.250157
C48	C	1.191290	0.733107	0.583490
C49	C	0.567965	0.066885	-0.000051
C50	C	0.901298	0.400218	0.333282
C51	C	1.234632	0.733551	0.666616
C52	C	0.394548	0.065113	-0.000058
C53	C	0.727882	0.398446	0.333275
C54	C	1.061215	0.731779	0.666609
C55	C	0.300535	0.064150	-0.000062
C56	C	0.633868	0.397484	0.333272
C57	C	0.967201	0.730817	0.666605
C58	C	0.661985	0.067846	-0.000047
C59	C	0.995318	0.401179	0.333286
C60	C	1.328651	0.734513	0.666620
C61	C	0.988490	-0.022377	-0.000028
C62	C	1.321824	0.310956	0.333306
C63	C	1.655157	0.644290	0.666639
C64	C	0.987557	-0.076037	-0.000018
C65	C	1.320890	0.257296	0.333315
C66	C	1.654223	0.590629	0.666648
C67	C	0.981688	-0.408777	-0.083180
C68	C	1.315022	-0.075444	0.250153
C69	C	1.648355	0.257889	0.583486
C70	C	0.978144	-0.610451	-0.083196
C71	C	1.311477	-0.277117	0.250137
C72	C	1.644810	0.056216	0.583470
O73	O	0.977654	-0.636523	-0.153885
O74	O	1.310987	-0.303189	0.179448
O75	O	1.644320	0.030144	0.512782
N76	N	0.977698	-0.635670	-0.000080
N77	N	1.311032	-0.302337	0.333254
N78	N	1.644365	0.030997	0.666587
C79	C	0.978134	-0.610468	0.083047
C80	C	1.311467	-0.277135	0.416380
C81	C	1.644801	0.056199	0.749713
O82	O	0.977666	-0.636546	0.153742
O83	O	1.310999	-0.303212	0.487075
O84	O	1.644332	0.030121	0.820409
C85	C	0.981673	-0.408795	0.083062
C86	C	1.315006	-0.075462	0.416395
C87	C	1.648340	0.257871	0.749728
C88	C	0.982127	-0.383579	-0.000060
C89	C	1.315460	-0.050246	0.333273
C90	C	1.648793	0.283088	0.666606
C91	C	0.982141	-0.383561	-0.166295
C92	C	1.315474	-0.050228	0.167038
C93	C	1.648808	0.283106	0.500371
C94	C	0.983032	-0.333146	-0.166291
C95	C	1.316365	0.000187	0.167043
C96	C	1.649698	0.333521	0.500376
C97	C	0.983470	-0.307948	-0.083171
C98	C	1.316803	0.025386	0.250163
C99	C	1.650137	0.358719	0.583496
C100	C	0.983017	-0.333164	-0.000055
C101	C	1.316351	0.000169	0.333278
C102	C	1.649684	0.333503	0.666611
C103	C	0.982103	-0.383594	0.166187
C104	C	1.315436	-0.050260	0.499521
C105	C	1.648769	0.283073	0.832854
C106	C	0.982985	-0.333172	0.166184
C107	C	1.316319	0.000161	0.499517
C108	C	1.649652	0.333495	0.832850
C109	C	0.983439	-0.307956	0.083062
C110	C	1.316772	0.025378	0.416395
C111	C	1.650106	0.358711	0.749728
C112	C	0.984346	-0.257551	0.083070
C113	C	1.317679	0.075783	0.416403
C114	C	1.651013	0.409116	0.749736
N115	N	0.984791	-0.232331	-0.000047
N116	N	1.318125	0.101002	0.333286
N117	N	1.651458	0.434335	0.666620
C118	C	0.984353	-0.257530	-0.083167
C119	C	1.317686	0.075804	0.250166
C120	C	1.651020	0.409137	0.583500
C121	C	0.976278	-0.716349	0.083033
C122	C	1.309611	-0.383016	0.416366
C123	C	1.642945	-0.049682	0.749700
C124	C	0.975395	-0.766767	0.083029
C125	C	1.308728	-0.433434	0.416363
C126	C	1.642061	-0.100100	0.749696
C127	C	0.975403	-0.766746	-0.083214
C128	C	1.308736	-0.433413	0.250119
C129	C	1.642069	-0.100079	0.583453
C130	C	0.976292	-0.716328	-0.083209
C131	C	1.309625	-0.382994	0.250124
C132	C	1.642958	-0.049661	0.583457
C133	C	0.976723	-0.691130	-0.000084
C134	C	1.310056	-0.357796	0.333250
C135	C	1.643390	-0.024463	0.666583
C136	C	0.986224	-0.151655	-0.083151
C137	C	1.319558	0.181679	0.250183
C138	C	1.652891	0.515012	0.583516
C139	C	0.987119	-0.101236	-0.083138
C140	C	1.320452	0.232098	0.250195
C141	C	1.653785	0.565431	0.583528
C142	C	0.987106	-0.101261	0.083104
C143	C	1.320440	0.232073	0.416438
C144	C	1.653773	0.565406	0.749771
C145	C	0.986216	-0.151676	0.083093
C146	C	1.319550	0.181658	0.416426
C147	C	1.652883	0.514991	0.749759
C148	C	0.985773	-0.176871	-0.000042
C149	C	1.319106	0.156462	0.333291
C150	C	1.652439	0.489795	0.666625
O151	O	0.984827	-0.231447	0.153721
O152	O	1.318161	0.101887	0.487054
O153	O	1.651494	0.435220	0.820388
O154	O	0.984803	-0.231442	-0.153852
O155	O	1.318137	0.101891	0.179482
O156	O	1.651470	0.435225	0.512815
C157	C	0.980798	-0.459192	-0.083185
C158	C	1.314131	-0.125859	0.250148
C159	C	1.647464	0.207474	0.583482
C160	C	0.980345	-0.484409	-0.000070
C161	C	1.313678	-0.151075	0.333263
C162	C	1.647012	0.182258	0.666597
C163	C	0.980783	-0.459210	0.083050
C164	C	1.314117	-0.125877	0.416383
C165	C	1.647450	0.207456	0.749717
C166	C	0.979462	-0.534827	-0.000073
C167	C	1.312795	-0.201494	0.333260
C168	C	1.646129	0.131840	0.666593
C169	C	0.979024	-0.560025	-0.083193
C170	C	1.312357	-0.226692	0.250140
C171	C	1.645690	0.106641	0.583473
C172	C	0.979469	-0.534806	-0.166310
C173	C	1.312802	-0.201472	0.167023
C174	C	1.646136	0.131861	0.500357
C175	C	0.980360	-0.484391	-0.166305
C176	C	1.313693	-0.151058	0.167028
C177	C	1.647026	0.182276	0.500362
C178	C	0.980338	-0.484430	0.166167
C179	C	1.313671	-0.151097	0.499500
C180	C	1.647005	0.182237	0.832833
C181	C	0.979448	-0.534845	0.166155
C182	C	1.312782	-0.201512	0.499488
C183	C	1.646115	0.131822	0.832822
C184	C	0.979010	-0.560043	0.083035
C185	C	1.312344	-0.226710	0.416368
C186	C	1.645677	0.106623	0.749702
C187	C	1.133308	0.062446	-0.000056
C188	C	1.466641	0.395779	0.333277
C189	C	1.799974	0.729113	0.666610
C190	C	1.225591	0.063385	-0.000065
C191	C	1.558924	0.396718	0.333268
C192	C	1.892258	0.730052	0.666601
C193	C	0.974023	0.154374	-0.000075
C194	C	1.307356	0.487708	0.333258
C195	C	1.640690	0.821041	0.666591
C196	C	0.974957	0.208034	-0.000091
C197	C	1.308290	0.541368	0.333243
C198	C	1.641623	0.874701	0.666576
N199	N	0.981250	0.065997	0.216944
N200	N	1.314583	0.399330	0.550278
N201	N	1.647917	0.732663	0.883611
N202	N	0.981270	0.065997	-0.217045
N203	N	1.314603	0.399330	0.116288
N204	N	1.647936	0.732663	0.449621
C205	C	1.038223	0.033137	0.451958
C206	C	1.371557	0.366471	0.785292
C207	C	1.704890	0.699804	1.118625
C208	C	1.038226	0.033136	0.547940
C209	C	1.371559	0.366470	0.881273
C210	C	1.704892	0.699803	1.214606
C211	C	0.924291	0.098858	0.547934
C212	C	1.257624	0.432191	0.881267
C213	C	1.590957	0.765524	1.214601
C214	C	0.924285	0.098856	0.451955
C215	C	1.257618	0.432189	0.785288
C216	C	1.590952	0.765523	1.118621
C217	C	0.981256	0.065997	0.403969
C218	C	1.314589	0.399330	0.737302
C219	C	1.647923	0.732663	1.070636
C220	C	0.981264	0.065997	0.595930
C221	C	1.314597	0.399330	0.929263
C222	C	1.647931	0.732664	1.262597
C223	C	0.981266	0.065996	0.699997
C224	C	1.314600	0.399329	1.033330
C225	C	1.647933	0.732663	1.366664
C226	C	0.981253	0.065997	0.299895
C227	C	1.314586	0.399330	0.633229
C228	C	1.647920	0.732663	0.966562
H229	H	0.402595	0.065190	0.150744
H230	H	0.735928	0.398524	0.484077
H231	H	1.069262	0.731857	0.817411
H232	H	0.976660	-0.695800	-0.150895
H233	H	1.309993	-0.362466	0.182439
H234	H	1.643326	-0.029133	0.515772
F235	F	0.974934	-0.793572	-0.171677
F236	F	1.308267	-0.460239	0.161656
F237	F	1.641601	-0.126906	0.494990
F238	F	0.863646	0.133829	0.400877
F239	F	1.196980	0.467162	0.734210
F240	F	1.530313	0.800496	1.067544
H241	H	0.559929	0.066801	-0.150864
H242	H	0.893263	0.400134	0.182469
H243	H	1.226596	0.733468	0.515803
F244	F	0.391783	0.065073	-0.171644
F245	F	0.725117	0.398407	0.161690
F246	F	1.058450	0.731740	0.495023
F247	F	0.987604	-0.074402	-0.171612
F248	F	1.320937	0.258932	0.161721
F249	F	1.654270	0.592265	0.495055
H250	H	0.985859	-0.172163	-0.150847
H251	H	1.319192	0.161171	0.182486
H252	H	1.652526	0.494504	0.515820
H253	H	0.983398	-0.312619	-0.233977
H254	H	1.316731	0.020714	0.099356
H255	H	1.650065	0.354047	0.432690
H256	H	0.985855	-0.172209	0.150777
H257	H	1.319188	0.161125	0.484111
H258	H	1.652522	0.494458	0.817444
F259	F	1.098855	-0.001836	0.400892
F260	F	1.432188	0.331498	0.734226
F261	F	1.765521	0.664831	1.067559
H262	H	0.559890	0.066802	0.150752
H263	H	0.893224	0.400135	0.484085
H264	H	1.226557	0.733468	0.817418
H265	H	1.084612	0.006379	0.587010
H266	H	1.417946	0.339712	0.920343
H267	H	1.751279	0.673046	1.253676
H268	H	0.877907	0.125612	0.587013
H269	H	1.211241	0.458945	0.920347
H270	H	1.544574	0.792278	1.253680
F271	F	0.987574	-0.074434	0.171562
F272	F	1.320908	0.258899	0.504895
F273	F	1.654241	0.592233	0.838229
F274	F	0.976733	-0.689537	0.171513
F275	F	1.310066	-0.356204	0.504846
F276	F	1.643399	-0.022870	0.838180
H277	H	0.981781	-0.404072	-0.233985
H278	H	1.315115	-0.070739	0.099348
H279	H	1.648448	0.262595	0.432681
H280	H	0.980696	-0.463919	0.233854
H281	H	1.314029	-0.130585	0.567188
H282	H	1.647363	0.202748	0.900521
F283	F	0.981617	-0.410420	0.254659
F284	F	1.314950	-0.077086	0.587992
F285	F	1.648283	0.256247	0.921325
F286	F	0.974927	-0.793600	0.171499
F287	F	1.308260	-0.460267	0.504832
F288	F	1.641594	-0.126933	0.838166
H289	H	0.983324	-0.312657	0.233876
H290	H	1.316657	0.020676	0.567210
H291	H	1.649991	0.354009	0.900543
H292	H	0.980728	-0.463864	-0.233992
H293	H	1.314062	-0.130531	0.099342
H294	H	1.647395	0.202803	0.432675
F295	F	0.979007	-0.561633	-0.254773
F296	F	1.312340	-0.228300	0.078561
F297	F	1.645674	0.105034	0.411894
F298	F	0.978971	-0.561677	0.254631
F299	F	1.312304	-0.228344	0.587965
F300	F	1.645638	0.104990	0.921298
