data_functionalizedCrystal
_audit_creation_method	'MofGen! by Chris Wilmer'
_symmetry_space_group_name_H-M	'P1'
_symmetry_Int_Tables_number	1
_symmetry_cell_setting	triclinic
loop_
_symmetry_equiv_pos_as_xyz
  x,y,z
_cell_length_a	10.967874
_cell_length_b	27.731996
_cell_length_c	10.065875
_cell_angle_alpha	98.708141
_cell_angle_beta	69.229500
_cell_angle_gamma	83.687348
loop_
_atom_site_label
_atom_site_type_symbol
_atom_site_fract_x
_atom_site_fract_y
_atom_site_fract_z
O1	O	1.739069	0.035364	-0.522503
O2	O	1.361237	0.047367	-0.433650
O3	O	1.561918	-0.029133	-0.480814
O4	O	1.538388	0.111864	-0.475339
O5	O	1.523650	-0.014488	-0.244831
O6	O	1.322969	0.062011	-0.197667
O7	O	1.700801	0.050008	-0.286521
Zn8	Zn	1.505809	0.058335	-0.204627
Zn9	Zn	1.556229	0.039040	-0.515544
O10	O	1.500120	0.126508	-0.239357
C11	C	1.293780	0.054922	-0.304294
C12	C	1.149795	0.055611	-0.270432
C13	C	1.105425	0.048332	-0.377582
C14	C	0.956609	0.049044	-0.342586
C15	C	1.542300	-0.039813	-0.362704
C16	C	1.540841	-0.093456	-0.362347
C17	C	1.552548	-0.434080	-0.488895
C18	C	1.547021	-0.635692	-0.487620
O19	O	1.563991	-0.668545	-0.596838
N20	N	1.525475	-0.652921	-0.358825
C21	C	1.505300	-0.619743	-0.230339
O22	O	1.486833	-0.639022	-0.120759
C23	C	1.510817	-0.418131	-0.231614
C24	C	1.532379	-0.400906	-0.360420
C25	C	1.574106	-0.416855	-0.617690
C26	C	1.575495	-0.366455	-0.618010
C27	C	1.555325	-0.333281	-0.489534
C28	C	1.533767	-0.350507	-0.360739
C29	C	1.490633	-0.384953	-0.103126
C30	C	1.492011	-0.334547	-0.103456
C31	C	1.513573	-0.317323	-0.232262
C32	C	1.514986	-0.266933	-0.232582
N33	N	1.536533	-0.249704	-0.361377
C34	C	1.556703	-0.282878	-0.489852
C35	C	1.502407	-0.725592	-0.229679
C36	C	1.501030	-0.775995	-0.229360
C37	C	1.542749	-0.791941	-0.486641
C38	C	1.544136	-0.741538	-0.486961
C39	C	1.523954	-0.708364	-0.358473
C40	C	1.559618	-0.177035	-0.490514
C41	C	1.561010	-0.126630	-0.490823
C42	C	1.519284	-0.110688	-0.233541
C43	C	1.517899	-0.161089	-0.233233
C44	C	1.538063	-0.194261	-0.361729
O45	O	1.498012	-0.234051	-0.123419
O46	O	1.575138	-0.263587	-0.599409
C47	C	1.551160	-0.484480	-0.488576
C48	C	1.529602	-0.501706	-0.359781
C49	C	1.509432	-0.468531	-0.231305
C50	C	1.528224	-0.552108	-0.359462
C51	C	1.548394	-0.585282	-0.487938
C52	C	1.569941	-0.568054	-0.616733
C53	C	1.571329	-0.517654	-0.617052
C54	C	1.487885	-0.485760	-0.102511
C55	C	1.486500	-0.536161	-0.102202
C56	C	1.506670	-0.569335	-0.230678
C57	C	1.768258	0.042453	-0.415879
C58	C	1.912245	0.041764	-0.449751
C59	C	1.519739	0.137189	-0.357470
C60	C	1.521199	0.190831	-0.357836
N61	N	1.471408	0.071502	0.007564
N62	N	1.590640	0.025869	-0.727737
C63	C	1.544252	0.043619	0.058223
C64	C	1.517786	0.053757	0.221610
H65	H	1.077606	0.062373	-0.152790
C66	C	1.699635	-0.016035	0.168651
C67	C	1.704067	-0.017817	0.027230
C68	C	1.804338	-0.056452	-0.068227
H69	H	1.681846	-0.046593	0.196207
H70	H	1.782448	-0.010471	0.172258
H71	H	1.621273	-0.023384	0.023628
H72	H	1.721873	0.012732	-0.000371
H73	H	1.887151	-0.050889	-0.064621
H74	H	1.786539	-0.087007	-0.040658
H75	H	1.807366	-0.057663	-0.164194
H76	H	1.389445	0.102878	0.085153
H77	H	1.435818	0.085134	0.299195
C78	C	1.201571	0.039420	-0.534468
C79	C	1.165920	0.076502	-0.600775
C80	C	1.254466	0.068313	-0.745294
H81	H	1.198585	0.007978	-0.584792
H82	H	1.288811	0.040164	-0.537194
H83	H	1.078702	0.075753	-0.598057
H84	H	1.168913	0.107948	-0.550493
H85	H	1.341707	0.069057	-0.748020
H86	H	1.251474	0.036870	-0.795605
H87	H	1.230297	0.093474	-0.790297
C88	C	1.581579	-0.212970	-0.630181
C89	C	1.600774	-0.187089	-0.743033
C90	C	1.621019	-0.220177	-0.871716
H91	H	1.506275	-0.228421	-0.617807
H92	H	1.657618	-0.237517	-0.653309
H93	H	1.524742	-0.162551	-0.719910
H94	H	1.676080	-0.171639	-0.755453
H95	H	1.697059	-0.244724	-0.894844
H96	H	1.545712	-0.235626	-0.859327
H97	H	1.634058	-0.202622	-0.948304
C98	C	0.860394	0.058159	-0.185674
C99	C	0.865147	0.104561	-0.112126
C100	C	0.776519	0.112976	0.032414
H101	H	0.884298	0.033089	-0.140252
H102	H	0.773133	0.057469	-0.182940
H103	H	0.952389	0.105246	-0.114852
H104	H	0.841230	0.129639	-0.157503
H105	H	0.689257	0.112287	0.035148
H106	H	0.800431	0.087904	0.077821
H107	H	0.779723	0.144462	0.082331
C108	C	1.008381	0.032848	-0.606648
C109	C	0.972729	0.069927	-0.672961
C110	C	1.061266	0.061734	-0.817485
H111	H	1.005386	0.001405	-0.656963
H112	H	1.095625	0.033590	-0.609386
H113	H	0.885507	0.069180	-0.670233
H114	H	0.975731	0.101374	-0.622690
H115	H	1.148511	0.062476	-0.820222
H116	H	1.058265	0.030290	-0.867785
H117	H	1.037096	0.086893	-0.862492
C118	C	1.591552	-0.604087	-0.756107
C119	C	1.480306	-0.626758	-0.737158
C120	C	1.500145	-0.659953	-0.865510
H121	H	1.667480	-0.628677	-0.779235
H122	H	1.604521	-0.586630	-0.832903
H123	H	1.467351	-0.644215	-0.660387
H124	H	1.404363	-0.602181	-0.714051
H125	H	1.513115	-0.642496	-0.942305
H126	H	1.576076	-0.684540	-0.888628
H127	H	1.424664	-0.675336	-0.852675
H128	H	1.578572	-0.112610	-0.595717
H129	H	1.593048	-0.352436	-0.722896
C130	C	1.596107	-0.452794	-0.757359
C131	C	1.615310	-0.426912	-0.870209
C132	C	1.635611	-0.460001	-0.998908
H133	H	1.520823	-0.468256	-0.745017
H134	H	1.672158	-0.477334	-0.780467
H135	H	1.539267	-0.402382	-0.847105
H136	H	1.690596	-0.411452	-0.882597
H137	H	1.711663	-0.484540	-1.022016
H138	H	1.560324	-0.475460	-0.986551
H139	H	1.648656	-0.442446	-1.075494
H140	H	1.561691	-0.727518	-0.591845
H141	H	1.559173	-0.818961	-0.591252
H142	H	1.483492	-0.790016	-0.124478
H143	H	1.485978	-0.698585	-0.125045
H144	H	1.473078	-0.398968	0.001761
C145	C	1.470123	-0.298611	0.036188
C146	C	1.450971	-0.324490	0.149039
C147	C	1.430817	-0.291404	0.277693
H148	H	1.394107	-0.274054	0.059391
H149	H	1.545479	-0.283174	0.023709
H150	H	1.375623	-0.339919	0.161518
H151	H	1.526974	-0.349044	0.125884
H152	H	1.506173	-0.275967	0.265214
H153	H	1.354802	-0.266849	0.300882
H154	H	1.417832	-0.308959	0.354275
C155	C	1.494412	-0.179693	-0.093228
C156	C	1.477021	-0.139849	0.019222
C157	C	1.455351	-0.156963	0.148223
H158	H	1.568618	-0.203567	-0.105338
H159	H	1.417281	-0.194450	-0.069875
H160	H	1.554143	-0.125099	-0.004126
H161	H	1.402813	-0.115971	0.031377
H162	H	1.378220	-0.171720	0.171575
H163	H	1.529560	-0.180837	0.136098
H164	H	1.443536	-0.129930	0.224538
H165	H	1.502868	-0.083669	-0.128941
H166	H	1.468951	-0.550180	0.002693
C167	C	1.466042	-0.449829	0.037116
C168	C	1.446914	-0.475714	0.149954
C169	C	1.426817	-0.442635	0.278601
H170	H	1.390032	-0.425266	0.060353
H171	H	1.541414	-0.434400	0.024608
H172	H	1.371549	-0.491135	0.162463
H173	H	1.522911	-0.500275	0.126765
H174	H	1.502189	-0.427205	0.266093
H175	H	1.350808	-0.418073	0.301823
H176	H	1.413849	-0.460193	0.355173
H177	H	1.588886	-0.503635	-0.721939
H178	H	1.626206	0.012240	-0.019362
