data_functionalizedCrystal
_audit_creation_method	'MofGen! by Chris Wilmer'
_symmetry_space_group_name_H-M	'P1'
_symmetry_Int_Tables_number	1
_symmetry_cell_setting	triclinic
loop_
_symmetry_equiv_pos_as_xyz
  x,y,z
_cell_length_a	19.188933
_cell_length_b	19.188930
_cell_length_c	10.268362
_cell_angle_alpha	89.989600
_cell_angle_beta	89.996830
_cell_angle_gamma	83.145175
loop_
_atom_site_label
_atom_site_type_symbol
_atom_site_fract_x
_atom_site_fract_y
_atom_site_fract_z
O1	O	0.926144	0.087175	-0.108271
O2	O	1.426144	0.587175	0.391729
O3	O	0.722833	0.098907	-0.108286
O4	O	1.222833	0.598907	0.391714
O5	O	0.830356	-0.008615	-0.108253
O6	O	1.330356	0.491385	0.391747
O7	O	0.818621	0.194697	-0.108304
O8	O	1.318621	0.694697	0.391696
O9	O	0.830346	-0.008619	0.108348
O10	O	1.330346	0.491381	0.608348
O11	O	0.722824	0.098903	0.108315
O12	O	1.222824	0.598903	0.608315
O13	O	0.926135	0.087170	0.108329
O14	O	1.426135	0.587170	0.608329
Cu15	Cu	0.824478	0.093036	0.128100
Cu16	Cu	1.324478	0.593036	0.628100
Cu17	Cu	0.824489	0.093041	-0.128056
Cu18	Cu	1.324489	0.593041	0.371944
O19	O	0.818612	0.194692	0.108296
O20	O	1.318612	0.694692	0.608296
C21	C	0.696817	0.098525	0.000013
C22	C	1.196817	0.598525	0.500013
C23	C	0.619313	0.097384	0.000009
C24	C	1.119313	0.597384	0.500009
C25	C	0.066062	0.089241	-0.118044
C26	C	0.566062	0.589241	0.381956
C27	C	0.138887	0.090309	-0.118049
C28	C	0.638887	0.590309	0.381951
C29	C	0.175299	0.090844	0.000019
C30	C	0.675299	0.590844	0.500019
C31	C	0.138883	0.090293	0.118102
C32	C	0.638883	0.590293	0.618102
C33	C	0.066061	0.089218	0.118104
C34	C	0.566061	0.589218	0.618104
N35	N	0.284315	0.132261	0.087893
N36	N	0.784315	0.632261	0.587893
N37	N	0.353492	0.133284	0.087883
N38	N	0.853492	0.633284	0.587883
C39	C	0.394707	0.094082	0.000021
C40	C	0.894707	0.594082	0.500021
N41	N	0.364130	0.053828	-0.087851
N42	N	0.864130	0.553828	0.412149
N43	N	0.294946	0.052808	-0.087845
N44	N	0.794946	0.552808	0.412155
C45	C	0.254262	0.092009	0.000030
C46	C	0.754262	0.592009	0.500030
C47	C	0.510080	0.095786	-0.118060
C48	C	1.010080	0.595786	0.381940
C49	C	0.582906	0.096850	-0.118060
C50	C	1.082906	0.596850	0.381940
C51	C	0.582899	0.096841	0.118094
C52	C	1.082899	0.596841	0.618094
C53	C	0.510075	0.095770	0.118091
C54	C	1.010075	0.595770	0.618091
C55	C	0.473669	0.095246	0.000010
C56	C	0.973669	0.595246	0.500010
C57	C	0.829971	-0.034628	0.000051
C58	C	1.329971	0.465372	0.500051
C59	C	0.828830	-0.112132	0.000063
C60	C	1.328830	0.387868	0.500063
C61	C	0.891921	-0.157056	0.000073
C62	C	1.391921	0.342944	0.500073
C63	C	0.890849	-0.229880	0.000052
C64	C	1.390849	0.270120	0.500052
C65	C	0.826683	-0.257777	0.000047
C66	C	1.326683	0.242223	0.500047
C67	C	0.763584	-0.212843	0.000029
C68	C	1.263584	0.287157	0.500029
C69	C	0.764658	-0.140021	0.000037
C70	C	1.264658	0.359979	0.500037
N71	N	0.777633	-0.365783	0.073757
N72	N	1.277633	0.134217	0.573757
N73	N	0.776617	-0.434962	0.073752
N74	N	1.276617	0.065038	0.573752
C75	C	0.823445	-0.477185	0.000020
C76	C	1.323445	0.022815	0.500020
N77	N	0.871337	-0.447618	-0.073690
N78	N	1.371337	0.052382	0.426310
N79	N	0.872355	-0.378433	-0.073680
N80	N	1.372355	0.121567	0.426320
C81	C	0.825512	-0.336739	0.000037
C82	C	1.325512	0.163261	0.500037
C83	C	0.885378	-0.601073	0.000006
C84	C	1.385378	-0.101073	0.500006
C85	C	0.884304	-0.673898	-0.000023
C86	C	1.384304	-0.173898	0.499977
C87	C	0.757037	-0.656860	-0.000033
C88	C	1.257037	-0.156860	0.499967
C89	C	0.758113	-0.584037	-0.000017
C90	C	1.258113	-0.084037	0.499983
C91	C	0.822286	-0.556148	0.000009
C92	C	1.322286	-0.056148	0.500009
C93	C	0.952150	0.087553	0.000027
C94	C	1.452150	0.587553	0.500027
C95	C	1.029655	0.088694	0.000023
C96	C	1.529655	0.588694	0.500023
C97	C	0.818997	0.220705	-0.000011
C98	C	1.318997	0.720705	0.499989
C99	C	0.820137	0.298210	-0.000030
C100	C	1.320137	0.798210	0.499970
N101	N	0.824476	0.093032	0.308265
N102	N	1.324476	0.593032	0.808265
N103	N	0.824497	0.093040	-0.308222
N104	N	1.324497	0.593040	0.191778
C105	C	0.824486	0.093040	0.573936
C106	C	1.324486	0.593040	1.073936
C107	C	0.824478	0.093038	0.426098
C108	C	1.324478	0.593038	0.926098
H109	H	0.168534	0.090727	0.214234
H110	H	0.668534	0.590727	0.714234
N111	N	0.687833	-0.686948	-0.000029
N112	N	1.187833	-0.186948	0.499971
H113	H	0.660199	-0.670562	0.080266
H114	H	1.160199	-0.170562	0.580266
H115	H	0.660256	-0.670536	-0.080375
H116	H	1.160256	-0.170536	0.419625
H117	H	0.942227	-0.266463	0.000056
H118	H	1.442227	0.233537	0.500056
H119	H	0.036418	0.088775	0.214251
H120	H	0.536418	0.588775	0.714251
N121	N	0.690066	-0.535576	-0.000002
N122	N	1.190066	-0.035576	0.499998
H123	H	0.687677	-0.504971	-0.080292
H124	H	1.187677	-0.004971	0.419708
H125	H	0.649292	-0.564344	0.000044
H126	H	1.149292	-0.064344	0.500044
H127	H	0.713280	-0.103444	0.000029
H128	H	1.213280	0.396556	0.500029
N129	N	0.622157	0.097415	0.245448
N130	N	1.122157	0.597415	0.745448
H131	H	0.658162	0.054589	0.250721
H132	H	1.158162	0.554589	0.750721
H133	H	0.646534	0.141160	0.250633
H134	H	1.146534	0.641160	0.750633
N135	N	0.470801	0.095183	0.245435
N136	N	0.970801	0.595183	0.745435
H137	H	0.504979	0.095199	0.320231
H138	H	1.004979	0.595199	0.820231
H139	H	0.435122	0.138256	0.250963
H140	H	0.935122	0.638256	0.750963
N141	N	0.026801	0.088661	-0.245399
N142	N	0.526801	0.588661	0.254601
H143	H	-0.024857	0.087896	-0.227487
H144	H	0.475143	0.587896	0.272513
H145	H	0.033736	0.132125	-0.296968
H146	H	0.533736	0.632125	0.203032
H147	H	0.480436	0.095357	-0.214208
H148	H	0.980436	0.595357	0.285792
N149	N	0.178167	0.090898	-0.245397
N150	N	0.678167	0.590898	0.254603
H151	H	0.144054	0.090402	-0.320198
H152	H	0.644054	0.590402	0.179802
H153	H	0.202587	0.134619	-0.250536
H154	H	0.702587	0.634619	0.249464
N155	N	0.622179	0.097429	-0.245410
N156	N	1.122179	0.597429	0.254590
H157	H	0.588063	0.096933	-0.320208
H158	H	1.088063	0.596933	0.179792
H159	H	0.646606	0.141145	-0.250562
H160	H	1.146606	0.641145	0.249438
N161	N	0.961129	-0.126970	0.000069
N162	N	1.461129	0.373030	0.500069
H163	H	0.964410	-0.097142	0.080362
H164	H	1.464410	0.402858	0.580362
H165	H	1.000898	-0.166518	0.000017
H166	H	1.500898	0.333482	0.500017
H167	H	0.711340	-0.235562	0.000022
H168	H	1.211340	0.264438	0.500022
N169	N	0.954588	-0.570986	0.000029
N170	N	1.454588	-0.070986	0.500029
H171	H	0.994395	-0.610499	0.000021
H172	H	1.494395	-0.110499	0.500021
H173	H	0.957809	-0.541130	-0.080260
H174	H	1.457809	-0.041130	0.419740
N175	N	0.952355	-0.722356	-0.000017
N176	N	1.452355	-0.222356	0.499983
H177	H	0.993168	-0.693635	0.000005
H178	H	1.493168	-0.193635	0.500005
H179	H	0.954672	-0.752952	0.080275
H180	H	1.454672	-0.252952	0.580275
