data_functionalizedCrystal
_audit_creation_method	'MofGen! by Chris Wilmer'
_symmetry_space_group_name_H-M	'P1'
_symmetry_Int_Tables_number	1
_symmetry_cell_setting	triclinic
loop_
_symmetry_equiv_pos_as_xyz
  x,y,z
_cell_length_a	14.853558
_cell_length_b	14.519709
_cell_length_c	13.330367
_cell_angle_alpha	89.996657
_cell_angle_beta	89.992835
_cell_angle_gamma	83.655639
loop_
_atom_site_label
_atom_site_type_symbol
_atom_site_fract_x
_atom_site_fract_y
_atom_site_fract_z
O1	O	1.196421	0.120361	-0.083413
O2	O	0.933966	0.134713	-0.083418
O3	O	1.072152	-0.006705	-0.083407
O4	O	1.058235	0.261778	-0.083425
O5	O	1.072131	-0.006702	0.083440
O6	O	0.933945	0.134716	0.083429
O7	O	1.196400	0.120364	0.083434
Cu8	Cu	1.065171	0.127540	0.098666
Cu9	Cu	1.065196	0.127537	-0.098650
O10	O	1.058214	0.261781	0.083422
C11	C	0.900366	0.134066	0.000005
C12	C	0.800282	0.132122	0.000003
C13	C	0.753273	0.131208	-0.090949
C14	C	0.753248	0.131200	0.090954
C15	C	0.659214	0.129369	0.090956
C16	C	0.612205	0.128456	0.000004
C17	C	0.659230	0.129374	-0.090950
C18	C	0.612182	0.128441	0.181908
C19	C	0.518142	0.126609	0.181914
C20	C	0.471131	0.125702	0.090960
C21	C	0.518162	0.126621	0.000003
C22	C	0.471153	0.125708	-0.090949
C23	C	0.518181	0.126634	-0.181908
C24	C	0.612218	0.128467	-0.181903
C25	C	0.377094	0.123869	0.090956
C26	C	0.377110	0.123873	-0.090950
C27	C	1.071493	-0.041063	0.000017
C28	C	1.069550	-0.143443	0.000017
C29	C	1.062394	-0.518336	-0.000009
C30	C	1.064381	-0.414029	-0.000001
C31	C	1.065972	-0.330893	0.000005
C32	C	1.067959	-0.226579	0.000011
C33	C	1.230000	0.121011	0.000008
C34	C	1.330085	0.122955	0.000004
C35	C	1.058873	0.296139	-0.000004
C36	C	1.060817	0.398520	-0.000011
N37	N	1.065160	0.127542	0.237447
N38	N	1.065214	0.127527	-0.237432
C39	C	1.010397	0.071507	0.289975
C40	C	1.119933	0.183572	0.289947
C41	C	1.119944	0.183572	0.394966
C42	C	1.065181	0.127537	0.447494
C43	C	1.010408	0.071503	0.395003
C44	C	1.174722	0.239598	0.447464
C45	C	1.174736	0.239599	0.552489
C46	C	1.119968	0.183568	0.605018
C47	C	1.065192	0.127533	0.552522
C48	C	1.010430	0.071498	0.605050
C49	C	0.955648	0.015466	0.552555
C50	C	0.955640	0.015472	0.447533
C51	C	1.119976	0.183562	0.710040
C52	C	1.010441	0.071493	0.710078
H53	H	0.650517	0.129219	-0.255957
H54	H	1.219313	0.285212	0.404688
H55	H	0.338841	0.123135	-0.165016
H56	H	1.164582	0.229179	0.752777
H57	H	0.479860	0.125854	0.255978
C58	C	0.374033	0.123822	-0.262664
C59	C	0.466502	0.125631	-0.281881
H60	H	0.342128	0.123208	-0.324383
H61	H	0.365423	0.069783	-0.225302
H62	H	0.351836	0.177258	-0.225288
H63	H	0.488701	0.072191	-0.319251
H64	H	0.475117	0.179675	-0.319260
H65	H	1.164524	0.229188	0.247173
C66	C	0.897429	0.134026	-0.171729
C67	C	0.804961	0.132221	-0.190928
H68	H	0.929339	0.134645	-0.233453
H69	H	0.906039	0.188059	-0.134367
H70	H	0.919623	0.080585	-0.134357
H71	H	0.782766	0.185666	-0.228293
H72	H	0.796346	0.078182	-0.228305
H73	H	1.219342	0.285224	0.595221
H74	H	0.650465	0.129177	0.255956
H75	H	0.338806	0.123123	0.165013
C76	C	0.974790	-0.083065	0.742426
C77	C	0.950244	0.009897	0.767816
H78	H	0.937630	-0.121090	0.778077
H79	H	0.966937	-0.091072	0.672375
H80	H	1.036447	-0.100082	0.759624
H81	H	0.888588	0.026916	0.750611
H82	H	0.958089	0.017909	0.837883
H83	H	0.965793	0.025891	0.247229
C84	C	0.907012	-0.034301	0.286556
C85	C	0.895445	-0.046129	0.389829
H86	H	0.869858	-0.072340	0.250932
H87	H	0.890352	0.028760	0.269347
H88	H	0.968672	-0.051317	0.269351
H89	H	0.833786	-0.029107	0.407036
H90	H	0.912100	-0.109205	0.407046
H91	H	0.791529	0.131937	0.165003
H92	H	0.911065	-0.030161	0.595337
