data_functionalizedCrystal
_audit_creation_method	'MofGen! by Chris Wilmer'
_symmetry_space_group_name_H-M	'P1'
_symmetry_Int_Tables_number	1
_symmetry_cell_setting	triclinic
loop_
_symmetry_equiv_pos_as_xyz
  x,y,z
_cell_length_a	14.044191
_cell_length_b	10.540510
_cell_length_c	13.101039
_cell_angle_alpha	93.398210
_cell_angle_beta	86.337551
_cell_angle_gamma	88.852544
loop_
_atom_site_label
_atom_site_type_symbol
_atom_site_fract_x
_atom_site_fract_y
_atom_site_fract_z
O1	O	1.264925	0.299890	-0.085154
O2	O	0.988883	0.288828	-0.085168
O3	O	1.133216	0.110288	-0.085160
O4	O	1.120591	0.478429	-0.085162
O5	O	1.122861	0.123121	0.085269
O6	O	0.978527	0.301661	0.085262
O7	O	1.254570	0.312723	0.085275
Zn8	Zn	1.114904	0.309229	0.112328
Zn9	Zn	1.128548	0.292321	-0.112220
O10	O	1.110236	0.491262	0.085268
C11	C	0.948358	0.290405	0.000045
C12	C	0.843036	0.275971	0.000040
C13	C	0.593257	0.351950	0.000050
C14	C	0.650201	0.249605	0.000049
C15	C	0.757504	0.264279	0.000044
C16	C	0.485944	0.337279	0.000055
C17	C	1.127098	0.069306	0.000052
C18	C	1.124284	-0.071929	0.000046
C19	C	1.224528	-0.279215	0.000441
C20	C	1.227554	-0.132345	0.000052
C21	C	1.077332	-0.129363	-0.097278
C22	C	1.075066	-0.276359	-0.097354
C23	C	1.061139	-0.261791	0.096456
C24	C	1.065960	-0.114858	0.097737
C25	C	1.295094	0.311145	0.000060
C26	C	1.400417	0.325578	0.000059
C27	C	1.116355	0.532244	0.000053
C28	C	1.119169	0.673479	0.000053
N29	N	1.105599	0.320769	0.265576
N30	N	1.137860	0.280772	-0.265468
C31	C	1.092940	0.336480	0.474618
C32	C	1.150517	0.265065	0.525496
C33	C	1.143473	0.273807	0.641814
C34	C	1.099983	0.327740	0.358289
H35	H	0.625091	0.450583	0.000046
H36	H	1.264678	-0.093564	0.069816
N37	N	1.128790	-0.332058	-0.193703
H38	H	1.097490	-0.302246	-0.255614
H39	H	1.197008	-0.303308	-0.195237
N40	N	1.222820	0.175384	0.467483
H41	H	1.267861	0.225337	0.422968
H42	H	1.260200	0.128961	0.517708
N43	N	0.608036	0.118944	0.000049
H44	H	0.571269	0.103553	-0.063130
H45	H	0.661041	0.052765	0.000083
H46	H	1.038361	0.404183	0.518412
H47	H	1.118446	-0.100247	-0.169703
N48	N	1.272211	-0.322421	0.092896
H49	H	1.225985	-0.373086	0.135427
H50	H	1.330238	-0.377279	0.069604
H51	H	1.273404	-0.104994	-0.069830
N52	N	1.283110	-0.338402	-0.091477
H53	H	1.241697	-0.395725	-0.133369
H54	H	1.308860	-0.269161	-0.134863
N55	N	1.098429	-0.306276	0.194174
H56	H	1.153323	-0.368850	0.176938
H57	H	1.121129	-0.230870	0.236404
H58	H	0.998094	-0.307498	-0.101767
H59	H	1.001526	-0.089935	-0.100901
N60	N	1.111105	-0.064622	0.193115
H61	H	1.169095	-0.014262	0.173138
H62	H	1.063500	-0.007894	0.236288
N63	N	0.965602	-0.059427	0.105504
H64	H	0.956481	-0.005459	0.045539
H65	H	0.918531	-0.130616	0.104661
H66	H	0.983563	-0.291734	0.097107
