data_functionalizedCrystal
_audit_creation_method	'MofGen! by Chris Wilmer'
_symmetry_space_group_name_H-M	'P1'
_symmetry_Int_Tables_number	1
_symmetry_cell_setting	triclinic
loop_
_symmetry_equiv_pos_as_xyz
  x,y,z
_cell_length_a	23.532407
_cell_length_b	22.010155
_cell_length_c	23.532407
_cell_angle_alpha	90.009202
_cell_angle_beta	82.848712
_cell_angle_gamma	90.013018
loop_
_atom_site_label
_atom_site_type_symbol
_atom_site_fract_x
_atom_site_fract_y
_atom_site_fract_z
O1	O	0.755269	0.050493	0.069134
O2	O	1.088602	0.383826	0.402467
O3	O	1.421935	0.717160	0.735801
O4	O	0.589405	0.050503	0.079137
O5	O	0.922739	0.383837	0.412470
O6	O	1.256072	0.717170	0.745804
O7	O	0.677339	0.050487	-0.008796
O8	O	1.010672	0.383820	0.324537
O9	O	1.344005	0.717153	0.657870
O10	O	0.667336	0.050510	0.157067
O11	O	1.000669	0.383843	0.490400
O12	O	1.334002	0.717176	0.823734
O13	O	0.677312	-0.050564	-0.008796
O14	O	1.010646	0.282770	0.324537
O15	O	1.343979	0.616103	0.657870
O16	O	0.589379	-0.050547	0.079137
O17	O	0.922712	0.282786	0.412470
O18	O	1.256046	0.616120	0.745804
O19	O	0.755242	-0.050557	0.069134
O20	O	1.088576	0.282776	0.402467
O21	O	1.421909	0.616109	0.735801
Cu22	Cu	0.672308	-0.059779	0.074135
Cu23	Cu	1.005642	0.273554	0.407469
Cu24	Cu	1.338975	0.606888	0.740802
Cu25	Cu	0.672340	0.059725	0.074135
Cu26	Cu	1.005673	0.393058	0.407469
Cu27	Cu	1.339006	0.726392	0.740802
O28	O	0.667309	-0.050541	0.157067
O29	O	1.000643	0.282793	0.490400
O30	O	1.333976	0.616126	0.823734
C31	C	0.568176	-0.000021	0.078882
C32	C	0.901510	0.333313	0.412216
C33	C	1.234843	0.666646	0.745549
C34	C	0.504959	-0.000017	0.078116
C35	C	0.838293	0.333316	0.411450
C36	C	1.171626	0.666650	0.744783
C37	C	0.238792	-0.000041	0.022921
C38	C	0.572125	0.333292	0.356254
C39	C	0.905458	0.666625	0.689588
C40	C	0.298192	-0.000041	0.023632
C41	C	0.631525	0.333292	0.356966
C42	C	0.964859	0.666626	0.690299
O43	O	0.334937	-0.000068	-0.020153
O44	O	0.668270	0.333265	0.313180
O45	O	1.001603	0.666599	0.646513
N46	N	0.320818	-0.000030	0.075909
N47	N	0.654152	0.333304	0.409242
N48	N	0.987485	0.666637	0.742575
C49	C	0.284041	-0.000025	0.127477
C50	C	0.617374	0.333309	0.460810
C51	C	0.950707	0.666642	0.794144
O52	O	0.308740	-0.000016	0.172007
O53	O	0.642074	0.333318	0.505341
O54	O	0.975407	0.666651	0.838674
C55	C	0.224642	-0.000029	0.126765
C56	C	0.557975	0.333304	0.460098
C57	C	0.891308	0.666637	0.793432
C58	C	0.202019	-0.000035	0.074485
C59	C	0.535352	0.333299	0.407819
C60	C	0.868686	0.666632	0.741152
C61	C	0.216168	-0.000047	-0.029354
C62	C	0.549502	0.333286	0.303979
C63	C	0.882835	0.666620	0.637312
C64	C	0.156772	-0.000046	-0.030066
C65	C	0.490106	0.333287	0.303268
C66	C	0.823439	0.666620	0.636601
C67	C	0.119999	-0.000039	0.021499
C68	C	0.453333	0.333294	0.354832
C69	C	0.786666	0.666627	0.688165
C70	C	0.142623	-0.000034	0.073774
C71	C	0.475956	0.333300	0.407107
C72	C	0.809289	0.666633	0.740441
C73	C	0.187865	-0.000029	0.178333
C74	C	0.521199	0.333305	0.511666
C75	C	0.854532	0.666638	0.844999
C76	C	0.128463	-0.000034	0.177616
C77	C	0.461796	0.333299	0.510949
C78	C	0.795129	0.666633	0.844283
C79	C	0.105840	-0.000039	0.125336
C80	C	0.439173	0.333294	0.458670
C81	C	0.772507	0.666628	0.792003
C82	C	0.046454	-0.000026	0.124627
C83	C	0.379787	0.333307	0.457960
C84	C	0.713120	0.666641	0.791294
N85	N	0.023828	-0.000037	0.072351
N86	N	0.357161	0.333296	0.405684
N87	N	0.690494	0.666629	0.739017
C88	C	0.060600	-0.000044	0.020787
C89	C	0.393934	0.333289	0.354120
C90	C	0.727267	0.666623	0.687453
C91	C	0.408783	-0.000016	0.128968
C92	C	0.742117	0.333317	0.462302
C93	C	1.075450	0.666651	0.795635
C94	C	0.468181	-0.000007	0.129681
C95	C	0.801514	0.333326	0.463014
C96	C	1.134848	0.666660	0.796348
C97	C	0.482328	-0.000025	0.025836
C98	C	0.815662	0.333309	0.359170
C99	C	1.148995	0.666642	0.692503
C100	C	0.422929	-0.000029	0.025124
C101	C	0.756263	0.333304	0.358457
C102	C	1.089596	0.666638	0.691791
C103	C	0.386157	-0.000027	0.076692
C104	C	0.719490	0.333306	0.410025
C105	C	1.052824	0.666639	0.743359
C106	C	-0.064136	-0.000042	0.019297
C107	C	0.269197	0.333292	0.352630
C108	C	0.602530	0.666625	0.685964
C109	C	-0.123538	-0.000038	0.018590
C110	C	0.209795	0.333295	0.351924
C111	C	0.543128	0.666628	0.685257
C112	C	-0.137680	-0.000024	0.122435
C113	C	0.195653	0.333309	0.455768
C114	C	0.528986	0.666643	0.789101
C115	C	-0.078284	-0.000024	0.123142
C116	C	0.255050	0.333309	0.456475
C117	C	0.588383	0.666642	0.789808
C118	C	-0.041512	-0.000035	0.071568
C119	C	0.291821	0.333298	0.404901
C120	C	0.625154	0.666631	0.738235
O121	O	0.009675	-0.000001	0.168390
O122	O	0.343008	0.333332	0.501723
O123	O	0.676341	0.666665	0.835057
O124	O	0.035892	-0.000061	-0.023737
O125	O	0.369226	0.333272	0.309597
O126	O	0.702559	0.666605	0.642930
N127	N	0.672291	-0.143831	0.074135
N128	N	1.005624	0.189502	0.407468
N129	N	1.338957	0.522835	0.740802
C130	C	0.706685	-0.563608	0.108496
C131	C	1.040018	-0.230275	0.441829
C132	C	1.373352	0.103059	0.775163
C133	C	0.706692	-0.627216	0.108495
C134	C	1.040025	-0.293882	0.441828
C135	C	1.373358	0.039451	0.775161
O136	O	0.735915	-0.660105	0.137706
O137	O	1.069248	-0.326772	0.471039
O138	O	1.402581	0.006562	0.804372
N139	N	0.672351	-0.659038	0.074129
N140	N	1.005684	-0.325705	0.407462
N141	N	1.339017	0.007628	0.740796
C142	C	0.638005	-0.627250	0.039758
C143	C	0.971338	-0.293917	0.373091
C144	C	1.304672	0.039416	0.706425
O145	O	0.608796	-0.660159	0.010527
O146	O	0.942130	-0.326825	0.343860
O147	O	1.275463	0.006508	0.677194
C148	C	0.638002	-0.563644	0.039757
C149	C	0.971335	-0.230311	0.373090
C150	C	1.304668	0.103023	0.706424
C151	C	0.672341	-0.531824	0.074129
C152	C	1.005674	-0.198491	0.407462
C153	C	1.339007	0.134842	0.740796
C154	C	0.741022	-0.531789	0.142865
C155	C	1.074355	-0.198455	0.476198
C156	C	1.407688	0.134878	0.809532
C157	C	0.741014	-0.468185	0.142867
C158	C	1.074347	-0.134852	0.476200
C159	C	1.407681	0.198481	0.809534
C160	C	0.706670	-0.436402	0.108500
C161	C	1.040003	-0.103068	0.441833
C162	C	1.373336	0.230265	0.775167
C163	C	0.672333	-0.468221	0.074131
C164	C	1.005666	-0.134888	0.407465
C165	C	1.339000	0.198445	0.740798
C166	C	0.603660	-0.531857	0.005383
C167	C	0.936993	-0.198524	0.338717
C168	C	1.270326	0.134810	0.672050
C169	C	0.603660	-0.468246	0.005385
C170	C	0.936993	-0.134913	0.338718
C171	C	1.270326	0.198421	0.672052
C172	C	0.637999	-0.436427	0.039757
C173	C	0.971332	-0.103093	0.373090
C174	C	1.304665	0.230240	0.706424
C175	C	0.637981	-0.372834	0.039766
C176	C	0.971314	-0.039501	0.373100
C177	C	1.304648	0.293832	0.706433
N178	N	0.672322	-0.341012	0.074132
N179	N	1.005656	-0.007678	0.407465
N180	N	1.338989	0.325655	0.740799
C181	C	0.706667	-0.372795	0.108499
C182	C	1.040000	-0.039462	0.441832
C183	C	1.373333	0.293871	0.775166
C184	C	0.638015	-0.760828	0.039763
C185	C	0.971349	-0.427495	0.373096
C186	C	1.304682	-0.094161	0.706429
C187	C	0.638015	-0.824433	0.039766
C188	C	0.971348	-0.491100	0.373100
C189	C	1.304682	-0.157767	0.706433
C190	C	0.706703	-0.824394	0.108502
C191	C	1.040036	-0.491061	0.441836
C192	C	1.373369	-0.157728	0.775169
C193	C	0.706699	-0.760788	0.108501
C194	C	1.040033	-0.427455	0.441834
C195	C	1.373366	-0.094121	0.775168
C196	C	0.672356	-0.729005	0.074128
C197	C	1.005690	-0.395672	0.407462
C198	C	1.339023	-0.062339	0.740795
C199	C	0.706647	-0.239224	0.108501
C200	C	1.039981	0.094109	0.441834
C201	C	1.373314	0.427443	0.775168
C202	C	0.706635	-0.175615	0.108502
C203	C	1.039968	0.157718	0.441835
C204	C	1.373302	0.491052	0.775169
C205	C	0.637950	-0.175660	0.039764
C206	C	0.971283	0.157674	0.373098
C207	C	1.304616	0.491007	0.706431
C208	C	0.637960	-0.239263	0.039765
C209	C	0.971293	0.094070	0.373099
C210	C	1.304626	0.427404	0.706432
C211	C	0.672313	-0.271043	0.074135
C212	C	1.005646	0.062290	0.407469
C213	C	1.338980	0.395623	0.740802
O214	O	0.608775	-0.339905	0.010569
O215	O	0.942108	-0.006571	0.343902
O216	O	1.275442	0.326762	0.677235
O217	O	0.735876	-0.339879	0.137720
O218	O	1.069209	-0.006546	0.471053
O219	O	1.402543	0.326788	0.804386
C220	C	0.776472	-0.000032	0.069389
C221	C	1.109805	0.333301	0.402722
C222	C	1.443138	0.666635	0.736055
C223	C	0.839689	-0.000032	0.070155
C224	C	1.173022	0.333302	0.403488
C225	C	1.506355	0.666635	0.736821
C226	C	0.677071	-0.000040	-0.030012
C227	C	1.010404	0.333293	0.303321
C228	C	1.343738	0.666627	0.636654
C229	C	0.676305	-0.000045	-0.093229
C230	C	1.009638	0.333289	0.240104
C231	C	1.342972	0.666622	0.573437
N232	N	0.672362	0.143777	0.074131
N233	N	1.005695	0.477111	0.407465
N234	N	1.339029	0.810444	0.740798
C235	C	0.723538	-0.000014	-0.492332
C236	C	1.056872	0.333319	-0.158999
C237	C	1.390205	0.666652	0.174334
C238	C	0.722827	-0.000010	-0.551733
C239	C	1.056160	0.333324	-0.218399
C240	C	1.389494	0.666657	0.114934
O241	O	0.766613	0.000010	-0.588477
O242	O	1.099946	0.333343	-0.255144
O243	O	1.433280	0.666677	0.078190
N244	N	0.670551	-0.000007	-0.574359
N245	N	1.003884	0.333327	-0.241025
N246	N	1.337217	0.666660	0.092308
C247	C	0.618982	-0.000002	-0.537581
C248	C	0.952316	0.333331	-0.204248
C249	C	1.285649	0.666664	0.129085
O250	O	0.574452	0.000001	-0.562281
O251	O	0.907785	0.333334	-0.228948
O252	O	1.241119	0.666668	0.104386
C253	C	0.619695	-0.000003	-0.478182
C254	C	0.953028	0.333331	-0.144849
C255	C	1.286361	0.666664	0.188485
C256	C	0.671974	-0.000012	-0.455559
C257	C	1.005308	0.333322	-0.122226
C258	C	1.338641	0.666655	0.211107
C259	C	0.775814	-0.000023	-0.469709
C260	C	1.109147	0.333311	-0.136376
C261	C	1.442481	0.666644	0.196958
C262	C	0.776525	-0.000028	-0.410313
C263	C	1.109858	0.333305	-0.076980
C264	C	1.443192	0.666638	0.256354
C265	C	0.724961	-0.000026	-0.373540
C266	C	1.058294	0.333307	-0.040207
C267	C	1.391628	0.666641	0.293127
C268	C	0.672685	-0.000018	-0.396163
C269	C	1.006019	0.333316	-0.062830
C270	C	1.339352	0.666649	0.270503
C271	C	0.568127	0.000006	-0.441406
C272	C	0.901460	0.333339	-0.108072
C273	C	1.234794	0.666673	0.225261
C274	C	0.568843	0.000006	-0.382003
C275	C	0.902177	0.333339	-0.048670
C276	C	1.235510	0.666673	0.284663
C277	C	0.621123	-0.000003	-0.359381
C278	C	0.954457	0.333330	-0.026047
C279	C	1.287790	0.666664	0.307286
C280	C	0.621832	-0.000021	-0.299994
C281	C	0.955166	0.333313	0.033339
C282	C	1.288499	0.666646	0.366672
N283	N	0.674109	-0.000024	-0.277368
N284	N	1.007442	0.333310	0.055965
N285	N	1.340775	0.666643	0.389299
C286	C	0.725673	-0.000026	-0.314141
C287	C	1.059006	0.333307	0.019192
C288	C	1.392340	0.666640	0.352526
C289	C	0.617491	-0.000001	-0.662324
C290	C	0.950824	0.333333	-0.328990
C291	C	1.284158	0.666666	0.004343
C292	C	0.616778	-0.000005	-0.721722
C293	C	0.950112	0.333329	-0.388388
C294	C	1.283445	0.666662	-0.055055
C295	C	0.720623	-0.000011	-0.735869
C296	C	1.053957	0.333322	-0.402536
C297	C	1.387290	0.666656	-0.069202
C298	C	0.721335	-0.000011	-0.676470
C299	C	1.054669	0.333322	-0.343137
C300	C	1.388002	0.666656	-0.009803
C301	C	0.669767	-0.000004	-0.639698
C302	C	1.003101	0.333330	-0.306364
C303	C	1.336434	0.666663	0.026969
C304	C	0.727163	-0.000039	-0.189404
C305	C	1.060496	0.333294	0.143929
C306	C	1.393829	0.666628	0.477262
C307	C	0.727869	-0.000047	-0.130002
C308	C	1.061203	0.333286	0.203331
C309	C	1.394536	0.666619	0.536664
C310	C	0.624025	-0.000038	-0.115860
C311	C	0.957358	0.333295	0.217473
C312	C	1.290691	0.666629	0.550807
C313	C	0.623318	-0.000033	-0.175257
C314	C	0.956651	0.333301	0.158076
C315	C	1.289984	0.666634	0.491410
C316	C	0.674891	-0.000031	-0.212028
C317	C	1.008225	0.333302	0.121305
C318	C	1.341558	0.666635	0.454639
O319	O	0.578069	-0.000038	-0.263215
O320	O	0.911403	0.333295	0.070118
O321	O	1.244736	0.666629	0.403452
O322	O	0.770196	-0.000022	-0.289433
O323	O	1.103529	0.333312	0.043900
O324	O	1.436863	0.666645	0.377234
C325	C	0.667577	-0.000013	0.178283
C326	C	1.000910	0.333321	0.511617
C327	C	1.334244	0.666654	0.844950
C328	C	0.668343	-0.000004	0.241500
C329	C	1.001676	0.333329	0.574834
C330	C	1.335010	0.666663	0.908167
H331	H	-0.141954	-0.000041	-0.023984
H332	H	0.191379	0.333292	0.309349
H333	H	0.524713	0.666626	0.642683
H334	H	-0.059864	-0.000019	0.165712
H335	H	0.273470	0.333314	0.499045
H336	H	0.606803	0.666647	0.832379
N337	N	-0.024481	-0.000056	-0.036327
N338	N	0.308852	0.333278	0.297006
N339	N	0.642185	0.666611	0.630340
H340	H	-0.047834	-0.000059	-0.069547
H341	H	0.285499	0.333275	0.263786
H342	H	0.618833	0.666608	0.597120
H343	H	0.000480	0.037405	-0.038297
H344	H	0.333813	0.370738	0.295036
H345	H	0.667147	0.704072	0.628369
H346	H	0.582043	-0.000038	-0.085909
H347	H	0.915376	0.333295	0.247424
H348	H	1.248709	0.666629	0.580758
N349	N	0.600963	-0.726555	0.002692
N350	N	0.934296	-0.393222	0.336025
N351	N	1.267630	-0.059888	0.669358
H352	H	0.572944	-0.700169	0.027627
H353	H	0.906278	-0.366835	0.360961
H354	H	1.239611	-0.033502	0.694294
H355	H	0.625952	-0.700198	-0.025309
H356	H	0.959285	-0.366865	0.308024
H357	H	1.292618	-0.033531	0.641357
N358	N	0.369136	-0.000008	0.184600
N359	N	0.702469	0.333325	0.517933
N360	N	1.035803	0.666658	0.851267
H361	H	0.344180	0.037448	0.186630
H362	H	0.677513	0.370782	0.519963
H363	H	1.010846	0.704115	0.853297
H364	H	0.344209	-0.037495	0.186596
H365	H	0.677542	0.295838	0.519929
H366	H	1.010875	0.629171	0.853263
N367	N	0.743692	-0.273501	0.145573
N368	N	1.077026	0.059832	0.478907
N369	N	1.410359	0.393165	0.812240
H370	H	0.771714	-0.299885	0.120638
H371	H	1.105047	0.033448	0.453972
H372	H	1.438381	0.366781	0.787305
H373	H	0.765404	-0.243650	0.167341
H374	H	1.098737	0.089683	0.500674
H375	H	1.432071	0.423016	0.834008
N376	N	0.743678	-0.141294	0.145570
N377	N	1.077012	0.192039	0.478903
N378	N	1.410345	0.525372	0.812237
H379	H	0.718725	-0.114909	0.173575
H380	H	1.052058	0.218425	0.506909
H381	H	1.385391	0.551758	0.840242
H382	H	0.765433	-0.171122	0.167300
H383	H	1.098766	0.162211	0.500633
H384	H	1.432099	0.495545	0.833967
H385	H	0.763906	-0.000018	-0.658055
H386	H	1.097239	0.333315	-0.324722
H387	H	1.430573	0.666649	0.008612
H388	H	0.246104	-0.000055	-0.071347
H389	H	0.579437	0.333279	0.261987
H390	H	0.912771	0.666612	0.595320
N391	N	0.132376	-0.000058	-0.086453
N392	N	0.465710	0.333276	0.246880
N393	N	0.799043	0.666609	0.580214
H394	H	0.164692	-0.000064	-0.119006
H395	H	0.498025	0.333269	0.214327
H396	H	0.831358	0.666602	0.547660
H397	H	0.108035	-0.037521	-0.089010
H398	H	0.441369	0.295812	0.244323
H399	H	0.774702	0.629145	0.577657
N400	N	0.492576	0.000000	0.186069
N401	N	0.825909	0.333334	0.519402
N402	N	1.159243	0.666667	0.852736
H403	H	0.535785	-0.000001	0.178702
H404	H	0.869119	0.333332	0.512035
H405	H	1.202452	0.666666	0.845368
H406	H	0.479110	0.037464	0.208617
H407	H	0.812443	0.370797	0.541950
H408	H	1.145776	0.704131	0.875284
N409	N	-0.177348	-0.000014	0.178048
N410	N	0.155985	0.333319	0.511382
N411	N	0.489319	0.666652	0.844715
H412	H	-0.218408	-0.000017	0.169660
H413	H	0.114925	0.333316	0.502994
H414	H	0.448258	0.666649	0.836327
H415	H	-0.170064	-0.037473	0.200844
H416	H	0.163269	0.295860	0.534178
H417	H	0.496603	0.629193	0.867511
N418	N	0.212256	-0.000017	0.234720
N419	N	0.545589	0.333317	0.568054
N420	N	0.878922	0.666650	0.901387
H421	H	0.179939	-0.000015	0.267273
H422	H	0.513273	0.333319	0.600606
H423	H	0.846606	0.666652	0.933939
H424	H	0.236586	-0.037475	0.237283
H425	H	0.569919	0.295858	0.570616
H426	H	0.903252	0.629191	0.903950
H427	H	0.817806	-0.000022	-0.499644
H428	H	1.151140	0.333311	-0.166311
H429	H	1.484473	0.666644	0.167022
H430	H	0.762610	-0.000011	-0.765821
H431	H	1.095943	0.333323	-0.432487
H432	H	1.429276	0.666656	-0.099154
H433	H	0.610046	-0.850335	0.011784
H434	H	0.943379	-0.517002	0.345117
H435	H	1.276713	-0.183669	0.678451
H436	H	0.098525	-0.000035	0.219610
H437	H	0.431858	0.333298	0.552943
H438	H	0.765191	0.666631	0.886277
H439	H	0.575496	0.000000	-0.632386
H440	H	0.908829	0.333334	-0.299053
H441	H	1.242162	0.666667	0.034281
H442	H	0.768992	-0.557660	0.170851
H443	H	1.102325	-0.224327	0.504184
H444	H	1.435659	0.109007	0.837517
N445	N	0.521993	-0.000037	-0.029784
N446	N	0.855326	0.333296	0.303549
N447	N	1.188659	0.666630	0.636882
H448	H	0.546962	0.037422	-0.031804
H449	H	0.880295	0.370755	0.301529
H450	H	1.213628	0.704088	0.634862
H451	H	0.546907	-0.037522	-0.031766
H452	H	0.880240	0.295811	0.301568
H453	H	1.213573	0.629145	0.634901
H454	H	0.768979	-0.442284	0.170854
H455	H	1.102312	-0.108950	0.504187
H456	H	1.435646	0.224383	0.837521
N457	N	0.511739	0.000008	-0.465796
N458	N	0.845072	0.333341	-0.132463
N459	N	1.178406	0.666675	0.200870
H460	H	0.479187	0.000011	-0.433480
H461	H	0.812520	0.333344	-0.100146
H462	H	1.145854	0.666677	0.233187
H463	H	0.509186	0.037469	-0.490128
H464	H	0.842519	0.370802	-0.156794
H465	H	1.175853	0.704135	0.176539
H466	H	0.734661	-0.734885	0.136490
H467	H	1.067994	-0.401551	0.469824
H468	H	1.401328	-0.068218	0.803157
N469	N	0.743747	-0.858681	0.145571
N470	N	1.077081	-0.525348	0.478904
N471	N	1.410414	-0.192015	0.812237
H472	H	0.738537	-0.903803	0.140351
H473	H	1.071871	-0.570470	0.473685
H474	H	1.405204	-0.237137	0.807018
H475	H	0.785229	-0.847554	0.134107
H476	H	1.118563	-0.514221	0.467441
H477	H	1.451896	-0.180887	0.800774
N478	N	0.566636	-0.566166	-0.031704
N479	N	0.899970	-0.232833	0.301629
N480	N	1.233303	0.100500	0.634963
H481	H	0.544890	-0.536371	-0.053479
H482	H	0.878223	-0.203037	0.279854
H483	H	1.211557	0.130296	0.613187
H484	H	0.591642	-0.592543	-0.059669
H485	H	0.924976	-0.259210	0.273664
H486	H	1.258309	0.074123	0.606998
H487	H	0.574207	-0.000008	-0.740135
H488	H	0.907540	0.333325	-0.406802
H489	H	1.240874	0.666659	-0.073469
N490	N	0.566930	-0.000028	-0.199657
N491	N	0.900264	0.333306	0.133676
N492	N	1.233597	0.666639	0.467009
H493	H	0.564330	0.037436	-0.223977
H494	H	0.897664	0.370770	0.109357
H495	H	1.230997	0.704103	0.442690
H496	H	0.564343	-0.037507	-0.223968
H497	H	0.897676	0.295826	0.109365
H498	H	1.231010	0.629159	0.442698
H499	H	0.819097	-0.000033	-0.391900
H500	H	1.152430	0.333300	-0.058566
H501	H	1.485763	0.666633	0.274767
H502	H	0.526850	0.000013	-0.352065
H503	H	0.860183	0.333347	-0.018732
H504	H	1.193516	0.666680	0.314601
H505	H	0.575693	-0.442372	-0.022607
H506	H	0.909026	-0.109039	0.310727
H507	H	1.242360	0.224295	0.644060
N508	N	0.398531	-0.000035	-0.031262
N509	N	0.731864	0.333298	0.302071
N510	N	1.065198	0.666631	0.635405
H511	H	0.430845	-0.000038	-0.063817
H512	H	0.764178	0.333296	0.269517
H513	H	1.097512	0.666629	0.602850
H514	H	0.374191	-0.037499	-0.033822
H515	H	0.707524	0.295834	0.299511
H516	H	1.040857	0.629167	0.632844
H517	H	0.609991	-0.265172	0.011784
H518	H	0.943324	0.068162	0.345117
H519	H	1.276658	0.401495	0.678451
N520	N	0.600914	-0.141373	0.002693
N521	N	0.934247	0.191961	0.336026
N522	N	1.267581	0.525294	0.669360
H523	H	0.606127	-0.096251	0.007908
H524	H	0.939461	0.237083	0.341242
H525	H	1.272794	0.570416	0.674575
H526	H	0.612413	-0.152496	-0.038784
H527	H	0.945747	0.180837	0.294550
H528	H	1.279080	0.514171	0.627883
H529	H	0.769159	-0.000035	-0.219337
H530	H	1.102492	0.333298	0.113996
H531	H	1.435825	0.666631	0.447330
H532	H	0.770443	-0.000056	-0.111587
H533	H	1.103777	0.333277	0.221747
H534	H	1.437110	0.666611	0.555080
