data_functionalizedCrystal
_audit_creation_method	'MofGen! by Chris Wilmer'
_symmetry_space_group_name_H-M	'P1'
_symmetry_Int_Tables_number	1
_symmetry_cell_setting	triclinic
loop_
_symmetry_equiv_pos_as_xyz
  x,y,z
_cell_length_a	13.897448
_cell_length_b	14.908571
_cell_length_c	14.908757
_cell_angle_alpha	83.225086
_cell_angle_beta	93.306366
_cell_angle_gamma	93.286109
loop_
_atom_site_label
_atom_site_type_symbol
_atom_site_fract_x
_atom_site_fract_y
_atom_site_fract_z
Zn1	Zn	-0.435036	-1.413243	0.591515
Zn2	Zn	0.064964	-0.913243	1.091515
Zn3	Zn	-0.605096	-1.404448	0.440149
Zn4	Zn	-0.105096	-0.904448	0.940149
Zn5	Zn	-0.435004	-1.253176	0.431449
Zn6	Zn	0.064996	-0.753176	0.931449
Zn7	Zn	-0.587474	-1.261851	0.582749
Zn8	Zn	-0.087474	-0.761851	1.082749
O9	O	-0.515653	-1.333179	0.511465
O10	O	-0.015653	-0.833179	1.011465
O11	O	-0.464984	-1.538742	0.578746
O12	O	0.035016	-1.038742	1.078746
O13	O	-0.589894	-1.377071	0.312328
O14	O	-0.089894	-0.877071	0.812328
O15	O	-0.300028	-1.274460	0.452709
O16	O	0.199972	-0.774460	0.952709
O17	O	-0.589926	-1.532280	0.467538
O18	O	-0.089926	-1.032280	0.967538
O19	O	-0.300052	-1.392060	0.570309
O20	O	0.199948	-0.892060	1.070309
O21	O	-0.464928	-1.265932	0.305936
O22	O	0.035072	-0.765932	0.805936
O23	O	-0.447840	-1.127661	0.444209
O24	O	0.052160	-0.627661	0.944209
O25	O	-0.559892	-1.289244	0.710578
O26	O	-0.059892	-0.789244	1.210578
O27	O	-0.559860	-1.134034	0.555369
O28	O	-0.059860	-0.634034	1.055369
O29	O	-0.447896	-1.400471	0.717019
O30	O	0.052104	-0.900471	1.217019
O31	O	-0.737739	-1.385482	0.459038
O32	O	-0.237739	-0.885482	0.959038
O33	O	-0.724792	-1.280716	0.563805
O34	O	-0.224792	-0.780716	1.063805
C35	C	-0.501935	-1.098005	0.497894
C36	C	-0.001935	-0.598005	0.997894
C37	C	-0.496089	-0.997397	0.492110
C38	C	0.003911	-0.497397	0.992110
C39	C	-0.766265	-1.333112	0.511435
C40	C	-0.266265	-0.833112	1.011435
C41	C	-0.873481	-1.333168	0.511458
C42	C	-0.373481	-0.833168	1.011458
C43	C	-0.501932	-1.346806	0.747560
C44	C	-0.001932	-0.846806	1.247560
C45	C	-0.496085	-1.352613	0.848170
C46	C	0.003915	-0.852613	1.348170
C47	C	-1.069778	-1.333266	0.511520
C48	C	-0.569778	-0.833266	1.011520
C49	C	-0.960544	-1.333209	0.511488
C50	C	-0.460544	-0.833209	1.011488
C51	C	-0.264062	-1.333273	0.511517
C52	C	0.235938	-0.833273	1.011517
C53	C	-0.156849	-1.333313	0.511539
C54	C	0.343151	-0.833313	1.011539
C55	C	-0.529425	-1.569272	0.525090
C56	C	-0.029425	-1.069272	1.025090
C57	C	-0.535293	-1.669881	0.530896
C58	C	-0.035293	-1.169881	1.030896
C59	C	-0.601949	-0.815021	0.596835
C60	C	-0.101949	-0.315021	1.096835
C61	C	-0.596458	-0.720491	0.591403
C62	C	-0.096458	-0.220491	1.091403
C63	C	-0.479613	-0.713807	0.475819
C64	C	0.020387	-0.213807	0.975819
C65	C	-0.485103	-0.808337	0.481251
C66	C	0.014897	-0.308337	0.981251
C67	C	-0.546274	-0.858940	0.541760
C68	C	-0.046274	-0.358940	1.041760
C69	C	-0.551769	-0.953471	0.547187
C70	C	-0.051769	-0.453471	1.047187
C71	C	-0.434919	-0.946786	0.431608
C72	C	0.065081	-0.446786	0.931608
C73	C	-0.429429	-0.852256	0.426176
C74	C	0.070571	-0.352256	0.926176
C75	C	-0.601741	-1.247706	1.030521
C76	C	-0.101741	-0.747706	1.530521
C77	C	-0.596251	-1.253159	1.125053
C78	C	-0.096251	-0.753159	1.625053
C79	C	-0.479619	-1.368976	1.131766
C80	C	0.020381	-0.868976	1.631766
C81	C	-0.485110	-1.363523	1.037235
C82	C	0.014890	-0.863523	1.537235
C83	C	-0.546172	-1.302885	0.986616
C84	C	-0.046172	-0.802885	1.486616
C85	C	-0.551657	-1.297428	0.892082
C86	C	-0.051657	-0.797428	1.392082
C87	C	-0.435031	-1.413249	0.898798
C88	C	0.064969	-0.913249	1.398798
C89	C	-0.429540	-1.418702	0.993329
C90	C	0.070460	-0.918702	1.493329
C91	C	-0.529342	-1.319599	1.276288
C92	C	-0.029342	-0.819599	1.776288
C93	C	-0.535190	-1.313791	1.175679
C94	C	-0.035190	-0.813791	1.675679
H95	H	-0.601580	-0.994671	0.596455
H96	H	-0.101580	-0.494671	1.096455
O97	O	-0.413774	-1.434380	1.186376
O98	O	0.086226	-0.934380	1.686376
H99	H	-0.376058	-1.471842	1.139967
H100	H	0.123942	-0.971842	1.639967
O101	O	-0.656184	-1.193641	1.172409
O102	O	-0.156184	-0.693641	1.672409
H103	H	-0.607824	-1.150093	1.212831
H104	H	-0.107824	-0.650093	1.712831
H105	H	-0.389587	-0.982555	0.386760
H106	H	0.110413	-0.482555	0.886760
H107	H	-0.651762	-0.856223	0.646099
H108	H	-0.151762	-0.356223	1.146099
H109	H	-0.601366	-1.248044	0.850868
H110	H	-0.101366	-0.748044	1.350868
H111	H	-0.379828	-1.468074	1.034556
H112	H	0.120172	-0.968074	1.534556
H113	H	-0.651442	-1.198316	0.989305
H114	H	-0.151442	-0.698316	1.489305
O115	O	-0.656595	-0.673112	0.650724
O116	O	-0.156595	-0.173112	1.150724
H117	H	-0.700088	-0.724182	0.693677
H118	H	-0.200088	-0.224182	1.193677
H119	H	-0.429804	-0.672590	0.426562
H120	H	0.070196	-0.172590	0.926562
O121	O	-0.375096	-1.472775	0.851444
O122	O	0.124904	-0.972775	1.351444
H123	H	-0.326164	-1.429795	0.806043
H124	H	0.173836	-0.929795	1.306043
O125	O	-0.363481	-0.797675	0.360890
O126	O	0.136519	-0.297675	0.860890
H127	H	-0.369028	-0.724563	0.366352
H128	H	0.130972	-0.224563	0.866352
