data_functionalizedCrystal
_audit_creation_method	'MofGen! by Chris Wilmer'
_symmetry_space_group_name_H-M	'P1'
_symmetry_Int_Tables_number	1
_symmetry_cell_setting	triclinic
loop_
_symmetry_equiv_pos_as_xyz
  x,y,z
_cell_length_a	16.959455
_cell_length_b	16.959453
_cell_length_c	17.077396
_cell_angle_alpha	89.970936
_cell_angle_beta	89.975476
_cell_angle_gamma	90.017008
loop_
_atom_site_label
_atom_site_type_symbol
_atom_site_fract_x
_atom_site_fract_y
_atom_site_fract_z
Zn1	Zn	1.208417	-0.314744	-0.443945
Zn2	Zn	1.541750	0.018589	-0.110611
Zn3	Zn	1.875083	0.351922	0.222722
Zn4	Zn	1.208330	-0.446932	-0.312677
Zn5	Zn	1.541663	-0.113599	0.020656
Zn6	Zn	1.874996	0.219734	0.353989
Zn7	Zn	1.076236	-0.314765	-0.312681
Zn8	Zn	1.409569	0.018569	0.020652
Zn9	Zn	1.742902	0.351902	0.353986
Zn10	Zn	1.076210	-0.446878	-0.443889
Zn11	Zn	1.409543	-0.113545	-0.110556
Zn12	Zn	1.742877	0.219789	0.222777
O13	O	1.142298	-0.380830	-0.378298
O14	O	1.475631	-0.047496	-0.044965
O15	O	1.808965	0.285837	0.288368
O16	O	1.319016	-0.332294	-0.426553
O17	O	1.652349	0.001040	-0.093220
O18	O	1.985683	0.334373	0.240113
O19	O	1.190782	-0.429431	-0.202831
O20	O	1.524115	-0.096098	0.130502
O21	O	1.857448	0.237236	0.463836
O22	O	1.093817	-0.204151	-0.330118
O23	O	1.427150	0.129182	0.003215
O24	O	1.760483	0.462516	0.336548
O25	O	1.318952	-0.429411	-0.330112
O26	O	1.652286	-0.096078	0.003222
O27	O	1.985619	0.237255	0.336555
O28	O	1.190930	-0.204136	-0.426557
O29	O	1.524263	0.129197	-0.093224
O30	O	1.857596	0.462531	0.240110
O31	O	1.093732	-0.332328	-0.202834
O32	O	1.427066	0.001005	0.130500
O33	O	1.760399	0.334338	0.463833
O34	O	0.965621	-0.332276	-0.330065
O35	O	1.298955	0.001058	0.003269
O36	O	1.632288	0.334391	0.336602
O37	O	1.093773	-0.429319	-0.553744
O38	O	1.427106	-0.095986	-0.220410
O39	O	1.760440	0.237348	0.112923
O40	O	0.965603	-0.429339	-0.426463
O41	O	1.298936	-0.096005	-0.093130
O42	O	1.632269	0.237328	0.240204
O43	O	1.190905	-0.332241	-0.553784
O44	O	1.524238	0.001092	-0.220451
O45	O	1.857571	0.334426	0.112882
O46	O	1.190757	-0.557536	-0.330058
O47	O	1.524090	-0.224203	0.003275
O48	O	1.857423	0.109131	0.336608
O49	O	1.093689	-0.557496	-0.426459
O50	O	1.427022	-0.224163	-0.093126
O51	O	1.760356	0.109171	0.240207
C52	C	0.936932	-0.380804	-0.378259
C53	C	1.270265	-0.047471	-0.044925
C54	C	1.603598	0.285863	0.288408
C55	C	0.849075	-0.380812	-0.378260
C56	C	1.182408	-0.047479	-0.044927
C57	C	1.515742	0.285855	0.288406
C58	C	0.477556	-0.431349	-0.328055
C59	C	0.810889	-0.098016	0.005278
C60	C	1.144222	0.235318	0.338611
C61	C	0.477643	-0.330376	-0.428636
C62	C	0.810977	0.002957	-0.095303
C63	C	1.144310	0.336290	0.238030
C64	C	0.560189	-0.330363	-0.428617
C65	C	0.893523	0.002970	-0.095284
C66	C	1.226856	0.336303	0.238049
C67	C	0.601422	-0.380845	-0.378317
C68	C	0.934756	-0.047511	-0.044984
C69	C	1.268089	0.285822	0.288349
C70	C	0.560109	-0.431339	-0.328036
C71	C	0.893443	-0.098006	0.005297
C72	C	1.226776	0.235328	0.338630
C73	C	0.601509	-0.279875	-0.478903
C74	C	0.934842	0.053458	-0.145570
C75	C	1.268175	0.386791	0.187764
C76	C	0.684059	-0.279861	-0.478886
C77	C	1.017393	0.053472	-0.145553
C78	C	1.350726	0.386806	0.187780
C79	C	0.725294	-0.330339	-0.428582
C80	C	1.058627	0.002994	-0.095249
C81	C	1.391960	0.336328	0.238085
C82	C	0.683976	-0.380835	-0.378298
C83	C	1.017309	-0.047502	-0.044965
C84	C	1.350642	0.285832	0.288368
C85	C	0.725209	-0.431316	-0.327998
C86	C	1.058542	-0.097983	0.005335
C87	C	1.391875	0.235350	0.338668
C88	C	0.683892	-0.481809	-0.277710
C89	C	1.017225	-0.148475	0.055623
C90	C	1.350559	0.184858	0.388956
C91	C	0.601344	-0.481817	-0.277732
C92	C	0.934677	-0.148484	0.055601
C93	C	1.268010	0.184849	0.388935
C94	C	0.807842	-0.330331	-0.428560
C95	C	1.141176	0.003003	-0.095227
C96	C	1.474509	0.336336	0.238106
C97	C	0.807762	-0.431306	-0.327979
C98	C	1.141095	-0.097973	0.005354
C99	C	1.474429	0.235360	0.338687
C100	C	1.142232	-0.586196	-0.378269
C101	C	1.475565	-0.252863	-0.044936
C102	C	1.808899	0.080471	0.288397
C103	C	1.142276	-0.674053	-0.378283
C104	C	1.475610	-0.340719	-0.044950
C105	C	1.808943	-0.007386	0.288383
C106	C	1.192929	-1.045462	-0.428609
C107	C	1.526263	-0.712129	-0.095275
C108	C	1.859596	-0.378795	0.238058
C109	C	1.091887	-1.045594	-0.328104
C110	C	1.425221	-0.712261	0.005229
C111	C	1.758554	-0.378928	0.338562
C112	C	1.091858	-0.963049	-0.328086
C113	C	1.425191	-0.629715	0.005247
C114	C	1.758525	-0.296382	0.338580
C115	C	1.142364	-0.921706	-0.378331
C116	C	1.475698	-0.588372	-0.044998
C117	C	1.809031	-0.255039	0.288336
C118	C	1.192900	-0.962908	-0.428594
C119	C	1.526233	-0.629575	-0.095260
C120	C	1.859567	-0.296242	0.238073
C121	C	1.041318	-0.921840	-0.277830
C122	C	1.374651	-0.588506	0.055503
C123	C	1.707984	-0.255173	0.388837
C124	C	1.041286	-0.839289	-0.277811
C125	C	1.374619	-0.505955	0.055523
C126	C	1.707952	-0.172622	0.388856
C127	C	1.091797	-0.797944	-0.328052
C128	C	1.425130	-0.464611	0.005281
C129	C	1.758463	-0.131277	0.338615
C130	C	1.142335	-0.839152	-0.378316
C131	C	1.475668	-0.505819	-0.044983
C132	C	1.809002	-0.172485	0.288350
C133	C	1.192841	-0.797809	-0.428561
C134	C	1.526175	-0.464476	-0.095228
C135	C	1.859508	-0.131142	0.238106
C136	C	1.243384	-0.839015	-0.478822
C137	C	1.576717	-0.505682	-0.145488
C138	C	1.910051	-0.172349	0.187845
C139	C	1.243411	-0.921564	-0.478835
C140	C	1.576744	-0.588230	-0.145502
C141	C	1.910078	-0.254897	0.187831
C142	C	1.091770	-0.715396	-0.328039
C143	C	1.425103	-0.382062	0.005295
C144	C	1.758437	-0.048729	0.338628
C145	C	1.192812	-0.715255	-0.428546
C146	C	1.526145	-0.381922	-0.095213
C147	C	1.859479	-0.048589	0.238121
C148	C	1.348466	-0.380856	-0.378338
C149	C	1.681800	-0.047523	-0.045005
C150	C	2.015133	0.285810	0.288328
C151	C	1.436323	-0.380868	-0.378355
C152	C	1.769656	-0.047534	-0.045022
C153	C	2.102989	0.285799	0.288311
C154	C	1.142346	-0.380772	-0.583043
C155	C	1.475679	-0.047438	-0.249709
C156	C	1.809012	0.285895	0.083624
C157	C	1.142366	-0.380747	-0.670292
C158	C	1.475700	-0.047413	-0.336959
C159	C	1.809033	0.285920	-0.003626
C160	C	1.142386	-0.174662	-0.378344
C161	C	1.475719	0.158672	-0.045011
C162	C	1.809052	0.492005	0.288322
C163	C	1.142423	-0.086805	-0.378364
C164	C	1.475756	0.246528	-0.045031
C165	C	1.809090	0.579862	0.288303
C166	C	1.192945	-0.330194	-0.711305
C167	C	1.526278	0.003139	-0.377972
C168	C	1.859611	0.336473	-0.044638
C169	C	1.192954	-0.330168	-0.793285
C170	C	1.526287	0.003166	-0.459952
C171	C	1.859621	0.336499	-0.126619
C172	C	1.142389	-0.380699	-0.834252
C173	C	1.475722	-0.047365	-0.500919
C174	C	1.809055	0.285968	-0.167585
C175	C	1.091805	-0.431254	-0.793234
C176	C	1.425138	-0.097920	-0.459900
C177	C	1.758471	0.235413	-0.126567
C178	C	1.091792	-0.431275	-0.711255
C179	C	1.425125	-0.097942	-0.377921
C180	C	1.758459	0.235391	-0.044588
C181	C	1.091837	-0.431206	-0.964104
C182	C	1.425170	-0.097873	-0.630770
C183	C	1.758503	0.235461	-0.297437
C184	C	1.091850	-0.431186	-1.046088
C185	C	1.425184	-0.097852	-0.712755
C186	C	1.758517	0.235481	-0.379422
C187	C	1.192999	-0.330098	-1.046135
C188	C	1.526332	0.003235	-0.712801
C189	C	1.859665	0.336568	-0.379468
C190	C	1.192986	-0.330120	-0.964156
C191	C	1.526319	0.003213	-0.630822
C192	C	1.859653	0.336546	-0.297489
C193	C	1.142403	-0.380676	-0.923143
C194	C	1.475736	-0.047343	-0.589810
C195	C	1.809069	0.285990	-0.256476
C196	C	1.142296	-0.380831	-0.174350
C197	C	1.475629	-0.047497	0.158983
C198	C	1.808963	0.285836	0.492316
C199	C	1.142429	-0.380633	-0.087101
C200	C	1.475762	-0.047300	0.246232
C201	C	1.809095	0.286034	0.579566
H202	H	0.717692	-0.238746	-0.519834
H203	H	1.051026	0.094587	-0.186500
H204	H	1.384359	0.427920	0.146833
H205	H	1.050598	-0.472433	-0.677863
H206	H	1.383931	-0.139099	-0.344530
H207	H	1.717264	0.194234	-0.011197
Cl208	Cl	1.256576	-0.266648	-0.844841
Cl209	Cl	1.589909	0.066686	-0.511507
Cl210	Cl	1.923243	0.400019	-0.178174
Cl211	Cl	0.735737	-0.545274	-0.214484
Cl212	Cl	1.069071	-0.211940	0.118849
Cl213	Cl	1.402404	0.121393	0.452183
Cl214	Cl	1.256314	-0.663288	-0.491711
Cl215	Cl	1.589647	-0.329955	-0.158377
Cl216	Cl	1.922980	0.003379	0.174956
Cl217	Cl	0.549670	-0.216428	-0.542143
Cl218	Cl	0.883003	0.116905	-0.208810
Cl219	Cl	1.216337	0.450238	0.124523
H220	H	1.284503	-0.805344	-0.519735
H221	H	1.617837	-0.472011	-0.186402
H222	H	1.951170	-0.138678	0.146932
H223	H	1.000132	-0.805744	-0.236885
H224	H	1.333465	-0.472410	0.096448
H225	H	1.666799	-0.139077	0.429781
Cl226	Cl	0.859779	-0.266864	-0.491778
Cl227	Cl	1.193113	0.066470	-0.158445
Cl228	Cl	1.526446	0.399803	0.174889
Cl229	Cl	1.256590	-0.266543	-1.097693
Cl230	Cl	1.589923	0.066790	-0.764359
Cl231	Cl	1.923256	0.400124	-0.431026
H232	H	1.234165	-0.288978	-0.930803
H233	H	1.567498	0.044355	-0.597470
H234	H	1.900832	0.377689	-0.264136
H235	H	1.050615	-0.681849	-0.287121
H236	H	1.383948	-0.348516	0.046213
H237	H	1.717282	-0.015183	0.379546
Cl238	Cl	0.977813	-0.973817	-0.214685
Cl239	Cl	1.311146	-0.640483	0.118648
Cl240	Cl	1.644480	-0.307150	0.451981
H241	H	1.284560	-0.955121	-0.519755
H242	H	1.617893	-0.621788	-0.186422
H243	H	1.951226	-0.288455	0.146911
Cl244	Cl	1.256520	-0.266669	-0.659812
Cl245	Cl	1.589854	0.066664	-0.326479
Cl246	Cl	1.923187	0.399997	0.006854
H247	H	1.050764	-1.079261	-0.287201
H248	H	1.384097	-0.745928	0.046133
H249	H	1.717431	-0.412594	0.379466
H250	H	0.841328	-0.472412	-0.287016
H251	H	1.174661	-0.139079	0.046317
H252	H	1.507995	0.194254	0.379651
H253	H	1.234082	-1.079016	-0.469528
H254	H	1.567416	-0.745682	-0.136194
H255	H	1.900749	-0.412349	0.197139
Cl256	Cl	0.549398	-0.545289	-0.214521
Cl257	Cl	0.882732	-0.211956	0.118812
Cl258	Cl	1.216065	0.121377	0.452146
H259	H	0.444067	-0.289281	-0.469593
H260	H	0.777400	0.044052	-0.136259
H261	H	1.110733	0.377386	0.197074
H262	H	0.443912	-0.472456	-0.287110
H263	H	0.777245	-0.139123	0.046223
H264	H	1.110579	0.194210	0.379557
H265	H	1.050674	-0.472331	-1.079441
H266	H	1.384007	-0.138997	-0.746108
H267	H	1.717340	0.194336	-0.412774
Cl268	Cl	1.028233	-0.494776	-0.844734
Cl269	Cl	1.361567	-0.161443	-0.511401
Cl270	Cl	1.694900	0.171891	-0.178068
Cl271	Cl	1.028244	-0.494763	-0.912546
Cl272	Cl	1.361578	-0.161429	-0.579213
Cl273	Cl	1.694911	0.171904	-0.245880
