data_functionalizedCrystal
_audit_creation_method	'MofGen! by Chris Wilmer'
_symmetry_space_group_name_H-M	'P1'
_symmetry_Int_Tables_number	1
_symmetry_cell_setting	triclinic
loop_
_symmetry_equiv_pos_as_xyz
  x,y,z
_cell_length_a	16.974885
_cell_length_b	8.597304
_cell_length_c	16.053802
_cell_angle_alpha	84.919063
_cell_angle_beta	91.069328
_cell_angle_gamma	84.857988
loop_
_atom_site_label
_atom_site_type_symbol
_atom_site_fract_x
_atom_site_fract_y
_atom_site_fract_z
O1	O	1.051284	0.198756	-0.012756
O2	O	1.551284	0.698756	0.487244
O3	O	0.822091	0.222609	-0.029945
O4	O	1.322091	0.722609	0.470055
O5	O	0.940429	-0.016215	-0.004775
O6	O	1.440429	0.483785	0.495225
O7	O	0.932946	0.437581	-0.037926
O8	O	1.432946	0.937581	0.462074
O9	O	0.933915	-0.003124	0.132703
O10	O	1.433915	0.496876	0.632703
O11	O	0.815576	0.235700	0.107532
O12	O	1.315576	0.735700	0.607532
O13	O	1.044770	0.211847	0.124721
O14	O	1.544770	0.711847	0.624721
Zn15	Zn	0.929139	0.225852	0.137954
Zn16	Zn	1.429139	0.725852	0.637954
Zn17	Zn	0.937722	0.208604	-0.043178
Zn18	Zn	1.437722	0.708604	0.456822
O19	O	0.926431	0.450672	0.099551
O20	O	1.426431	0.950672	0.599551
C21	C	0.789458	0.228006	0.036893
C22	C	1.289458	0.728006	0.536893
C23	C	0.701928	0.224565	0.031231
C24	C	1.201928	0.724565	0.531231
C25	C	0.209612	0.204372	-0.008736
C26	C	0.709612	0.704372	0.491264
C27	C	0.291856	0.207606	-0.003405
C28	C	0.791856	0.707606	0.496595
C29	C	0.329418	0.216371	0.074200
C30	C	0.829418	0.716371	0.574200
C31	C	0.284733	0.221886	0.146479
C32	C	0.784733	0.721886	0.646479
C33	C	0.202492	0.218640	0.141148
C34	C	0.702492	0.718640	0.641148
C35	C	0.575002	0.226834	0.098180
C36	C	1.075002	0.726834	0.598180
C37	C	0.657249	0.230084	0.103505
C38	C	1.157249	0.730084	0.603505
C39	C	0.664366	0.215801	-0.046379
C40	C	1.164366	0.715801	0.453621
C41	C	0.582122	0.212565	-0.051704
C42	C	1.082122	0.712565	0.448296
C43	C	0.537445	0.218072	0.020576
C44	C	1.037445	0.718072	0.520576
N45	N	0.413484	0.219682	0.079650
N46	N	0.913484	0.719682	0.579650
N47	N	0.453382	0.214750	0.015125
N48	N	0.953382	0.714750	0.515125
C49	C	0.936006	-0.067749	0.068062
C50	C	1.436006	0.432251	0.568062
C51	C	0.932521	-0.240806	0.080271
C52	C	1.432521	0.259194	0.580271
C53	C	1.077403	0.206450	0.057881
C54	C	1.577403	0.706450	0.557881
C55	C	1.164933	0.209891	0.063538
C56	C	1.664933	0.709891	0.563538
C57	C	0.930855	0.502205	0.026713
C58	C	1.430855	1.002205	0.526713
C59	C	0.934340	0.675262	0.014498
C60	C	1.434340	1.175262	0.514498
N61	N	0.923287	0.237623	0.261573
N62	N	1.423287	0.737623	0.761573
N63	N	0.943580	0.196821	-0.166795
N64	N	1.443580	0.696821	0.333205
C65	C	0.973660	0.136039	0.315975
C66	C	1.473660	0.636039	0.815975
C67	C	0.969574	0.144288	0.402513
C68	C	1.469574	0.644288	0.902513
C69	C	0.915119	0.254129	0.434646
C70	C	1.415119	0.754129	0.934646
C71	C	0.864741	0.355717	0.380236
C72	C	1.364741	0.855717	0.880236
C73	C	0.868823	0.347460	0.293701
C74	C	1.368823	0.847460	0.793701
C75	C	0.897285	0.290152	0.692260
C76	C	1.397285	0.790152	1.192260
C77	C	0.893207	0.298405	0.778802
C78	C	1.393207	0.798405	1.278802
C79	C	0.998040	0.086973	0.801073
C80	C	1.498040	0.586973	1.301073
C81	C	1.002121	0.078732	0.714534
C82	C	1.502121	0.578732	1.214534
C83	C	0.951740	0.180314	0.660133
C84	C	1.451740	0.680314	1.160133
N85	N	0.910943	0.262566	0.523101
N86	N	1.410943	0.762566	1.023101
N87	N	0.955913	0.171869	0.571680
N88	N	1.455913	0.671869	1.071680
H89	H	0.328231	0.203102	-0.062257
H90	H	0.828231	0.703102	0.437743
H91	H	1.018006	0.046602	0.289820
H92	H	1.518006	0.546602	0.789820
H93	H	0.551545	0.205426	-0.114897
H94	H	1.051545	0.705426	0.385103
H95	H	0.938561	-0.264201	-0.051159
H96	H	1.438561	0.235799	0.448841
H97	H	0.928289	-0.301347	0.145932
H98	H	1.428289	0.198653	0.645932
H99	H	1.010590	0.061569	0.446808
H100	H	1.510590	0.561569	0.946808
H101	H	1.046462	-0.010709	0.688374
H102	H	1.546462	0.489291	1.188374
H103	H	0.700751	0.211316	-0.105225
H104	H	1.200751	0.711316	0.394775
H105	H	0.856264	0.372868	0.647972
H106	H	1.356264	0.872868	1.147972
H107	H	0.687828	0.237232	0.166702
H108	H	1.187828	0.737232	0.666702
H109	H	1.039056	0.004267	0.845374
H110	H	1.539056	0.504267	1.345374
F111	F	0.806781	0.472612	0.414435
F112	F	1.306781	0.972612	0.914435
F113	F	0.835246	0.415323	0.812993
F114	F	1.335246	0.915323	1.312993
H115	H	0.179035	0.197245	-0.071930
H116	H	0.679035	0.697245	0.428070
F117	F	0.527461	0.232727	0.175105
F118	F	1.027461	0.732727	0.675105
F119	F	0.324712	0.231209	0.229072
F120	F	0.824712	0.731209	0.729072
H121	H	0.827804	0.430178	0.249406
H122	H	1.327804	0.930178	0.749406
F123	F	0.154942	0.224503	0.218072
F124	F	0.654942	0.724503	0.718072
