data_functionalizedCrystal
_audit_creation_method	'MofGen! by Chris Wilmer'
_symmetry_space_group_name_H-M	'P1'
_symmetry_Int_Tables_number	1
_symmetry_cell_setting	triclinic
loop_
_symmetry_equiv_pos_as_xyz
  x,y,z
_cell_length_a	16.959455
_cell_length_b	19.120786
_cell_length_c	16.959447
_cell_angle_alpha	87.526589
_cell_angle_beta	89.983277
_cell_angle_gamma	92.464014
loop_
_atom_site_label
_atom_site_type_symbol
_atom_site_fract_x
_atom_site_fract_y
_atom_site_fract_z
Zn1	Zn	1.194930	-0.279637	-0.433516
Zn2	Zn	1.528263	0.053697	-0.100183
Zn3	Zn	1.861597	0.387030	0.233151
Zn4	Zn	1.189201	-0.397105	-0.295690
Zn5	Zn	1.522534	-0.063771	0.037643
Zn6	Zn	1.855868	0.269562	0.370976
Zn7	Zn	1.062757	-0.279663	-0.301347
Zn8	Zn	1.396091	0.053671	0.031987
Zn9	Zn	1.729424	0.387004	0.365320
Zn10	Zn	1.057074	-0.397056	-0.427826
Zn11	Zn	1.390407	-0.063723	-0.094492
Zn12	Zn	1.723741	0.269610	0.238841
O13	O	1.125991	-0.338365	-0.364595
O14	O	1.459324	-0.005032	-0.031261
O15	O	1.792657	0.328302	0.302072
O16	O	1.304781	-0.295228	-0.415247
O17	O	1.638114	0.038105	-0.081914
O18	O	1.971447	0.371438	0.251419
O19	O	1.172409	-0.381557	-0.185828
O20	O	1.505742	-0.048224	0.147505
O21	O	1.839076	0.285110	0.480838
O22	O	1.085066	-0.181369	-0.323628
O23	O	1.418400	0.151965	0.009705
O24	O	1.751733	0.485298	0.343039
O25	O	1.300571	-0.381532	-0.313987
O26	O	1.633905	-0.048198	0.019346
O27	O	1.967238	0.285135	0.352679
O28	O	1.182173	-0.181350	-0.420732
O29	O	1.515507	0.151984	-0.087399
O30	O	1.848840	0.485317	0.245934
O31	O	1.079511	-0.295273	-0.189984
O32	O	1.412845	0.038061	0.143349
O33	O	1.746178	0.371394	0.476683
O34	O	0.951393	-0.295226	-0.318110
O35	O	1.284726	0.038107	0.015223
O36	O	1.618060	0.371441	0.348556
O37	O	1.075380	-0.381449	-0.539193
O38	O	1.408713	-0.048116	-0.205860
O39	O	1.742047	0.285218	0.127474
O40	O	0.947218	-0.381474	-0.411034
O41	O	1.280551	-0.048141	-0.077700
O42	O	1.613884	0.285192	0.255633
O43	O	1.176662	-0.295181	-0.543374
O44	O	1.509996	0.038152	-0.210040
O45	O	1.843329	0.371485	0.123293
O46	O	1.166898	-0.495389	-0.308470
O47	O	1.500231	-0.162055	0.024864
O48	O	1.833565	0.171278	0.358197
O49	O	1.069825	-0.495353	-0.405549
O50	O	1.403158	-0.162020	-0.072216
O51	O	1.736492	0.171313	0.261118
C52	C	0.920625	-0.338348	-0.364569
C53	C	1.253959	-0.005015	-0.031235
C54	C	1.587292	0.328318	0.302098
C55	C	0.832768	-0.338358	-0.364576
C56	C	1.166101	-0.005025	-0.031242
C57	C	1.499435	0.328309	0.302091
C58	C	1.117145	-0.520857	-0.355795
C59	C	1.450478	-0.187523	-0.022462
C60	C	1.783811	0.145810	0.310871
C61	C	1.113432	-0.598927	-0.352057
C62	C	1.446766	-0.265594	-0.018724
C63	C	1.780099	0.067739	0.314609
C64	C	0.793648	-0.293388	-0.316279
C65	C	1.126981	0.039945	0.017055
C66	C	1.460314	0.373278	0.350388
C67	C	0.789335	-0.383333	-0.412884
C68	C	1.122668	-0.050000	-0.079551
C69	C	1.456001	0.283334	0.253783
C70	C	0.706788	-0.383341	-0.412895
C71	C	1.040122	-0.050008	-0.079562
C72	C	1.373455	0.283326	0.253771
C73	C	0.667668	-0.338371	-0.364598
C74	C	1.001001	-0.005038	-0.031265
C75	C	1.334335	0.328295	0.302068
C76	C	0.711094	-0.293393	-0.316290
C77	C	1.044427	0.039940	0.017043
C78	C	1.377761	0.373273	0.350377
C79	C	0.663357	-0.428313	-0.461208
C80	C	0.996690	-0.094980	-0.127875
C81	C	1.330023	0.238354	0.205458
C82	C	0.580805	-0.428322	-0.461222
C83	C	0.914139	-0.094989	-0.127889
C84	C	1.247472	0.238344	0.205444
C85	C	0.541683	-0.383356	-0.412920
C86	C	0.875017	-0.050022	-0.079587
C87	C	1.208350	0.283311	0.253746
C88	C	0.585114	-0.338376	-0.364610
C89	C	0.918448	-0.005043	-0.031276
C90	C	1.251781	0.328290	0.302057
C91	C	0.545994	-0.293407	-0.316313
C92	C	0.879327	0.039927	0.017020
C93	C	1.212661	0.373260	0.350354
C94	C	0.589423	-0.248431	-0.267997
C95	C	0.922757	0.084903	0.065336
C96	C	1.256090	0.418236	0.398669
C97	C	0.671972	-0.248427	-0.267988
C98	C	1.005305	0.084907	0.065345
C99	C	1.338639	0.418240	0.398678
C100	C	0.459135	-0.383360	-0.412929
C101	C	0.792468	-0.050026	-0.079596
C102	C	1.125801	0.283307	0.253737
C103	C	0.463440	-0.293412	-0.316324
C104	C	0.796773	0.039921	0.017009
C105	C	1.130107	0.373255	0.350342
C106	C	1.162209	-0.635535	-0.400899
C107	C	1.495542	-0.302201	-0.067566
C108	C	1.828876	0.031132	0.265767
C109	C	1.158718	-0.708890	-0.397388
C110	C	1.492051	-0.375557	-0.064055
C111	C	1.825385	-0.042224	0.269278
C112	C	1.106454	-0.745637	-0.345031
C113	C	1.439787	-0.412304	-0.011698
C114	C	1.773120	-0.078971	0.321636
C115	C	1.057672	-0.709025	-0.296187
C116	C	1.391005	-0.375691	0.037146
C117	C	1.724338	-0.042358	0.370480
C118	C	1.061159	-0.635670	-0.299703
C119	C	1.394493	-0.302337	0.033631
C120	C	1.727826	0.030996	0.366964
C121	C	1.093392	-0.967123	-0.331889
C122	C	1.426725	-0.633790	0.001444
C123	C	1.760059	-0.300457	0.334778
C124	C	1.089910	-1.040483	-0.328376
C125	C	1.423243	-0.707150	0.004958
C126	C	1.756576	-0.373816	0.338291
C127	C	1.190955	-1.040343	-0.429578
C128	C	1.524289	-0.707010	-0.096245
C129	C	1.857622	-0.373677	0.237088
C130	C	1.194442	-0.966988	-0.433086
C131	C	1.527775	-0.633654	-0.099752
C132	C	1.861109	-0.300321	0.233581
C133	C	1.145657	-0.930381	-0.384245
C134	C	1.478990	-0.597048	-0.050912
C135	C	1.812324	-0.263715	0.282422
C136	C	1.102886	-0.820618	-0.341439
C137	C	1.436219	-0.487285	-0.008106
C138	C	1.769552	-0.153952	0.325227
C139	C	1.149222	-0.855402	-0.387841
C140	C	1.482555	-0.522068	-0.054508
C141	C	1.815888	-0.188735	0.278826
C142	C	1.332158	-0.338382	-0.364621
C143	C	1.665491	-0.005049	-0.031288
C144	C	1.998825	0.328284	0.302045
C145	C	1.420014	-0.338390	-0.364632
C146	C	1.753348	-0.005056	-0.031299
C147	C	2.086681	0.328277	0.302034
C148	C	1.126026	-0.338307	-0.570766
C149	C	1.459360	-0.004974	-0.237432
C150	C	1.792693	0.328360	0.095901
C151	C	1.126042	-0.338282	-0.658624
C152	C	1.459375	-0.004949	-0.325290
C153	C	1.792708	0.328385	0.008043
C154	C	1.134893	-0.155161	-0.373446
C155	C	1.468226	0.178172	-0.040112
C156	C	1.801560	0.511506	0.293221
C157	C	1.138686	-0.077090	-0.377218
C158	C	1.472020	0.256243	-0.043884
C159	C	1.805353	0.589576	0.289449
C160	C	1.073406	-0.383124	-1.027929
C161	C	1.406740	-0.049790	-0.694595
C162	C	1.740073	0.283543	-0.361262
C163	C	1.178873	-0.293292	-1.032277
C164	C	1.512206	0.040041	-0.698944
C165	C	1.845539	0.373374	-0.365611
C166	C	1.178851	-0.293307	-0.949731
C167	C	1.512184	0.040026	-0.616397
C168	C	1.845518	0.373359	-0.283064
C169	C	1.126107	-0.338232	-0.906279
C170	C	1.459440	-0.004898	-0.572946
C171	C	1.792774	0.328435	-0.239613
C172	C	1.073385	-0.383141	-0.945374
C173	C	1.406718	-0.049808	-0.612041
C174	C	1.740051	0.283525	-0.278708
C175	C	1.231578	-0.248404	-0.910629
C176	C	1.564911	0.084930	-0.577296
C177	C	1.898244	0.418263	-0.243962
C178	C	1.231558	-0.248417	-0.828077
C179	C	1.564892	0.084916	-0.494744
C180	C	1.898225	0.418250	-0.161411
C181	C	1.178810	-0.293339	-0.784625
C182	C	1.512143	0.039995	-0.451291
C183	C	1.845477	0.373328	-0.117958
C184	C	1.126085	-0.338250	-0.823725
C185	C	1.459418	-0.004916	-0.490391
C186	C	1.792752	0.328417	-0.157058
C187	C	1.073341	-0.383174	-0.780273
C188	C	1.406674	-0.049841	-0.446940
C189	C	1.740008	0.283493	-0.113607
C190	C	1.020612	-0.428082	-0.819372
C191	C	1.353945	-0.094749	-0.486039
C192	C	1.687278	0.238585	-0.152706
C193	C	1.020636	-0.428063	-0.901922
C194	C	1.353970	-0.094730	-0.568588
C195	C	1.687303	0.238604	-0.235255
C196	C	1.178786	-0.293358	-0.702075
C197	C	1.512119	0.039976	-0.368742
C198	C	1.845452	0.373309	-0.035408
C199	C	1.073319	-0.383192	-0.697719
C200	C	1.406653	-0.049858	-0.364386
C201	C	1.739986	0.283475	-0.031052
C202	C	1.126003	-0.338372	-0.159228
C203	C	1.459336	-0.005039	0.174105
C204	C	1.792670	0.328294	0.507439
C205	C	1.126150	-0.338199	-0.071380
C206	C	1.459484	-0.004866	0.261953
C207	C	1.792817	0.328467	0.595286
H208	H	0.431594	-0.256793	-0.276993
H209	H	0.764928	0.076541	0.056340
H210	H	1.098261	0.409874	0.389673
H211	H	1.237000	-0.937070	-0.475719
H212	H	1.570333	-0.603736	-0.142386
H213	H	1.903666	-0.270403	0.190947
F214	F	0.534592	-0.476191	-0.512641
F215	F	0.867925	-0.142858	-0.179308
F216	F	1.201259	0.190476	0.154026
H217	H	0.707339	-0.211809	-0.228653
H218	H	1.040673	0.121524	0.104680
H219	H	1.374006	0.454858	0.438013
F220	F	1.017177	-0.431004	-0.651481
F221	F	1.350510	-0.097671	-0.318148
F222	F	1.683843	0.235662	0.015186
F223	F	0.547779	-0.200567	-0.216604
F224	F	0.881113	0.132766	0.116730
F225	F	1.214446	0.466099	0.450063
F226	F	1.287675	-0.200621	-0.786473
F227	F	1.621008	0.132712	-0.453140
F228	F	1.954342	0.466045	-0.119806
F229	F	0.412918	-0.431218	-0.464351
F230	F	0.746251	-0.097885	-0.131018
F231	F	1.079585	0.235448	0.202315
F232	F	1.287712	-0.200600	-0.956876
F233	F	1.621046	0.132733	-0.623543
F234	F	1.954379	0.466067	-0.290210
F235	F	1.242870	-1.079307	-0.481557
F236	F	1.576203	-0.745974	-0.148223
F237	F	1.909537	-0.412641	0.185110
H238	H	1.047346	-1.070400	-0.285739
H239	H	1.380679	-0.737067	0.047594
H240	H	1.714013	-0.403734	0.380927
F241	F	0.704995	-0.476179	-0.512595
F242	F	1.038328	-0.142845	-0.179261
F243	F	1.371661	0.190488	0.154072
H244	H	1.204772	-0.605620	-0.443531
H245	H	1.538105	-0.272287	-0.110197
H246	H	1.871438	0.061047	0.223136
H247	H	1.053671	-0.937324	-0.292119
H248	H	1.387004	-0.603991	0.041214
H249	H	1.720338	-0.270658	0.374547
H250	H	1.198443	-0.738693	-0.437155
H251	H	1.531777	-0.405359	-0.103821
H252	H	1.865110	-0.072026	0.229512
H253	H	0.829011	-0.256772	-0.276939
H254	H	1.162345	0.076562	0.056394
H255	H	1.495678	0.409895	0.389728
F256	F	0.964483	-0.475896	-0.773118
F257	F	1.297817	-0.142562	-0.439785
F258	F	1.631150	0.190771	-0.106452
H259	H	1.015114	-0.738950	-0.253560
H260	H	1.348447	-0.405617	0.079773
H261	H	1.681780	-0.072283	0.413107
F262	F	0.830971	-0.431194	-0.464278
F263	F	1.164305	-0.097860	-0.130944
F264	F	1.497638	0.235473	0.202389
H265	H	1.021439	-0.605865	-0.259931
H266	H	1.354773	-0.272532	0.073402
H267	H	1.688106	0.060801	0.406735
F268	F	1.204839	-0.816291	-0.443566
F269	F	1.538172	-0.482958	-0.110233
F270	F	1.871506	-0.149625	0.223101
F271	F	1.234904	-0.245571	-0.660467
F272	F	1.568238	0.087762	-0.327133
F273	F	1.901571	0.421095	0.006200
F274	F	1.047260	-0.859734	-0.285722
F275	F	1.380593	-0.526400	0.047612
F276	F	1.713927	-0.193067	0.380945
H277	H	1.030473	-0.419685	-1.059767
H278	H	1.363807	-0.086351	-0.726434
H279	H	1.697140	0.246982	-0.393100
H280	H	0.977709	-0.464627	-0.933763
H281	H	1.311043	-0.131293	-0.600430
H282	H	1.644376	0.202040	-0.267097
F283	F	1.235008	-0.245488	-1.078523
F284	F	1.568341	0.087845	-0.745190
F285	F	1.901675	0.421179	-0.411856
