data_functionalizedCrystal
_audit_creation_method	'MofGen! by Chris Wilmer'
_symmetry_space_group_name_H-M	'P1'
_symmetry_Int_Tables_number	1
_symmetry_cell_setting	triclinic
loop_
_symmetry_equiv_pos_as_xyz
  x,y,z
_cell_length_a	14.586319
_cell_length_b	16.109293
_cell_length_c	16.109301
_cell_angle_alpha	96.540124
_cell_angle_beta	89.994786
_cell_angle_gamma	90.006918
loop_
_atom_site_label
_atom_site_type_symbol
_atom_site_fract_x
_atom_site_fract_y
_atom_site_fract_z
O1	O	-0.076316	-1.103135	0.106835
O2	O	-0.076302	-0.861072	0.120141
O3	O	-0.076300	-0.988753	-0.007543
O4	O	-0.076318	-0.975454	0.234519
O5	O	0.076181	-0.988744	-0.007545
O6	O	0.076179	-0.861063	0.120139
O7	O	0.076165	-1.103126	0.106833
Cu8	Cu	0.090095	-0.982094	0.113486
Cu9	Cu	-0.090232	-0.982104	0.113488
O10	O	0.076163	-0.975445	0.234517
C11	C	-0.000060	-0.830093	0.119602
C12	C	-0.000054	-0.737797	0.117990
C13	C	-0.000059	-0.988210	-0.038519
C14	C	-0.000058	-0.986595	-0.130814
N15	N	0.216926	-0.982092	0.113484
N16	N	-0.217063	-0.982112	0.113484
C17	C	0.451934	-1.038648	0.056964
C18	C	0.547915	-1.038651	0.056962
C19	C	0.547923	-0.925550	0.170006
C20	C	0.451943	-0.925545	0.170003
C21	C	0.403951	-0.982098	0.113484
C22	C	0.595912	-0.982106	0.113484
C23	C	0.699979	-0.982109	0.113482
C24	C	0.299877	-0.982095	0.113484
C25	C	0.083060	-0.525450	0.114260
C26	C	0.083060	-0.438730	0.112736
C27	C	-0.083183	-0.438750	0.112742
C28	C	-0.083182	-0.525470	0.114261
C29	C	-0.000057	-0.568817	0.115024
C30	C	-0.000059	-0.395377	0.111981
C31	C	-0.000061	-0.301351	0.110329
C32	C	-0.000056	-0.662849	0.116675
C33	C	-0.000072	-0.134104	0.107380
C34	C	-0.000062	-0.226397	0.109015
C35	C	-0.000076	-1.058603	-0.353089
C36	C	-0.000084	-1.057079	-0.439809
C37	C	-0.000071	-0.905589	-0.419930
C38	C	-0.000071	-0.907114	-0.333212
C39	C	-0.000068	-0.983624	-0.299793
C40	C	-0.000077	-0.980575	-0.473232
C41	C	-0.000085	-0.978921	-0.567258
C42	C	-0.000062	-0.985277	-0.205761
C43	C	-0.000080	-0.975988	0.265493
C44	C	-0.000087	-0.977603	0.357788
H45	H	0.586980	-1.084698	0.010938
O46	O	-0.000229	-0.831252	-0.452357
C47	C	-0.079186	-0.701290	-0.461856
C48	C	-0.079134	-0.785457	-0.425096
H49	H	-0.142964	-0.664234	-0.439817
H50	H	-0.079245	-0.713031	-0.532995
H51	H	-0.015341	-0.664271	-0.439924
H52	H	-0.142969	-0.822519	-0.446964
H53	H	-0.079028	-0.773657	-0.353962
H54	H	-0.150870	-0.560780	0.114880
O55	O	0.163882	-0.396727	0.112037
C56	C	0.328772	-0.405871	0.112145
C57	C	0.237303	-0.453538	0.112960
H58	H	0.388157	-0.451784	0.112873
H59	H	0.332988	-0.357663	0.169596
H60	H	0.332882	-0.372875	0.053295
H61	H	0.233132	-0.486584	0.171771
H62	H	0.233126	-0.501699	0.055470
O63	O	0.000032	-1.129858	-0.491665
C64	C	0.079040	-1.216076	-0.601085
C65	C	0.079016	-1.133610	-0.542420
H66	H	0.142902	-1.219144	-0.642123
H67	H	0.015267	-1.219163	-0.642230
H68	H	0.078996	-1.271004	-0.562284
H69	H	0.079093	-1.078636	-0.581154
H70	H	0.142784	-1.130597	-0.501272
O71	O	0.405375	-1.093494	0.001927
C72	C	0.376131	-1.142256	-0.142647
C73	C	0.428881	-1.080085	-0.080395
H74	H	0.395130	-1.131448	-0.209217
H75	H	0.299272	-1.132561	-0.133039
H76	H	0.394986	-1.208835	-0.131762
H77	H	0.410102	-1.013482	-0.091242
H78	H	0.505727	-1.089854	-0.090018
H79	H	-0.000067	-0.846053	-0.289816
H80	H	0.587007	-0.879507	0.216025
O81	O	0.405469	-0.870578	0.224991
C82	C	0.415597	-0.758363	0.337081
C83	C	0.468343	-0.820579	0.274874
H84	H	0.466407	-0.717912	0.377416
H85	H	0.370671	-0.794199	0.378679
H86	H	0.370651	-0.716879	0.301154
H87	H	0.513338	-0.862079	0.310733
H88	H	0.513210	-0.784692	0.233276
H89	H	0.150746	-0.560741	0.114882
H90	H	-0.150860	-0.403446	0.112122
H91	H	-0.000076	-1.120901	-0.325883
