data_functionalizedCrystal
_audit_creation_method	'MofGen! by Chris Wilmer'
_symmetry_space_group_name_H-M	'P1'
_symmetry_Int_Tables_number	1
_symmetry_cell_setting	triclinic
loop_
_symmetry_equiv_pos_as_xyz
  x,y,z
_cell_length_a	16.109301
_cell_length_b	14.519709
_cell_length_c	14.586319
_cell_angle_alpha	90.001130
_cell_angle_beta	90.003489
_cell_angle_gamma	83.570864
loop_
_atom_site_label
_atom_site_type_symbol
_atom_site_fract_x
_atom_site_fract_y
_atom_site_fract_z
O1	O	1.103339	0.118536	0.076192
O2	O	1.603339	0.618536	0.576192
O3	O	0.861303	0.133288	0.076205
O4	O	1.361303	0.633288	0.576205
O5	O	0.988738	-0.008340	0.076190
O6	O	1.488738	0.491660	0.576190
O7	O	0.975904	0.260164	0.076207
O8	O	1.475904	0.760164	0.576207
O9	O	0.988723	-0.008332	-0.076291
O10	O	1.488723	0.491668	0.423709
O11	O	0.861287	0.133296	-0.076276
O12	O	1.361287	0.633296	0.423724
O13	O	1.103324	0.118544	-0.076289
O14	O	1.603324	0.618544	0.423711
Cu15	Cu	0.982304	0.125921	-0.090205
Cu16	Cu	1.482304	0.625921	0.409795
Cu17	Cu	0.982322	0.125911	0.090121
Cu18	Cu	1.482322	0.625911	0.590121
O19	O	0.975888	0.260172	-0.076274
O20	O	1.475888	0.760172	0.423726
C21	C	0.830319	0.132694	-0.000034
C22	C	1.330319	0.632694	0.499966
C23	C	0.738021	0.130903	-0.000029
C24	C	1.238021	0.630903	0.499971
C25	C	0.988132	-0.042695	-0.000051
C26	C	1.488132	0.457305	0.499949
C27	C	0.986340	-0.145072	-0.000051
C28	C	1.486340	0.354928	0.499949
C29	C	0.429158	0.209085	-0.000040
C30	C	0.929158	0.709085	0.499960
C31	C	0.515881	0.210777	-0.000035
C32	C	1.015881	0.710777	0.499965
C33	C	0.535463	0.042740	-0.000033
C34	C	1.035463	0.542740	0.499967
C35	C	0.448742	0.041049	-0.000032
C36	C	0.948742	0.541049	0.499968
C37	C	0.395591	0.124224	-0.000040
C38	C	0.895591	0.624224	0.499960
C39	C	0.569036	0.127607	-0.000036
C40	C	1.069036	0.627607	0.499964
C41	C	0.663065	0.129441	-0.000030
C42	C	1.163065	0.629441	0.499970
C43	C	0.301556	0.122391	-0.000044
C44	C	0.801556	0.622391	0.499956
C45	C	0.979741	-0.519954	-0.000027
C46	C	1.479741	-0.019954	0.499973
C47	C	0.981574	-0.415650	-0.000034
C48	C	1.481574	0.084350	0.499966
C49	C	0.983040	-0.332516	-0.000040
C50	C	1.483040	0.167484	0.499960
C51	C	0.984873	-0.228206	-0.000045
C52	C	1.484873	0.271794	0.499955
C53	C	1.134307	0.119138	-0.000048
C54	C	1.634307	0.619138	0.499952
C55	C	1.226606	0.120929	-0.000047
C56	C	1.726606	0.620929	0.499953
C57	C	0.976494	0.294526	-0.000031
C58	C	1.476494	0.794526	0.499969
C59	C	0.978287	0.396904	-0.000025
C60	C	1.478287	0.896904	0.499975
N61	N	0.982297	0.125927	-0.217037
N62	N	1.482297	0.625927	0.282963
C63	C	1.032817	0.181865	-0.452042
C64	C	1.532817	0.681865	0.047958
C65	C	1.032825	0.181858	-0.548023
C66	C	1.532825	0.681858	-0.048023
C67	C	0.931814	0.069953	-0.548035
C68	C	1.431814	0.569953	-0.048035
C69	C	0.931811	0.069956	-0.452055
C70	C	1.431811	0.569956	0.047945
C71	C	0.982310	0.125916	-0.404062
C72	C	1.482310	0.625916	0.095938
C73	C	0.982323	0.125908	-0.596022
C74	C	1.482323	0.625908	-0.096022
C75	C	0.982332	0.125901	-0.700089
C76	C	1.482332	0.625901	-0.200089
C77	C	0.982303	0.125923	-0.299988
C78	C	1.482303	0.625923	0.200012
N79	N	0.982336	0.125897	0.216953
N80	N	1.482336	0.625897	0.716953
H81	H	0.543206	0.279879	-0.000034
H82	H	1.043206	0.779879	0.499966
H83	H	0.890681	0.024391	-0.412988
H84	H	1.390681	0.524391	0.087012
O85	O	0.587009	-0.038114	-0.000153
O86	O	1.087009	0.461886	0.499847
C87	C	0.571782	-0.089631	-0.079134
C88	C	1.071782	0.410369	0.420866
H89	H	0.506031	-0.066967	-0.105462
H90	H	1.006031	0.433033	0.394538
H91	H	0.577771	-0.166549	-0.061371
H92	H	1.077771	0.333451	0.438629
H93	H	0.619230	-0.077036	-0.134434
H94	H	1.119230	0.422964	0.365566
O95	O	1.081798	0.236192	-0.405278
O96	O	1.581798	0.736192	0.094722
C97	C	1.070982	0.224184	-0.310274
C98	C	1.570982	0.724184	0.189726
H99	H	1.007974	0.197875	-0.297171
H100	H	1.507974	0.697875	0.202829
H101	H	1.073178	0.293308	-0.273798
H102	H	1.573178	0.793308	0.226202
H103	H	1.123046	0.171659	-0.283031
H104	H	1.623046	0.671659	0.216969
H105	H	0.421412	-0.028059	-0.000029
H106	H	0.921412	0.471941	0.499971
O107	O	0.377646	0.289963	0.000003
O108	O	0.877646	0.789963	0.500003
C109	C	0.425874	0.365225	-0.000017
C110	C	0.925874	0.865225	0.499983
H111	H	0.490565	0.341797	0.028848
H112	H	0.990565	0.841797	0.528848
H113	H	0.393974	0.423496	0.044257
H114	H	0.893974	0.923496	0.544257
H115	H	0.432081	0.391242	-0.073168
H116	H	0.932081	0.891242	0.426832
O117	O	0.882777	0.015687	-0.594797
O118	O	1.382777	0.515687	-0.094797
C119	C	0.893572	0.027715	-0.689802
C120	C	1.393572	0.527715	-0.189802
H121	H	0.917345	0.097592	-0.702892
H122	H	1.417345	0.597592	-0.202892
H123	H	0.831244	0.025364	-0.726252
H124	H	1.331244	0.525364	-0.226252
H125	H	0.940855	-0.030084	-0.717084
H126	H	1.440855	0.469916	-0.217084
H127	H	1.073954	0.227416	-0.587085
H128	H	1.573954	0.727416	-0.087085
