data_functionalizedCrystal
_audit_creation_method	'MofGen! by Chris Wilmer'
_symmetry_space_group_name_H-M	'P1'
_symmetry_Int_Tables_number	1
_symmetry_cell_setting	triclinic
loop_
_symmetry_equiv_pos_as_xyz
  x,y,z
_cell_length_a	19.077269
_cell_length_b	17.637651
_cell_length_c	17.640968
_cell_angle_alpha	70.334811
_cell_angle_beta	80.585959
_cell_angle_gamma	99.411414
loop_
_atom_site_label
_atom_site_type_symbol
_atom_site_fract_x
_atom_site_fract_y
_atom_site_fract_z
Zn1	Zn	1.083755	-0.295247	-0.338266
Zn2	Zn	1.025214	-0.457674	-0.175852
Zn3	Zn	0.939174	-0.314968	-0.208631
Zn4	Zn	0.939158	-0.424892	-0.318514
O5	O	0.996825	-0.373195	-0.260316
O6	O	1.172512	-0.322259	-0.311269
O7	O	0.989307	-0.460717	-0.066243
O8	O	0.982859	-0.198372	-0.247812
O9	O	1.129502	-0.441594	-0.191944
O10	O	1.089083	-0.183883	-0.343054
O11	O	0.926093	-0.355871	-0.090326
O12	O	0.842649	-0.324084	-0.228660
O13	O	0.982833	-0.385722	-0.435091
O14	O	0.842638	-0.404845	-0.309390
O15	O	1.089068	-0.290472	-0.449603
O16	O	0.989292	-0.567306	-0.172792
O17	O	0.926068	-0.543221	-0.277605
C18	C	0.817616	-0.363048	-0.270439
C19	C	0.740950	-0.358722	-0.274785
C20	C	0.682537	-0.418752	-0.214640
C21	C	0.610503	-0.414686	-0.218735
C22	C	0.596883	-0.350586	-0.282972
C23	C	0.655303	-0.290554	-0.343123
C24	C	0.727335	-0.294624	-0.339031
C25	C	0.383852	-0.331762	-0.301882
C26	C	0.311813	-0.327695	-0.305968
C27	C	0.267018	-0.451828	-0.181580
C28	C	0.339054	-0.455890	-0.177491
C29	C	0.397467	-0.395860	-0.237644
N30	N	0.523253	-0.346427	-0.287157
N31	N	0.471096	-0.400023	-0.233462
C32	C	0.951348	-0.584814	-0.219515
C33	C	0.931962	-0.675344	-0.202084
C34	C	1.144605	-0.935011	-0.392969
C35	C	1.126363	-1.020079	-0.376577
C36	C	1.015790	-1.035296	-0.277298
C37	C	1.034023	-0.950229	-0.293679
C38	C	1.098431	-0.900092	-0.351516
C39	C	0.987850	-0.915310	-0.252225
C40	C	1.006081	-0.830249	-0.268608
C41	C	1.070485	-0.780106	-0.326445
C42	C	1.116662	-0.815031	-0.367899
C43	C	0.923440	-0.965447	-0.194393
C44	C	0.877267	-0.930528	-0.152940
C45	C	0.895500	-0.845467	-0.169318
C46	C	0.959904	-0.795324	-0.227154
C47	C	0.849323	-0.810542	-0.127864
C48	C	0.867554	-0.725481	-0.144247
C49	C	0.978135	-0.710263	-0.243537
C50	C	1.176734	-0.383383	-0.250153
C51	C	1.253400	-0.387725	-0.245822
C52	C	1.042479	-0.332240	-0.472721
C53	C	1.061934	-0.314787	-0.563235
C54	C	1.042503	-0.160747	-0.301293
C55	C	1.061968	-0.070215	-0.318755
C56	C	0.849389	-0.505354	-0.823146
C57	C	0.867686	-0.488945	-0.908200
C58	C	0.978299	-0.389769	-0.923298
C59	C	0.960009	-0.406167	-0.838246
C60	C	0.895554	-0.463961	-0.788176
C61	C	1.006174	-0.364774	-0.803275
C62	C	0.987887	-0.381174	-0.718229
C63	C	0.923436	-0.438967	-0.668153
C64	C	0.877267	-0.480361	-0.703129
C65	C	1.070632	-0.306985	-0.853345
C66	C	1.116797	-0.265592	-0.818375
C67	C	1.098508	-0.281987	-0.733328
C68	C	1.034056	-0.339780	-0.683252
C69	C	1.144676	-0.240594	-0.698351
C70	C	1.126389	-0.256994	-0.613305
C71	C	1.015769	-0.356180	-0.598206
C72	C	0.951402	-0.413935	-0.048746
C73	C	0.932130	-0.431166	0.041731
H74	H	0.219452	-0.500702	-0.132607
F75	F	0.446011	-0.267873	-0.365903
F76	F	1.090095	-0.289535	-0.943859
H77	H	1.163960	-1.048502	-0.410350
F78	F	0.353543	-0.524097	-0.109105
F79	F	1.046691	-0.656901	-0.305085
F80	F	0.548338	-0.478566	-0.154708
F81	F	0.297322	-0.259466	-0.374338
F82	F	0.903975	-0.456425	-0.577637
F83	F	1.185394	-0.204088	-0.871670
H84	H	1.197159	-0.193544	-0.739129
H85	H	0.824825	-0.971361	-0.105851
F86	F	0.780771	-0.863909	-0.066323
F87	F	0.640806	-0.222339	-0.411494
H88	H	0.774896	-0.245741	-0.388007
H89	H	1.085328	-0.710844	-0.339782
H90	H	0.824768	-0.527402	-0.662364
H91	H	1.169114	-0.774208	-0.414989
F92	F	1.175524	-0.212941	-0.576084
F93	F	0.947241	-1.088662	-0.215751
H94	H	1.030781	-0.342716	-0.964076
H95	H	1.197056	-0.894188	-0.440060
F96	F	0.904099	-1.056001	-0.176858
F97	F	0.818545	-0.533004	-0.945415
F98	F	0.697024	-0.486974	-0.146268
H99	H	0.829954	-0.697051	-0.110492
F100	F	0.947163	-0.417684	-0.544914
H101	H	0.796890	-0.552395	-0.782381
