data_functionalizedCrystal
_audit_creation_method	'MofGen! by Chris Wilmer'
_symmetry_space_group_name_H-M	'P1'
_symmetry_Int_Tables_number	1
_symmetry_cell_setting	triclinic
loop_
_symmetry_equiv_pos_as_xyz
  x,y,z
_cell_length_a	9.065215
_cell_length_b	12.811415
_cell_length_c	8.140239
_cell_angle_alpha	84.565620
_cell_angle_beta	89.997810
_cell_angle_gamma	84.526874
loop_
_atom_site_label
_atom_site_type_symbol
_atom_site_fract_x
_atom_site_fract_y
_atom_site_fract_z
O1	O	1.958454	0.153893	-0.159518
O2	O	1.529009	0.166521	-0.161406
O3	O	1.754536	0.007517	-0.137707
O4	O	1.732928	0.312897	-0.183217
O5	O	1.754523	0.007515	0.135520
O6	O	1.528997	0.166519	0.111821
O7	O	1.958442	0.153891	0.113710
Zn8	Zn	1.743718	0.160205	0.156146
Zn9	Zn	1.743734	0.160207	-0.203843
O10	O	1.732916	0.312895	0.090010
C11	C	1.474032	0.165307	-0.024613
C12	C	1.310235	0.161680	-0.024075
C13	C	1.753319	-0.031600	0.004732
C14	C	1.749693	-0.148152	0.022091
C15	C	1.742866	-0.367153	-0.243196
C16	C	1.739459	-0.476665	-0.226894
C17	C	1.739461	-0.476688	0.070997
C18	C	1.742868	-0.367176	0.054694
C19	C	1.744573	-0.312413	-0.102407
C20	C	1.747990	-0.202900	-0.118708
C21	C	1.747982	-0.202924	0.179181
C22	C	1.744575	-0.312436	0.195483
C23	C	2.013420	0.155105	-0.023088
C24	C	2.177217	0.158732	-0.023636
C25	C	1.734133	0.352011	-0.052433
C26	C	1.737759	0.468564	-0.069802
N27	N	1.743717	0.160202	0.401829
N28	N	1.743746	0.160201	-0.449524
H29	H	1.749383	-0.158314	-0.246628
O30	O	1.749381	-0.149684	0.315906
C31	C	1.623755	-0.075640	0.313800
H32	H	1.533516	-0.101166	0.233086
H33	H	1.655198	0.004946	0.261796
C34	C	1.676782	-0.037787	0.589916
C35	C	1.565945	-0.069142	0.490792
H36	H	1.641124	-0.033774	0.699092
H37	H	1.761422	-0.087668	0.591333
H38	H	1.702974	0.029365	0.546559
H39	H	1.539767	-0.136299	0.534138
H40	H	1.481298	-0.019272	0.489386
O41	O	1.737856	-0.529682	-0.363826
C42	C	1.740040	-0.457854	-0.505975
H43	H	1.789140	-0.383701	-0.473361
H44	H	1.622175	-0.436307	-0.554949
C45	C	1.775012	-0.599746	-0.679210
C46	C	1.835329	-0.508672	-0.639155
H47	H	1.833784	-0.631093	-0.761366
H48	H	1.773535	-0.648138	-0.583443
H49	H	1.676792	-0.581777	-0.720012
H50	H	1.933539	-0.526644	-0.598335
H51	H	1.836824	-0.460284	-0.734919
H52	H	1.744267	-0.322565	-0.371114
H53	H	1.738061	-0.521294	0.198901
H54	H	1.743181	-0.357039	0.323391
