data_functionalizedCrystal
_audit_creation_method	'MofGen! by Chris Wilmer'
_symmetry_space_group_name_H-M	'P1'
_symmetry_Int_Tables_number	1
_symmetry_cell_setting	triclinic
loop_
_symmetry_equiv_pos_as_xyz
  x,y,z
_cell_length_a	16.793024
_cell_length_b	16.793047
_cell_length_c	33.586455
_cell_angle_alpha	113.253857
_cell_angle_beta	66.219990
_cell_angle_gamma	112.758327
loop_
_atom_site_label
_atom_site_type_symbol
_atom_site_fract_x
_atom_site_fract_y
_atom_site_fract_z
O1	O	0.005016	-0.570216	-0.583573
O2	O	-0.034529	-0.474528	-0.453458
O3	O	0.114723	-0.474535	-0.528082
O4	O	-0.144235	-0.570209	-0.508949
O5	O	0.108729	-0.346329	-0.530229
O6	O	-0.040523	-0.346322	-0.455605
O7	O	-0.000977	-0.442010	-0.585721
Cu8	Cu	-0.021297	-0.382459	-0.520859
Cu9	Cu	-0.014209	-0.534079	-0.518320
O10	O	-0.150229	-0.442003	-0.511097
C11	C	0.005100	-0.790970	-0.238461
C12	C	0.009223	-0.693065	-0.217557
C13	C	0.003804	-0.645758	-0.241627
C14	C	-0.075059	-0.538459	-0.266316
C15	C	0.049838	-0.422849	-0.250165
C16	C	-0.040584	-0.395375	-0.435637
C17	C	-0.044693	-0.353446	-0.386631
C18	C	-0.039275	-0.401741	-0.363054
C19	C	-0.040566	-0.125547	-0.300731
C20	C	-0.044689	-0.223451	-0.321635
C21	C	-0.039266	-0.270752	-0.297563
C22	C	0.039597	-0.378051	-0.272874
C23	C	-0.085304	-0.493667	-0.289026
C24	C	0.005118	-0.521142	-0.103554
C25	C	0.009231	-0.563064	-0.152559
C26	C	0.003809	-0.514775	-0.176138
C27	C	0.010758	-0.652581	-0.172822
C28	C	0.001010	-0.556371	-0.220792
C29	C	-0.008251	-0.506059	-0.245823
C30	C	-0.046224	-0.263935	-0.366370
C31	C	-0.036476	-0.360146	-0.318399
C32	C	-0.027211	-0.410451	-0.293367
C33	C	0.815184	-0.521162	-0.508596
C34	C	0.415541	-0.125553	-0.528781
C35	C	0.375032	-0.223457	-0.531493
C36	C	0.423813	-0.270761	-0.529101
C37	C	0.149318	-0.395376	-0.530584
C38	C	0.246774	-0.353455	-0.532364
C39	C	0.294574	-0.401748	-0.529976
C40	C	0.548961	-0.790984	-0.510398
C41	C	0.286104	-0.263940	-0.532530
C42	C	0.383336	-0.360149	-0.528302
C43	C	0.432207	-0.407971	-0.525810
C44	C	0.392316	-0.497392	-0.524993
C45	C	0.303554	-0.538991	-0.526667
C46	C	0.254683	-0.491169	-0.529159
C47	C	0.263666	-0.628421	-0.525851
C48	C	0.312537	-0.676243	-0.523359
C49	C	0.401299	-0.634644	-0.521685
C50	C	0.441190	-0.545223	-0.522502
C51	C	0.529952	-0.503624	-0.520828
C52	C	0.578823	-0.551446	-0.518336
C53	C	0.538939	-0.640864	-0.517520
C54	C	0.450177	-0.682463	-0.519194
C55	C	0.587810	-0.688687	-0.515028
C56	C	0.676572	-0.647088	-0.513354
C57	C	0.716463	-0.557666	-0.514172
C58	C	0.667586	-0.509847	-0.516662
C59	C	0.569840	-0.414195	-0.521644
C60	C	0.658602	-0.372596	-0.519970
C61	C	0.707476	-0.420426	-0.517480
C62	C	0.698493	-0.283174	-0.520788
C63	C	0.649622	-0.235352	-0.523280
C64	C	0.560860	-0.276951	-0.524954
C65	C	0.520969	-0.366372	-0.524136
C66	C	0.511989	-0.229129	-0.527446
C67	C	-0.040530	-0.395407	-0.935652
C68	C	0.005063	-0.791004	-0.738448
C69	C	0.009186	-0.693099	-0.717543
C70	C	0.003779	-0.645796	-0.741620
C71	C	0.005077	-0.521171	-0.603544
C72	C	0.009198	-0.563096	-0.652550
C73	C	0.003786	-0.514804	-0.676131
C74	C	-0.040516	-0.125574	-0.800747
C75	C	0.010719	-0.652613	-0.672809
C76	C	0.000994	-0.556406	-0.720789
C77	C	-0.004621	-0.508585	-0.744908
C78	C	-0.007444	-0.419162	-0.724369
C79	C	-0.004651	-0.377560	-0.679711
C80	C	0.000964	-0.425381	-0.655592
C81	C	-0.007471	-0.288129	-0.659174
C82	C	-0.013086	-0.240308	-0.683293
C83	C	-0.015878	-0.281910	-0.727951
C84	C	-0.013056	-0.371333	-0.748490
C85	C	-0.015848	-0.412935	-0.793148
C86	C	-0.021463	-0.365114	-0.817267
C87	C	-0.024282	-0.275694	-0.796731
C88	C	-0.021490	-0.234092	-0.752073
C89	C	-0.029897	-0.227873	-0.820850
C90	C	-0.032690	-0.269476	-0.865508
C91	C	-0.029867	-0.358899	-0.886047
C92	C	-0.024255	-0.406717	-0.861925
C93	C	-0.013028	-0.502367	-0.813685
C94	C	-0.015821	-0.543969	-0.858343
C95	C	-0.021433	-0.496140	-0.882464
C96	C	-0.012998	-0.633392	-0.878882
C97	C	-0.007383	-0.681213	-0.854763
C98	C	-0.004591	-0.639611	-0.810105
C99	C	-0.007414	-0.550188	-0.789566
C100	C	0.001024	-0.687432	-0.785986
O101	O	-0.000965	0.173549	-0.277957
O102	O	-0.040516	-0.085616	-0.325254
O103	O	0.108737	0.059592	-0.327284
O104	O	-0.150219	0.028341	-0.275927
O105	O	0.114753	0.055151	-0.263265
O106	O	-0.034500	-0.090057	-0.261234
O107	O	0.005051	0.169108	-0.213937
Cu108	Cu	-0.014175	0.039120	-0.231740
Cu109	Cu	-0.021290	0.044372	-0.307451
O110	O	-0.144202	0.023900	-0.211907
O111	O	-0.034458	-0.474571	0.046517
O112	O	0.005076	-0.570190	-0.083599
O113	O	-0.144170	-0.570237	-0.008972
O114	O	0.114787	-0.474523	-0.028110
O115	O	-0.150200	-0.442024	-0.011093
O116	O	-0.000954	-0.441976	-0.085720
O117	O	-0.040488	-0.346357	0.044396
Cu118	Cu	-0.021272	-0.382460	-0.020856
Cu119	Cu	-0.014141	-0.534087	-0.018347
O120	O	0.108757	-0.346309	-0.030231
C121	C	-0.850734	0.086244	-0.289716
C122	C	-0.753280	0.087165	-0.312001
C123	C	-0.705462	0.081107	-0.288506
C124	C	-0.599592	0.000085	-0.264184
C125	C	-0.481080	0.121287	-0.283645
C126	C	-0.450996	0.035117	-0.097351
C127	C	-0.410501	0.028587	-0.146852
C128	C	-0.459292	0.034683	-0.169840
C129	C	-0.184802	0.024283	-0.235878
C130	C	-0.282257	0.023363	-0.213592
C131	C	-0.330068	0.029423	-0.237088
C132	C	-0.435938	0.110445	-0.261411
C133	C	-0.554456	-0.010759	-0.241948
C134	C	-0.584541	0.075410	-0.428242
C135	C	-0.625029	0.081943	-0.378743
C136	C	-0.576244	0.075844	-0.355753
C137	C	-0.713963	0.086424	-0.357292
C138	C	-0.616708	0.075351	-0.310510
C139	C	-0.565963	0.065400	-0.286043
C140	C	-0.321573	0.024104	-0.168302
C141	C	-0.418828	0.035176	-0.215083
C142	C	-0.469568	0.045131	-0.239552
O143	O	0.585213	0.169090	-0.504004
O144	O	0.494056	-0.090076	-0.525516
O145	O	0.488081	0.055124	-0.449918
O146	O	0.591189	0.023889	-0.579602
O147	O	0.359978	0.059584	-0.452885
O148	O	0.365953	-0.085616	-0.528483
O149	O	0.457110	0.173550	-0.506971
Cu150	Cu	0.399835	0.044374	-0.517998
Cu151	Cu	0.551332	0.039099	-0.514489
O152	O	0.463086	0.028349	-0.582569
C153	C	0.815354	-0.521094	-0.008709
C154	C	0.717898	-0.563028	-0.006927
C155	C	0.670072	-0.514739	-0.009298
C156	C	0.564182	-0.463204	-0.048354
C157	C	0.445681	-0.498945	0.013847
C158	C	0.415547	-0.125494	-0.028771
C159	C	0.375059	-0.223405	-0.031498
C160	C	0.423859	-0.270708	-0.029121
C161	C	0.149365	-0.395355	-0.030599
C162	C	0.246820	-0.353421	-0.032381
C163	C	0.294640	-0.401713	-0.030008
C164	C	0.400530	-0.453248	0.009048
C165	C	0.519038	-0.417504	-0.053155
C166	C	0.549171	-0.790955	-0.010537
C167	C	0.589653	-0.693047	-0.007809
C168	C	0.540859	-0.645741	-0.010187
C169	C	0.678588	-0.652551	-0.006775
C170	C	0.581317	-0.556344	-0.010973
C171	C	0.530562	-0.506029	-0.015250
C172	C	0.286131	-0.263897	-0.032533
C173	C	0.383402	-0.360104	-0.028335
C174	C	0.434150	-0.410423	-0.024057
O175	O	-0.620614	0.089309	0.052274
O176	O	-0.529507	0.043784	-0.078544
O177	O	-0.523494	0.194833	-0.006033
O178	O	-0.626628	-0.061740	-0.020236
O179	O	-0.395386	0.185419	-0.005549
O180	O	-0.401400	0.034370	-0.078059
O181	O	-0.492507	0.079895	0.052758
Cu182	Cu	-0.435256	0.056273	-0.012607
Cu183	Cu	-0.586758	0.067406	-0.013179
O184	O	-0.498521	-0.071154	-0.019752
C185	C	-0.437537	0.048335	0.402491
C186	C	-0.397043	0.041789	0.352989
C187	C	-0.445822	0.047883	0.329994
C188	C	-0.496646	0.126653	0.277022
C189	C	-0.465894	-0.000633	0.218811
C190	C	-0.837226	0.099430	0.210091
C191	C	-0.739773	0.100339	0.187806
C192	C	-0.691967	0.094287	0.211308
C193	C	-0.571027	0.088563	0.071568
C194	C	-0.611521	0.095108	0.121070
C195	C	-0.562739	0.089011	0.144061
C196	C	-0.511915	0.010241	0.197033
C197	C	-0.542670	0.137531	0.255247
C198	C	-0.171338	0.037467	0.263967
C199	C	-0.268788	0.036555	0.286249
C200	C	-0.316597	0.042611	0.262750
C201	C	-0.308112	0.037305	0.331542
C202	C	-0.405351	0.048369	0.284750
C203	C	-0.456092	0.058317	0.260279
C204	C	-0.700452	0.099593	0.142516
C205	C	-0.603213	0.088528	0.189308
C206	C	-0.552469	0.078578	0.213776
O207	O	-0.040608	-1.085661	-0.825229
O208	O	-0.001018	-0.826491	-0.777938
O209	O	-0.150287	-0.971682	-0.775894
O210	O	0.108661	-0.940470	-0.827272
O211	O	-0.144253	-0.976123	-0.711878
O212	O	0.005016	-0.830932	-0.713922
O213	O	-0.034575	-1.090102	-0.761213
Cu214	Cu	-0.014228	-0.960923	-0.731722
Cu215	Cu	-0.021364	-0.955670	-0.807428
O216	O	0.114695	-0.944911	-0.763256
N217	N	-0.036407	-0.225921	-0.249165
H218	H	-0.039036	-0.161729	-0.239716
H219	H	-0.089781	-0.259822	-0.228626
N220	N	-0.254621	0.033110	0.357252
H221	H	-0.293490	0.034317	0.389459
H222	H	-0.235064	-0.024332	0.341987
H223	H	-0.518447	0.052455	0.347905
N224	N	0.732096	-0.705402	-0.005401
H225	H	0.751772	-0.675387	0.023021
H226	H	0.693150	-0.768719	-0.005427
H227	H	0.771070	-0.249160	-0.519423
N228	N	0.158552	-0.536229	-0.530966
H229	H	0.116830	-0.502481	-0.504091
H230	H	0.153864	-0.535996	-0.559966
N231	N	0.403499	-0.543499	0.051553
H232	H	0.396624	-0.610390	0.038149
H233	H	0.443545	-0.517297	0.071956
H234	H	-0.754334	0.089615	-0.376700
N235	N	-0.487810	0.191881	0.322361
H236	H	-0.519962	0.239015	0.331325
H237	H	-0.515771	0.158195	0.346012
N238	N	0.003993	-0.380320	-0.607229
H239	H	-0.049304	-0.414061	-0.586589
H240	H	0.062000	-0.380565	-0.604895
N241	N	0.444643	-0.690568	-0.011886
H242	H	0.419694	-0.646397	-0.013526
H243	H	0.443311	-0.744430	-0.039565
H244	H	-0.740818	0.102779	0.123104
H245	H	0.003321	-0.760550	-0.802778
H246	H	0.702991	-0.441593	-0.009870
N247	N	0.307786	-0.447414	0.041210
H248	H	0.262499	-0.475060	0.023525
H249	H	0.290023	-0.481052	0.063985
H250	H	-0.142704	-0.524425	-0.305055
N251	N	0.656929	-0.469049	-0.080516
H252	H	0.674779	-0.435402	-0.103301
H253	H	0.702150	-0.441419	-0.062796
H254	H	-0.005085	-0.754331	-0.871556
H255	H	-0.047834	-0.232081	-0.882358
N256	N	-0.555490	0.040743	-0.146112
H257	H	-0.560309	0.098778	-0.146208
H258	H	-0.597042	-0.011995	-0.162473
H259	H	-0.738384	0.080845	-0.251490
H260	H	-0.281187	0.020914	-0.148901
H261	H	0.261721	-0.474856	-0.029430
H262	H	0.088092	-0.309407	-0.275738
H263	H	-0.586315	-0.066836	-0.224702
N264	N	0.561218	-0.372934	-0.090855
H265	H	0.622616	-0.383837	-0.109106
H266	H	0.521143	-0.399081	-0.111240
H267	H	0.682238	-0.162236	-0.523943
H268	H	0.496488	-0.236853	-0.027824
H269	H	-0.005182	-0.254109	-0.622664
N270	N	-0.273000	0.042955	0.213717
H271	H	-0.271832	0.100743	0.210503
H272	H	-0.209157	0.038299	0.203468
H273	H	-0.434254	-0.059305	0.203012
H274	H	0.107243	-0.392097	-0.234140
N275	N	0.000929	-0.417908	-0.153681
H276	H	0.003557	-0.399083	-0.121621
H277	H	0.054288	-0.378256	-0.171349
H278	H	-0.669612	-0.046576	-0.265443
N279	N	-0.024486	-0.137229	-0.729803
H280	H	-0.082445	-0.131047	-0.729235
H281	H	-0.021796	-0.118180	-0.697742
N282	N	-0.036444	-0.498624	-0.385502
H283	H	-0.039083	-0.517453	-0.417560
H284	H	0.021467	-0.504947	-0.386096
N285	N	0.232629	-0.211071	-0.533917
H286	H	0.263889	-0.189466	-0.561995
H287	H	0.169874	-0.250861	-0.534588
N288	N	-0.049719	-0.211067	-0.392749
H289	H	0.005171	-0.157433	-0.394497
H290	H	-0.050466	-0.250834	-0.424402
H291	H	0.544602	-0.156012	-0.528109
N292	N	0.167542	-0.673470	-0.527667
H293	H	0.149617	-0.737639	-0.526769
H294	H	0.125877	-0.639658	-0.500794
H295	H	0.245737	-0.223998	-0.033572
H296	H	0.013390	-0.692483	-0.152899
H297	H	-0.123560	-0.607102	-0.263443
N298	N	0.269379	-0.773123	-0.522535
H299	H	0.205485	-0.792311	-0.524001
H300	H	0.305471	-0.812584	-0.549468
H301	H	-0.574318	0.196197	0.271049
N302	N	0.000959	-0.690590	-0.290027
H303	H	0.003587	-0.754781	-0.299473
H304	H	-0.056952	-0.690205	-0.292403
H305	H	-0.023718	-0.530163	-0.918978
H306	H	0.417564	-0.755580	-0.518528
H307	H	-0.490116	0.084434	0.126151
N308	N	-0.735565	0.093943	0.260341
H309	H	-0.799432	0.098559	0.270620
H310	H	-0.736665	0.036151	0.263521
N311	N	0.721884	-0.696623	-0.503664
H312	H	0.678548	-0.756418	-0.499550
H313	H	0.777467	-0.707105	-0.529900
N314	N	-0.286461	0.029789	-0.286118
H315	H	-0.268145	-0.027839	-0.304807
H316	H	-0.330894	0.034595	-0.297700
N317	N	0.803612	-0.375378	-0.515670
H318	H	0.821543	-0.311210	-0.516570
H319	H	0.808298	-0.375679	-0.486684
N320	N	0.014204	-0.705473	-0.646423
H321	H	0.015052	-0.665725	-0.614777
H322	H	-0.040761	-0.759025	-0.644650
N323	N	-0.016098	-0.143446	-0.661083
H324	H	0.037212	-0.103896	-0.678830
H325	H	-0.074094	-0.137417	-0.660554
N326	N	-0.520722	-0.054976	0.151691
H327	H	-0.488564	-0.102104	0.142729
H328	H	-0.586778	-0.085102	0.153986
H329	H	-0.015274	-0.667410	-0.915397
H330	H	-0.365918	0.157102	-0.260160
H331	H	-0.449229	0.177371	-0.300885
N332	N	-0.480045	0.069787	-0.379474
H333	H	-0.462013	0.071069	-0.411814
H334	H	-0.438509	0.122490	-0.363089
