data_functionalizedCrystal
_audit_creation_method	'MofGen! by Chris Wilmer'
_symmetry_space_group_name_H-M	'P1'
_symmetry_Int_Tables_number	1
_symmetry_cell_setting	triclinic
loop_
_symmetry_equiv_pos_as_xyz
  x,y,z
_cell_length_a	13.033293
_cell_length_b	16.625545
_cell_length_c	13.033109
_cell_angle_alpha	97.153577
_cell_angle_beta	74.800007
_cell_angle_gamma	97.195104
loop_
_atom_site_label
_atom_site_type_symbol
_atom_site_fract_x
_atom_site_fract_y
_atom_site_fract_z
Zn1	Zn	1.700241	-0.233630	-0.807168
Zn2	Zn	2.033574	0.099703	-0.473835
Zn3	Zn	2.366908	0.433037	-0.140501
Zn4	Zn	1.677549	-0.353294	-0.629535
Zn5	Zn	2.010882	-0.019961	-0.296202
Zn6	Zn	2.344215	0.313372	0.037132
Zn7	Zn	1.500045	-0.233645	-0.606971
Zn8	Zn	1.833378	0.099688	-0.273637
Zn9	Zn	2.166712	0.433022	0.059696
Zn10	Zn	1.522542	-0.383600	-0.784507
Zn11	Zn	1.855876	-0.050266	-0.451174
Zn12	Zn	2.189209	0.283067	-0.117841
O13	O	1.600094	-0.301042	-0.707045
O14	O	1.933428	0.032291	-0.373712
O15	O	2.266761	0.365624	-0.040379
O16	O	1.845884	-0.236815	-0.802532
O17	O	2.179217	0.096519	-0.469198
O18	O	2.512551	0.429852	-0.135865
O19	O	1.635090	-0.324746	-0.477902
O20	O	1.968424	0.008587	-0.144569
O21	O	2.301757	0.341921	0.188765
O22	O	1.526683	-0.120807	-0.633568
O23	O	1.860016	0.212527	-0.300234
O24	O	2.193350	0.545860	0.033099
O25	O	1.829212	-0.324732	-0.672025
O26	O	2.162545	0.008602	-0.338692
O27	O	2.495879	0.341935	-0.005359
O28	O	1.673766	-0.120796	-0.780652
O29	O	2.007099	0.212538	-0.447319
O30	O	2.340433	0.545871	-0.113985
O31	O	1.504679	-0.236840	-0.461324
O32	O	1.838013	0.096493	-0.127991
O33	O	2.171346	0.429827	0.205343
O34	O	1.354376	-0.266226	-0.611594
O35	O	1.687709	0.067107	-0.278261
O36	O	2.021043	0.400441	0.055072
O37	O	1.565027	-0.376382	-0.936153
O38	O	1.898360	-0.043049	-0.602820
O39	O	2.231693	0.290284	-0.269486
O40	O	1.370905	-0.376397	-0.742030
O41	O	1.704238	-0.043064	-0.408696
O42	O	2.037571	0.290270	-0.075363
O43	O	1.695581	-0.266201	-0.952802
O44	O	2.028914	0.067133	-0.619469
O45	O	2.362248	0.400466	-0.286135
O46	O	1.656905	-0.470151	-0.650052
O47	O	1.990238	-0.136818	-0.316719
O48	O	2.323572	0.196516	0.016615
O49	O	1.543023	-0.492416	-0.763909
O50	O	1.876356	-0.159083	-0.430576
O51	O	2.209689	0.174251	-0.097243
C52	C	1.324096	-0.324602	-0.671905
C53	C	1.657430	0.008731	-0.338572
C54	C	1.990763	0.342065	-0.005238
C55	C	1.206026	-0.334703	-0.656897
C56	C	1.539360	-0.001369	-0.323564
C57	C	1.872693	0.331964	0.009770
C58	C	1.161649	-0.295791	-0.714878
C59	C	1.494982	0.037542	-0.381545
C60	C	1.828315	0.370876	-0.048211
C61	C	1.039617	-0.306229	-0.699368
C62	C	1.372951	0.027104	-0.366035
C63	C	1.706284	0.360437	-0.032701
C64	C	1.599975	-0.510540	-0.706997
C65	C	1.933308	-0.177207	-0.373664
C66	C	2.266641	0.156127	-0.040330
C67	C	1.600025	-0.600159	-0.707024
C68	C	1.933358	-0.266826	-0.373691
C69	C	2.266692	0.066508	-0.040358
C70	C	1.600069	-0.672940	-0.707051
C71	C	1.933402	-0.339606	-0.373717
C72	C	2.266736	-0.006273	-0.040384
C73	C	1.600134	-0.764245	-0.707082
C74	C	1.933467	-0.430911	-0.373749
C75	C	2.266801	-0.097578	-0.040415
C76	C	1.600191	-0.837018	-0.707103
C77	C	1.933524	-0.503684	-0.373769
C78	C	2.266857	-0.170351	-0.040436
C79	C	1.600254	-0.928329	-0.707132
C80	C	1.933588	-0.594995	-0.373799
C81	C	2.266921	-0.261662	-0.040465
C82	C	1.877170	-0.277391	-0.742323
C83	C	2.210503	0.055942	-0.408990
C84	C	2.543837	0.389276	-0.075657
C85	C	1.995243	-0.267312	-0.757357
C86	C	2.328576	0.066021	-0.424023
C87	C	2.661910	0.399354	-0.090690
C88	C	1.635344	-0.324670	-0.984096
C89	C	1.968678	0.008663	-0.650762
C90	C	2.302011	0.341996	-0.317429
C91	C	1.650366	-0.334739	-1.102158
C92	C	1.983699	-0.001406	-0.768825
C93	C	2.317033	0.331928	-0.435491
C94	C	1.600246	-0.090726	-0.707120
C95	C	1.933580	0.242608	-0.373787
C96	C	2.266913	0.575941	-0.040454
C97	C	1.600311	-0.001101	-0.707153
C98	C	1.933644	0.332232	-0.373819
C99	C	2.266978	0.665565	-0.040486
C100	C	1.592538	-0.295734	-1.146592
C101	C	1.925872	0.037599	-0.813258
C102	C	2.259205	0.370933	-0.479925
C103	C	1.608062	-0.306140	-1.268615
C104	C	1.941396	0.027194	-0.935282
C105	C	2.274729	0.360527	-0.601948
C106	C	1.565042	-0.277443	-0.431080
C107	C	1.898376	0.055891	-0.097747
C108	C	2.231709	0.389224	0.235586
C109	C	1.550227	-0.267129	-0.313045
C110	C	1.883560	0.066204	0.020289
C111	C	2.216893	0.399537	0.353622
H112	H	1.047587	-0.226263	-0.818478
H113	H	1.380921	0.107070	-0.485145
H114	H	1.714254	0.440404	-0.151811
H115	H	0.987271	-0.347272	-0.638239
H116	H	1.320604	-0.013939	-0.304906
H117	H	1.653937	0.319395	0.028427
N118	N	1.140348	-0.386180	-0.580212
N119	N	1.473681	-0.052846	-0.246879
N120	N	1.807015	0.280487	0.086455
N121	N	1.041310	-0.394582	-0.567717
N122	N	1.374643	-0.061249	-0.234383
N123	N	1.707977	0.272084	0.098950
H124	H	0.994924	-0.430938	-0.513555
H125	H	1.328258	-0.097605	-0.180221
H126	H	1.661591	0.235729	0.153112
H127	H	1.531533	-0.254640	-1.094295
H128	H	1.864866	0.078693	-0.760961
H129	H	2.198199	0.412026	-0.427628
H130	H	1.669067	-0.347241	-1.320908
H131	H	2.002400	-0.013908	-0.987574
H132	H	2.335734	0.319426	-0.654241
N133	N	1.473705	-0.215565	-1.247441
N134	N	1.807038	0.117769	-0.914108
N135	N	2.140372	0.451102	-0.580775
N136	N	1.503295	-0.155750	-1.190296
N137	N	1.836629	0.177583	-0.856963
N138	N	2.169962	0.510917	-0.523630
H139	H	1.449254	-0.119332	-1.143963
H140	H	1.782587	0.214001	-0.810629
H141	H	2.115920	0.547334	-0.477296
N142	N	1.227325	-0.244299	-0.791545
N143	N	1.560658	0.089035	-0.458211
N144	N	1.893991	0.422368	-0.124878
N145	N	1.326361	-0.235889	-0.804032
N146	N	1.659695	0.097444	-0.470699
N147	N	1.993028	0.430778	-0.137365
H148	H	1.372745	-0.199521	-0.858179
H149	H	1.706079	0.133812	-0.524846
H150	H	2.039412	0.467146	-0.191513
N151	N	1.726881	-0.386301	-1.167767
N152	N	2.060215	-0.052968	-0.834434
N153	N	2.393548	0.280365	-0.501101
N154	N	1.739380	-0.394684	-1.266798
N155	N	2.072714	-0.061351	-0.933465
N156	N	2.406047	0.271982	-0.600131
H157	H	1.793420	-0.431102	-1.313135
H158	H	2.126754	-0.097769	-0.979801
H159	H	2.460087	0.235565	-0.646468
