data_functionalizedCrystal
_audit_creation_method	'MofGen! by Chris Wilmer'
_symmetry_space_group_name_H-M	'P1'
_symmetry_Int_Tables_number	1
_symmetry_cell_setting	triclinic
loop_
_symmetry_equiv_pos_as_xyz
  x,y,z
_cell_length_a	11.792241
_cell_length_b	10.268362
_cell_length_c	11.792254
_cell_angle_alpha	89.999366
_cell_angle_beta	84.196006
_cell_angle_gamma	89.998946
loop_
_atom_site_label
_atom_site_type_symbol
_atom_site_fract_x
_atom_site_fract_y
_atom_site_fract_z
O1	O	1.506917	-0.108160	0.155567
O2	O	2.006917	0.391840	0.655567
O3	O	1.176577	-0.108189	0.171600
O4	O	1.676577	0.391811	0.671600
O5	O	1.349756	-0.108180	-0.001586
O6	O	1.849756	0.391820	0.498414
O7	O	1.333738	-0.108169	0.328753
O8	O	1.833738	0.391831	0.828753
O9	O	1.349738	0.108421	-0.001592
O10	O	1.849738	0.608421	0.498408
O11	O	1.176559	0.108412	0.171594
O12	O	1.676559	0.608412	0.671594
O13	O	1.506900	0.108441	0.155561
O14	O	2.006900	0.608441	0.655561
Cu15	Cu	1.341728	0.128204	0.163577
Cu16	Cu	1.841728	0.628204	0.663577
Cu17	Cu	1.341748	-0.127952	0.163584
Cu18	Cu	1.841748	0.372048	0.663584
O19	O	1.333720	0.108431	0.328747
O20	O	1.833720	0.608431	0.828747
C21	C	1.134277	0.000107	0.170590
C22	C	1.634277	0.500107	0.670590
C23	C	1.008263	0.000096	0.167576
C24	C	1.508263	0.500096	0.667576
N25	N	1.341721	0.308369	0.163571
N26	N	1.841721	0.808369	0.663571
C27	C	1.348738	0.000116	-0.043880
C28	C	1.848738	0.500116	0.456120
C29	C	1.345718	0.000103	-0.169893
C30	C	1.845718	0.500103	0.330107
C31	C	0.777551	0.000133	0.162033
C32	C	1.277551	0.500133	0.662033
C33	C	0.905936	0.000113	0.165112
C34	C	1.405936	0.500113	0.665112
C35	C	1.549199	0.000141	0.156571
C36	C	2.049199	0.500141	0.656571
C37	C	1.675213	0.000144	0.159586
C38	C	2.175213	0.500144	0.659586
C39	C	1.341735	0.574040	0.163585
C40	C	1.841735	1.074040	0.663585
C41	C	1.341724	0.426202	0.163581
C42	C	1.841724	0.926202	0.663581
N43	N	1.341753	0.691882	0.163586
N44	N	1.841753	1.191882	0.663586
C45	C	1.334738	0.000133	0.371041
C46	C	1.834738	0.500133	0.871041
C47	C	1.337758	0.000137	0.497054
C48	C	1.837758	0.500137	0.997054
C49	C	1.340212	0.000130	0.599390
C50	C	1.840212	0.500130	1.099390
C51	C	1.343281	0.000115	0.727777
C52	C	1.843281	0.500115	1.227777
