data_functionalizedCrystal
_audit_creation_method	'MofGen! by Chris Wilmer'
_symmetry_space_group_name_H-M	'P1'
_symmetry_Int_Tables_number	1
_symmetry_cell_setting	triclinic
loop_
_symmetry_equiv_pos_as_xyz
  x,y,z
_cell_length_a	16.625548
_cell_length_b	21.295417
_cell_length_c	16.625539
_cell_angle_alpha	89.966627
_cell_angle_beta	89.979432
_cell_angle_gamma	90.031575
loop_
_atom_site_label
_atom_site_type_symbol
_atom_site_fract_x
_atom_site_fract_y
_atom_site_fract_z
Zn1	Zn	1.232635	-0.250590	-0.455881
Zn2	Zn	1.232520	-0.355864	-0.321036
Zn3	Zn	1.097797	-0.250614	-0.321061
Zn4	Zn	1.097749	-0.355827	-0.455826
O5	O	1.165175	-0.303224	-0.388451
O6	O	1.345452	-0.264560	-0.438006
O7	O	1.214620	-0.341927	-0.208207
O8	O	1.115753	-0.162522	-0.338979
O9	O	1.345367	-0.341904	-0.338936
O10	O	1.214818	-0.162504	-0.438030
O11	O	1.115640	-0.264601	-0.208226
O12	O	0.984958	-0.264566	-0.338926
O13	O	1.115670	-0.341842	-0.568666
O14	O	0.984923	-0.341866	-0.437937
O15	O	1.214771	-0.264525	-0.568706
O16	O	1.214573	-0.443948	-0.338883
O17	O	1.115558	-0.443922	-0.437912
C18	C	0.955684	-0.303215	-0.388429
C19	C	0.866063	-0.303226	-0.388438
C20	C	0.537888	-0.303230	-0.388473
C21	C	0.629196	-0.303227	-0.388460
C22	C	0.701973	-0.303229	-0.388455
C23	C	0.793287	-0.303225	-0.388444
C24	C	1.165070	-0.466775	-0.388407
C25	C	1.165098	-0.536744	-0.388414
C26	C	1.216701	-0.569603	-0.336903
C27	C	1.216739	-0.635346	-0.336921
C28	C	1.165159	-0.668226	-0.388442
C29	C	1.113552	-0.635359	-0.439964
C30	C	1.113522	-0.569617	-0.439950
N31	N	1.094624	-0.771493	-0.394581
N32	N	1.094656	-0.833944	-0.394590
C33	C	1.165250	-0.866301	-0.388488
N34	N	1.235813	-0.833847	-0.382362
N35	N	1.235780	-0.771389	-0.382350
C36	C	1.165187	-0.739511	-0.388463
C37	C	1.216898	-0.970446	-0.336994
C38	C	1.216937	-1.036189	-0.337017
C39	C	1.113743	-1.036201	-0.440056
C40	C	1.113711	-0.970459	-0.440037
C41	C	1.165288	-0.937585	-0.388501
C42	C	1.375484	-0.303233	-0.388474
C43	C	1.465105	-0.303237	-0.388484
C44	C	1.165228	-0.303177	-0.598760
C45	C	1.165250	-0.303157	-0.688381
C46	C	1.165303	-0.139033	-0.388514
C47	C	1.165358	-0.069065	-0.388540
C48	C	1.165287	-0.303086	-1.016557
C49	C	1.165275	-0.303108	-0.925249
C50	C	1.165269	-0.303122	-0.852472
C51	C	1.165256	-0.303143	-0.761158
C52	C	1.165169	-0.303225	-0.178960
C53	C	1.165303	-0.303068	-0.089340
H54	H	1.258700	-0.542839	-0.294941
C55	C	1.273498	-0.671501	-0.280246
C56	C	1.330225	-0.635342	-0.223558
C57	C	1.386981	-0.671496	-0.166881
C58	C	1.387008	-0.743809	-0.166893
C59	C	1.330278	-0.779972	-0.223584
C60	C	1.273523	-0.743818	-0.280261
H61	H	1.330207	-0.581808	-0.223547
H62	H	1.428976	-0.644725	-0.124914
H63	H	1.429021	-0.770572	-0.124937
H64	H	1.330296	-0.833506	-0.223594
H65	H	1.231528	-0.770589	-0.322227
C66	C	1.273639	-0.934277	-0.280319
C67	C	1.238719	-0.889145	-0.216970
C68	C	1.295461	-0.852978	-0.160297
C69	C	1.387124	-0.861943	-0.166973
C70	C	1.422049	-0.907077	-0.230325
C71	C	1.365306	-0.943244	-0.286997
H72	H	1.170860	-0.882507	-0.212025
H73	H	1.269607	-0.819567	-0.113400
H74	H	1.429128	-0.835170	-0.125021
H75	H	1.489907	-0.913715	-0.235269
H76	H	1.391161	-0.976656	-0.333894
H77	H	1.071750	-1.062972	-0.482010
H78	H	1.071557	-0.662134	-0.481915
C79	C	1.056940	-0.934310	-0.496697
C80	C	0.965285	-0.943418	-0.490035
C81	C	0.908513	-0.907271	-0.546702
C82	C	0.943396	-0.862016	-0.610030
C83	C	1.035055	-0.852906	-0.616694
C84	C	1.091827	-0.889053	-0.560028
H85	H	0.939459	-0.976921	-0.443154
H86	H	0.840661	-0.914015	-0.541768
H87	H	0.901369	-0.835257	-0.651978
H88	H	1.060881	-0.819403	-0.663576
H89	H	1.159679	-0.882309	-0.564961
H90	H	1.071500	-0.542862	-0.481898
C91	C	1.273710	-1.072338	-0.280355
C92	C	1.330439	-1.036174	-0.223672
C93	C	1.387214	-1.072324	-0.167011
C94	C	1.387259	-1.144637	-0.167031
C95	C	1.330527	-1.180804	-0.223715
C96	C	1.273752	-1.144655	-0.280377
H97	H	1.330408	-0.982641	-0.223655
H98	H	1.429211	-1.045550	-0.125049
H99	H	1.429287	-1.171396	-0.125087
H100	H	1.330558	-1.234338	-0.223732
H101	H	1.231755	-1.171429	-0.322339
