data_functionalizedCrystal
_audit_creation_method	'MofGen! by Chris Wilmer'
_symmetry_space_group_name_H-M	'P1'
_symmetry_Int_Tables_number	1
_symmetry_cell_setting	triclinic
loop_
_symmetry_equiv_pos_as_xyz
  x,y,z
_cell_length_a	14.519731
_cell_length_b	14.519709
_cell_length_c	9.730223
_cell_angle_alpha	89.999758
_cell_angle_beta	89.993443
_cell_angle_gamma	83.684499
loop_
_atom_site_label
_atom_site_type_symbol
_atom_site_fract_x
_atom_site_fract_y
_atom_site_fract_z
O1	O	0.120891	1.223878	-0.114114
O2	O	0.135127	0.955403	-0.114156
O3	O	-0.006228	1.096749	-0.114122
O4	O	0.262246	1.082533	-0.114149
O5	O	-0.006234	1.096733	0.114458
O6	O	0.135121	0.955387	0.114423
O7	O	0.120885	1.223863	0.114466
Zn8	Zn	0.128002	1.089622	0.150737
Zn9	Zn	0.128010	1.089643	-0.150427
O10	O	0.262240	1.082517	0.114431
C11	C	0.134461	0.921035	0.000128
C12	C	0.132473	0.818654	0.000112
C13	C	0.125153	0.443757	0.000176
C14	C	0.127186	0.548065	0.000158
C15	C	0.128813	0.631202	0.000143
C16	C	0.130846	0.735517	0.000127
C17	C	-0.040591	1.096075	0.000169
C18	C	-0.142971	1.094079	0.000169
C19	C	-0.226115	1.092457	0.000166
C20	C	-0.330424	1.090430	0.000155
C21	C	-0.413563	1.088822	0.000146
C22	C	-0.517878	1.086795	0.000137
C23	C	0.296603	1.083191	0.000138
C24	C	0.398983	1.085187	0.000128
C25	C	0.121551	1.258230	0.000178
C26	C	0.123539	1.360612	0.000185
N27	N	0.127996	1.089615	0.356273
N28	N	0.128009	1.089658	-0.355964
C29	C	0.190577	1.027047	0.572103
C30	C	0.190569	1.027024	0.428220
C31	C	0.065421	1.152228	0.428217
C32	C	0.065426	1.152247	0.572097
C33	C	0.253160	0.964458	0.644042
C34	C	0.315734	0.901844	0.572109
C35	C	0.315726	0.901820	0.428226
C36	C	0.253143	0.964410	0.356276
H37	H	0.253175	0.964474	0.761199
H38	H	0.366669	0.850831	0.369659
H39	H	0.014470	1.203188	0.369626
H40	H	0.253136	0.964379	0.239117
H41	H	0.366682	0.850879	0.630697
C42	C	-0.003394	1.221130	0.651228
N43	N	-0.055231	1.273014	0.710830
