data_functionalizedCrystal
_audit_creation_method	'MofGen! by Chris Wilmer'
_symmetry_space_group_name_H-M	'P1'
_symmetry_Int_Tables_number	1
_symmetry_cell_setting	triclinic
loop_
_symmetry_equiv_pos_as_xyz
  x,y,z
_cell_length_a	23.096457
_cell_length_b	21.606444
_cell_length_c	21.606444
_cell_angle_alpha	60.001331
_cell_angle_beta	90.000061
_cell_angle_gamma	59.998565
loop_
_atom_site_label
_atom_site_type_symbol
_atom_site_fract_x
_atom_site_fract_y
_atom_site_fract_z
Zr1	Zr	0.557754	0.677461	-0.081223
O2	O	0.465300	0.806582	-0.180042
O3	O	0.586097	0.548342	-0.050932
O4	O	0.586090	0.677466	-0.180051
O5	O	0.465312	0.677454	0.050931
O6	O	0.681370	0.677468	-0.180054
O7	O	0.465307	0.677458	-0.050923
O8	O	0.681383	0.446488	0.050915
O9	O	0.465299	0.908433	-0.180038
O10	O	0.669291	0.601451	-0.038013
O11	O	0.598188	0.601447	0.038002
O12	O	0.598179	0.753473	-0.114018
O13	O	0.527076	0.753469	-0.038002
Zr14	Zr	0.709723	0.677457	0.081217
Zr15	Zr	0.709715	0.677464	-0.081229
Zr16	Zr	0.557762	0.677454	0.081223
Zr17	Zr	0.557753	0.839901	-0.081217
Zr18	Zr	0.709725	0.515017	0.081212
O19	O	0.681380	0.806576	0.050927
O20	O	0.681369	0.806586	-0.180050
O21	O	0.465311	0.806572	0.050935
O22	O	0.802177	0.548336	0.180036
O23	O	0.802167	0.548346	-0.050941
O24	O	0.586108	0.548332	0.180044
O25	O	0.802165	0.677464	-0.050936
O26	O	0.681387	0.677452	0.180045
O27	O	0.586107	0.677450	0.180049
O28	O	0.802170	0.677460	0.050918
O29	O	0.586088	0.908435	-0.180043
O30	O	0.681390	0.446483	0.180037
O31	O	0.802178	0.446485	0.180033
O32	O	0.802172	0.446491	0.050910
O33	O	0.465305	0.908427	-0.050916
O34	O	0.586094	0.908429	-0.050921
O35	O	0.669298	0.601445	0.114012
O36	O	0.740401	0.601449	0.037997
O37	O	0.669289	0.753471	-0.038008
O38	O	0.598186	0.753467	0.038007
C39	C	0.633741	0.474271	-0.000009
C40	C	0.633741	0.405311	-0.000012
C41	C	0.670855	0.372916	-0.039692
C42	C	0.670857	0.308116	-0.039687
C43	C	0.633742	0.275716	-0.000005
C44	C	0.596627	0.308114	0.039680
C45	C	0.596629	0.372909	0.039679
C46	C	0.596619	0.046805	0.039686
C47	C	0.596618	-0.017992	0.039682
C48	C	0.670847	-0.017988	-0.039679
C49	C	0.670849	0.046806	-0.039681
C50	C	0.633738	0.079195	0.000008
C51	C	0.633736	0.149458	0.000003
C52	C	0.633738	0.205460	-0.000005
C53	C	0.443658	0.677456	0.000005
C54	C	0.379147	0.677454	0.000007
C55	C	0.385961	0.598103	0.039674
C56	C	0.325345	0.598101	0.039677
C57	C	0.257916	0.677456	-0.000001
C58	C	0.251105	0.756819	-0.039669
C59	C	0.311720	0.756818	-0.039665
N60	N	0.135117	0.736526	-0.064577
N61	N	0.077537	0.736522	-0.064580
C62	C	0.075283	0.677464	-0.000015
N63	N	0.132790	0.618398	0.064552
N64	N	0.190376	0.618400	0.064553
C65	C	0.192185	0.677466	-0.000010
C66	C	0.016374	0.598106	0.039659
C67	C	-0.044244	0.598108	0.039665
C68	C	-0.118485	0.756827	-0.039689
C69	C	-0.057867	0.756823	-0.039687
C70	C	0.009560	0.677460	-0.000015
C71	C	0.823819	0.677462	-0.000010
C72	C	0.888330	0.677464	-0.000013
C73	C	0.633729	0.677468	-0.203197
C74	C	0.633726	0.677471	-0.272160
C75	C	0.633737	0.880647	0.000004
C76	C	0.633736	0.949607	0.000006
C77	C	0.596606	0.756824	-0.344232
C78	C	0.596612	0.756822	-0.409027
C79	C	0.633734	0.677465	-0.401748
C80	C	0.670859	0.598105	-0.329668
C81	C	0.670856	0.598109	-0.264875
C82	C	0.670870	0.598090	-0.590971
C83	C	0.670868	0.598093	-0.655772
C84	C	0.596625	0.756803	-0.735123
C85	C	0.596623	0.756806	-0.670330
C86	C	0.633750	0.677447	-0.598256
C87	C	0.633744	0.677451	-0.527999
C88	C	0.633736	0.677460	-0.472004
C89	C	0.633748	0.677450	0.203192
C90	C	0.633751	0.677447	0.272154
C91	C	0.823821	0.474274	-0.000017
C92	C	0.888333	0.405315	-0.000022
C93	C	0.633750	0.474262	0.203185
C94	C	0.633754	0.405299	0.272145
C95	C	0.823831	0.474266	0.203178
C96	C	0.888346	0.405304	0.272135
C97	C	0.443647	0.880652	-0.203183
C98	C	0.379131	0.949614	-0.272141
C99	C	0.443656	0.880644	0.000011
C100	C	0.379144	0.949603	0.000016
C101	C	0.633727	0.880656	-0.203191
C102	C	0.633723	0.949619	-0.272151
C103	C	0.881510	0.372933	-0.039707
C104	C	0.942120	0.308147	-0.039727
C105	C	1.009553	0.275741	-0.000056
C106	C	1.016375	0.308131	0.039631
C107	C	0.955765	0.372919	0.039645
C108	C	0.670875	0.372912	0.344213
C109	C	0.670876	0.308123	0.409015
C110	C	0.633760	0.275718	0.401747
C111	C	0.596635	0.308111	0.329672
C112	C	0.596630	0.372903	0.264872
C113	C	0.955765	0.372921	0.264839
C114	C	1.016390	0.308133	0.329626
C115	C	1.009594	0.275724	0.401708
C116	C	0.942169	0.308114	0.409003
C117	C	0.881545	0.372905	0.344217
C118	C	0.311713	0.982005	-0.264845
C119	C	0.251088	1.046813	-0.329632
C120	C	0.257883	1.079225	-0.401714
C121	C	0.325308	1.046832	-0.409008
C122	C	0.385932	0.982029	-0.344222
C123	C	0.385967	0.981992	0.039695
C124	C	0.325357	1.046795	0.039696
C125	C	0.257924	1.079203	0.000023
C126	C	0.251102	1.046811	-0.039660
C127	C	0.311712	0.982013	-0.039666
C128	C	0.670846	0.982004	-0.264859
C129	C	0.670856	1.046793	-0.329648
C130	C	0.633739	1.079201	-0.401729
C131	C	0.596614	1.046810	-0.409019
C132	C	0.596609	0.982017	-0.344231
H133	H	0.701078	0.281739	-0.071997
C134	C	0.191260	1.150477	0.000038
H135	H	0.204988	1.165115	0.029359
H136	H	0.163832	1.201038	-0.050508
H137	H	0.163840	1.129236	0.021291
H138	H	0.566386	0.821439	-0.467710
C139	C	0.460127	0.510809	0.083320
H140	H	0.495253	0.522171	0.077639
H141	H	0.465441	0.478202	0.135518
H142	H	0.465446	0.478206	0.063717
C143	C	0.711682	0.510812	-0.321656
H144	H	0.733790	0.463552	-0.269450
H145	H	0.679636	0.507522	-0.345282
H146	H	0.746812	0.507502	-0.345281
H147	H	1.058899	0.222986	-0.000074
C148	C	0.460137	0.946355	0.083334
H149	H	0.495264	0.903119	0.077658
H150	H	0.465451	0.992874	0.063736
H151	H	0.465456	0.921076	0.135537
C152	C	0.332835	0.510812	0.083308
H153	H	0.381673	0.463547	0.106932
H154	H	0.310731	0.507506	0.120854
H155	H	0.310731	0.507525	0.049046
H156	H	0.633749	1.131960	-0.454477
H157	H	0.701086	1.073160	-0.323697
H158	H	0.961311	0.399298	0.206152
C159	C	0.304228	0.946364	-0.185562
H160	H	0.349985	0.903125	-0.148015
H161	H	0.279047	0.992880	-0.179876
H162	H	0.279038	0.921088	-0.179880
C163	C	0.332874	1.082407	0.083358
H164	H	0.381716	1.053810	0.106994
H165	H	0.310780	1.143579	0.049122
H166	H	0.310772	1.071781	0.120909
C167	C	0.176925	1.082460	-0.083290
H168	H	0.141811	1.125681	-0.077591
H169	H	0.171591	1.107743	-0.135493
H170	H	0.171605	1.035941	-0.063686
C171	C	0.711676	0.082443	-0.083327
H172	H	0.706357	0.125677	-0.077649
H173	H	0.760509	0.035926	-0.063735
H174	H	0.693340	0.107727	-0.135531
C175	C	0.633775	0.204442	0.473031
H176	H	0.661207	0.189793	0.516991
H177	H	0.586489	0.225670	0.473048
H178	H	0.653658	0.153879	0.473040
H179	H	0.196200	0.821430	-0.071975
H180	H	0.566394	1.073206	-0.467716
C181	C	0.711679	-0.053628	-0.083326
H182	H	0.706372	-0.096866	-0.077636
H183	H	0.693348	-0.007114	-0.135526
H184	H	0.760516	-0.078908	-0.063728
C185	C	0.555761	0.946411	-0.352261
H186	H	0.533652	0.975003	-0.404470
H187	H	0.587787	0.885237	-0.328641
H188	H	0.520629	0.957046	-0.328640
H189	H	0.306166	0.821437	-0.071965
C190	C	0.304198	0.946381	-0.083304
H191	H	0.255355	0.974960	-0.106921
H192	H	0.326295	0.956992	-0.120856
H193	H	0.326295	0.885205	-0.049050
C194	C	0.711718	0.272495	0.488289
H195	H	0.706402	0.229273	0.525846
H196	H	0.760550	0.247217	0.493965
H197	H	0.693387	0.319022	0.493965
C198	C	0.176929	1.082427	-0.321594
H199	H	0.181570	1.053827	-0.269385
H200	H	0.151733	1.143598	-0.345206
H201	H	0.151737	1.071806	-0.345223
H202	H	0.701072	0.955627	-0.206173
H203	H	0.701075	0.399295	-0.072009
C204	C	0.934699	0.272461	0.488293
H205	H	0.885865	0.301027	0.483368
H206	H	0.956813	0.211286	0.515214
H207	H	0.956805	0.283089	0.515212
C208	C	0.555805	-0.053648	0.083351
H209	H	0.533712	-0.025088	0.106998
H210	H	0.520675	-0.043034	0.049117
H211	H	0.587862	-0.114825	0.120894
H212	H	0.071276	0.533484	0.071979
H213	H	0.701083	0.533491	-0.206190
C214	C	0.555790	0.082433	0.083333
H215	H	0.533680	0.053863	0.106957
H216	H	0.587828	0.071813	0.120880
H217	H	0.520661	0.143611	0.049081
H218	H	0.566406	0.399286	0.071988
C219	C	0.555799	0.272479	0.083327
H220	H	0.561106	0.229256	0.077639
H221	H	0.574130	0.247199	0.135527
H222	H	0.506963	0.319002	0.063729
H223	H	0.826608	0.399317	-0.072021
H224	H	0.208514	1.131991	-0.454461
C225	C	1.090548	0.272508	0.321589
H226	H	1.085907	0.301080	0.269380
H227	H	1.115745	0.283131	0.345204
H228	H	1.115739	0.211330	0.345214
C229	C	-0.036747	0.510816	0.083299
H230	H	0.012092	0.463554	0.106919
H231	H	-0.058847	0.507508	0.120848
H232	H	-0.058853	0.507527	0.049040
H233	H	0.330833	1.073230	-0.467705
H234	H	0.701099	0.399290	0.350145
H235	H	0.566404	0.399264	0.206194
H236	H	0.566416	0.281717	0.323766
C237	C	-0.192647	0.844119	-0.083333
H238	H	-0.188022	0.891379	-0.106955
H239	H	-0.217839	0.847423	-0.120881
H240	H	-0.217833	0.847414	-0.049078
C241	C	1.076284	0.204449	0.472966
H242	H	1.117407	0.189802	0.458290
H243	H	1.076299	0.225675	0.502287
H244	H	1.076295	0.153884	0.502275
C245	C	0.807389	0.408509	0.352252
H246	H	0.812031	0.379918	0.404461
H247	H	0.782184	0.469684	0.328631
H248	H	0.782205	0.397873	0.328633
C249	C	0.555791	0.844096	-0.678336
H250	H	0.561102	0.832732	-0.629425
H251	H	0.574120	0.876702	-0.705258
H252	H	0.506954	0.876701	-0.705257
C253	C	-0.065361	0.844111	-0.083331
H254	H	-0.114200	0.891373	-0.106967
H255	H	-0.043259	0.847411	-0.049084
H256	H	-0.043257	0.847407	-0.120881
C257	C	0.555771	0.844116	-0.352242
H258	H	0.561079	0.832755	-0.303332
H259	H	0.574099	0.876723	-0.379164
H260	H	0.506935	0.876718	-0.379164
H261	H	0.566396	0.821421	-0.793816
C262	C	0.711707	0.510799	-0.647766
H263	H	0.706382	0.522166	-0.696678
H264	H	0.760540	0.478195	-0.620848
H265	H	0.693377	0.478189	-0.620842
H266	H	0.701102	0.533471	-0.532294
H267	H	0.936552	0.281784	-0.072044
H268	H	1.071287	0.281737	0.071929
H269	H	0.961331	0.399277	0.071966
H270	H	0.440826	0.955657	-0.350172
