data_functionalizedCrystal
_audit_creation_method	'MofGen! by Chris Wilmer'
_symmetry_space_group_name_H-M	'P1'
_symmetry_Int_Tables_number	1
_symmetry_cell_setting	triclinic
loop_
_symmetry_equiv_pos_as_xyz
  x,y,z
_cell_length_a	12.837943
_cell_length_b	12.376492
_cell_length_c	12.811487
_cell_angle_alpha	106.625370
_cell_angle_beta	89.413002
_cell_angle_gamma	77.495738
loop_
_atom_site_label
_atom_site_type_symbol
_atom_site_fract_x
_atom_site_fract_y
_atom_site_fract_z
O1	O	1.390817	-0.067329	0.259982
O2	O	1.890817	0.432671	0.759982
O3	O	1.089252	-0.068747	0.246224
O4	O	1.589252	0.431253	0.746224
O5	O	1.250975	-0.083932	0.098006
O6	O	1.750975	0.416068	0.598006
O7	O	1.229094	-0.052144	0.408200
O8	O	1.729094	0.447856	0.908200
O9	O	1.210558	0.107871	0.135007
O10	O	1.710558	0.607871	0.635007
O11	O	1.048835	0.123057	0.283225
O12	O	1.548835	0.623057	0.783225
O13	O	1.350400	0.124474	0.296983
O14	O	1.850400	0.624474	0.796983
Zn15	Zn	1.193200	0.154218	0.295979
Zn16	Zn	1.693200	0.654218	0.795979
Zn17	Zn	1.246452	-0.098491	0.247228
Zn18	Zn	1.746452	0.401509	0.747228
O19	O	1.188677	0.139659	0.445201
O20	O	1.688677	0.639659	0.945201
C21	C	1.030504	0.026678	0.260077
C22	C	1.530504	0.526678	0.760077
C23	C	0.915668	0.025254	0.246217
C24	C	1.415668	0.525254	0.746217
N25	N	1.156865	0.326685	0.329250
N26	N	1.656865	0.826685	0.829250
C27	C	0.671815	0.042346	0.412842
C28	C	1.171815	0.542346	0.912842
C29	C	0.563916	0.041010	0.399824
C30	C	1.063916	0.541010	0.899824
C31	C	0.591965	0.021254	0.207165
C32	C	1.091965	0.521254	0.707165
C33	C	0.699865	0.022590	0.220183
C34	C	1.199865	0.522590	0.720183
C35	C	0.739786	0.033135	0.323024
C36	C	1.239786	0.533135	0.823024
C37	C	0.847689	0.034463	0.336040
C38	C	1.347689	0.534463	0.836040
C39	C	0.875735	0.014715	0.143384
C40	C	1.375735	0.514715	0.643384
C41	C	0.767835	0.013379	0.130366
C42	C	1.267835	0.513379	0.630366
C43	C	1.367131	0.661943	0.136704
C44	C	1.867131	1.161943	0.636704
C45	C	1.392556	0.541217	0.113416
C46	C	1.892556	1.041217	0.613416
C47	C	1.333635	0.487578	0.167373
C48	C	1.833635	0.987578	0.667373
C49	C	1.249286	0.554677	0.244620
C50	C	1.749286	1.054677	0.744620
C51	C	1.223863	0.675415	0.267916
C52	C	1.723863	1.175415	0.767916
C53	C	1.190368	0.501050	0.298585
C54	C	1.690368	1.001050	0.798585
C55	C	1.106018	0.568149	0.375833
C56	C	1.606018	1.068149	0.875833
C57	C	1.080599	0.688875	0.399124
C58	C	1.580599	1.188875	0.899124
C59	C	1.139520	0.742514	0.345168
C60	C	1.639520	1.242514	0.845168
C61	C	1.215790	0.380312	0.275289
C62	C	1.715790	0.880312	0.775289
C63	C	1.072522	0.393784	0.406502
C64	C	1.572522	0.893784	0.906502
C65	C	1.047097	0.514510	0.429789
C66	C	1.547097	1.014510	0.929789
C67	C	1.409149	0.029047	0.283129
C68	C	1.909149	0.529047	0.783129
C69	C	1.523987	0.030463	0.296988
C70	C	2.023987	0.530463	0.796988
C71	C	1.230779	0.007870	0.076527
C72	C	1.730779	0.507870	0.576527
C73	C	1.230802	-0.004346	-0.042601
C74	C	1.730802	0.495654	0.457399
N75	N	1.282788	0.729042	0.213956
N76	N	1.782788	1.229042	0.713956
C77	C	1.186797	0.181825	-0.226126
C78	C	1.686797	0.681825	0.273874
C79	C	1.186818	0.170352	-0.338057
C80	C	1.686818	0.670352	0.161943
C81	C	1.230871	-0.038762	-0.378394
C82	C	1.730871	0.461238	0.121606
C83	C	1.230851	-0.027289	-0.266464
C84	C	1.730851	0.472711	0.233536
C85	C	1.208811	0.083007	-0.190333
C86	C	1.708811	0.583007	0.309667
C87	C	1.208783	0.094479	-0.078401
C88	C	1.708783	0.594479	0.421599
C89	C	1.252844	-0.114634	-0.118740
C90	C	1.752844	0.385366	0.381260
C91	C	1.252865	-0.126107	-0.230671
C92	C	1.752865	0.373893	0.269329
C93	C	1.208874	0.047855	0.466680
C94	C	1.708874	0.547855	0.966680
C95	C	1.208852	0.060063	0.585806
C96	C	1.708852	0.560063	1.085806
H97	H	0.880190	0.043050	0.419779
H98	H	1.380190	0.543050	0.919779
H99	H	1.461233	0.486590	0.050523
H100	H	1.961233	0.986590	0.550523
H101	H	1.270757	-0.195099	-0.089587
H102	H	1.770757	0.304901	0.410413
H103	H	0.559422	0.012765	0.123455
H104	H	1.059422	0.512765	0.623455
H105	H	1.354340	0.389277	0.148408
H106	H	1.854340	0.889277	0.648408
H107	H	0.735313	0.004808	0.046637
H108	H	1.235313	0.504808	0.546637
C109	C	0.987816	0.762681	0.484104
C110	C	1.487816	1.262681	0.984104
N111	N	0.917930	0.818270	0.548109
N112	N	1.417930	1.318270	1.048109
C113	C	0.489151	0.051144	0.498631
C114	C	0.989151	0.551144	0.998631
N115	N	0.432837	0.058779	0.573057
N116	N	0.932837	0.558779	1.073057
H117	H	0.978418	0.569157	0.492686
H118	H	1.478418	1.069157	0.992686
C119	C	0.715733	0.053937	0.525965
C120	C	1.215733	0.553937	1.025965
N121	N	0.748809	0.062669	0.611172
N122	N	1.248809	0.562669	1.111172
H123	H	1.024545	0.350113	0.450440
H124	H	1.524545	0.850113	0.950440
H125	H	1.415102	0.705625	0.092785
H126	H	1.915102	1.205625	0.592785
C127	C	1.162548	0.303150	-0.142380
C128	C	1.662548	0.803150	0.357620
N129	N	1.144284	0.394535	-0.079303
N130	N	1.644284	0.894535	0.420697
C131	C	1.308567	0.306517	0.190312
C132	C	1.808567	0.806517	0.690312
N133	N	1.378449	0.250934	0.126299
N134	N	1.878449	0.750934	0.626299
C135	C	1.184543	0.215806	0.005342
C136	C	1.684543	0.715806	0.505342
N137	N	1.166288	0.307194	0.068414
N138	N	1.666288	0.807194	0.568414
H139	H	0.931091	0.007207	0.070246
H140	H	1.431091	0.507207	0.570246
H141	H	1.168892	0.250820	-0.367193
H142	H	1.668892	0.750820	0.132807
C143	C	1.111536	0.875318	0.370757
C144	C	1.611536	1.375318	0.870757
N145	N	1.090454	0.975346	0.390021
N146	N	1.590454	1.475346	0.890021
H147	H	1.270812	-0.215907	-0.292671
H148	H	1.770812	0.284093	0.207329
C149	C	1.255119	-0.160078	-0.462156
C150	C	1.755119	0.339922	0.037844
N151	N	1.273382	-0.251455	-0.525246
N152	N	1.773382	0.248545	-0.025246
