data_functionalizedCrystal
_audit_creation_method	'MofGen! by Chris Wilmer'
_symmetry_space_group_name_H-M	'P1'
_symmetry_Int_Tables_number	1
_symmetry_cell_setting	triclinic
loop_
_symmetry_equiv_pos_as_xyz
  x,y,z
_cell_length_a	6.817900
_cell_length_b	9.109307
_cell_length_c	16.306216
_cell_angle_alpha	99.835272
_cell_angle_beta	103.467292
_cell_angle_gamma	111.764999
loop_
_atom_site_label
_atom_site_type_symbol
_atom_site_fract_x
_atom_site_fract_y
_atom_site_fract_z
V1	V	-4.082263	-0.226711	-0.279441
O2	O	-4.011578	0.009583	-0.257325
O3	O	-4.088358	-0.448269	-0.293684
O4	O	-4.032996	-0.223799	-0.393945
O5	O	-4.067323	-0.216440	-0.156370
V6	V	-4.558942	-0.198380	-0.262758
O7	O	-4.358534	-0.288859	-0.316036
O8	O	-4.732869	-0.136232	-0.226163
O9	O	-4.329641	0.023178	-0.248515
O10	O	-4.747024	-0.434674	-0.284874
O11	O	-4.691279	-0.208650	-0.385829
O12	O	-4.385003	-0.201291	-0.148254
C13	C	-3.946644	-0.502262	-0.293444
C14	C	-4.032907	-0.683391	-0.305852
C15	C	-3.876023	-0.215927	-0.421335
C16	C	-3.917385	-0.215012	-0.515049
C17	C	-4.067534	-0.211729	-0.855563
C18	C	-4.274615	-0.222538	-0.825898
C19	C	-4.231425	-0.222864	-0.728330
C20	C	-3.993045	-0.213359	-0.686630
C21	C	-3.817541	-0.051751	-0.695136
C22	C	-3.861921	-0.050745	-0.792661
C23	C	-4.017940	-0.361954	-0.840323
C24	C	-3.980160	-0.365143	-0.743237
C25	C	-3.950933	-0.214274	-0.591155
C26	C	-4.109634	-0.210803	-0.951036
C27	C	-4.134700	0.077162	-0.248754
C28	C	-4.027674	0.258290	-0.236351
C29	C	-4.205320	-0.209169	-0.120860
C30	C	-4.143194	-0.210076	-0.027145
H31	H	-4.365358	-0.339026	-0.723872
H32	H	-4.161104	-0.483393	-0.884959
C33	C	-3.752846	-0.368527	-0.706462
H34	H	-3.749796	-0.461444	-0.741918
H35	H	-3.637128	-0.270511	-0.706924
H36	H	-3.731391	-0.375740	-0.647854
C37	C	-3.811008	-0.353296	-0.865825
H38	H	-3.781864	-0.444379	-0.856466
H39	H	-3.837662	-0.356661	-0.926100
H40	H	-3.685817	-0.253500	-0.830626
H41	H	-4.250486	-0.114662	-0.690130
H42	H	-4.103361	-0.772046	-0.374871
C43	C	-3.932515	-0.621967	-0.143116
H44	H	-3.885090	-0.511849	-0.146709
H45	H	-4.044680	-0.645423	-0.115638
H46	H	-3.809022	-0.634732	-0.109484
C47	C	-4.484687	-0.378941	-0.883907
H48	H	-4.447998	-0.439049	-0.926743
H49	H	-4.539905	-0.445665	-0.848244
H50	H	-4.595756	-0.348595	-0.912540
H51	H	-3.890224	0.062890	-0.799594
C52	C	-4.328948	-0.076767	-0.839043
H53	H	-4.225975	-0.009345	-0.862528
H54	H	-4.476203	-0.117514	-0.878632
H55	H	-4.318137	-0.013487	-0.784067
H56	H	-3.705421	-0.036183	-0.810832
C57	C	-3.578576	-0.034393	-0.656739
H58	H	-3.583730	-0.125766	-0.635124
H59	H	-3.510359	-0.031424	-0.701392
H60	H	-3.494221	0.064717	-0.609994
C61	C	-3.825597	0.100557	-0.640833
H62	H	-3.935733	0.065996	-0.612938
H63	H	-3.684021	0.167729	-0.597470
H64	H	-3.862059	0.161895	-0.678600
H65	H	-4.110168	-0.484618	-0.739965
