data_functionalizedCrystal
_audit_creation_method	'MofGen! by Chris Wilmer'
_symmetry_space_group_name_H-M	'P1'
_symmetry_Int_Tables_number	1
_symmetry_cell_setting	triclinic
loop_
_symmetry_equiv_pos_as_xyz
  x,y,z
_cell_length_a	17.640280
_cell_length_b	10.685980
_cell_length_c	10.686551
_cell_angle_alpha	81.591741
_cell_angle_beta	73.631970
_cell_angle_gamma	82.258676
loop_
_atom_site_label
_atom_site_type_symbol
_atom_site_fract_x
_atom_site_fract_y
_atom_site_fract_z
Zn1	Zn	-0.177161	2.048907	-0.813659
Zn2	Zn	-0.320350	2.075418	-0.558522
Zn3	Zn	-0.199159	1.826930	-0.578537
Zn4	Zn	-0.320273	1.879518	-0.754455
O5	O	-0.254236	1.957693	-0.676293
O6	O	-0.186981	2.227306	-0.796215
O7	O	-0.313513	2.031542	-0.380779
O8	O	-0.085630	1.823273	-0.642879
O9	O	-0.292181	2.246784	-0.608767
O10	O	-0.069467	1.986358	-0.815622
O11	O	-0.224474	1.848979	-0.395483
O12	O	-0.224400	1.659023	-0.585472
O13	O	-0.292050	1.912902	-0.942707
O14	O	-0.313382	1.697660	-0.714719
O15	O	-0.186906	2.037351	-0.986204
O16	O	-0.430952	2.082534	-0.551360
O17	O	-0.430895	1.938608	-0.695311
C18	C	-0.271270	1.632997	-0.645843
C19	C	-0.278575	1.494098	-0.632841
C20	C	-0.459601	2.019190	-0.614771
C21	C	-0.547448	2.045615	-0.588505
C22	C	-0.836401	1.757483	-0.876348
C23	C	-0.918949	1.782314	-0.851626
C24	C	-0.918929	1.932293	-0.701906
C25	C	-0.836379	1.907480	-0.726620
C26	C	-0.795121	1.820072	-0.813841
C27	C	-0.795099	1.970069	-0.664113
C28	C	-0.712556	1.945252	-0.688819
C29	C	-0.671293	1.857846	-0.776034
C30	C	-0.712579	1.795255	-0.838548
C31	C	-0.836358	2.057470	-0.576885
C32	C	-0.795078	2.120059	-0.514378
C33	C	-0.712534	2.095249	-0.539091
C34	C	-0.671271	2.007843	-0.626305
C35	C	-0.671248	2.157840	-0.476577
C36	C	-0.588706	2.133023	-0.501284
C37	C	-0.588728	1.983026	-0.651012
C38	C	-0.048066	1.895992	-0.738087
C39	C	0.039791	1.869699	-0.764420
C40	C	-0.237016	1.978035	-1.012539
C41	C	-0.229677	1.986704	-1.155826
C42	C	-0.237136	2.283658	-0.706863
C43	C	-0.229848	2.422565	-0.719890
C44	C	-0.271328	1.937485	-0.341380
C45	C	-0.278431	1.928992	-0.198182
H46	H	-0.325883	1.449071	-0.548358
C47	C	-0.330161	1.726412	-1.125119
C48	C	-0.342366	1.853341	-1.099168
H49	H	-0.369638	1.679714	-1.063991
H50	H	-0.279135	1.690916	-1.117306
H51	H	-0.333446	1.722525	-1.211656
H52	H	-0.339075	1.857228	-1.012634
H53	H	-0.393405	1.888846	-1.106969
H54	H	-0.555134	1.911860	-0.722047
H55	H	-0.182323	2.042754	-1.229190
C56	C	-0.828446	2.175540	-0.294259
C57	C	-0.840427	2.216133	-0.418500
H58	H	-0.856444	2.234852	-0.235068
H59	H	-0.773384	2.169721	-0.300047
H60	H	-0.847400	2.094523	-0.263396
H61	H	-0.821468	2.297146	-0.449368
H62	H	-0.895502	2.221966	-0.412716
C63	C	-0.170865	1.613783	-0.825184
C64	C	-0.165985	1.483331	-0.833938
H65	H	-0.131441	1.651301	-0.895600
H66	H	-0.162537	1.626361	-0.744073
H67	H	-0.221926	1.652158	-0.829966
H68	H	-0.114925	1.444954	-0.829146
H69	H	-0.174307	1.470744	-0.915070
H70	H	-0.604083	1.837632	-0.796138
H71	H	-0.678984	1.724089	-0.909582
H72	H	-0.802807	1.686316	-0.947383
C73	C	-0.910675	1.631565	-1.002129
C74	C	-0.964324	1.713519	-0.920355
H75	H	-0.938689	1.589103	-1.044562
H76	H	-0.883901	1.570736	-0.951069
H77	H	-0.873060	1.679285	-1.066231
H78	H	-1.001936	1.665798	-0.856246
H79	H	-0.991111	1.774356	-0.971418
C80	C	-1.045455	2.036911	-0.597519
C81	C	-0.964285	2.028353	-0.606017
H82	H	-1.073452	2.096218	-0.538322
H83	H	-1.064390	1.955896	-0.566657
H84	H	-1.053568	2.064447	-0.681817
H85	H	-0.956171	2.000808	-0.521721
H86	H	-0.945343	2.109386	-0.636874
H87	H	-0.704853	2.228997	-0.405552
C88	C	-0.596968	2.283783	-0.350807
C89	C	-0.543325	2.201819	-0.432576
H90	H	-0.568949	2.326255	-0.308392
H91	H	-0.634579	2.236080	-0.286704
H92	H	-0.623745	2.344616	-0.401879
H93	H	-0.516551	2.140980	-0.381503
H94	H	-0.505699	2.249526	-0.496688
H95	H	-0.903569	2.077676	-0.556775
