data_functionalizedCrystal
_audit_creation_method	'MofGen! by Chris Wilmer'
_symmetry_space_group_name_H-M	'P1'
_symmetry_Int_Tables_number	1
_symmetry_cell_setting	triclinic
loop_
_symmetry_equiv_pos_as_xyz
  x,y,z
_cell_length_a	12.837943
_cell_length_b	14.853567
_cell_length_c	11.892095
_cell_angle_alpha	93.898435
_cell_angle_beta	85.689438
_cell_angle_gamma	89.231935
loop_
_atom_site_label
_atom_site_type_symbol
_atom_site_fract_x
_atom_site_fract_y
_atom_site_fract_z
O1	O	1.382409	0.229205	-0.093964
O2	O	1.080587	0.217625	-0.093972
O3	O	1.239561	0.092869	-0.093971
O4	O	1.223436	0.353961	-0.093965
O5	O	1.226306	0.103253	0.094036
O6	O	1.067332	0.228009	0.094035
O7	O	1.369154	0.239589	0.094043
Zn8	Zn	1.216139	0.235448	0.123889
Zn9	Zn	1.233603	0.221766	-0.123818
O10	O	1.210181	0.364345	0.094042
C11	C	1.035334	0.218906	0.000031
C12	C	0.920240	0.207240	0.000027
C13	C	0.679482	0.347487	0.000047
C14	C	0.571341	0.336530	0.000045
C15	C	0.595813	0.174369	0.000029
C16	C	0.703955	0.185327	0.000031
C17	C	0.745785	0.271888	0.000038
C18	C	0.853929	0.282844	0.000032
C19	C	0.878399	0.120685	0.000024
C20	C	0.770257	0.109727	0.000022
C21	C	1.232203	0.064410	0.000029
C22	C	1.230014	-0.035860	0.000019
C23	C	1.126324	-0.457187	0.000038
C24	C	1.315188	-0.462449	0.000043
C25	C	1.317247	-0.368241	0.000036
C26	C	1.223843	-0.318502	0.000032
C27	C	1.128380	-0.362970	0.000035
C28	C	1.412707	-0.323765	0.000045
C29	C	1.414770	-0.229551	0.000040
C30	C	1.321366	-0.179810	0.000028
C31	C	1.225899	-0.224285	0.000029
C32	C	1.132495	-0.174546	0.000025
C33	C	1.037028	-0.219019	0.000018
C34	C	1.034976	-0.313230	0.000023
C35	C	1.323418	-0.085599	0.000023
C36	C	1.134551	-0.080329	0.000022
C37	C	1.414408	0.238308	0.000038
C38	C	1.529502	0.249974	0.000034
C39	C	1.217539	0.392804	0.000040
C40	C	1.219728	0.493073	0.000042
N41	N	1.204228	0.244785	0.292943
N42	N	1.245522	0.212422	-0.292873
C43	C	1.328405	0.147396	0.529592
C44	C	1.320087	0.153930	0.647934
C45	C	1.179269	0.264382	0.647971
C46	C	1.187587	0.257848	0.529629
C47	C	1.262159	0.199354	0.470444
C48	C	1.270481	0.192826	0.352100
C49	C	1.129659	0.303272	0.352140
C50	C	1.121341	0.309806	0.470481
H51	H	0.517360	0.398091	0.000055
H52	H	0.957252	-0.349449	0.000019
C53	C	1.519778	-0.180639	0.000032
H54	H	1.575110	-0.223757	0.000026
H55	H	1.519891	-0.140367	0.065587
H56	H	1.529124	-0.147628	-0.065546
C57	C	1.039323	0.374147	0.535591
H58	H	1.043860	0.370603	0.614543
H59	H	0.971480	0.357317	0.516211
H60	H	1.052046	0.434228	0.516198
H61	H	0.561729	0.103900	0.000116
H62	H	0.736183	0.039252	0.000029
C63	C	0.899948	0.378054	0.000041
H64	H	0.973850	0.373755	0.000030
H65	H	0.872576	0.413191	0.065606
H66	H	0.881817	0.405952	-0.065526
C67	C	1.392955	0.096779	0.712998
H68	H	1.377318	0.109041	0.791956
H69	H	1.463524	0.111472	0.693590
H70	H	1.382963	0.034557	0.693602
C71	C	1.352508	0.128493	0.286991
H72	H	1.347986	0.132049	0.208039
H73	H	1.339806	0.068413	0.306381
H74	H	1.420350	0.145341	0.306377
C75	C	0.951334	0.037522	0.000013
H76	H	1.021731	0.056443	0.000020
H77	H	0.943256	-0.001205	-0.065552
H78	H	0.934021	0.006031	0.065581
C79	C	1.410430	0.083064	0.464479
H80	H	1.405901	0.086620	0.385528
H81	H	1.397731	0.022985	0.483871
H82	H	1.478273	0.099915	0.483858
H83	H	1.058490	-0.039837	0.000014
H84	H	1.118548	0.312000	0.696175
C85	C	1.428414	-0.036678	0.000034
H86	H	1.416263	0.026555	0.000037
H87	H	1.471507	-0.056824	-0.065521
H88	H	1.462246	-0.049573	0.065612
H89	H	0.713541	0.417969	0.000051
C90	C	0.934291	-0.164300	0.000012
H91	H	0.949195	-0.101823	0.000007
H92	H	0.890524	-0.175033	0.065569
H93	H	0.899781	-0.182275	-0.065564
C94	C	1.021318	-0.506102	0.000036
H95	H	1.033465	-0.569335	0.000044
H96	H	0.987475	-0.493200	-0.065526
H97	H	0.978237	-0.485956	0.065607
C98	C	1.417923	-0.517159	0.000050
H99	H	1.403026	-0.579637	0.000047
H100	H	1.452442	-0.499175	0.065609
H101	H	1.461679	-0.506429	-0.065524
C102	C	1.515440	-0.378476	0.000057
H103	H	1.500542	-0.440955	0.000046
H104	H	1.549952	-0.360498	0.065623
H105	H	1.559204	-0.367743	-0.065510
C106	C	1.056797	0.360439	0.287075
H107	H	1.072429	0.348172	0.208117
H108	H	1.066790	0.422655	0.306481
H109	H	0.986220	0.345747	0.306473
