data_functionalizedCrystal
_audit_creation_method	'MofGen! by Chris Wilmer'
_symmetry_space_group_name_H-M	'P1'
_symmetry_Int_Tables_number	1
_symmetry_cell_setting	triclinic
loop_
_symmetry_equiv_pos_as_xyz
  x,y,z
_cell_length_a	14.908571
_cell_length_b	17.637651
_cell_length_c	14.908308
_cell_angle_alpha	98.643595
_cell_angle_beta	89.824947
_cell_angle_gamma	97.315537
loop_
_atom_site_label
_atom_site_type_symbol
_atom_site_fract_x
_atom_site_fract_y
_atom_site_fract_z
Zn1	Zn	1.257978	-0.403217	0.489413
Zn2	Zn	1.240094	-0.525429	0.309299
Zn3	Zn	1.119507	-0.388376	0.334024
Zn4	Zn	1.081320	-0.524511	0.451174
O5	O	1.174725	-0.460383	0.395977
O6	O	1.380004	-0.426024	0.471176
O7	O	1.232594	-0.501422	0.188173
O8	O	1.161342	-0.282226	0.380987
O9	O	1.366864	-0.515812	0.338847
O10	O	1.263076	-0.293130	0.495151
O11	O	1.144000	-0.400730	0.206338
O12	O	0.990044	-0.399840	0.343908
O13	O	1.096258	-0.514248	0.580653
O14	O	0.961988	-0.499858	0.429978
O15	O	1.226048	-0.425134	0.608746
O16	O	1.195566	-0.633426	0.301768
O17	O	1.078915	-0.632752	0.406003
C18	C	0.943761	-0.448139	0.385477
C19	C	0.844948	-0.442921	0.381002
C20	C	1.131179	-0.661125	0.347074
C21	C	1.112629	-0.747009	0.326186
C22	C	0.630079	-0.537409	0.462026
C23	C	0.537235	-0.532508	0.457824
C24	C	0.566414	-0.428216	0.368400
C25	C	0.659258	-0.433116	0.372603
C26	C	0.691087	-0.487716	0.419416
C27	C	0.783932	-0.492620	0.423613
C28	C	0.813110	-0.388324	0.334195
C29	C	0.720266	-0.383423	0.329992
C30	C	1.316205	-1.057562	0.554965
C31	C	1.298747	-1.138260	0.535321
C32	C	1.192895	-1.127013	0.416336
C33	C	1.210347	-1.046312	0.435967
C34	C	1.272002	-1.011592	0.505283
C35	C	1.166144	-1.000342	0.386285
C36	C	1.183592	-0.919648	0.405918
C37	C	1.245242	-0.884923	0.475233
C38	C	1.289450	-0.930898	0.524916
C39	C	1.104485	-1.035063	0.316974
C40	C	1.060282	-0.989094	0.267292
C41	C	1.077734	-0.908398	0.286920
C42	C	1.139384	-0.873673	0.356235
C43	C	1.033526	-0.862423	0.237237
C44	C	1.050974	-0.781728	0.256870
C45	C	1.156832	-0.792978	0.375868
C46	C	1.406591	-0.472676	0.406519
C47	C	1.505398	-0.477914	0.411011
C48	C	1.158888	-0.471244	0.627859
C49	C	1.152139	-0.475872	0.726672
C50	C	1.218464	-0.258860	0.445092
C51	C	1.237103	-0.172983	0.466022
C52	C	1.190563	-0.449512	0.165014
C53	C	1.197532	-0.444676	0.066262
C54	C	1.274609	-0.391756	0.941615
C55	C	1.268271	-0.396102	1.034460
C56	C	1.133123	-0.488905	1.005211
C57	C	1.139461	-0.484559	0.912366
C58	C	1.210207	-0.435984	0.880571
C59	C	1.216548	-0.431642	0.787723
C60	C	1.081396	-0.524441	0.758477
C61	C	1.075059	-0.528787	0.851322
H62	H	0.809845	-0.537078	0.461729
O63	O	1.350917	-0.339377	0.907311
H64	H	1.322553	-0.295982	0.872772
H65	H	0.540482	-0.383759	0.330294
H66	H	1.090272	-1.100770	0.300999
H67	H	1.142693	-1.155292	0.359901
H68	H	0.983320	-0.890703	0.180806
O69	O	0.993799	-1.026541	0.192519
H70	H	0.989099	-1.090376	0.187204
H71	H	0.655993	-0.581870	0.500138
O72	O	0.998753	-0.581172	0.885620
H73	H	1.027120	-0.624571	0.920147
O74	O	1.223342	-0.755522	0.450622
H75	H	1.188381	-0.718770	0.502948
H76	H	1.320713	-0.360085	1.084160
O77	O	0.471420	-0.586170	0.503685
H78	H	0.509150	-0.624983	0.536903
O79	O	1.355956	-0.893448	0.599677
H80	H	1.411883	-0.857208	0.570923
H81	H	1.014978	-0.744299	0.216415
O82	O	1.346432	-1.187836	0.588918
H83	H	1.295566	-1.224610	0.623364
O84	O	1.292851	-0.379251	0.753432
H85	H	1.333471	-0.414247	0.704770
H86	H	0.694338	-0.338968	0.291881
H87	H	0.862793	-0.347861	0.299496
O88	O	1.264073	-0.797888	0.496407
H89	H	1.200380	-0.773924	0.516431
H90	H	1.366418	-1.029293	0.611403
O91	O	1.056811	-0.541281	1.039513
H92	H	1.063225	-0.536867	1.114330
O93	O	1.011923	-0.572147	0.692639
H94	H	1.028210	-0.560963	0.622735
