data_functionalizedCrystal
_audit_creation_method	'MofGen! by Chris Wilmer'
_symmetry_space_group_name_H-M	'P1'
_symmetry_Int_Tables_number	1
_symmetry_cell_setting	triclinic
loop_
_symmetry_equiv_pos_as_xyz
  x,y,z
_cell_length_a	19.805407
_cell_length_b	29.839131
_cell_length_c	19.805399
_cell_angle_alpha	89.970435
_cell_angle_beta	89.980427
_cell_angle_gamma	90.041420
loop_
_atom_site_label
_atom_site_type_symbol
_atom_site_fract_x
_atom_site_fract_y
_atom_site_fract_z
Zn1	Zn	1.034665	-0.178864	-0.382710
Zn2	Zn	1.534665	0.321136	0.117290
Zn3	Zn	1.034550	-0.253991	-0.269518
Zn4	Zn	1.534550	0.246009	0.230482
Zn5	Zn	0.921480	-0.178876	-0.269535
Zn6	Zn	1.421480	0.321124	0.230465
Zn7	Zn	0.921414	-0.253967	-0.382665
Zn8	Zn	1.421414	0.246033	0.117335
O9	O	0.978027	-0.216425	-0.326107
O10	O	1.478027	0.283575	0.173893
O11	O	1.129366	-0.188834	-0.367707
O12	O	1.629366	0.311166	0.132293
O13	O	1.019531	-0.244042	-0.174804
O14	O	1.519531	0.255958	0.325196
O15	O	0.936570	-0.116007	-0.284574
O16	O	1.436570	0.383993	0.215426
O17	O	1.129282	-0.244030	-0.284545
O18	O	1.629282	0.255970	0.215455
O19	O	1.019727	-0.115998	-0.367723
O20	O	1.519727	0.384002	0.132277
O21	O	0.936458	-0.188856	-0.174816
O22	O	1.436458	0.311144	0.325184
O23	O	0.826754	-0.188832	-0.284530
O24	O	1.326754	0.311168	0.215470
O25	O	0.936457	-0.243990	-0.477388
O26	O	1.436457	0.256010	0.022612
O27	O	0.826706	-0.244002	-0.367646
O28	O	1.326706	0.255998	0.132354
O29	O	1.019662	-0.188811	-0.477421
O30	O	1.519662	0.311189	0.022579
O31	O	1.019467	-0.316855	-0.284501
O32	O	1.519467	0.183145	0.215499
O33	O	0.936346	-0.316838	-0.367630
O34	O	1.436346	0.183162	0.132370
C35	C	0.802171	-0.216416	-0.326085
C36	C	1.302171	0.283584	0.173915
C37	C	0.726939	-0.216423	-0.326092
C38	C	1.226939	0.283577	0.173908
C39	C	0.977905	-0.333147	-0.326073
C40	C	1.477905	0.166853	0.173927
C41	C	0.977915	-0.383082	-0.326082
C42	C	1.477915	0.116918	0.173918
C43	C	0.691587	-0.245193	-0.369300
C44	C	1.191587	0.254807	0.130700
C45	C	0.620899	-0.245194	-0.369310
C46	C	1.120899	0.254806	0.130690
C47	C	0.585564	-0.216427	-0.326107
C48	C	1.085564	0.283573	0.173893
C49	C	0.620920	-0.187654	-0.282897
C50	C	1.120920	0.312346	0.217103
C51	C	0.691607	-0.187651	-0.282891
C52	C	1.191607	0.312349	0.217109
C53	C	0.335847	-0.187664	-0.282919
C54	C	0.835847	0.312336	0.217081
C55	C	0.265155	-0.187669	-0.282927
C56	C	0.765155	0.312331	0.217073
C57	C	0.265139	-0.245207	-0.369338
C58	C	0.765139	0.254793	0.130662
C59	C	0.335826	-0.245204	-0.369332
C60	C	0.835826	0.254796	0.130668
C61	C	0.371176	-0.216429	-0.326125
C62	C	0.871176	0.283571	0.173875
C63	C	0.447825	-0.216428	-0.326116
C64	C	0.947825	0.283572	0.173884
C65	C	0.508916	-0.216430	-0.326112
C66	C	1.008916	0.283570	0.173888
C67	C	1.021387	-0.692722	-0.282885
C68	C	1.521387	-0.192722	0.217115
C69	C	1.021471	-0.880395	-0.282912
C70	C	1.521471	-0.380395	0.217088
O71	O	1.058335	-0.904656	-0.246159
O72	O	1.558335	-0.404656	0.253841
N73	N	0.978168	-0.903867	-0.326158
N74	N	1.478168	-0.403867	0.173842
C75	C	0.934844	-0.880418	-0.369404
C76	C	1.434844	-0.380418	0.130596
O77	O	0.898019	-0.904688	-0.406194
O78	O	1.398019	-0.404688	0.093806
C79	C	0.934764	-0.692746	-0.369381
C80	C	1.434764	-0.192746	0.130619
C81	C	0.978065	-0.669276	-0.326127
C82	C	1.478065	-0.169276	0.173873
C83	C	1.064685	-0.669252	-0.239635
C84	C	1.564685	-0.169252	0.260365
C85	C	1.064661	-0.622336	-0.239626
C86	C	1.564661	-0.122336	0.260374
C87	C	1.021339	-0.598891	-0.282868
C88	C	1.521339	-0.098891	0.217132
C89	C	0.978041	-0.622360	-0.326118
C90	C	1.478041	-0.122360	0.173882
C91	C	0.891444	-0.669297	-0.412630
C92	C	1.391444	-0.169297	0.087370
C93	C	0.891429	-0.622376	-0.412621
C94	C	1.391429	-0.122376	0.087379
C95	C	0.934730	-0.598907	-0.369367
C96	C	1.434730	-0.098907	0.130633
C97	C	0.934695	-0.551999	-0.369351
C98	C	1.434695	-0.051999	0.130649
N99	N	0.977998	-0.528527	-0.326104
N100	N	1.477998	-0.028527	0.173896
C101	C	1.021320	-0.551973	-0.282863
C102	C	1.521320	-0.051973	0.217137
C103	C	0.934888	-0.978948	-0.369412
C104	C	1.434888	-0.478948	0.130588
C105	C	0.934907	-1.025866	-0.369418
C106	C	1.434907	-0.525866	0.130582
C107	C	1.021534	-1.025840	-0.282926
C108	C	1.521534	-0.525840	0.217074
C109	C	1.021512	-0.978921	-0.282918
C110	C	1.521512	-0.478921	0.217082
C111	C	0.978191	-0.955476	-0.326166
C112	C	1.478191	-0.455476	0.173834
C113	C	1.021266	-0.453447	-0.282847
C114	C	1.521266	0.046553	0.217153
C115	C	1.021237	-0.406527	-0.282840
C116	C	1.521237	0.093473	0.217160
C117	C	0.934611	-0.406558	-0.369334
C118	C	1.434611	0.093442	0.130666
C119	C	0.934638	-0.453473	-0.369339
C120	C	1.434638	0.046527	0.130661
C121	C	0.977971	-0.476917	-0.326093
C122	C	1.477971	0.023083	0.173907
O123	O	0.897855	-0.527708	-0.406090
O124	O	1.397855	-0.027708	0.093910
O125	O	1.058150	-0.527694	-0.246090
O126	O	1.558150	-0.027694	0.253910
C127	C	1.021411	-0.739637	-0.282894
C128	C	1.521411	-0.239637	0.217106
C129	C	0.978113	-0.763107	-0.326144
C130	C	1.478113	-0.263107	0.173856
C131	C	0.934791	-0.739661	-0.369386
C132	C	1.434791	-0.239661	0.130614
C133	C	0.978132	-0.810025	-0.326149
C134	C	1.478132	-0.310025	0.173851
C135	C	1.021454	-0.833470	-0.282908
C136	C	1.521454	-0.333470	0.217092
C137	C	1.064757	-0.809998	-0.239661
C138	C	1.564757	-0.309998	0.260339
C139	C	1.064733	-0.763083	-0.239653
C140	C	1.564733	-0.263083	0.260347
C141	C	0.891488	-0.763133	-0.412632
C142	C	1.391488	-0.263133	0.087368
C143	C	0.891515	-0.810049	-0.412637
C144	C	1.391515	-0.310049	0.087363
C145	C	0.934837	-0.833494	-0.369395
C146	C	1.434837	-0.333494	0.130605
C147	C	1.154570	-0.216434	-0.326129
C148	C	1.654570	0.283566	0.173871
C149	C	1.229802	-0.216437	-0.326139
C150	C	1.729802	0.283563	0.173861
C151	C	0.978065	-0.216396	-0.502650
C152	C	1.478065	0.283604	-0.002650
C153	C	0.978081	-0.216384	-0.577882
C154	C	1.478081	0.283616	-0.077882
C155	C	0.978168	-0.099246	-0.326156
C156	C	1.478168	0.400754	0.173844
C157	C	0.978228	-0.049312	-0.326176
C158	C	1.478228	0.450688	0.173824
C159	C	1.021407	-0.187652	-0.613244
C160	C	1.521407	0.312348	-0.113244
C161	C	1.021414	-0.187638	-0.683933
C162	C	1.521414	0.312362	-0.183933
C163	C	0.978098	-0.216361	-0.719258
C164	C	1.478098	0.283639	-0.219258
C165	C	0.934767	-0.245095	-0.683890
C166	C	1.434767	0.254905	-0.183890
C167	C	0.934757	-0.245105	-0.613203
C168	C	1.434757	0.254895	-0.113203
C169	C	0.934806	-0.245053	-0.968963
C170	C	1.434806	0.254947	-0.468963
C171	C	0.934820	-0.245041	-1.039656
C172	C	1.434820	0.254959	-0.539656
C173	C	1.021462	-0.187586	-1.039694
C174	C	1.521462	0.312414	-0.539694
C175	C	1.021453	-0.187597	-0.969006
C176	C	1.521453	0.312403	-0.469006
C177	C	0.978120	-0.216329	-0.933645
C178	C	1.478120	0.283671	-0.433645
C179	C	0.978112	-0.216342	-0.856997
C180	C	1.478112	0.283658	-0.356997
C181	C	0.978109	-0.216350	-0.795905
C182	C	1.478109	0.283650	-0.295905
C183	C	0.978028	-0.216420	-0.150251
C184	C	1.478028	0.283580	0.349749
C185	C	0.978143	-0.216306	-0.075019
C186	C	1.478143	0.283694	0.424981
H187	H	0.592119	-0.268622	-0.404494
H188	H	1.092119	0.231378	0.095506
C189	C	0.582643	-0.156446	-0.235881
C190	C	1.082643	0.343554	0.264119
C191	C	0.599812	-0.166160	-0.168885
C192	C	1.099812	0.333840	0.331115
C193	C	0.564572	-0.137417	-0.125555
C194	C	1.064572	0.362583	0.374445
H195	H	0.535471	-0.160540	-0.241981
H196	H	1.035471	0.339460	0.258019
H197	H	0.594274	-0.126261	-0.245830
H198	H	1.094274	0.373739	0.254170
H199	H	0.588176	-0.196337	-0.158940
H200	H	1.088176	0.303663	0.341060
H201	H	0.646978	-0.162063	-0.162765
H202	H	1.146978	0.337937	0.337235
H203	H	0.576204	-0.107232	-0.135504
H204	H	1.076204	0.392768	0.364496
H205	H	0.517402	-0.141514	-0.131660
H206	H	1.017402	0.358486	0.368340
H207	H	0.576221	-0.144001	-0.080094
H208	H	1.076221	0.355999	0.419906
H209	H	1.100029	-0.829096	-0.204451
H210	H	1.600029	-0.329096	0.295549
C211	C	0.887868	-0.276277	-0.930499
C212	C	1.387868	0.223723	-0.430499
C213	C	0.926139	-0.305077	-0.889896
C214	C	1.426139	0.194923	-0.389896
C215	C	0.882919	-0.333844	-0.854447
C216	C	1.382919	0.166156	-0.354447
H217	H	0.862063	-0.293421	-0.961591
H218	H	1.362063	0.206579	-0.461591
H219	H	0.858399	-0.259108	-0.902889
H220	H	1.358399	0.240892	-0.402889
H221	H	0.955597	-0.322244	-0.917503
H222	H	1.455597	0.177756	-0.417503
H223	H	0.951943	-0.287944	-0.858791
H224	H	1.451943	0.212056	-0.358791
H225	H	0.853450	-0.316675	-0.826838
H226	H	1.353450	0.183325	-0.326838
H227	H	0.857116	-0.350985	-0.885544
H228	H	1.357116	0.149015	-0.385544
H229	H	0.908880	-0.353385	-0.826889
H230	H	1.408880	0.146615	-0.326889
H231	H	0.899544	-0.268431	-1.068415
H232	H	1.399544	0.231569	-0.568415
H233	H	0.720390	-0.164221	-0.247710
H234	H	1.220390	0.335779	0.252290
C235	C	1.068207	-0.478957	-0.235865
C236	C	1.568207	0.021043	0.264135
C237	C	1.029933	-0.505950	-0.192459
C238	C	1.529933	-0.005950	0.307541
C239	C	1.073151	-0.529463	-0.149179
C240	C	1.573151	-0.029463	0.350821
H241	H	1.094008	-0.458310	-0.210043
H242	H	1.594008	0.041690	0.289957
H243	H	1.097679	-0.497252	-0.261775
H244	H	1.597679	0.002748	0.238225
H245	H	1.000472	-0.487658	-0.166551
H246	H	1.500472	0.012342	0.333449
H247	H	1.004133	-0.526606	-0.218262
H248	H	1.504133	-0.026606	0.281738
H249	H	1.102623	-0.547758	-0.175089
H250	H	1.602623	-0.047758	0.324911
H251	H	1.098950	-0.508813	-0.123362
H252	H	1.598950	-0.008813	0.376638
H253	H	1.047189	-0.547784	-0.119727
H254	H	1.547189	-0.047784	0.380273
C255	C	1.068409	-0.156513	-0.574773
C256	C	1.568409	0.343487	-0.074773
C257	C	1.059141	-0.162678	-0.505299
C258	C	1.559141	0.337322	-0.005299
C259	C	1.102431	-0.134003	-0.469840
C260	C	1.602431	0.365997	0.030160
H261	H	1.058580	-0.126308	-0.586290
H262	H	1.558580	0.373692	-0.086290
H263	H	1.113895	-0.163091	-0.586324
H264	H	1.613895	0.336909	-0.086324
H265	H	1.013665	-0.156097	-0.493752
H266	H	1.513665	0.343903	0.006248
H267	H	1.068974	-0.192877	-0.493762
H268	H	1.568974	0.307123	0.006238
H269	H	1.147918	-0.140581	-0.481392
H270	H	1.647918	0.359419	0.018608
H271	H	1.092599	-0.103800	-0.481362
H272	H	1.592599	0.396200	0.018638
H273	H	1.096154	-0.138185	-0.422699
H274	H	1.596154	0.361815	0.077301
H275	H	0.899470	-0.268498	-0.584411
H276	H	1.399470	0.231502	-0.084411
C277	C	1.068507	-0.156362	-0.930777
C278	C	1.568507	0.343638	-0.430777
C279	C	1.106439	-0.131187	-0.976876
C280	C	1.606439	0.368813	-0.476876
C281	C	1.149785	-0.102403	-0.941685
C282	C	1.649785	0.397597	-0.441685
H283	H	1.098033	-0.173502	-0.903197
H284	H	1.598033	0.326498	-0.403197
H285	H	1.042647	-0.136767	-0.903221
H286	H	1.542647	0.363233	-0.403221
H287	H	1.132297	-0.150779	-1.004421
H288	H	1.632297	0.349221	-0.504421
H289	H	1.076931	-0.114037	-1.004458
H290	H	1.576931	0.385963	-0.504458
H291	H	1.123925	-0.082808	-0.914129
H292	H	1.623925	0.417192	-0.414129
H293	H	1.179307	-0.119547	-0.914106
H294	H	1.679307	0.380453	-0.414106
H295	H	1.175523	-0.085315	-0.972958
H296	H	1.675523	0.414685	-0.472958
C297	C	0.226667	-0.156487	-0.236038
C298	C	0.726667	0.343513	0.263962
C299	C	0.157196	-0.162663	-0.245274
C300	C	0.657196	0.337337	0.254726
C301	C	0.121720	-0.133955	-0.202083
C302	C	0.621720	0.366045	0.297917
H303	H	0.238195	-0.126290	-0.245977
H304	H	0.738195	0.373710	0.254023
H305	H	0.238191	-0.163029	-0.190528
H306	H	0.738191	0.336971	0.309472
H307	H	0.145677	-0.156118	-0.290773
H308	H	0.645677	0.343882	0.209227
H309	H	0.145648	-0.192854	-0.235329
H310	H	0.645648	0.307146	0.264671
H311	H	0.133244	-0.140497	-0.156574
H312	H	0.633244	0.359503	0.343426
H313	H	0.133254	-0.103760	-0.212027
H314	H	0.633254	0.396240	0.287973
H315	H	0.074581	-0.138144	-0.208340
H316	H	0.574581	0.361856	0.291660
H317	H	1.056744	-0.164189	-1.068493
H318	H	1.556744	0.335811	-0.568493
H319	H	1.056696	-0.164242	-0.712722
H320	H	1.556696	0.335758	-0.212722
C321	C	0.887777	-0.276353	-0.722155
C322	C	1.387777	0.223647	-0.222155
C323	C	0.902446	-0.320805	-0.704929
C324	C	1.402446	0.179195	-0.204929
C325	C	0.859167	-0.349613	-0.740156
C326	C	1.359167	0.150387	-0.240156
H327	H	0.893946	-0.272293	-0.769328
H328	H	1.393946	0.227707	-0.269328
H329	H	0.842294	-0.269804	-0.710551
H330	H	1.342294	0.230196	-0.210551
H331	H	0.947918	-0.327351	-0.716537
H332	H	1.447918	0.172649	-0.216537
H333	H	0.896273	-0.324878	-0.657761
H334	H	1.396273	0.175122	-0.157761
H335	H	0.813685	-0.343064	-0.728553
H336	H	1.313685	0.156936	-0.228553
H337	H	0.865340	-0.345550	-0.787328
H338	H	1.365340	0.154450	-0.287328
H339	H	0.869111	-0.379776	-0.728469
H340	H	1.369111	0.120224	-0.228469
H341	H	1.056497	-0.387420	-0.247615
H342	H	1.556497	0.112580	0.252385
H343	H	0.720352	-0.268620	-0.404479
H344	H	1.220352	0.231380	0.095521
H345	H	0.364592	-0.268631	-0.404510
H346	H	0.864592	0.231369	0.095490
C347	C	0.374100	-0.156406	-0.235936
C348	C	0.874100	0.343594	0.264064
C349	C	0.328022	-0.131224	-0.198091
C350	C	0.828022	0.368776	0.301909
C351	C	0.363238	-0.102427	-0.154796
C352	C	0.863238	0.397573	0.345204
H353	H	0.401704	-0.136813	-0.261807
H354	H	0.901704	0.363187	0.238193
H355	H	0.401634	-0.173551	-0.206356
H356	H	0.901634	0.326449	0.293644
H357	H	0.300499	-0.114080	-0.227667
H358	H	0.800499	0.385920	0.272333
H359	H	0.300416	-0.150805	-0.172206
H360	H	0.800416	0.349195	0.327794
H361	H	0.390773	-0.119571	-0.125217
H362	H	0.890773	0.380429	0.374783
H363	H	0.390842	-0.082836	-0.180673
H364	H	0.890842	0.417164	0.319327
H365	H	0.331981	-0.085340	-0.129109
H366	H	0.831981	0.414660	0.370891
H367	H	0.236348	-0.268634	-0.404522
H368	H	0.736348	0.231366	0.095478
H369	H	1.099922	-0.603230	-0.204407
H370	H	1.599922	-0.103230	0.295593
H371	H	1.099967	-0.688336	-0.204423
H372	H	1.599967	-0.188336	0.295577
H373	H	1.056771	-0.959815	-0.247697
H374	H	1.556771	-0.459815	0.252303
C375	C	1.068600	-1.051219	-0.235907
C376	C	1.568600	-0.551219	0.264093
C377	C	1.106516	-1.020628	-0.198018
C378	C	1.606516	-0.520628	0.301982
C379	C	1.149874	-1.043993	-0.154697
C380	C	1.649874	-0.543993	0.345303
H381	H	1.098137	-1.069493	-0.261761
H382	H	1.598137	-0.569493	0.238239
H383	H	1.042751	-1.069542	-0.206356
H384	H	1.542751	-0.569542	0.293644
H385	H	1.132363	-1.002313	-0.227565
H386	H	1.632363	-0.502313	0.272435
H387	H	1.076997	-1.002353	-0.172150
H388	H	1.576997	-0.502353	0.327850
H389	H	1.124025	-1.062316	-0.125147
H390	H	1.624025	-0.562316	0.374853
H391	H	1.179406	-1.062266	-0.180557
H392	H	1.679406	-0.562266	0.319443
H393	H	1.175600	-1.023241	-0.128980
H394	H	1.675600	-0.523241	0.371020
H395	H	0.899381	-0.472583	-0.404562
H396	H	1.399381	0.027417	0.095438
H397	H	0.899640	-1.044971	-0.404633
H398	H	1.399640	-0.544971	0.095367
H399	H	0.899609	-0.959863	-0.404631
H400	H	1.399609	-0.459863	0.095369
H401	H	0.856180	-0.688398	-0.447849
H402	H	1.356180	-0.188398	0.052151
C403	C	0.844321	-0.597004	-0.459606
C404	C	1.344321	-0.097004	0.040394
C405	C	0.806398	-0.627604	-0.497473
C406	C	1.306398	-0.127604	0.002527
C407	C	0.762990	-0.604248	-0.540755
C408	C	1.262990	-0.104248	-0.040755
H409	H	0.870113	-0.578670	-0.489178
H410	H	1.370113	-0.078670	0.010822
H411	H	0.814796	-0.578741	-0.433704
H412	H	1.314796	-0.078741	0.066296
H413	H	0.835920	-0.645858	-0.523373
H414	H	1.335920	-0.145858	-0.023373
H415	H	0.780592	-0.645938	-0.467919
H416	H	1.280592	-0.145938	0.032081
H417	H	0.733465	-0.585986	-0.514853
H418	H	1.233465	-0.085986	-0.014853
H419	H	0.788788	-0.585915	-0.570322
H420	H	1.288788	-0.085915	-0.070322
H421	H	0.737250	-0.625006	-0.566448
H422	H	1.237250	-0.125006	-0.066448
H423	H	0.899337	-0.387461	-0.404539
H424	H	1.399337	0.112539	0.095461
H425	H	1.099993	-0.743977	-0.204431
H426	H	1.599993	-0.243977	0.295569
H427	H	0.856211	-0.744047	-0.447845
H428	H	1.356211	-0.244047	0.052155
C429	C	0.844472	-0.835446	-0.459676
C430	C	1.344472	-0.335446	0.040324
C431	C	0.806545	-0.804865	-0.497554
C432	C	1.306545	-0.304865	0.002446
C433	C	0.763216	-0.828243	-0.540903
C434	C	1.263216	-0.328243	-0.040903
H435	H	0.814942	-0.853784	-0.433843
H436	H	1.314942	-0.353784	0.066157
H437	H	0.870343	-0.853706	-0.489233
H438	H	1.370343	-0.353706	0.010767
H439	H	0.780676	-0.786613	-0.468001
H440	H	1.280676	-0.286613	0.031999
H441	H	0.836058	-0.786526	-0.523401
H442	H	1.336058	-0.286526	-0.023401
H443	H	0.789087	-0.846503	-0.570459
H444	H	1.289087	-0.346503	-0.070459
H445	H	0.733690	-0.846580	-0.515064
H446	H	1.233690	-0.346580	-0.015064
H447	H	0.737481	-0.807497	-0.566612
H448	H	1.237481	-0.307497	-0.066612
