data_functionalizedCrystal
_audit_creation_method	'MofGen! by Chris Wilmer'
_symmetry_space_group_name_H-M	'P1'
_symmetry_Int_Tables_number	1
_symmetry_cell_setting	triclinic
loop_
_symmetry_equiv_pos_as_xyz
  x,y,z
_cell_length_a	14.519731
_cell_length_b	13.596369
_cell_length_c	11.792241
_cell_angle_alpha	90.006129
_cell_angle_beta	83.941134
_cell_angle_gamma	90.005416
loop_
_atom_site_label
_atom_site_type_symbol
_atom_site_fract_x
_atom_site_fract_y
_atom_site_fract_z
O1	O	1.224401	0.081794	0.148897
O2	O	0.955991	0.081795	0.166393
O3	O	1.096710	0.081788	-0.007561
O4	O	1.083683	0.081802	0.322851
O5	O	1.096696	-0.081795	-0.007570
O6	O	0.955977	-0.081787	0.166384
O7	O	1.224387	-0.081789	0.148888
Zn8	Zn	1.090180	-0.107761	0.157634
Zn9	Zn	1.090198	0.107767	0.157647
O10	O	1.083668	-0.081781	0.322842
C11	C	0.921622	0.000004	0.165569
C12	C	0.819232	0.000005	0.163112
C13	C	0.736081	0.000008	0.161116
C14	C	0.631763	0.000009	0.158622
C15	C	0.548617	0.000009	0.156642
C16	C	0.444292	0.000011	0.154149
N17	N	1.090174	-0.254852	0.157625
C18	C	1.090197	-0.656143	0.157648
C19	C	1.090188	-0.544492	0.157645
C20	C	1.090186	-0.455501	0.157638
C21	C	1.090176	-0.343843	0.157633
C22	C	1.258757	0.000004	0.149713
C23	C	1.361146	0.000010	0.152169
C24	C	1.095884	-0.000003	-0.049852
C25	C	1.093435	-0.000002	-0.175852
N26	N	1.090212	0.254859	0.157647
C27	C	1.088931	0.000014	-0.406540
C28	C	1.091434	0.000005	-0.278168
C29	C	1.084494	0.000012	0.365133
C30	C	1.086943	0.000017	0.491133
