data_functionalizedCrystal
_audit_creation_method	'MofGen! by Chris Wilmer'
_symmetry_space_group_name_H-M	'P1'
_symmetry_Int_Tables_number	1
_symmetry_cell_setting	triclinic
loop_
_symmetry_equiv_pos_as_xyz
  x,y,z
_cell_length_a	18.050589
_cell_length_b	13.032951
_cell_length_c	13.032268
_cell_angle_alpha	89.114265
_cell_angle_beta	97.149417
_cell_angle_gamma	97.169409
loop_
_atom_site_label
_atom_site_type_symbol
_atom_site_fract_x
_atom_site_fract_y
_atom_site_fract_z
Zn1	Zn	-0.501584	-1.498346	-0.780877
Zn2	Zn	-0.251584	-1.248346	-0.530877
Zn3	Zn	-0.001584	-0.998346	-0.280877
Zn4	Zn	0.248416	-0.748346	-0.030877
Zn5	Zn	-0.612231	-1.520060	-0.608897
Zn6	Zn	-0.362231	-1.270060	-0.358897
Zn7	Zn	-0.112231	-1.020060	-0.108897
Zn8	Zn	0.137769	-0.770060	0.141103
Zn9	Zn	-0.470555	-1.348213	-0.587113
Zn10	Zn	-0.220555	-1.098213	-0.337113
Zn11	Zn	0.029445	-0.848213	-0.087113
Zn12	Zn	0.279445	-0.598213	0.162887
Zn13	Zn	-0.608208	-1.326309	-0.759017
Zn14	Zn	-0.358208	-1.076309	-0.509017
Zn15	Zn	-0.108208	-0.826309	-0.259017
Zn16	Zn	0.141792	-0.576309	-0.009017
O17	O	-0.548144	-1.423232	-0.683976
O18	O	-0.298144	-1.173232	-0.433976
O19	O	-0.048144	-0.923232	-0.183976
O20	O	0.201856	-0.673232	0.066024
O21	O	-0.530930	-1.645142	-0.776328
O22	O	-0.280930	-1.395142	-0.526328
O23	O	-0.030930	-1.145142	-0.276328
O24	O	0.219070	-0.895142	-0.026328
O25	O	-0.582135	-1.515518	-0.462091
O26	O	-0.332135	-1.265518	-0.212091
O27	O	-0.082135	-1.015518	0.037909
O28	O	0.167865	-0.765518	0.287909
O29	O	-0.370756	-1.368207	-0.612848
O30	O	-0.120756	-1.118207	-0.362848
O31	O	0.129244	-0.868207	-0.112848
O32	O	0.379244	-0.618207	0.137152
O33	O	-0.612222	-1.661096	-0.649976
O34	O	-0.362222	-1.411096	-0.399976
O35	O	-0.112222	-1.161096	-0.149976
O36	O	0.137778	-0.911096	0.100024
O37	O	-0.393553	-1.478509	-0.755205
O38	O	-0.143553	-1.228509	-0.505205
O39	O	0.106447	-0.978509	-0.255205
O40	O	0.356447	-0.728509	-0.005205
O41	O	-0.478046	-1.389262	-0.446087
O42	O	-0.228046	-1.139262	-0.196087
O43	O	0.021954	-0.889262	0.053913
O44	O	0.271954	-0.639262	0.303913
O45	O	-0.474146	-1.201391	-0.591652
O46	O	-0.224146	-0.951391	-0.341652
O47	O	0.025854	-0.701391	-0.091652
O48	O	0.275854	-0.451391	0.158348
O49	O	-0.605367	-1.330876	-0.905833
O50	O	-0.355367	-1.080876	-0.655833
O51	O	-0.105367	-0.830876	-0.405833
O52	O	0.144633	-0.580876	-0.155833
O53	O	-0.575280	-1.185299	-0.717949
O54	O	-0.325280	-0.935299	-0.467949
O55	O	-0.075280	-0.685299	-0.217949
O56	O	0.174720	-0.435299	0.032051
O57	O	-0.527030	-1.457271	-0.921893
O58	O	-0.277030	-1.207271	-0.671893
O59	O	-0.027030	-0.957271	-0.421893
O60	O	0.222970	-0.707271	-0.171893
O61	O	-0.715612	-1.494279	-0.628779
O62	O	-0.465612	-1.244279	-0.378779
O63	O	-0.215612	-0.994279	-0.128779
O64	O	0.034388	-0.744279	0.121221
O65	O	-0.712657	-1.351932	-0.739072
O66	O	-0.462657	-1.101932	-0.489072
O67	O	-0.212657	-0.851932	-0.239072
O68	O	0.037343	-0.601932	0.010928
C69	C	-0.520910	-1.156029	-0.650065
C70	C	-0.270910	-0.906029	-0.400065
C71	C	-0.020910	-0.656029	-0.150065
C72	C	0.229090	-0.406029	0.099935
C73	C	-0.509279	-1.041715	-0.635582
C74	C	-0.259279	-0.791715	-0.385582
C75	C	-0.009279	-0.541715	-0.135582
C76	C	0.240721	-0.291715	0.114418
C77	C	-0.741083	-1.423110	-0.683943
C78	C	-0.491083	-1.173110	-0.433943
C79	C	-0.241083	-0.923110	-0.183943
C80	C	0.008917	-0.673110	0.066057
C81	C	-0.823635	-1.423147	-0.683976
C82	C	-0.573635	-1.173147	-0.433976
C83	C	-0.323635	-0.923147	-0.183976
C84	C	-0.073635	-0.673147	0.066024
C85	C	-0.554197	-0.982827	-0.691521
C86	C	-0.304197	-0.732827	-0.441521
C87	C	-0.054197	-0.482827	-0.191521
C88	C	0.195803	-0.232827	0.058479
C89	C	-0.542177	-0.864678	-0.676554
C90	C	-0.292177	-0.614678	-0.426554
C91	C	-0.042177	-0.364678	-0.176554
C92	C	0.207823	-0.114678	0.073446
C93	C	-1.021510	-1.345809	-0.743937
C94	C	-0.771510	-1.095809	-0.493937
C95	C	-0.521510	-0.845809	-0.243937
C96	C	-0.271510	-0.595809	0.006063
C97	C	-1.061011	-1.332664	-0.646916
C98	C	-0.811011	-1.082664	-0.396916
C99	C	-0.561011	-0.832664	-0.146916
C100	C	-0.311011	-0.582664	0.103084
C101	C	-0.974776	-1.423247	-0.684002
C102	C	-0.724776	-1.173247	-0.434002
C103	C	-0.474776	-0.923247	-0.184002
C104	C	-0.224776	-0.673247	0.065998
C105	C	-1.082363	-1.436441	-0.781040
C106	C	-0.832363	-1.186441	-0.531040
C107	C	-0.582363	-0.936441	-0.281040
C108	C	-0.332363	-0.686441	-0.031040
C109	C	-1.120773	-1.423340	-0.684035
C110	C	-0.870773	-1.173340	-0.434035
C111	C	-0.620773	-0.923340	-0.184035
C112	C	-0.370773	-0.673340	0.065965
C113	C	-1.013181	-1.410058	-0.586925
C114	C	-0.763181	-1.160058	-0.336925
C115	C	-0.513181	-0.910058	-0.086925
C116	C	-0.263181	-0.660058	0.163075
C117	C	-1.034538	-1.513871	-0.721118
C118	C	-0.784538	-1.263871	-0.471118
C119	C	-0.534538	-1.013871	-0.221118
C120	C	-0.284538	-0.763871	0.028882
C121	C	-1.074015	-1.500770	-0.624036
C122	C	-0.824015	-1.250770	-0.374036
C123	C	-0.574015	-1.000770	-0.124036
C124	C	-0.324015	-0.750770	0.125964
C125	C	-0.890671	-1.423190	-0.683984
C126	C	-0.640671	-1.173190	-0.433984
C127	C	-0.390671	-0.923190	-0.183984
C128	C	-0.140671	-0.673190	0.066016
C129	C	-1.204875	-1.423397	-0.684043
C130	C	-0.954875	-1.173397	-0.434043
C131	C	-0.704875	-0.923397	-0.184043
C132	C	-0.454875	-0.673397	0.065957
C133	C	-0.354457	-1.423379	-0.684035
C134	C	-0.104457	-1.173379	-0.434035
C135	C	0.145543	-0.923379	-0.184035
C136	C	0.395543	-0.673379	0.065965
C137	C	-0.271920	-1.423442	-0.684060
C138	C	-0.021920	-1.173442	-0.434060
C139	C	0.228080	-0.923442	-0.184060
C140	C	0.478080	-0.673442	0.065940
C141	C	-0.569211	-1.389208	-0.952222
C142	C	-0.319211	-1.139208	-0.702222
C143	C	-0.069211	-0.889208	-0.452222
C144	C	0.180789	-0.639208	-0.202222
C145	C	-0.578188	-1.374709	-1.066533
C146	C	-0.328188	-1.124709	-0.816533
C147	C	-0.078188	-0.874709	-0.566533
C148	C	0.171812	-0.624709	-0.316533
C149	C	-0.575477	-0.691479	-0.718013
C150	C	-0.325477	-0.441479	-0.468013
C151	C	-0.075477	-0.191479	-0.218013
C152	C	0.174523	0.058521	0.031987
C153	C	-0.587101	-0.805792	-0.732500
C154	C	-0.337101	-0.555792	-0.482500
C155	C	-0.087101	-0.305792	-0.232500
C156	C	0.162899	-0.055792	0.017500
C157	C	-0.543431	-1.430783	-1.125442
C158	C	-0.293431	-1.180783	-0.875442
C159	C	-0.043431	-0.930783	-0.625442
C160	C	0.206569	-0.680783	-0.375442
C161	C	-0.552708	-1.415799	-1.243589
C162	C	-0.302708	-1.165799	-0.993589
C163	C	-0.052708	-0.915799	-0.743589
C164	C	0.197292	-0.665799	-0.493589
C165	C	-0.527112	-1.457182	-0.416781
C166	C	-0.277112	-1.207182	-0.166781
C167	C	-0.027112	-0.957182	0.083219
C168	C	0.222888	-0.707182	0.333219
C169	C	-0.517946	-1.471880	-0.302496
C170	C	-0.267946	-1.221880	-0.052496
C171	C	-0.017946	-0.971880	0.197504
C172	C	0.232054	-0.721880	0.447504
H173	H	-0.601550	-1.019881	-0.750496
H174	H	-0.351550	-0.769881	-0.500496
H175	H	-0.101550	-0.519881	-0.250496
H176	H	0.148450	-0.269881	-0.000496
H177	H	-0.506803	-1.489879	-1.088410
H178	H	-0.256803	-1.239879	-0.838410
H179	H	-0.006803	-0.989879	-0.588410
H180	H	0.243197	-0.739879	-0.338410
F181	F	-0.626057	-1.297455	-1.114931
F182	F	-0.376057	-1.047455	-0.864931
F183	F	-0.126057	-0.797455	-0.614931
F184	F	0.123943	-0.547455	-0.364931
H185	H	-0.461921	-1.004660	-0.576615
H186	H	-0.211921	-0.754660	-0.326615
H187	H	0.038079	-0.504660	-0.076615
H188	H	0.288079	-0.254660	0.173385
F189	F	-0.480272	-0.816256	-0.599472
F190	F	-0.230272	-0.566256	-0.349472
F191	F	0.019728	-0.316256	-0.099472
F192	F	0.269728	-0.066256	0.150528
F193	F	-0.600580	-1.338540	-1.291982
F194	F	-0.350580	-1.088540	-1.041982
F195	F	-0.100580	-0.838540	-0.791982
F196	F	0.149420	-0.588540	-0.541982
H197	H	-1.112420	-1.447566	-0.863092
H198	H	-0.862420	-1.197566	-0.613092
H199	H	-0.612420	-0.947566	-0.363092
H200	H	-0.362420	-0.697566	-0.113092
H201	H	-1.022515	-1.590443	-0.752527
H202	H	-0.772515	-1.340443	-0.502527
H203	H	-0.522515	-1.090443	-0.252527
H204	H	-0.272515	-0.840443	-0.002527
H205	H	-0.998494	-1.280248	-0.794529
H206	H	-0.748494	-1.030248	-0.544529
H207	H	-0.498494	-0.780248	-0.294529
H208	H	-0.248494	-0.530248	-0.044529
F209	F	-0.648995	-0.854210	-0.809601
F210	F	-0.398995	-0.604210	-0.559601
F211	F	-0.148995	-0.354210	-0.309601
F212	F	0.101005	-0.104210	-0.059601
F213	F	-1.076705	-1.232546	-0.605893
F214	F	-0.826705	-0.982546	-0.355893
F215	F	-0.576705	-0.732546	-0.105893
F216	F	-0.326705	-0.482546	0.144107
H217	H	-0.481314	-1.530978	-1.265469
H218	H	-0.231314	-1.280978	-1.015469
H219	H	0.018686	-1.030978	-0.765469
H220	H	0.268686	-0.780978	-0.515469
F221	F	-0.974000	-1.395404	-0.479632
F222	F	-0.724000	-1.145404	-0.229632
F223	F	-0.474000	-0.895404	0.020368
F224	F	-0.224000	-0.645404	0.270368
F225	F	-1.103900	-1.586430	-0.557722
F226	F	-0.853900	-1.336430	-0.307722
F227	F	-0.603900	-1.086430	-0.057722
F228	F	-0.353900	-0.836430	0.192278
