data_functionalizedCrystal
_audit_creation_method	'MofGen! by Chris Wilmer'
_symmetry_space_group_name_H-M	'P1'
_symmetry_Int_Tables_number	1
_symmetry_cell_setting	triclinic
loop_
_symmetry_equiv_pos_as_xyz
  x,y,z
_cell_length_a	31.640172
_cell_length_b	14.560432
_cell_length_c	14.560432
_cell_angle_alpha	90.000835
_cell_angle_beta	59.992125
_cell_angle_gamma	60.000790
loop_
_atom_site_label
_atom_site_type_symbol
_atom_site_fract_x
_atom_site_fract_y
_atom_site_fract_z
Zr1	Zr	0.462663	0.884726	-0.120674
O2	O	0.550847	0.738070	-0.267358
O3	O	0.374480	0.929690	-0.075685
O4	O	0.462663	0.929683	-0.267321
O5	O	0.462664	0.738077	0.075417
O6	O	0.462661	1.080823	-0.267317
O7	O	0.462664	0.738078	-0.075723
O8	O	0.304919	1.080837	0.075484
O9	O	0.620407	0.738064	-0.267384
O10	O	0.410750	1.061654	-0.056522
O11	O	0.410751	0.948859	0.056268
O12	O	0.514574	0.948851	-0.169358
O13	O	0.514575	0.836055	-0.056567
Zr14	Zr	0.462661	1.125778	0.120382
Zr15	Zr	0.462661	1.125779	-0.120668
Zr16	Zr	0.462663	0.884726	0.120376
Zr17	Zr	0.573603	0.884716	-0.120716
Zr18	Zr	0.351721	1.125788	0.120423
O19	O	0.550844	1.080814	0.075393
O20	O	0.550844	1.080815	-0.267350
O21	O	0.550847	0.738069	0.075384
O22	O	0.374477	1.272434	0.267066
O23	O	0.374477	1.272435	-0.075676
O24	O	0.374480	0.929689	0.267057
O25	O	0.462660	1.272427	-0.075709
O26	O	0.462662	1.080822	0.267028
O27	O	0.462663	0.929681	0.267024
O28	O	0.462660	1.272427	0.075430
O29	O	0.620405	0.929668	-0.267379
O30	O	0.304919	1.080836	0.267087
O31	O	0.304917	1.272440	0.267092
O32	O	0.304917	1.272441	0.075489
O33	O	0.620407	0.738063	-0.075782
O34	O	0.620405	0.929668	-0.075777
O35	O	0.410750	1.061654	0.169065
O36	O	0.410749	1.174449	0.056274
O37	O	0.514574	1.061645	-0.056561
O38	O	0.514574	0.948850	0.056230
C39	C	0.323893	1.005265	-0.000095
C40	C	0.276796	1.005269	-0.000077
C41	C	0.023122	0.921986	-0.083447
C42	C	-0.153859	0.921978	-0.083478
O43	O	-0.144152	0.851189	-0.154336
N44	N	-0.214312	1.005245	-0.000197
C45	C	-0.230519	1.088524	0.083094
O46	O	-0.285999	1.159354	0.153922
C47	C	-0.053539	1.088536	0.083119
C48	C	0.006914	1.005257	-0.000161
C49	C	0.083572	0.838715	-0.166721
C50	C	0.127814	0.838715	-0.166709
C51	C	0.111606	0.921985	-0.083423
C52	C	0.051157	1.005257	-0.000149
C53	C	-0.069746	1.171819	0.166404
C54	C	-0.025495	1.171816	0.166401
C55	C	0.034958	1.088537	0.083121
C56	C	0.079191	1.088527	0.083149
N57	N	0.139644	1.005260	-0.000132
C58	C	0.155852	0.921989	-0.083418
C59	C	-0.323434	1.088510	0.083076
C60	C	-0.367679	1.088506	0.083071
C61	C	-0.291016	0.921961	-0.083503
C62	C	-0.246770	0.921961	-0.083492
C63	C	-0.262981	1.005243	-0.000206
C64	C	0.248761	0.921994	-0.083385
C65	C	0.293003	0.921998	-0.083363
C66	C	0.216336	1.088546	0.083206
C67	C	0.172097	1.088539	0.083188
C68	C	0.188314	1.005258	-0.000118
O69	O	0.069529	1.159286	0.153963
O70	O	0.211334	0.851184	-0.154250
C71	C	-0.021120	0.921987	-0.083459
C72	C	-0.081570	1.005258	-0.000185
C73	C	-0.097778	1.088529	0.083101
C74	C	-0.125815	1.005254	-0.000190
C75	C	-0.109608	0.921984	-0.083476
C76	C	-0.049155	0.838717	-0.166757
C77	C	-0.004913	0.838716	-0.166745
C78	C	-0.158230	1.171796	0.166382
C79	C	-0.202470	1.171789	0.166364
C80	C	-0.186262	1.088518	0.083078
C81	C	0.462664	0.703733	-0.000154
C82	C	0.462665	0.601400	-0.000157
C83	C	0.462672	0.601376	-0.166699
C84	C	0.462678	0.553287	-0.249970
C85	C	0.462678	0.457137	-0.249967
C86	C	0.462670	0.409076	-0.166681
C87	C	0.462665	0.457165	-0.083410
C88	C	0.462667	0.553315	-0.083425
C89	C	0.462653	0.457194	0.083135
C90	C	0.462658	0.553339	0.083129
C91	C	0.462646	0.409133	0.166420
C92	C	0.462644	0.457217	0.249689
C93	C	0.462645	0.553372	0.249681
C94	C	0.462652	0.601428	0.166400
C95	C	0.601431	1.005240	-0.000198
C96	C	0.648528	1.005235	-0.000216
C97	C	0.462662	1.005253	-0.301663
C98	C	0.462662	1.005254	-0.403995
C99	C	0.462660	1.306772	-0.000139
C100	C	0.462659	1.409105	-0.000136
C101	C	0.571056	0.887471	-0.714096
C102	C	0.625254	0.828587	-0.724922
C103	C	0.625256	0.828591	-0.628774
C104	C	0.571055	0.887482	-0.521793
C105	C	0.516857	0.946366	-0.510968
C106	C	0.516861	0.946359	-0.607124
C107	C	0.408464	1.064138	-0.393170
C108	C	0.408461	1.064142	-0.489316
C109	C	0.354263	1.123029	-0.286189
C110	C	0.300065	1.181921	-0.275362
C111	C	0.300065	1.181916	-0.371518
C112	C	0.354264	1.123026	-0.478491
C113	C	0.462662	1.005251	0.301371
C114	C	0.462662	1.005251	0.403703
C115	C	0.323890	1.306784	-0.000087
C116	C	0.276793	1.409122	-0.000067
C117	C	0.323893	1.005264	0.301422
C118	C	0.276796	1.005268	0.403772
C119	C	0.323891	1.306783	0.301430
C120	C	0.276793	1.409120	0.403782
C121	C	0.601434	0.703721	-0.301723
C122	C	0.648531	0.601384	-0.404075
C123	C	0.601434	0.703720	-0.000206
C124	C	0.648532	0.601383	-0.000226
C125	C	0.601431	1.005241	-0.301715
C126	C	0.648528	1.005237	-0.404064
C127	C	0.254675	1.398303	-0.058946
C128	C	0.210428	1.494450	-0.058949
C129	C	0.188296	1.601415	-0.000066
C130	C	0.210417	1.612232	0.058815
C131	C	0.254667	1.516086	0.058811
C132	C	0.254678	1.064147	0.510725
C133	C	0.210432	1.064146	0.606903
C134	C	0.188301	1.005272	0.596125
C135	C	0.210423	0.946386	0.489160
C136	C	0.254671	0.946380	0.392985
C137	C	0.254675	1.516067	0.392972
C138	C	0.210427	1.612232	0.489134
C139	C	0.188296	1.601449	0.596104
C140	C	0.210419	1.494491	0.606912
C141	C	0.254668	1.398328	0.510752
C142	C	0.670655	0.494438	-0.393265
C143	C	0.714916	0.398272	-0.489427
C144	C	0.737049	0.409055	-0.596397
C145	C	0.714924	0.516013	-0.607205
C146	C	0.670667	0.612176	-0.511044
C147	C	0.670653	0.612202	0.058643
C148	C	0.714913	0.516054	0.058620
C149	C	0.737047	0.409089	-0.000266
C150	C	0.714923	0.398272	-0.059143
C151	C	0.670667	0.494419	-0.059126
C152	C	0.670645	1.064122	-0.393250
C153	C	0.714892	1.064140	-0.489409
C154	C	0.737024	1.005266	-0.596382
C155	C	0.714903	0.946379	-0.607194
C156	C	0.670654	0.946368	-0.511036
H157	H	0.096779	0.770905	-0.234549
H158	H	0.272671	1.311251	0.519569
H159	H	0.571060	0.887476	-0.792391
H160	H	0.462656	0.679714	0.166382
N161	N	0.738780	0.882874	-0.722574
H162	H	0.705024	0.913751	-0.731587
H163	H	0.770177	0.891839	-0.781768
H164	H	0.177035	0.770909	-0.234533
N165	N	0.186539	1.727602	0.122339
H166	H	0.220293	1.736629	0.091458
H167	H	0.155140	1.786792	0.113390
H168	H	0.669383	0.780637	-0.812035
H169	H	0.192422	1.485621	-0.106897
N170	N	0.646812	0.482730	-0.122623
H171	H	0.628460	0.440246	-0.091725
H172	H	0.615440	0.559897	-0.113669
N173	N	0.140561	1.705167	0.699821
H174	H	0.155954	1.705227	0.746105
H175	H	0.129923	1.774497	0.676648
N176	N	0.278513	0.882892	0.277631
H177	H	0.309902	0.891816	0.218330
H178	H	0.296839	0.800551	0.268716
N179	N	0.278534	1.527714	0.277605
H180	H	0.257804	1.610062	0.285365
H181	H	0.322958	1.490376	0.235122
N182	N	0.278518	1.527763	0.122324
H183	H	0.257778	1.610116	0.159625
H184	H	0.270810	1.490446	0.181528
N185	N	0.354262	1.123045	-0.182484
H186	H	0.332984	1.089541	-0.136191
H187	H	0.396835	1.076830	-0.205665
N188	N	0.738744	1.127660	-0.477734
H189	H	0.718011	1.164942	-0.395374
H190	H	0.783168	1.073603	-0.515082
N191	N	0.738789	0.282900	-0.122632
H192	H	0.770175	0.223642	-0.113690
H193	H	0.704988	0.274007	-0.091681
N194	N	0.186547	0.882896	0.477544
H195	H	0.155157	0.891848	0.554705
H196	H	0.168213	0.913825	0.435046
N197	N	0.241611	1.245435	-0.159985
H198	H	0.249836	1.236499	-0.100720
H199	H	0.217949	1.327776	-0.151075
N200	N	0.186571	1.727584	0.477463
H201	H	0.207304	1.719814	0.395104
H202	H	0.142148	1.770053	0.514812
H203	H	0.192393	1.485728	0.694020
N204	N	0.738778	0.527729	0.122109
H205	H	0.731090	0.490453	0.181358
H206	H	0.783190	0.490484	0.068000
N207	N	0.784780	0.305393	-0.000279
H208	H	0.795431	0.328488	0.045956
H209	H	0.769347	0.259156	0.033211
N210	N	0.278541	1.127654	0.522367
H211	H	0.257812	1.164945	0.604721
H212	H	0.322964	1.073587	0.485015
H213	H	0.652636	0.485636	-0.306173
N214	N	0.140574	1.005285	0.699861
H215	H	0.129923	1.051525	0.769248
H216	H	0.103883	1.038775	0.699828
H217	H	0.773086	0.330744	-0.674688
H218	H	0.732923	0.311192	-0.480605
N219	N	0.140569	1.705106	-0.000073
H220	H	0.103854	1.705138	0.033443
H221	H	0.129950	1.774460	0.046144
N222	N	0.646795	0.727558	0.122154
H223	H	0.654494	0.770072	0.068147
H224	H	0.602381	0.769997	0.181431
N225	N	0.241608	1.245427	-0.359839
H226	H	0.207276	1.282732	-0.277479
H227	H	0.239248	1.304620	-0.397165
N228	N	0.186575	1.127666	0.722261
H229	H	0.207307	1.164969	0.714487
H230	H	0.142152	1.186860	0.764743
H231	H	0.652632	1.112065	-0.306157
N232	N	0.354266	1.123367	-0.582196
H233	H	0.311709	1.169721	-0.559110
H234	H	0.375573	1.156960	-0.628152
N235	N	0.738799	0.527635	-0.722583
H236	H	0.770190	0.450482	-0.781850
H237	H	0.705005	0.570143	-0.731485
N238	N	0.683709	0.765076	-0.640441
H239	H	0.718045	0.727766	-0.722798
H240	H	0.686069	0.819142	-0.603115
N241	N	0.784744	1.005295	-0.700090
H242	H	0.795393	1.051538	-0.676997
H243	H	0.821439	0.925525	-0.746353
H244	H	0.462663	0.330794	-0.166675
H245	H	0.652654	0.699254	-0.519859
N246	N	0.646812	0.882834	-0.522721
H247	H	0.654519	0.823574	-0.485469
H248	H	0.602397	0.936895	-0.485459
H249	H	0.342228	0.854175	-0.151178
H250	H	0.261973	0.854180	-0.151222
H251	H	-0.277826	0.854159	-0.151318
N252	N	-0.181570	0.832150	-0.173323
H253	H	-0.178022	0.779404	-0.226081
H254	H	-0.161545	0.868573	-0.216990
H255	H	-0.336643	1.156332	0.150901
N256	N	-0.432879	1.178317	0.172903
H257	H	-0.436427	1.231067	0.225659
H258	H	-0.452904	1.221988	0.136490
H259	H	-0.118964	1.239634	0.234219
H260	H	0.571061	0.887468	-0.443510
H261	H	0.272695	1.311215	-0.106909
H262	H	0.122872	1.156341	0.151012
N263	N	-0.042981	1.261648	0.256230
H264	H	-0.087991	1.314398	0.308979
H265	H	-0.026300	1.225242	0.299910
H266	H	0.203149	1.156341	0.151018
H267	H	0.044308	0.770901	-0.234559
H268	H	-0.251693	1.239604	0.234191
N269	N	-0.031677	0.748899	-0.256586
H270	H	-0.068883	0.761545	-0.243947
H271	H	-0.007204	0.752579	-0.332994
H272	H	-0.171436	1.239608	0.234203
H273	H	0.462637	0.592525	0.317494
N274	N	0.462684	0.705067	-0.166715
H275	H	0.462691	0.728214	-0.232110
H276	H	0.425825	0.768212	-0.093932
H277	H	0.462682	0.592428	-0.317779
H278	H	0.462679	0.417986	-0.317769
N279	N	0.462640	0.305435	0.166426
H280	H	0.499499	0.242224	0.093685
H281	H	0.462611	0.282384	0.231868
H282	H	0.462634	0.418085	0.317498
