data_functionalizedCrystal
_audit_creation_method	'MofGen! by Chris Wilmer'
_symmetry_space_group_name_H-M	'P1'
_symmetry_Int_Tables_number	1
_symmetry_cell_setting	triclinic
loop_
_symmetry_equiv_pos_as_xyz
  x,y,z
_cell_length_a	10.065875
_cell_length_b	9.065218
_cell_length_c	10.908937
_cell_angle_alpha	107.449079
_cell_angle_beta	83.392691
_cell_angle_gamma	81.121528
loop_
_atom_site_label
_atom_site_type_symbol
_atom_site_fract_x
_atom_site_fract_y
_atom_site_fract_z
O1	O	0.113493	-1.937591	0.169179
O2	O	0.113494	-1.504292	0.184579
O3	O	0.113489	-1.778377	-0.009383
O4	O	0.113498	-1.663506	0.363140
O5	O	-0.113499	-1.726076	0.027754
O6	O	-0.113493	-1.451990	0.221715
O7	O	-0.113495	-1.885290	0.206315
Zn8	Zn	-0.149533	-1.660336	0.219911
Zn9	Zn	0.149533	-1.729246	0.170983
O10	O	-0.113490	-1.611204	0.400277
C11	C	0.000001	-1.423540	0.201667
C12	C	0.000001	-1.260851	0.197241
N13	N	-0.353638	-1.613318	0.253303
C14	C	-0.000003	-1.762963	-0.038531
C15	C	0.000002	-1.794934	-0.180712
C16	C	-0.421419	-1.712879	0.182593
C17	C	-0.578585	-1.676702	0.208302
N18	N	0.353638	-1.776278	0.137581
C19	C	0.000002	-1.966042	0.189227
C20	C	0.000010	-2.128733	0.193651
C21	C	0.000007	-1.711307	-0.378027
C22	C	0.000004	-1.678261	-0.231076
C23	C	0.000005	-1.626620	0.429425
C24	C	0.000009	-1.594650	0.571604
H25	H	-0.636904	-1.564669	0.287874
O26	O	0.000005	-1.429943	-0.341416
H27	H	-0.092518	-1.348286	-0.345273
H28	H	-0.363097	-1.824897	0.103016
H29	H	-0.588044	-1.888302	0.057999
O30	O	-0.000001	-1.876012	-0.465003
H31	H	-0.000014	-1.956438	-0.405752
O32	O	0.000004	-1.513540	-0.144112
H33	H	0.000010	-1.513434	-0.042340
O34	O	-0.000004	-1.959656	-0.267670
H35	H	0.092518	-2.001172	-0.344316
H36	H	-0.411962	-1.501293	0.332870
