data_functionalizedCrystal
_audit_creation_method	'MofGen! by Chris Wilmer'
_symmetry_space_group_name_H-M	'P1'
_symmetry_Int_Tables_number	1
_symmetry_cell_setting	triclinic
loop_
_symmetry_equiv_pos_as_xyz
  x,y,z
_cell_length_a	18.426585
_cell_length_b	19.376997
_cell_length_c	19.377372
_cell_angle_alpha	55.726226
_cell_angle_beta	89.999867
_cell_angle_gamma	68.965239
loop_
_atom_site_label
_atom_site_type_symbol
_atom_site_fract_x
_atom_site_fract_y
_atom_site_fract_z
Zr1	Zr	0.870524	0.598198	0.074822
O2	O	0.775519	0.743468	-0.018500
O3	O	0.875478	0.478622	0.079691
O4	O	0.892069	0.635244	-0.052726
O5	O	0.773336	0.548663	0.245374
O6	O	1.011499	0.635238	-0.052720
O7	O	0.758929	0.586846	0.113917
O8	O	0.981822	0.355070	0.184151
O9	O	0.803014	0.828832	0.008504
O10	O	0.995923	0.518284	0.110454
O11	O	0.917545	0.489793	0.208554
O12	O	0.937078	0.674195	0.052650
O13	O	0.858701	0.645704	0.150750
Zr14	Zr	1.083981	0.537291	0.284491
Zr15	Zr	1.061002	0.598188	0.074832
Zr16	Zr	0.893503	0.537300	0.284481
Zr17	Zr	0.914375	0.734342	0.117891
Zr18	Zr	1.040130	0.401146	0.241423
O19	O	1.079027	0.656867	0.279622
O20	O	1.046355	0.743455	-0.018486
O21	O	0.808192	0.656880	0.279608
O22	O	1.178986	0.392020	0.377814
O23	O	1.146314	0.478609	0.079706
O24	O	0.908151	0.392033	0.377799
O25	O	1.181169	0.586826	0.113939
O26	O	1.062436	0.500244	0.412039
O27	O	0.943006	0.500250	0.412033
O28	O	1.195576	0.548642	0.245397
O29	O	0.954418	0.828824	0.008512
O30	O	1.000087	0.306664	0.350802
O31	O	1.151491	0.306657	0.350810
O32	O	1.133227	0.355062	0.184159
O33	O	0.821279	0.780426	0.175155
O34	O	0.972683	0.780419	0.175163
O35	O	1.017427	0.461293	0.306664
O36	O	1.095805	0.489784	0.208563
O37	O	1.036960	0.645696	0.150759
O38	O	0.958583	0.617204	0.248860
C39	C	0.922403	0.397448	0.125785
C40	C	0.903787	0.339651	0.107501
C41	C	0.818967	0.326250	0.024186
C42	C	0.836466	0.380551	0.041373
C43	C	0.953638	0.244428	0.156465
C44	C	0.936151	0.190115	0.139284
C45	C	0.868814	0.231033	0.073145
C46	C	0.985998	0.094898	0.188243
C47	C	0.968510	0.040590	0.171067
C48	C	0.901175	0.081498	0.104932
C49	C	0.851326	0.176724	0.055968
C50	C	1.053332	0.053981	0.254387
C51	C	1.103179	-0.041236	0.303345
C52	C	1.085694	-0.095545	0.286165
C53	C	1.018359	-0.054637	0.220030
C54	C	1.135543	-0.190772	0.335129
C55	C	1.118055	-0.245081	0.317952
C56	C	1.000871	-0.108946	0.202854
C57	C	0.738994	0.567756	0.179644
C58	C	0.658131	0.567760	0.179640
C59	C	0.592461	0.567762	0.179641
C60	C	0.510079	0.567757	0.179649
C61	C	0.444420	0.567746	0.179658
C62	C	0.362033	0.567740	0.179665
C63	C	1.215512	0.567733	0.179669
C64	C	1.296375	0.567729	0.179674
C65	C	0.948510	0.643918	-0.082595
C66	C	0.938755	0.669771	-0.171600
C67	C	1.032103	0.738040	0.233529
C68	C	1.050718	0.795837	0.251812
C69	C	1.060227	0.347886	-0.313467
C70	C	1.051048	0.372200	-0.397109
C71	C	0.989619	0.534959	-0.457443
C72	C	0.998796	0.510659	-0.373804
C73	C	1.034100	0.417121	-0.301822
C74	C	0.972669	0.579894	-0.362159
C75	C	0.981841	0.555595	-0.278527
C76	C	1.017141	0.462061	-0.206541
C77	C	1.043272	0.392822	-0.218190
C78	C	0.937361	0.673432	-0.434142
C79	C	0.911233	0.742666	-0.422497
C80	C	0.920411	0.718368	-0.338864
C81	C	0.955710	0.624835	-0.266878
C82	C	0.894280	0.787608	-0.327215
C83	C	0.903452	0.763309	-0.243583
C84	C	0.964883	0.600536	-0.183246
C85	C	1.005995	0.491571	0.441908
C86	C	1.015750	0.465718	0.530914
C87	C	1.160661	0.397437	0.125797
C88	C	1.222909	0.339636	0.107518
C89	C	0.951145	0.321274	0.388036
C90	C	0.942284	0.237625	0.458758
C91	C	1.189404	0.321263	0.388049
C92	C	1.261406	0.237609	0.458775
C93	C	0.765101	0.814226	-0.028735
C94	C	0.693099	0.897879	-0.099462
C95	C	0.793844	0.738052	0.233516
C96	C	0.731596	0.795853	0.251795
C97	C	1.003360	0.814214	-0.028723
C98	C	1.012221	0.897864	-0.099445
C99	C	1.200002	0.327371	0.047713
C100	C	1.258483	0.273074	0.030520
C101	C	1.339870	0.231038	0.073138
C102	C	1.362776	0.243307	0.132947
C103	C	1.304296	0.297608	0.150134
C104	C	0.990261	0.183463	0.543191
C105	C	0.981936	0.104871	0.609652
C106	C	0.925636	0.080438	0.591678
C107	C	0.877654	0.134608	0.507237
C108	C	0.885976	0.213203	0.440778
C109	C	1.336139	0.213197	0.440782
C110	C	1.403802	0.134606	0.507231
C111	C	1.396728	0.080424	0.591672
C112	C	1.321988	0.104842	0.609665
C113	C	1.254328	0.183436	0.543218
C114	C	0.618368	0.922298	-0.081466
C115	C	0.550711	1.000906	-0.147910
C116	C	0.557786	1.055091	-0.232350
C117	C	0.632525	1.030669	-0.250345
C118	C	0.700182	0.952066	-0.183900
C119	C	0.754504	0.808126	0.311594
C120	C	0.696025	0.862444	0.328768
C121	C	0.614639	0.904484	0.286148
C122	C	0.591732	0.892210	0.226342
C123	C	0.650211	0.837898	0.209164
C124	C	1.068527	0.922270	-0.081444
C125	C	1.076869	1.000858	-0.147889
C126	C	1.028899	1.055042	-0.232333
C127	C	0.972590	1.030630	-0.250334
C128	C	0.964253	0.952040	-0.183890
H129	H	1.067563	0.098205	0.268375
Cl130	Cl	1.128843	0.854166	0.024707
Cl131	Cl	1.147656	1.031534	-0.125240
H132	H	1.035696	1.119034	-0.286428
H133	H	1.322958	0.307584	0.198837
Cl134	Cl	1.229669	0.257658	-0.044665
Cl135	Cl	0.773794	0.500260	-0.020184
Cl136	Cl	1.413378	0.162772	0.051523
H137	H	1.464652	0.114735	0.492565
H138	H	0.933536	1.074759	-0.319096
H139	H	0.820768	0.773897	0.346309
H140	H	0.918400	0.932178	-0.198558
H141	H	1.036106	0.203344	0.557843
H142	H	1.021013	0.060773	0.678402
Cl143	Cl	0.724839	0.877856	0.403957
H144	H	1.316240	0.060716	0.678426
H145	H	0.764141	0.359573	-0.029679
Cl146	Cl	0.915186	-0.018372	0.675236
H147	H	0.638276	1.074796	-0.319103
Cl148	Cl	1.038284	0.192999	0.239612
H149	H	0.612591	0.878185	-0.012717
H150	H	1.193478	0.203302	0.557880
H151	H	1.158003	-0.074541	0.357198
Cl152	Cl	0.806883	0.103879	0.484654
H153	H	1.190364	-0.224077	0.388985
H154	H	0.865529	0.863766	-0.385834
Cl155	Cl	0.456762	1.031587	-0.125271
Cl156	Cl	1.180721	-0.364786	0.379501
Cl157	Cl	1.465094	0.190450	0.186521
Cl158	Cl	1.028667	0.431512	-0.101401
Cl159	Cl	0.916227	-0.057507	0.119694
H160	H	0.761028	0.932188	-0.198564
Cl161	Cl	0.472722	1.153904	-0.315873
H162	H	0.631548	0.827908	0.160474
Cl163	Cl	0.870620	0.850348	-0.228940
H164	H	1.133738	0.361602	0.012995
Cl165	Cl	0.541132	0.972758	0.307755
Cl166	Cl	0.825658	0.281280	0.334634
Cl167	Cl	0.925828	0.703978	-0.539281
Cl168	Cl	0.489414	0.945062	0.172773
Cl169	Cl	1.345054	0.281302	0.334635
H170	H	1.451827	0.016430	0.645770
Cl171	Cl	0.879187	0.013224	0.083339
H172	H	0.796500	0.210047	0.002103
H173	H	0.993635	0.524368	-0.124632
H174	H	1.072024	0.316654	-0.159576
H175	H	1.088979	0.271718	-0.254853
Cl176	Cl	1.083898	0.285150	-0.411743
H177	H	0.882487	0.818825	-0.481115
Cl178	Cl	0.945234	0.652545	-0.547940
