data_functionalizedCrystal
_audit_creation_method	'MofGen! by Chris Wilmer'
_symmetry_space_group_name_H-M	'P1'
_symmetry_Int_Tables_number	1
_symmetry_cell_setting	triclinic
loop_
_symmetry_equiv_pos_as_xyz
  x,y,z
_cell_length_a	6.817900
_cell_length_b	9.582889
_cell_length_c	16.305550
_cell_angle_alpha	93.101692
_cell_angle_beta	103.455250
_cell_angle_gamma	111.207298
loop_
_atom_site_label
_atom_site_type_symbol
_atom_site_fract_x
_atom_site_fract_y
_atom_site_fract_z
V1	V	-4.066503	-0.208318	-0.262876
O2	O	-4.012158	0.008711	-0.258031
O3	O	-4.057279	-0.411810	-0.260925
O4	O	-4.017400	-0.205684	-0.377595
O5	O	-4.052313	-0.198842	-0.140553
V6	V	-4.545146	-0.182291	-0.248264
O7	O	-4.338467	-0.265409	-0.294929
O8	O	-4.723380	-0.125200	-0.216211
O9	O	-4.331164	0.021200	-0.250215
O10	O	-4.716889	-0.399320	-0.253109
O11	O	-4.676734	-0.191768	-0.370586
O12	O	-4.371043	-0.184926	-0.133545
C13	C	-3.911833	-0.461399	-0.256739
C14	C	-3.985574	-0.627759	-0.255908
C15	C	-3.860962	-0.198463	-0.405562
C16	C	-3.902358	-0.197656	-0.499344
C17	C	-4.052840	-0.194528	-0.840092
C18	C	-3.814998	-0.185242	-0.799170
C19	C	-3.772086	-0.186701	-0.701674
C20	C	-3.978183	-0.196079	-0.671043
C21	C	-4.173778	-0.343877	-0.721559
C22	C	-4.215480	-0.343041	-0.819109
C23	C	-4.081056	-0.057197	-0.794351
C24	C	-4.032901	-0.056027	-0.696509
C25	C	-3.936003	-0.196961	-0.575504
C26	C	-4.095031	-0.193656	-0.935631
C27	C	-4.139953	0.070781	-0.254399
C28	C	-4.045451	0.237141	-0.255234
C29	C	-4.190824	-0.192151	-0.105574
C30	C	-4.128665	-0.192951	-0.011790
H31	H	-3.688226	-0.078474	-0.811613
H32	H	-3.724948	-0.286506	-0.685306
H33	H	-4.199426	-0.447004	-0.849413
H34	H	-3.890728	0.053292	-0.662212
O35	O	-3.784335	-0.303078	-0.836732
C36	C	-3.976873	-0.393843	-0.899879
H37	H	-4.122658	-0.376289	-0.885285
H38	H	-3.962469	-0.360589	-0.964958
C39	C	-3.830661	-0.583186	-0.918583
C40	C	-4.009720	-0.561634	-0.900655
H41	H	-3.850920	-0.686687	-0.919066
H42	H	-3.700941	-0.522033	-0.876042
H43	H	-3.818676	-0.555464	-0.972815
H44	H	-4.021685	-0.589338	-0.846420
H45	H	-4.139443	-0.622795	-0.943187
O46	O	-4.359163	-0.358526	-0.698848
C47	C	-4.324696	-0.365747	-0.610772
H48	H	-4.185570	-0.405731	-0.587875
H49	H	-4.280411	-0.248648	-0.574529
C50	C	-4.705680	-0.428697	-0.622574
C51	C	-4.534815	-0.477819	-0.594453
H52	H	-4.835292	-0.497822	-0.612505
H53	H	-4.728901	-0.423826	-0.681911
H54	H	-4.668747	-0.331113	-0.592368
H55	H	-4.571738	-0.575391	-0.624666
H56	H	-4.511604	-0.482708	-0.535120
H57	H	-4.179833	-0.054188	-0.675163
H58	H	-3.968014	0.054788	-0.807802
H59	H	-4.138441	-0.447868	-0.704669
O60	O	-3.596818	-0.059775	-0.660079
C61	C	-3.640055	0.069344	-0.680162
H62	H	-3.770907	0.039041	-0.743553
H63	H	-3.700148	0.110831	-0.627770
C64	C	-3.268634	0.232494	-0.609384
C65	C	-3.429336	0.195279	-0.687246
H66	H	-3.138653	0.310180	-0.613751
H67	H	-3.239505	0.145506	-0.595851
H68	H	-3.318740	0.267058	-0.565733
H69	H	-3.379240	0.160698	-0.730894
H70	H	-3.458452	0.282265	-0.700787
H71	H	-4.391821	-0.356003	-0.847091
O72	O	-4.287640	-0.063918	-0.826457
C73	C	-4.406251	-0.192103	-0.889917
H74	H	-4.287773	-0.227109	-0.916673
H75	H	-4.507220	-0.289295	-0.860942
C76	C	-4.704984	-0.110549	-0.929374
C77	C	-4.559467	-0.153537	-0.962241
H78	H	-4.799502	-0.086764	-0.973986
H79	H	-4.625078	-0.024191	-0.886618
H80	H	-4.789103	-0.191551	-0.905229
H81	H	-4.475332	-0.072529	-0.986376
H82	H	-4.639363	-0.239880	-1.005003
