data_functionalizedCrystal
_audit_creation_method	'MofGen! by Chris Wilmer'
_symmetry_space_group_name_H-M	'P1'
_symmetry_Int_Tables_number	1
_symmetry_cell_setting	triclinic
loop_
_symmetry_equiv_pos_as_xyz
  x,y,z
_cell_length_a	19.377625
_cell_length_b	20.875492
_cell_length_c	20.875641
_cell_angle_alpha	60.662107
_cell_angle_beta	75.531195
_cell_angle_gamma	50.209307
loop_
_atom_site_label
_atom_site_type_symbol
_atom_site_fract_x
_atom_site_fract_y
_atom_site_fract_z
Zr1	Zr	0.655904	0.720127	-0.264506
O2	O	0.537517	0.855177	-0.343531
O3	O	0.697677	0.581122	-0.236606
O4	O	0.695645	0.711818	-0.371800
O5	O	0.534915	0.732414	-0.105874
O6	O	0.814144	0.709762	-0.398278
O7	O	0.539549	0.724481	-0.208338
O8	O	0.817779	0.475971	-0.156442
O9	O	0.531281	0.966205	-0.347710
O10	O	0.797305	0.638227	-0.248906
O11	O	0.705413	0.645682	-0.152679
O12	O	0.703021	0.799559	-0.311851
O13	O	0.611129	0.807014	-0.215624
Zr14	Zr	0.837506	0.729500	-0.143317
Zr15	Zr	0.844896	0.716848	-0.306735
Zr16	Zr	0.648514	0.732779	-0.101088
Zr17	Zr	0.645958	0.897204	-0.271171
Zr18	Zr	0.847452	0.552423	-0.136652
O19	O	0.795733	0.868504	-0.171216
O20	O	0.806239	0.850515	-0.403575
O21	O	0.527010	0.873166	-0.111172
O22	O	0.955893	0.594449	-0.064292
O23	O	0.966400	0.576460	-0.296651
O24	O	0.687171	0.599112	-0.004247
O25	O	0.958495	0.717213	-0.301949
O26	O	0.797765	0.737808	-0.036023
O27	O	0.679266	0.739864	-0.009545
O28	O	0.953861	0.725145	-0.199485
O29	O	0.681505	0.963599	-0.381277
O30	O	0.811905	0.486028	-0.026546
O31	O	0.962129	0.483421	-0.060113
O32	O	0.968002	0.473365	-0.190008
O33	O	0.525408	0.976262	-0.217815
O34	O	0.675631	0.973655	-0.251381
O35	O	0.790389	0.650067	-0.095971
O36	O	0.882281	0.642613	-0.192199
O37	O	0.787997	0.803945	-0.255144
O38	O	0.696105	0.811399	-0.158916
C39	C	0.759145	0.503317	-0.195574
C40	C	0.763367	0.428143	-0.192745
C41	C	0.699182	0.450776	-0.235591
C42	C	0.703152	0.380153	-0.232960
C43	C	0.771304	0.286899	-0.187479
C44	C	0.835495	0.264267	-0.144631
C45	C	0.831528	0.334889	-0.147266
C46	C	0.790267	0.069472	-0.174865
C47	C	0.794228	-0.001150	-0.172232
C48	C	0.661885	0.114742	-0.260563
C49	C	0.657921	0.185360	-0.263190
C50	C	0.722115	0.162722	-0.220345
N51	N	0.775362	0.214710	-0.184787
N52	N	0.718060	0.234910	-0.223042
C53	C	0.510305	0.728915	-0.151089
C54	C	0.430073	0.730307	-0.133162
C55	C	0.178954	0.713000	-0.356397
C56	C	0.103567	0.714302	-0.339528
C57	C	0.098483	0.723042	-0.226639
C58	C	0.173868	0.721745	-0.243500
C59	C	0.214098	0.716722	-0.308380
C60	C	0.209013	0.725468	-0.195483
C61	C	0.284395	0.724166	-0.212342
C62	C	0.324632	0.719141	-0.277217
C63	C	0.289480	0.715421	-0.325238
C64	C	0.168785	0.730483	-0.130602
C65	C	0.203930	0.734206	-0.082585
C66	C	0.279309	0.732911	-0.099445
C67	C	0.319546	0.727886	-0.164320
C68	C	0.314461	0.736631	-0.051424
C69	C	0.389842	0.735329	-0.068282
C70	C	0.394928	0.726584	-0.181179
C71	C	0.983105	0.720712	-0.256734
C72	C	1.063337	0.719320	-0.274661
C73	C	0.755948	0.708988	-0.408322
C74	C	0.759085	0.703617	-0.477697
C75	C	0.734265	0.946309	-0.212248
C76	C	0.730043	1.021483	-0.215078
C77	C	0.711345	0.785305	-0.543147
C78	C	0.714304	0.780253	-0.608332
C79	C	0.764998	0.693511	-0.608064
C80	C	0.812744	0.611817	-0.542608
C81	C	0.809789	0.616870	-0.477426
C82	C	0.779117	0.669368	-0.799487
C83	C	0.782065	0.664321	-0.864676
C84	C	0.683626	0.832758	-0.930395
C85	C	0.680672	0.837803	-0.865208
C86	C	0.728421	0.756109	-0.799758
N87	N	0.768022	0.688345	-0.674693
N88	N	0.725402	0.761276	-0.733133
C89	C	0.737462	0.740639	0.000499
C90	C	0.734325	0.746010	0.069874
C91	C	0.995545	0.499216	-0.248397
C92	C	1.079999	0.422650	-0.263495
C93	C	0.749902	0.519143	0.008836
C94	C	0.750987	0.449340	0.081041
C95	C	0.986302	0.515041	-0.043986
C96	C	1.067620	0.443846	0.010291
C97	C	0.507108	0.934585	-0.363837
C98	C	0.425790	1.005780	-0.418114
C99	C	0.497865	0.950411	-0.159426
C100	C	0.413411	1.026977	-0.144328
C101	C	0.743508	0.930484	-0.416659
C102	C	0.742423	1.000287	-0.488864
C103	C	1.075303	0.384404	-0.300192
C104	C	1.154650	0.312471	-0.314392
C105	C	1.238691	0.278781	-0.291890
C106	C	1.243385	0.317034	-0.255191
C107	C	1.164040	0.388970	-0.240996
C108	C	0.795853	0.418850	0.144557
C109	C	0.796869	0.353273	0.212407
C110	C	0.753023	0.318183	0.216740
C111	C	0.708151	0.348680	0.153217
C112	C	0.707130	0.414260	0.085369
C113	C	1.153782	0.406521	-0.014451
C114	C	1.230195	0.339635	0.036540
C115	C	1.220444	0.310071	0.112273
C116	C	1.134273	0.347403	0.137016
C117	C	1.057861	0.414293	0.086025
C118	C	0.339628	1.043114	-0.393372
C119	C	0.263214	1.110022	-0.444364
C120	C	0.272964	1.139590	-0.520097
C121	C	0.359135	1.102253	-0.544840
C122	C	0.435548	1.035351	-0.493848
C123	C	0.418107	1.065229	-0.107638
C124	C	0.338760	1.137181	-0.093456
C125	C	0.254718	1.170873	-0.115961
C126	C	0.250024	1.132617	-0.152657
C127	C	0.329370	1.060672	-0.166842
C128	C	0.786278	1.035356	-0.493173
C129	C	0.785276	1.100934	-0.561014
C130	C	0.740413	1.131446	-0.624544
C131	C	0.696557	1.096370	-0.620233
C132	C	0.697565	1.030788	-0.552394
H133	H	0.650886	0.398590	-0.267850
H134	H	1.006879	0.411833	-0.318529
C135	C	0.168434	1.151078	-0.417131
N136	N	0.097047	1.182001	-0.396618
C137	C	0.657783	0.447781	0.015503
N138	N	0.620613	0.473025	-0.037119
C139	C	0.369846	1.134779	-0.628151
N140	N	0.377912	1.159274	-0.690902
C141	C	1.335841	0.279957	-0.230436
N142	N	1.405481	0.252024	-0.211786
H143	H	0.210737	1.194066	-0.561610
H144	H	0.672453	0.320099	0.156756
C145	C	0.333734	0.709902	-0.396612
N146	N	0.367067	0.705744	-0.450367
H147	H	0.739599	1.184848	-0.679779
C148	C	0.963085	0.455341	0.113255
N149	N	0.891699	0.486258	0.133770
H150	H	1.126347	0.323322	0.198684
C151	C	1.169221	0.431024	-0.200617
N152	N	1.173130	0.462695	-0.170201
C153	C	1.324975	0.298573	0.009307
N154	N	1.396362	0.267645	-0.011206
C155	C	1.149466	0.270398	-0.354754
N156	N	1.145559	0.238708	-0.385151
C157	C	0.582954	0.287939	-0.313229
N158	N	0.526487	0.365203	-0.350919
H159	H	0.181587	1.160060	-0.170978
H160	H	0.848664	0.550351	-0.424135
C161	C	0.439182	0.721066	-0.252552
N162	N	0.472515	0.716907	-0.306307
C163	C	0.868506	0.516400	-0.542316
N164	N	0.910504	0.444531	-0.542094
H165	H	1.282671	0.255605	0.153785
C166	C	0.530326	0.994280	-0.521077
N167	N	0.601712	0.963346	-0.541592
H168	H	0.486530	1.037803	-0.089304
H169	H	1.161738	0.430582	-0.076115
H170	H	0.281701	0.740711	0.001404
C171	C	0.328880	1.010608	-0.310067
N172	N	0.320777	0.986135	-0.247322
C173	C	0.343944	1.179242	-0.053083
N174	N	0.347851	1.210919	-0.022672
C175	C	0.223208	0.707481	-0.427770
N176	N	0.256541	0.703323	-0.481526
C177	C	0.167443	1.250012	-0.100347
N178	N	0.101710	1.309617	-0.088581
H179	H	0.325534	1.029528	-0.196716
C180	C	0.064901	0.710222	-0.392362
N181	N	0.035776	0.707152	-0.432158
C182	C	0.835640	1.001800	-0.423299
N183	N	0.872828	0.976525	-0.370673
H184	H	0.660030	1.121223	-0.671969
C185	C	0.833518	1.139511	-0.565739
N186	N	0.869853	1.168566	-0.569296
H187	H	0.753860	0.264783	0.271990
C188	C	0.624210	0.553355	-0.285626
N189	N	0.567740	0.630617	-0.323316
C190	C	0.591283	0.139634	-0.307695
N191	N	0.538104	0.158385	-0.343199
H192	H	0.890989	0.188332	-0.107603
C193	C	0.846244	0.319730	0.282271
N194	N	0.883436	0.294464	0.334889
C195	C	0.661747	0.870117	-0.680317
N196	N	0.622147	0.937808	-0.734535
H197	H	0.849727	-0.077085	-0.135192
H198	H	0.661848	1.002242	-0.548894
H199	H	0.842539	0.051028	-0.139978
C200	C	0.054242	0.728530	-0.155260
N201	N	0.020927	0.732654	-0.101492
H202	H	0.883794	0.316454	-0.112376
C203	C	0.159690	0.739694	-0.011205
N204	N	0.126374	0.743818	0.042563
C205	C	0.428496	0.739438	-0.015466
N206	N	0.457608	0.742535	0.024315
H207	H	0.831558	0.447413	0.141043
H208	H	0.386015	0.718077	-0.290940
C209	C	0.624911	0.933225	-0.865511
N210	N	0.582910	1.005099	-0.865739
C211	C	0.831634	0.579502	-0.727499
N212	N	0.871191	0.511809	-0.673272
C213	C	1.325966	0.199642	-0.307504
N214	N	1.391699	0.140032	-0.319264
H215	H	0.670058	0.855940	-0.543371
C216	C	0.631113	0.922615	-1.002394
N217	N	0.591562	0.990300	-1.056626
H218	H	0.823346	0.593683	-0.864451
H219	H	0.107407	0.731538	-0.116877
