data_functionalizedCrystal
_audit_creation_method	'MofGen! by Chris Wilmer'
_symmetry_space_group_name_H-M	'P1'
_symmetry_Int_Tables_number	1
_symmetry_cell_setting	triclinic
loop_
_symmetry_equiv_pos_as_xyz
  x,y,z
_cell_length_a	14.446369
_cell_length_b	14.560438
_cell_length_c	14.560438
_cell_angle_alpha	60.000905
_cell_angle_beta	90.001510
_cell_angle_gamma	59.998281
loop_
_atom_site_label
_atom_site_type_symbol
_atom_site_fract_x
_atom_site_fract_y
_atom_site_fract_z
Zr1	Zr	0.891770	1.005228	-0.120475
O2	O	0.743957	1.196839	-0.267125
O3	O	0.937082	0.813624	-0.075521
O4	O	0.937077	1.005228	-0.267122
O5	O	0.743965	1.005233	0.075616
O6	O	1.089414	1.005220	-0.267116
O7	O	0.743961	1.005236	-0.075524
O8	O	1.089423	0.662476	0.075623
O9	O	0.743957	1.347977	-0.267122
O10	O	1.070095	0.892425	-0.056342
O11	O	0.956410	0.892429	0.056449
O12	O	0.956405	1.118018	-0.169136
O13	O	0.842720	1.118022	-0.056346
Zr14	Zr	1.134736	1.005211	0.120586
Zr15	Zr	1.134730	1.005215	-0.120466
Zr16	Zr	0.891776	1.005224	0.120577
Zr17	Zr	0.891770	1.246276	-0.120470
Zr18	Zr	1.134735	0.764163	0.120582
O19	O	1.089424	1.196815	0.075633
O20	O	1.089415	1.196821	-0.267112
O21	O	0.743966	1.196834	0.075620
O22	O	1.282549	0.813600	0.267237
O23	O	1.282540	0.813606	-0.075508
O24	O	0.937091	0.813619	0.267224
O25	O	1.282540	1.005206	-0.075505
O26	O	1.089428	1.005211	0.267233
O27	O	0.937091	1.005219	0.267228
O28	O	1.282544	1.005204	0.075636
O29	O	0.937078	1.347967	-0.267115
O30	O	1.089428	0.662472	0.267227
O31	O	1.282548	0.662462	0.267234
O32	O	1.282543	0.662465	0.075630
O33	O	0.743962	1.347974	-0.075518
O34	O	0.937083	1.347964	-0.075511
O35	O	1.070101	0.892421	0.169248
O36	O	1.183785	0.892417	0.056457
O37	O	1.070095	1.118010	-0.056337
O38	O	0.956411	1.118014	0.056453
C39	C	1.013252	0.703706	0.000050
C40	C	1.013252	0.601375	0.000048
C41	C	1.072592	0.553296	-0.058827
C42	C	1.072596	0.457137	-0.058817
C43	C	0.953912	0.457147	0.058946
C44	C	0.953915	0.553298	0.058942
C45	C	0.709347	1.005236	0.000045
C46	C	0.606204	1.005242	0.000041
C47	C	0.387833	1.147508	-0.070740
C48	C	0.495065	1.147605	-0.071138
C49	C	0.602879	0.934571	-0.051851
C50	C	0.495110	0.935474	-0.052370
C51	C	0.496478	0.932541	0.122804
C52	C	0.602447	0.935222	0.122611
C53	C	1.317159	1.005203	0.000067
C54	C	1.420302	1.005197	0.000071
C55	C	1.013245	1.005225	-0.301464
C56	C	1.013242	1.005226	-0.403797
C57	C	1.013253	1.306733	0.000062
C58	C	1.013254	1.409064	0.000063
C59	C	0.953899	1.122982	-0.510750
C60	C	0.953912	1.122975	-0.606899
C61	C	1.072614	0.887449	-0.489127
C62	C	1.072607	0.887456	-0.392980
C63	C	1.013261	1.005215	0.301575
C64	C	1.013263	1.005213	0.403908
C65	C	1.317158	0.703689	0.000061
C66	C	1.420301	0.601353	0.000063
C67	C	1.013260	0.703701	0.301570
C68	C	1.013262	0.601368	0.403901
C69	C	1.317166	0.703684	0.301581
C70	C	1.420311	0.601346	0.403916
C71	C	0.709340	1.306755	-0.301469
C72	C	0.606194	1.409093	-0.403804
C73	C	0.709347	1.306750	0.000050
C74	C	0.606205	1.409087	0.000049
C75	C	1.013246	1.306739	-0.301458
C76	C	1.013243	1.409071	-0.403789
C77	C	1.409415	0.553276	-0.058813
C78	C	1.506333	0.457128	-0.058815
C79	C	1.625018	0.457137	0.058944
C80	C	1.528102	0.553290	0.058939
C81	C	1.072608	0.553286	0.510856
C82	C	1.072597	0.457142	0.607003
C83	C	0.953894	0.457168	0.489226
C84	C	0.953899	0.553316	0.393081
C85	C	1.528111	0.553263	0.393120
C86	C	1.625024	0.457113	0.489278
C87	C	1.506322	0.457135	0.607024
C88	C	1.409412	0.553289	0.510867
H89	H	0.905600	0.417992	0.106894
C90	C	1.137882	0.404250	0.724650
H91	H	1.173241	0.446635	0.717318
H92	H	1.086663	0.420014	0.764606
H93	H	1.194041	0.313464	0.764602
C94	C	0.491760	1.222980	-0.193442
H95	H	0.424805	1.253650	-0.243077
H96	H	0.492162	1.294621	-0.209814
H97	H	0.556270	1.167155	-0.202896
C98	C	1.290822	0.606192	0.522736
H99	H	1.234670	0.670351	0.450149
H100	H	1.282309	0.537176	0.562684
H101	H	1.282323	0.643714	0.562680
H102	H	0.523918	0.827708	0.175813
C103	C	1.137875	0.404244	-0.123572
H104	H	1.129390	0.340081	-0.115124
H105	H	1.108571	0.473263	-0.201036
H106	H	1.215954	0.366728	-0.094484
H107	H	1.120941	0.592411	0.519672
H108	H	0.905567	0.592469	0.305987
H109	H	1.120937	0.791560	-0.305887
C110	C	0.888634	0.606191	0.123705
H111	H	0.853281	0.563802	0.158767
H112	H	0.939861	0.590431	0.179418
H113	H	0.832472	0.696976	0.072872
H114	H	1.497460	0.417990	-0.106761
H115	H	1.321643	0.592418	-0.106766
H116	H	0.681148	0.829896	-0.002759
H117	H	1.712799	0.417991	0.106881
H118	H	0.905560	1.218878	-0.519564
C119	C	1.540075	0.606175	0.123709
H120	H	1.618156	0.563767	0.158788
H121	H	1.504731	0.696954	0.072887
H122	H	1.504737	0.590407	0.179428
H123	H	0.905565	0.418031	0.480430
H124	H	0.493306	1.203334	-0.036601
C125	C	1.540094	0.606134	0.275477
H126	H	1.466940	0.670278	0.219753
H127	H	1.580362	0.643640	0.267044
H128	H	1.580363	0.537094	0.267051
H129	H	1.120910	0.592437	-0.106780
H130	H	1.120945	0.791564	-0.480334
H131	H	0.905590	1.218864	-0.693983
H132	H	1.712797	0.417968	0.480481
H133	H	0.332846	1.203091	-0.160730
C134	C	0.427086	1.003334	-0.174375
H135	H	0.465442	1.030097	-0.223156
H136	H	0.420024	0.944682	-0.179924
H137	H	0.353825	1.077113	-0.195322
C138	C	0.531109	0.794431	0.012791
H139	H	0.611471	0.736836	0.039454
H140	H	0.504015	0.775696	0.074757
H141	H	0.500063	0.783746	-0.035658
C142	C	0.605748	1.000886	-0.172703
H143	H	0.608966	1.071630	-0.191718
H144	H	0.670718	0.939995	-0.177552
H145	H	0.539306	1.031973	-0.223406
H146	H	0.333878	1.203360	-0.036109
C147	C	0.428917	0.994054	0.181367
H148	H	0.476436	0.948778	0.255307
H149	H	0.402690	1.082562	0.139794
H150	H	0.365944	0.988759	0.185140
C151	C	0.601769	1.004812	0.174993
H152	H	0.603772	1.076237	0.122397
H153	H	0.534837	1.035291	0.194014
H154	H	0.666306	0.945835	0.240881
C155	C	0.709374	0.794907	0.199882
H156	H	0.757921	0.777108	0.158215
H157	H	0.747995	0.784780	0.260617
H158	H	0.688170	0.736258	0.228467
H159	H	1.497461	0.417994	0.694114
