data_functionalizedCrystal
_audit_creation_method	'MofGen! by Chris Wilmer'
_symmetry_space_group_name_H-M	'P1'
_symmetry_Int_Tables_number	1
_symmetry_cell_setting	triclinic
loop_
_symmetry_equiv_pos_as_xyz
  x,y,z
_cell_length_a	10.723024
_cell_length_b	10.723024
_cell_length_c	7.681481
_cell_angle_alpha	84.204337
_cell_angle_beta	95.778575
_cell_angle_gamma	84.467869
loop_
_atom_site_label
_atom_site_type_symbol
_atom_site_fract_x
_atom_site_fract_y
_atom_site_fract_z
O1	O	1.645492	0.186740	-0.146413
O2	O	2.145492	0.686740	0.353587
O3	O	1.282339	0.203493	-0.146419
O4	O	1.782339	0.703493	0.353581
O5	O	1.472292	0.013540	-0.146409
O6	O	1.972292	0.513540	0.353591
O7	O	1.455538	0.376693	-0.146423
O8	O	1.955538	0.876693	0.353577
O9	O	1.495672	-0.009894	0.146450
O10	O	1.995672	0.490106	0.646450
O11	O	1.305719	0.180060	0.146440
O12	O	1.805719	0.680060	0.646440
O13	O	1.668871	0.163306	0.146446
O14	O	2.168871	0.663306	0.646446
Zn15	Zn	1.491007	0.167962	0.192941
Zn16	Zn	1.991007	0.667962	0.692941
Zn17	Zn	1.460203	0.198837	-0.192914
Zn18	Zn	1.960203	0.698837	0.307086
O19	O	1.478918	0.353260	0.146436
O20	O	1.978918	0.853260	0.646436
C21	C	1.247529	0.190558	0.000010
C22	C	1.747529	0.690558	0.500010
C23	C	1.108975	0.186910	0.000008
C24	C	1.608975	0.686910	0.500008
C25	C	0.917217	0.073603	0.000009
C26	C	1.417217	0.573603	0.500009
C27	C	1.060421	0.077370	0.000011
C28	C	1.560421	0.577370	0.500011
C29	C	1.482763	-0.044676	0.000018
C30	C	1.982763	0.455324	0.500018
C31	C	1.479115	-0.183230	0.000012
C32	C	1.979115	0.316770	0.500012
C33	C	1.585402	-0.258213	0.000011
C34	C	2.085402	0.241787	0.500011
C35	C	1.581634	-0.401416	0.000005
C36	C	2.081634	0.098584	0.500005
C37	C	1.703681	0.176242	0.000013
C38	C	2.203681	0.676242	0.500013
C39	C	1.842234	0.179891	0.000004
C40	C	2.342234	0.679891	0.500004
C41	C	1.468447	0.411476	0.000005
C42	C	1.968447	0.911476	0.500005
C43	C	1.472094	0.550031	-0.000000
C44	C	1.972094	1.050031	0.500000
N45	N	1.512039	0.146891	0.456276
N46	N	2.012039	0.646891	0.956276
N47	N	1.439181	0.219899	-0.456249
N48	N	1.939181	0.719899	0.043751
H49	H	1.124853	-0.013620	0.000004
H50	H	1.624853	0.486380	0.500004
F51	F	0.896893	0.302480	0.000013
F52	F	1.396893	0.802480	0.500013
F53	F	1.341969	0.317304	0.445460
F54	F	1.841969	0.817304	0.945460
H55	H	1.381100	-0.385545	0.000013
H56	H	1.881100	0.114455	0.500013
F57	F	0.862561	-0.048988	0.000024
F58	F	1.362561	0.451012	0.500024
H59	H	1.679189	-0.216392	0.000023
H60	H	2.179189	0.283608	0.500023
F61	F	1.700571	-0.485631	0.000016
F62	F	2.200571	0.014369	0.500016
F63	F	1.356524	-0.237886	-0.000006
F64	F	1.856524	0.262114	0.499994
H65	H	1.044549	0.277906	-0.000003
H66	H	1.544549	0.777906	0.499997
F67	F	1.609269	0.049493	0.554575
F68	F	2.109269	0.549493	1.054575
