data_functionalizedCrystal
_audit_creation_method	'MofGen! by Chris Wilmer'
_symmetry_space_group_name_H-M	'P1'
_symmetry_Int_Tables_number	1
_symmetry_cell_setting	triclinic
loop_
_symmetry_equiv_pos_as_xyz
  x,y,z
_cell_length_a	14.560432
_cell_length_b	14.628931
_cell_length_c	14.560432
_cell_angle_alpha	90.000582
_cell_angle_beta	60.000130
_cell_angle_gamma	60.001112
loop_
_atom_site_label
_atom_site_type_symbol
_atom_site_fract_x
_atom_site_fract_y
_atom_site_fract_z
Zr1	Zr	1.005283	-0.119932	0.884754
O2	O	1.196883	-0.265890	0.738107
O3	O	0.813683	-0.075192	0.929710
O4	O	1.005284	-0.265893	0.929709
O5	O	1.005281	0.075244	0.738107
O6	O	1.005286	-0.265892	1.080848
O7	O	1.005282	-0.075188	0.738107
O8	O	0.662546	0.075238	1.080849
O9	O	1.348021	-0.265886	0.738106
O10	O	0.892492	-0.056106	1.061676
O11	O	0.892491	0.056159	0.948882
O12	O	1.118077	-0.168367	0.948882
O13	O	1.118075	-0.056102	0.836088
Zr14	Zr	1.005285	0.119991	1.125803
Zr15	Zr	1.005285	-0.119931	1.125803
Zr16	Zr	1.005283	0.119989	0.884754
Zr17	Zr	1.246331	-0.119927	0.884753
Zr18	Zr	0.764237	0.119985	1.125804
O19	O	1.196885	0.075250	1.080848
O20	O	1.196886	-0.265888	1.080847
O21	O	1.196882	0.075248	0.738107
O22	O	0.813685	0.265948	1.272451
O23	O	0.813686	-0.075190	1.272450
O24	O	0.813682	0.265946	0.929710
O25	O	1.005287	-0.075185	1.272450
O26	O	1.005284	0.265952	1.080849
O27	O	1.005283	0.265951	0.929710
O28	O	1.005286	0.075247	1.272450
O29	O	1.348023	-0.265885	0.929708
O30	O	0.662545	0.265944	1.080849
O31	O	0.662547	0.265945	1.272451
O32	O	0.662548	0.075239	1.272451
O33	O	1.348021	-0.075180	0.738106
O34	O	1.348022	-0.075179	0.929708
O35	O	0.892491	0.168426	1.061676
O36	O	0.892493	0.056160	1.174469
O37	O	1.118077	-0.056101	1.061675
O38	O	1.118076	0.056164	0.948882
C39	C	0.703770	0.000022	1.005279
C40	C	0.601439	0.000020	1.005280
C41	C	1.005281	0.000028	0.703763
C42	C	1.005280	0.000027	0.601431
C43	C	1.005283	0.300135	1.005279
C44	C	1.005283	0.401988	1.005279
C45	C	0.601434	-0.117197	1.123026
C46	C	0.553361	-0.175807	1.181893
C47	C	0.457211	-0.175805	1.181890
C48	C	0.409131	-0.117184	1.123016
C49	C	0.457204	-0.058574	1.064148
C50	C	0.553359	-0.058585	1.064155
C51	C	0.457203	0.058649	0.946410
C52	C	0.553359	0.058641	0.946405
C53	C	0.409122	0.117270	0.887536
C54	C	0.457203	0.175875	0.828661
C55	C	0.553359	0.175869	0.828665
C56	C	0.601432	0.117251	0.887538
C57	C	1.306798	0.000036	1.005278
C58	C	1.409129	0.000039	1.005278
C59	C	1.005285	-0.300076	1.005278
C60	C	1.005285	-0.401930	1.005278
C61	C	1.117188	0.391708	0.949326
C62	C	1.117190	0.496977	0.949325
C63	C	1.005271	0.165795	0.409145
C64	C	1.005269	0.248672	0.457226
C65	C	1.005272	0.248670	0.553374
C66	C	1.005273	0.165784	0.601445
C67	C	1.005275	0.082906	0.553364
C68	C	1.005276	0.082915	0.457212
C69	C	1.005282	-0.082850	0.553350
C70	C	1.005289	-0.082855	0.457197
C71	C	1.005284	-0.165737	0.601422
C72	C	1.005295	-0.248621	0.553336
C73	C	1.005293	-0.248616	0.457181
C74	C	1.005291	-0.165732	0.409116
C75	C	1.005287	0.000031	1.306794
C76	C	1.005288	0.000031	1.409126
C77	C	0.703773	0.000024	1.306795
C78	C	0.601443	0.000022	1.409127
C79	C	0.703769	0.300128	1.005280
C80	C	0.601438	0.401979	1.005280
C81	C	0.703772	0.300130	1.306796
C82	C	0.601442	0.401981	1.409128
C83	C	1.306796	-0.300071	0.703762
C84	C	1.409126	-0.401922	0.601430
C85	C	1.306795	0.000035	0.703762
C86	C	1.409125	0.000036	0.601430
C87	C	1.306799	-0.300069	1.005278
C88	C	1.409130	-0.401920	1.005277
C89	C	0.555820	-0.055671	1.398797
C90	C	0.450057	-0.055674	1.504561
C91	C	0.555816	0.503079	1.061234
C92	C	0.450051	0.608348	1.061235
C93	C	0.555820	0.391698	1.510703
C94	C	0.450056	0.496966	1.616470
H95	H	0.679736	-0.117217	1.123022
H96	H	1.005278	-0.165731	0.679715
C97	C	0.707199	0.117241	0.887550
N98	N	0.786859	0.117235	0.887566
H99	H	0.330826	0.117274	0.887544
C100	C	0.548432	0.519155	1.397421
N101	N	0.508504	0.607411	1.388600
H102	H	0.595066	-0.103353	1.311652
H103	H	0.443656	0.511333	0.957382
H104	H	0.595062	0.511700	1.109131
H105	H	0.592514	-0.223534	1.229831
C106	C	0.548434	0.064436	1.526853
N107	N	0.508508	0.112956	1.615526
H108	H	0.443660	0.047709	1.614809
H109	H	0.418065	-0.223525	1.229830
C110	C	0.397054	0.485303	1.734190
N111	N	0.357132	0.476519	1.822860
H112	H	0.330829	-0.117175	1.123030
C113	C	0.397049	0.725516	1.125955
N114	N	0.357126	0.813771	1.174703
C115	C	0.548429	0.390324	0.940563
N116	N	0.508503	0.381543	0.891817
H117	H	0.595065	0.304964	1.519367
H118	H	1.212996	0.488351	0.901425
H119	H	0.443659	0.606697	1.519000
H120	H	0.418042	0.223605	0.780735
C121	C	1.005275	-0.339775	0.606231
N122	N	1.005257	-0.408432	0.646077
H123	H	0.592493	0.223598	0.780729
C124	C	0.875845	0.609738	1.069998
N125	N	0.778351	0.618520	1.118743
H126	H	1.005260	0.165795	0.679742
C127	C	1.246620	0.274535	0.884608
N128	N	1.344113	0.186280	0.835863
C129	C	1.005281	0.165798	0.303373
N130	N	1.005286	0.165804	0.223704
C131	C	0.397053	-0.120087	1.492844
N132	N	0.357128	-0.168605	1.484019
H133	H	1.005265	0.316159	0.418079
C134	C	1.005290	-0.339787	0.404303
N135	N	1.005287	-0.408458	0.364478
H136	H	1.005264	0.316159	0.592525
C137	C	1.005286	-0.165718	0.303351
N138	N	1.005276	-0.165700	0.223691
H139	H	0.909479	0.488723	1.053176
