data_functionalizedCrystal
_audit_creation_method	'MofGen! by Chris Wilmer'
_symmetry_space_group_name_H-M	'P1'
_symmetry_Int_Tables_number	1
_symmetry_cell_setting	triclinic
loop_
_symmetry_equiv_pos_as_xyz
  x,y,z
_cell_length_a	16.109302
_cell_length_b	27.732048
_cell_length_c	15.186229
_cell_angle_alpha	90.016934
_cell_angle_beta	90.009858
_cell_angle_gamma	83.052218
loop_
_atom_site_label
_atom_site_type_symbol
_atom_site_fract_x
_atom_site_fract_y
_atom_site_fract_z
O1	O	1.102365	0.062137	0.073278
O2	O	0.860208	0.069869	0.073272
O3	O	0.988807	-0.004362	0.073258
O4	O	0.973766	0.136368	0.073292
O5	O	0.988790	-0.004374	-0.073199
O6	O	0.860190	0.069857	-0.073185
O7	O	1.102348	0.062125	-0.073179
Zn8	Zn	0.981267	0.065989	-0.096436
Zn9	Zn	0.981289	0.066005	0.096528
O10	O	0.973748	0.136356	-0.073166
C11	C	0.829228	0.069550	0.000043
C12	C	0.736944	0.068610	0.000040
C13	C	0.524621	0.066432	-0.079786
C14	C	0.437912	0.065545	-0.079783
C15	C	0.437941	0.065560	0.079893
C16	C	0.524649	0.066444	0.079889
C17	C	0.567987	0.066883	0.000047
C18	C	0.394569	0.065111	0.000053
C19	C	0.300555	0.064149	0.000057
C20	C	0.662007	0.067844	0.000043
C21	C	0.988483	-0.022376	0.000027
C22	C	0.987532	-0.076035	0.000020
C23	C	1.057541	-0.414557	0.000067
C24	C	1.054013	-0.616232	0.000079
O25	O	1.118031	-0.647219	0.000119
N26	N	0.977759	-0.635675	0.000076
C27	C	0.902381	-0.604696	0.000077
O28	O	0.837441	-0.625861	0.000084
C29	C	0.905910	-0.403022	0.000071
C30	C	0.982169	-0.383582	0.000064
C31	C	1.133794	-0.395117	0.000062
C32	C	1.134675	-0.344701	0.000054
C33	C	1.059303	-0.313726	0.000051
C34	C	0.983050	-0.333167	0.000057
C35	C	0.830533	-0.372044	0.000077
C36	C	0.831422	-0.321623	0.000078
C37	C	0.907681	-0.302183	0.000072
C38	C	0.908559	-0.251776	0.000046
N39	N	0.984813	-0.232333	0.000049
C40	C	1.060185	-0.263308	0.000051
C41	C	0.900534	-0.710577	0.000078
C42	C	0.899652	-0.760996	0.000078
C43	C	1.051284	-0.772528	0.000082
C44	C	1.052165	-0.722109	0.000076
C45	C	0.976788	-0.691134	0.000081
C46	C	1.062030	-0.157431	0.000034
C47	C	1.062904	-0.107010	0.000023
C48	C	0.911272	-0.095482	0.000023
C49	C	0.910397	-0.145898	0.000030
C50	C	0.985783	-0.176872	0.000038
O51	O	0.844576	-0.220760	0.000016
O52	O	1.125116	-0.242134	0.000064
C53	C	1.056660	-0.464973	0.000075
C54	C	0.980407	-0.484413	0.000080
C55	C	0.905035	-0.453438	0.000078
C56	C	0.979524	-0.534832	0.000080
C57	C	1.054896	-0.565807	0.000082
C58	C	1.131151	-0.546364	0.000085
C59	C	1.132032	-0.495948	0.000077
C60	C	0.828780	-0.472881	0.000075
C61	C	0.827905	-0.523298	0.000082
C62	C	0.903277	-0.554273	0.000084
C63	C	1.133328	0.062444	0.000052
C64	C	1.225611	0.063384	0.000061
C65	C	0.974073	0.154370	0.000067
C66	C	0.975023	0.208029	0.000080
N67	N	0.981257	0.065978	-0.228128
C68	C	0.931239	0.036675	-0.546089
C69	C	0.931232	0.036668	-0.453899
C70	C	1.031329	0.095317	-0.453825
C71	C	1.031340	0.095321	-0.546013
C72	C	0.981290	0.066001	-0.592142
C73	C	0.981272	0.065990	-0.407765
C74	C	0.981265	0.065982	-0.307809
C75	C	0.981298	0.066007	-0.692105
N76	N	0.981305	0.066012	0.228221
H77	H	1.125006	-0.091186	0.000015
H78	H	0.402608	0.065178	-0.144791
H79	H	1.112655	-0.797757	0.000084
H80	H	0.890486	0.012800	-0.583645
H81	H	0.765801	-0.539120	0.000079
O82	O	0.756504	-0.390976	0.000210
C83	C	0.751458	-0.419768	0.076079
H84	H	0.817155	-0.432333	0.101356
H85	H	0.718729	-0.452778	0.059034
H86	H	0.714410	-0.397475	0.129197
H87	H	1.072077	0.119189	-0.416255
H88	H	0.890476	0.012787	-0.416407
H89	H	0.559904	0.066789	-0.144799
O90	O	0.395707	0.065159	0.157368
C91	C	0.309879	0.064271	0.140255
H92	H	0.294385	0.079437	0.071645
H93	H	0.271355	0.087394	0.191247
H94	H	0.294494	0.025266	0.144035
H95	H	1.123416	-0.182644	0.000044
H96	H	1.195174	-0.420332	0.000067
H97	H	1.114262	-0.706285	0.000071
O98	O	0.825500	-0.779796	0.000113
C99	C	0.759170	-0.741640	0.000091
H100	H	0.782036	-0.707388	0.027816
H101	H	0.705894	-0.752162	0.042613
H102	H	0.735943	-0.734514	-0.070172
O103	O	0.566647	0.066903	0.157522
C104	C	0.509807	0.066319	0.227994
H105	H	0.444354	0.080981	0.204599
H106	H	0.529294	0.090032	0.283833
H107	H	0.509812	0.027472	0.252535
H108	H	0.848301	-0.161727	0.000011
O109	O	1.208827	-0.325901	0.000094
C110	C	1.275154	-0.364060	0.000077
H111	H	1.252290	-0.398301	0.027804
H112	H	1.328441	-0.353525	0.042600
H113	H	1.298364	-0.371209	-0.070185
H114	H	0.839149	-0.685362	0.000082
H115	H	0.770039	-0.296405	0.000083
H116	H	0.849907	-0.070253	0.000018
H117	H	1.194130	-0.480125	0.000072
H118	H	1.192521	-0.571593	0.000083
O119	O	1.079984	0.123855	-0.590619
C120	C	1.124167	0.149727	-0.530137
H121	H	1.089709	0.152543	-0.464431
H122	H	1.128841	0.187738	-0.556749
H123	H	1.189678	0.129823	-0.520326
H124	H	0.767402	-0.447666	0.000075
