data_functionalizedCrystal
_audit_creation_method	'MofGen! by Chris Wilmer'
_symmetry_space_group_name_H-M	'P1'
_symmetry_Int_Tables_number	1
_symmetry_cell_setting	triclinic
loop_
_symmetry_equiv_pos_as_xyz
  x,y,z
_cell_length_a	9.065218
_cell_length_b	14.853567
_cell_length_c	8.140239
_cell_angle_alpha	90.000276
_cell_angle_beta	89.997198
_cell_angle_gamma	84.325408
loop_
_atom_site_label
_atom_site_type_symbol
_atom_site_fract_x
_atom_site_fract_y
_atom_site_fract_z
O1	O	1.957778	0.132191	-0.136602
O2	O	1.528278	0.143034	-0.136603
O3	O	1.754501	0.006468	-0.136607
O4	O	1.731555	0.268757	-0.136598
O5	O	1.754488	0.006466	0.136620
O6	O	1.528266	0.143032	0.136624
O7	O	1.957765	0.132189	0.136625
Zn8	Zn	1.743014	0.137611	0.180005
Zn9	Zn	1.743030	0.137613	-0.179983
O10	O	1.731543	0.268756	0.136630
C11	C	1.473306	0.141991	0.000010
C12	C	1.309525	0.138875	0.000009
C13	C	1.753455	-0.027130	0.000001
C14	C	1.750339	-0.127236	-0.000013
C15	C	1.602788	-0.540862	0.000018
C16	C	1.871546	-0.560154	0.000019
C17	C	1.874475	-0.466099	0.000009
C18	C	1.741559	-0.409421	0.000006
C19	C	1.605714	-0.446798	0.000013
C20	C	2.010318	-0.428714	0.000018
C21	C	2.013253	-0.334654	0.000011
C22	C	1.880335	-0.277974	-0.000004
C23	C	1.744484	-0.315356	0.000002
C24	C	1.611568	-0.258678	-0.000001
C25	C	1.475716	-0.296059	-0.000008
C26	C	1.472796	-0.390118	-0.000001
C27	C	1.883255	-0.183915	-0.000010
C28	C	1.614494	-0.164614	-0.000006
C29	C	2.012738	0.133232	0.000008
C30	C	2.176519	0.136348	-0.000001
C31	C	1.732589	0.302353	0.000017
C32	C	1.735704	0.402460	0.000021
N33	N	1.743013	0.137609	0.425688
N34	N	1.743042	0.137608	-0.425666
H35	H	1.506255	-0.118471	-0.000015
O36	O	2.145251	-0.298390	-0.000287
C37	C	2.226302	-0.327272	-0.141771
H38	H	2.146871	-0.347488	-0.240669
H39	H	2.289185	-0.269796	-0.189284
H40	H	2.308388	-0.387885	-0.109771
O41	O	1.470919	-0.577275	-0.000205
C42	C	1.461175	-0.631085	-0.141736
H43	H	1.577410	-0.653555	-0.188912
H44	H	1.402239	-0.693144	-0.109914
H45	H	1.395995	-0.590072	-0.240823
O46	O	1.340933	-0.426538	-0.000212
C47	C	1.331192	-0.480359	-0.141728
H48	H	1.447428	-0.502823	-0.188910
H49	H	1.272273	-0.542421	-0.109887
H50	H	1.265999	-0.439357	-0.240820
O51	O	2.000516	-0.615337	-0.000044
C52	C	1.968804	-0.706371	0.000014
H53	H	1.852919	-0.710927	-0.051712
H54	H	2.053515	-0.748287	-0.079304
H55	H	1.974335	-0.733513	0.131100
H56	H	1.993864	-0.153483	0.000006
H57	H	1.367496	-0.249899	0.000002
H58	H	2.118531	-0.474868	0.000036
