data_functionalizedCrystal
_audit_creation_method	'MofGen! by Chris Wilmer'
_symmetry_space_group_name_H-M	'P1'
_symmetry_Int_Tables_number	1
_symmetry_cell_setting	triclinic
loop_
_symmetry_equiv_pos_as_xyz
  x,y,z
_cell_length_a	18.215407
_cell_length_b	18.215405
_cell_length_c	21.395355
_cell_angle_alpha	90.019851
_cell_angle_beta	90.021756
_cell_angle_gamma	90.022344
loop_
_atom_site_label
_atom_site_type_symbol
_atom_site_fract_x
_atom_site_fract_y
_atom_site_fract_z
Zn1	Zn	1.125107	-0.293119	0.354209
Zn2	Zn	1.625107	0.206881	0.854209
Zn3	Zn	1.125005	-0.416168	0.249429
Zn4	Zn	1.625005	0.083832	0.749429
Zn5	Zn	1.002029	-0.293114	0.249451
Zn6	Zn	1.502029	0.206886	0.749451
Zn7	Zn	1.002006	-0.416143	0.354174
Zn8	Zn	1.502006	0.083857	0.854174
O9	O	1.063537	-0.354636	0.301816
O10	O	1.563537	0.145364	0.801816
O11	O	1.228078	-0.309454	0.340315
O12	O	1.728078	0.190546	0.840315
O13	O	1.108659	-0.399852	0.161754
O14	O	1.608659	0.100148	0.661754
O15	O	1.018408	-0.190131	0.263371
O16	O	1.518408	0.309869	0.763371
O17	O	1.228003	-0.399858	0.263334
O18	O	1.728003	0.100142	0.763334
O19	O	1.108833	-0.190134	0.340336
O20	O	1.608833	0.309866	0.840336
O21	O	1.018310	-0.309445	0.161770
O22	O	1.518310	0.190555	0.661770
O23	O	0.899042	-0.309422	0.263337
O24	O	1.399042	0.190578	0.763337
O25	O	1.018368	-0.399816	0.441857
O26	O	1.518368	0.100184	0.941857
O27	O	0.899024	-0.399811	0.340277
O28	O	1.399024	0.100189	0.840277
O29	O	1.108810	-0.309431	0.441882
O30	O	1.608810	0.190569	0.941882
O31	O	1.108636	-0.519149	0.263300
O32	O	1.608636	-0.019149	0.763300
O33	O	1.018269	-0.519131	0.340256
O34	O	1.518269	-0.019131	0.840256
C35	C	0.872331	-0.354614	0.301806
C36	C	1.372331	0.145386	0.801806
C37	C	0.790532	-0.354622	0.301817
C38	C	1.290532	0.145378	0.801817
C39	C	0.525484	-0.401779	0.341823
C40	C	1.025484	0.098221	0.841823
C41	C	0.602343	-0.401773	0.341820
C42	C	1.102343	0.098227	0.841820
C43	C	0.602331	-0.307510	0.261819
C44	C	1.102331	0.192490	0.761819
C45	C	0.525473	-0.307520	0.261819
C46	C	1.025473	0.192480	0.761819
C47	C	0.487052	-0.354654	0.301825
C48	C	0.987052	0.145346	0.801825
C49	C	0.640768	-0.354637	0.301822
C50	C	1.140768	0.145363	0.801822
C51	C	0.724102	-0.354630	0.301818
C52	C	1.224102	0.145370	0.801818
C53	C	0.403713	-0.354662	0.301828
C54	C	0.903713	0.145338	0.801828
C55	C	1.063459	-0.545842	0.301786
C56	C	1.563459	-0.045842	0.801786
C57	C	1.063493	-0.627641	0.301794
C58	C	1.563493	-0.127641	0.801794
C59	C	1.110658	-0.815820	0.261796
C60	C	1.610658	-0.315820	0.761796
C61	C	1.110691	-0.892679	0.261812
C62	C	1.610691	-0.392679	0.761812
C63	C	1.016510	-0.892700	0.341880
C64	C	1.516510	-0.392700	0.841880
C65	C	1.016481	-0.815843	0.341868
C66	C	1.516481	-0.315843	0.841868
C67	C	1.063554	-0.777405	0.301822
C68	C	1.563554	-0.277405	0.801822
C69	C	1.063616	-0.931121	0.301850
C70	C	1.563616	-0.431121	0.801850
C71	C	1.063651	-1.014454	0.301867
C72	C	1.563651	-0.514454	0.801867
C73	C	1.063520	-0.694066	0.301806
C74	C	1.563520	-0.194066	0.801806
C75	C	1.255490	-0.354659	0.301826
C76	C	1.755490	0.145341	0.801826
C77	C	1.337289	-0.354669	0.301830
C78	C	1.837289	0.145331	0.801830
C79	C	1.063598	-0.354621	0.465239
C80	C	1.563598	0.145379	0.965239
C81	C	1.063624	-0.354615	0.534880
C82	C	1.563624	0.145385	1.034880
C83	C	1.063635	-0.162683	0.301860
C84	C	1.563635	0.337317	0.801860
C85	C	1.063677	-0.080884	0.301878
C86	C	1.563677	0.419116	0.801878
C87	C	1.063518	-0.354598	0.139028
C88	C	1.563518	0.145402	0.639028
C89	C	1.063635	-0.354397	0.069387
C90	C	1.563635	0.145603	0.569387
C91	C	1.110715	-0.307549	0.567608
C92	C	1.610715	0.192451	1.067608
C93	C	1.110714	-0.307518	0.633043
C94	C	1.610714	0.192482	1.133043
C95	C	1.063630	-0.354565	0.665749
C96	C	1.563630	0.145435	1.165749
C97	C	1.016529	-0.401634	0.633013
C98	C	1.516529	0.098366	1.133013
C99	C	1.016526	-0.401659	0.567579
C100	C	1.516526	0.098341	1.067579
C101	C	1.057792	-0.420829	0.769413
C102	C	1.557792	0.079171	1.269413
C103	C	1.057800	-0.420805	0.834846
C104	C	1.557800	0.079195	1.334846
C105	C	1.063634	-0.354487	0.867570
C106	C	1.563634	0.145513	1.367570
C107	C	1.069476	-0.288191	0.834852
C108	C	1.569476	0.211809	1.334852
C109	C	1.069473	-0.288216	0.769418
C110	C	1.569473	0.211784	1.269418
C111	C	1.063627	-0.354542	0.736701
C112	C	1.563627	0.145458	1.236701
C113	C	1.110727	-0.307383	0.971250
C114	C	1.610727	0.192617	1.471250
C115	C	1.110721	-0.307350	1.036686
C116	C	1.610721	0.192650	1.536686
C117	C	1.016540	-0.401473	1.036655
C118	C	1.516540	0.098527	1.536655
C119	C	1.016542	-0.401499	0.971220
C120	C	1.516542	0.098501	1.471220
C121	C	1.063639	-0.354455	0.938521
C122	C	1.563639	0.145545	1.438521
H123	H	0.633622	-0.269134	0.229249
H124	H	1.133622	0.230866	0.729249
H125	H	1.052844	-0.474819	0.742775
H126	H	1.552844	0.025181	1.242775
H127	H	1.074228	-0.234189	0.861494
H128	H	1.574228	0.265811	1.361494
H129	H	0.978124	-0.784563	0.374464
H130	H	1.478124	-0.284563	0.874464
N131	N	0.965733	-0.934155	0.385066
N132	N	1.465733	-0.434155	0.885066
H133	H	0.995631	-0.966005	0.414130
H134	H	1.495631	-0.466005	0.914130
H135	H	0.931666	-0.966040	0.359536
H136	H	1.431666	-0.466040	0.859536
H137	H	0.978190	-0.439937	0.659646
H138	H	1.478190	0.060063	1.159646
H139	H	1.149065	-0.269242	0.540988
H140	H	1.649065	0.230758	1.040988
N141	N	1.161436	-0.774358	0.218616
N142	N	1.661436	-0.274358	0.718616
H143	H	1.131538	-0.742511	0.189550
H144	H	1.631538	-0.242511	0.689550
H145	H	1.191273	-0.810404	0.193306
H146	H	1.691273	-0.310404	0.693306
N147	N	1.161507	-0.256752	0.668353
N148	N	1.661507	0.243248	1.168353
H149	H	1.191341	-0.226954	0.637709
H150	H	1.691341	0.273046	1.137709
H151	H	1.195545	-0.286709	0.695510
H152	H	1.695545	0.213291	1.195510
H153	H	0.494181	-0.269144	0.229245
H154	H	0.994181	0.230856	0.729245
N155	N	1.161494	-0.934106	0.218635
N156	N	1.661494	-0.434106	0.718635
H157	H	1.131615	-0.966037	0.189583
H158	H	1.631615	-0.466037	0.689583
H159	H	1.195589	-0.965908	0.244170
H160	H	1.695589	-0.465908	0.744170
H161	H	1.149067	-0.269020	1.063332
H162	H	1.649067	0.230980	1.563332
H163	H	0.978195	-0.439772	1.063283
H164	H	1.478195	0.060228	1.563283
H165	H	1.074228	-0.234236	0.742782
H166	H	1.574228	0.265764	1.242782
N167	N	0.484049	-0.452624	0.384965
N168	N	0.984049	0.047376	0.884965
H169	H	0.452141	-0.486688	0.359450
H170	H	0.952141	0.013312	0.859450
H171	H	0.452223	-0.422721	0.414040
H172	H	0.952223	0.077279	0.914040
N173	N	0.643790	-0.452605	0.384961
N174	N	1.143790	0.047395	0.884961
H175	H	0.630440	-0.441249	0.429745
H176	H	1.130440	0.058751	0.929745
H177	H	0.698297	-0.445429	0.378838
H178	H	1.198297	0.054571	0.878838
H179	H	1.149072	-0.269073	0.944625
H180	H	1.649072	0.230927	1.444625
H181	H	0.978200	-0.439829	0.944573
H182	H	1.478200	0.060171	1.444573
N183	N	1.051505	-0.492305	0.870132
N184	N	1.551505	0.007695	1.370132
H185	H	1.047799	-0.534320	0.839474
H186	H	1.547799	-0.034320	1.339474
H187	H	1.006163	-0.491227	0.897269
H188	H	1.506163	0.008773	1.397269
N189	N	0.965723	-0.452414	0.532276
N190	N	1.465723	0.047586	1.032276
H191	H	0.935888	-0.482209	0.562921
H192	H	1.435888	0.017791	1.062921
H193	H	0.995651	-0.486490	0.505132
H194	H	1.495651	0.013510	1.005132
