data_functionalizedCrystal
_audit_creation_method	'MofGen! by Chris Wilmer'
_symmetry_space_group_name_H-M	'P1'
_symmetry_Int_Tables_number	1
_symmetry_cell_setting	triclinic
loop_
_symmetry_equiv_pos_as_xyz
  x,y,z
_cell_length_a	18.215407
_cell_length_b	16.625546
_cell_length_c	18.215399
_cell_angle_alpha	90.029595
_cell_angle_beta	90.019350
_cell_angle_gamma	90.022916
loop_
_atom_site_label
_atom_site_type_symbol
_atom_site_fract_x
_atom_site_fract_y
_atom_site_fract_z
Zn1	Zn	1.125081	-0.320997	0.416110
Zn2	Zn	1.124995	-0.455838	0.293041
Zn3	Zn	1.002014	-0.321024	0.293057
Zn4	Zn	1.001984	-0.455792	0.416066
O5	O	1.063519	-0.388413	0.354568
O6	O	1.228054	-0.338892	0.399796
O7	O	1.108659	-0.437985	0.190059
O8	O	1.018388	-0.208188	0.309405
O9	O	1.227991	-0.437959	0.309378
O10	O	1.108804	-0.208168	0.399812
O11	O	1.018305	-0.338938	0.190070
O12	O	0.899026	-0.338894	0.309363
O13	O	1.018337	-0.437881	0.519056
O14	O	0.899004	-0.437907	0.399737
O15	O	1.108775	-0.338847	0.519088
O16	O	1.108629	-0.568664	0.309335
O17	O	1.018254	-0.568631	0.399721
C18	C	0.872313	-0.388399	0.354547
C19	C	0.790514	-0.388413	0.354556
C20	C	1.063449	-0.597904	0.354537
C21	C	1.063487	-0.687525	0.354549
C22	C	0.602327	-0.440050	0.401554
C23	C	0.525469	-0.440053	0.401563
C24	C	0.525462	-0.336790	0.307598
C25	C	0.602319	-0.336784	0.307593
C26	C	0.640750	-0.388419	0.354570
C27	C	0.487034	-0.388427	0.354584
C28	C	0.403700	-0.388430	0.354594
C29	C	0.724089	-0.388416	0.354562
C30	C	1.063615	-1.015700	0.354625
C31	C	1.063577	-0.924392	0.354606
C32	C	1.063550	-0.851616	0.354587
C33	C	1.063513	-0.760301	0.354568
C34	C	1.255472	-0.388427	0.354590
C35	C	1.337271	-0.388433	0.354599
C36	C	1.063562	-0.388356	0.546521
C37	C	1.063580	-0.388331	0.628320
C38	C	1.063609	-0.178104	0.354615
C39	C	1.063647	-0.088483	0.354635
C40	C	1.063518	-0.388412	0.163362
C41	C	1.063642	-0.388209	0.081563
C42	C	1.110699	-0.336695	0.893396
C43	C	1.110690	-0.336717	0.816537
C44	C	1.016522	-0.439851	0.816493
C45	C	1.016535	-0.439833	0.893351
C46	C	1.063622	-0.388250	0.931800
C47	C	1.063601	-0.388290	0.778084
C48	C	1.063591	-0.388314	0.694750
C49	C	1.063633	-0.388227	1.015139
H50	H	0.494188	-0.482095	0.439823
O51	O	0.643764	-0.281090	0.256915
H52	H	0.703663	-0.289755	0.264811
O53	O	1.161466	-0.281108	0.775118
H54	H	1.198896	-0.317206	0.740107
O55	O	0.643782	-0.495718	0.452237
H56	H	0.678775	-0.536702	0.419242
O57	O	0.484013	-0.281127	0.256907
H58	H	0.424114	-0.289817	0.264790
O59	O	1.161491	-0.281072	0.934870
H60	H	1.194230	-0.245233	0.895250
H61	H	0.978184	-0.481846	0.785178
H62	H	0.978199	-0.481819	0.924620
