data_functionalizedCrystal
_audit_creation_method	'MofGen! by Chris Wilmer'
_symmetry_space_group_name_H-M	'P1'
_symmetry_Int_Tables_number	1
_symmetry_cell_setting	triclinic
loop_
_symmetry_equiv_pos_as_xyz
  x,y,z
_cell_length_a	9.065218
_cell_length_b	10.489741
_cell_length_c	8.140239
_cell_angle_alpha	89.996756
_cell_angle_beta	89.997198
_cell_angle_gamma	84.777530
loop_
_atom_site_label
_atom_site_type_symbol
_atom_site_fract_x
_atom_site_fract_y
_atom_site_fract_z
O1	O	1.959494	0.187043	-0.136617
O2	O	1.530135	0.202385	-0.136619
O3	O	1.754585	0.009151	-0.136608
O4	O	1.735045	0.380276	-0.136628
O5	O	1.754572	0.009149	0.136619
O6	O	1.530123	0.202383	0.136608
O7	O	1.959482	0.187040	0.136610
Zn8	Zn	1.744800	0.194711	0.179990
Zn9	Zn	1.744817	0.194714	-0.179999
O10	O	1.735032	0.380274	0.136599
C11	C	1.475149	0.200909	-0.000006
C12	C	1.311328	0.196501	-0.000006
C13	C	1.753102	-0.038387	0.000004
C14	C	1.748687	-0.180032	0.000001
C15	C	1.605877	-0.248688	-0.000011
C16	C	1.673333	-0.340568	0.134704
C17	C	1.673379	-0.340540	-0.134676
C18	C	1.816202	-0.270047	0.134828
C19	C	1.816228	-0.270009	-0.134673
C20	C	1.883788	-0.361862	0.000075
C21	C	2.014467	0.188516	-0.000007
C22	C	2.178289	0.192925	-0.000017
C23	C	1.736514	0.427812	-0.000017
C24	C	1.740930	0.569458	-0.000025
N25	N	1.744800	0.194708	0.425672
N26	N	1.744829	0.194707	-0.425681
H27	H	1.488459	-0.199461	0.000124
Br28	Br	1.916830	-0.218307	0.324866
Br29	Br	1.572617	-0.392621	0.324535
H30	H	1.612940	-0.371722	-0.248579
H31	H	1.876609	-0.238746	-0.248571
Br32	Br	2.079666	-0.443535	0.000189
