data_functionalizedCrystal
_audit_creation_method	'MofGen! by Chris Wilmer'
_symmetry_space_group_name_H-M	'P1'
_symmetry_Int_Tables_number	1
_symmetry_cell_setting	triclinic
loop_
_symmetry_equiv_pos_as_xyz
  x,y,z
_cell_length_a	14.908571
_cell_length_b	16.625546
_cell_length_c	16.625539
_cell_angle_alpha	89.971468
_cell_angle_beta	86.690369
_cell_angle_gamma	86.718495
loop_
_atom_site_label
_atom_site_type_symbol
_atom_site_fract_x
_atom_site_fract_y
_atom_site_fract_z
Zn1	Zn	1.379176	-0.392256	-0.526895
Zn2	Zn	1.879176	0.107744	-0.026895
Zn3	Zn	1.379077	-0.527090	-0.392052
Zn4	Zn	1.879077	-0.027090	0.107948
Zn5	Zn	1.228319	-0.384488	-0.384309
Zn6	Zn	1.728319	0.115512	0.115691
Zn7	Zn	1.228277	-0.519256	-0.519079
Zn8	Zn	1.728277	-0.019256	-0.019079
O9	O	1.303713	-0.455773	-0.455584
O10	O	1.803713	0.044227	0.044416
O11	O	1.505408	-0.416672	-0.515519
O12	O	2.005408	0.083328	-0.015519
O13	O	1.359055	-0.508201	-0.278191
O14	O	1.859055	-0.008201	0.221809
O15	O	1.248390	-0.272689	-0.403254
O16	O	1.748390	0.227311	0.096746
O17	O	1.505335	-0.515734	-0.416450
O18	O	2.005335	-0.015734	0.083550
O19	O	1.359224	-0.278397	-0.508011
O20	O	1.859224	0.221603	-0.008011
O21	O	1.248294	-0.403432	-0.272503
O22	O	1.748294	0.096568	0.227497
O23	O	1.102069	-0.395835	-0.395676
O24	O	1.602069	0.104165	0.104324
O25	O	1.248318	-0.502382	-0.632949
O26	O	1.748318	-0.002382	-0.132949
O27	O	1.102038	-0.494849	-0.494690
O28	O	1.602038	0.005151	0.005310
O29	O	1.359183	-0.409076	-0.638692
O30	O	1.859183	0.090924	-0.138692
O31	O	1.359014	-0.638880	-0.408872
O32	O	1.859014	-0.138880	0.091128
O33	O	1.248222	-0.633125	-0.502198
O34	O	1.748222	-0.133125	-0.002198
C35	C	1.069320	-0.443650	-0.443495
C36	C	1.569320	0.056350	0.056505
C37	C	0.969046	-0.438483	-0.438343
C38	C	1.469046	0.061517	0.061657
C39	C	0.780636	-0.532037	-0.531626
C40	C	1.280636	-0.032037	-0.031626
C41	C	0.686419	-0.527184	-0.526788
C42	C	1.186419	-0.027184	-0.026788
C43	C	0.686394	-0.423923	-0.423832
C44	C	1.186394	0.076077	0.076168
C45	C	0.780611	-0.428775	-0.428671
C46	C	1.280611	0.071225	0.071329
C47	C	0.827728	-0.482834	-0.482569
C48	C	1.327728	0.017166	0.017431
C49	C	0.921946	-0.487690	-0.487402
C50	C	1.421946	0.012310	0.012598
C51	C	0.921920	-0.384425	-0.384451
C52	C	1.421920	0.115575	0.115549
C53	C	0.827703	-0.379573	-0.379613
C54	C	1.327703	0.120427	0.120387
C55	C	1.303627	-0.665259	-0.455546
C56	C	1.803627	-0.165259	0.044454
C57	C	1.303673	-0.754883	-0.455561
C58	C	1.803673	-0.254883	0.044439
C59	C	1.303831	-1.083066	-0.455653
C60	C	1.803831	-0.583066	0.044347
C61	C	1.303784	-0.991755	-0.455629
C62	C	1.803784	-0.491755	0.044371
C63	C	1.303751	-0.918977	-0.455606
C64	C	1.803751	-0.418977	0.044394
C65	C	1.303706	-0.827661	-0.455583
C66	C	1.803706	-0.327661	0.044417
C67	C	1.539021	-0.467944	-0.467720
C68	C	2.039021	0.032056	0.032280
C69	C	1.639295	-0.473130	-0.472892
C70	C	2.139295	0.026870	0.027108
C71	C	1.303757	-0.455722	-0.665895
C72	C	1.803757	0.044278	-0.165895
C73	C	1.303776	-0.455700	-0.755517
C74	C	1.803776	0.044300	-0.255517
C75	C	1.303823	-0.245469	-0.455641
C76	C	1.803823	0.254531	0.044359
C77	C	1.303870	-0.155851	-0.455665
C78	C	1.803870	0.344149	0.044335
C79	C	1.303790	-0.455683	-0.828300
C80	C	1.803790	0.044317	-0.328300
C81	C	1.303811	-0.455654	-0.919610
C82	C	1.803811	0.044346	-0.419610
C83	C	1.303833	-0.455627	-0.992388
C84	C	1.803833	0.044373	-0.492388
C85	C	1.303855	-0.455599	-1.083703
C86	C	1.803855	0.044401	-0.583703
C87	C	1.303720	-0.455768	-0.246093
C88	C	1.803720	0.044232	0.253907
C89	C	1.303876	-0.455571	-0.156481
C90	C	1.803876	0.044429	0.343519
H91	H	0.648015	-0.379905	-0.379957
H92	H	1.148015	0.120095	0.120043
H93	H	0.960308	-0.531710	-0.531287
H94	H	1.460308	-0.031710	-0.031287
H95	H	0.648080	-0.567248	-0.566737
H96	H	1.148080	-0.067248	-0.066737
H97	H	0.789327	-0.335557	-0.335733
H98	H	1.289327	0.164443	0.164267
H99	H	0.960273	-0.344362	-0.344503
H100	H	1.460273	0.155638	0.155497
H101	H	0.818999	-0.576058	-0.575507
H102	H	1.318999	-0.076058	-0.075507
