data_functionalizedCrystal
_audit_creation_method	'MofGen! by Chris Wilmer'
_symmetry_space_group_name_H-M	'P1'
_symmetry_Int_Tables_number	1
_symmetry_cell_setting	triclinic
loop_
_symmetry_equiv_pos_as_xyz
  x,y,z
_cell_length_a	14.971506
_cell_length_b	10.967829
_cell_length_c	14.048226
_cell_angle_alpha	77.865708
_cell_angle_beta	89.993237
_cell_angle_gamma	84.178402
loop_
_atom_site_label
_atom_site_type_symbol
_atom_site_fract_x
_atom_site_fract_y
_atom_site_fract_z
O1	O	1.187812	0.162740	-0.105861
O2	O	0.927519	0.182188	-0.109051
O3	O	1.063667	-0.009178	-0.077656
O4	O	1.051664	0.354106	-0.137257
O5	O	1.063650	-0.009190	0.080667
O6	O	0.927503	0.182176	0.049272
O7	O	1.187796	0.162729	0.052462
Zn8	Zn	1.057646	0.172451	0.076004
Zn9	Zn	1.057668	0.172466	-0.132593
O10	O	1.051648	0.354094	0.021067
C11	C	0.894182	0.181308	-0.029746
C12	C	0.794871	0.178688	-0.029317
C13	C	1.062784	-0.055675	0.009131
C14	C	1.060167	-0.194205	0.031853
C15	C	0.357141	0.281114	-0.046131
C16	C	0.450454	0.283566	-0.046537
C17	C	0.507068	0.171131	-0.028087
C18	C	0.470365	0.056237	-0.009238
C19	C	0.377053	0.053786	-0.008839
C20	C	0.664856	0.061352	-0.010069
C21	C	0.758174	0.063802	-0.010467
C22	C	0.738256	0.291132	-0.047768
C23	C	0.644945	0.288681	-0.047368
C24	C	0.608248	0.173787	-0.028518
C25	C	1.059010	-0.255955	-0.040035
C26	C	1.056305	-0.399133	-0.016553
C27	C	1.221133	0.163609	-0.026845
C28	C	1.320443	0.166228	-0.027281
C29	C	1.052531	0.400592	-0.065723
C30	C	1.055147	0.539122	-0.088450
N31	N	1.057638	0.172440	0.218367
N32	N	1.057684	0.172467	-0.274954
C33	C	1.117944	0.087738	0.282081
C34	C	1.117950	0.087737	0.381739
C35	C	1.057654	0.172445	0.417679
C36	C	0.997342	0.257151	0.353957
C37	C	0.997332	0.257145	0.254303
C38	C	0.997368	0.257160	0.561670
C39	C	0.997378	0.257168	0.661331
C40	C	1.117985	0.087753	0.689106
C41	C	1.117975	0.087746	0.589451
C42	C	1.057664	0.172454	0.525736
H43	H	0.311051	0.372672	-0.061148
F44	F	0.489505	0.405842	-0.066604
H45	H	1.055289	-0.452260	0.062382
F46	F	0.933201	0.347325	0.699574
F47	F	0.818426	-0.055863	0.009164
F48	F	1.182124	-0.002416	0.243840
H49	H	1.167077	0.018777	0.560189
H50	H	0.634981	-0.032207	0.005276
H51	H	0.948253	0.326134	0.509796
F52	F	1.058840	-0.263647	0.135021
F53	F	1.182132	-0.002413	0.449549
H54	H	0.516468	-0.035310	0.005779
F55	F	0.584693	0.408347	-0.067000
H56	H	1.167092	0.018781	0.740990
F57	F	0.777312	0.413412	-0.067822
H58	H	0.948243	0.326118	0.383226
H59	H	0.948224	0.326116	0.202426
F60	F	1.060346	-0.186515	-0.143203
F61	F	0.337998	-0.068490	0.011224
F62	F	1.056440	-0.391438	-0.191626
