data_functionalizedCrystal
_audit_creation_method	'MofGen! by Chris Wilmer'
_symmetry_space_group_name_H-M	'P1'
_symmetry_Int_Tables_number	1
_symmetry_cell_setting	triclinic
loop_
_symmetry_equiv_pos_as_xyz
  x,y,z
_cell_length_a	27.732048
_cell_length_b	19.188930
_cell_length_c	18.266242
_cell_angle_alpha	90.022918
_cell_angle_beta	89.988683
_cell_angle_gamma	97.106284
loop_
_atom_site_label
_atom_site_type_symbol
_atom_site_fract_x
_atom_site_fract_y
_atom_site_fract_z
O1	O	0.060348	-0.925764	-0.061124
O2	O	0.068472	-0.722401	-0.061075
O3	O	-0.005968	-0.830399	-0.061087
O4	O	0.134787	-0.817767	-0.061112
O5	O	-0.005971	-0.830381	0.060675
O6	O	0.068468	-0.722383	0.060687
O7	O	0.060344	-0.925746	0.060638
Zn8	Zn	0.064405	-0.824062	0.079995
Zn9	Zn	0.064410	-0.824086	-0.080432
O10	O	0.134783	-0.817749	0.060650
C11	C	0.068207	-0.696383	-0.000187
C12	C	0.067417	-0.618883	-0.000168
C13	C	-0.023977	-0.830125	-0.000204
C14	C	-0.077635	-0.829326	-0.000198
C15	C	0.060609	-0.951765	-0.000251
C16	C	0.061399	-1.029264	-0.000275
C17	C	-0.416270	-0.888119	-0.000250
C18	C	-0.617939	-0.885157	-0.000259
O19	O	-0.649030	-0.938918	-0.000304
N20	N	-0.637258	-0.821118	-0.000243
C21	C	-0.606157	-0.757816	-0.000229
O22	O	-0.627217	-0.703280	-0.000223
C23	C	-0.404489	-0.760780	-0.000225
C24	C	-0.385173	-0.824822	-0.000234
C25	C	-0.396953	-0.952156	-0.000259
C26	C	-0.346539	-0.952896	-0.000253
C27	C	-0.315441	-0.889599	-0.000237
C28	C	-0.334759	-0.825562	-0.000227
C29	C	-0.373389	-0.697478	-0.000216
C30	C	-0.322969	-0.698225	-0.000217
C31	C	-0.303653	-0.762267	-0.000226
C32	C	-0.253247	-0.763005	-0.000205
N33	N	-0.233928	-0.827043	-0.000221
C34	C	-0.265025	-0.890340	-0.000237
C35	C	-0.712036	-0.756265	-0.000230
C36	C	-0.762452	-0.755524	-0.000230
C37	C	-0.774231	-0.882865	-0.000261
C38	C	-0.723813	-0.883605	-0.000256
C39	C	-0.692716	-0.820303	-0.000246
C40	C	-0.159151	-0.891889	-0.000223
C41	C	-0.108732	-0.892623	-0.000214
C42	C	-0.096958	-0.765283	-0.000186
C43	C	-0.147373	-0.764549	-0.000192
C44	C	-0.178468	-0.827857	-0.000213
O45	O	-0.222127	-0.709272	-0.000168
O46	O	-0.243956	-0.944868	-0.000259
C47	C	-0.466684	-0.887379	-0.000256
C48	C	-0.486001	-0.823342	-0.000246
C49	C	-0.454904	-0.760045	-0.000230
C50	C	-0.536418	-0.822601	-0.000246
C51	C	-0.567515	-0.885898	-0.000262
C52	C	-0.548195	-0.949936	-0.000278
C53	C	-0.497781	-0.950676	-0.000272
C54	C	-0.474223	-0.696007	-0.000214
C55	C	-0.524638	-0.695272	-0.000220
C56	C	-0.555735	-0.758569	-0.000236
C57	C	0.152793	-0.818023	-0.000235
C58	C	0.206450	-0.818821	-0.000246
N59	N	0.064402	-0.824051	0.189482
C60	C	0.111096	-0.573681	-0.000187
C61	C	0.110354	-0.500862	-0.000195
C62	C	0.065931	-0.473249	-0.000199
C63	C	0.022246	-0.518461	-0.000175
C64	C	0.022990	-0.591278	-0.000160
N65	N	0.031976	-0.365491	-0.041663
N66	N	0.031273	-0.296317	-0.041679
C67	C	0.063689	-0.253854	-0.000243
N68	N	0.096842	-0.283177	0.041201
N69	N	0.097546	-0.352358	0.041213
C70	C	0.065120	-0.394291	-0.000215
C71	C	0.106566	-0.129692	-0.000270
C72	C	0.105822	-0.056872	-0.000273
C73	C	0.017714	-0.074473	-0.000261
C74	C	0.018459	-0.147292	-0.000250
C75	C	0.062886	-0.174897	-0.000258
N76	N	0.064410	-0.824103	-0.189919
C77	C	0.031456	-0.871887	0.227785
C78	C	0.031454	-0.871892	0.304430
C79	C	0.064406	-0.824066	0.342769
C80	C	0.097354	-0.776220	0.304456
C81	C	0.097352	-0.776213	0.227813
N82	N	0.107196	-0.814718	0.463095
N83	N	0.107196	-0.814729	0.535903
C84	C	0.064413	-0.824086	0.573691
N85	N	0.021627	-0.833444	0.535921
N86	N	0.021628	-0.833436	0.463106
C87	C	0.064411	-0.824069	0.425876
C88	C	0.031462	-0.871930	0.695102
C89	C	0.031459	-0.871929	0.771748
C90	C	0.097363	-0.776261	0.771772
C91	C	0.097362	-0.776258	0.695127
C92	C	0.064412	-0.824096	0.656797
H93	H	-0.093007	-0.944776	-0.000219
O94	O	-0.000571	-0.918427	0.341535
C95	C	-0.065959	-1.013284	0.333428
C96	C	-0.029708	-0.960636	0.291319
H97	H	-0.089533	-1.047414	0.292847
H98	H	-0.045174	-1.047986	0.369267
H99	H	-0.090032	-0.983390	0.369354
H100	H	-0.005626	-0.990474	0.255354
H101	H	-0.050524	-0.925935	0.255527
O102	O	-0.025482	-0.047775	-0.000231
C103	C	-0.112793	-0.072917	-0.000258
C104	C	-0.063907	-0.103250	-0.000280
H105	H	-0.143873	-0.117754	-0.000314
H106	H	-0.115379	-0.039265	0.050705
H107	H	-0.115316	-0.039269	-0.051209
H108	H	-0.061351	-0.136930	0.050637
H109	H	-0.061343	-0.136863	-0.051277
O110	O	-0.427206	-1.013602	-0.000176
C111	C	-0.490942	-1.086691	0.062919
C112	C	-0.456720	-1.017066	0.062900
H113	H	-0.514805	-1.089521	0.113918
H114	H	-0.514869	-1.089556	0.011997
H115	H	-0.468457	-1.132569	0.062875
H116	H	-0.479166	-0.971149	0.062970
H117	H	-0.432791	-1.014263	0.113818
H118	H	0.124181	-0.737257	0.196625
H119	H	-0.013923	-0.495974	-0.000188
H120	H	0.124191	-0.737318	0.802987
H121	H	0.145923	-0.464051	-0.000209
O122	O	-0.019486	-0.635093	-0.000179
C123	C	-0.106955	-0.644866	-0.000122
C124	C	-0.058887	-0.595165	-0.000116
H125	H	-0.138823	-0.612604	-0.000056
H126	H	-0.108841	-0.679410	-0.051087
H127	H	-0.108784	-0.679385	0.050828
H128	H	-0.057026	-0.560601	-0.051032
H129	H	-0.057021	-0.560669	0.050882
O130	O	0.129297	-0.729735	0.341776
C131	C	0.139749	-0.634257	0.428326
C132	C	0.103522	-0.686878	0.386121
H133	H	0.118924	-0.599584	0.464177
H134	H	0.163841	-0.664104	0.464232
H135	H	0.163307	-0.600095	0.387768
H136	H	0.079932	-0.721054	0.426626
H137	H	0.079464	-0.656988	0.350204
H138	H	-0.163101	-0.712400	-0.000164
H139	H	0.147272	-0.596152	-0.000195
H140	H	0.004630	-0.910880	0.663892
O141	O	0.129416	-0.729768	0.658029
C142	C	0.194764	-0.634853	0.666144
C143	C	0.158496	-0.687481	0.708248
H144	H	0.218277	-0.600641	0.706728
H145	H	0.218893	-0.664695	0.630257
H146	H	0.173943	-0.600231	0.630267
H147	H	0.179276	-0.722117	0.744165
H148	H	0.134367	-0.657596	0.744089
H149	H	0.141392	-0.020068	-0.000285
H150	H	-0.071630	-0.713749	-0.000171
H151	H	0.004628	-0.910882	0.802935
O152	O	0.149763	-0.156397	-0.000237
C153	C	0.237074	-0.131256	-0.000293
C154	C	0.188189	-0.100923	-0.000312
H155	H	0.268154	-0.086420	-0.000369
H156	H	0.239655	-0.164856	0.050681
H157	H	0.239601	-0.164957	-0.051233
H158	H	0.185629	-0.067190	0.050594
H159	H	0.185628	-0.067362	-0.051320
H160	H	-0.017109	-0.184097	-0.000238
H161	H	-0.184464	-0.943441	-0.000243
O162	O	-0.681782	-0.694816	-0.000118
C163	C	-0.618057	-0.621711	0.063006
C164	C	-0.652281	-0.691334	0.062958
H165	H	-0.594205	-0.618866	0.114005
H166	H	-0.594119	-0.618864	0.012084
H167	H	-0.640540	-0.575831	0.062983
H168	H	-0.629837	-0.737253	0.063006
H169	H	-0.676221	-0.694119	0.113875
O170	O	-0.292832	-0.636668	-0.000175
C171	C	-0.286475	-0.510286	-0.000201
C172	C	-0.320659	-0.579946	-0.000233
H173	H	-0.308960	-0.464409	-0.000264
H174	H	-0.262593	-0.507386	0.050770
H175	H	-0.262559	-0.507497	-0.051144
H176	H	-0.344605	-0.582782	0.050675
H177	H	-0.344508	-0.582817	-0.051238
O178	O	-0.327859	-1.015169	-0.000300
C179	C	-0.344881	-1.141393	-0.000291
C180	C	-0.366095	-1.070915	-0.000252
H181	H	-0.375785	-1.186482	-0.000237
H182	H	-0.321584	-1.144983	-0.051261
H183	H	-0.321562	-1.144885	0.050654
H184	H	-0.389436	-1.067375	-0.051163
H185	H	-0.389365	-1.067355	0.050751
H186	H	-0.708089	-0.935754	-0.000264
O187	O	-0.479044	-1.012905	-0.000416
C188	C	-0.473717	-1.121998	-0.063503
C189	C	-0.494955	-1.051538	-0.063438
H190	H	-0.486581	-1.153259	-0.114443
H191	H	-0.432339	-1.111709	-0.063545
H192	H	-0.486537	-1.153212	-0.012531
H193	H	-0.482172	-1.020289	-0.114401
H194	H	-0.536331	-1.061877	-0.063357
H195	H	-0.799559	-0.934404	-0.000274
H196	H	-0.778175	-0.703375	-0.000210
H197	H	-0.573524	-1.001475	-0.000288
O198	O	-0.392201	-0.635310	-0.000313
C199	C	-0.442235	-0.560552	-0.063425
C200	C	-0.420975	-0.630995	-0.063394
H201	H	-0.465495	-0.557035	-0.114428
H202	H	-0.465583	-0.556985	-0.012506
H203	H	-0.411332	-0.515461	-0.063384
H204	H	-0.451847	-0.676127	-0.063460
H205	H	-0.397614	-0.634502	-0.114308
O206	O	-0.543375	-0.633038	-0.000341
C207	C	-0.548684	-0.523970	-0.063391
C208	C	-0.527444	-0.594429	-0.063345
H209	H	-0.535805	-0.492728	-0.114317
H210	H	-0.590063	-0.534263	-0.063448
H211	H	-0.535883	-0.492737	-0.012405
H212	H	-0.540209	-0.625698	-0.114323
H213	H	-0.486068	-0.584086	-0.063250
H214	H	0.004625	-0.910838	0.196579
H215	H	-0.448908	-0.644461	-0.000203
