data_functionalizedCrystal
_audit_creation_method	'MofGen! by Chris Wilmer'
_symmetry_space_group_name_H-M	'P1'
_symmetry_Int_Tables_number	1
_symmetry_cell_setting	triclinic
loop_
_symmetry_equiv_pos_as_xyz
  x,y,z
_cell_length_a	10.654550
_cell_length_b	17.666332
_cell_length_c	10.654551
_cell_angle_alpha	89.995429
_cell_angle_beta	84.485180
_cell_angle_gamma	89.993576
loop_
_atom_site_label
_atom_site_type_symbol
_atom_site_fract_x
_atom_site_fract_y
_atom_site_fract_z
O1	O	1.667851	-0.062889	0.176401
O2	O	1.302373	-0.062902	0.193207
O3	O	1.493514	-0.062893	0.002065
O4	O	1.476710	-0.062897	0.367543
O5	O	1.493479	0.063003	0.002055
O6	O	1.302338	0.062995	0.193197
O7	O	1.667816	0.063008	0.176391
Cu8	Cu	1.485074	0.074497	0.184793
Cu9	Cu	1.485115	-0.074391	0.184805
O10	O	1.476675	0.062999	0.367533
C11	C	1.255557	0.000044	0.191968
C12	C	1.116114	0.000039	0.188276
C13	C	1.036629	0.000040	0.300818
C14	C	0.905608	0.000053	0.297341
C15	C	0.933570	0.000061	0.068772
C16	C	1.064588	0.000054	0.072249
N17	N	1.485054	0.179216	0.184784
C18	C	1.569719	0.218830	0.100188
C19	C	1.569725	0.298077	0.100182
C20	C	1.485079	0.337708	0.184794
C21	C	1.400398	0.298085	0.269396
C22	C	1.400385	0.218839	0.269391
N23	N	1.470059	0.462125	0.295785
N24	N	1.470078	0.537406	0.295786
C25	C	1.485110	0.576472	0.184813
N26	N	1.500145	0.537414	0.073836
N27	N	1.500132	0.462127	0.073836
C28	C	1.485082	0.423637	0.184809
C29	C	1.569786	0.702015	0.100204
C30	C	1.569784	0.781264	0.100197
C31	C	1.400463	0.781271	0.269421
C32	C	1.400459	0.702023	0.269418
C33	C	1.485127	0.662400	0.184811
C34	C	1.714632	0.000060	0.177630
C35	C	1.854075	0.000060	0.181322
N36	N	1.485135	0.820890	0.184808
C37	C	1.492262	0.000054	-0.044738
C38	C	1.488570	0.000050	-0.184181
C39	C	1.486856	-0.068577	-0.249680
C40	C	1.483376	-0.068578	-0.380700
C41	C	1.483329	0.068682	-0.380713
C42	C	1.486800	0.068682	-0.249694
C43	C	1.477926	0.000051	0.414336
C44	C	1.481619	0.000049	0.553779
H45	H	0.891602	0.000078	-0.025693
C46	C	1.481497	-0.144070	-0.452747
C47	C	1.590864	-0.200677	-0.448042
C48	C	1.588983	-0.276173	-0.520087
C49	C	1.477736	-0.295062	-0.596837
C50	C	1.368360	-0.238453	-0.601545
C51	C	1.370241	-0.162957	-0.529500
H52	H	1.673223	-0.186697	-0.391225
H53	H	1.669951	-0.318079	-0.516602
H54	H	1.476343	-0.350948	-0.650169
H55	H	1.286001	-0.252434	-0.658363
H56	H	1.289274	-0.121051	-0.532985
H57	H	1.638658	0.186571	0.031293
H58	H	1.638672	0.330337	0.031292
C59	C	0.818173	0.000051	0.421138
C60	C	0.724260	0.065432	0.450185
C61	C	0.636824	0.065431	0.573987
C62	C	0.643300	0.000049	0.668743
C63	C	0.737216	-0.065337	0.639699
C64	C	0.824653	-0.065336	0.515897
H65	H	0.719463	0.113837	0.380039
H66	H	0.567301	0.113835	0.595487
H67	H	0.578575	0.000048	0.760389
H68	H	0.742014	-0.113742	0.709845
H69	H	0.894176	-0.113740	0.494397
H70	H	1.331439	0.186585	0.338280
C71	C	1.488690	0.144177	-0.177637
C72	C	1.379332	0.200791	-0.182344
C73	C	1.381217	0.276283	-0.110287
C74	C	1.492459	0.295161	-0.033524
C75	C	1.601825	0.238545	-0.028814
C76	C	1.599940	0.163053	-0.100871
H77	H	1.296976	0.186818	-0.239171
H78	H	1.300256	0.318193	-0.113774
H79	H	1.493854	0.351044	0.019817
H80	H	1.684181	0.252518	0.028013
H81	H	1.680901	0.121143	-0.097384
C82	C	1.152032	0.000051	-0.051555
C83	C	1.145552	0.065429	-0.146319
C84	C	1.232995	0.065430	-0.270117
C85	C	1.326918	0.000053	-0.299152
C86	C	1.333403	-0.065330	-0.204385
C87	C	1.245960	-0.065331	-0.080587
H88	H	1.076020	0.113830	-0.124828
H89	H	1.228194	0.113831	-0.340269
H90	H	1.391649	0.000054	-0.390794
H91	H	1.402934	-0.113730	-0.225876
H92	H	1.250761	-0.113732	-0.010435
H93	H	1.331475	0.330357	0.338286
C94	C	1.093310	0.000032	0.428442
C95	C	1.063763	0.065409	0.522239
C96	C	1.120441	0.065404	0.649867
C97	C	1.206665	0.000022	0.683698
C98	C	1.236216	-0.065359	0.589899
C99	C	1.179539	-0.065354	0.462271
H100	H	0.999931	0.113812	0.497197
H101	H	1.098565	0.113803	0.719302
H102	H	1.248621	0.000018	0.778176
H103	H	1.300049	-0.113763	0.614941
H104	H	1.201415	-0.113754	0.392835
C105	C	1.662907	0.658426	0.007128
C106	C	1.756026	0.702007	-0.085943
C107	C	1.849146	0.658421	-0.179021
C108	C	1.849149	0.571253	-0.179028
C109	C	1.756027	0.527667	-0.085954
C110	C	1.662906	0.571253	0.007124
H111	H	1.756027	0.766538	-0.085940
H112	H	1.918081	0.690687	-0.247920
H113	H	1.918082	0.538988	-0.247930
H114	H	1.756025	0.463136	-0.085956
H115	H	1.593971	0.538987	0.076023
C116	C	1.307337	0.658441	0.362487
C117	C	1.214258	0.702026	0.455597
C118	C	1.121130	0.658443	0.548667
C119	C	1.121081	0.571276	0.548627
C120	C	1.214163	0.527686	0.455513
C121	C	1.307291	0.571269	0.362443
H122	H	1.214292	0.766557	0.455630
H123	H	1.052224	0.690712	0.617596
H124	H	1.052141	0.539013	0.617523
H125	H	1.214130	0.463155	0.455480
H126	H	1.376197	0.539000	0.293514
C127	C	1.488788	-0.144069	-0.177612
C128	C	1.600045	-0.162944	-0.100853
C129	C	1.601973	-0.238438	-0.028788
C130	C	1.492644	-0.295058	-0.033483
C131	C	1.381379	-0.276185	-0.110245
C132	C	1.379451	-0.200691	-0.182310
H133	H	1.680985	-0.121029	-0.097375
H134	H	1.684339	-0.252409	0.028036
H135	H	1.494071	-0.350943	0.019863
H136	H	1.300439	-0.318100	-0.113723
H137	H	1.297085	-0.186720	-0.239134
H138	H	1.638725	0.813518	0.031302
H139	H	1.331537	0.813537	0.338309
C140	C	1.481389	0.144169	-0.452792
C141	C	1.370132	0.163028	-0.529560
C142	C	1.368193	0.238516	-0.601642
C143	C	1.477511	0.295145	-0.596956
C144	C	1.588776	0.276288	-0.520185
C145	C	1.590715	0.200800	-0.448103
H146	H	1.289201	0.121107	-0.533032
H147	H	1.285826	0.252475	-0.658473
H148	H	1.476075	0.351026	-0.650315
H149	H	1.669707	0.318209	-0.516713
H150	H	1.673081	0.186841	-0.391272
