data_functionalizedCrystal
_audit_creation_method	'MofGen! by Chris Wilmer'
_symmetry_space_group_name_H-M	'P1'
_symmetry_Int_Tables_number	1
_symmetry_cell_setting	triclinic
loop_
_symmetry_equiv_pos_as_xyz
  x,y,z
_cell_length_a	18.101398
_cell_length_b	18.050589
_cell_length_c	18.101389
_cell_angle_alpha	90.013815
_cell_angle_beta	89.990255
_cell_angle_gamma	89.969746
loop_
_atom_site_label
_atom_site_type_symbol
_atom_site_fract_x
_atom_site_fract_y
_atom_site_fract_z
Zn1	Zn	1.132102	0.295825	-0.418574
Zn2	Zn	1.632102	0.795825	0.081426
Zn3	Zn	1.131991	0.420000	-0.294743
Zn4	Zn	1.631991	0.920000	0.205257
Zn5	Zn	1.008261	0.295818	-0.294767
Zn6	Zn	1.508261	0.795818	0.205233
Zn7	Zn	1.008204	0.419968	-0.418563
Zn8	Zn	1.508204	0.919968	0.081437
O9	O	1.070140	0.357903	-0.356662
O10	O	1.570140	0.857903	0.143338
O11	O	1.235720	0.312313	-0.402142
O12	O	1.735720	0.812313	0.097858
O13	O	1.115555	0.403537	-0.191113
O14	O	1.615555	0.903537	0.308887
O15	O	1.024760	0.191895	-0.311205
O16	O	1.524760	0.691895	0.188795
O17	O	1.235638	0.403544	-0.311164
O18	O	1.735638	0.903544	0.188836
O19	O	1.115745	0.191900	-0.402166
O20	O	1.615745	0.691900	0.097834
O21	O	1.024651	0.312301	-0.191131
O22	O	1.524651	0.812301	0.308869
O23	O	0.904621	0.312271	-0.311194
O24	O	1.404621	0.812271	0.188806
O25	O	1.024663	0.403491	-0.522197
O26	O	1.524663	0.903491	-0.022197
O27	O	0.904579	0.403484	-0.402146
O28	O	1.404579	0.903484	0.097854
O29	O	1.115690	0.312283	-0.522206
O30	O	1.615690	0.812283	-0.022206
O31	O	1.115499	0.523920	-0.311153
O32	O	1.615499	1.023920	0.188847
O33	O	1.024554	0.523897	-0.402123
O34	O	1.524554	1.023897	0.097877
C35	C	0.877729	0.357874	-0.356672
C36	C	1.377729	0.857874	0.143328
C37	C	0.795415	0.357879	-0.356694
C38	C	1.295415	0.857879	0.143306
C39	C	0.496324	0.357923	-0.356663
C40	C	0.996324	0.857923	0.143337
C41	C	0.527648	0.415589	-0.413605
C42	C	1.027648	0.915589	0.086395
C43	C	0.613266	0.415408	-0.413839
C44	C	1.113266	0.915408	0.086161
C45	C	0.644707	0.357902	-0.356678
C46	C	1.144707	0.857902	0.143322
C47	C	0.613657	0.279684	-0.378000
C48	C	1.113657	0.779684	0.122000
C49	C	0.528012	0.280030	-0.378405
C50	C	1.028012	0.780030	0.121595
C51	C	0.527870	0.377786	-0.278262
C52	C	1.027870	0.877786	0.221738
C53	C	0.613520	0.379502	-0.278681
C54	C	1.113520	0.879502	0.221319
C55	C	0.728566	0.357885	-0.356686
C56	C	1.228566	0.857885	0.143314
C57	C	0.412465	0.357934	-0.356657
C58	C	0.912465	0.857934	0.143343
C59	C	1.070028	0.550855	-0.356650
C60	C	1.570028	1.050855	0.143350
C61	C	1.070049	0.633401	-0.356670
C62	C	1.570049	1.133401	0.143330
C63	C	1.020619	0.832866	-0.406123
C64	C	1.520619	1.332866	0.093877
C65	C	1.002561	0.882294	-0.338549
C66	C	1.502561	1.382294	0.161451
C67	C	1.070104	0.784531	-0.356680
C68	C	1.570104	1.284531	0.143320
C69	C	1.088182	0.882185	-0.424262
C70	C	1.588182	1.382185	0.075738
C71	C	1.070157	0.930516	-0.356696
C72	C	1.570157	1.430516	0.143304
C73	C	1.052012	0.832872	-0.289070
C74	C	1.552012	1.332872	0.210930
C75	C	1.137663	0.832759	-0.374829
C76	C	1.637663	1.332759	0.125171
C77	C	1.119631	0.882164	-0.307209
C78	C	1.619631	1.382164	0.192791
C79	C	1.070072	0.700433	-0.356672
C80	C	1.570072	1.200433	0.143328
C81	C	1.070189	1.014613	-0.356696
C82	C	1.570189	1.514613	0.143304
C83	C	1.263301	0.357933	-0.356652
C84	C	1.763301	0.857933	0.143348
C85	C	1.345616	0.357946	-0.356648
C86	C	1.845616	0.857946	0.143352
C87	C	1.070182	0.357884	-0.549824
C88	C	1.570182	0.857884	-0.049824
C89	C	1.070201	0.357876	-0.632138
C90	C	1.570201	0.857876	-0.132138
C91	C	1.070243	1.164197	-0.356690
C92	C	1.570243	1.664197	0.143310
C93	C	1.070215	1.081652	-0.356705
C94	C	1.570215	1.581652	0.143295
C95	C	1.070244	0.357737	-0.931229
C96	C	1.570244	0.857737	-0.431229
C97	C	1.012775	0.414940	-0.899898
C98	C	1.512775	0.914940	-0.399898
C99	C	1.012930	0.415205	-0.814280
C100	C	1.512930	0.915205	-0.314280
C101	C	1.070222	0.357806	-0.782846
C102	C	1.570222	0.857806	-0.282846
C103	C	1.148246	0.379056	-0.813934
C104	C	1.648246	0.879056	-0.313934
C105	C	1.147926	0.379431	-0.899579
C106	C	1.647926	0.879431	-0.399579
C107	C	1.050367	0.279157	-0.899652
C108	C	1.550367	0.779157	-0.399652
C109	C	1.048631	0.279611	-0.814001
C110	C	1.548631	0.779611	-0.314001
C111	C	1.070214	0.357844	-0.698987
C112	C	1.570214	0.857844	-0.198987
C113	C	1.070257	0.357701	-1.015088
C114	C	1.570257	0.857701	-0.515088
C115	C	1.070140	0.357868	-0.164251
C116	C	1.570140	0.857868	0.335749
C117	C	1.070265	0.357667	-0.081937
C118	C	1.570265	0.857667	0.418063
H119	H	0.634257	0.473412	-0.400477
H120	H	1.134257	0.973412	0.099523
H121	H	1.161502	0.903674	-0.265355
H122	H	1.661502	1.403674	0.234645
H123	H	0.945454	0.904068	-0.323212
H124	H	1.445454	1.404068	0.176788
C125	C	0.642417	0.326877	-0.218285
C126	C	1.142417	0.826877	0.281715
H127	H	0.622699	0.341230	-0.171790
H128	H	1.122699	0.841230	0.328210
H129	H	0.627571	0.277614	-0.229229
H130	H	1.127571	0.777614	0.270771
H131	H	0.694813	0.329328	-0.216572
H132	H	1.194813	0.829328	0.283428
H133	H	1.026052	0.473451	-0.793799
H134	H	1.526052	0.973451	-0.293799
H135	H	0.955072	0.401907	-0.793261
H136	H	1.455072	0.901907	-0.293261
C137	C	1.031293	0.803740	-0.211847
C138	C	1.531293	1.303740	0.288153
H139	H	1.022689	0.844389	-0.179620
H140	H	1.522689	1.344389	0.320380
H141	H	0.987819	0.774481	-0.215225
H142	H	1.487819	1.274481	0.284775
H143	H	1.070598	0.774385	-0.193051
H144	H	1.570598	1.274385	0.306949
H145	H	0.507029	0.473782	-0.400392
H146	H	1.007029	0.973782	0.099608
C147	C	0.642646	0.256506	-0.454585
C148	C	1.142646	0.756506	0.045415
H149	H	0.623550	0.209096	-0.466997
H150	H	1.123550	0.709096	0.033003
H151	H	0.627198	0.291676	-0.490434
H152	H	1.127198	0.791676	0.009566
H153	H	0.695079	0.254437	-0.453569
H154	H	1.195079	0.754437	0.046431
H155	H	0.978716	0.811219	-0.447876
H156	H	1.478716	1.311219	0.052124
C157	C	1.214805	0.803368	-0.395577
C158	C	1.714805	1.303368	0.104423
H159	H	1.227563	0.820231	-0.443625
H160	H	1.727563	1.320231	0.056375
H161	H	1.250080	0.821000	-0.360940
H162	H	1.750080	1.321000	0.139060
H163	H	1.214361	0.750744	-0.394979
H164	H	1.714361	1.250744	0.105021
C165	C	0.500491	0.321058	-0.220941
C166	C	1.000491	0.821058	0.279059
H167	H	0.469984	0.285439	-0.244634
H168	H	0.969984	0.785439	0.255366
H169	H	0.541669	0.296881	-0.199088
H170	H	1.041669	0.796881	0.300912
H171	H	0.472909	0.345861	-0.183748
H172	H	0.972909	0.845861	0.316252
C173	C	0.498670	0.453517	-0.252082
C174	C	0.998670	0.953517	0.247918
H175	H	0.466963	0.473731	-0.288727
H176	H	0.966963	0.973731	0.211273
H177	H	0.471989	0.447407	-0.207304
H178	H	0.971989	0.947407	0.292696
H179	H	0.539050	0.486143	-0.244085
H180	H	1.039050	0.986143	0.255915
C181	C	0.640951	0.457250	-0.256948
C182	C	1.140951	0.957250	0.243052
H183	H	0.671286	0.476472	-0.295242
H184	H	1.171286	0.976472	0.204758
H185	H	0.599789	0.489091	-0.249664
H186	H	1.099789	0.989091	0.250336
H187	H	0.668726	0.454145	-0.212530
H188	H	1.168726	0.954145	0.287470
H189	H	1.103451	0.903847	-0.481410
H190	H	1.603451	1.403847	0.018590
C191	C	1.101054	0.218977	-0.785104
C192	C	1.601054	0.718977	-0.285104
H193	H	1.136958	0.240655	-0.753524
H194	H	1.636958	0.740655	-0.253524
H195	H	1.073483	0.183145	-0.758350
H196	H	1.573483	0.683145	-0.258350
H197	H	1.125079	0.195735	-0.825618
H198	H	1.625079	0.695735	-0.325618
C199	C	1.106902	0.221579	-0.927033
C200	C	1.606902	0.721579	-0.427033
H201	H	1.142449	0.245272	-0.957561
H202	H	1.642449	0.745272	-0.457561
H203	H	1.130981	0.199645	-0.885856
H204	H	1.630981	0.699645	-0.385856
H205	H	1.082152	0.184307	-0.954595
H206	H	1.582152	0.684307	-0.454595
H207	H	0.954742	0.401778	-0.920498
H208	H	1.454742	0.901778	-0.420498
C209	C	1.171404	0.455834	-0.784978
C210	C	1.671404	0.955834	-0.284978
H211	H	1.133634	0.475041	-0.753952
H212	H	1.633634	0.975041	-0.253952
H213	H	1.215969	0.451421	-0.757622
H214	H	1.715969	0.951421	-0.257622
H215	H	1.178880	0.488413	-0.825502
H216	H	1.678880	0.988413	-0.325502
C217	C	0.500018	0.220014	-0.324834
C218	C	1.000018	0.720014	0.175166
H219	H	0.540990	0.195526	-0.302924
H220	H	1.040990	0.695526	0.197076
H221	H	0.470841	0.242409	-0.287344
H222	H	0.970841	0.742409	0.212656
H223	H	0.470962	0.185069	-0.351195
H224	H	0.970962	0.685069	0.148805
H225	H	0.994461	0.259798	-0.921251
H226	H	1.494461	0.759798	-0.421251
H227	H	1.025767	0.472830	-0.921425
H228	H	1.525767	0.972830	-0.421425
H229	H	0.991213	0.263587	-0.793683
H230	H	1.491213	0.763587	-0.293683
H231	H	1.192196	0.339576	-0.920305
H232	H	1.692196	0.839576	-0.420305
C233	C	0.498603	0.398060	-0.491629
C234	C	0.998603	0.898060	0.008371
H235	H	0.467472	0.355749	-0.489654
H236	H	0.967472	0.855749	0.010346
H237	H	0.471339	0.439203	-0.509742
H238	H	0.971339	0.939203	-0.009742
H239	H	0.539084	0.388397	-0.523626
H240	H	1.039084	0.888397	-0.023626
H241	H	1.192214	0.338701	-0.793574
H242	H	1.692214	0.838701	-0.293574
C243	C	0.640970	0.397645	-0.492310
C244	C	1.140970	0.897645	0.007690
H245	H	0.599880	0.390504	-0.524167
H246	H	1.099880	0.890504	-0.024167
H247	H	0.670099	0.437649	-0.509995
H248	H	1.170099	0.937649	-0.009995
H249	H	0.670013	0.353808	-0.491179
H250	H	1.170013	0.853808	0.008821
H251	H	0.634024	0.235554	-0.337819
H252	H	1.134024	0.735554	0.162181
C253	C	0.501043	0.257279	-0.455832
C254	C	1.001043	0.757279	0.044168
H255	H	0.542430	0.247916	-0.486744
H256	H	1.042430	0.747916	0.013256
H257	H	0.471829	0.213734	-0.452154
H258	H	0.971829	0.713734	0.047846
H259	H	0.472244	0.296166	-0.476373
H260	H	0.972244	0.796166	0.023627
C261	C	1.170682	0.457031	-0.926579
C262	C	1.670682	0.957031	-0.426579
H263	H	1.180031	0.488030	-0.885206
H264	H	1.680031	0.988030	-0.385206
H265	H	1.214111	0.453264	-0.955810
H266	H	1.714111	0.953264	-0.455810
H267	H	1.131930	0.477680	-0.955369
H268	H	1.631930	0.977680	-0.455369
