data_functionalizedCrystal
_audit_creation_method	'MofGen! by Chris Wilmer'
_symmetry_space_group_name_H-M	'P1'
_symmetry_Int_Tables_number	1
_symmetry_cell_setting	triclinic
loop_
_symmetry_equiv_pos_as_xyz
  x,y,z
_cell_length_a	14.853567
_cell_length_b	14.853567
_cell_length_c	16.176319
_cell_angle_alpha	89.996997
_cell_angle_beta	89.995559
_cell_angle_gamma	83.634930
loop_
_atom_site_label
_atom_site_type_symbol
_atom_site_fract_x
_atom_site_fract_y
_atom_site_fract_z
O1	O	1.196368	0.117706	-0.068682
O2	O	1.696368	0.617706	0.431318
O3	O	0.933909	0.131728	-0.068696
O4	O	1.433909	0.631728	0.431304
O5	O	1.072149	-0.006513	-0.068691
O6	O	1.572149	0.493487	0.431309
O7	O	1.058128	0.255947	-0.068687
O8	O	1.558128	0.755947	0.431313
O9	O	1.072130	-0.006521	0.068802
O10	O	1.572130	0.493479	0.568802
O11	O	0.933890	0.131719	0.068797
O12	O	1.433890	0.631719	0.568797
O13	O	1.196349	0.117698	0.068811
O14	O	1.696349	0.617698	0.568811
Cu15	Cu	1.065118	0.124707	0.081358
Cu16	Cu	1.565118	0.624707	0.581358
Cu17	Cu	1.065140	0.124718	-0.081243
Cu18	Cu	1.565140	0.624718	0.418757
O19	O	1.058109	0.255938	0.068806
O20	O	1.558109	0.755938	0.568806
C21	C	0.900311	0.131088	0.000049
C22	C	1.400311	0.631088	0.500049
C23	C	0.800227	0.129184	0.000044
C24	C	1.300227	0.629184	0.500044
C25	C	0.387693	0.039019	0.000061
C26	C	0.887693	0.539019	0.500061
C27	C	0.366412	0.203251	0.000063
C28	C	0.866412	0.703251	0.500063
C29	C	0.460446	0.205041	0.000060
C30	C	0.960446	0.705041	0.500060
C31	C	0.518108	0.123819	0.000056
C32	C	1.018108	0.623819	0.500056
C33	C	0.481736	0.040806	0.000056
C34	C	0.981736	0.540806	0.500056
C35	C	0.496825	0.288053	0.000052
C36	C	0.996825	0.788053	0.500052
C37	C	0.590864	0.289846	0.000049
C38	C	1.090864	0.789846	0.500049
C39	C	0.648528	0.208623	0.000051
C40	C	1.148528	0.708623	0.500051
C41	C	0.612150	0.125607	0.000051
C42	C	1.112150	0.625607	0.500051
C43	C	0.669812	0.044384	0.000048
C44	C	1.169812	0.544384	0.500048
C45	C	0.633437	-0.038633	0.000054
C46	C	1.133437	0.461367	0.500054
C47	C	0.539399	-0.040417	0.000058
C48	C	1.039399	0.459583	0.500058
C49	C	0.742565	0.210407	0.000047
C50	C	1.242565	0.710407	0.500047
C51	C	0.763855	0.046172	0.000043
C52	C	1.263855	0.546172	0.500043
C53	C	1.071504	-0.040106	0.000053
C54	C	1.571504	0.459894	0.500053
C55	C	1.069601	-0.140189	0.000046
C56	C	1.569601	0.359811	0.500046
C57	C	0.979435	-0.552723	0.000057
C58	C	1.479435	-0.052723	0.500057
C59	C	1.143668	-0.574004	0.000065
C60	C	1.643668	-0.074004	0.500065
C61	C	1.145458	-0.479971	0.000060
C62	C	1.645458	0.020029	0.500060
C63	C	1.064235	-0.422309	0.000055
C64	C	1.564235	0.077691	0.500055
C65	C	0.981223	-0.458680	0.000055
C66	C	1.481223	0.041320	0.500055
C67	C	1.228469	-0.443591	0.000069
C68	C	1.728469	0.056409	0.500069
C69	C	1.230262	-0.349552	0.000065
C70	C	1.730262	0.150448	0.500065
C71	C	1.149039	-0.291889	0.000054
C72	C	1.649039	0.208111	0.500054
C73	C	1.066023	-0.328266	0.000053
C74	C	1.566023	0.171734	0.500053
C75	C	0.984800	-0.270604	0.000047
C76	C	1.484800	0.229396	0.500047
C77	C	0.901783	-0.306979	0.000040
C78	C	1.401783	0.193021	0.500040
C79	C	0.899999	-0.401017	0.000043
C80	C	1.399999	0.098983	0.500043
C81	C	1.150823	-0.197851	0.000051
C82	C	1.650823	0.302149	0.500051
C83	C	0.986588	-0.176561	0.000045
C84	C	1.486588	0.323439	0.500045
C85	C	1.229947	0.118337	0.000064
C86	C	1.729947	0.618337	0.500064
C87	C	1.330031	0.120241	0.000064
C88	C	1.830031	0.620241	0.500064
C89	C	1.058754	0.289531	0.000060
C90	C	1.558754	0.789531	0.500060
C91	C	1.060657	0.389615	0.000062
C92	C	1.560657	0.889615	0.500062
N93	N	1.065108	0.124700	0.195724
N94	N	1.565108	0.624700	0.695724
N95	N	1.065157	0.124719	-0.195608
N96	N	1.565157	0.624719	0.304392
C97	C	1.126340	0.063512	0.238990
C98	C	1.626340	0.563512	0.738990
C99	C	1.126344	0.063511	0.325537
C100	C	1.626344	0.563511	0.825537
C101	C	1.065121	0.124703	0.368816
C102	C	1.565121	0.624703	0.868816
C103	C	1.003883	0.185893	0.325544
C104	C	1.503883	0.685893	0.825544
C105	C	1.003875	0.185889	0.238998
C106	C	1.503875	0.685889	0.738998
C107	C	1.003914	0.185910	0.674572
C108	C	1.503914	0.685910	1.174572
C109	C	1.003929	0.185912	0.761124
C110	C	1.503929	0.685912	1.261124
C111	C	1.126383	0.063532	0.761111
C112	C	1.626383	0.563532	1.261111
C113	C	1.126375	0.063528	0.674565
C114	C	1.626375	0.563528	1.174565
C115	C	1.065135	0.124715	0.631300
C116	C	1.565135	0.624715	1.131300
C117	C	1.065129	0.124714	0.537456
C118	C	1.565129	0.624714	1.037456
C119	C	1.065130	0.124709	0.462659
C120	C	1.565130	0.624709	0.962659
H121	H	0.358072	-0.028572	0.000069
H122	H	0.858072	0.471428	0.500069
N123	N	1.192368	-0.002485	0.192302
N124	N	1.692368	0.497515	0.692302
H125	H	1.256366	0.008011	0.207349
H126	H	1.756366	0.508011	0.707349
H127	H	1.181829	-0.066461	0.207387
H128	H	1.681829	0.433539	0.707387
N129	N	0.500167	-0.129950	0.000071
N130	N	1.000167	0.370050	0.500071
H131	H	0.431846	-0.118756	0.000072
H132	H	0.931846	0.381244	0.500072
H133	H	0.521251	-0.165499	-0.050898
H134	H	1.021251	0.334501	0.449102
H135	H	0.772178	0.277998	0.000044
H136	H	1.272178	0.777998	0.500044
H137	H	1.297860	-0.319944	0.000070
H138	H	1.797860	0.180056	0.500070
H139	H	0.835652	-0.260019	0.000042
H140	H	1.335652	0.239981	0.500042
H141	H	0.920445	-0.129618	0.000037
H142	H	1.420445	0.370382	0.500037
H143	H	0.954052	0.235733	0.639353
H144	H	1.454052	0.735733	1.139353
N145	N	0.810466	-0.440249	0.000039
N146	N	1.310466	0.059751	0.500039
H147	H	0.821661	-0.508571	0.000046
H148	H	1.321661	-0.008571	0.500046
H149	H	0.774915	-0.419163	0.051008
H150	H	1.274915	0.080837	0.551008
N151	N	0.889898	-0.591948	0.000045
N152	N	1.389898	-0.091948	0.500045
H153	H	0.901085	-0.660270	0.000045
H154	H	1.401085	-0.160270	0.500045
H155	H	0.854345	-0.570865	0.051013
H156	H	1.354345	-0.070865	0.551013
N157	N	1.231268	-0.636190	0.000084
N158	N	1.731268	-0.136190	0.500084
H159	H	1.217539	-0.701282	0.000090
H160	H	1.717539	-0.201282	0.500090
H161	H	1.267450	-0.624407	-0.050885
H162	H	1.767450	-0.124407	0.449115
N163	N	1.316068	-0.505780	0.000090
N164	N	1.816068	-0.005780	0.500090
H165	H	1.302337	-0.570871	0.000089
H166	H	1.802337	-0.070871	0.500089
H167	H	1.352256	-0.493993	-0.050874
H168	H	1.852256	0.006007	0.449126
H169	H	0.810798	-0.019971	0.000043
H170	H	1.310798	0.480029	0.500043
N171	N	1.240350	-0.158615	0.000068
N172	N	1.740350	0.341385	0.500068
H173	H	1.291533	-0.209413	0.000076
H174	H	1.791533	0.290587	0.500076
H175	H	1.244682	-0.120063	-0.050904
H176	H	1.744682	0.379937	0.449096
H177	H	0.680397	-0.104764	0.000045
H178	H	1.180397	0.395236	0.500045
H179	H	0.449870	0.354180	0.000047
H180	H	0.949870	0.854180	0.500047
N181	N	1.192417	-0.002453	0.372204
N182	N	1.692417	0.497547	0.872204
H183	H	1.231215	-0.041204	0.331654
H184	H	1.731215	0.458796	0.831654
H185	H	1.232298	0.032175	0.408086
H186	H	1.732298	0.532175	0.908086
H187	H	0.620472	0.357443	0.000044
H188	H	1.120472	0.857443	0.500044
H189	H	0.319459	0.269379	0.000058
H190	H	0.819459	0.769379	0.500058
N191	N	1.192412	-0.002467	0.627885
N192	N	1.692412	0.497533	1.127885
H193	H	1.231203	-0.041232	0.668427
H194	H	1.731203	0.458768	1.168427
H195	H	1.157846	-0.042388	0.591986
H196	H	1.657846	0.457612	1.091986
H197	H	1.176246	0.013707	0.796346
H198	H	1.676246	0.513707	1.296346
H199	H	0.954070	0.235743	0.796360
H200	H	1.454070	0.735743	1.296360
N201	N	0.937842	0.251889	0.372219
N202	N	1.437842	0.751889	0.872219
H203	H	0.947138	0.242609	0.433611
H204	H	1.447138	0.742609	0.933611
H205	H	0.948328	0.315865	0.357083
H206	H	1.448328	0.815865	0.857083
H207	H	0.954013	0.235713	0.203772
H208	H	1.454013	0.735713	0.703772
