data_functionalizedCrystal
_audit_creation_method	'MofGen! by Chris Wilmer'
_symmetry_space_group_name_H-M	'P1'
_symmetry_Int_Tables_number	1
_symmetry_cell_setting	triclinic
loop_
_symmetry_equiv_pos_as_xyz
  x,y,z
_cell_length_a	33.510554
_cell_length_b	33.509711
_cell_length_c	33.506470
_cell_angle_alpha	60.004186
_cell_angle_beta	60.008358
_cell_angle_gamma	59.994760
loop_
_atom_site_label
_atom_site_type_symbol
_atom_site_fract_x
_atom_site_fract_y
_atom_site_fract_z
O1	O	0.055430	-0.583081	0.487524
O2	O	0.020931	-0.453975	0.392819
O3	O	0.102693	-0.535652	0.392731
O4	O	-0.026332	-0.501404	0.487613
O5	O	0.129823	-0.508526	0.419767
O6	O	0.048062	-0.426850	0.419856
O7	O	0.082561	-0.555956	0.514561
Cu8	Cu	0.067789	-0.488926	0.469677
Cu9	Cu	0.035703	-0.521005	0.437703
O10	O	0.000799	-0.474279	0.514649
N11	N	0.090357	-0.466366	0.492168
N12	N	0.013139	-0.543569	0.415212
C13	C	0.143028	-0.279707	0.544737
C14	C	0.143165	-0.413746	0.678712
C15	C	0.143043	-0.413725	0.544739
C16	C	0.277090	-0.413694	0.544637
C17	C	0.157791	-0.323929	0.559462
C18	C	0.157869	-0.398994	0.634489
C19	C	0.232865	-0.398963	0.559407
C20	C	0.157801	-0.398982	0.559463
C21	C	0.124237	-0.223419	0.525994
C22	C	0.124262	-0.432490	0.525997
C23	C	0.176583	-0.380217	0.578205
C24	C	0.358938	-0.399566	0.501510
C25	C	0.410104	-0.416609	0.484423
C26	C	0.410135	-0.499402	0.515995
C27	C	0.358969	-0.482358	0.533084
C28	C	0.136554	-0.197822	0.475693
C29	C	0.119469	-0.146653	0.458657
C30	C	0.077755	-0.146680	0.542223
C31	C	0.094840	-0.197850	0.559260
C32	C	0.073954	-0.420144	0.538396
C33	C	0.056884	-0.437203	0.521352
C34	C	0.140427	-0.478952	0.479524
C35	C	0.157498	-0.461894	0.496561
C36	C	0.074158	-0.420182	0.760618
C37	C	0.057149	-0.437256	0.811786
C38	C	0.140732	-0.479014	0.811717
C39	C	0.157740	-0.461942	0.760547
C40	C	0.124452	-0.432525	0.734999
C41	C	0.333372	-0.432439	0.525839
C42	C	-0.020612	-0.577650	0.170305
C43	C	-0.020943	-0.788098	0.380897
C44	C	-0.020912	-0.577638	0.380991
C45	C	-0.231336	-0.577418	0.380585
C46	C	-0.129735	-0.611383	0.346870
C47	C	-0.054722	-0.611464	0.347017
C48	C	-0.073450	-0.630202	0.328195
C49	C	-0.087616	-0.712029	0.371239
C50	C	-0.070599	-0.763199	0.388315
C51	C	0.012191	-0.763282	0.356872
C52	C	-0.004828	-0.712113	0.339795
C53	C	-0.155381	-0.623711	0.397158
C54	C	-0.206547	-0.606601	0.414133
C55	C	-0.206417	-0.564839	0.330529
C56	C	-0.155251	-0.581949	0.313554
C57	C	-0.067051	-0.561160	0.334643
C58	C	-0.050026	-0.544131	0.351759
C59	C	-0.008343	-0.627704	0.393612
C60	C	-0.025368	-0.644736	0.376502
C61	C	-0.066922	-0.561168	0.246303
C62	C	-0.049794	-0.544141	0.195134
C63	C	-0.008048	-0.627719	0.195183
C64	C	-0.025175	-0.644745	0.246352
C65	C	-0.054614	-0.611468	0.271911
C66	C	-0.054732	-0.686488	0.346980
C67	C	-0.002117	-0.558258	0.114025
C68	C	-0.002879	-0.844379	0.399940
C69	C	-0.002504	-0.558243	0.399473
C70	C	-0.287615	-0.558285	0.398601
N71	N	0.434975	-0.466279	0.491900
O72	O	0.591199	-0.470749	0.375150
O73	O	0.591395	-0.565767	0.504116
O74	O	0.591311	-0.565550	0.422329
O75	O	0.591283	-0.470966	0.456937
O76	O	0.510024	-0.538522	0.449509
O77	O	0.510108	-0.538739	0.531297
O78	O	0.509913	-0.443721	0.402330
Cu79	Cu	0.502588	-0.488762	0.469295
Cu80	Cu	0.598719	-0.520726	0.437151
O81	O	0.509997	-0.443938	0.484117
N82	N	0.666332	-0.543209	0.414541
N83	N	0.090323	-0.121809	0.492157
O84	O	-0.026342	0.034503	0.487582
O85	O	0.102626	0.034543	0.392540
O86	O	0.020797	0.034507	0.392812
O87	O	0.055487	0.034539	0.487310
O88	O	0.047933	-0.046785	0.419900
O89	O	0.129763	-0.046749	0.419628
O90	O	0.000794	-0.046789	0.514670
Cu91	Cu	0.067756	-0.054192	0.469623
Cu92	Cu	0.035664	0.041946	0.437588
O93	O	0.082623	-0.046753	0.514399
N94	N	0.013091	0.109564	0.415054
N95	N	0.090671	-0.466416	0.836606
O96	O	0.086120	-0.583065	0.992910
O97	O	-0.008880	-0.454051	0.992954
O98	O	-0.008658	-0.535864	0.992931
O99	O	0.085897	-0.501252	0.992933
O100	O	0.018407	-0.508749	0.911642
O101	O	0.018185	-0.426936	0.911665
O102	O	0.113185	-0.555949	0.911621
Cu103	Cu	0.068156	-0.488967	0.904221
Cu104	Cu	0.036148	-0.521034	1.000355
O105	O	0.112963	-0.474136	0.911644
N106	N	0.013633	-0.543590	1.067970
C107	C	0.031262	-0.424144	0.393290
C108	C	0.132513	-0.525291	0.393180
C109	C	0.072229	-0.585787	0.514090
C110	C	-0.029022	-0.484640	0.514200
C111	C	0.550775	-0.565338	0.533954
C112	C	0.550672	-0.565070	0.432670
C113	C	0.550530	-0.444149	0.372492
C114	C	0.550635	-0.444418	0.473776
C115	C	0.132408	-0.005998	0.392963
C116	C	0.031106	-0.006142	0.393333
C117	C	-0.029021	-0.006147	0.514213
C118	C	0.072314	-0.006104	0.513878
C119	C	-0.008430	-0.424240	0.952316
C120	C	-0.008150	-0.525550	0.952271
C121	C	0.112735	-0.585760	0.952260
C122	C	0.112461	-0.484444	0.952286
H123	H	0.047048	-0.396226	0.739820
O124	O	-0.073171	-0.006243	0.549851
C125	C	-0.066699	-0.048335	0.591037
H126	H	-0.030909	-0.077757	0.579251
H127	H	-0.065556	-0.038807	0.618613
C128	C	-0.153476	-0.031303	0.629172
C129	C	-0.109521	-0.067441	0.614695
H130	H	-0.179892	-0.043088	0.643767
H131	H	-0.157837	-0.002944	0.601425
H132	H	-0.152517	-0.023366	0.652149
H133	H	-0.110478	-0.075373	0.591714
H134	H	-0.105161	-0.095802	0.642439
H135	H	0.079744	-0.006095	0.543566
O136	O	-0.073210	-0.476027	0.549793
C137	C	-0.073234	-0.518061	0.591908
H138	H	-0.044310	-0.551603	0.581128
H139	H	-0.064694	-0.514133	0.618456
C140	C	-0.159391	-0.482777	0.629852
C141	C	-0.123869	-0.523975	0.616611
H142	H	-0.190625	-0.486424	0.645092
H143	H	-0.159375	-0.454457	0.601479
H144	H	-0.152268	-0.479508	0.651973
H145	H	-0.130988	-0.527239	0.594486
H146	H	-0.123887	-0.552296	0.644981
H147	H	0.079602	-0.622875	0.543835
O148	O	0.176723	-0.533914	0.357616
C149	C	0.198399	-0.500352	0.344457
H150	H	0.168782	-0.466538	0.354306
H151	H	0.225060	-0.518053	0.364987
C152	C	0.262447	-0.526988	0.276945
C153	C	0.226070	-0.485455	0.289039
H154	H	0.279517	-0.517800	0.242761
H155	H	0.247844	-0.549601	0.285811
H156	H	0.284659	-0.541735	0.294058
H157	H	0.203855	-0.470712	0.271931
H158	H	0.240669	-0.462839	0.280168
H159	H	-0.038255	-0.387188	0.952329
H160	H	0.550826	-0.595166	0.570996
H161	H	0.142562	-0.622811	0.952240
O162	O	0.008303	-0.425237	0.836722
C163	C	-0.004040	-0.399477	0.866313
H164	H	0.029695	-0.408706	0.873951
H165	H	-0.018106	-0.358522	0.846609
C166	C	-0.085526	-0.402860	0.905553
C167	C	-0.044093	-0.414199	0.914938
H168	H	-0.110234	-0.411939	0.935547
H169	H	-0.077211	-0.420213	0.885616
H170	H	-0.097242	-0.368731	0.889133
H171	H	-0.032374	-0.448328	0.931353
H172	H	-0.052407	-0.396851	0.934879
O173	O	0.550664	-0.600458	0.423766
C174	C	0.550615	-0.582654	0.375731
H175	H	0.535185	-0.541022	0.362890
H176	H	0.589599	-0.594986	0.350412
C177	C	0.537696	-0.653923	0.390578
C178	C	0.518740	-0.602789	0.374809
H179	H	0.518036	-0.666344	0.390009
H180	H	0.537730	-0.665919	0.422940
H181	H	0.570182	-0.664192	0.369477
H182	H	0.486257	-0.592520	0.395914
H183	H	0.518700	-0.590792	0.342451
O184	O	0.550478	-0.408618	0.328274
C185	C	0.550443	-0.426212	0.297869
H186	H	0.565878	-0.467846	0.311081
H187	H	0.511432	-0.413822	0.299237
C188	C	0.563293	-0.354794	0.228736
C189	C	0.582255	-0.405929	0.244961
H190	H	0.582914	-0.342281	0.196099
H191	H	0.563314	-0.342939	0.249221
H192	H	0.530785	-0.344475	0.229880
H193	H	0.614760	-0.416247	0.243823
H194	H	0.582239	-0.417785	0.224475
H195	H	0.023891	-0.387055	0.363546
H196	H	-0.015331	-0.685697	0.386578
H197	H	0.198696	-0.471996	0.739692
O198	O	-0.061930	-0.495263	0.339652
C199	C	-0.044359	-0.474050	0.288404
H200	H	-0.012804	-0.503219	0.271954
H201	H	-0.075014	-0.457858	0.273178
C202	C	-0.065135	-0.397523	0.295415
C203	C	-0.026377	-0.433348	0.275211
H204	H	-0.054045	-0.372414	0.287276
H205	H	-0.076975	-0.411813	0.329941
H206	H	-0.090678	-0.384036	0.282724
H207	H	-0.000837	-0.446839	0.287906
H208	H	-0.014532	-0.419059	0.240686
H209	H	0.550629	-0.414708	0.481180
O210	O	0.022262	-0.006249	0.357956
C211	C	0.010764	-0.048361	0.374819
H212	H	0.026559	-0.077772	0.405163
H213	H	-0.030626	-0.038857	0.389576
C214	C	0.013381	-0.031346	0.295045
C215	C	0.032784	-0.067470	0.332312
H216	H	0.026962	-0.043133	0.268825
H217	H	0.021125	-0.002973	0.283684
H218	H	-0.021110	-0.023430	0.307349
H219	H	0.067273	-0.075381	0.320010
H220	H	0.025046	-0.095844	0.343670
O221	O	0.176520	-0.005692	0.357323
C222	C	0.206930	-0.005595	0.374864
H223	H	0.183428	0.009632	0.406355
H224	H	0.231805	-0.044540	0.388255
C225	C	0.267162	0.007849	0.294719
C226	C	0.238295	0.026554	0.333394
H227	H	0.286511	0.027678	0.269138
H228	H	0.246675	0.007782	0.282901
H229	H	0.287887	-0.024605	0.305884
H230	H	0.217566	0.059005	0.322230
H231	H	0.258779	0.026627	0.345209
O232	O	-0.043559	-0.534447	0.952294
C233	C	-0.054797	-0.574025	0.994379
H234	H	-0.022499	-0.597435	1.008433
H235	H	-0.088385	-0.559538	1.023860
C236	C	-0.105002	-0.576454	0.964283
C237	C	-0.065330	-0.605209	0.981541
H238	H	-0.111502	-0.595689	0.956365
H239	H	-0.097432	-0.549788	0.935930
H240	H	-0.132987	-0.564384	0.988853
H241	H	-0.037345	-0.617274	0.956969
H242	H	-0.072896	-0.631877	1.009889
O243	O	0.173134	-0.507600	0.836459
C244	C	0.221173	-0.514823	0.802875
H245	H	0.221047	-0.509093	0.766410
H246	H	0.235830	-0.487587	0.797428
C247	C	0.254174	-0.574282	0.867597
C248	C	0.254020	-0.567248	0.822810
H249	H	0.274437	-0.606619	0.879894
H250	H	0.221810	-0.569414	0.890223
H251	H	0.266387	-0.551581	0.863051
H252	H	0.241801	-0.589944	0.827358
H253	H	0.286383	-0.572121	0.800185
O254	O	0.041647	-0.391509	0.566912
C255	C	0.012025	-0.348601	0.541105
H256	H	0.031753	-0.341476	0.500165
H257	H	-0.023922	-0.353259	0.552022
C258	C	-0.022654	-0.313814	0.603757
C259	C	0.001578	-0.305061	0.553473
H260	H	-0.029100	-0.286956	0.611387
H261	H	-0.002698	-0.342722	0.621145
H262	H	-0.052607	-0.317696	0.612848
H263	H	0.031533	-0.301184	0.544384
H264	H	-0.018372	-0.276150	0.536084
O265	O	0.008011	-0.425275	0.533479
C266	C	-0.013193	-0.442788	0.584732
H267	H	0.015969	-0.474342	0.601195
H268	H	-0.029345	-0.412099	0.599901
C269	C	-0.089748	-0.421995	0.577770
C270	C	-0.053931	-0.460753	0.597990
H271	H	-0.114879	-0.433075	0.585948
H272	H	-0.075463	-0.410194	0.543239
H273	H	-0.103202	-0.396425	0.590412
H274	H	-0.040473	-0.486320	0.585342
H275	H	-0.068215	-0.472558	0.632518
O276	O	0.206384	-0.473941	0.484484
C277	C	0.232058	-0.503537	0.454835
H278	H	0.207661	-0.522154	0.461387
H279	H	0.243043	-0.479913	0.414759
C280	C	0.308187	-0.519761	0.459686
C281	C	0.278223	-0.542631	0.467736
H282	H	0.336665	-0.543875	0.467642
H283	H	0.290890	-0.499820	0.479659
H284	H	0.317335	-0.500076	0.426289
H285	H	0.269070	-0.562311	0.501134
H286	H	0.295520	-0.562576	0.447768
O287	O	0.172694	-0.507585	0.450995
C288	C	0.165347	-0.553080	0.474240
H289	H	0.146818	-0.560134	0.515265
H290	H	0.141173	-0.552620	0.459176
C291	C	0.237764	-0.585206	0.414174
C292	C	0.215009	-0.593872	0.464562
H293	H	0.268397	-0.610369	0.408203
H294	H	0.242713	-0.554555	0.398512
H295	H	0.217614	-0.584822	0.401627
H296	H	0.235156	-0.594249	0.477107
H297	H	0.210065	-0.624524	0.480226
O298	O	0.334213	-0.514357	0.556689
C299	C	0.367782	-0.562071	0.559425
H300	H	0.404237	-0.560112	0.529185
H301	H	0.373259	-0.581605	0.596494
C302	C	0.303030	-0.592857	0.590329
C303	C	0.347805	-0.590450	0.553185
H304	H	0.290707	-0.610364	0.586482
H305	H	0.280414	-0.560711	0.588487
H306	H	0.307601	-0.609134	0.621216
H307	H	0.343232	-0.574168	0.522299
H308	H	0.370420	-0.622594	0.555021
O309	O	0.147916	-0.475558	0.952193
C310	C	0.159111	-0.435965	0.910105
H311	H	0.148362	-0.432113	0.880683
H312	H	0.138022	-0.400921	0.919635
C313	C	0.227552	-0.449985	0.927136
C314	C	0.214353	-0.445258	0.890998
H315	H	0.261627	-0.455716	0.915351
H316	H	0.220009	-0.476659	0.955493
H317	H	0.209974	-0.420781	0.935075
H318	H	0.231927	-0.474464	0.883065
H319	H	0.221901	-0.418589	0.862639
O320	O	0.435054	-0.547890	0.523057
C321	C	0.464675	-0.565619	0.550867
H322	H	0.472336	-0.534027	0.546852
H323	H	0.444987	-0.583254	0.590970
C324	C	0.503868	-0.642638	0.537431
C325	C	0.513281	-0.603838	0.532495
H326	H	0.533850	-0.666215	0.526100
H327	H	0.483910	-0.630695	0.518696
H328	H	0.487461	-0.657329	0.570850
H329	H	0.529682	-0.589144	0.499076
H330	H	0.533242	-0.615779	0.551224
O331	O	0.434919	-0.384645	0.460714
C332	C	0.422364	-0.349902	0.418553
H333	H	0.408281	-0.365672	0.406813
H334	H	0.392664	-0.315413	0.426932
C335	C	0.485089	-0.317868	0.391457
C336	C	0.467796	-0.337238	0.377035
H337	H	0.513113	-0.310054	0.365847
H338	H	0.493547	-0.341273	0.419862
H339	H	0.460335	-0.289129	0.398440
H340	H	0.492548	-0.365979	0.370058
H341	H	0.459344	-0.313837	0.348627
O342	O	0.333996	-0.351086	0.494497
C343	C	0.283352	-0.343090	0.514805
H344	H	0.276364	-0.374367	0.517274
H345	H	0.268861	-0.341283	0.552938
C346	C	0.265630	-0.256129	0.479104
C347	C	0.257047	-0.294543	0.482134
H348	H	0.249403	-0.226182	0.458953
H349	H	0.299750	-0.261516	0.465425
H350	H	0.253554	-0.254630	0.510885
H351	H	0.269129	-0.296045	0.450355
H352	H	0.222929	-0.289155	0.495808
O353	O	0.165085	-0.222583	0.443312
C354	C	0.172298	-0.189017	0.395261
H355	H	0.141437	-0.152550	0.395376
H356	H	0.208743	-0.183560	0.380573
C357	C	0.210535	-0.253773	0.362316
C358	C	0.172630	-0.208985	0.362456
H359	H	0.210742	-0.266091	0.342080
H360	H	0.205678	-0.276388	0.394689
H361	H	0.240902	-0.249220	0.350078
H362	H	0.142263	-0.213540	0.374700
H363	H	0.177482	-0.186371	0.330085
H364	H	0.053825	-0.125861	0.569312
O365	O	0.082848	-0.222637	0.608138
C366	C	0.053226	-0.189094	0.633843
H367	H	0.059732	-0.152611	0.609439
H368	H	0.013148	-0.183665	0.644900
C369	C	0.058229	-0.253877	0.709923
C370	C	0.066223	-0.209069	0.679951
H371	H	0.066244	-0.266199	0.738367
H372	H	0.078185	-0.276477	0.692606
H373	H	0.024831	-0.249348	0.719133
H374	H	0.099622	-0.213601	0.670738
H375	H	0.046274	-0.186471	0.697268
O376	O	0.131452	-0.121731	0.409804
C377	C	0.157210	-0.092129	0.397419
H378	H	0.148006	-0.084470	0.431134
H379	H	0.198162	-0.111834	0.383347
C380	C	0.153768	-0.052926	0.315943
C381	C	0.142459	-0.043516	0.357353
H382	H	0.144670	-0.022940	0.291227
H383	H	0.136415	-0.072871	0.324287
H384	H	0.187894	-0.069349	0.304223
H385	H	0.108332	-0.027100	0.369076
H386	H	0.159805	-0.023567	0.349010
H387	H	-0.059824	-0.503179	0.174290
H388	H	-0.090896	-0.534066	0.267110
H389	H	0.015913	-0.654818	0.174378
H390	H	-0.090949	-0.534065	0.310634
O391	O	-0.013276	-0.693614	0.271206
C392	C	-0.030743	-0.714840	0.258640
H393	H	-0.062262	-0.685682	0.244513
H394	H	-0.000020	-0.731022	0.228971
C395	C	-0.010037	-0.791367	0.321430
C396	C	-0.048751	-0.755555	0.304082
H397	H	-0.021143	-0.816483	0.349460
H398	H	0.001733	-0.777068	0.329895
H399	H	0.015563	-0.804846	0.296701
H400	H	-0.074347	-0.742072	0.328809
H401	H	-0.060526	-0.769853	0.295623
O402	O	0.020150	-0.660092	0.422262
C403	C	0.027391	-0.708141	0.429497
H404	H	-0.003435	-0.708016	0.423714
H405	H	0.063862	-0.722835	0.402305
C406	C	0.065533	-0.741102	0.489048
C407	C	0.027670	-0.740949	0.481948
H408	H	0.065708	-0.761340	0.521401
H409	H	0.060657	-0.708731	0.484172
H410	H	0.095922	-0.753346	0.466384
H411	H	-0.002718	-0.728700	0.504607
H412	H	0.032541	-0.773319	0.486829
H413	H	0.052828	-0.784146	0.351024
O414	O	0.027181	-0.687377	0.316259
C415	C	0.074878	-0.720969	0.313572
H416	H	0.072887	-0.757429	0.343796
H417	H	0.094450	-0.726431	0.276496
C418	C	0.105674	-0.656251	0.282773
C419	C	0.103230	-0.701030	0.319897
H420	H	0.123164	-0.643951	0.286672
H421	H	0.073541	-0.633619	0.284581
H422	H	0.121984	-0.660809	0.251880
H423	H	0.086915	-0.696470	0.350789
H424	H	0.135362	-0.723661	0.318094
H425	H	-0.097376	-0.783993	0.408060
H426	H	-0.134607	-0.647683	0.424287
O427	O	-0.136104	-0.687215	0.378225
C428	C	-0.161477	-0.720734	0.403302
H429	H	-0.135216	-0.757228	0.397438
H430	H	-0.177449	-0.726147	0.444010
C431	C	-0.235347	-0.655918	0.390828
C432	C	-0.203094	-0.700739	0.383622
H433	H	-0.261020	-0.643584	0.378691
H434	H	-0.218253	-0.633335	0.373935
H435	H	-0.248652	-0.660434	0.424752
H436	H	-0.189786	-0.696221	0.349699
H437	H	-0.220187	-0.723322	0.400510
H438	H	-0.227194	-0.540877	0.303400
O439	O	-0.231388	-0.618642	0.463002
C440	C	-0.197895	-0.648282	0.488767
H441	H	-0.161402	-0.666913	0.464404
H442	H	-0.192472	-0.624693	0.499837
C443	C	-0.262748	-0.664476	0.564791
C444	C	-0.217929	-0.687362	0.534869
H445	H	-0.275107	-0.688581	0.593231
H446	H	-0.285314	-0.644505	0.547434
H447	H	-0.258223	-0.644818	0.574011
H448	H	-0.222456	-0.707014	0.525645
H449	H	-0.195365	-0.707337	0.552227
O450	O	-0.130410	-0.569949	0.264685
C451	C	-0.163904	-0.540291	0.238920
H452	H	-0.200400	-0.546776	0.263270
H453	H	-0.169317	-0.500220	0.227885
C454	C	-0.099053	-0.545300	0.162884
C455	C	-0.143877	-0.553267	0.192789
H456	H	-0.086700	-0.553302	0.134427
H457	H	-0.076488	-0.565279	0.180242
H458	H	-0.103570	-0.511906	0.153693
H459	H	-0.139359	-0.586661	0.201985
H460	H	-0.166442	-0.533293	0.175432
