data_functionalizedCrystal
_audit_creation_method	'MofGen! by Chris Wilmer'
_symmetry_space_group_name_H-M	'P1'
_symmetry_Int_Tables_number	1
_symmetry_cell_setting	triclinic
loop_
_symmetry_equiv_pos_as_xyz
  x,y,z
_cell_length_a	8.597366
_cell_length_b	27.732048
_cell_length_c	7.681481
_cell_angle_alpha	84.300807
_cell_angle_beta	103.474720
_cell_angle_gamma	83.997966
loop_
_atom_site_label
_atom_site_type_symbol
_atom_site_fract_x
_atom_site_fract_y
_atom_site_fract_z
O1	O	2.098192	0.066842	0.171879
O2	O	1.633942	0.074545	0.101439
O3	O	1.880489	0.000328	0.138880
O4	O	1.851645	0.141059	0.134437
O5	O	1.910835	-0.008828	0.436347
O6	O	1.664288	0.065389	0.398905
O7	O	2.128538	0.057686	0.469345
Zn8	Zn	1.901231	0.060084	0.481354
Zn9	Zn	1.861249	0.072147	0.089429
O10	O	1.881991	0.131903	0.431903
C11	C	1.589740	0.069650	0.241163
C12	C	1.412819	0.068700	0.214321
C13	C	1.895057	-0.022258	0.287527
C14	C	1.893236	-0.075918	0.287265
C15	C	2.027442	-0.414428	0.307537
C16	C	2.020677	-0.616102	0.306486
O17	O	2.143400	-0.647080	0.325030
N18	N	1.874487	-0.635555	0.284307
C19	C	1.729977	-0.604584	0.262377
O20	O	1.605477	-0.625757	0.243469
C21	C	1.736743	-0.402911	0.263415
C22	C	1.882944	-0.383462	0.285614
C23	C	2.173632	-0.394979	0.329733
C24	C	2.175322	-0.344564	0.330005
C25	C	2.030824	-0.313598	0.308082
C26	C	1.884635	-0.333047	0.285886
C27	C	1.592233	-0.371941	0.241472
C28	C	1.593937	-0.321520	0.241729
C29	C	1.740139	-0.302072	0.263929
C30	C	1.741827	-0.251666	0.264236
N31	N	1.888017	-0.232214	0.286415
C32	C	2.032516	-0.263180	0.308338
C33	C	1.726436	-0.710466	0.261836
C34	C	1.724744	-0.760885	0.261580
C35	C	2.015444	-0.772399	0.305686
C36	C	2.017135	-0.721980	0.305955
C37	C	1.872626	-0.691014	0.284016
C38	C	2.036056	-0.157304	0.308910
C39	C	2.037734	-0.106884	0.309188
C40	C	1.747034	-0.095373	0.265072
C41	C	1.745355	-0.145789	0.264804
C42	C	1.889879	-0.176753	0.286718
O43	O	1.619168	-0.220659	0.245682
O44	O	2.156994	-0.241997	0.327203
C45	C	2.025752	-0.464844	0.307265
C46	C	1.879563	-0.484293	0.285070
C47	C	1.735064	-0.453327	0.263147
C48	C	1.877871	-0.534711	0.284813
C49	C	2.022369	-0.565677	0.306736
C50	C	2.168559	-0.546225	0.328916
C51	C	2.170250	-0.495810	0.329188
C52	C	1.588874	-0.472779	0.240967
C53	C	1.587196	-0.523195	0.240699
C54	C	1.731694	-0.554161	0.262622
C55	C	2.172740	0.062581	0.329616
C56	C	2.349659	0.063532	0.356447
C57	C	1.867422	0.154490	0.283253
C58	C	1.869242	0.208149	0.283503
N59	N	1.928530	0.051851	0.748834
N60	N	1.833963	0.080376	-0.178049
H61	H	2.156794	-0.091052	0.327270
H62	H	1.331545	0.072394	0.072095
Br63	Br	2.089462	0.003327	0.898609
H64	H	1.430944	0.059834	0.498683
Br65	Br	2.232195	-0.199319	0.338650
H66	H	2.136185	-0.706149	0.324030
Br67	Br	2.373744	-0.318176	0.360083
H68	H	1.471203	-0.447571	0.223110
Br69	Br	2.369764	-0.436996	0.359488
H70	H	1.737429	0.109491	0.732094
Br71	Br	1.550939	-0.053339	0.235321
H72	H	2.133100	-0.797620	0.323538
H73	H	1.605696	-0.776716	0.243534
H74	H	1.473180	-0.387767	0.223385
Br75	Br	1.530294	-0.668447	0.232055
H76	H	1.476257	-0.296309	0.223861
Br77	Br	1.546943	-0.172186	0.234717
Br78	Br	2.364663	-0.588261	0.358682
H79	H	2.289302	-0.479980	0.347264
H80	H	1.468134	-0.539025	0.222636
