data_functionalizedCrystal
_audit_creation_method	'MofGen! by Chris Wilmer'
_symmetry_space_group_name_H-M	'P1'
_symmetry_Int_Tables_number	1
_symmetry_cell_setting	triclinic
loop_
_symmetry_equiv_pos_as_xyz
  x,y,z
_cell_length_a	11.792241
_cell_length_b	16.109301
_cell_length_c	14.586319
_cell_angle_alpha	90.002176
_cell_angle_beta	90.006129
_cell_angle_gamma	96.172552
loop_
_atom_site_label
_atom_site_type_symbol
_atom_site_fract_x
_atom_site_fract_y
_atom_site_fract_z
O1	O	0.145889	-1.103813	0.076183
O2	O	0.164045	-0.861837	0.076197
O3	O	-0.010255	-0.988697	0.076183
O4	O	0.320189	-0.976953	0.076197
O5	O	-0.010266	-0.988696	-0.076298
O6	O	0.164034	-0.861836	-0.076284
O7	O	0.145878	-1.103812	-0.076298
Cu8	Cu	0.154955	-0.982824	-0.090214
Cu9	Cu	0.154968	-0.982825	0.090113
O10	O	0.320178	-0.976952	-0.076284
C11	C	-0.052545	-0.987959	-0.000057
C12	C	-0.178539	-0.985751	-0.000056
C13	C	0.163304	-0.830858	-0.000041
C14	C	0.161099	-0.738552	-0.000036
C15	C	0.146619	-1.134791	-0.000058
C16	C	0.148824	-1.227097	-0.000057
C17	C	-0.409216	-0.981691	-0.000040
C18	C	-0.280850	-0.983947	-0.000049
C19	C	0.362468	-0.977690	-0.000042
C20	C	0.488462	-0.979898	-0.000037
N21	N	0.154969	-0.982827	0.216944
C22	C	0.259398	-0.516743	-0.000042
C23	C	0.257318	-0.430012	-0.000048
C24	C	0.050517	-0.448914	-0.000053
C25	C	0.052599	-0.535642	-0.000054
C26	C	0.157043	-0.569554	-0.000044
C27	C	0.152880	-0.396095	-0.000049
C28	C	0.150624	-0.302059	-0.000056
C29	C	0.159300	-0.663597	-0.000039
N30	N	0.154945	-0.982829	-0.217045
C31	C	0.077939	-1.039110	0.451945
C32	C	0.077936	-1.039113	0.547926
C33	C	0.231984	-0.926543	0.547948
C34	C	0.231991	-0.926545	0.451968
C35	C	0.154962	-0.982828	0.403969
C36	C	0.154952	-0.982828	0.595930
C37	C	0.154950	-0.982830	0.699997
C38	C	0.154965	-0.982827	0.299895
H39	H	0.344443	-0.544351	-0.000041
O40	O	0.002965	-1.093748	0.405416
C41	C	-0.109456	-1.079878	0.428839
H42	H	-0.109418	-1.047840	0.498528
H43	H	-0.144685	-1.038395	0.374818
C44	C	-0.184771	-1.203391	0.347667
C45	C	-0.184724	-1.164048	0.433264
H46	H	-0.231202	-1.255310	0.350392
H47	H	-0.109031	-1.212734	0.331883
H48	H	-0.214125	-1.168814	0.302658
H49	H	-0.155357	-1.198620	0.478268
H50	H	-0.260461	-1.154712	0.449055
H51	H	-0.030757	-0.578644	-0.000057
H52	H	0.015218	-1.084944	0.586985
O53	O	0.356851	-0.378831	-0.000003
C54	C	0.449475	-0.427364	-0.000020
H55	H	0.420646	-0.491956	0.028850
H56	H	0.481484	-0.433688	-0.073171
C57	C	0.581765	-0.305253	0.024324
C58	C	0.546359	-0.384583	0.059788
H59	H	0.641531	-0.278863	0.061212
H60	H	0.519364	-0.272554	0.024331
H61	H	0.608432	-0.310534	-0.036635
H62	H	0.519681	-0.379300	0.120741
H63	H	0.608759	-0.417280	0.059792
O64	O	0.306688	-0.871898	0.594718
C65	C	0.290184	-0.883975	0.689720
H66	H	0.200023	-0.914767	0.702816
H67	H	0.354567	-0.925856	0.716969
C68	C	0.417713	-0.761178	0.722913
C69	C	0.306972	-0.798991	0.738998
H70	H	0.428073	-0.708758	0.753312
H71	H	0.428836	-0.753043	0.658909
H72	H	0.471353	-0.796088	0.745621
H73	H	0.253335	-0.764087	0.716280
H74	H	0.295840	-0.807119	0.803000
O75	O	0.306857	-0.871788	0.405501
C76	C	0.374856	-0.822120	0.468445
H77	H	0.328307	-0.821033	0.536857
H78	H	0.459270	-0.849366	0.478664
C79	C	0.455155	-0.733863	0.346959
C80	C	0.397978	-0.732522	0.430982
H81	H	0.469423	-0.678596	0.323849
H82	H	0.409347	-0.767327	0.304551
H83	H	0.525494	-0.756572	0.355486
H84	H	0.327635	-0.709823	0.422451
H85	H	0.443776	-0.699052	0.473387
O86	O	-0.050905	-0.415928	0.000108
C87	C	-0.058272	-0.366309	0.079070
H88	H	0.001038	-0.387083	0.134265
H89	H	-0.032072	-0.298040	0.061218
C90	C	-0.254677	-0.350750	0.047087
C91	C	-0.181838	-0.376270	0.114881
H92	H	-0.330899	-0.356890	0.069175
H93	H	-0.249713	-0.384177	-0.006114
H94	H	-0.232829	-0.293861	0.032216
H95	H	-0.203678	-0.433160	0.129742
H96	H	-0.186809	-0.342852	0.168085
