data_functionalizedCrystal
_audit_creation_method	'MofGen! by Chris Wilmer'
_symmetry_space_group_name_H-M	'P1'
_symmetry_Int_Tables_number	1
_symmetry_cell_setting	triclinic
loop_
_symmetry_equiv_pos_as_xyz
  x,y,z
_cell_length_a	18.101398
_cell_length_b	12.759399
_cell_length_c	12.759393
_cell_angle_alpha	90.030434
_cell_angle_beta	90.013487
_cell_angle_gamma	90.011773
loop_
_atom_site_label
_atom_site_type_symbol
_atom_site_fract_x
_atom_site_fract_y
_atom_site_fract_z
Zn1	Zn	1.132225	-0.418340	0.593812
Zn2	Zn	1.132145	-0.594056	0.418132
Zn3	Zn	1.008376	-0.418378	0.418170
Zn4	Zn	1.008367	-0.593964	0.593792
O5	O	1.070278	-0.506184	0.505976
O6	O	1.235847	-0.441672	0.570500
O7	O	1.115697	-0.570806	0.271116
O8	O	1.024842	-0.271352	0.441493
O9	O	1.235788	-0.570769	0.441429
O10	O	1.115833	-0.271324	0.570536
O11	O	1.024764	-0.441736	0.271144
O12	O	0.904742	-0.441647	0.441474
O13	O	1.024827	-0.570613	0.740816
O14	O	0.904735	-0.570649	0.570503
O15	O	1.115825	-0.441583	0.740830
O16	O	1.115688	-0.741065	0.441410
O17	O	1.024749	-0.740997	0.570466
C18	C	1.070229	-0.779152	0.505955
C19	C	1.070276	-0.895928	0.505981
C20	C	0.877868	-0.506143	0.505991
C21	C	0.795553	-0.506151	0.506022
C22	C	1.022964	-0.950898	0.438758
C23	C	1.023016	-1.060622	0.438785
C24	C	1.117694	-1.060397	0.573265
C25	C	1.117645	-0.950675	0.573233
C26	C	0.996668	-1.210706	0.314896
C27	C	0.949345	-1.265680	0.247683
C28	C	0.877074	-1.230168	0.231465
C29	C	0.852111	-1.139686	0.282477
C30	C	0.899431	-1.084718	0.349698
C31	C	0.971712	-1.120228	0.365895
C32	C	1.143986	-0.800589	0.697123
C33	C	1.191302	-0.745619	0.764350
C34	C	1.263574	-0.781128	0.780578
C35	C	1.288534	-0.871614	0.729585
C36	C	1.241217	-0.926584	0.662358
C37	C	1.168946	-0.891067	0.646128
C38	C	0.496462	-0.506213	0.505978
C39	C	0.527808	-0.587770	0.586759
C40	C	0.613427	-0.587515	0.587091
C41	C	0.644845	-0.506183	0.506000
C42	C	0.613772	-0.395520	0.536250
C43	C	0.528127	-0.396010	0.536825
C44	C	0.528010	-0.534342	0.394752
C45	C	0.613660	-0.536770	0.395347
C46	C	0.728705	-0.506159	0.506011
C47	C	0.412603	-0.506229	0.505970
C48	C	1.263440	-0.506227	0.505962
C49	C	1.345754	-0.506245	0.505956
C50	C	1.070333	-0.506084	0.780010
C51	C	1.070357	-0.506041	0.896786
C52	C	1.070348	-0.232151	0.506021
C53	C	1.070377	-0.115374	0.506040
C54	C	1.070265	-0.506209	0.233009
C55	C	1.070385	-0.505956	0.116233
C56	C	1.117743	-0.438844	0.951658
C57	C	1.117756	-0.438799	1.061382
C58	C	1.022994	-0.573156	1.061354
C59	C	1.022978	-0.573195	0.951632
C60	C	1.144270	-0.314846	1.211355
C61	C	1.191668	-0.247659	1.266230
C62	C	1.263928	-0.231559	1.230625
C63	C	1.288805	-0.282662	1.140147
C64	C	1.241411	-0.349857	1.085278
C65	C	1.169141	-0.365937	1.120881
C66	C	0.996471	-0.697149	0.801657
C67	C	0.949081	-0.764350	0.746786
C68	C	0.876819	-0.780461	0.782388
C69	C	0.851945	-0.729377	0.872869
C70	C	0.899336	-0.662175	0.927741
C71	C	0.971596	-0.646063	0.892131
H72	H	0.984394	-0.906326	0.383996
F73	F	1.168102	-1.118672	0.644839
H74	H	1.261667	-0.391468	1.011616
H75	H	0.507391	-0.333066	0.480685
F76	F	0.500877	-0.695383	0.562264
H77	H	1.347649	-0.269555	1.111170
H78	H	0.507738	-0.474936	0.334563
H79	H	0.506298	-0.569394	0.668694
F80	F	0.775185	-1.101909	0.265227
F81	F	1.314372	-0.160054	1.289032
F82	F	1.165190	-0.193274	1.362520
H83	H	0.838543	-1.274936	0.176739
F84	F	1.073374	-0.679979	0.763739
F85	F	0.640229	-0.563186	0.694809
F86	F	1.067359	-0.331963	1.249247
F87	F	1.164735	-0.649314	0.818621
H88	H	0.879107	-1.011049	0.391230
F89	F	1.313928	-0.722626	0.852137
H90	H	0.984421	-0.627833	1.106022
H91	H	0.635236	-0.371232	0.616677
H92	H	1.085142	-0.771651	0.683891
H93	H	0.633978	-0.618202	0.372532
H94	H	0.969676	-1.339351	0.206150
H95	H	0.879077	-0.620580	1.001416
H96	H	1.055519	-1.239621	0.328084
F97	F	0.775037	-0.746525	0.910766
F98	F	1.267784	-1.022890	0.608088
F99	F	0.502033	-0.364829	0.643104
H100	H	1.347364	-0.900576	0.742866
F101	F	0.640889	-0.694783	0.562345
F102	F	0.640372	-0.313937	0.461750
H103	H	1.156320	-0.384160	0.907006
H104	H	0.506410	-0.613658	0.367260
F105	F	0.826388	-0.852003	0.723997
H106	H	0.635047	-0.481682	0.331927
H107	H	0.969343	-0.805956	0.673118
