data_functionalizedCrystal
_audit_creation_method	'MofGen! by Chris Wilmer'
_symmetry_space_group_name_H-M	'P1'
_symmetry_Int_Tables_number	1
_symmetry_cell_setting	triclinic
loop_
_symmetry_equiv_pos_as_xyz
  x,y,z
_cell_length_a	8.597187
_cell_length_b	8.634740
_cell_length_c	9.616153
_cell_angle_alpha	90.002178
_cell_angle_beta	82.294870
_cell_angle_gamma	92.880146
loop_
_atom_site_label
_atom_site_type_symbol
_atom_site_fract_x
_atom_site_fract_y
_atom_site_fract_z
O1	O	2.117354	0.230669	-0.369334
O2	O	1.663089	0.248366	-0.314908
O3	O	1.868718	0.014717	-0.339541
O4	O	1.911725	0.464318	-0.344701
O5	O	1.868702	0.014731	-0.108248
O6	O	1.663073	0.248380	-0.083615
O7	O	2.117339	0.230682	-0.138041
Zn8	Zn	1.890203	0.239533	-0.074105
Zn9	Zn	1.890224	0.239515	-0.378844
O10	O	1.911709	0.464331	-0.113408
C11	C	1.604321	0.246473	-0.192221
C12	C	1.429232	0.240791	-0.171244
C13	C	1.858968	-0.042873	-0.222730
C14	C	1.829919	-0.214494	-0.219256
C15	C	2.176106	0.232576	-0.260731
C16	C	2.351195	0.238257	-0.281718
C17	C	1.921460	0.521921	-0.230222
C18	C	1.950508	0.693542	-0.233706
N19	N	1.890201	0.239544	0.133870
N20	N	1.890237	0.239492	-0.586820
C21	C	1.780144	0.364511	0.206096
C22	C	1.779657	0.364146	0.367322
C23	C	1.830644	0.077505	0.361792
C24	C	1.829807	0.078265	0.200675
C25	C	2.060031	0.275110	0.172907
C26	C	2.059501	0.278727	0.334200
H27	H	2.075973	-0.253896	-0.248786
C28	C	1.712780	0.585748	0.509737
C29	C	1.832567	0.526422	0.414574
H30	H	1.745530	0.685891	0.538944
H31	H	1.620823	0.592806	0.465750
H32	H	1.690770	0.518790	0.589070
H33	H	1.854570	0.593375	0.335235
H34	H	1.924552	0.519373	0.458560
C35	C	1.665691	-0.103424	0.511954
C36	C	1.664194	0.034898	0.436258
H37	H	1.562931	-0.129712	0.557928
H38	H	1.699147	-0.184083	0.449510
H39	H	1.735997	-0.090271	0.579778
H40	H	1.593897	0.021742	0.368427
H41	H	1.630718	0.115577	0.498708
H42	H	1.905686	-0.017682	0.152524
C43	C	2.176566	0.154577	-0.038132
C44	C	2.170994	0.152158	0.108052
H45	H	2.245070	0.078678	-0.078174
H46	H	2.074147	0.132470	-0.062066
H47	H	2.214286	0.254222	-0.073299
H48	H	2.133262	0.052516	0.143220
H49	H	2.273434	0.174254	0.131997
C50	C	1.603551	0.246418	-0.423636
C51	C	1.441825	0.241181	-0.431068
H52	H	1.659497	0.248214	-0.515837
H53	H	1.632052	0.337178	-0.375228
H54	H	1.628785	0.157396	-0.374819
H55	H	1.416588	0.330210	-0.479875
H56	H	1.413312	0.150411	-0.479496
H57	H	1.705227	0.047398	0.178024
C58	C	2.053888	0.013535	0.472040
C59	C	1.934638	-0.051262	0.401015
H60	H	2.118083	-0.065963	0.496262
H61	H	2.116139	0.087730	0.413118
H62	H	2.008312	0.062759	0.554923
H63	H	1.980215	-0.100476	0.318126
H64	H	1.872379	-0.125484	0.459940
C65	C	1.663564	-0.447428	-0.199328
C66	C	1.660530	-0.285444	-0.198962
H67	H	1.558991	-0.491226	-0.186791
H68	H	1.716868	-0.480458	-0.286368
H69	H	1.716872	-0.480455	-0.125055
H70	H	1.607232	-0.252416	-0.273242
H71	H	1.607203	-0.252401	-0.111911
H72	H	1.818841	0.485231	0.162705
H73	H	2.111409	0.390890	0.126102
C74	C	1.566257	0.462735	0.101499
C75	C	1.611663	0.333821	0.171635
H76	H	1.462249	0.443777	0.080216
H77	H	1.569867	0.551352	0.159720
H78	H	1.635849	0.480486	0.016981
H79	H	1.542077	0.316077	0.256159
H80	H	1.608040	0.245178	0.113412
H81	H	1.654136	0.341083	0.420956
H82	H	2.104158	0.397920	0.367080
H83	H	1.362094	0.238632	-0.060622
H84	H	2.147089	0.193834	0.363939
