data_functionalizedCrystal
_audit_creation_method	'MofGen! by Chris Wilmer'
_symmetry_space_group_name_H-M	'P1'
_symmetry_Int_Tables_number	1
_symmetry_cell_setting	triclinic
loop_
_symmetry_equiv_pos_as_xyz
  x,y,z
_cell_length_a	11.169417
_cell_length_b	19.120786
_cell_length_c	11.169409
_cell_angle_alpha	87.520717
_cell_angle_beta	89.980176
_cell_angle_gamma	92.466141
loop_
_atom_site_label
_atom_site_type_symbol
_atom_site_fract_x
_atom_site_fract_y
_atom_site_fract_z
Zn1	Zn	1.814456	-0.279559	-0.658103
Zn2	Zn	2.314456	0.220441	-0.158103
Zn3	Zn	1.805728	-0.397041	-0.448830
Zn4	Zn	2.305728	0.102959	0.051170
Zn5	Zn	1.613739	-0.279602	-0.457434
Zn6	Zn	2.113739	0.220398	0.042566
Zn7	Zn	1.605136	-0.396983	-0.649479
Zn8	Zn	2.105136	0.103017	-0.149479
O9	O	1.709765	-0.338296	-0.553462
O10	O	2.209765	0.161704	-0.053462
O11	O	1.981248	-0.295149	-0.630351
O12	O	2.481248	0.204851	-0.130351
O13	O	1.780208	-0.381504	-0.282019
O14	O	2.280208	0.118496	0.217981
O15	O	1.647618	-0.181305	-0.491263
O16	O	2.147618	0.318695	0.008737
O17	O	1.974835	-0.381462	-0.476599
O18	O	2.474835	0.118538	0.023401
O19	O	1.795084	-0.181274	-0.638694
O20	O	2.295084	0.318726	-0.138694
O21	O	1.639154	-0.295222	-0.288340
O22	O	2.139154	0.204778	0.211660
O23	O	1.444649	-0.295167	-0.482901
O24	O	1.944649	0.204833	0.017099
O25	O	1.632956	-0.381365	-0.818576
O26	O	2.132956	0.118635	-0.318576
O27	O	1.438328	-0.381407	-0.623996
O28	O	1.938328	0.118593	-0.123996
O29	O	1.786742	-0.295094	-0.824912
O30	O	2.286742	0.204906	-0.324912
O31	O	1.771866	-0.495324	-0.468237
O32	O	2.271866	0.004676	0.031763
O33	O	1.624492	-0.495282	-0.615653
O34	O	2.124492	0.004718	-0.115653
C35	C	1.397941	-0.338286	-0.553447
C36	C	1.897941	0.161714	-0.053447
C37	C	1.264540	-0.338298	-0.553468
C38	C	1.764540	0.161702	-0.053468
C39	C	1.696331	-0.520789	-0.540102
C40	C	2.196331	-0.020789	-0.040102
C41	C	1.690694	-0.598860	-0.534427
C42	C	2.190694	-0.098860	-0.034427
C43	C	1.764766	-0.635461	-0.608582
C44	C	2.264766	-0.135461	-0.108582
C45	C	1.759465	-0.708817	-0.603251
C46	C	2.259465	-0.208817	-0.103251
C47	C	1.680096	-0.745571	-0.523759
C48	C	2.180096	-0.245571	-0.023759
C49	C	1.606016	-0.708965	-0.449601
C50	C	2.106016	-0.208965	0.050399
C51	C	1.611312	-0.635610	-0.454938
C52	C	2.111312	-0.135610	0.045062
C53	C	1.660261	-0.967059	-0.503806
C54	C	2.160261	-0.467059	-0.003806
C55	C	1.654973	-1.040419	-0.498471
C56	C	2.154973	-0.540419	0.001529
C57	C	1.808420	-1.040266	-0.652125
C58	C	2.308420	-0.540266	-0.152125
C59	C	1.813715	-0.966910	-0.657450
C60	C	2.313715	-0.466910	-0.157450
C61	C	1.739630	-0.930310	-0.583296
C62	C	2.239630	-0.430310	-0.083296
C63	C	1.674678	-0.820553	-0.518306
C64	C	2.174678	-0.320553	-0.018306
C65	C	1.745043	-0.855330	-0.588756
C66	C	2.245043	-0.355330	-0.088756
C67	C	2.022806	-0.338307	-0.553477
C68	C	2.522806	0.161693	-0.053477
C69	C	2.156206	-0.338312	-0.553484
C70	C	2.656206	0.161688	-0.053484
C71	C	1.709863	-0.338218	-0.866510
C72	C	2.209863	0.161782	-0.366510
C73	C	1.709904	-0.338185	-0.999913
C74	C	2.209904	0.161815	-0.499913
C75	C	1.723284	-0.155091	-0.566900
C76	C	2.223284	0.344909	-0.066900
C77	C	1.729045	-0.077020	-0.572627
C78	C	2.229045	0.422980	-0.072627
C79	C	1.709740	-0.338323	-0.241635
C80	C	2.209740	0.161677	0.258365
C81	C	1.709945	-0.338159	-0.108248
C82	C	2.209945	0.161841	0.391752
H83	H	1.829402	-0.605541	-0.673308
H84	H	2.329402	-0.105541	-0.173308
O85	O	1.520427	-0.748608	-0.363849
O86	O	2.020427	-0.248608	0.136151
H87	H	1.456931	-0.782046	-0.415070
H88	H	1.956931	-0.282046	0.084930
H89	H	1.878343	-0.936987	-0.722179
H90	H	2.378343	-0.436987	-0.222179
O91	O	1.839357	-0.748297	-0.683231
O92	O	2.339357	-0.248297	-0.183231
H93	H	1.895447	-0.710416	-0.739392
H94	H	2.395447	-0.210416	-0.239392
H95	H	1.550993	-0.605810	-0.394554
H96	H	2.050993	-0.105810	0.105446
O97	O	1.830659	-0.815694	-0.674483
O98	O	2.330659	-0.315694	-0.174483
H99	H	1.779334	-0.782267	-0.737929
H100	H	2.279334	-0.282267	-0.237929
H101	H	1.868734	-1.070074	-0.712498
H102	H	2.368734	-0.570074	-0.212498
H103	H	1.599940	-0.937265	-0.443425
H104	H	2.099940	-0.437265	0.056575
O105	O	1.569356	-1.080065	-0.412739
O106	O	2.069356	-0.580065	0.087261
H107	H	1.518719	-1.042291	-0.362080
H108	H	2.018719	-0.542291	0.137920
H109	H	1.610059	-0.850486	-0.453579
H110	H	2.110059	-0.350486	0.046421
