data_functionalizedCrystal
_audit_creation_method	'MofGen! by Chris Wilmer'
_symmetry_space_group_name_H-M	'P1'
_symmetry_Int_Tables_number	1
_symmetry_cell_setting	triclinic
loop_
_symmetry_equiv_pos_as_xyz
  x,y,z
_cell_length_a	11.792241
_cell_length_b	11.792241
_cell_length_c	16.776229
_cell_angle_alpha	89.993219
_cell_angle_beta	89.997077
_cell_angle_gamma	84.193416
loop_
_atom_site_label
_atom_site_type_symbol
_atom_site_fract_x
_atom_site_fract_y
_atom_site_fract_z
O1	O	1.506913	0.155571	-0.066211
O2	O	1.176572	0.171603	-0.066230
O3	O	1.349759	-0.001584	-0.066214
O4	O	1.333726	0.328757	-0.066226
O5	O	1.349736	-0.001594	0.066362
O6	O	1.176549	0.171593	0.066347
O7	O	1.506890	0.155560	0.066365
Zn8	Zn	1.341715	0.163574	0.087405
Zn9	Zn	1.341746	0.163589	-0.087270
O10	O	1.333703	0.328747	0.066350
C11	C	1.134269	0.170591	0.000056
C12	C	1.008255	0.167576	0.000049
C13	C	0.777543	0.162034	0.000072
C14	C	0.905928	0.165113	0.000060
C15	C	1.348740	-0.043880	0.000074
C16	C	1.345726	-0.169894	0.000073
C17	C	1.340183	-0.400606	0.000059
C18	C	1.343262	-0.272221	0.000066
C19	C	1.549192	0.156572	0.000078
C20	C	1.675206	0.159587	0.000079
C21	C	1.334721	0.371043	0.000060
C22	C	1.337736	0.497057	0.000056
N23	N	1.341703	0.163564	0.206617
N24	N	1.341767	0.163590	-0.206481
C25	C	1.418414	0.086909	0.248341
C26	C	1.418420	0.086908	0.331793
C27	C	1.341720	0.163568	0.373520
C28	C	1.265001	0.240227	0.331790
C29	C	1.264990	0.240222	0.248339
C30	C	1.265042	0.240250	0.668337
C31	C	1.265061	0.240252	0.751794
C32	C	1.418472	0.086936	0.751791
C33	C	1.418461	0.086930	0.668340
C34	C	1.341739	0.163585	0.626618
C35	C	1.341731	0.163583	0.536129
C36	C	1.341732	0.163576	0.464006
H37	H	1.480876	0.024487	0.214372
Br38	Br	1.522563	-0.017106	0.611713
Br39	Br	1.160870	0.344252	0.191714
H40	H	1.480941	0.024516	0.785770
H41	H	1.202544	0.302642	0.365769
Br42	Br	1.522525	-0.017130	0.388421
Br43	Br	1.160962	0.344300	0.808423
H44	H	1.202574	0.302667	0.634373
