data_functionalizedCrystal
_audit_creation_method	'MofGen! by Chris Wilmer'
_symmetry_space_group_name_H-M	'P1'
_symmetry_Int_Tables_number	1
_symmetry_cell_setting	triclinic
loop_
_symmetry_equiv_pos_as_xyz
  x,y,z
_cell_length_a	6.817900
_cell_length_b	11.102183
_cell_length_c	12.200875
_cell_angle_alpha	92.492789
_cell_angle_beta	107.143593
_cell_angle_gamma	108.603876
loop_
_atom_site_label
_atom_site_type_symbol
_atom_site_fract_x
_atom_site_fract_y
_atom_site_fract_z
V1	V	-4.094459	-0.176127	-0.357659
O2	O	-4.053827	0.008167	-0.350853
O3	O	-4.071342	-0.348945	-0.355211
O4	O	-4.063799	-0.173548	-0.513647
O5	O	-4.061422	-0.168444	-0.191319
V6	V	-4.572512	-0.154068	-0.337764
O7	O	-4.367716	-0.224516	-0.401301
O8	O	-4.749452	-0.105680	-0.294122
O9	O	-4.372422	0.018750	-0.340212
O10	O	-4.730540	-0.338362	-0.344570
O11	O	-4.722945	-0.161751	-0.504103
O12	O	-4.379965	-0.156647	-0.181775
C13	C	-3.921919	-0.391070	-0.349568
C14	C	-3.984423	-0.532352	-0.348606
C15	C	-3.912296	-0.167333	-0.551668
C16	C	-3.968679	-0.166368	-0.679189
C17	C	-3.874090	-0.495905	-0.138500
C18	C	-3.848285	-0.544055	-0.032999
C19	C	-3.907021	-0.676802	-0.032102
C20	C	-3.991575	-0.761404	-0.136716
C21	C	-4.017381	-0.713254	-0.242217
C22	C	-3.958631	-0.580502	-0.243103
C23	C	-4.127728	-0.749702	-0.452321
C24	C	-4.068978	-0.616954	-0.453221
C25	C	-4.212282	-0.834304	-0.556936
C26	C	-4.238075	-0.786154	-0.662439
C27	C	-4.179330	-0.653398	-0.663332
C28	C	-4.094784	-0.568804	-0.558722
C29	C	-4.071869	-0.164603	-0.912664
C30	C	-4.014439	-0.165584	-0.782742
C31	C	-4.185187	0.060868	-0.345851
C32	C	-4.101922	0.202148	-0.346821
C33	C	-4.194809	-0.162867	-0.143749
C34	C	-4.117664	-0.163825	-0.016226
H35	H	-3.826199	-0.387811	-0.139219
Br36	Br	-3.872021	-0.742155	0.111077
H37	H	-4.039422	-0.869494	-0.135977
Br38	Br	-4.292022	-1.014464	-0.555721
H39	H	-3.779441	-0.475158	0.052176
Br40	Br	-4.352847	-0.900974	-0.804402
H41	H	-4.200376	-0.614205	-0.749245
Br42	Br	-4.015041	-0.388643	-0.559925
