data_functionalizedCrystal
_audit_creation_method	'MofGen! by Chris Wilmer'
_symmetry_space_group_name_H-M	'P1'
_symmetry_Int_Tables_number	1
_symmetry_cell_setting	triclinic
loop_
_symmetry_equiv_pos_as_xyz
  x,y,z
_cell_length_a	19.077105
_cell_length_b	15.297327
_cell_length_c	19.077271
_cell_angle_alpha	78.476752
_cell_angle_beta	89.912562
_cell_angle_gamma	97.818066
loop_
_atom_site_label
_atom_site_type_symbol
_atom_site_fract_x
_atom_site_fract_y
_atom_site_fract_z
Zn1	Zn	0.996981	-0.436368	0.496838
Zn2	Zn	1.496981	0.063632	0.996838
Zn3	Zn	0.981313	-0.581310	0.398074
Zn4	Zn	1.481313	-0.081310	0.898074
Zn5	Zn	0.885922	-0.424249	0.373065
Zn6	Zn	1.385922	0.075751	0.873065
Zn7	Zn	0.859184	-0.580803	0.510760
Zn8	Zn	1.359184	-0.080803	1.010760
O9	O	0.930850	-0.505682	0.444684
O10	O	1.430850	-0.005682	0.944684
O11	O	1.092493	-0.460879	0.488376
O12	O	1.592493	0.039121	0.988376
O13	O	0.973291	-0.555616	0.295797
O14	O	1.473291	-0.055616	0.795797
O15	O	0.918401	-0.299679	0.373192
O16	O	1.418401	0.200321	0.873192
O17	O	1.080981	-0.567367	0.415815
O18	O	1.580981	-0.067367	0.915815
O19	O	0.999996	-0.308583	0.464127
O20	O	1.499996	0.191417	0.964127
O21	O	0.903208	-0.440224	0.277424
O22	O	1.403208	0.059776	0.777424
O23	O	0.784785	-0.439732	0.386691
O24	O	1.284785	0.060268	0.886691
O25	O	0.872831	-0.566503	0.607872
O26	O	1.372831	-0.066503	1.107872
O27	O	0.765141	-0.554752	0.487854
O28	O	1.265141	-0.054752	0.987854
O29	O	0.974070	-0.460388	0.597644
O30	O	1.474070	0.039612	1.097644
O31	O	0.947365	-0.707420	0.429314
O32	O	1.447365	-0.207420	0.929314
O33	O	0.857638	-0.707047	0.512104
O34	O	1.357638	-0.207047	1.012104
C35	C	0.749659	-0.495872	0.436070
C36	C	1.249659	0.004128	0.936070
C37	C	0.672141	-0.491698	0.432405
C38	C	1.172141	0.008302	0.932405
C39	C	0.625505	-0.549705	0.483293
C40	C	1.125505	-0.049705	0.983293
C41	C	0.552670	-0.545771	0.479851
C42	C	1.052670	-0.045771	0.979851
C43	C	0.526472	-0.483834	0.425517
C44	C	1.026472	0.016166	0.925517
C45	C	0.573114	-0.425821	0.374626
C46	C	1.073114	0.074179	0.874626
C47	C	0.645948	-0.429751	0.378071
C48	C	1.145948	0.070249	0.878071
C49	C	0.309739	-0.465645	0.409572
C50	C	0.809739	0.034355	0.909572
C51	C	0.236898	-0.461722	0.406129
C52	C	0.736898	0.038278	0.906129
C53	C	0.216459	-0.581671	0.511356
C54	C	0.716459	-0.081671	1.011356
C55	C	0.289295	-0.585599	0.514794
C56	C	0.789295	-0.085599	1.014794
C57	C	0.335931	-0.527583	0.463905
C58	C	0.835931	-0.027583	0.963905
N59	N	0.452023	-0.479814	0.421995
N60	N	0.952023	0.020186	0.921995
N61	N	0.410379	-0.531600	0.467430
N62	N	0.910379	-0.031600	0.967430
C63	C	0.897918	-0.739952	0.474950
C64	C	1.397918	-0.239952	0.974950
C65	C	0.883893	-0.840178	0.487924
C66	C	1.383893	-0.340178	0.987924
C67	C	1.031370	-1.123362	0.352209
C68	C	1.531370	-0.623362	0.852209
C69	C	1.044547	-1.029195	0.340015
C70	C	1.544547	-0.529195	0.840015
C71	C	1.004385	-0.981936	0.376991
C72	C	1.504385	-0.481936	0.876991
C73	C	0.951042	-1.028854	0.426163
C74	C	1.451042	-0.528854	0.926163
C75	C	0.937860	-1.123030	0.438354
C76	C	1.437860	-0.623030	0.938354
C77	C	0.910875	-0.981604	0.463137
C78	C	1.410875	-0.481604	0.963137
C79	C	0.857532	-1.028521	0.512309
C80	C	1.357532	-0.528521	1.012309
C81	C	0.844352	-1.122688	0.524498
C82	C	1.344352	-0.622688	1.024498
C83	C	0.884515	-1.169947	0.487521
C84	C	1.384515	-0.669947	0.987521
C85	C	0.924058	-0.887427	0.450946
C86	C	1.424058	-0.387427	0.950946
C87	C	0.830548	-0.887095	0.537091
C88	C	1.330548	-0.387095	1.037091
C89	C	0.817370	-0.981262	0.549285
C90	C	1.317370	-0.481262	1.049285
C91	C	1.112748	-0.515531	0.453332
C92	C	1.612748	-0.015531	0.953332
C93	C	1.190262	-0.519729	0.457017
C94	C	1.690262	-0.019729	0.957017
C95	C	0.922216	-0.514741	0.629134
C96	C	1.422216	-0.014741	1.129134
C97	C	0.918537	-0.518601	0.707736
C98	C	1.418537	-0.018601	1.207736
C99	C	0.963929	-0.270500	0.414317
C100	C	1.463929	0.229500	0.914317
C101	C	0.978025	-0.170280	0.401376
C102	C	1.478025	0.329720	0.901376
C103	C	0.969515	-0.465168	0.739339
C104	C	1.469515	0.034832	1.239339
C105	C	0.966050	-0.468791	0.813193
C106	C	1.466050	0.031209	1.313193
C107	C	0.911609	-0.525852	0.855443
C108	C	1.411609	-0.025852	1.355443
C109	C	0.860625	-0.579287	0.823834
C110	C	1.360625	-0.079287	1.323834
C111	C	0.864088	-0.575659	0.749981
C112	C	1.364088	-0.075659	1.249981
C113	C	0.895598	-0.542624	1.076890
C114	C	1.395598	-0.042624	1.576890
C115	C	0.892140	-0.546250	1.150749
C116	C	1.392140	-0.046250	1.650749
C117	C	0.997564	-0.435753	1.140102
C118	C	1.497564	0.064247	1.640102
C119	C	1.001024	-0.432133	1.066248
C120	C	1.501024	0.067867	1.566248
C121	C	0.950039	-0.485564	1.034646
C122	C	1.450039	0.014436	1.534646
N123	N	0.908067	-0.529559	0.930933
N124	N	1.408067	-0.029559	1.430933
N125	N	0.953579	-0.481852	0.959156
N126	N	1.453579	0.018148	1.459156
C127	C	0.939441	-0.496679	1.260954
C128	C	1.439441	0.003321	1.760954
C129	C	0.943118	-0.492817	1.182352
C130	C	1.443118	0.007183	1.682352
H131	H	0.178481	-0.628903	0.552787
H132	H	0.678481	-0.128903	1.052787
H133	H	0.873790	-1.246626	0.497449
H134	H	1.373790	-0.746626	0.997449
H135	H	0.797843	-0.848617	0.567199
H136	H	1.297843	-0.348617	1.067199
C137	C	0.758689	-1.032883	0.603367
C138	C	1.258689	-0.532883	1.103367
N139	N	0.714489	-1.071765	0.644100
N140	N	1.214489	-0.571765	1.144100
H141	H	0.800910	-1.160885	0.564528
H142	H	1.300910	-0.660885	1.064528
C143	C	1.053637	-0.376971	1.174869
C144	C	1.553637	0.123029	1.674869
N145	N	1.095871	-0.332689	1.201055
N146	N	1.595871	0.167311	1.701055
C147	C	0.832246	-0.609022	1.197222
C148	C	1.332246	-0.109022	1.697222
N149	N	0.787136	-0.656299	1.232226
N150	N	1.287136	-0.156299	1.732226
C151	C	0.208084	-0.393582	0.346355
C152	C	0.708084	0.106418	0.846355
N153	N	0.186380	-0.342263	0.301335
N154	N	0.686380	0.157737	0.801335
H155	H	1.013849	-0.418705	0.704944
H156	H	1.513849	0.081295	1.204944
C157	C	1.075535	-1.175352	0.311533
C158	C	1.575535	-0.675352	0.811533
N159	N	1.108801	-1.214512	0.280891
N160	N	1.608801	-0.714512	0.780891
H161	H	0.514701	-0.593008	0.521289
H162	H	1.014701	-0.093008	1.021289
H163	H	0.967489	-0.849235	0.410910
H164	H	1.467489	-0.349235	0.910910
C165	C	0.839510	-0.601398	1.042137
C166	C	1.339510	-0.101398	1.542137
N167	N	0.797261	-0.645667	1.015958
N168	N	1.297261	-0.145667	1.515958
C169	C	1.022131	-0.410012	0.847953
C170	C	1.522131	0.089988	1.347953
N171	N	1.064375	-0.365737	0.874133
N172	N	1.564375	0.134263	1.374133
C173	C	1.060908	-0.369352	1.019777
C174	C	1.560908	0.130648	1.519777
N175	N	1.106013	-0.322063	0.984775
N176	N	1.606013	0.177937	1.484775
H177	H	0.822570	-0.619160	0.724250
H178	H	1.322570	-0.119160	1.224250
C179	C	0.654315	-0.617842	0.543066
C180	C	1.154315	-0.117842	1.043066
N181	N	0.676013	-0.669162	0.588090
N182	N	1.176013	-0.169162	1.088090
C183	C	0.318106	-0.653739	0.574563
C184	C	0.818106	-0.153739	1.074563
N185	N	0.339806	-0.705067	0.619580
N186	N	0.839806	-0.205067	1.119580
H187	H	0.347701	-0.418411	0.368130
H188	H	0.847701	0.081589	0.868130
C189	C	0.544294	-0.357687	0.314858
C190	C	1.044294	0.142313	0.814858
N191	N	0.522587	-0.306370	0.269839
N192	N	1.022587	0.193630	0.769839
C193	C	0.697248	-0.365941	0.322089
C194	C	1.197248	0.134059	0.822089
N195	N	0.735887	-0.317875	0.279921
N196	N	1.235887	0.182125	0.779921
H197	H	0.816296	-0.625744	0.858240
H198	H	1.316296	-0.125744	1.358240
H199	H	1.015117	-0.905261	0.367060
H200	H	1.515117	-0.405261	0.867060
H201	H	1.087978	-0.990998	0.299979
H202	H	1.587978	-0.490998	0.799979
