data_functionalizedCrystal
_audit_creation_method	'MofGen! by Chris Wilmer'
_symmetry_space_group_name_H-M	'P1'
_symmetry_Int_Tables_number	1
_symmetry_cell_setting	triclinic
loop_
_symmetry_equiv_pos_as_xyz
  x,y,z
_cell_length_a	8.497374
_cell_length_b	8.497374
_cell_length_c	10.686220
_cell_angle_alpha	85.634072
_cell_angle_beta	94.375433
_cell_angle_gamma	90.000078
loop_
_atom_site_label
_atom_site_type_symbol
_atom_site_fract_x
_atom_site_fract_y
_atom_site_fract_z
Zn1	Zn	-0.443010	0.707296	1.929066
Zn2	Zn	-0.706754	0.443535	1.929081
Zn3	Zn	-0.463249	0.463726	1.718120
Zn4	Zn	-0.727007	0.727472	1.718114
O5	O	-0.585005	0.585507	1.823595
O6	O	-0.461050	0.655414	2.105641
O7	O	-0.674447	0.225450	1.901105
O8	O	-0.239802	0.496042	1.746098
O9	O	-0.654822	0.461630	2.105652
O10	O	-0.224933	0.674991	1.901080
O11	O	-0.495544	0.240284	1.746113
O12	O	-0.515183	0.515606	1.541547
O13	O	-0.689341	0.945558	1.746089
O14	O	-0.708965	0.709379	1.541543
O15	O	-0.480689	0.930735	1.901075
O16	O	-0.930203	0.481194	1.901100
O17	O	-0.945083	0.689801	1.746104
C18	C	-0.616469	0.616874	1.495762
C19	C	-0.629967	0.630330	1.355513
C20	C	0.005115	0.585502	1.823591
C21	C	-0.173529	0.585511	1.823597
C22	C	-0.585008	0.996988	1.823586
C23	C	-0.585025	1.175632	1.823589
C24	C	-0.553420	0.554019	2.152710
C25	C	-0.539960	0.540601	2.292958
H26	H	-0.452575	0.453484	1.346697
Cl27	Cl	-0.764911	0.764826	1.272543
