data_functionalizedCrystal
_audit_creation_method	'MofGen! by Chris Wilmer'
_symmetry_space_group_name_H-M	'P1'
_symmetry_Int_Tables_number	1
_symmetry_cell_setting	triclinic
loop_
_symmetry_equiv_pos_as_xyz
  x,y,z
_cell_length_a	29.839131
_cell_length_b	29.839135
_cell_length_c	12.759393
_cell_angle_alpha	89.975079
_cell_angle_beta	89.966279
_cell_angle_gamma	90.044233
loop_
_atom_site_label
_atom_site_type_symbol
_atom_site_fract_x
_atom_site_fract_y
_atom_site_fract_z
Zn1	Zn	-0.178796	0.686761	-0.594146
Zn2	Zn	-0.253935	0.686680	-0.418459
Zn3	Zn	-0.178823	0.611631	-0.418465
Zn4	Zn	-0.253904	0.611591	-0.594081
O5	O	-0.216365	0.649166	-0.506288
O6	O	-0.188766	0.749617	-0.570865
O7	O	-0.243996	0.676708	-0.271439
O8	O	-0.115952	0.621648	-0.441799
O9	O	-0.243970	0.749558	-0.441789
O10	O	-0.115933	0.676845	-0.570871
O11	O	-0.188811	0.621570	-0.271443
O12	O	-0.188781	0.548759	-0.441737
O13	O	-0.243916	0.621579	-0.741111
O14	O	-0.243942	0.548729	-0.570761
O15	O	-0.188735	0.676806	-0.741158
O16	O	-0.316798	0.676669	-0.441726
O17	O	-0.316775	0.621501	-0.570755
C18	C	-0.216361	0.532443	-0.506243
C19	C	-0.216370	0.482509	-0.506249
C20	C	-0.187663	0.172893	-0.573597
C21	C	-0.187666	-0.014780	-0.573627
O22	O	-0.163248	-0.039021	-0.630838
N23	N	-0.216365	-0.038276	-0.506326
C24	C	-0.245063	-0.014852	-0.439009
O25	O	-0.269469	-0.039143	-0.381759
C26	C	-0.245057	0.172820	-0.438974
C27	C	-0.216360	0.196314	-0.506287
C28	C	-0.158968	0.196387	-0.640903
C29	C	-0.158969	0.243303	-0.640898
C30	C	-0.187666	0.266724	-0.573588
C31	C	-0.216361	0.243230	-0.506283
C32	C	-0.273752	0.196244	-0.371653
C33	C	-0.273747	0.243165	-0.371648
C34	C	-0.245050	0.266659	-0.438960
C35	C	-0.245059	0.313567	-0.438968
N36	N	-0.216360	0.337063	-0.506269
C37	C	-0.187664	0.313642	-0.573579
C38	C	-0.245064	-0.113382	-0.439033
C39	C	-0.245066	-0.160300	-0.439043
C40	C	-0.187669	-0.160225	-0.573659
C41	C	-0.187670	-0.113306	-0.573654
C42	C	-0.216366	-0.089886	-0.506333
C43	C	-0.187669	0.412168	-0.573566
C44	C	-0.187674	0.459087	-0.573559
C45	C	-0.245069	0.459008	-0.438939
C46	C	-0.245066	0.412093	-0.438949
C47	C	-0.216362	0.388674	-0.506266
O48	O	-0.269460	0.337837	-0.381778
O49	O	-0.163254	0.337941	-0.630804
C50	C	-0.187662	0.125978	-0.573601
C51	C	-0.216357	0.102484	-0.506295
C52	C	-0.245054	0.125905	-0.438985
C53	C	-0.216359	0.055566	-0.506305
C54	C	-0.187663	0.032144	-0.573615
C55	C	-0.158964	0.055641	-0.640915
C56	C	-0.158966	0.102556	-0.640911
C57	C	-0.273752	0.102408	-0.371685
C58	C	-0.273749	0.055493	-0.371695
C59	C	-0.245053	0.032072	-0.439005
C60	C	-0.333087	0.649084	-0.506256
C61	C	-0.383022	0.649090	-0.506277
C62	C	-0.739612	0.620458	-0.573468
C63	C	-0.551939	0.620399	-0.573436
O64	O	-0.527678	0.595957	-0.630544
N65	N	-0.528467	0.649138	-0.506308
C66	C	-0.551915	0.677895	-0.439189
O67	O	-0.527644	0.702341	-0.382100
C68	C	-0.739587	0.677957	-0.439228
C69	C	-0.763058	0.649213	-0.506352
C70	C	-0.763082	0.591717	-0.640588
C71	C	-0.809998	0.591731	-0.640591
C72	C	-0.833443	0.620485	-0.573475
C73	C	-0.809973	0.649226	-0.506356
C74	C	-0.763035	0.706716	-0.372115
C75	C	-0.809956	0.706730	-0.372133
C76	C	-0.833426	0.677986	-0.439257
C77	C	-0.880334	0.677994	-0.439243
N78	N	-0.903806	0.649255	-0.506371
C79	C	-0.880361	0.620501	-0.573487
C80	C	-0.453385	0.677860	-0.439172
C81	C	-0.406467	0.677845	-0.439161
C82	C	-0.406494	0.620349	-0.573409
C83	C	-0.453413	0.620363	-0.573414
C84	C	-0.476857	0.649122	-0.506299
C85	C	-0.978887	0.620531	-0.573488
C86	C	-1.025806	0.620546	-0.573483
C87	C	-1.025775	0.678043	-0.439239
C88	C	-0.978860	0.678027	-0.439240
C89	C	-0.955417	0.649269	-0.506373
O90	O	-0.904624	0.702426	-0.382173
O91	O	-0.904640	0.596066	-0.630584
C92	C	-0.692697	0.620445	-0.573465
C93	C	-0.669227	0.649186	-0.506345
C94	C	-0.692672	0.677940	-0.439229
C95	C	-0.622309	0.649170	-0.506334
C96	C	-0.598864	0.620416	-0.573450
C97	C	-0.622336	0.591677	-0.640577
C98	C	-0.669252	0.591690	-0.640581
C99	C	-0.669199	0.706679	-0.372102
C100	C	-0.622284	0.706663	-0.372103
C101	C	-0.598839	0.677908	-0.439219
C102	C	-0.099186	0.649260	-0.506343
C103	C	-0.049252	0.649300	-0.506367
C104	C	-0.216319	0.649197	-0.780321
C105	C	-0.216300	0.649211	-0.897098
C106	C	-0.216368	0.766344	-0.506333
C107	C	-0.216370	0.816278	-0.506353
C108	C	-0.187564	0.677971	-0.951986
C109	C	-0.187548	0.677982	-1.061711
C110	C	-0.245007	0.620470	-1.061648
C111	C	-0.245020	0.620457	-0.951926
C112	C	-0.154393	0.711177	-0.952024
C113	C	-0.154376	0.711187	-1.061748
C114	C	-0.216377	0.649160	-0.233320
C115	C	-0.216270	0.649234	-0.116544
H116	H	-0.135600	0.036563	-0.695725
H117	H	-0.297115	0.262232	-0.316824
O118	O	-0.832815	0.563766	-0.705657
C119	C	-0.860014	0.534776	-0.645798
H120	H	-0.845906	0.532012	-0.563038
H121	H	-0.895559	0.548677	-0.642226
C122	C	-0.878093	0.491459	-0.798679
C123	C	-0.860764	0.488061	-0.697034
H124	H	-0.878557	0.462643	-0.830284
H125	H	-0.859770	0.510991	-0.839008
H126	H	-0.907712	0.503044	-0.795688
H127	H	-0.831143	0.476481	-0.700027
H128	H	-0.879082	0.468526	-0.656706
H129	H	-0.829042	0.730151	-0.317482
H130	H	-0.688357	0.568285	-0.695242
O131	O	-0.131109	0.125326	-0.706439
C132	C	-0.140987	0.113880	-0.811111
H133	H	-0.158263	0.079804	-0.813215
H134	H	-0.164097	0.140277	-0.846408
C135	C	-0.076003	0.153602	-0.872344
C136	C	-0.097218	0.111748	-0.874929
H137	H	-0.049005	0.152289	-0.911712
H138	H	-0.069348	0.161315	-0.801826
H139	H	-0.095266	0.175595	-0.901757
H140	H	-0.077958	0.089756	-0.845505
H141	H	-0.103869	0.104031	-0.945444
H142	H	-0.268418	0.597036	-0.907240
H143	H	-0.268433	-0.094318	-0.384210
H144	H	-0.297122	0.036368	-0.316883
O145	O	-0.165542	0.752655	-1.097425
C146	C	-0.204727	0.749741	-1.158751
H147	H	-0.208511	0.714147	-1.189957
H148	H	-0.235094	0.758572	-1.108606
C149	C	-0.196750	0.826426	-1.212992
C150	C	-0.201395	0.782710	-1.251328
H151	H	-0.194696	0.846764	-1.270096
H152	H	-0.170351	0.828390	-1.171673
H153	H	-0.222057	0.833779	-1.171205
H154	H	-0.176086	0.775355	-1.293103
H155	H	-0.227790	0.780745	-1.292656
O156	O	-0.272892	0.592585	-1.115073
C157	C	-0.266710	0.598754	-1.223687
H158	H	-0.251996	0.633437	-1.238698
H159	H	-0.242781	0.572129	-1.254827
C160	C	-0.330230	0.552007	-1.261551
C161	C	-0.312161	0.594607	-1.279989
H162	H	-0.358266	0.549447	-1.296283
H163	H	-0.334394	0.547849	-1.188376
H164	H	-0.310285	0.529824	-1.287502
H165	H	-0.332104	0.616789	-1.254027
H166	H	-0.308001	0.598768	-1.353162
O167	O	-0.301673	0.125087	-0.306265
C168	C	-0.326991	0.094282	-0.246853
H169	H	-0.328562	0.060846	-0.289890
H170	H	-0.310501	0.089288	-0.167127
C171	C	-0.372872	0.153611	-0.178658
C172	C	-0.374804	0.112546	-0.231521
H173	H	-0.402365	0.164878	-0.169195
H174	H	-0.355814	0.174365	-0.218681
H175	H	-0.359128	0.149444	-0.112225
H176	H	-0.388542	0.116715	-0.297957
H177	H	-0.391865	0.091793	-0.191508
H178	H	-0.959750	0.701428	-0.384571
H179	H	-0.119601	0.701885	-0.922268
H180	H	-0.387397	0.596935	-0.628056
H181	H	-0.166864	0.744213	-0.917995
H182	H	-0.603178	0.730069	-0.317433
O183	O	-0.476086	0.705811	-0.373867
C184	C	-0.445302	0.731176	-0.314642
H185	H	-0.411881	0.712761	-0.310967
H186	H	-0.440261	0.765285	-0.353192
C187	C	-0.504680	0.760302	-0.207351
C188	C	-0.463632	0.737682	-0.202829
H189	H	-0.515987	0.764318	-0.138381
H190	H	-0.525420	0.743215	-0.247254
H191	H	-0.500474	0.788724	-0.239480
H192	H	-0.467840	0.709259	-0.170712
H193	H	-0.442893	0.754765	-0.162918
O194	O	-0.272961	-0.183050	-0.373565
C195	C	-0.298294	-0.152311	-0.314176
H196	H	-0.279887	-0.118855	-0.310615
H197	H	-0.332432	-0.147337	-0.352509
C198	C	-0.327322	-0.211738	-0.206705
C199	C	-0.304713	-0.170648	-0.202324
H200	H	-0.331284	-0.223049	-0.137711
H201	H	-0.310256	-0.232448	-0.246719
H202	H	-0.355769	-0.207587	-0.238654
H203	H	-0.276265	-0.174800	-0.170389
H204	H	-0.321774	-0.149939	-0.162303
O205	O	-0.131067	0.266172	-0.706131
C206	C	-0.102012	0.293310	-0.646428
H207	H	-0.117819	0.300314	-0.566747
H208	H	-0.068717	0.275247	-0.635015
C209	C	-0.074484	0.329290	-0.802132
C210	C	-0.093900	0.337896	-0.704269
H211	H	-0.069478	0.356792	-0.837812
H212	H	-0.094058	0.311006	-0.842356
H213	H	-0.046740	0.314237	-0.792608
H214	H	-0.121646	0.352944	-0.713796
H215	H	-0.074331	0.356184	-0.664048
O216	O	-0.272960	0.389337	-0.373475
C217	C	-0.298299	0.420073	-0.314091
H218	H	-0.279897	0.453532	-0.310529
H219	H	-0.332437	0.425042	-0.352428
C220	C	-0.327321	0.360642	-0.206621
C221	C	-0.304718	0.401736	-0.202239
H222	H	-0.331283	0.349331	-0.137626
H223	H	-0.310251	0.339935	-0.246631
H224	H	-0.355767	0.364789	-0.238573
H225	H	-0.276270	0.397589	-0.170298
H226	H	-0.321783	0.422443	-0.162220
O227	O	-0.114939	0.696296	-1.102246
C228	C	-0.107060	0.652065	-1.068023
H229	H	-0.126545	0.645630	-0.992619
H230	H	-0.118541	0.627504	-1.130957
C231	C	-0.032693	0.653524	-1.140095
C232	C	-0.056622	0.645621	-1.047478
H233	H	-0.001580	0.649548	-1.127427
H234	H	-0.038002	0.683322	-1.163156
H235	H	-0.042265	0.633056	-1.192531
H236	H	-0.047054	0.666093	-0.995049
H237	H	-0.051311	0.615826	-1.024408
O238	O	-1.048625	0.592577	-0.638544
C239	C	-1.075820	0.563588	-0.578670
H240	H	-1.061708	0.560829	-0.495914
H241	H	-1.111365	0.577489	-0.575091
C242	C	-1.093907	0.520264	-0.731535
C243	C	-1.076572	0.516871	-0.629895
H244	H	-1.094373	0.491447	-0.763134
H245	H	-1.075586	0.539795	-0.771875
H246	H	-1.123526	0.531849	-0.728538
H247	H	-1.046952	0.505291	-0.632894
H248	H	-1.094887	0.497337	-0.589557
H249	H	-0.164305	0.478214	-0.628376
H250	H	-0.959805	0.597115	-0.628155
O251	O	-0.159750	-0.090556	-0.639071
C252	C	-0.134434	-0.121295	-0.698500
H253	H	-0.132861	-0.154747	-0.655476
H254	H	-0.150928	-0.126279	-0.778224
C255	C	-0.088558	-0.061864	-0.766687
C256	C	-0.086623	-0.102950	-0.713839
H257	H	-0.059066	-0.050548	-0.776153
H258	H	-0.105614	-0.041154	-0.726652
H259	H	-0.102304	-0.066024	-0.833118
H260	H	-0.072882	-0.098789	-0.647405
H261	H	-0.069563	-0.123659	-0.753863
O262	O	-0.691901	0.734691	-0.306952
C263	C	-0.680361	0.779445	-0.330082
H264	H	-0.646292	0.780324	-0.370513
H265	H	-0.706737	0.794585	-0.384112
C266	C	-0.719989	0.805615	-0.178088
C267	C	-0.678144	0.806695	-0.227738
H268	H	-0.718624	0.822425	-0.114959
H269	H	-0.727766	0.775463	-0.162506
H270	H	-0.741965	0.818231	-0.223124
H271	H	-0.656170	0.794074	-0.182707
H272	H	-0.670363	0.836845	-0.243309
O273	O	-0.159854	-0.183030	-0.639095
C274	C	-0.185465	-0.210166	-0.706871
H275	H	-0.219495	-0.217223	-0.669688
H276	H	-0.190433	-0.192074	-0.784712
C277	C	-0.118963	-0.246045	-0.771653
C278	C	-0.160759	-0.254717	-0.725980
H279	H	-0.103723	-0.273526	-0.783445
H280	H	-0.101709	-0.227762	-0.725994
H281	H	-0.123109	-0.230968	-0.836515
H282	H	-0.156612	-0.269789	-0.661113
H283	H	-0.178013	-0.273003	-0.771628
O284	O	-0.740382	0.563739	-0.705821
C285	C	-0.771167	0.538388	-0.765075
H286	H	-0.804624	0.536863	-0.722036
H287	H	-0.776116	0.554819	-0.844910
C288	C	-0.711822	0.492433	-0.832954
C289	C	-0.752914	0.490557	-0.780089
H290	H	-0.700563	0.462929	-0.842221
H291	H	-0.691081	0.509513	-0.793037
H292	H	-0.715952	0.506127	-0.899478
H293	H	-0.748783	0.476868	-0.713562
H294	H	-0.773654	0.473472	-0.819995
H295	H	-0.164294	0.393105	-0.628378
O296	O	-1.048580	0.706012	-0.374185
C297	C	-1.075687	0.735010	-0.434066
H298	H	-1.061518	0.737773	-0.516811
H299	H	-1.111254	0.721116	-0.437676
C300	C	-1.093796	0.778326	-0.281196
C301	C	-1.076390	0.781723	-0.382823
H302	H	-1.094231	0.807141	-0.249586
H303	H	-1.075535	0.758789	-0.240852
H304	H	-1.123433	0.766747	-0.284219
H305	H	-1.046752	0.793297	-0.379798
H306	H	-1.094647	0.801263	-0.423166
O307	O	-0.476190	0.592492	-0.638775
C308	C	-0.464670	0.602274	-0.743502
H309	H	-0.451732	0.638159	-0.748885
H310	H	-0.437452	0.578173	-0.770894
C311	C	-0.522220	0.552967	-0.807019
C312	C	-0.506333	0.597043	-0.813631
H313	H	-0.547919	0.549738	-0.850279
H314	H	-0.529980	0.546375	-0.736462
H315	H	-0.499535	0.532888	-0.829843
H316	H	-0.529016	0.617120	-0.790794
H317	H	-0.498577	0.603638	-0.884186
O318	O	-0.599626	0.563704	-0.705814
C319	C	-0.630398	0.538346	-0.765092
H320	H	-0.663857	0.536804	-0.722066
H321	H	-0.635348	0.554783	-0.844920
C322	C	-0.571030	0.492422	-0.832976
C323	C	-0.612124	0.490524	-0.780126
H324	H	-0.559758	0.462924	-0.842254
H325	H	-0.550298	0.509507	-0.793042
H326	H	-0.575161	0.506122	-0.899494
H327	H	-0.607992	0.476830	-0.713605
H328	H	-0.632855	0.473436	-0.820049
H329	H	-0.135598	0.177323	-0.695715
H330	H	-0.297120	0.177123	-0.316838
H331	H	-0.268434	0.478086	-0.384139
H332	H	-0.743932	0.730122	-0.317458
H333	H	-0.387361	0.701245	-0.384491
