data_functionalizedCrystal
_audit_creation_method	'MofGen! by Chris Wilmer'
_symmetry_space_group_name_H-M	'P1'
_symmetry_Int_Tables_number	1
_symmetry_cell_setting	triclinic
loop_
_symmetry_equiv_pos_as_xyz
  x,y,z
_cell_length_a	6.817900
_cell_length_b	10.773890
_cell_length_c	12.200875
_cell_angle_alpha	95.686777
_cell_angle_beta	107.143593
_cell_angle_gamma	96.645716
loop_
_atom_site_label
_atom_site_type_symbol
_atom_site_fract_x
_atom_site_fract_y
_atom_site_fract_z
V1	V	-4.033591	-0.172876	-0.355789
V2	V	-3.533591	0.327124	0.144211
O3	O	-4.056650	0.008016	-0.350939
O4	O	-3.556650	0.508016	0.149061
O5	O	-3.950750	-0.342504	-0.351507
O6	O	-3.450750	0.157496	0.148493
O7	O	-4.003823	-0.170345	-0.511805
O8	O	-3.503823	0.329655	-0.011805
O9	O	-4.003210	-0.165335	-0.189531
O10	O	-3.503210	0.334665	0.310469
V11	V	-4.519267	-0.151224	-0.336128
V12	V	-4.019267	0.348776	0.163872
O13	O	-4.290126	-0.220372	-0.398918
O14	O	-3.790126	0.279628	0.101082
O15	O	-4.712930	-0.103729	-0.293000
O16	O	-4.212930	0.396271	0.207000
O17	O	-4.378902	0.018404	-0.340411
O18	O	-3.878902	0.518404	0.159589
O19	O	-4.613606	-0.332117	-0.340978
O20	O	-4.113606	0.167883	0.159022
O21	O	-4.667046	-0.158766	-0.502386
O22	O	-4.167046	0.341234	-0.002386
O23	O	-4.325829	-0.153756	-0.180112
O24	O	-3.825829	0.346244	0.319888
C25	C	-3.786770	-0.383852	-0.345417
C26	C	-3.286770	0.116148	0.154583
C27	C	-3.800449	-0.522526	-0.342955
C28	C	-3.300449	-0.022526	0.157045
C29	C	-3.979034	-0.590392	-0.347232
C30	C	-3.479034	-0.090392	0.152768
C31	C	-3.993176	-0.733719	-0.344688
C32	C	-3.493176	-0.233719	0.155312
C33	C	-3.854468	-0.164244	-0.549892
C34	C	-3.354468	0.335756	-0.049892
C35	C	-3.911185	-0.163297	-0.677423
C36	C	-3.411185	0.336703	-0.177423
C37	C	-4.014984	-0.161564	-0.910916
C38	C	-3.514984	0.338436	-0.410916
C39	C	-3.957214	-0.162528	-0.780984
C40	C	-3.457214	0.337472	-0.280984
C41	C	-4.206223	0.059745	-0.346497
C42	C	-3.706223	0.559745	0.153503
C43	C	-4.171782	0.198417	-0.348967
C44	C	-3.671782	0.698417	0.151033
C45	C	-4.138525	-0.159861	-0.142020
C46	C	-3.638525	0.340139	0.357980
C47	C	-4.061048	-0.160802	-0.014487
C48	C	-3.561048	0.339198	0.485513
H49	H	-4.314224	-0.753584	-0.354517
H50	H	-3.814224	-0.253584	0.145483
H51	H	-4.121462	-0.542387	-0.352784
H52	H	-3.621462	-0.042387	0.147216
O53	O	-3.823202	-0.790995	-0.337867
O54	O	-3.323202	-0.290995	0.162133
C55	C	-3.773549	-0.849022	-0.236585
C56	C	-3.273549	-0.349022	0.263415
H57	H	-3.840144	-0.801393	-0.170859
H58	H	-3.340144	-0.301393	0.329141
H59	H	-3.597597	-0.839301	-0.198112
H60	H	-3.097597	-0.339301	0.301888
H61	H	-3.842751	-0.953291	-0.258885
H62	H	-3.342751	-0.453291	0.241115
H63	H	-3.658028	-0.570533	-0.337416
H64	H	-3.158028	-0.070533	0.162584
