data_functionalizedCrystal
_audit_creation_method	'MofGen! by Chris Wilmer'
_symmetry_space_group_name_H-M	'P1'
_symmetry_Int_Tables_number	1
_symmetry_cell_setting	triclinic
loop_
_symmetry_equiv_pos_as_xyz
  x,y,z
_cell_length_a	27.440280
_cell_length_b	23.196402
_cell_length_c	23.196401
_cell_angle_alpha	60.007332
_cell_angle_beta	90.008388
_cell_angle_gamma	59.998353
loop_
_atom_site_label
_atom_site_type_symbol
_atom_site_fract_x
_atom_site_fract_y
_atom_site_fract_z
Zr1	Zr	0.469535	0.630923	-0.075651
O2	O	0.391709	0.751195	-0.167695
O3	O	0.493386	0.510659	-0.047438
O4	O	0.493372	0.630922	-0.167704
O5	O	0.391742	0.630930	0.047442
O6	O	0.573574	0.630913	-0.167707
O7	O	0.391723	0.630932	-0.047429
O8	O	0.573599	0.415784	0.047427
O9	O	0.391717	0.846059	-0.167691
O10	O	0.563421	0.560116	-0.035404
O11	O	0.503581	0.560122	0.035400
O12	O	0.503565	0.701716	-0.106198
O13	O	0.443725	0.701722	-0.035394
Zr14	Zr	0.597479	0.630906	0.075652
Zr15	Zr	0.597448	0.630909	-0.075657
Zr16	Zr	0.469566	0.630921	0.075658
Zr17	Zr	0.469548	0.782221	-0.075645
Zr18	Zr	0.597466	0.479609	0.075647
O19	O	0.573628	0.751171	0.047439
O20	O	0.573584	0.751174	-0.167703
O21	O	0.391752	0.751192	0.047447
O22	O	0.675305	0.510635	0.167696
O23	O	0.675262	0.510638	-0.047446
O24	O	0.493430	0.510656	0.167704
O25	O	0.675272	0.630899	-0.047441
O26	O	0.573642	0.630908	0.167705
O27	O	0.493440	0.630917	0.167708
O28	O	0.675291	0.630898	0.047430
O29	O	0.493391	0.846047	-0.167696
O30	O	0.573624	0.415782	0.167697
O31	O	0.675297	0.415771	0.167693
O32	O	0.675273	0.415773	0.047422
O33	O	0.391741	0.846057	-0.047421
O34	O	0.493415	0.846045	-0.047425
O35	O	0.563449	0.560114	0.106199
O36	O	0.623289	0.560108	0.035395
O37	O	0.563433	0.701708	-0.035399
O38	O	0.503593	0.701714	0.035405
C39	C	0.533491	0.441665	-0.000006
C40	C	0.533485	0.377435	-0.000009
C41	C	0.577680	0.295001	0.052250
C42	C	0.577685	0.234640	0.052256
C43	C	0.533498	0.256720	-0.000007
C44	C	0.489295	0.339168	-0.052270
C45	C	0.489289	0.399526	-0.052271
C46	C	0.519728	0.201135	-0.063798
C47	C	0.519738	0.140776	-0.063797
C48	C	0.533514	0.070558	-0.000004
C49	C	0.547292	0.060696	0.063793
C50	C	0.547286	0.121054	0.063792
C51	C	0.533500	0.191277	-0.000011
C52	C	0.577716	-0.077330	0.052266
C53	C	0.577716	-0.137689	0.052273
C54	C	0.489329	-0.033159	-0.052259
C55	C	0.489327	0.027198	-0.052260
C56	C	0.533523	0.005107	0.000002
C57	C	0.373508	0.630933	0.000008
C58	C	0.319205	0.630940	0.000010
C59	C	-0.017503	0.630898	-0.052266
C60	C	-0.068521	0.630892	-0.052266
O61	O	-0.094905	0.630862	-0.096701
N62	N	-0.094028	0.630892	-0.000002
C63	C	-0.068511	0.630891	0.052271
O64	O	-0.094892	0.630890	0.096726
C65	C	-0.017492	0.630891	0.052274
C66	C	0.008009	0.630898	0.000001
C67	C	0.007998	0.630904	-0.104533
C68	C	0.059012	0.630911	-0.104533
C69	C	0.084524	0.630912	-0.052266
C70	C	0.059023	0.630905	0.000001
C71	C	0.008026	0.630883	0.104548
C72	C	0.059050	0.630882	0.104547
C73	C	0.084551	0.630890	0.052275
C74	C	0.135549	0.630913	0.052268
N75	N	0.161056	0.630913	0.000004
C76	C	0.135544	0.630912	-0.052263
C77	C	-0.175655	0.630889	0.052262
C78	C	-0.226676	0.630895	0.052257
C79	C	-0.226682	0.630895	-0.052280
C80	C	-0.175662	0.630895	-0.052277
C81	C	-0.150148	0.630889	-0.000003
C82	C	0.242676	0.630928	-0.052260
C83	C	0.293693	0.630939	-0.052257
C84	C	0.293696	0.630935	0.052281
C85	C	0.242682	0.630929	0.052276
C86	C	0.217174	0.630922	0.000003
O87	O	0.161966	0.630940	0.096682
O88	O	0.161935	0.630902	-0.096706
C89	C	0.693507	0.630896	-0.000006
C90	C	0.747809	0.630890	-0.000009
C91	C	0.533469	0.630918	-0.189264
C92	C	0.533456	0.630919	-0.253498
C93	C	0.533523	0.820165	0.000008
C94	C	0.533529	0.884394	0.000010
C95	C	0.502215	0.704830	-0.320625
C96	C	0.502230	0.704831	-0.380980
C97	C	0.533478	0.630917	-0.374205
C98	C	0.564726	0.556995	-0.307066
C99	C	0.564715	0.556996	-0.246713
C100	C	0.529035	0.574291	-0.441524
C101	C	0.529042	0.574293	-0.501877
C102	C	0.533516	0.630911	-0.560352
C103	C	0.537971	0.687539	-0.558473
C104	C	0.537960	0.687540	-0.498120
C105	C	0.533494	0.630907	-0.439643
C106	C	0.502289	0.704828	-0.692926
C107	C	0.502309	0.704826	-0.753280
C108	C	0.564801	0.556988	-0.679364
C109	C	0.564786	0.556992	-0.619011
C110	C	0.533527	0.630915	-0.625797
C111	C	0.533545	0.630912	0.189265
C112	C	0.533558	0.630911	0.253500
C113	C	0.693490	0.441647	-0.000013
C114	C	0.747787	0.377411	-0.000018
C115	C	0.533529	0.441662	0.189258
C116	C	0.533537	0.377431	0.253490
C117	C	0.693529	0.441644	0.189251
C118	C	0.747839	0.377407	0.253481
C119	C	0.373485	0.820186	-0.189250
C120	C	0.319176	0.884423	-0.253480
C121	C	0.373524	0.820183	0.000015
C122	C	0.319227	0.884419	0.000019
C123	C	0.533485	0.820168	-0.189257
C124	C	0.533477	0.884398	-0.253489
C125	C	0.742035	0.347249	-0.036983
C126	C	0.793048	0.286901	-0.037001
C127	C	0.849812	0.256711	-0.000051
C128	C	0.855563	0.286879	0.036915
C129	C	0.804551	0.347230	0.036929
C130	C	0.564791	0.347264	0.320617
C131	C	0.564796	0.286921	0.380976
C132	C	0.533549	0.256742	0.374206
C133	C	0.502292	0.286916	0.307072
C134	C	0.502284	0.347262	0.246715
C135	C	0.804584	0.347237	0.246685
C136	C	0.855619	0.286888	0.307030
C137	C	0.849907	0.256706	0.374170
C138	C	0.793155	0.286881	0.380965
C139	C	0.742122	0.347233	0.320621
C140	C	0.262430	0.914600	-0.246684
C141	C	0.211395	0.974967	-0.307029
C142	C	0.217107	1.005153	-0.374169
C143	C	0.273859	0.974974	-0.380964
C144	C	0.324892	0.914612	-0.320619
C145	C	0.324979	0.914587	0.036978
C146	C	0.273966	0.974952	0.036980
C147	C	0.217202	1.005143	0.000027
C148	C	0.211451	0.974973	-0.036936
C149	C	0.262463	0.914613	-0.036942
C150	C	0.564730	0.914558	-0.246697
C151	C	0.564734	0.974901	-0.307044
C152	C	0.533483	1.005088	-0.374183
C153	C	0.502230	0.974923	-0.380973
C154	C	0.502229	0.914576	-0.320627
H155	H	0.613701	-0.095318	0.094824
F156	F	0.162915	1.069383	0.000040
H157	H	0.278660	0.999506	0.067082
H158	H	0.476835	0.371816	0.192060
H159	H	0.590178	0.889989	-0.192034
F160	F	0.598068	0.254817	0.452418
F161	F	0.215537	0.630933	0.107905
H162	H	0.278502	0.999559	-0.435636
H163	H	0.165226	0.999564	-0.067022
H164	H	0.079822	0.630875	0.147117
F165	F	0.624753	-0.225429	0.107902
H166	H	0.901788	0.262290	0.066999
F167	F	0.810677	0.379353	0.175235
F168	F	-0.148508	0.630891	0.107899
F169	F	0.320854	0.630938	0.107904
H170	H	0.558506	0.003525	0.115740
H171	H	0.476786	0.999511	-0.435646
H172	H	0.257768	0.890026	-0.192020
H173	H	0.533561	0.207605	0.423359
H174	H	0.590235	0.371829	0.326142
F175	F	0.442300	-0.009656	-0.107879
F176	F	0.597965	0.478326	-0.175267
H177	H	0.901824	0.262326	0.301485
F178	F	0.597985	0.478330	-0.299856
H179	H	0.476852	0.262335	0.301571
F180	F	0.904227	0.192472	0.438389
F181	F	0.786915	0.254803	-0.076345
H182	H	0.788514	0.262297	0.435638
F183	F	0.681731	0.379331	0.327864
F184	F	0.442289	0.114936	-0.107884
F185	F	0.151002	1.007073	-0.299783
H186	H	0.809243	0.371780	0.067035
F187	F	0.904100	0.192479	-0.000071
F188	F	0.162787	1.069397	-0.438387
F189	F	0.256332	0.882508	-0.076276
F190	F	0.468935	0.783505	-0.327851
H191	H	0.558503	0.113023	0.115738
F192	F	0.681627	0.379370	-0.076316
F193	F	-0.019104	0.630873	0.160184
H194	H	0.371096	0.890042	-0.326161
H195	H	0.371195	0.890010	0.067074
H196	H	0.590183	0.999455	-0.301501
F197	F	0.533488	1.069317	-0.438403
H198	H	0.613668	0.277007	0.094806
F199	F	0.624726	0.146896	0.107878
F200	F	0.468959	0.882491	-0.327867
H201	H	0.314454	0.630947	-0.094826
F202	F	0.468978	0.783501	-0.452432
H203	H	0.508504	0.258312	-0.115751
F204	F	0.442267	0.362665	-0.107890
F205	F	0.505075	0.151276	-0.131695
F206	F	0.542701	0.747807	-0.496121
H207	H	0.453297	0.466651	-0.094826
H208	H	0.079774	0.630914	-0.147096
F209	F	-0.019146	0.630902	-0.160167
F210	F	0.215537	0.630922	-0.107896
H211	H	-0.154902	0.630900	-0.094841
H212	H	-0.247441	0.630902	0.094815
F213	F	0.542732	0.747801	-0.620704
F214	F	0.469033	0.783502	-0.700145
F215	F	-0.253842	0.630892	-0.107906
H216	H	0.476871	0.765016	-0.807940
H217	H	0.590245	0.496806	-0.673846
H218	H	0.525411	0.528186	-0.503402
F219	F	0.598027	0.478325	-0.547566
H220	H	0.525388	0.528187	-0.393915
