data_functionalizedCrystal
_audit_creation_method	'MofGen! by Chris Wilmer'
_symmetry_space_group_name_H-M	'P1'
_symmetry_Int_Tables_number	1
_symmetry_cell_setting	triclinic
loop_
_symmetry_equiv_pos_as_xyz
  x,y,z
_cell_length_a	21.395362
_cell_length_b	18.101395
_cell_length_c	21.395355
_cell_angle_alpha	90.015727
_cell_angle_beta	90.043940
_cell_angle_gamma	90.046983
loop_
_atom_site_label
_atom_site_type_symbol
_atom_site_fract_x
_atom_site_fract_y
_atom_site_fract_z
Zn1	Zn	0.957858	-0.294602	0.354598
Zn2	Zn	1.291191	0.038732	0.687931
Zn3	Zn	1.624524	0.372065	1.021264
Zn4	Zn	0.957760	-0.418425	0.249825
Zn5	Zn	1.291093	-0.085092	0.583159
Zn6	Zn	1.624426	0.248242	0.916492
Zn7	Zn	0.853073	-0.294636	0.249799
Zn8	Zn	1.186406	0.038697	0.583132
Zn9	Zn	1.519739	0.372031	0.916466
Zn10	Zn	0.853041	-0.418440	0.354530
Zn11	Zn	1.186375	-0.085107	0.687863
Zn12	Zn	1.519708	0.248227	1.021197
O13	O	0.905433	-0.356526	0.302188
O14	O	1.238766	-0.023192	0.635521
O15	O	1.572099	0.310141	0.968855
O16	O	1.045523	-0.311006	0.340739
O17	O	1.378856	0.022327	0.674072
O18	O	1.712189	0.355661	1.007405
O19	O	0.943845	-0.402012	0.162144
O20	O	1.277178	-0.068679	0.495477
O21	O	1.610511	0.264655	0.828811
O22	O	0.867027	-0.190998	0.263718
O23	O	1.200360	0.142335	0.597051
O24	O	1.533694	0.475668	0.930385
O25	O	1.045450	-0.401979	0.263763
O26	O	1.378784	-0.068645	0.597096
O27	O	1.712117	0.264688	0.930430
O28	O	0.944012	-0.190973	0.340713
O29	O	1.277345	0.142360	0.674047
O30	O	1.610679	0.475693	1.007380
O31	O	0.866932	-0.311065	0.162125
O32	O	1.200265	0.022268	0.495458
O33	O	1.533598	0.355602	0.828791
O34	O	0.765391	-0.311080	0.263652
O35	O	1.098724	0.022254	0.596986
O36	O	1.432057	0.355587	0.930319
O37	O	0.866973	-0.402005	0.442217
O38	O	1.200307	-0.068671	0.775550
O39	O	1.533640	0.264662	1.108884
O40	O	0.765367	-0.402038	0.340598
O41	O	1.098701	-0.068705	0.673931
O42	O	1.432034	0.264629	1.007265
O43	O	0.943982	-0.311021	0.442267
O44	O	1.277315	0.022312	0.775600
O45	O	1.610648	0.355646	1.108933
O46	O	0.943814	-0.522060	0.263697
O47	O	1.277147	-0.188726	0.597031
O48	O	1.610481	0.144607	0.930364
O49	O	0.866878	-0.522071	0.340623
O50	O	1.200211	-0.188738	0.673957
O51	O	1.533545	0.144596	1.007290
C52	C	0.742645	-0.356565	0.302115
C53	C	1.075978	-0.023231	0.635449
C54	C	1.409312	0.310102	0.968782
C55	C	0.673004	-0.356599	0.302099
C56	C	1.006337	-0.023266	0.635432
C57	C	1.339671	0.310067	0.968766
C58	C	0.640295	-0.404024	0.342105
C59	C	0.973628	-0.070691	0.675438
C60	C	1.306962	0.262643	1.008771
C61	C	0.574860	-0.404006	0.342133
C62	C	0.908193	-0.070673	0.675466
C63	C	1.241526	0.262661	1.008799
C64	C	0.542136	-0.356571	0.302144
C65	C	0.875469	-0.023238	0.635477
C66	C	1.208802	0.310096	0.968810
C67	C	0.574852	-0.309137	0.262135
C68	C	0.908186	0.024196	0.595469
C69	C	1.241519	0.357530	0.928802
C70	C	0.640286	-0.309151	0.262113
C71	C	0.973620	0.024182	0.595446
C72	C	1.306953	0.357516	0.928780
C73	C	0.438411	-0.350605	0.245738
C74	C	0.771744	-0.017272	0.579072
C75	C	1.105078	0.316062	0.912405
C76	C	0.372978	-0.350596	0.245760
C77	C	0.706311	-0.017262	0.579093
C78	C	1.039645	0.316071	0.912426
C79	C	0.340315	-0.356523	0.302213
C80	C	0.673648	-0.023189	0.635546
C81	C	1.006982	0.310144	0.968880
C82	C	0.373093	-0.362474	0.358647
C83	C	0.706426	-0.029141	0.691980
C84	C	1.039759	0.304193	1.025313
C85	C	0.438527	-0.362488	0.358624
C86	C	0.771860	-0.029155	0.691958
C87	C	1.105194	0.304179	1.025291
C88	C	0.471183	-0.356550	0.302164
C89	C	0.804517	-0.023216	0.635497
C90	C	1.137850	0.310117	0.968830
C91	C	0.236654	-0.403930	0.342252
C92	C	0.569987	-0.070597	0.675585
C93	C	0.903320	0.262737	1.008919
C94	C	0.171217	-0.403907	0.342281
C95	C	0.504550	-0.070573	0.675614
C96	C	0.837884	0.262760	1.008948
C97	C	0.171211	-0.309042	0.262278
C98	C	0.504544	0.024292	0.595612
C99	C	0.837878	0.357625	0.928945
C100	C	0.236646	-0.309061	0.262255
C101	C	0.569980	0.024272	0.595588
C102	C	0.903313	0.357606	0.928922
C103	C	0.269364	-0.356509	0.302241
C104	C	0.602697	-0.023176	0.635574
C105	C	0.936030	0.310157	0.968908
C106	C	0.905349	-0.548936	0.302170
C107	C	1.238682	-0.215603	0.635503
C108	C	1.572016	0.117730	0.968836
C109	C	0.905370	-0.631250	0.302183
C110	C	1.238704	-0.297917	0.635516
C111	C	1.572037	0.035416	0.968849
C112	C	0.905508	-0.930341	0.302216
C113	C	1.238841	-0.597008	0.635550
C114	C	1.572175	-0.263674	0.968883
C115	C	0.857214	-0.899054	0.350736
C116	C	1.190547	-0.565721	0.684070
C117	C	1.523881	-0.232387	1.017403
C118	C	0.856985	-0.813436	0.350585
C119	C	1.190318	-0.480103	0.683918
C120	C	1.523651	-0.146769	1.017251
C121	C	0.905440	-0.781959	0.302200
C122	C	1.238773	-0.448625	0.635534
C123	C	1.572106	-0.115292	0.968867
C124	C	0.887557	-0.813100	0.236161
C125	C	1.220890	-0.479767	0.569494
C126	C	1.554224	-0.146433	0.902828
C127	C	0.887246	-0.898745	0.236451
C128	C	1.220579	-0.565412	0.569785
C129	C	1.553912	-0.232079	0.903118
C130	C	0.971790	-0.898667	0.319154
C131	C	1.305123	-0.565334	0.652488
C132	C	1.638457	-0.232001	0.985821
C133	C	0.971400	-0.813017	0.320602
C134	C	1.304734	-0.479683	0.653936
C135	C	1.638067	-0.146350	0.987269
C136	C	0.905402	-0.698099	0.302187
C137	C	1.238736	-0.364766	0.635520
C138	C	1.572069	-0.031433	0.968854
C139	C	0.905544	-1.014201	0.302225
C140	C	1.238877	-0.680867	0.635559
C141	C	1.572211	-0.347534	0.968892
C142	C	1.068856	-0.356487	0.302261
C143	C	1.402189	-0.023154	0.635595
C144	C	1.735523	0.310180	0.968928
C145	C	1.138497	-0.356470	0.302293
C146	C	1.471831	-0.023137	0.635626
C147	C	1.805164	0.310196	0.968959
C148	C	0.905485	-0.356511	0.465611
C149	C	1.238818	-0.023177	0.798945
C150	C	1.572151	0.310156	1.132278
C151	C	0.905507	-0.356504	0.535253
C152	C	1.238840	-0.023171	0.868586
C153	C	1.572174	0.310162	1.201919
C154	C	0.905534	-0.163364	0.302220
C155	C	1.238867	0.169970	0.635554
C156	C	1.572201	0.503303	0.968887
C157	C	0.905577	-0.081050	0.302234
C158	C	1.238911	0.252284	0.635567
C159	C	1.572244	0.585617	0.968901
C160	C	0.905417	-0.356487	0.139400
C161	C	1.238750	-0.023154	0.472734
C162	C	1.572084	0.310180	0.806067
C163	C	0.905516	-0.356285	0.069760
C164	C	1.238850	-0.022952	0.403093
C165	C	1.572183	0.310382	0.736426
C166	C	0.945603	-0.309127	0.567993
C167	C	1.278937	0.024206	0.901326
C168	C	1.612270	0.357540	1.234659
C169	C	0.945603	-0.309095	0.633428
C170	C	1.278936	0.024238	0.966761
C171	C	1.612269	0.357571	1.300095
C172	C	0.905512	-0.356454	0.666121
C173	C	1.238845	-0.023120	0.999454
C174	C	1.572179	0.310213	1.332788
C175	C	0.865408	-0.403834	0.633373
C176	C	1.198741	-0.070501	0.966706
C177	C	1.532074	0.262832	1.300040
C178	C	0.865405	-0.403859	0.567939
C179	C	1.198738	-0.070526	0.901272
C180	C	1.532072	0.262807	1.234606
C181	C	0.900536	-0.423137	0.769788
C182	C	1.233869	-0.089803	1.103121
C183	C	1.567202	0.243530	1.436454
C184	C	0.900542	-0.423113	0.835221
C185	C	1.233876	-0.089779	1.168554
C186	C	1.567209	0.243554	1.501887
C187	C	0.905516	-0.356375	0.867942
C188	C	1.238849	-0.023042	1.201275
C189	C	1.572182	0.310291	1.534609
C190	C	0.910495	-0.289660	0.835222
C191	C	1.243829	0.043673	1.168555
C192	C	1.577162	0.377007	1.501889
C193	C	0.910493	-0.289685	0.769788
C194	C	1.243826	0.043648	1.103121
C195	C	1.577160	0.376981	1.436455
C196	C	0.905510	-0.356431	0.737073
C197	C	1.238843	-0.023098	1.070407
C198	C	1.572176	0.310235	1.403740
C199	C	0.945613	-0.308960	0.971635
C200	C	1.278947	0.024374	1.304968
C201	C	1.612280	0.357707	1.638301
C202	C	0.945608	-0.308927	1.037071
C203	C	1.278942	0.024407	1.370405
C204	C	1.612275	0.357740	1.703738
C205	C	0.865416	-0.403672	1.037015
C206	C	1.198750	-0.070339	1.370348
C207	C	1.532083	0.262994	1.703682
C208	C	0.865418	-0.403699	0.971580
C209	C	1.198752	-0.070366	1.304913
C210	C	1.532085	0.262968	1.638246
C211	C	0.905520	-0.356344	0.938893
C212	C	1.238854	-0.023010	1.272227
C213	C	1.572187	0.310323	1.605560
H214	H	0.666918	-0.270530	0.229536
H215	H	1.000251	0.062803	0.562869
H216	H	1.333584	0.396137	0.896202
H217	H	0.808383	-0.920654	0.339656
H218	H	1.141716	-0.587320	0.672990
H219	H	1.475050	-0.253987	1.006323
H220	H	0.984886	-0.792661	0.369204
H221	H	1.318219	-0.459327	0.702537
H222	H	1.651552	-0.125994	1.035871
H223	H	0.263278	-0.270446	0.229675
H224	H	0.596611	0.062887	0.563008
H225	H	0.929945	0.396220	0.896342
H226	H	0.978263	-0.270396	0.945020
H227	H	1.311597	0.062937	1.278353
H228	H	1.644930	0.396270	1.611687
H229	H	0.548204	-0.270514	0.229577
H230	H	0.881537	0.062820	0.562911
H231	H	1.214871	0.396153	0.896244
H232	H	0.868173	-0.792380	0.399551
H233	H	1.201507	-0.459047	0.732885
H234	H	1.534840	-0.125713	1.066218
H235	H	0.914546	-0.235316	0.861862
H236	H	1.247880	0.098017	1.195196
H237	H	1.581213	0.431350	1.528529
H238	H	0.978259	-0.270342	1.063727
H239	H	1.311592	0.062991	1.397060
H240	H	1.644925	0.396325	1.730394
H241	H	0.263294	-0.442562	0.374814
H242	H	0.596627	-0.109228	0.708148
H243	H	0.929960	0.224105	1.041481
H244	H	0.839618	-0.791728	0.221559
H245	H	1.172952	-0.458394	0.554892
H246	H	1.506285	-0.125061	0.888225
H247	H	0.914546	-0.235363	0.743150
H248	H	1.247879	0.097970	1.076484
H249	H	1.581213	0.431303	1.409817
H250	H	0.868292	-0.919610	0.399862
H251	H	1.201625	-0.586276	0.733195
H252	H	1.534959	-0.252943	1.066528
H253	H	1.009286	-0.791584	0.287841
H254	H	1.342619	-0.458251	0.621174
H255	H	1.675952	-0.124917	0.954507
H256	H	0.666930	-0.442659	0.374665
H257	H	1.000263	-0.109326	0.707999
H258	H	1.333596	0.224008	1.041332
H259	H	0.832767	-0.442225	1.063633
H260	H	1.166101	-0.108892	1.396966
H261	H	1.499434	0.224442	1.730300
H262	H	0.144587	-0.442524	0.374862
H263	H	0.477920	-0.109191	0.708196
H264	H	0.811253	0.224142	1.041529
H265	H	0.832771	-0.442283	0.944922
H266	H	1.166105	-0.108950	1.278256
H267	H	1.499438	0.224384	1.611589
H268	H	0.144568	-0.270415	0.229722
H269	H	0.477901	0.062918	0.563055
H270	H	0.811234	0.396251	0.896388
H271	H	0.832763	-0.442392	0.659996
H272	H	1.166097	-0.109058	0.993329
H273	H	1.499430	0.224275	1.326663
H274	H	0.896491	-0.477437	0.861856
H275	H	1.229825	-0.144103	1.195189
H276	H	1.563158	0.189230	1.528523
H277	H	0.465212	-0.367332	0.404575
H278	H	0.798545	-0.033998	0.737908
H279	H	1.131879	0.299335	1.071242
H280	H	0.896318	-0.477468	0.743152
H281	H	1.229651	-0.144135	1.076485
H282	H	1.562985	0.189198	1.409818
H283	H	0.807855	-0.793026	0.339363
H284	H	1.141188	-0.459693	0.672696
H285	H	1.474521	-0.126360	1.006030
H286	H	0.548223	-0.442625	0.374712
H287	H	0.881556	-0.109291	0.708045
H288	H	1.214890	0.224042	1.041379
H289	H	0.346500	-0.367299	0.404617
H290	H	0.679833	-0.033965	0.737950
H291	H	1.013167	0.299368	1.071283
H292	H	0.988093	-0.920221	0.366491
H293	H	1.321426	-0.586888	0.699824
H294	H	1.654759	-0.253554	1.033157
H295	H	0.838794	-0.918801	0.222106
H296	H	1.172127	-0.585468	0.555439
H297	H	1.505460	-0.252134	0.888772
H298	H	0.346295	-0.345754	0.199808
H299	H	0.679628	-0.012421	0.533141
H300	H	1.012962	0.320912	0.866474
H301	H	0.978253	-0.270511	0.660090
H302	H	1.311586	0.062822	0.993424
H303	H	1.644919	0.396156	1.326757
H304	H	0.978257	-0.270566	0.541384
H305	H	1.311590	0.062768	0.874717
H306	H	1.644923	0.396101	1.208050
H307	H	0.920895	-0.919443	0.199066
H308	H	1.254228	-0.586109	0.532399
H309	H	1.587561	-0.252776	0.865733
H310	H	0.832751	-0.442439	0.541282
H311	H	1.166084	-0.109105	0.874616
H312	H	1.499418	0.224228	1.207949
H313	H	1.007771	-0.918897	0.283816
H314	H	1.341104	-0.585563	0.617149
H315	H	1.674437	-0.252230	0.950482
H316	H	0.465000	-0.345775	0.199764
H317	H	0.798333	-0.012442	0.533097
H318	H	1.131666	0.320891	0.866431
H319	H	0.921625	-0.792710	0.199023
H320	H	1.254959	-0.459376	0.532356
H321	H	1.588292	-0.126043	0.865690
