data_functionalizedCrystal
_audit_creation_method	'MofGen! by Chris Wilmer'
_symmetry_space_group_name_H-M	'P1'
_symmetry_Int_Tables_number	1
_symmetry_cell_setting	triclinic
loop_
_symmetry_equiv_pos_as_xyz
  x,y,z
_cell_length_a	6.817900
_cell_length_b	9.514072
_cell_length_c	12.200875
_cell_angle_alpha	89.400980
_cell_angle_beta	107.143593
_cell_angle_gamma	118.843421
loop_
_atom_site_label
_atom_site_type_symbol
_atom_site_fract_x
_atom_site_fract_y
_atom_site_fract_z
V1	V	-4.153270	-0.222570	-0.358561
V2	V	-3.819937	0.110763	-0.025228
V3	V	-3.486603	0.444097	0.308106
O4	O	-4.051100	0.010320	-0.350811
O5	O	-3.717767	0.343653	-0.017477
O6	O	-3.384434	0.676987	0.315856
O7	O	-4.187859	-0.440958	-0.356998
O8	O	-3.854526	-0.107625	-0.023665
O9	O	-3.521193	0.225709	0.309668
O10	O	-4.121749	-0.219311	-0.514536
O11	O	-3.788416	0.114022	-0.181203
O12	O	-3.455082	0.447356	0.152130
O13	O	-4.117668	-0.212861	-0.192182
O14	O	-3.784335	0.120472	0.141151
O15	O	-3.451001	0.453806	0.474484
V16	V	-4.623957	-0.194694	-0.338553
V17	V	-4.290624	0.138639	-0.005219
V18	V	-3.957290	0.471972	0.328114
O19	O	-4.442685	-0.283718	-0.402451
O20	O	-4.109351	0.049615	-0.069118
O21	O	-3.776018	0.382949	0.264216
O22	O	-4.784740	-0.133546	-0.294663
O23	O	-4.451406	0.199787	0.038670
O24	O	-4.118073	0.533120	0.372004
O25	O	-4.366161	0.023694	-0.340116
O26	O	-4.032828	0.357027	-0.006782
O27	O	-3.699495	0.690360	0.326551
O28	O	-4.843524	-0.427584	-0.346303
O29	O	-4.510190	-0.094251	-0.012970
O30	O	-4.176857	0.239082	0.320364
O31	O	-4.776956	-0.204403	-0.504932
O32	O	-4.443623	0.128930	-0.171598
O33	O	-4.110289	0.462264	0.161735
O34	O	-4.432271	-0.197953	-0.182578
O35	O	-4.098938	0.135380	0.150756
O36	O	-3.765605	0.468714	0.484089
C37	C	-4.052503	-0.494191	-0.351571
C38	C	-3.719169	-0.160858	-0.018238
C39	C	-3.385836	0.172476	0.315095
C40	C	-4.162183	-0.672727	-0.351333
C41	C	-3.828850	-0.339394	-0.018000
C42	C	-3.495516	-0.006060	0.315334
C43	C	-3.968171	-0.211456	-0.552525
C44	C	-3.634838	0.121877	-0.219192
C45	C	-3.301504	0.455210	0.114142
C46	C	-4.024232	-0.210237	-0.680041
C47	C	-3.690899	0.123096	-0.346708
C48	C	-3.357565	0.456430	-0.013375
C49	C	-4.126832	-0.208006	-0.913507
C50	C	-3.793499	0.125327	-0.580173
C51	C	-3.460165	0.458660	-0.246840
C52	C	-4.069729	-0.209247	-0.783590
C53	C	-3.736396	0.124086	-0.450256
C54	C	-3.403063	0.457420	-0.116923
C55	C	-4.164862	0.076918	-0.345540
C56	C	-3.831529	0.410252	-0.012206
C57	C	-3.498196	0.743585	0.321127
C58	C	-4.034422	0.255453	-0.345785
C59	C	-3.701089	0.588786	-0.012452
C60	C	-3.367755	0.922119	0.320882
C61	C	-4.249193	-0.205813	-0.144583
C62	C	-3.915860	0.127520	0.188751
C63	C	-3.582526	0.460854	0.522084
C64	C	-4.172367	-0.207024	-0.017065
C65	C	-3.839034	0.126309	0.316268
C66	C	-3.505701	0.459642	0.649601
H67	H	-4.355511	-0.747841	-0.355941
H68	H	-4.022178	-0.414508	-0.022608
H69	H	-3.688844	-0.081175	0.310726
H70	H	-3.841099	-0.669438	-0.341161
H71	H	-3.507765	-0.336104	-0.007827
H72	H	-3.174432	-0.002771	0.325506
