data_functionalizedCrystal
_audit_creation_method	'MofGen! by Chris Wilmer'
_symmetry_space_group_name_H-M	'P1'
_symmetry_Int_Tables_number	1
_symmetry_cell_setting	triclinic
loop_
_symmetry_equiv_pos_as_xyz
  x,y,z
_cell_length_a	14.853567
_cell_length_b	11.026607
_cell_length_c	9.482900
_cell_angle_alpha	101.363848
_cell_angle_beta	99.351342
_cell_angle_gamma	83.889526
loop_
_atom_site_label
_atom_site_type_symbol
_atom_site_fract_x
_atom_site_fract_y
_atom_site_fract_z
O1	O	0.366576	-1.629690	-0.120866
O2	O	0.323576	-1.276313	-0.120871
O3	O	0.215369	-1.462441	-0.120872
O4	O	0.474783	-1.443561	-0.120864
O5	O	0.237461	-1.424635	0.120920
O6	O	0.345668	-1.238506	0.120922
O7	O	0.388668	-1.591884	0.120927
Cu8	Cu	0.369186	-1.411743	0.143002
Cu9	Cu	0.343059	-1.456453	-0.142946
O10	O	0.496875	-1.405755	0.120929
C11	C	0.192688	-1.442683	0.000020
C12	C	0.092190	-1.440122	0.000007
C13	C	0.326689	-1.212185	0.000025
C14	C	0.303041	-1.077432	0.000022
C15	C	0.385555	-1.656012	0.000029
C16	C	0.409202	-1.790766	0.000022
C17	C	-0.339931	-1.318718	0.000033
C18	C	-0.325531	-1.539842	0.000036
C19	C	-0.231109	-1.542254	0.000028
C20	C	-0.191094	-1.432895	0.000024
C21	C	-0.245500	-1.321125	0.000029
C22	C	-0.176694	-1.654019	0.000038
C23	C	-0.082266	-1.656435	0.000031
C24	C	-0.042250	-1.547077	0.000017
C25	C	-0.096663	-1.435303	0.000020
C26	C	-0.056648	-1.325944	0.000016
C27	C	-0.111060	-1.214170	0.000009
C28	C	-0.205484	-1.211767	0.000015
C29	C	0.052174	-1.549480	0.000011
C30	C	0.037783	-1.328352	0.000012
C31	C	0.519556	-1.425513	0.000033
C32	C	0.620054	-1.428076	0.000037
N33	N	0.387562	-1.380304	0.344123
C34	C	0.368337	-1.003736	0.000023
C35	C	0.343897	-0.864461	0.000020
N36	N	0.324677	-1.487901	-0.344066
C37	C	0.348473	-1.447172	0.416321
C38	C	0.363771	-1.421024	0.583739
H39	H	0.070355	-1.239298	0.000002
H40	H	0.408562	-1.344408	0.645864
O41	O	-0.368684	-1.657785	0.000060
H42	H	-0.420368	-1.677395	-0.098488
O43	O	0.265333	-1.589379	0.573663
H44	H	0.262629	-1.593998	0.455078
O45	O	-0.023583	-1.776988	0.000004
H46	H	-0.067275	-1.852628	-0.000009
H47	H	-0.078466	-1.125129	0.000016
O48	O	-0.219847	-1.771963	0.000062
H49	H	-0.294649	-1.751510	0.000052
H50	H	0.269894	-0.824456	-0.000019
H51	H	0.442333	-1.043750	0.000034
H52	H	0.483203	-0.830773	0.000034
H53	H	0.432350	-1.303693	0.406253
H54	H	0.229043	-1.037422	-0.000018
O55	O	0.289108	-1.548616	0.334042
H56	H	0.286396	-1.553222	0.215457
H57	H	-0.384238	-1.227715	0.000021
O58	O	-0.264165	-1.091213	0.000038
H59	H	-0.336544	-1.107910	0.000067
H60	H	0.096473	-1.640483	0.000026
