data_functionalizedCrystal
_audit_creation_method	'MofGen! by Chris Wilmer'
_symmetry_space_group_name_H-M	'P1'
_symmetry_Int_Tables_number	1
_symmetry_cell_setting	triclinic
loop_
_symmetry_equiv_pos_as_xyz
  x,y,z
_cell_length_a	17.699083
_cell_length_b	11.026607
_cell_length_c	16.776229
_cell_angle_alpha	90.000923
_cell_angle_beta	89.999727
_cell_angle_gamma	95.934516
loop_
_atom_site_label
_atom_site_type_symbol
_atom_site_fract_x
_atom_site_fract_y
_atom_site_fract_z
O1	O	1.025153	0.153393	0.066172
O2	O	0.807516	0.173351	0.066197
O3	O	0.898297	-0.013228	0.066184
O4	O	0.934372	0.339972	0.066186
O5	O	0.898284	-0.013228	-0.066393
O6	O	0.807503	0.173350	-0.066379
O7	O	1.025139	0.153393	-0.066405
Zn8	Zn	0.916319	0.163372	-0.087441
Zn9	Zn	0.916337	0.163372	0.087234
O10	O	0.934359	0.339972	-0.066391
C11	C	0.779214	0.172636	-0.000087
C12	C	0.694902	0.170490	-0.000078
C13	C	0.891635	-0.058419	-0.000103
C14	C	0.871796	-0.193075	-0.000097
C15	C	0.661328	0.280008	-0.000077
C16	C	0.582106	0.277985	-0.000088
C17	C	0.536460	0.166443	-0.000092
C18	C	0.570039	0.056917	-0.000095
C19	C	0.649259	0.058941	-0.000090
C20	C	0.250554	0.048751	-0.000115
C21	C	0.171329	0.046735	-0.000117
C22	C	0.183402	0.267794	-0.000112
C23	C	0.262621	0.269819	-0.000107
C24	C	0.296194	0.160293	-0.000114
C25	C	0.382094	0.162488	-0.000104
C26	C	0.450561	0.164247	-0.000096
C27	C	0.926576	-0.267042	-0.000103
C28	C	0.906072	-0.406216	-0.000097
C29	C	1.053441	0.154108	-0.000118
C30	C	1.137754	0.156254	-0.000123
C31	C	0.941021	0.385163	-0.000103
C32	C	0.960860	0.519819	-0.000103
N33	N	0.916313	0.163370	-0.206652
C34	C	0.972224	0.236852	-0.248371
C35	C	0.972231	0.236847	-0.331823
C36	C	0.916324	0.163367	-0.373555
C37	C	0.860411	0.089877	-0.331831
C38	C	0.860407	0.089876	-0.248380
C39	C	0.860426	0.089878	-0.668378
C40	C	0.860433	0.089888	-0.751834
C41	C	0.972251	0.236850	-0.751821
C42	C	0.972247	0.236849	-0.668371
C43	C	0.916336	0.163355	-0.626653
C44	C	0.916329	0.163359	-0.536165
C45	C	0.916328	0.163368	-0.464042
N46	N	0.916348	0.163364	0.206445
H47	H	0.698488	0.370838	-0.000073
H48	H	0.988654	-0.227333	-0.000115
H49	H	0.814904	0.030047	-0.785810
H50	H	0.809717	-0.232783	-0.000085
O51	O	0.150824	0.374224	0.000028
C52	C	0.136935	0.562578	0.068695
C53	C	0.173862	0.442086	0.068641
H54	H	0.155560	0.617491	0.124154
H55	H	0.072469	0.542051	0.068739
H56	H	0.155482	0.617436	0.013191
H57	H	0.155375	0.387169	0.124136
H58	H	0.238322	0.462699	0.068556
O59	O	0.805998	0.018639	-0.207888
C60	C	0.672202	-0.028535	-0.182397
C61	C	0.733741	0.052251	-0.228288
H62	H	0.613767	-0.001406	-0.198886
H63	H	0.681737	-0.015907	-0.115575
H64	H	0.675545	-0.128170	-0.198798
H65	H	0.730434	0.151916	-0.211953
H66	H	0.724186	0.039519	-0.295098
O67	O	0.806170	0.018566	-0.627737
C68	C	0.756530	-0.046444	-0.499185
C69	C	0.818045	0.034334	-0.545115
H70	H	0.766100	-0.033704	-0.432378
H71	H	0.759799	-0.146124	-0.515522
H72	H	0.698110	-0.019239	-0.515662
H73	H	0.876493	0.007236	-0.528663
H74	H	0.814708	0.133994	-0.528775
H75	H	0.554775	0.367165	-0.000086
O76	O	0.306989	0.378144	0.000046
C77	C	0.403453	0.508695	0.068726
C78	C	0.353243	0.385983	0.068660
H79	H	0.440874	0.515062	0.124186
H80	H	0.365880	0.586668	0.068777
H81	H	0.440816	0.515164	0.013223
H82	H	0.315873	0.379395	0.124154
H83	H	0.390861	0.308069	0.068567
O84	O	0.127067	-0.061700	-0.000021
C85	C	0.092470	-0.251241	0.068672
C86	C	0.142654	-0.128505	0.068652
H87	H	0.105042	-0.305277	0.124197
H88	H	0.105079	-0.305428	0.013223
H89	H	0.030088	-0.233839	0.068635
H90	H	0.205051	-0.145796	0.068717
H91	H	0.129979	-0.074357	0.124096
H92	H	1.017746	0.296696	-0.214399
H93	H	1.017770	0.296689	-0.634397
O94	O	1.034953	-0.432972	-0.000219
C95	C	1.155090	-0.419019	-0.068944
C96	C	1.071204	-0.472588	-0.068902
H97	H	1.184420	-0.451007	-0.124476
H98	H	1.184526	-0.451092	-0.013502
H99	H	1.158413	-0.315216	-0.068907
H100	H	1.067812	-0.576393	-0.068967
H101	H	1.041805	-0.440420	-0.124338
O102	O	0.525813	-0.051542	-0.000133
C103	C	0.522206	-0.270598	-0.000081
C104	C	0.572380	-0.147852	-0.000062
H105	H	0.559835	-0.348496	-0.000006
H106	H	0.484832	-0.277160	-0.055576
H107	H	0.484799	-0.277002	0.055390
H108	H	0.609832	-0.141365	-0.055495
H109	H	0.609703	-0.141342	0.055471
O110	O	0.831996	-0.453511	0.000055
C111	C	0.711835	-0.467341	0.068731
C112	C	0.795712	-0.413720	0.068666
H113	H	0.682471	-0.435171	0.124188
H114	H	0.708449	-0.571152	0.068786
H115	H	0.682476	-0.435329	0.013225
H116	H	0.825123	-0.445639	0.124162
H117	H	0.799044	-0.309915	0.068570
H118	H	1.017778	0.296689	-0.785798
O119	O	1.026576	0.308347	-0.372225
C120	C	1.137506	0.454079	-0.363406
C121	C	1.075993	0.373182	-0.317553
H122	H	1.177486	0.506500	-0.319223
H123	H	1.109462	0.521224	-0.402455
H124	H	1.171141	0.394325	-0.402496
H125	H	1.042338	0.432838	-0.278420
H126	H	1.104084	0.306029	-0.278554
H127	H	0.676594	-0.030240	-0.000090
O128	O	0.283244	-0.057561	-0.000005
C129	C	0.365629	-0.183623	0.068712
C130	C	0.328670	-0.063160	0.068675
H131	H	0.402351	-0.188200	0.124243
H132	H	0.402468	-0.188233	0.013269
H133	H	0.319378	-0.263663	0.068675
H134	H	0.374870	0.016948	0.068741
H135	H	0.291814	-0.058656	0.124113
H136	H	0.814893	0.030042	-0.365815
