data_functionalizedCrystal
_audit_creation_method	'MofGen! by Chris Wilmer'
_symmetry_space_group_name_H-M	'P1'
_symmetry_Int_Tables_number	1
_symmetry_cell_setting	triclinic
loop_
_symmetry_equiv_pos_as_xyz
  x,y,z
_cell_length_a	16.109302
_cell_length_b	19.188924
_cell_length_c	15.186229
_cell_angle_alpha	89.994194
_cell_angle_beta	89.994701
_cell_angle_gamma	83.301872
loop_
_atom_site_label
_atom_site_type_symbol
_atom_site_fract_x
_atom_site_fract_y
_atom_site_fract_z
O1	O	1.102830	0.089747	-0.073272
O2	O	1.602830	0.589747	0.426728
O3	O	0.860731	0.100915	-0.073266
O4	O	1.360731	0.600915	0.426734
O5	O	0.988770	-0.006309	-0.073259
O6	O	1.488770	0.493691	0.426741
O7	O	0.974791	0.196970	-0.073279
O8	O	1.474791	0.696970	0.426721
O9	O	0.988762	-0.006311	0.073199
O10	O	1.488762	0.493689	0.573199
O11	O	0.860722	0.100913	0.073192
O12	O	1.360722	0.600913	0.573192
O13	O	1.102822	0.089745	0.073185
O14	O	1.602822	0.589745	0.573185
Zn15	Zn	0.981771	0.095329	0.096442
Zn16	Zn	1.481771	0.595329	0.596442
Zn17	Zn	0.981782	0.095331	-0.096522
Zn18	Zn	1.481782	0.595331	0.403478
O19	O	0.974783	0.196969	0.073178
O20	O	1.474783	0.696969	0.573178
C21	C	0.829753	0.100461	-0.000036
C22	C	1.329753	0.600461	0.499964
C23	C	0.737463	0.099105	-0.000033
C24	C	1.237463	0.599105	0.499967
C25	C	0.525128	0.095967	0.079792
C26	C	1.025128	0.595967	0.579792
C27	C	0.438412	0.094685	0.079789
C28	C	0.938412	0.594685	0.579789
C29	C	0.438432	0.094690	-0.079887
C30	C	0.938432	0.594690	0.420113
C31	C	0.525147	0.095968	-0.079883
C32	C	1.025147	0.595968	0.420117
C33	C	0.568492	0.096609	-0.000041
C34	C	1.068492	0.596609	0.499959
C35	C	0.395061	0.094050	-0.000048
C36	C	0.895061	0.594050	0.499952
C37	C	0.301040	0.092660	-0.000051
C38	C	0.801040	0.592660	0.499949
C39	C	0.662519	0.097998	-0.000037
C40	C	1.162519	0.597998	0.499963
C41	C	0.988314	-0.032322	-0.000029
C42	C	1.488314	0.467678	0.499971
C43	C	0.986958	-0.109830	-0.000027
C44	C	1.486958	0.390170	0.499973
C45	C	0.986330	-0.146229	-0.079861
C46	C	1.486330	0.353771	0.420139
C47	C	0.985044	-0.219055	-0.079868
C48	C	1.485044	0.280945	0.420132
C49	C	0.984403	-0.255480	-0.000036
C50	C	1.484403	0.244520	0.499964
C51	C	0.985027	-0.219071	0.079809
C52	C	1.485027	0.280929	0.579809
C53	C	0.986304	-0.146246	0.079813
C54	C	1.486304	0.353754	0.579813
N55	N	1.029706	-0.375038	0.059380
N56	N	1.529706	0.124962	0.559380
N57	N	1.028494	-0.444219	0.059371
N58	N	1.528494	0.055781	0.559371
C59	C	0.980552	-0.474898	-0.000044
C60	C	1.480552	0.025102	0.499956
N61	N	0.933878	-0.433784	-0.059462
N62	N	1.433878	0.066216	0.440538
N63	N	0.935093	-0.364597	-0.059455
N64	N	1.435093	0.135403	0.440545
C65	C	0.983017	-0.334447	-0.000032
C66	C	1.483017	0.165553	0.499968
C67	C	0.978528	-0.590264	-0.079891
C68	C	1.478528	-0.090264	0.420109
C69	C	0.977237	-0.663090	-0.079894
C70	C	1.477237	-0.163090	0.420106
C71	C	0.977228	-0.663106	0.079785
C72	C	1.477228	-0.163106	0.579785
C73	C	0.978511	-0.590280	0.079786
C74	C	1.478511	-0.090280	0.579786
C75	C	0.979165	-0.553864	-0.000055
C76	C	1.479165	-0.053864	0.499945
C77	C	1.133799	0.090198	-0.000046
C78	C	1.633799	0.590198	0.499954
C79	C	1.226090	0.091555	-0.000055
C80	C	1.726090	0.591555	0.499945
C81	C	0.975239	0.222982	-0.000053
C82	C	1.475239	0.722982	0.499947
C83	C	0.976595	0.300490	-0.000061
C84	C	1.476595	0.800490	0.499939
N85	N	0.981769	0.095327	0.228134
N86	N	1.481769	0.595327	0.728134
N87	N	0.981790	0.095327	-0.228215
N88	N	1.481790	0.595327	0.271785
C89	C	1.038484	0.047864	0.453860
C90	C	1.538484	0.547864	0.953860
C91	C	1.038487	0.047863	0.546050
C92	C	1.538487	0.547863	1.046050
C93	C	0.925069	0.142792	0.546053
C94	C	1.425069	0.642792	1.046053
C95	C	0.925063	0.142790	0.453865
C96	C	1.425063	0.642790	0.953865
C97	C	0.981775	0.095327	0.407771
C98	C	1.481775	0.595327	0.907771
C99	C	0.981784	0.095327	0.592148
C100	C	1.481784	0.595327	1.092148
C101	C	0.981786	0.095326	0.692105
C102	C	1.481786	0.595326	1.192105
C103	C	0.981772	0.095327	0.307808
C104	C	1.481772	0.595327	0.807808
H105	H	0.403129	0.094169	-0.144891
H106	H	0.903129	0.594169	0.355109
H107	H	0.560455	0.096489	-0.144896
H108	H	1.060455	0.596489	0.355104
H109	H	0.560417	0.096490	0.144805
H110	H	1.060417	0.596490	0.644805
H111	H	1.084663	0.009214	0.583573
H112	H	1.584663	0.509214	1.083573
C113	C	0.421281	0.034308	0.215894
C114	C	0.921281	0.534308	0.715894
C115	C	0.390750	0.093981	0.167547
C116	C	0.890750	0.593981	0.667547
H117	H	0.391860	0.033876	0.270076
H118	H	0.891860	0.533876	0.770076
H119	H	0.413558	-0.006585	0.183095
H120	H	0.913558	0.493415	0.683095
H121	H	0.479129	0.035170	0.227310
H122	H	0.979129	0.535170	0.727310
H123	H	0.332902	0.093117	0.156125
H124	H	0.832902	0.593117	0.656125
H125	H	0.398465	0.134884	0.200352
H126	H	0.898465	0.634884	0.700352
H127	H	0.986860	-0.116583	-0.144873
H128	H	1.486860	0.383417	0.355127
H129	H	0.878897	0.181436	0.583592
H130	H	1.378897	0.681436	1.083592
C131	C	0.985148	-0.211728	-0.237703
C132	C	1.485148	0.288272	0.262297
C133	C	0.984321	-0.259073	-0.167627
C134	C	1.484321	0.240927	0.332373
H135	H	0.984696	-0.236433	-0.291880
H136	H	1.484696	0.263567	0.208120
H137	H	0.937187	-0.177981	-0.234363
H138	H	1.437187	0.322019	0.265637
H139	H	1.034131	-0.188670	-0.234396
H140	H	1.534131	0.311330	0.265604
H141	H	0.935335	-0.282127	-0.170930
H142	H	1.435335	0.217873	0.329070
H143	H	1.032287	-0.292833	-0.170969
H144	H	1.532287	0.207167	0.329031
H145	H	0.984502	-0.248733	0.144809
H146	H	1.484502	0.251267	0.644809
C147	C	0.812957	0.236633	0.463120
C148	C	1.312957	0.736633	0.963120
C149	C	0.862726	0.194967	0.403196
C150	C	1.362726	0.694967	0.903196
H151	H	0.774477	0.268844	0.431837
H152	H	1.274477	0.768844	0.931837
H153	H	0.783161	0.207565	0.499085
H154	H	1.283161	0.707565	0.999085
H155	H	0.847480	0.261757	0.499068
H156	H	1.347480	0.761757	0.999068
H157	H	0.828203	0.169839	0.367253
H158	H	1.328203	0.669839	0.867253
H159	H	0.892524	0.224038	0.367216
H160	H	1.392524	0.724038	0.867216
C161	C	0.986163	-0.153578	0.237647
C162	C	1.486163	0.346422	0.737647
C163	C	0.987000	-0.106232	0.167573
C164	C	1.487000	0.393768	0.667573
H165	H	0.986599	-0.128873	0.291825
H166	H	1.486599	0.371127	0.791825
H167	H	0.937195	-0.176642	0.234325
H168	H	1.437195	0.323358	0.734325
H169	H	1.034139	-0.187323	0.234319
H170	H	1.534139	0.312677	0.734319
H171	H	0.939021	-0.072491	0.170897
H172	H	1.439021	0.427509	0.670897
H173	H	1.035974	-0.083157	0.170897
H174	H	1.535974	0.416843	0.670897
H175	H	0.979056	-0.560612	-0.144901
H176	H	1.479056	-0.060612	0.355099
C177	C	0.980465	-0.478652	0.150689
C178	C	1.480465	0.021348	0.650689
C179	C	0.979210	-0.550265	0.167542
C180	C	1.479210	-0.050265	0.667542
H181	H	0.980890	-0.453950	0.204870
H182	H	1.480890	0.046050	0.704870
H183	H	1.029146	-0.472055	0.117891
H184	H	1.529146	0.027945	0.617891
H185	H	0.932201	-0.461385	0.117886
H186	H	1.432201	0.038615	0.617886
H187	H	1.027478	-0.567534	0.200340
H188	H	1.527478	-0.067534	0.700340
H189	H	0.930525	-0.556867	0.200353
H190	H	1.430525	-0.056867	0.700353
H191	H	0.976721	-0.692725	-0.144907
H192	H	1.476721	-0.192725	0.355093
H193	H	0.976700	-0.692762	0.144785
H194	H	1.476700	-0.192762	0.644785
C195	C	1.150584	-0.045974	0.463120
C196	C	1.650584	0.454026	0.963120
C197	C	1.100813	-0.004313	0.403193
C198	C	1.600813	0.495687	0.903193
H199	H	1.189059	-0.078191	0.431840
H200	H	1.689059	0.421809	0.931840
H201	H	1.180385	-0.016904	0.499064
H202	H	1.680385	0.483096	0.999064
H203	H	1.116062	-0.071092	0.499090
H204	H	1.616062	0.428908	0.999090
H205	H	1.135336	0.020809	0.367228
H206	H	1.635336	0.520809	0.867228
H207	H	1.071010	-0.033387	0.367234
H208	H	1.571010	0.466613	0.867234
