data_functionalizedCrystal
_audit_creation_method	'MofGen! by Chris Wilmer'
_symmetry_space_group_name_H-M	'P1'
_symmetry_Int_Tables_number	1
_symmetry_cell_setting	triclinic
loop_
_symmetry_equiv_pos_as_xyz
  x,y,z
_cell_length_a	19.188905
_cell_length_b	17.666332
_cell_length_c	14.044190
_cell_angle_alpha	89.985524
_cell_angle_beta	88.163166
_cell_angle_gamma	90.001515
loop_
_atom_site_label
_atom_site_type_symbol
_atom_site_fract_x
_atom_site_fract_y
_atom_site_fract_z
O1	O	0.933772	-0.063083	0.118202
O2	O	1.433772	0.436917	0.618202
O3	O	0.731488	-0.063058	0.134153
O4	O	1.231488	0.436942	0.634153
O5	O	0.829591	-0.063055	-0.011794
O6	O	1.329591	0.436945	0.488206
O7	O	0.835669	-0.063085	0.264149
O8	O	1.335669	0.436915	0.764149
O9	O	0.829608	0.062842	-0.011814
O10	O	1.329608	0.562842	0.488186
O11	O	0.731505	0.062839	0.134134
O12	O	1.231505	0.562839	0.634134
O13	O	0.933789	0.062814	0.118183
O14	O	1.433789	0.562814	0.618183
Cu15	Cu	0.832649	0.074322	0.126156
Cu16	Cu	1.332649	0.574322	0.626156
Cu17	Cu	0.832628	-0.074566	0.126179
Cu18	Cu	1.332628	0.425434	0.626179
O19	O	0.835686	0.062811	0.264130
O20	O	1.335686	0.562811	0.764130
C21	C	0.705452	-0.000106	0.133631
C22	C	1.205452	0.499894	0.633631
C23	C	0.627847	-0.000096	0.132092
C24	C	1.127847	0.499904	0.632092
C25	C	0.591398	-0.068724	0.131363
C26	C	1.091398	0.431276	0.631363
C27	C	0.518481	-0.068734	0.129907
C28	C	1.018481	0.431266	0.629907
C29	C	0.482015	-0.000111	0.129160
C30	C	0.982015	0.499889	0.629160
C31	C	0.518473	0.068527	0.129894
C32	C	1.018473	0.568527	0.629894
C33	C	0.591389	0.068534	0.131360
C34	C	1.091389	0.568534	0.631360
N35	N	0.369373	0.050965	0.072924
N36	N	0.869373	0.550965	0.572924
N37	N	0.300106	0.050953	0.071529
N38	N	0.800106	0.550953	0.571529
C39	C	0.262324	-0.000128	0.124746
C40	C	0.762324	0.499872	0.624746
N41	N	0.296426	-0.051210	0.179397
N42	N	0.796426	0.448790	0.679397
N43	N	0.365700	-0.051200	0.180788
N44	N	0.865700	0.448800	0.680788
C45	C	0.402950	-0.000111	0.127571
C46	C	0.902950	0.499889	0.627571
C47	C	0.146809	-0.068771	0.122439
C48	C	0.646809	0.431229	0.622439
C49	C	0.073890	-0.068778	0.120989
C50	C	0.573890	0.431222	0.620989
C51	C	0.073884	0.068484	0.120966
C52	C	0.573884	0.568484	0.620966
C53	C	0.146802	0.068489	0.122426
C54	C	0.646802	0.568489	0.622426
C55	C	0.183260	-0.000141	0.123158
C56	C	0.683260	0.499859	0.623158
N57	N	0.832614	-0.179285	0.126188
N58	N	1.332614	0.320715	0.626188
C59	C	0.878450	-0.218911	0.183627
C60	C	1.378450	0.281089	0.683627
C61	C	0.878455	-0.298159	0.183627
C62	C	1.378455	0.201841	0.683627
C63	C	0.832630	-0.337777	0.126172
C64	C	1.332630	0.162223	0.626172
C65	C	0.786785	-0.298142	0.068731
C66	C	1.286785	0.201858	0.568731
C67	C	0.786776	-0.218895	0.068738
C68	C	1.286776	0.281105	0.568738
N69	N	0.825716	-0.462180	0.043126
N70	N	1.325716	0.037820	0.543126
N71	N	0.825727	-0.537461	0.043121
N72	N	1.325727	-0.037461	0.543121
C73	C	0.832651	-0.576541	0.126147
C74	C	1.332651	-0.076541	0.626147
N75	N	0.839575	-0.537497	0.209178
N76	N	1.339575	-0.037497	0.709178
N77	N	0.839567	-0.462210	0.209182
N78	N	1.339567	0.037790	0.709182
C79	C	0.832633	-0.423706	0.126158
C80	C	1.332633	0.076294	0.626158
C81	C	0.878495	-0.702097	0.183591
C82	C	1.378495	-0.202097	0.683591
C83	C	0.878495	-0.781346	0.183594
C84	C	1.378495	-0.281346	0.683594
C85	C	0.786828	-0.781327	0.068688
C86	C	1.286828	-0.281327	0.568688
C87	C	0.786824	-0.702079	0.068694
C88	C	1.286824	-0.202079	0.568694
C89	C	0.832662	-0.662469	0.126144
C90	C	1.332662	-0.162469	0.626144
C91	C	0.959825	-0.000139	0.118705
C92	C	1.459825	0.499861	0.618705
C93	C	1.037430	-0.000154	0.120244
C94	C	1.537430	0.499846	0.620244
C95	C	0.826941	-0.000104	-0.047107
C96	C	1.326941	0.499896	0.452893
C97	C	0.819010	-0.000096	-0.152299
C98	C	1.319010	0.499904	0.347701
N99	N	0.832668	0.179041	0.126140
N100	N	1.332668	0.679041	0.626140
C101	C	0.860758	-0.000131	-0.402764
C102	C	1.360758	0.499869	0.097236
C103	C	0.804522	-0.000119	-0.344895
C104	C	1.304522	0.499881	0.155105
C105	C	0.812585	-0.000107	-0.237725
C106	C	1.312585	0.499893	0.262275
C107	C	0.852696	-0.000144	-0.509944
C108	C	1.352696	0.499856	-0.009944
C109	C	0.838336	-0.000141	0.299443
C110	C	1.338336	0.499859	0.799443
C111	C	0.846267	-0.000154	0.404635
C112	C	1.346267	0.499846	0.904635
H113	H	0.044195	0.124358	0.120364
H114	H	0.544195	0.624358	0.620364
H115	H	0.749512	-0.813583	0.021913
H116	H	1.249512	-0.313583	0.521913
C117	C	0.139470	0.204161	0.122246
C118	C	0.639470	0.704161	0.622246
C119	C	0.186872	0.143928	0.123212
C120	C	0.686872	0.643928	0.623212
H121	H	0.164209	0.250735	0.122727
H122	H	0.664209	0.750735	0.622727
H123	H	0.109143	0.201300	0.176921
H124	H	0.609143	0.701300	0.676921
H125	H	0.112918	0.201302	0.066423
H126	H	0.612918	0.701302	0.566423
H127	H	0.213420	0.146784	0.179039
H128	H	0.713420	0.646784	0.679039
H129	H	0.217211	0.146791	0.068532
H130	H	0.717211	0.646791	0.568532
C131	C	0.941974	-0.064834	-0.304810
C132	C	1.441974	0.435166	0.195190
C133	C	0.933923	-0.000125	-0.360994
C134	C	1.433923	0.499875	0.139006
H135	H	0.987141	-0.064824	-0.279010
H136	H	1.487141	0.435176	0.220990
H137	H	0.936506	-0.108734	-0.342879
H138	H	1.436506	0.391266	0.157121
H139	H	0.907741	-0.064819	-0.254426
H140	H	1.407741	0.435181	0.245574
H141	H	0.968153	-0.000142	-0.411381
H142	H	1.468153	0.499858	0.088619
H143	H	0.939398	0.043787	-0.322922
H144	H	1.439398	0.543787	0.177078
H145	H	0.749502	-0.669815	0.021917
H146	H	1.249502	-0.169815	0.521917
H147	H	0.915780	-0.330429	0.230405
H148	H	1.415780	0.169571	0.730405
C149	C	0.584074	-0.204401	0.131233
C150	C	1.084074	0.295599	0.631233
C151	C	0.631472	-0.144162	0.132177
C152	C	1.131472	0.355838	0.632177
H153	H	0.608817	-0.250972	0.131742
H154	H	1.108817	0.249028	0.631742
H155	H	0.557527	-0.201541	0.075415
H156	H	1.057527	0.298459	0.575415
H157	H	0.553742	-0.201550	0.185912
H158	H	1.053742	0.298450	0.685912
H159	H	0.661801	-0.147010	0.077494
H160	H	1.161801	0.352990	0.577494
H161	H	0.658031	-0.147023	0.188001
H162	H	1.158031	0.352977	0.688001
H163	H	0.915774	-0.186665	0.230408
H164	H	1.415774	0.313335	0.730408
C165	C	0.969100	-0.710072	0.297174
C166	C	1.469100	-0.210072	0.797174
C167	C	0.928871	-0.658551	0.246747
C168	C	1.428871	-0.158551	0.746747
H169	H	1.000197	-0.683188	0.336167
H170	H	1.500197	-0.183188	0.836167
H171	H	0.995047	-0.740966	0.253528
H172	H	1.495047	-0.240966	0.753528
H173	H	0.939336	-0.740994	0.336040
H174	H	1.439336	-0.240994	0.836040
H175	H	0.958635	-0.627632	0.207875
H176	H	1.458635	-0.127632	0.707875
H177	H	0.902922	-0.627643	0.290399
H178	H	1.402922	-0.127643	0.790399
C179	C	0.692564	-0.387277	0.062885
C180	C	1.192564	0.112723	0.562885
C181	C	0.736412	-0.341687	0.005575
C182	C	1.236412	0.158313	0.505575
H183	H	0.661467	-0.414162	0.023894
H184	H	1.161467	0.085838	0.523894
H185	H	0.666617	-0.356378	0.106527
H186	H	1.166617	0.143622	0.606527
H187	H	0.719873	-0.422218	0.097089
H188	H	1.219873	0.077782	0.597089
H189	H	0.709104	-0.306742	-0.028624
H190	H	1.209104	0.193258	0.471376
H191	H	0.762361	-0.372589	-0.038084
H192	H	1.262361	0.127411	0.461916
H193	H	0.915819	-0.813608	0.230373
H194	H	1.415819	-0.313608	0.730373
C195	C	0.737420	-0.000120	-0.486284
C196	C	1.237420	0.499880	0.013716
C197	C	0.731351	-0.000111	-0.386661
C198	C	1.231351	0.499889	0.113339
H199	H	0.692248	-0.000108	-0.512069
H200	H	1.192248	0.499892	-0.012069
H201	H	0.762047	-0.044028	-0.507152
H202	H	1.262047	0.455972	-0.007152
H203	H	0.762071	0.043779	-0.507192
H204	H	1.262071	0.543779	-0.007192
H205	H	0.706704	-0.044013	-0.365751
H206	H	1.206704	0.455987	0.134249
H207	H	0.706713	0.043801	-0.365784
H208	H	1.206713	0.543801	0.134216
H209	H	0.488798	-0.124621	0.129315
H210	H	0.988798	0.375379	0.629315
H211	H	0.749449	-0.186632	0.021964
H212	H	1.249449	0.313368	0.521964
H213	H	0.621065	0.124421	0.131954
H214	H	1.121065	0.624421	0.631954
C215	C	0.439262	0.148157	0.046776
C216	C	0.939262	0.648157	0.546776
C217	C	0.478395	0.143960	0.129068
C218	C	0.978395	0.643960	0.629068
H219	H	0.414524	0.194730	0.046268
H220	H	0.914524	0.694730	0.546268
H221	H	0.407118	0.107287	0.046142
H222	H	0.907118	0.607287	0.546142
H223	H	0.469607	0.145311	-0.007891
H224	H	0.969607	0.645311	0.492109
H225	H	0.448049	0.146800	0.183735
H226	H	0.948049	0.646800	0.683735
H227	H	0.510543	0.184840	0.129711
H228	H	1.010543	0.684840	0.629711
C229	C	0.166490	-0.185762	0.204369
C230	C	0.666490	0.314238	0.704369
C231	C	0.186893	-0.144204	0.123265
C232	C	0.686893	0.355796	0.623265
H233	H	0.191239	-0.232328	0.204882
H234	H	0.691239	0.267672	0.704882
H235	H	0.117854	-0.195590	0.203387
H236	H	0.617854	0.304410	0.703387
H237	H	0.176551	-0.157554	0.259842
H238	H	0.676551	0.342446	0.759842
H239	H	0.176828	-0.172410	0.067792
H240	H	0.676828	0.327590	0.567792
H241	H	0.235541	-0.134378	0.124238
H242	H	0.735541	0.365622	0.624238
C243	C	-0.010881	-0.148434	0.200798
C244	C	0.489119	0.351566	0.700798
C245	C	0.033824	-0.144222	0.120192
C246	C	0.533824	0.355778	0.620192
H247	H	-0.035612	-0.195013	0.200307
H248	H	0.464388	0.304987	0.700307
H249	H	-0.043030	-0.107572	0.200146
H250	H	0.456970	0.392428	0.700146
H251	H	0.015685	-0.145586	0.256609
H252	H	0.515685	0.354414	0.756609
H253	H	0.007257	-0.147064	0.064381
H254	H	0.507257	0.352936	0.564381
H255	H	0.065977	-0.185095	0.120836
H256	H	0.565977	0.314905	0.620836
