data_functionalizedCrystal
_audit_creation_method	'MofGen! by Chris Wilmer'
_symmetry_space_group_name_H-M	'P1'
_symmetry_Int_Tables_number	1
_symmetry_cell_setting	triclinic
loop_
_symmetry_equiv_pos_as_xyz
  x,y,z
_cell_length_a	14.853567
_cell_length_b	14.853558
_cell_length_c	11.892095
_cell_angle_alpha	86.096156
_cell_angle_beta	86.107342
_cell_angle_gamma	96.366968
loop_
_atom_site_label
_atom_site_type_symbol
_atom_site_fract_x
_atom_site_fract_y
_atom_site_fract_z
O1	O	-0.111908	1.202127	-0.093994
O2	O	-0.125938	0.939666	-0.094000
O3	O	0.012306	1.077906	-0.093984
O4	O	-0.250152	1.063886	-0.094011
O5	O	0.000797	1.066380	0.094022
O6	O	-0.137447	0.928140	0.094006
O7	O	-0.123417	1.190600	0.094012
Zn8	Zn	-0.132259	1.057540	0.123859
Zn9	Zn	-0.117096	1.072726	-0.123847
O10	O	-0.261661	1.052360	0.093995
C11	C	-0.131058	0.900314	0.000002
C12	C	-0.129158	0.800230	0.000000
C13	C	-0.121993	0.759493	-0.102486
C14	C	-0.134529	0.746925	0.102486
C15	C	-0.132739	0.652892	0.102488
C16	C	-0.125574	0.612155	0.000001
C17	C	-0.120199	0.665451	-0.102487
C18	C	-0.138104	0.599589	0.204974
C19	C	-0.136313	0.505549	0.204980
C20	C	-0.129154	0.464810	0.102493
C21	C	-0.123781	0.518113	0.000000
C22	C	-0.116616	0.477376	-0.102486
C23	C	-0.111248	0.530676	-0.204980
C24	C	-0.113041	0.624712	-0.204975
C25	C	-0.127362	0.370774	0.102487
C26	C	-0.114822	0.383334	-0.102487
C27	C	-0.289495	1.058759	-0.000011
C28	C	-0.389578	1.060663	-0.000021
C29	C	-0.802112	1.150827	0.000022
C30	C	-0.823398	0.986594	0.000017
C31	C	-0.729364	0.984804	0.000006
C32	C	-0.671699	1.066027	0.000005
C33	C	-0.708069	1.149040	0.000014
C34	C	-0.692987	0.901792	0.000008
C35	C	-0.598948	0.900000	-0.000002
C36	C	-0.541281	0.981224	-0.000011
C37	C	-0.577656	1.064240	-0.000003
C38	C	-0.519991	1.145463	-0.000004
C39	C	-0.556364	1.228480	-0.000004
C40	C	-0.650402	1.230264	0.000005
C41	C	-0.447243	0.979440	-0.000020
C42	C	-0.425948	1.143676	-0.000012
C43	C	0.040140	1.071508	0.000020
C44	C	0.140224	1.069604	0.000023
C45	C	-0.118297	1.229952	0.000007
C46	C	-0.120197	1.330037	0.000001
N47	N	-0.142607	1.047183	0.292912
N48	N	-0.106741	1.083091	-0.292900
C49	C	-0.034683	1.155164	0.529572
C50	C	-0.041923	1.147931	0.647913
C51	C	-0.164321	1.025479	0.647937
C52	C	-0.157082	1.032712	0.529596
C53	C	-0.092261	1.097558	0.470418
C54	C	-0.085027	1.104795	0.352075
C55	C	-0.207420	0.982339	0.352100
C56	C	-0.214660	0.975106	0.470441
H57	H	-0.143929	0.632765	0.288413
H58	H	0.018090	1.207971	0.481389
H59	H	-0.417633	0.911848	-0.000003
F60	F	0.019362	1.209242	0.710866
F61	F	-0.107320	0.681444	-0.314046
F62	F	-0.107203	0.339985	-0.211570
H63	H	-0.117626	0.802894	-0.185934
F64	F	-0.364583	1.230127	-0.000021
H65	H	-0.870354	0.920465	0.000025
F66	F	-0.142152	0.790284	0.211552
H67	H	-0.509401	1.294611	0.000002
F68	F	-0.142034	0.448831	0.314061
H69	H	-0.131740	0.327380	0.185936
H70	H	-0.680027	1.297851	0.000035
H71	H	-0.831730	1.218418	0.000017
F72	F	-0.754362	0.815355	0.000013
F73	F	-0.560245	0.811647	-0.000007
H74	H	-0.032249	1.157598	0.303893
H75	H	-0.217091	0.972677	0.696135
F76	F	-0.283641	0.906093	0.533433
H77	H	-0.105409	0.497496	-0.288424
F78	F	-0.268706	0.921032	0.289132
