data_functionalizedCrystal
_audit_creation_method	'MofGen! by Chris Wilmer'
_symmetry_space_group_name_H-M	'P1'
_symmetry_Int_Tables_number	1
_symmetry_cell_setting	triclinic
loop_
_symmetry_equiv_pos_as_xyz
  x,y,z
_cell_length_a	17.077404
_cell_length_b	16.120444
_cell_length_c	16.120256
_cell_angle_alpha	84.383140
_cell_angle_beta	87.120369
_cell_angle_gamma	92.924506
loop_
_atom_site_label
_atom_site_type_symbol
_atom_site_fract_x
_atom_site_fract_y
_atom_site_fract_z
Zn1	Zn	1.159632	-0.356807	0.489439
Zn2	Zn	1.159531	-0.489494	0.356750
Zn3	Zn	1.035374	-0.349734	0.349686
Zn4	Zn	1.021316	-0.496534	0.496476
O5	O	1.093963	-0.423142	0.423088
O6	O	1.269464	-0.374422	0.471848
O7	O	1.148902	-0.465048	0.238850
O8	O	1.057782	-0.233707	0.362323
O9	O	1.269390	-0.471906	0.374363
O10	O	1.149074	-0.238903	0.464999
O11	O	1.057684	-0.362367	0.233661
O12	O	0.923663	-0.369194	0.369147
O13	O	1.033823	-0.483905	0.612505
O14	O	0.913335	-0.477047	0.476993
O15	O	1.135443	-0.381249	0.607335
O16	O	1.135271	-0.607393	0.381187
O17	O	1.033725	-0.612566	0.483843
C18	C	0.890017	-0.423118	0.423068
C19	C	0.802766	-0.423128	0.423080
C20	C	0.761807	-0.372468	0.473928
C21	C	0.679826	-0.372473	0.473932
C22	C	0.638806	-0.423144	0.423092
C23	C	0.679771	-0.473807	0.372239
C24	C	0.761751	-0.473797	0.372231
C25	C	0.508899	-0.473827	0.372261
C26	C	0.426914	-0.473839	0.372270
C27	C	0.426974	-0.372504	0.473961
C28	C	0.508954	-0.372493	0.473953
C29	C	0.549914	-0.423157	0.423101
C30	C	1.082982	-0.640308	0.434063
C31	C	1.078355	-0.733214	0.438786
C32	C	1.118150	-0.942124	0.398766
C33	C	1.069921	-0.903309	0.447419
C34	C	1.074615	-0.808660	0.442614
C35	C	1.113457	-1.036783	0.403569
C36	C	1.298705	-0.423168	0.423108
C37	C	1.385954	-0.423178	0.423117
C38	C	1.083076	-0.434151	0.641095
C39	C	1.078437	-0.438843	0.733997
C40	C	1.105007	-0.205129	0.412088
C41	C	1.109714	-0.112225	0.407401
C42	C	1.104856	-0.412116	0.205926
C43	C	1.109659	-0.407189	0.113012
C44	C	1.118156	-0.398656	0.942922
C45	C	1.069942	-0.447373	0.904082
C46	C	1.074670	-0.442626	0.809438
C47	C	1.113429	-0.403402	1.037574
H48	H	0.646480	-0.331222	0.515338
H49	H	0.542350	-0.331237	0.515356
F50	F	1.011340	-0.952784	0.506577
F51	F	1.176724	-0.892650	0.339609
H52	H	1.025110	-0.492643	0.941911
F53	F	1.176738	-0.339474	0.893479
H54	H	0.795199	-0.331207	0.515329
H55	H	0.393517	-0.515101	0.330873
F56	F	0.383381	-0.318581	0.528080
H57	H	0.542246	-0.515081	0.330850
F58	F	0.636113	-0.527731	0.318127
F59	F	0.805343	-0.527717	0.318113
