data_functionalizedCrystal
_audit_creation_method	'MofGen! by Chris Wilmer'
_symmetry_space_group_name_H-M	'P1'
_symmetry_Int_Tables_number	1
_symmetry_cell_setting	triclinic
loop_
_symmetry_equiv_pos_as_xyz
  x,y,z
_cell_length_a	8.559649
_cell_length_b	26.210047
_cell_length_c	8.597304
_cell_angle_alpha	97.695278
_cell_angle_beta	102.375399
_cell_angle_gamma	89.991709
loop_
_atom_site_label
_atom_site_type_symbol
_atom_site_fract_x
_atom_site_fract_y
_atom_site_fract_z
O1	O	-2.119310	0.040092	-0.053165
O2	O	-1.655371	0.043649	0.027733
O3	O	-1.896466	0.031778	-0.242278
O4	O	-1.878214	0.051963	0.216846
O5	O	-1.896420	-0.053078	-0.242235
O6	O	-1.655324	-0.041208	0.027776
O7	O	-2.119263	-0.044764	-0.053122
Cu8	Cu	-1.887289	-0.050734	-0.012669
Cu9	Cu	-1.887345	0.049618	-0.012720
O10	O	-1.878167	-0.032893	0.216889
C11	C	-1.595914	0.001490	0.033885
C12	C	-1.418819	0.002292	0.052134
N13	N	-1.887262	-0.121316	-0.012636
C14	C	-1.994091	-0.479089	-0.132256
C15	C	-1.994126	-0.692749	-0.132282
O16	O	-2.084894	-0.724842	-0.233973
N17	N	-1.887352	-0.714215	-0.012756
C18	C	-1.780556	-0.682264	0.106780
O19	O	-1.689728	-0.705425	0.208434
C20	C	-1.780515	-0.468605	0.106797
C21	C	-1.887306	-0.447141	-0.012727
C22	C	-2.100872	-0.457625	-0.251772
C23	C	-2.100868	-0.404213	-0.251759
C24	C	-1.994083	-0.372265	-0.132230
C25	C	-1.887302	-0.393729	-0.012714
C26	C	-1.673711	-0.436655	0.226325
C27	C	-1.673708	-0.383237	0.226316
C28	C	-1.780499	-0.361773	0.106792
C29	C	-1.780513	-0.308370	0.106827
N30	N	-1.887286	-0.286903	-0.012699
C31	C	-1.994071	-0.318851	-0.132228
C32	C	-1.780587	-0.794438	0.106763
C33	C	-1.780599	-0.847852	0.106761
C34	C	-1.994167	-0.858334	-0.132302
C35	C	-1.994162	-0.804918	-0.132292
C36	C	-1.887360	-0.772971	-0.012763
C37	C	-1.994056	-0.206681	-0.132191
C38	C	-1.994047	-0.153264	-0.132164
C39	C	-1.780474	-0.142787	0.106894
C40	C	-1.780488	-0.196200	0.106872
C41	C	-1.887285	-0.228146	-0.012684
O42	O	-1.689780	-0.276247	0.208455
O43	O	-2.084861	-0.295680	-0.233887
C44	C	-1.994095	-0.532501	-0.132268
C45	C	-1.887313	-0.553965	-0.012753
C46	C	-1.780528	-0.522018	0.106776
C47	C	-1.887325	-0.607380	-0.012755
C48	C	-1.994111	-0.639328	-0.132284
C49	C	-2.100884	-0.617861	-0.251810
C50	C	-2.100880	-0.564449	-0.251797
C51	C	-1.673755	-0.543484	0.226302
C52	C	-1.673769	-0.596897	0.226281
C53	C	-1.780554	-0.628844	0.106752
C54	C	-1.178720	-0.002605	-0.059275
C55	C	-1.355815	-0.003407	-0.077523
C56	C	-1.894481	-0.013209	-0.300490
C57	C	-1.888615	-0.020834	-0.474006
N58	N	-1.887384	0.120200	-0.012768
C59	C	-1.880153	0.012095	0.275101
C60	C	-1.886019	0.019724	0.448617
H61	H	-1.337268	0.007789	0.177109
C62	C	-2.110062	-0.130062	-0.262129
C63	C	-2.203544	-0.169479	-0.366832
C64	C	-2.310413	-0.148127	-0.486584
H65	H	-2.177479	-0.107104	-0.213944
H66	H	-2.051716	-0.111804	-0.320546
H67	H	-2.261886	-0.187728	-0.308423
H68	H	-2.136172	-0.192439	-0.415057
H69	H	-2.252067	-0.129869	-0.545001
H70	H	-2.377818	-0.125170	-0.438384
H71	H	-2.373843	-0.174868	-0.557648
H72	H	-1.888280	0.060284	-0.484882
C73	C	-1.464264	-0.010713	-0.244298
C74	C	-1.370656	-0.015798	-0.360254
C75	C	-1.470514	-0.022521	-0.513905
H76	H	-1.529889	-0.040861	-0.257147
H77	H	-1.529861	0.018331	-0.257029
H78	H	-1.305087	-0.044839	-0.347528
H79	H	-1.305034	0.014346	-0.347457
H80	H	-1.536110	0.006523	-0.526636
H81	H	-1.536134	-0.052669	-0.526738
H82	H	-1.407016	-0.025967	-0.592599
C83	C	-2.109751	-0.241395	-0.262136
C84	C	-2.023325	-0.275820	-0.347890
C85	C	-2.129853	-0.307802	-0.467611
H86	H	-2.177060	-0.260154	-0.213944
H87	H	-2.173317	-0.220977	-0.333394
H88	H	-1.959787	-0.296237	-0.276643
H89	H	-1.956022	-0.257076	-0.396118
H90	H	-2.193419	-0.287383	-0.538869
H91	H	-2.197156	-0.326557	-0.419405
H92	H	-2.071228	-0.331160	-0.525819
C93	C	-2.216869	-0.381015	-0.381729
C94	C	-2.310342	-0.420436	-0.486422
C95	C	-2.417205	-0.399090	-0.606192
H96	H	-2.284292	-0.358055	-0.333560
H97	H	-2.158518	-0.362760	-0.440150
H98	H	-2.368689	-0.438682	-0.428008
H99	H	-2.242963	-0.443398	-0.534631
H100	H	-2.358854	-0.380836	-0.664614
H101	H	-2.484616	-0.376131	-0.558009
H102	H	-2.480629	-0.425834	-0.677249
C103	C	-1.885834	-0.074953	-0.562537
C104	C	-2.023984	-0.102645	-0.557102
C105	C	-2.021464	-0.152501	-0.638623
H106	H	-1.882233	-0.073138	-0.671328
H107	H	-1.794017	-0.091807	-0.512705
H108	H	-2.115776	-0.085796	-0.606939
H109	H	-2.027613	-0.104474	-0.448333
H110	H	-1.929647	-0.169355	-0.588790
H111	H	-2.017859	-0.150681	-0.747408
H112	H	-2.115189	-0.171298	-0.634934
H113	H	-2.187829	-0.483633	-0.349113
C114	C	-2.110166	-0.781718	-0.262254
C115	C	-2.203654	-0.821136	-0.366943
C116	C	-2.310521	-0.799788	-0.486703
H117	H	-2.177578	-0.758757	-0.214075
H118	H	-2.051818	-0.763464	-0.320681
H119	H	-2.261998	-0.839381	-0.308525
H120	H	-2.136285	-0.844100	-0.415162
H121	H	-2.252173	-0.781534	-0.545130
H122	H	-2.377922	-0.776827	-0.438510
H123	H	-2.373955	-0.826530	-0.557757
C124	C	-1.664893	-0.759690	0.236613
C125	C	-1.751334	-0.725249	0.322297
C126	C	-1.644818	-0.693230	0.441921
H127	H	-1.601278	-0.780065	0.307947
H128	H	-1.597629	-0.740949	0.188290
H129	H	-1.818569	-0.743988	0.370619
H130	H	-1.814943	-0.704862	0.251008
H131	H	-1.577555	-0.674489	0.393598
H132	H	-1.581209	-0.713609	0.513243
H133	H	-1.703452	-0.669855	0.500062
C134	C	-1.664405	-0.871131	0.236393
C135	C	-1.507299	-0.858446	0.229749
C136	C	-1.400208	-0.879886	0.349124
H137	H	-1.683135	-0.857892	0.338958
H138	H	-1.679586	-0.907523	0.219290
H139	H	-1.492125	-0.822061	0.246864
H140	H	-1.488518	-0.871686	0.127211
H141	H	-1.415389	-0.916278	0.332022
H142	H	-1.418952	-0.866644	0.451681
H143	H	-1.293600	-0.871286	0.344623
C144	C	-1.557940	-0.348569	0.356331
C145	C	-1.586227	-0.354931	0.507157
C146	C	-1.479633	-0.323000	0.626963
H147	H	-1.451176	-0.357485	0.352299
H148	H	-1.573231	-0.313673	0.339334
H149	H	-1.570922	-0.389820	0.524149
H150	H	-1.692970	-0.346012	0.511241
H151	H	-1.494924	-0.288103	0.609965
H152	H	-1.372876	-0.331918	0.622915
H153	H	-1.498820	-0.327309	0.729310
C154	C	-2.216887	-0.541251	-0.381761
C155	C	-2.310364	-0.580671	-0.486452
C156	C	-2.417235	-0.559326	-0.606215
H157	H	-2.284307	-0.518292	-0.333585
H158	H	-2.158543	-0.522995	-0.440186
H159	H	-2.368703	-0.598919	-0.428035
H160	H	-2.242987	-0.603633	-0.534668
H161	H	-2.358891	-0.541070	-0.664640
H162	H	-2.484644	-0.536367	-0.558024
H163	H	-2.480661	-0.586069	-0.677270
H164	H	-1.586752	-0.454123	0.323651
H165	H	-1.693544	-0.213675	0.204213
H166	H	-1.693535	-0.116767	0.204217
C167	C	-2.216559	-0.652589	-0.381738
C168	C	-2.130090	-0.687011	-0.467451
C169	C	-2.236579	-0.719008	-0.587163
H170	H	-2.283859	-0.671349	-0.333541
H171	H	-2.280137	-0.632181	-0.453022
H172	H	-2.066540	-0.707416	-0.396178
H173	H	-2.062796	-0.668265	-0.515683
H174	H	-2.300157	-0.698600	-0.658447
H175	H	-2.303874	-0.737765	-0.538952
H176	H	-2.177926	-0.742364	-0.645343
H177	H	-1.586810	-0.614367	0.323625
H178	H	-2.081119	-0.884355	-0.229626
H179	H	-1.586796	-0.517476	0.323635
