data_functionalizedCrystal
_audit_creation_method	'MofGen! by Chris Wilmer'
_symmetry_space_group_name_H-M	'P1'
_symmetry_Int_Tables_number	1
_symmetry_cell_setting	triclinic
loop_
_symmetry_equiv_pos_as_xyz
  x,y,z
_cell_length_a	17.052862
_cell_length_b	21.606444
_cell_length_c	17.052892
_cell_angle_alpha	53.477145
_cell_angle_beta	77.972229
_cell_angle_gamma	70.266012
loop_
_atom_site_label
_atom_site_type_symbol
_atom_site_fract_x
_atom_site_fract_y
_atom_site_fract_z
Zr1	Zr	-0.244596	0.619223	0.810984
O2	O	-0.333988	0.727060	0.696621
O3	O	-0.217196	0.496628	0.846044
O4	O	-0.366614	0.590176	0.869110
O5	O	-0.066703	0.661572	0.655359
O6	O	-0.392345	0.584051	1.005170
O7	O	-0.184571	0.633512	0.673555
O8	O	-0.125065	0.416711	0.963910
O9	O	-0.333984	0.828912	0.696619
O10	O	-0.224709	0.547948	0.962535
O11	O	-0.117543	0.573460	0.847415
O12	O	-0.293463	0.683600	0.874572
O13	O	-0.186297	0.709112	0.759452
Zr14	Zr	-0.097650	0.654206	0.998963
Zr15	Zr	-0.285635	0.609455	1.027984
Zr16	Zr	-0.056611	0.663975	0.781963
Zr17	Zr	-0.244590	0.781665	0.810981
Zr18	Zr	-0.097657	0.491765	0.998967
O19	O	-0.125050	0.776802	0.963903
O20	O	-0.392340	0.713170	1.005167
O21	O	-0.066698	0.790691	0.655357
O22	O	-0.008258	0.546370	1.113327
O23	O	-0.275548	0.482738	1.154591
O24	O	0.050094	0.560259	0.804780
O25	O	-0.275543	0.611858	1.154588
O26	O	0.024367	0.683254	0.940838
O27	O	0.050099	0.689379	0.804777
O28	O	-0.157676	0.639917	1.136392
O29	O	-0.366604	0.821147	0.869105
O30	O	0.024358	0.452283	0.940842
O31	O	-0.008263	0.444518	1.113329
O32	O	-0.157685	0.408946	1.136397
O33	O	-0.184561	0.864484	0.673551
O34	O	-0.217182	0.856719	0.846037
O35	O	-0.048783	0.589829	0.935376
O36	O	-0.155950	0.564318	1.050496
O37	O	-0.224703	0.699970	0.962532
O38	O	-0.117537	0.725481	0.847412
C39	C	-0.171131	0.433525	0.904978
C40	C	-0.171134	0.364564	0.904979
C41	C	-0.406263	0.580737	0.941275
C42	C	-0.486068	0.561739	0.953595
C43	C	-0.227075	0.318849	0.965069
C44	C	-0.227069	0.254051	0.965071
C45	C	-0.171127	0.234971	0.904979
C46	C	-0.115181	0.280690	0.844887
C47	C	-0.115182	0.345484	0.844890
C48	C	-0.115171	0.019383	0.844874
C49	C	-0.115175	-0.045415	0.844873
C50	C	-0.227058	-0.072050	0.965055
C51	C	-0.227060	-0.007256	0.965058
C52	C	-0.171111	0.038454	0.904971
C53	C	-0.171116	0.108715	0.904970
C54	C	-0.171125	0.164715	0.904974
C55	C	-0.854579	0.791429	0.804644
C56	C	-0.779600	0.809281	0.793063
C57	C	-0.706213	0.747398	0.833195
C58	C	-0.707813	0.667658	0.884910
C59	C	-0.782799	0.649803	0.896486
C60	C	-0.634433	0.605772	0.925037
C61	C	-0.636033	0.526032	0.976752
C62	C	-0.711013	0.508181	0.988327
C63	C	-0.784399	0.570065	0.948194
C64	C	-0.559447	0.623626	0.913461
C65	C	-0.487667	0.482001	1.005303
C66	C	-0.562647	0.464148	1.016884
C67	C	0.064017	0.692693	0.868673
C68	C	0.143821	0.711691	0.856352
C69	C	-0.119790	0.648934	0.633539
C70	C	-0.102368	0.653081	0.541417
C71	C	-0.171115	0.839905	0.904970
C72	C	-0.171112	0.908866	0.904968
C73	C	-0.313003	0.602943	0.321830
C74	C	-0.329378	0.599051	0.408381
C75	C	-0.272627	0.612558	0.441645
C76	C	-0.199498	0.629958	0.388348
C77	C	-0.183125	0.633857	0.301785
C78	C	-0.142748	0.643471	0.421599
C79	C	-0.069620	0.660872	0.368303
C80	C	-0.053250	0.664769	0.281749
C81	C	-0.110001	0.651262	0.248485
C82	C	-0.159122	0.639573	0.508163
C83	C	-0.029243	0.670486	0.488117
C84	C	-0.012869	0.674378	0.401567
C85	C	-0.222457	0.624496	1.176408
C86	C	-0.239879	0.620349	1.268530
C87	C	-0.222465	0.421306	1.176412
C88	C	-0.239890	0.348198	1.268536
C89	C	0.064009	0.489503	0.868677
C90	C	0.143810	0.439540	0.856358
C91	C	0.012675	0.477284	1.140111
C92	C	0.075055	0.423174	1.219915
C93	C	-0.354922	0.796146	0.669836
C94	C	-0.417301	0.850256	0.590033
C95	C	-0.119782	0.852124	0.633535
C96	C	-0.102357	0.925232	0.541412
C97	C	-0.406255	0.783927	0.941271
C98	C	-0.486057	0.833889	0.953590
C99	C	-0.283972	0.305319	1.265885
C100	C	-0.300361	0.236632	1.352439
C101	C	-0.272661	0.210821	1.441643
C102	C	-0.228577	0.253707	1.444292
C103	C	-0.212194	0.322396	1.357739
C104	C	0.217186	0.424624	0.896486
C105	C	0.292176	0.377690	0.884906
C106	C	0.293787	0.345668	0.833204
C107	C	0.220404	0.360589	0.793070
C108	C	0.145417	0.407527	0.804645
C109	C	0.048407	0.384447	1.317492
C110	C	0.107011	0.333612	1.392485
C111	C	0.192261	0.321501	1.369899
C112	C	0.218909	0.360235	1.272312
C113	C	0.160306	0.411073	1.197321
C114	C	-0.390654	0.888991	0.492456
C115	C	-0.449257	0.939846	0.417463
C116	C	-0.534508	0.951960	0.440048
C117	C	-0.561155	0.913221	0.537635
C118	C	-0.502552	0.862372	0.612627
C119	C	-0.058282	0.968115	0.544064
C120	C	-0.041914	1.036816	0.457513
C121	C	-0.069617	1.062628	0.368309
C122	C	-0.113698	1.019740	0.365660
C123	C	-0.130070	0.951044	0.452211
C124	C	-0.487642	0.865897	1.005298
C125	C	-0.562621	0.912834	1.016892
C126	C	-0.636012	0.927768	0.976770
C127	C	-0.634424	0.895754	0.925060
C128	C	-0.559448	0.848813	0.913473
H129	H	-0.272633	0.334381	1.013998
F130	F	-0.092571	0.655400	0.156369
F131	F	-0.557771	0.814759	0.858428
H132	H	-0.285962	0.609388	0.512119
F133	F	-0.712710	0.423315	1.043353
H134	H	-0.056280	1.118566	0.297841
F135	F	-0.313463	0.332777	1.170957
F136	F	-0.290102	0.137713	1.533753
F137	F	-0.347277	0.190999	1.349599
F138	F	0.188679	0.452283	1.093472
H139	H	0.351918	0.365547	0.917593
F140	F	0.215488	0.458694	0.951519
H141	H	-0.427891	0.853747	1.037972
F142	F	-0.176975	0.905407	0.449373
H143	H	-0.136250	1.040767	0.293019
H144	H	-0.582217	0.993366	0.378976
H145	H	-0.563961	0.399223	1.058990
F146	F	0.309642	0.347339	1.248289
F147	F	0.373602	0.295713	0.820894
F148	F	-0.715803	0.977730	0.989108
F149	F	-0.564292	0.946902	1.071923
F150	F	-0.199099	0.226226	1.539237
H151	H	0.221729	0.334510	0.750974
F152	F	0.067328	0.423392	0.761936
F153	F	-0.530925	0.821146	0.716475
F154	F	-0.286602	-0.120706	1.029010
H155	H	0.085299	0.302078	1.471939
F156	F	0.254623	0.267391	1.449722
F157	F	-0.299927	0.876108	0.468396
F158	F	-0.409566	0.416135	1.048014
F159	F	-0.042320	0.397328	1.341551
F160	F	-0.420880	0.981064	0.313610
H161	H	-0.630572	0.923091	0.556015
H162	H	-0.694190	0.907921	0.892396
H163	H	-0.035715	0.947107	0.616688
F164	F	-0.236948	0.621055	0.564875
H165	H	-0.176294	0.357302	1.359910
H166	H	-0.069617	-0.060946	0.795936
H167	H	-0.272620	0.216829	1.014001
H168	H	-0.006018	1.071725	0.459688
H169	H	-0.388919	0.584885	0.451771
H170	H	0.016967	0.681487	0.515198
H171	H	-0.069611	0.056591	0.795950
F172	F	-0.286605	0.013048	1.029012
H173	H	-0.069628	0.265147	0.795963
H174	H	-0.359206	0.591954	0.294737
H175	H	-0.069632	0.382707	0.795957
H176	H	-0.645163	0.761938	0.823762
F177	F	-0.557753	0.708489	0.858425
H178	H	0.006292	0.678946	0.238348
H179	H	-0.914333	0.841806	0.771969
F180	F	-0.864204	0.551069	0.960519
F181	F	-0.777896	0.894144	0.738001
H182	H	0.046673	0.688546	0.358162
