data_functionalizedCrystal
_audit_creation_method	'MofGen! by Chris Wilmer'
_symmetry_space_group_name_H-M	'P1'
_symmetry_Int_Tables_number	1
_symmetry_cell_setting	triclinic
loop_
_symmetry_equiv_pos_as_xyz
  x,y,z
_cell_length_a	17.077404
_cell_length_b	16.959453
_cell_length_c	16.959447
_cell_angle_alpha	89.968936
_cell_angle_beta	89.984649
_cell_angle_gamma	90.020213
loop_
_atom_site_label
_atom_site_type_symbol
_atom_site_fract_x
_atom_site_fract_y
_atom_site_fract_z
Zn1	Zn	1.200038	-0.314661	-0.446926
Zn2	Zn	1.700038	0.185339	0.053074
Zn3	Zn	1.199962	-0.446854	-0.314746
Zn4	Zn	1.699962	0.053146	0.185254
Zn5	Zn	1.068780	-0.314694	-0.314761
Zn6	Zn	1.568780	0.185306	0.185239
Zn7	Zn	1.068745	-0.446802	-0.446882
Zn8	Zn	1.568745	0.053198	0.053118
O9	O	1.134381	-0.380753	-0.380829
O10	O	1.634381	0.119247	0.119171
O11	O	1.309875	-0.332205	-0.429404
O12	O	1.809875	0.167795	0.070596
O13	O	1.182542	-0.429357	-0.204137
O14	O	1.682542	0.070643	0.295863
O15	O	1.086238	-0.204078	-0.332318
O16	O	1.586238	0.295922	0.167682
O17	O	1.309819	-0.429326	-0.332292
O18	O	1.809819	0.070674	0.167708
O19	O	1.182673	-0.204055	-0.429419
O20	O	1.682673	0.295945	0.070581
O21	O	1.086164	-0.332260	-0.204148
O22	O	1.586164	0.167740	0.295852
O23	O	0.958928	-0.332210	-0.332276
O24	O	1.458928	0.167790	0.167724
O25	O	1.086179	-0.429238	-0.557499
O26	O	1.586179	0.070762	-0.057499
O27	O	0.958902	-0.429270	-0.429344
O28	O	1.458902	0.070730	0.070656
O29	O	1.182639	-0.332155	-0.557531
O30	O	1.682639	0.167845	-0.057531
O31	O	1.182509	-0.557458	-0.332249
O32	O	1.682509	-0.057458	0.167751
O33	O	1.086104	-0.557420	-0.429329
O34	O	1.586104	-0.057420	0.070671
C35	C	0.930433	-0.380738	-0.380807
C36	C	1.430433	0.119262	0.119193
C37	C	0.843183	-0.380751	-0.380817
C38	C	1.343183	0.119249	0.119183
C39	C	0.802200	-0.431366	-0.431279
C40	C	1.302200	0.068634	0.068721
C41	C	0.720220	-0.431368	-0.431292
C42	C	1.220220	0.068632	0.068708
C43	C	0.679224	-0.380758	-0.380837
C44	C	1.179224	0.119242	0.119163
C45	C	0.720213	-0.330137	-0.330373
C46	C	1.220213	0.169863	0.169627
C47	C	0.802192	-0.330132	-0.330365
C48	C	1.302192	0.169868	0.169635
C49	C	0.549343	-0.330153	-0.330392
C50	C	1.049343	0.169847	0.169608
C51	C	0.467358	-0.330159	-0.330398
C52	C	0.967358	0.169841	0.169602
C53	C	0.467371	-0.431389	-0.431319
C54	C	0.967371	0.068611	0.068681
C55	C	0.549350	-0.431384	-0.431311
C56	C	1.049350	0.068616	0.068689
C57	C	0.590333	-0.380764	-0.380845
C58	C	1.090333	0.119236	0.119155
C59	C	1.134316	-0.586119	-0.380800
C60	C	1.634316	-0.086119	0.119200
C61	C	1.134359	-0.673976	-0.380814
C62	C	1.634359	-0.173976	0.119186
C63	C	1.184659	-1.045380	-0.431485
C64	C	1.684659	-0.545380	0.068515
C65	C	1.084322	-1.045522	-0.330291
C66	C	1.584322	-0.545522	0.169709
C67	C	1.084293	-0.962976	-0.330272
C68	C	1.584293	-0.462976	0.169728
C69	C	1.134447	-0.921628	-0.380862
C70	C	1.634447	-0.421628	0.119138
C71	C	1.184630	-0.962827	-0.431470
C72	C	1.684630	-0.462827	0.068530
C73	C	1.034105	-0.921772	-0.279671
C74	C	1.534105	-0.421772	0.220329
C75	C	1.034074	-0.839221	-0.279652
C76	C	1.534074	-0.339221	0.220348
C77	C	1.084232	-0.797872	-0.330238
C78	C	1.584232	-0.297872	0.169762
C79	C	1.134418	-0.839075	-0.380847
C80	C	1.634418	-0.339075	0.119153
C81	C	1.184572	-0.797727	-0.431437
C82	C	1.684572	-0.297727	0.068563
C83	C	1.234762	-0.838929	-0.482043
C84	C	1.734762	-0.338929	0.017957
C85	C	1.234788	-0.921478	-0.482056
C86	C	1.734788	-0.421478	0.017944
C87	C	1.084206	-0.715323	-0.330224
C88	C	1.584206	-0.215323	0.169776
C89	C	1.184542	-0.715174	-0.431422
C90	C	1.684542	-0.215174	0.068578
C91	C	1.339125	-0.380768	-0.380851
C92	C	1.839125	0.119232	0.119149
C93	C	1.426375	-0.380774	-0.380861
C94	C	1.926375	0.119226	0.119139
C95	C	1.134414	-0.380687	-0.586997
C96	C	1.634414	0.119313	-0.086997
C97	C	1.134428	-0.380659	-0.674854
C98	C	1.634428	0.119341	-0.174854
C99	C	1.134468	-0.174584	-0.380875
C100	C	1.634468	0.325416	0.119125
C101	C	1.134505	-0.086728	-0.380895
C102	C	1.634505	0.413272	0.119105
C103	C	1.084299	-0.431123	-1.046315
C104	C	1.584299	0.068877	-0.546315
C105	C	1.184744	-0.330029	-1.046344
C106	C	1.684744	0.169971	-0.546344
C107	C	1.184723	-0.330046	-0.963798
C108	C	1.684723	0.169954	-0.463798
C109	C	1.134490	-0.380603	-0.922507
C110	C	1.634490	0.119397	-0.422507
C111	C	1.084278	-0.431143	-0.963762
C112	C	1.584278	0.068857	-0.463762
C113	C	1.234940	-0.279512	-0.922537
C114	C	1.734940	0.220488	-0.422537
C115	C	1.234922	-0.279528	-0.839986
C116	C	1.734922	0.220472	-0.339986
C117	C	1.184684	-0.330081	-0.798694
C118	C	1.684684	0.169919	-0.298694
C119	C	1.134469	-0.380623	-0.839954
C120	C	1.634469	0.119377	-0.339954
C121	C	1.084236	-0.431179	-0.798662
C122	C	1.584236	0.068821	-0.298662
C123	C	1.034017	-0.481718	-0.839921
C124	C	1.534017	0.018282	-0.339921
C125	C	1.034040	-0.481696	-0.922469
C126	C	1.534040	0.018304	-0.422469
C127	C	1.184661	-0.330103	-0.716145
C128	C	1.684661	0.169897	-0.216145
C129	C	1.084215	-0.431199	-0.716109
C130	C	1.584215	0.068801	-0.216109
C131	C	1.134394	-0.380761	-0.175463
C132	C	1.634394	0.119239	0.324537
C133	C	1.134532	-0.380566	-0.087607
C134	C	1.634532	0.119434	0.412393
H135	H	0.582708	-0.288926	-0.289304
H136	H	1.082708	0.211074	0.210696
H137	H	0.993271	-0.955443	-0.238486
H138	H	1.493271	-0.455443	0.261514
Cl139	Cl	0.668675	-0.266507	-0.266949
Cl140	Cl	1.168675	0.233493	0.233051
Cl141	Cl	0.415850	-0.495014	-0.494773
Cl142	Cl	0.915850	0.004986	0.005227
H143	H	1.225387	-0.681513	-0.472616
H144	H	1.725387	-0.181513	0.027384
H145	H	0.433981	-0.288938	-0.289323
H146	H	0.933981	0.211062	0.210677
H147	H	0.582727	-0.472599	-0.472391
H148	H	1.082727	0.027401	0.027609
H149	H	1.275842	-0.238357	-0.956163
H150	H	1.775842	0.261643	-0.456163
Cl151	Cl	1.247754	-1.097174	-0.495098
Cl152	Cl	1.747754	-0.597174	0.004902
Cl153	Cl	1.298051	-0.215993	-0.788126
Cl154	Cl	1.798051	0.284007	-0.288126
H155	H	1.225551	-0.288957	-0.682556
H156	H	1.725551	0.211043	-0.182556
H157	H	0.993207	-0.805679	-0.238445
H158	H	1.493207	-0.305679	0.261555
H159	H	1.275650	-0.955031	-0.523258
H160	H	1.775650	-0.455031	-0.023258
H161	H	0.835574	-0.472582	-0.472363
H162	H	1.335574	0.027418	0.027637
H163	H	0.686855	-0.472585	-0.472383
H164	H	1.186855	0.027415	0.027617
Cl165	Cl	0.970873	-0.545276	-0.788002
Cl166	Cl	1.470873	-0.045276	-0.288002
Cl167	Cl	0.853713	-0.266497	-0.266925
Cl168	Cl	1.353713	0.233503	0.233075
H169	H	1.225646	-0.288873	-1.079968
H170	H	1.725646	0.211127	-0.579968
Cl171	Cl	1.297802	-0.786940	-0.545646
Cl172	Cl	1.797802	-0.286940	-0.045646
H173	H	1.043486	-1.079192	-0.289106
H174	H	1.543486	-0.579192	0.210894
H175	H	1.043409	-0.472267	-1.079912
H176	H	1.543409	0.027733	-0.579912
H177	H	1.043338	-0.681780	-0.289025
H178	H	1.543338	-0.181780	0.210975
H179	H	1.043302	-0.472362	-0.682495
H180	H	1.543302	0.027638	-0.182495
H181	H	0.993157	-0.522844	-0.956069
H182	H	1.493157	-0.022844	-0.456069
