data_functionalizedCrystal
_audit_creation_method	'MofGen! by Chris Wilmer'
_symmetry_space_group_name_H-M	'P1'
_symmetry_Int_Tables_number	1
_symmetry_cell_setting	triclinic
loop_
_symmetry_equiv_pos_as_xyz
  x,y,z
_cell_length_a	13.635800
_cell_length_b	19.453103
_cell_length_c	19.453162
_cell_angle_alpha	83.681636
_cell_angle_beta	78.289742
_cell_angle_gamma	101.709178
loop_
_atom_site_label
_atom_site_type_symbol
_atom_site_fract_x
_atom_site_fract_y
_atom_site_fract_z
V1	V	-1.999007	-0.097923	0.219330
O2	O	-1.997557	0.003944	0.214818
O3	O	-1.970517	-0.193431	0.218153
O4	O	-1.970521	-0.096750	0.314839
O5	O	-1.997553	-0.093406	0.117462
V6	V	-2.241932	-0.085699	0.207106
O7	O	-2.127083	-0.124737	0.246142
O8	O	-2.338954	-0.058885	0.180293
O9	O	-2.158819	0.009810	0.208283
O10	O	-2.302080	-0.187565	0.211617
O11	O	-2.302085	-0.090215	0.308973
O12	O	-2.158815	-0.086871	0.111596
V13	V	-1.499007	-0.097923	0.219330
O14	O	-1.497557	0.003944	0.214818
O15	O	-1.470517	-0.193431	0.218153
O16	O	-1.470521	-0.096750	0.314839
O17	O	-1.497553	-0.093406	0.117462
V18	V	-1.741932	-0.085699	0.207106
O19	O	-1.627083	-0.124737	0.246142
O20	O	-1.838954	-0.058885	0.180293
O21	O	-1.658819	0.009810	0.208283
O22	O	-1.802080	-0.187565	0.211617
O23	O	-1.802085	-0.090215	0.308973
O24	O	-1.658815	-0.086871	0.111596
C25	C	-1.892112	-0.216704	0.214776
C26	C	-1.909433	-0.294786	0.214450
C27	C	-2.008299	-0.335053	0.217810
C28	C	-2.024576	-0.408420	0.217511
C29	C	-1.941976	-0.441515	0.213838
C30	C	-1.843097	-0.401240	0.210482
C31	C	-1.826825	-0.327875	0.210788
N32	N	-1.889535	-0.547634	0.170552
N33	N	-1.904998	-0.617327	0.170260
C34	C	-1.990998	-0.662559	0.212917
N35	N	-2.060962	-0.635465	0.255869
N36	N	-2.045500	-0.565764	0.256158
C37	C	-1.959611	-0.521067	0.213506
C38	C	-2.107520	-0.782380	0.215954
C39	C	-2.123794	-0.855749	0.215660
C40	C	-1.942310	-0.848567	0.208624
C41	C	-1.926041	-0.775200	0.208926
C42	C	-2.008648	-0.742111	0.212587
C43	C	-1.892117	-0.093377	0.338109
C44	C	-1.909440	-0.093051	0.416190
C45	C	-2.068895	0.033079	0.211658
C46	C	-2.041193	0.111160	0.211988
C47	C	-2.068890	-0.090246	0.088323
C48	C	-2.041186	-0.090569	0.010241
C49	C	-1.392112	-0.216704	0.214776
C50	C	-1.409433	-0.294786	0.214450
C51	C	-2.123784	-0.094231	0.977154
C52	C	-2.107517	-0.094543	0.903789
C53	C	-2.008645	-0.091178	0.863511
C54	C	-1.926038	-0.087520	0.896607
C55	C	-1.942309	-0.087215	0.969972
N56	N	-1.905107	-0.048853	0.739249
N57	N	-1.889656	-0.049141	0.669556
C58	C	-1.959616	-0.092097	0.642466
N59	N	-2.045624	-0.134746	0.687703
N60	N	-2.061078	-0.134455	0.757402
C61	C	-1.990991	-0.091508	0.783959
C62	C	-2.024581	-0.096098	0.529829
C63	C	-2.008312	-0.096414	0.456463
C64	C	-1.826829	-0.089384	0.449281
C65	C	-1.843103	-0.089075	0.522647
C66	C	-1.941980	-0.092429	0.562916
C67	C	-1.517292	-0.841961	0.147847
C68	C	-1.501009	-0.768593	0.148145
C69	C	-1.508674	-0.742113	0.212614
C70	C	-1.532599	-0.789006	0.276788
C71	C	-1.548872	-0.862372	0.276487
N72	N	-1.551647	-0.636827	0.263573
N73	N	-1.536189	-0.567132	0.263855
C74	C	-1.459643	-0.521067	0.213525
N75	N	-1.399149	-0.547329	0.162893
N76	N	-1.414612	-0.617030	0.162610
C77	C	-1.491030	-0.662562	0.212948
C78	C	-1.418058	-0.394630	0.149679
C79	C	-1.401768	-0.321261	0.149981
C80	C	-1.433369	-0.341676	0.278626
C81	C	-1.449648	-0.415043	0.278322
C82	C	-1.441995	-0.441515	0.213847
C83	C	-1.392117	-0.093377	0.338109
C84	C	-1.409440	-0.093051	0.416190
C85	C	-1.568895	0.033079	0.211658
C86	C	-1.541193	0.111160	0.211988
C87	C	-1.568890	-0.090246	0.088323
C88	C	-1.541186	-0.090569	0.010241
C89	C	-1.508318	-0.096412	0.456450
C90	C	-1.524606	-0.096096	0.529816
C91	C	-1.442017	-0.092424	0.562920
C92	C	-1.343131	-0.089061	0.522654
C93	C	-1.326842	-0.089372	0.449290
C94	C	-1.441545	-0.094233	-0.022846
C95	C	-1.415497	-0.094528	-0.096213
C96	C	-1.489095	-0.091164	-0.136492
C97	C	-1.588744	-0.087498	-0.103401
C98	C	-1.614788	-0.087198	-0.030036
H99	H	-2.105088	-0.441212	0.220246
C100	C	-1.718068	-0.283576	0.207087
H101	H	-1.720208	-0.235144	0.207798
H102	H	-1.672742	-0.287570	0.164421
H103	H	-1.694163	-0.300678	0.246771
C104	C	-1.718076	-0.085694	0.404986
H105	H	-1.720214	-0.086399	0.356553
H106	H	-1.694179	-0.125374	0.422095
H107	H	-1.672742	-0.043024	0.408973
H108	H	-2.174779	-0.097526	0.876844
H109	H	-1.275892	-0.086072	0.549619
H110	H	-1.568354	-0.900546	0.328740
H111	H	-1.775845	-0.428191	0.207494
C112	C	-1.851449	-0.884961	0.204576
H113	H	-1.875296	-0.934422	0.204869
H114	H	-1.822198	-0.878019	0.244350
H115	H	-1.800798	-0.864904	0.162001
H116	H	-2.204295	-0.096963	1.009937
C117	C	-1.752247	-0.085038	0.559046
H118	H	-1.776098	-0.085344	0.608509
H119	H	-1.701587	-0.042472	0.538992
H120	H	-1.723011	-0.124822	0.552104
H121	H	-2.174784	-0.755437	0.218935
C122	C	-1.441799	-0.312560	0.349542
H123	H	-1.458377	-0.350994	0.387715
H124	H	-1.494259	-0.286726	0.355012
H125	H	-1.377943	-0.282003	0.349656
H126	H	-1.467878	-0.091418	-0.196229
H127	H	-1.481519	-0.730413	0.095892
C128	C	-1.218076	-0.085686	0.405013
H129	H	-1.171231	-0.083463	0.435243
H130	H	-1.197226	-0.044492	0.369682
H131	H	-1.218664	-0.126842	0.382810
H132	H	-1.511057	-0.863509	0.095346
H133	H	-1.381604	-0.096972	0.009941
H134	H	-1.334354	-0.097513	-0.123145
C135	C	-1.817282	-0.083818	0.852304
H136	H	-1.819419	-0.084517	0.803870
H137	H	-1.793376	-0.123497	0.869406
H138	H	-1.771957	-0.041147	0.856297
H139	H	-1.875045	-0.084233	0.996910
C140	C	-2.232553	-0.900043	0.219354
H141	H	-2.279413	-0.869825	0.221571
H142	H	-2.253389	-0.935367	0.260554
H143	H	-2.231954	-0.922255	0.178203
H144	H	-1.648660	-0.084757	-0.136208
H145	H	-1.695929	-0.084219	-0.003102
H146	H	-2.075568	-0.308117	0.220796
H147	H	-1.845532	-0.742413	0.206185
H148	H	-2.105095	-0.098837	0.562619
H149	H	-2.075578	-0.099401	0.429526
H150	H	-1.469137	-0.453217	0.330573
C151	C	-1.541020	-0.759881	0.347702
H152	H	-1.527908	-0.709472	0.338692
H153	H	-1.492019	-0.773734	0.371399
H154	H	-1.608337	-0.778462	0.376761
H155	H	-1.411820	-0.416184	0.097180
H156	H	-1.382280	-0.283088	0.097727
H157	H	-1.575579	-0.099403	0.429507
H158	H	-1.605131	-0.098837	0.562591
C159	C	-1.459948	-0.092090	0.643621
H160	H	-1.530671	-0.094625	0.662854
H161	H	-1.419419	-0.049552	0.652348
H162	H	-1.440838	-0.131902	0.665453
