data_functionalizedCrystal
_audit_creation_method	'MofGen! by Chris Wilmer'
_symmetry_space_group_name_H-M	'P1'
_symmetry_Int_Tables_number	1
_symmetry_cell_setting	triclinic
loop_
_symmetry_equiv_pos_as_xyz
  x,y,z
_cell_length_a	16.109301
_cell_length_b	10.654550
_cell_length_c	9.730223
_cell_angle_alpha	90.000043
_cell_angle_beta	89.994178
_cell_angle_gamma	96.026794
loop_
_atom_site_label
_atom_site_type_symbol
_atom_site_fract_x
_atom_site_fract_y
_atom_site_fract_z
O1	O	0.116774	-1.666255	-0.114192
O2	O	0.127899	-1.300625	-0.114218
O3	O	0.001365	-1.493484	-0.114190
O4	O	0.243308	-1.473396	-0.114220
O5	O	0.001362	-1.493472	0.114390
O6	O	0.127896	-1.300613	0.114362
O7	O	0.116770	-1.666243	0.114388
Zn8	Zn	0.122333	-1.483426	0.150667
Zn9	Zn	0.122337	-1.483442	-0.150497
O10	O	0.243304	-1.473384	0.114360
C11	C	0.127081	-1.253832	0.000069
C12	C	0.124637	-1.114422	0.000060
C13	C	-0.029616	-1.492664	0.000100
C14	C	-0.121926	-1.490225	0.000102
C15	C	-0.343552	-1.598991	0.000088
C16	C	-0.430286	-1.596689	0.000076
C17	C	-0.411772	-1.367868	0.000066
C18	C	-0.325039	-1.370172	0.000067
C19	C	-0.290932	-1.485737	0.000085
C20	C	-0.464398	-1.481131	0.000072
C21	C	-0.558439	-1.478634	0.000060
C22	C	-0.196885	-1.488234	0.000095
C23	C	0.117589	-1.713036	0.000098
C24	C	0.120033	-1.852446	0.000098
C25	C	0.274286	-1.474203	0.000067
C26	C	0.366596	-1.476643	0.000056
N27	N	0.122329	-1.483424	0.356203
C28	C	0.199138	-1.033926	0.000054
C29	C	0.196836	-0.902936	0.000079
C30	C	0.045526	-0.932952	0.000107
C31	C	0.047828	-1.063939	0.000093
N32	N	0.122334	-1.483454	-0.356033
C33	C	0.066324	-1.568851	0.428141
C34	C	0.066324	-1.568863	0.572024
C35	C	0.178342	-1.398018	0.572018
C36	C	0.178337	-1.398001	0.428138
H37	H	-0.315784	-1.693091	0.000100
C38	C	0.283621	-1.089460	0.000029
H39	H	0.274324	-1.179001	0.000008
H40	H	0.314329	-1.061835	0.079736
H41	H	0.314326	-1.061818	-0.079695
C42	C	0.278788	-0.814396	0.000063
H43	H	0.324858	-0.863226	0.000031
H44	H	0.281041	-0.762680	0.079779
H45	H	0.281031	-0.762668	-0.079653
H46	H	0.223944	-1.328470	0.630602
C47	C	-0.488164	-1.721269	0.000088
H48	H	-0.455426	-1.790419	0.000109
H49	H	-0.522378	-1.725136	-0.079624
H50	H	-0.522388	-1.725120	0.079808
H51	H	-0.017009	-0.891833	0.000143
H52	H	0.223944	-1.328430	0.369562
C53	C	-0.034127	-1.152491	0.000093
H54	H	-0.080201	-1.103667	0.000094
H55	H	-0.036373	-1.204222	0.079797
H56	H	-0.036370	-1.204203	-0.079635
H57	H	0.020717	-1.638406	0.369575
H58	H	-0.439553	-1.273779	0.000054
C59	C	0.004719	-1.662830	0.651157
H60	H	0.012735	-1.650600	0.747150
H61	H	0.014265	-1.746631	0.627566
H62	H	-0.050856	-1.649210	0.627588
C63	C	-0.267154	-1.245586	0.000069
H64	H	-0.299888	-1.176430	0.000078
H65	H	-0.232929	-1.241732	-0.079641
H66	H	-0.232942	-1.241732	0.079791
