data_functionalizedCrystal
_audit_creation_method	'MofGen! by Chris Wilmer'
_symmetry_space_group_name_H-M	'P1'
_symmetry_Int_Tables_number	1
_symmetry_cell_setting	triclinic
loop_
_symmetry_equiv_pos_as_xyz
  x,y,z
_cell_length_a	17.077404
_cell_length_b	16.959454
_cell_length_c	17.077396
_cell_angle_alpha	90.024735
_cell_angle_beta	90.019501
_cell_angle_gamma	90.020300
loop_
_atom_site_label
_atom_site_type_symbol
_atom_site_fract_x
_atom_site_fract_y
_atom_site_fract_z
Zn1	Zn	1.200070	-0.314677	0.443863
Zn2	Zn	1.533403	0.018657	0.777196
Zn3	Zn	1.866737	0.351990	1.110530
Zn4	Zn	1.199983	-0.446865	0.312606
Zn5	Zn	1.533317	-0.113531	0.645939
Zn6	Zn	1.866650	0.219802	0.979272
Zn7	Zn	1.068802	-0.314705	0.312611
Zn8	Zn	1.402135	0.018629	0.645944
Zn9	Zn	1.735468	0.351962	0.979278
Zn10	Zn	1.068776	-0.446818	0.443829
Zn11	Zn	1.402110	-0.113484	0.777163
Zn12	Zn	1.735443	0.219849	1.110496
O13	O	1.134408	-0.380766	0.378227
O14	O	1.467741	-0.047433	0.711561
O15	O	1.801075	0.285901	1.044894
O16	O	1.309905	-0.332220	0.426463
O17	O	1.643239	0.001114	0.759797
O18	O	1.976572	0.334447	1.093130
O19	O	1.182556	-0.429365	0.202759
O20	O	1.515890	-0.096031	0.536093
O21	O	1.849223	0.237302	0.869426
O22	O	1.086262	-0.204090	0.330038
O23	O	1.419595	0.129243	0.663372
O24	O	1.752928	0.462577	0.996705
O25	O	1.309842	-0.429338	0.330029
O26	O	1.643175	-0.096004	0.663363
O27	O	1.976509	0.237329	0.996696
O28	O	1.182704	-0.204070	0.426469
O29	O	1.516037	0.129264	0.759802
O30	O	1.849371	0.462597	1.093135
O31	O	1.086178	-0.332267	0.202763
O32	O	1.419511	0.001066	0.536097
O33	O	1.752844	0.334400	0.869430
O34	O	0.958951	-0.332222	0.330006
O35	O	1.292285	0.001112	0.663339
O36	O	1.625618	0.334445	0.996672
O37	O	1.086218	-0.429258	0.553681
O38	O	1.419551	-0.095924	0.887014
O39	O	1.752885	0.237409	1.220347
O40	O	0.958933	-0.429285	0.426411
O41	O	1.292266	-0.095951	0.759744
O42	O	1.625599	0.237382	1.093078
O43	O	1.182679	-0.332174	0.553706
O44	O	1.516012	0.001159	0.887039
O45	O	1.849346	0.334492	1.220372
O46	O	1.182532	-0.557469	0.329996
O47	O	1.515865	-0.224136	0.663330
O48	O	1.849198	0.109197	0.996663
O49	O	1.086134	-0.557435	0.426406
O50	O	1.419468	-0.224101	0.759739
O51	O	1.752801	0.109232	1.093072
C52	C	0.930460	-0.380752	0.378206
C53	C	1.263793	-0.047418	0.711539
C54	C	1.597127	0.285915	1.044872
C55	C	0.843210	-0.380764	0.378215
C56	C	1.176544	-0.047431	0.711548
C57	C	1.509877	0.285902	1.044882
C58	C	1.134342	-0.586132	0.378214
C59	C	1.467675	-0.252799	0.711547
C60	C	1.801009	0.080534	1.044881
C61	C	1.134386	-0.673989	0.378235
C62	C	1.467719	-0.340655	0.711568
C63	C	1.801052	-0.007322	1.044901
C64	C	0.802231	-0.431381	0.428333
C65	C	1.135564	-0.098048	0.761666
C66	C	1.468897	0.235285	1.094999
C67	C	0.720250	-0.431383	0.428345
C68	C	1.053584	-0.098050	0.761679
C69	C	1.386917	0.235284	1.095012
C70	C	0.679251	-0.380771	0.378236
C71	C	1.012584	-0.047438	0.711569
C72	C	1.345917	0.285895	1.044902
C73	C	0.720236	-0.330149	0.328116
C74	C	1.053569	0.003185	0.661449
C75	C	1.386903	0.336518	0.994782
C76	C	0.802215	-0.330144	0.328108
C77	C	1.135548	0.003190	0.661441
C78	C	1.468882	0.336523	0.994774
C79	C	0.549366	-0.330164	0.328134
C80	C	0.882699	0.003169	0.661468
C81	C	1.216033	0.336502	0.994801
C82	C	0.467381	-0.330170	0.328141
C83	C	0.800715	0.003163	0.661475
C84	C	1.134048	0.336496	0.994808
C85	C	0.467401	-0.431404	0.428372
C86	C	0.800735	-0.098070	0.761706
C87	C	1.134068	0.235263	1.095039
C88	C	0.549380	-0.431399	0.428364
C89	C	0.882714	-0.098065	0.761698
C90	C	1.216047	0.235268	1.095031
C91	C	0.590360	-0.380777	0.378243
C92	C	0.923693	-0.047444	0.711576
C93	C	1.257026	0.285890	1.044910
C94	C	1.084287	-1.045476	0.428422
C95	C	1.417620	-0.712143	0.761756
C96	C	1.750953	-0.378810	1.095089
C97	C	1.184748	-1.045452	0.328112
C98	C	1.518081	-0.712119	0.661446
C99	C	1.851414	-0.378786	0.994779
C100	C	1.184720	-0.962906	0.328105
C101	C	1.518054	-0.629573	0.661438
C102	C	1.851387	-0.296240	0.994772
C103	C	1.134474	-0.921642	0.378256
C104	C	1.467808	-0.588308	0.711590
C105	C	1.801141	-0.254975	1.044923
C106	C	1.084256	-0.962923	0.428415
C107	C	1.417589	-0.629589	0.761748
C108	C	1.750923	-0.296256	1.095082
C109	C	1.234932	-0.921619	0.277942
C110	C	1.568266	-0.588286	0.611275
C111	C	1.901599	-0.254952	0.944608
C112	C	1.234906	-0.839068	0.277932
C113	C	1.568240	-0.505735	0.611265
C114	C	1.901573	-0.172401	0.944599
C115	C	1.184664	-0.797802	0.328088
C116	C	1.517997	-0.464469	0.661421
C117	C	1.851330	-0.131135	0.994755
C118	C	1.134444	-0.839088	0.378249
C119	C	1.467777	-0.505755	0.711582
C120	C	1.801110	-0.172421	1.044916
C121	C	1.084198	-0.797823	0.428400
C122	C	1.417531	-0.464490	0.761734
C123	C	1.750865	-0.131157	1.095067
C124	C	1.033981	-0.839108	0.478566
C125	C	1.367315	-0.505775	0.811900
C126	C	1.700648	-0.172441	1.145233
C127	C	1.034013	-0.921657	0.478571
C128	C	1.367347	-0.588323	0.811904
C129	C	1.700680	-0.254990	1.145238
C130	C	1.184632	-0.715254	0.328083
C131	C	1.517965	-0.381920	0.661416
C132	C	1.851298	-0.048587	0.994750
C133	C	1.084167	-0.715270	0.428393
C134	C	1.417501	-0.381937	0.761726
C135	C	1.750834	-0.048603	1.095060
C136	C	1.339152	-0.380781	0.378250
C137	C	1.672485	-0.047448	0.711583
C138	C	2.005819	0.285886	1.044916
C139	C	1.426402	-0.380787	0.378259
C140	C	1.759735	-0.047454	0.711592
C141	C	2.093069	0.285879	1.044926
C142	C	1.134455	-0.380708	0.582972
C143	C	1.467789	-0.047374	0.916305
C144	C	1.801122	0.285959	1.249638
C145	C	1.134476	-0.380683	0.670222
C146	C	1.467809	-0.047350	1.003555
C147	C	1.801142	0.285984	1.336888
C148	C	1.134495	-0.174598	0.378258
C149	C	1.467829	0.158736	0.711591
C150	C	1.801162	0.492069	1.044925
C151	C	1.134533	-0.086741	0.378271
C152	C	1.467866	0.246592	0.711604
C153	C	1.801199	0.579926	1.044938
C154	C	1.134406	-0.380767	0.174279
C155	C	1.467739	-0.047434	0.507613
C156	C	1.801072	0.285900	0.840946
C157	C	1.134538	-0.380569	0.087030
C158	C	1.467871	-0.047236	0.420363
C159	C	1.801204	0.286098	0.753697
C160	C	1.184705	-0.330127	0.711226
C161	C	1.518038	0.003206	1.044559
C162	C	1.851371	0.336539	1.377893
C163	C	1.184714	-0.330101	0.793206
C164	C	1.518047	0.003232	1.126540
C165	C	1.851381	0.336566	1.459873
C166	C	1.134498	-0.380635	0.834181
C167	C	1.467831	-0.047301	1.167514
C168	C	1.801165	0.286032	1.500848
C169	C	1.084263	-0.431193	0.793171
C170	C	1.417597	-0.097859	1.126504
C171	C	1.750930	0.235474	1.459838
C172	C	1.084250	-0.431214	0.711192
C173	C	1.417584	-0.097881	1.044525
C174	C	1.750917	0.235452	1.377859
C175	C	1.084295	-0.431145	0.964041
C176	C	1.417628	-0.097812	1.297374
C177	C	1.750962	0.235522	1.630708
C178	C	1.084309	-0.431125	1.046026
C179	C	1.417642	-0.097791	1.379359
C180	C	1.750975	0.235542	1.712692
C181	C	1.184759	-0.330032	1.046056
C182	C	1.518092	0.003302	1.379389
C183	C	1.851425	0.336635	1.712722
C184	C	1.184746	-0.330053	0.964077
C185	C	1.518079	0.003280	1.297410
C186	C	1.851412	0.336613	1.630743
C187	C	1.134512	-0.380613	0.923072
C188	C	1.467845	-0.047279	1.256405
C189	C	1.801179	0.286054	1.589739
H190	H	0.835607	-0.472598	0.469136
H191	H	1.168940	-0.139265	0.802469
H192	H	1.502273	0.194068	1.135802
H193	H	0.434032	-0.472620	0.469185
H194	H	0.767365	-0.139286	0.802518
H195	H	1.100699	0.194047	1.135852
F196	F	0.845828	-0.276269	0.274767
F197	F	1.179161	0.057065	0.608100
F198	F	1.512494	0.390398	0.941434
H199	H	1.275796	-0.805459	0.237085
H200	H	1.609129	-0.472126	0.570419
H201	H	1.942462	-0.138793	0.903752
F202	F	1.030691	-0.671359	0.481776
F203	F	1.364025	-0.338026	0.815110
F204	F	1.697358	-0.004693	1.148443
H205	H	0.993129	-0.955278	0.519412
H206	H	1.326462	-0.621945	0.852746
H207	H	1.659796	-0.288611	1.186079
F208	F	1.238202	-0.276320	0.836843
F209	F	1.571535	0.057013	1.170176
F210	F	1.904868	0.390347	1.503509
H211	H	0.993067	-0.805501	0.519396
H212	H	1.326400	-0.472168	0.852730
H213	H	1.659734	-0.138834	1.186063
H214	H	0.582760	-0.472616	0.469164
H215	H	0.916093	-0.139282	0.802497
H216	H	1.249427	0.194051	1.135830
F217	F	0.423748	-0.276307	0.274806
F218	F	0.757081	0.057027	0.608139
F219	F	1.090415	0.390360	0.941472
H220	H	0.582729	-0.288936	0.287327
H221	H	0.916062	0.044398	0.620661
H222	H	1.249396	0.377731	0.953994
H223	H	1.043404	-1.079094	0.469268
H224	H	1.376737	-0.745761	0.802602
H225	H	1.710070	-0.412427	1.135935
H226	H	0.686848	-0.288936	0.287319
H227	H	1.020181	0.044397	0.620652
H228	H	1.353514	0.377730	0.953985
H229	H	1.225651	-1.079055	0.287277
H230	H	1.558984	-0.745722	0.620610
H231	H	1.892318	-0.412388	0.953943
F232	F	1.288407	-0.965540	0.224574
F233	F	1.621740	-0.632206	0.557907
F234	F	1.955073	-0.298873	0.891241
F235	F	1.238064	-0.671319	0.274690
F236	F	1.571398	-0.337986	0.608023
F237	F	1.904731	-0.004652	0.941356
H238	H	1.225641	-0.288909	0.930717
H239	H	1.558974	0.044424	1.264051
H240	H	1.892307	0.377758	1.597384
F241	F	1.238157	-0.276345	0.667625
F242	F	1.571490	0.056988	1.000958
F243	F	1.904823	0.390321	1.334292
H244	H	1.225659	-0.288863	1.079445
H245	H	1.558993	0.044470	1.412779
H246	H	1.892326	0.377803	1.746112
H247	H	1.043373	-0.472335	0.826539
H248	H	1.376707	-0.139002	1.159872
H249	H	1.710040	0.194332	1.493206
H250	H	1.043416	-0.472272	1.079385
H251	H	1.376750	-0.138939	1.412718
H252	H	1.710083	0.194395	1.746052
F253	F	1.030828	-0.484954	0.920403
F254	F	1.364162	-0.151621	1.253736
F255	F	1.697495	0.181712	1.587070
F256	F	1.030788	-0.485020	0.667552
F257	F	1.364121	-0.151687	1.000886
F258	F	1.697455	0.181646	1.334219
H259	H	0.686889	-0.472601	0.469156
H260	H	1.020222	-0.139268	0.802489
H261	H	1.353555	0.194065	1.135822
