data_functionalizedCrystal
_audit_creation_method	'MofGen! by Chris Wilmer'
_symmetry_space_group_name_H-M	'P1'
_symmetry_Int_Tables_number	1
_symmetry_cell_setting	triclinic
loop_
_symmetry_equiv_pos_as_xyz
  x,y,z
_cell_length_a	25.639243
_cell_length_b	25.639239
_cell_length_c	13.033109
_cell_angle_alpha	97.152107
_cell_angle_beta	82.794015
_cell_angle_gamma	90.041410
loop_
_atom_site_label
_atom_site_type_symbol
_atom_site_fract_x
_atom_site_fract_y
_atom_site_fract_z
Zn1	Zn	0.836794	-0.245645	-0.590921
Zn2	Zn	0.825607	-0.321983	-0.416165
Zn3	Zn	0.738261	-0.234568	-0.416183
Zn4	Zn	0.749311	-0.333050	-0.590848
O5	O	0.787494	-0.283812	-0.503529
O6	O	0.908477	-0.255775	-0.567761
O7	O	0.804714	-0.301120	-0.269934
O8	O	0.751389	-0.162875	-0.439401
O9	O	0.900258	-0.311860	-0.439369
O10	O	0.823781	-0.171012	-0.567779
O11	O	0.740542	-0.236897	-0.269947
O12	O	0.666561	-0.247629	-0.439330
O13	O	0.770222	-0.330723	-0.737091
O14	O	0.674679	-0.319983	-0.567656
O15	O	0.834496	-0.266506	-0.737145
O16	O	0.815429	-0.396614	-0.439299
O17	O	0.759375	-0.404745	-0.567638
C18	C	0.651648	-0.283805	-0.503488
C19	C	0.593535	-0.283817	-0.503495
C20	C	0.237455	-0.254668	-0.570494
C21	C	0.182851	-0.254667	-0.570501
O22	O	0.158253	-0.229871	-0.627415
N23	N	0.151256	-0.283812	-0.503558
C24	C	0.174267	-0.312954	-0.436596
O25	O	0.142380	-0.337743	-0.379656
C26	C	0.228870	-0.312951	-0.436586
C27	C	0.260463	-0.283809	-0.503540
C28	C	0.269048	-0.225527	-0.637443
C29	C	0.323648	-0.225528	-0.637438
C30	C	0.346656	-0.254669	-0.570484
C31	C	0.315063	-0.283809	-0.503535
C32	C	0.251880	-0.342089	-0.369620
C33	C	0.306487	-0.342083	-0.369614
C34	C	0.338079	-0.312941	-0.436569
C35	C	0.392671	-0.312951	-0.436576
N36	N	0.424266	-0.283807	-0.503519
C37	C	0.401258	-0.254666	-0.570473
C38	C	0.059599	-0.312958	-0.436623
C39	C	0.004997	-0.312964	-0.436639
C40	C	0.013585	-0.254677	-0.570542
C41	C	0.068187	-0.254674	-0.570531
C42	C	0.091193	-0.283813	-0.503566
C43	C	0.515922	-0.254671	-0.570457
C44	C	0.570527	-0.254676	-0.570449
C45	C	0.561935	-0.312961	-0.436542
C46	C	0.507335	-0.312958	-0.436554
C47	C	0.484330	-0.283809	-0.503515
O48	O	0.417306	-0.337734	-0.379688
O49	O	0.433151	-0.229876	-0.627394
C50	C	0.787403	-0.419651	-0.503481
C51	C	0.787414	-0.477766	-0.503496
C52	C	0.816776	-0.833892	-0.436817
C53	C	0.816797	-0.888497	-0.436831
O54	O	0.841667	-0.913128	-0.380086
N55	N	0.787590	-0.920055	-0.503598
C56	C	0.758364	-0.897006	-0.570364
O57	O	0.733524	-0.928862	-0.627157
C58	C	0.758346	-0.842402	-0.570354
C59	C	0.787551	-0.810846	-0.503575
C60	C	0.845978	-0.802336	-0.370044
C61	C	0.845956	-0.747735	-0.370029
C62	C	0.816732	-0.724689	-0.436787
C63	C	0.787529	-0.756244	-0.503560
C64	C	0.729124	-0.819354	-0.637124
C65	C	0.729109	-0.764746	-0.637110
C66	C	0.758314	-0.733190	-0.570330
C67	C	0.758282	-0.678597	-0.570303
N68	N	0.787489	-0.647039	-0.503535
C69	C	0.816714	-0.670085	-0.436777
C70	C	0.758405	-1.011677	-0.570380
C71	C	0.758419	-1.066280	-0.570385
C72	C	0.816853	-1.057768	-0.436853
C73	C	0.816835	-1.003164	-0.436844
C74	C	0.787611	-0.980119	-0.503612
C75	C	0.816665	-0.555418	-0.436750
C76	C	0.816638	-0.500812	-0.436738
C77	C	0.758207	-0.509329	-0.570273
C78	C	0.758231	-0.563930	-0.570282
C79	C	0.787464	-0.586973	-0.503517
O80	O	0.733427	-0.653930	-0.627022
O81	O	0.841555	-0.638223	-0.380004
C82	C	0.923869	-0.283818	-0.503571
C83	C	0.981984	-0.283821	-0.503589
C84	C	0.804840	-0.301085	-0.776095
C85	C	0.812231	-0.308446	-0.892246
C86	C	0.787601	-0.147443	-0.503600
C87	C	0.787646	-0.089331	-0.503630
C88	C	0.783775	-0.279951	-0.944037
C89	C	0.791415	-0.287558	-1.064085
C90	C	0.770245	-0.266568	-0.232024
C91	C	0.762955	-0.259060	-0.115873
H92	H	0.349366	-0.201797	-0.691958
O93	O	0.744014	-0.240172	-0.885060
H94	H	0.744257	-0.240436	-0.800024
H95	H	0.250321	-0.201794	-0.691965
O96	O	0.726723	-0.597963	-0.642299
H97	H	0.697169	-0.619908	-0.595482
O98	O	0.726690	-0.484469	-0.642280
H99	H	0.731589	-0.441198	-0.631054
H100	H	0.821434	-0.317588	-1.108617
O101	O	0.848145	-0.466780	-0.364714
H102	H	0.877694	-0.444831	-0.411535
H103	H	0.732934	-0.229032	-1.071343
H104	H	0.705313	-0.745986	-0.691484
H105	H	0.093907	-0.230943	-0.625050
H106	H	0.078326	-0.336692	-0.382095
O107	O	-0.011236	-0.223237	-0.642749
H108	H	-0.054512	-0.228132	-0.631492
O109	O	0.851997	-0.348221	-0.951223
H110	H	0.851759	-0.347951	-1.036259
O111	O	-0.029076	-0.344397	-0.364426
H112	H	-0.003899	-0.364655	-0.317865
O113	O	0.217811	-0.373513	-0.297389
H114	H	0.242991	-0.393765	-0.250823
O115	O	0.697624	-0.853379	-0.709154
H116	H	0.724399	-0.881596	-0.762368
O117	O	0.726912	-1.100308	-0.642404
H118	H	0.697355	-1.122251	-0.595589
O119	O	0.604598	-0.223237	-0.642664
H120	H	0.632839	-0.250041	-0.695755
O121	O	0.848342	-0.969129	-0.364837
H122	H	0.834197	-0.974433	-0.282803
O123	O	0.491112	-0.223233	-0.642677
H124	H	0.506811	-0.237466	-0.724656
O125	O	0.331302	-0.373514	-0.297388
H126	H	0.300157	-0.393779	-0.250843
H127	H	0.481611	-0.336694	-0.382046
O128	O	0.586754	-0.344386	-0.364319
H129	H	0.630029	-0.339481	-0.375558
H130	H	0.840470	-0.574173	-0.382386
O131	O	0.877464	-0.713703	-0.298018
H132	H	0.897792	-0.738910	-0.251616
H133	H	0.869779	-0.821094	-0.315681
O134	O	0.848386	-1.082630	-0.364864
H135	H	0.843497	-1.125901	-0.376109
O136	O	0.726869	-0.986821	-0.642373
H137	H	0.706558	-1.017942	-0.688785
