data_functionalizedCrystal
_audit_creation_method	'MofGen! by Chris Wilmer'
_symmetry_space_group_name_H-M	'P1'
_symmetry_Int_Tables_number	1
_symmetry_cell_setting	triclinic
loop_
_symmetry_equiv_pos_as_xyz
  x,y,z
_cell_length_a	15.538191
_cell_length_b	16.109301
_cell_length_c	14.586319
_cell_angle_alpha	90.005214
_cell_angle_beta	90.004821
_cell_angle_gamma	65.366787
loop_
_atom_site_label
_atom_site_type_symbol
_atom_site_fract_x
_atom_site_fract_y
_atom_site_fract_z
O1	O	-1.249994	0.270055	-0.076243
O2	O	-0.975705	0.174048	-0.076245
O3	O	-1.120384	0.345355	-0.076234
O4	O	-1.105315	0.098748	-0.076253
O5	O	-1.120374	0.345353	0.076246
O6	O	-0.975695	0.174046	0.076236
O7	O	-1.249984	0.270054	0.076238
Cu8	Cu	-1.112839	0.222050	0.090160
Cu9	Cu	-1.112850	0.222052	-0.090167
O10	O	-1.105305	0.098747	0.076227
C11	C	-0.940602	0.164002	-0.000005
C12	C	-0.836019	0.134081	-0.000005
C13	C	-1.119769	0.376145	0.000006
C14	C	-1.117939	0.467888	0.000008
C15	C	-1.285087	0.280100	-0.000004
C16	C	-1.389670	0.310020	-0.000010
C17	C	-0.548320	0.431335	0.000003
C18	C	-0.450045	0.403199	0.000000
C19	C	-0.427554	0.244941	-0.000012
C20	C	-0.525828	0.273063	-0.000004
C21	C	-0.586204	0.366262	0.000002
C22	C	-0.563712	0.207990	-0.000005
C23	C	-0.661978	0.236111	-0.000003
C24	C	-0.722360	0.329305	0.000001
C25	C	-0.684470	0.394382	0.000004
C26	C	-0.503335	0.114793	-0.000018
C27	C	-0.541219	0.049719	-0.000019
C28	C	-0.639487	0.077840	-0.000010
C29	C	-0.699869	0.171034	-0.000007
C30	C	-0.677377	0.012763	-0.000014
C31	C	-0.775643	0.040883	-0.000012
C32	C	-0.798135	0.199155	-0.000004
C33	C	-1.105920	0.067957	-0.000015
C34	C	-1.107750	-0.023786	-0.000023
N35	N	-1.112837	0.222052	0.216991
C36	C	-1.199533	0.714764	-0.000006
C37	C	-1.197806	0.800964	-0.000014
C38	C	-1.026149	0.729329	-0.000012
C39	C	-1.027877	0.643131	-0.000011
C40	C	-1.114572	0.635852	-0.000003
C41	C	-1.111117	0.808250	-0.000012
C42	C	-1.109244	0.901711	-0.000020
C43	C	-1.116446	0.542385	0.000003
N44	N	-1.112859	0.222059	-0.216998
C45	C	-1.176922	0.297894	0.452002
C46	C	-1.176925	0.297897	0.547984
C47	C	-1.048767	0.146212	0.547984
C48	C	-1.048761	0.146212	0.452004
C49	C	-1.112844	0.222054	0.404016
C50	C	-1.112853	0.222056	0.595977
C51	C	-1.112855	0.222059	0.700044
C52	C	-1.112840	0.222053	0.299942
H53	H	-0.847297	0.275046	0.000006
H54	H	-0.958687	0.578874	-0.000011
H55	H	-1.270125	0.708843	-0.000002
H56	H	-1.266990	0.865214	-0.000018
H57	H	-1.229101	0.359650	0.412933
H58	H	-0.955565	0.735267	-0.000016
H59	H	-0.996576	0.084453	0.412931
O60	O	-0.828350	0.359646	0.000015
H61	H	-0.849423	0.332901	-0.062128
O62	O	-0.749603	0.494904	0.000013
H63	H	-0.706753	0.535434	0.000011
O64	O	-0.613452	0.531856	0.000012
H65	H	-0.570603	0.572387	0.000010
O66	O	-1.246049	0.379688	0.599744
H67	H	-1.290613	0.432417	0.550247
O68	O	-0.979662	0.064406	0.599741
H69	H	-0.990438	0.077141	0.674544
H70	H	-0.419205	0.456196	-0.000000
O71	O	-0.362434	0.144423	-0.000005
H72	H	-0.287738	0.135799	0.000002
O73	O	-0.397347	0.084461	-0.000012
H74	H	-0.366584	0.042894	-0.062168
O75	O	-0.476100	-0.050799	-0.000013
H76	H	-0.401404	-0.059423	-0.000005
O77	O	-0.612249	-0.087754	-0.000016
H78	H	-0.566944	-0.104350	-0.062164
O79	O	-0.816516	-0.029297	-0.000003
H80	H	-0.758024	-0.098827	0.000004
