data_functionalizedCrystal
_audit_creation_method	'MofGen! by Chris Wilmer'
_symmetry_space_group_name_H-M	'P1'
_symmetry_Int_Tables_number	1
_symmetry_cell_setting	triclinic
loop_
_symmetry_equiv_pos_as_xyz
  x,y,z
_cell_length_a	23.532407
_cell_length_b	15.021413
_cell_length_c	23.532357
_cell_angle_alpha	89.998468
_cell_angle_beta	82.838485
_cell_angle_gamma	89.998075
loop_
_atom_site_label
_atom_site_type_symbol
_atom_site_fract_x
_atom_site_fract_y
_atom_site_fract_z
O1	O	0.755250	-0.073932	0.069129
O2	O	1.088584	0.259402	0.402462
O3	O	1.421917	0.592735	0.735796
O4	O	0.589385	-0.073959	0.079132
O5	O	0.922718	0.259374	0.412466
O6	O	1.256052	0.592707	0.745799
O7	O	0.677334	-0.073926	-0.008803
O8	O	1.010668	0.259407	0.324530
O9	O	1.344001	0.592740	0.657864
O10	O	0.667301	-0.073965	0.157064
O11	O	1.000635	0.259369	0.490398
O12	O	1.333968	0.592702	0.823731
O13	O	0.677320	0.074138	-0.008791
O14	O	1.010654	0.407471	0.324543
O15	O	1.343987	0.740805	0.657876
O16	O	0.589371	0.074105	0.079145
O17	O	0.922705	0.407438	0.412478
O18	O	1.256038	0.740772	0.745812
O19	O	0.755236	0.074133	0.069141
O20	O	1.088570	0.407466	0.402475
O21	O	1.421903	0.740799	0.735808
Zn22	Zn	0.672302	0.097627	0.074145
Zn23	Zn	1.005635	0.430961	0.407479
Zn24	Zn	1.338968	0.764294	0.740812
Zn25	Zn	0.672320	-0.097454	0.074129
Zn26	Zn	1.005653	0.235880	0.407462
Zn27	Zn	1.338987	0.569213	0.740795
O28	O	0.667287	0.074100	0.157077
O29	O	1.000621	0.407433	0.490410
O30	O	1.333954	0.740766	0.823744
C31	C	0.568162	0.000070	0.078884
C32	C	0.901496	0.333403	0.412217
C33	C	1.234829	0.666736	0.745551
C34	C	0.504945	0.000060	0.078118
C35	C	0.838279	0.333393	0.411451
C36	C	1.171612	0.666727	0.744785
N37	N	0.672293	0.230765	0.074156
N38	N	1.005626	0.564098	0.407489
N39	N	1.338960	0.897431	0.740823
N40	N	0.672333	-0.230591	0.074113
N41	N	1.005666	0.102742	0.407446
N42	N	1.339000	0.436075	0.740780
C43	C	0.105834	0.000089	0.125353
C44	C	0.439167	0.333423	0.458686
C45	C	0.772500	0.666756	0.792019
C46	C	0.046434	0.000095	0.124641
C47	C	0.379767	0.333428	0.457974
C48	C	0.713100	0.666762	0.791308
O49	O	0.009681	0.000117	0.168428
O50	O	0.343015	0.333451	0.501761
O51	O	0.676348	0.666784	0.835095
N52	N	0.023817	0.000106	0.072364
N53	N	0.357150	0.333439	0.405697
N54	N	0.690483	0.666772	0.739030
C55	C	0.060604	0.000120	0.020794
C56	C	0.393937	0.333453	0.354127
C57	C	0.727270	0.666786	0.687461
O58	O	0.035912	0.000130	-0.023737
O59	O	0.369245	0.333463	0.309596
O60	O	0.702579	0.666797	0.642929
C61	C	0.120003	0.000120	0.021506
C62	C	0.453336	0.333454	0.354839
C63	C	0.786669	0.666787	0.688173
C64	C	0.142616	0.000101	0.073787
C65	C	0.475949	0.333434	0.407120
C66	C	0.809283	0.666767	0.740454
C67	C	0.128448	0.000071	0.177629
C68	C	0.461781	0.333404	0.510963
C69	C	0.795114	0.666737	0.844296
C70	C	0.187844	0.000063	0.178341
C71	C	0.521177	0.333397	0.511674
C72	C	0.854510	0.666730	0.845007
C73	C	0.224626	0.000075	0.126775
C74	C	0.557959	0.333408	0.460108
C75	C	0.891292	0.666741	0.793442
C76	C	0.202012	0.000093	0.074498
C77	C	0.535345	0.333427	0.407832
C78	C	0.868679	0.666760	0.741165
C79	C	0.156788	0.000141	-0.030063
C80	C	0.490122	0.333474	0.303271
C81	C	0.823455	0.666807	0.636604
C82	C	0.216191	0.000142	-0.029346
C83	C	0.549524	0.333475	0.303987
C84	C	0.882857	0.666809	0.637321
C85	C	0.238804	0.000122	0.022935
C86	C	0.572137	0.333456	0.356268
C87	C	0.905471	0.666789	0.689601
C88	C	0.298190	0.000097	0.023644
C89	C	0.631523	0.333431	0.356977
C90	C	0.964857	0.666764	0.690311
N91	N	0.320807	0.000087	0.075922
N92	N	0.654140	0.333420	0.409255
N93	N	0.987474	0.666754	0.742588
C94	C	0.284025	0.000076	0.127487
C95	C	0.617358	0.333409	0.460820
C96	C	0.950691	0.666742	0.794154
C97	C	-0.064139	0.000119	0.019303
C98	C	0.269195	0.333453	0.352636
C99	C	0.602528	0.666786	0.685969
C100	C	-0.123536	0.000112	0.018590
C101	C	0.209797	0.333446	0.351923
C102	C	0.543130	0.666779	0.685257
C103	C	-0.137702	0.000089	0.122437
C104	C	0.195631	0.333423	0.455771
C105	C	0.528964	0.666756	0.789104
C106	C	-0.078303	0.000090	0.123149
C107	C	0.255030	0.333424	0.456483
C108	C	0.588363	0.666757	0.789816
C109	C	-0.041522	0.000109	0.071580
C110	C	0.291812	0.333442	0.404914
C111	C	0.625145	0.666776	0.738247
C112	C	0.408761	0.000060	0.128977
C113	C	0.742095	0.333393	0.462310
C114	C	1.075428	0.666726	0.795644
C115	C	0.468163	0.000049	0.129684
C116	C	0.801496	0.333382	0.463017
C117	C	1.134830	0.666715	0.796350
C118	C	0.482324	0.000076	0.025837
C119	C	0.815657	0.333410	0.359170
C120	C	1.148991	0.666743	0.692503
C121	C	0.422927	0.000082	0.025130
C122	C	0.756261	0.333416	0.358463
C123	C	1.089594	0.666749	0.691796
C124	C	0.386147	0.000077	0.076704
C125	C	0.719480	0.333410	0.410038
C126	C	1.052813	0.666744	0.743371
O127	O	0.334977	0.000079	-0.020120
O128	O	0.668310	0.333412	0.313213
O129	O	1.001644	0.666746	0.646547
O130	O	0.308725	0.000077	0.172011
O131	O	0.642058	0.333410	0.505345
O132	O	0.975391	0.666744	0.838678
C133	C	0.776459	0.000102	0.069390
C134	C	1.109793	0.333435	0.402723
C135	C	1.443126	0.666769	0.736057
C136	C	0.839676	0.000106	0.070156
C137	C	1.173010	0.333439	0.403489
C138	C	1.506343	0.666772	0.736822
C139	C	0.677076	0.000109	-0.030013
C140	C	1.010410	0.333442	0.303320
C141	C	1.343743	0.666775	0.636653
C142	C	0.676322	0.000117	-0.093232
C143	C	1.009655	0.333450	0.240101
C144	C	1.342988	0.666783	0.573435
C145	C	0.631619	0.470433	0.114798
C146	C	0.964953	0.803766	0.448132
C147	C	1.298286	1.137099	0.781465
C148	C	0.683017	0.529773	0.125561
C149	C	1.016350	0.863106	0.458895
C150	C	1.349684	1.196440	0.792228
C151	C	0.672308	0.412372	0.074142
C152	C	1.005641	0.745705	0.407475
C153	C	1.338974	1.079038	0.740808
C154	C	0.620924	0.529773	0.063392
C155	C	0.954257	0.863107	0.396725
C156	C	1.287591	1.196440	0.730058
C157	C	0.672317	0.587796	0.074129
C158	C	1.005651	0.921129	0.407463
C159	C	1.338984	1.254462	0.740796
C160	C	0.723731	0.470405	0.084930
C161	C	1.057064	0.803739	0.418263
C162	C	1.390398	1.137072	0.751597
C163	C	0.661605	0.470401	0.022738
C164	C	0.994938	0.803734	0.356071
C165	C	1.328271	1.137067	0.689405
C166	C	0.713039	0.529714	0.033479
C167	C	1.046373	0.863047	0.366812
C168	C	1.379706	1.196381	0.700146
C169	C	0.672301	0.311314	0.074150
C170	C	1.005635	0.644648	0.407484
C171	C	1.338968	0.977981	0.740817
C172	C	0.672330	0.688851	0.074120
C173	C	1.005663	1.022184	0.407453
C174	C	1.338996	1.355518	0.740787
C175	C	0.671593	-0.080642	-0.485250
C176	C	1.004926	0.252691	-0.151917
C177	C	1.338259	0.586025	0.181417
C178	C	0.670875	-0.080647	-0.544650
C179	C	1.004209	0.252686	-0.211316
C180	C	1.337542	0.586020	0.122017
O181	O	0.670492	-0.149288	-0.575372
O182	O	1.003825	0.184046	-0.242038
O183	O	1.337158	0.517379	0.091295
N184	N	0.670512	0.000062	-0.574354
N185	N	1.003845	0.333395	-0.241021
N186	N	1.337179	0.666728	0.092313
C187	C	0.670860	0.080781	-0.544655
C188	C	1.004194	0.414114	-0.211322
C189	C	1.337527	0.747447	0.122012
O190	O	0.670485	0.149429	-0.575375
O191	O	1.003818	0.482763	-0.242042
O192	O	1.337152	0.816096	0.091292
C193	C	0.671573	0.080785	-0.485256
C194	C	1.004907	0.414118	-0.151923
C195	C	1.338240	0.747452	0.181411
C196	C	0.671943	0.000071	-0.455556
C197	C	1.005276	0.333404	-0.122222
C198	C	1.338609	0.666738	0.211111
C199	C	0.671961	-0.161349	-0.455550
C200	C	1.005294	0.171984	-0.122216
C201	C	1.338628	0.505317	0.211117
C202	C	0.672679	-0.161344	-0.396154
C203	C	1.006013	0.171990	-0.062821
C204	C	1.339346	0.505323	0.270512
C205	C	0.673029	-0.080631	-0.366460
C206	C	1.006363	0.252703	-0.033126
C207	C	1.339696	0.586036	0.300207
C208	C	0.672661	0.000077	-0.396160
C209	C	1.005994	0.333410	-0.062827
C210	C	1.339327	0.666743	0.270506
C211	C	0.671917	0.161503	-0.455558
C212	C	1.005251	0.494836	-0.122224
C213	C	1.338584	0.828170	0.211109
C214	C	0.672630	0.161500	-0.396155
C215	C	1.005964	0.494834	-0.062821
C216	C	1.339297	0.828167	0.270512
C217	C	0.672999	0.080787	-0.366454
C218	C	1.006333	0.414120	-0.033121
C219	C	1.339666	0.747453	0.300213
C220	C	0.673729	0.080795	-0.307071
C221	C	1.007062	0.414128	0.026263
C222	C	1.340396	0.747462	0.359596
N223	N	0.674092	0.000086	-0.277366
N224	N	1.007426	0.333420	0.055967
N225	N	1.340759	0.666753	0.389300
C226	C	0.673742	-0.080627	-0.307061
C227	C	1.007076	0.252707	0.026273
C228	C	1.340409	0.586040	0.359606
C229	C	0.669362	0.080766	-0.669397
C230	C	1.002695	0.414099	-0.336063
C231	C	1.336028	0.747432	-0.002730
C232	C	0.668653	0.080762	-0.728795
C233	C	1.001986	0.414096	-0.395462
C234	C	1.335319	0.747429	-0.062128
C235	C	0.668667	-0.080666	-0.728785
C236	C	1.002000	0.252668	-0.395452
C237	C	1.335333	0.586001	-0.062119
C238	C	0.669380	-0.080662	-0.669386
C239	C	1.002713	0.252672	-0.336053
C240	C	1.336047	0.586005	-0.002720
C241	C	0.669725	0.000057	-0.639692
C242	C	1.003058	0.333390	-0.306359
C243	C	1.336392	0.666724	0.026974
C244	C	0.675251	-0.080609	-0.182327
C245	C	1.008585	0.252725	0.151007
C246	C	1.341918	0.586058	0.484340
C247	C	0.675972	-0.080596	-0.122927
C248	C	1.009305	0.252737	0.210407
C249	C	1.342639	0.586071	0.543740
C250	C	0.675955	0.080831	-0.122941
C251	C	1.009288	0.414165	0.210392
C252	C	1.342621	0.747498	0.543726
C253	C	0.675237	0.080819	-0.182336
C254	C	1.008570	0.414153	0.150997
C255	C	1.341904	0.747486	0.484330
C256	C	0.674883	0.000092	-0.212027
C257	C	1.008217	0.333425	0.121306
C258	C	1.341550	0.666759	0.454639
O259	O	0.674111	0.149401	-0.276310
O260	O	1.007444	0.482734	0.057023
O261	O	1.340777	0.816067	0.390356
O262	O	0.674110	-0.149263	-0.276332
O263	O	1.007444	0.184070	0.057001
O264	O	1.340777	0.517403	0.390334
C265	C	0.667545	0.000063	0.178287
C266	C	1.000879	0.333396	0.511620
C267	C	1.334212	0.666730	0.844954
C268	C	0.668300	0.000049	0.241506
C269	C	1.001633	0.333382	0.574839
C270	C	1.334966	0.666715	0.908172
H271	H	0.486571	0.000032	0.172259
H272	H	0.819904	0.333365	0.505592
H273	H	1.153238	0.666699	0.838925
H274	H	0.767199	0.444437	0.094069
H275	H	1.100532	0.777770	0.427403
H276	H	1.433865	1.111104	0.760736
F277	F	0.211902	0.000047	0.233986
F278	F	0.545236	0.333380	0.567319
F279	F	0.878569	0.666714	0.900652
H280	H	0.577466	0.555854	0.054305
H281	H	0.910799	0.889187	0.387638
H282	H	1.244133	1.222520	0.720971
F283	F	0.676366	-0.166507	-0.091321
F284	F	1.009700	0.166827	0.242013
F285	F	1.343033	0.500160	0.575346
F286	F	0.369625	0.000054	0.183869
F287	F	0.702958	0.333388	0.517202
F288	F	1.036291	0.666721	0.850535
F289	F	0.674855	0.166723	-0.213948
F290	F	1.008188	0.500057	0.119385
F291	F	1.341521	0.833390	0.452718
H292	H	0.747490	0.555579	-0.000911
H293	H	1.080823	0.888912	0.332423
H294	H	1.414156	1.222246	0.665756
F295	F	0.674875	-0.166528	-0.213918
F296	F	1.008208	0.166806	0.119415
F297	F	1.341541	0.500139	0.452749
H298	H	0.672978	-0.227069	-0.371977
H299	H	1.006311	0.106264	-0.038644
H300	H	1.339644	0.439597	0.294690
F301	F	0.649740	0.436284	-0.034056
F302	F	0.983073	0.769618	0.299277
F303	F	1.316407	1.102951	0.632610
H304	H	0.668380	-0.146387	-0.752973
H305	H	1.001713	0.186947	-0.419640
H306	H	1.335047	0.520280	-0.086306
F307	F	0.669734	0.166683	-0.637799
F308	F	1.003067	0.500017	-0.304466
F309	F	1.336400	0.833350	0.028867
F310	F	0.089309	0.000059	0.232518
F311	F	0.422642	0.333392	0.565851
F312	F	0.755976	0.666725	0.899184
F313	F	0.671588	-0.247263	-0.487144
F314	F	1.004922	0.086071	-0.153810
F315	F	1.338255	0.419404	0.179523
H316	H	-0.141942	0.000114	-0.023982
H317	H	0.191391	0.333448	0.309351
H318	H	0.524724	0.666781	0.642684
H319	H	0.668361	0.146488	-0.752973
H320	H	1.001694	0.479821	-0.419640
H321	H	1.335027	0.813154	-0.086307
F322	F	0.669772	-0.166567	-0.637782
F323	F	1.003105	0.166766	-0.304449
F324	F	1.336438	0.500099	0.028885
H325	H	0.597245	0.444404	0.149208
H326	H	0.930578	0.777738	0.482541
H327	H	1.263912	1.111071	0.815875
H328	H	0.671618	0.227229	-0.479730
H329	H	1.004951	0.560563	-0.146396
H330	H	1.338285	0.893896	0.186937
F331	F	0.672997	0.247415	-0.364555
F332	F	1.006331	0.580748	-0.031222
F333	F	1.339664	0.914081	0.302111
F334	F	0.676328	0.166727	-0.091328
F335	F	1.009662	0.500061	0.242006
F336	F	1.342995	0.833394	0.575339
H337	H	-0.059896	0.000079	0.165721
H338	H	0.273437	0.333413	0.499054
H339	H	0.606770	0.666746	0.832388
H340	H	-0.167662	0.000084	0.164425
H341	H	0.165672	0.333418	0.497758
H342	H	0.499005	0.666751	0.831091
F343	F	0.398860	0.000104	-0.030513
F344	F	0.732193	0.333437	0.302820
F345	F	1.065526	0.666770	0.636153
F346	F	0.132735	0.000149	-0.085708
F347	F	0.466068	0.333482	0.247625
F348	F	0.799402	0.666816	0.580958
F349	F	-0.024997	0.000131	-0.035588
F350	F	0.308336	0.333464	0.297745
F351	F	0.641670	0.666798	0.631078
H352	H	0.246136	0.000158	-0.071341
H353	H	0.579470	0.333491	0.261992
H354	H	0.912803	0.666825	0.595326
F355	F	0.694862	0.563861	0.182373
F356	F	1.028195	0.897194	0.515706
F357	F	1.361529	1.230528	0.849040
H358	H	0.512282	0.000082	-0.016147
H359	H	0.845616	0.333415	0.317187
H360	H	1.178949	0.666749	0.650520
