data_functionalizedCrystal
_audit_creation_method	'MofGen! by Chris Wilmer'
_symmetry_space_group_name_H-M	'P1'
_symmetry_Int_Tables_number	1
_symmetry_cell_setting	triclinic
loop_
_symmetry_equiv_pos_as_xyz
  x,y,z
_cell_length_a	12.827893
_cell_length_b	13.897448
_cell_length_c	12.827885
_cell_angle_alpha	89.967724
_cell_angle_beta	89.980728
_cell_angle_gamma	90.017663
loop_
_atom_site_label
_atom_site_type_symbol
_atom_site_fract_x
_atom_site_fract_y
_atom_site_fract_z
Zn1	Zn	1.597653	-0.383969	-0.590831
Zn2	Zn	1.597540	-0.545295	-0.416083
Zn3	Zn	1.422894	-0.384016	-0.416104
Zn4	Zn	1.422873	-0.545224	-0.590783
O5	O	1.510240	-0.464626	-0.503450
O6	O	1.743874	-0.405380	-0.567661
O7	O	1.574335	-0.523951	-0.269850
O8	O	1.446133	-0.249028	-0.439311
O9	O	1.743791	-0.523905	-0.439275
O10	O	1.574527	-0.248994	-0.567681
O11	O	1.446023	-0.405460	-0.269865
O12	O	1.276655	-0.405390	-0.439265
O13	O	1.446096	-0.523783	-0.737026
O14	O	1.276639	-0.523829	-0.567601
O15	O	1.574506	-0.405310	-0.737060
O16	O	1.574314	-0.680267	-0.439229
O17	O	1.445986	-0.680215	-0.567580
C18	C	1.238730	-0.464607	-0.503430
C19	C	1.122577	-0.464623	-0.503447
C20	C	1.070812	-0.523321	-0.566853
C21	C	0.950762	-0.523338	-0.566872
C22	C	1.510164	-0.715240	-0.503420
C23	C	1.510227	-0.822454	-0.503442
C24	C	1.510336	-1.018749	-0.503508
C25	C	1.510272	-0.909517	-0.503474
C26	C	1.782810	-0.464645	-0.503471
C27	C	1.898963	-0.464654	-0.503480
C28	C	1.510311	-0.464533	-0.776021
C29	C	1.510341	-0.464494	-0.892174
C30	C	1.510345	-0.213033	-0.503504
C31	C	1.510390	-0.105819	-0.503526
C32	C	1.573890	-0.405858	-0.943976
C33	C	1.573923	-0.405816	-1.064026
C34	C	1.510229	-0.464649	-0.231940
C35	C	1.510401	-0.464416	-0.115788
H36	H	0.943473	-0.414400	-0.449188
N37	N	1.645981	-0.339306	-1.123028
H38	H	1.688364	-0.300203	-1.071985
H39	H	1.694301	-0.378588	-1.168312
H40	H	1.455996	-0.514623	-1.071246
N41	N	1.438307	-0.530947	-0.951156
H42	H	1.454483	-0.599892	-0.932209
H43	H	1.363653	-0.515902	-0.932194
N44	N	1.129821	-0.589878	-0.638746
H45	H	1.207217	-0.580433	-0.628540
H46	H	1.110776	-0.658766	-0.622364
H47	H	1.078018	-0.414377	-0.449180
N48	N	0.891806	-0.589917	-0.638776
H49	H	0.814404	-0.580494	-0.628595
H50	H	0.910866	-0.575000	-0.713453
H51	H	1.628268	-0.355686	-0.899449
