data_functionalizedCrystal
_audit_creation_method	'MofGen! by Chris Wilmer'
_symmetry_space_group_name_H-M	'P1'
_symmetry_Int_Tables_number	1
_symmetry_cell_setting	triclinic
loop_
_symmetry_equiv_pos_as_xyz
  x,y,z
_cell_length_a	16.120484
_cell_length_b	13.897449
_cell_length_c	13.897441
_cell_angle_alpha	90.020733
_cell_angle_beta	92.865635
_cell_angle_gamma	87.073220
loop_
_atom_site_label
_atom_site_type_symbol
_atom_site_fract_x
_atom_site_fract_y
_atom_site_fract_z
Zn1	Zn	-0.331852	-1.455182	-0.564824
Zn2	Zn	0.168148	-0.955182	-0.064824
Zn3	Zn	-0.471283	-1.446874	-0.411694
Zn4	Zn	0.028717	-0.946874	0.088306
Zn5	Zn	-0.331892	-1.293869	-0.403544
Zn6	Zn	0.168108	-0.793869	0.096456
Zn7	Zn	-0.471229	-1.285654	-0.572943
Zn8	Zn	0.028771	-0.785654	-0.072943
O9	O	-0.401564	-1.370395	-0.488251
O10	O	0.098436	-0.870395	0.011749
O11	O	-0.350354	-1.589061	-0.544523
O12	O	0.149646	-1.089061	-0.044523
O13	O	-0.452832	-1.426539	-0.275633
O14	O	0.047168	-0.926539	0.224367
O15	O	-0.215221	-1.322182	-0.418130
O16	O	0.284779	-0.822182	0.081870
O17	O	-0.452794	-1.582958	-0.432019
O18	O	0.047206	-1.082958	0.067981
O19	O	-0.215191	-1.440698	-0.536621
O20	O	0.284809	-0.940698	-0.036621
O21	O	-0.350422	-1.314126	-0.269646
O22	O	0.149578	-0.814126	0.230354
O23	O	-0.350369	-1.157798	-0.426003
O24	O	0.149631	-0.657798	0.073997
O25	O	-0.452700	-1.308182	-0.706846
O26	O	0.047300	-0.808182	-0.206846
O27	O	-0.452739	-1.151763	-0.550460
O28	O	0.047261	-0.651763	-0.050460
O29	O	-0.350301	-1.432733	-0.700880
O30	O	0.149699	-0.932733	-0.200880
O31	O	-0.587942	-1.418574	-0.439893
O32	O	-0.087942	-0.918574	0.060107
O33	O	-0.587901	-1.300126	-0.558362
O34	O	-0.087901	-0.800126	-0.058362
C35	C	-0.401553	-1.119781	-0.488229
C36	C	0.098447	-0.619781	0.011771
C37	C	-0.401568	-1.012566	-0.488243
C38	C	0.098432	-0.512566	0.011757
C39	C	-0.618172	-1.357583	-0.500914
C40	C	-0.118172	-0.857583	-0.000914
C41	C	-0.710837	-1.352190	-0.506363
C42	C	-0.210837	-0.852190	-0.006363
C43	C	-0.401490	-1.370468	-0.739840
C44	C	0.098510	-0.870468	-0.239840
C45	C	-0.401459	-1.370499	-0.847052
C46	C	0.098541	-0.870499	-0.347052
C47	C	-0.880499	-1.342350	-0.516332
C48	C	-0.380499	-0.842350	-0.016332
C49	C	-0.921788	-1.398613	-0.460186
C50	C	-0.421788	-0.898613	0.039814
C51	C	-1.016194	-1.393137	-0.465733
C52	C	-0.516194	-0.893137	0.034267
C53	C	-0.786085	-1.347824	-0.510787
C54	C	-0.286085	-0.847824	-0.010787
C55	C	-0.184110	-1.383283	-0.475560
C56	C	0.315890	-0.883283	0.024440
C57	C	-0.091444	-1.388775	-0.470152
C58	C	0.408556	-0.888775	0.029848
C59	C	-0.401576	-1.621987	-0.488275
C60	C	0.098424	-1.121987	0.011725
C61	C	-0.401581	-1.729201	-0.488285
C62	C	0.098419	-1.229201	0.011715
C63	C	-0.401571	-0.816271	-0.488268
C64	C	0.098429	-0.316271	0.011732
C65	C	-0.401567	-0.925504	-0.488251
C66	C	0.098433	-0.425504	0.011749
C67	C	-0.401402	-1.370528	-1.043344
C68	C	0.098598	-0.870528	-0.543344
C69	C	-0.401436	-1.370509	-0.934114
C70	C	0.098564	-0.870509	-0.434114
C71	C	-0.401577	-1.370382	-0.237638
C72	C	0.098423	-0.870382	0.262362
C73	C	-0.401374	-1.370551	-0.130412
C74	C	0.098626	-0.870551	0.369588
H75	H	-0.886236	-1.450891	-0.407952
H76	H	-0.386236	-0.950891	0.092048
N77	N	-0.925103	-1.276776	-0.581853
N78	N	-0.425103	-0.776776	-0.081853
N79	N	-1.002841	-1.272370	-0.586317
N80	N	-0.502841	-0.772370	-0.086317
H81	H	-1.034352	-1.226058	-0.632589
H82	H	-0.534352	-0.726058	-0.132589
