data_functionalizedCrystal
_audit_creation_method	'MofGen! by Chris Wilmer'
_symmetry_space_group_name_H-M	'P1'
_symmetry_Int_Tables_number	1
_symmetry_cell_setting	triclinic
loop_
_symmetry_equiv_pos_as_xyz
  x,y,z
_cell_length_a	15.297475
_cell_length_b	15.298670
_cell_length_c	17.077395
_cell_angle_alpha	99.699553
_cell_angle_beta	80.319439
_cell_angle_gamma	110.781741
loop_
_atom_site_label
_atom_site_type_symbol
_atom_site_fract_x
_atom_site_fract_y
_atom_site_fract_z
Zn1	Zn	1.485940	0.616692	-0.574410
Zn2	Zn	1.512767	0.772202	-0.423775
Zn3	Zn	1.330424	0.589766	-0.423832
Zn4	Zn	1.357287	0.745204	-0.535690
O5	O	1.421604	0.680966	-0.489427
O6	O	1.619652	0.659888	-0.570608
O7	O	1.488563	0.748032	-0.313929
O8	O	1.328584	0.463205	-0.460035
O9	O	1.639361	0.774141	-0.459938
O10	O	1.442841	0.482987	-0.570663
O11	O	1.354596	0.613997	-0.313971
O12	O	1.203834	0.587818	-0.422490
O13	O	1.374369	0.728127	-0.650680
O14	O	1.223571	0.702018	-0.504671
O15	O	1.468890	0.633709	-0.679127
O16	O	1.514611	0.898754	-0.422393
O17	O	1.400381	0.878918	-0.504616
C18	C	1.179956	0.639067	-0.459385
C19	C	1.076581	0.621165	-0.446549
C20	C	1.463348	0.922582	-0.459317
C21	C	1.481291	1.025962	-0.446472
C22	C	1.421633	0.680910	-0.694184
C23	C	1.421646	0.680886	-0.781439
C24	C	0.826456	0.808923	-0.581168
C25	C	0.923583	0.825750	-0.593225
C26	C	0.961837	0.774605	-0.556558
C27	C	0.902955	0.706630	-0.507830
C28	C	0.805820	0.689807	-0.495767
C29	C	0.941201	0.655489	-0.471157
C30	C	0.882319	0.587514	-0.422429
C31	C	0.785194	0.570693	-0.410369
C32	C	0.746939	0.621838	-0.447036
C33	C	1.038336	0.672312	-0.483220
C34	C	1.017700	0.553196	-0.397819
C35	C	0.920574	0.536369	-0.385762
C36	C	1.664197	0.723030	-0.519586
C37	C	1.767575	0.740955	-0.532437
C38	C	1.293808	1.276159	-0.581304
C39	C	1.276952	1.179029	-0.593378
C40	C	1.328035	1.140757	-0.556653
C41	C	1.395977	1.199625	-0.507852
C42	C	1.412840	1.296765	-0.495782
C43	C	1.447067	1.161364	-0.471130
C44	C	1.515010	1.220231	-0.422329
C45	C	1.531869	1.317361	-0.410261
C46	C	1.480786	1.355633	-0.446986
C47	C	1.430204	1.064224	-0.483200
C48	C	1.549236	1.084830	-0.397677
C49	C	1.566092	1.181959	-0.385603
C50	C	1.379693	1.438405	-0.519661
C51	C	1.361754	1.335027	-0.532509
C52	C	1.470944	0.631614	-1.172096
C53	C	1.470931	0.631644	-1.090109
C54	C	1.421707	0.680811	-1.034309
C55	C	1.372502	0.729960	-1.060498
C56	C	1.372521	0.729936	-1.142484
C57	C	1.372463	0.730006	-0.889616
C58	C	1.372442	0.730029	-0.807624
C59	C	1.470872	0.631714	-0.837241
C60	C	1.470892	0.631689	-0.919226
C61	C	1.421685	0.680837	-0.945410
C62	C	1.421617	0.680964	-0.285481
C63	C	1.421740	0.680758	-0.198281
H64	H	1.040923	0.788309	-0.566378
C65	C	1.604570	1.043104	-0.357835
C66	C	1.575241	0.945435	-0.378830
C67	C	1.626182	0.906957	-0.342139
H68	H	1.669824	1.069680	-0.375131
H69	H	1.593751	1.056667	-0.301400
H70	H	1.586068	0.931879	-0.435252
H71	H	1.509996	0.918833	-0.361533
H72	H	1.615363	0.920520	-0.285704
H73	H	1.691433	0.933540	-0.359438
H74	H	1.606284	0.840685	-0.356373
H75	H	0.971518	0.881097	-0.632897
C76	C	1.319183	0.783501	-0.746937
C77	C	1.382150	0.852214	-0.698977
C78	C	1.333128	0.901484	-0.643049
H79	H	1.289875	0.812870	-0.774152
H80	H	1.272532	0.740939	-0.714304
H81	H	1.428784	0.894770	-0.731605
H82	H	1.411460	0.822870	-0.671744
H83	H	1.286477	0.858923	-0.610417
H84	H	1.303822	0.930848	-0.670271
H85	H	1.375842	0.948106	-0.610497
H86	H	1.621412	1.229903	-0.345869
H87	H	1.494501	1.434722	-0.437153
H88	H	0.737255	0.515353	-0.370683
H89	H	0.795301	0.850563	-0.611012
C90	C	1.524126	0.578249	-0.808717
C91	C	1.461149	0.509544	-0.762529
C92	C	1.510159	0.460269	-0.736233
H93	H	1.553433	0.548873	-0.853623
H94	H	1.570777	0.620810	-0.777290
H95	H	1.414515	0.466990	-0.793955
H96	H	1.431839	0.538894	-0.717612
H97	H	1.556810	0.502829	-0.704805
H98	H	1.539465	0.430899	-0.781143
H99	H	1.467439	0.413653	-0.704885
C100	C	1.524212	0.578087	-1.232712
C101	C	1.461269	0.509317	-1.280654
C102	C	1.510307	0.459982	-1.336493
H103	H	1.570885	0.620572	-1.265375
H104	H	1.553489	0.548768	-1.205401
H105	H	1.432007	0.538635	-1.307964
H106	H	1.414595	0.466812	-1.248014
H107	H	1.539584	0.430663	-1.309182
H108	H	1.556978	0.502475	-1.369150
H109	H	1.467606	0.413311	-1.369024
C110	C	1.524367	0.578188	-1.061838
C111	C	1.567453	0.535099	-1.128253
C112	C	1.616679	0.485837	-1.102243
H113	H	1.571094	0.620708	-1.030478
H114	H	1.481797	0.531465	-1.030511
H115	H	1.610019	0.581817	-1.159568
H116	H	1.520748	0.492565	-1.159621
H117	H	1.574109	0.439113	-1.070916
H118	H	1.663401	0.528362	-1.070882
H119	H	1.645912	0.456588	-1.147301
H120	H	1.510969	0.591648	-0.964658
C121	C	1.318941	0.783383	-0.917887
C122	C	1.275805	0.826425	-0.851474
C123	C	1.226481	0.875587	-0.877487
H124	H	1.361430	0.830127	-0.949218
H125	H	1.272237	0.740781	-0.949244
H126	H	1.322504	0.869023	-0.820130
H127	H	1.233302	0.779702	-0.820136
H128	H	1.179777	0.832986	-0.908844
H129	H	1.268977	0.922327	-0.908819
H130	H	1.197201	0.904790	-0.832430
H131	H	1.332428	0.769998	-1.015059
C132	C	1.319018	0.783131	-1.171029
C133	C	1.250343	0.720132	-1.217275
C134	C	1.201050	0.769108	-1.243592
H135	H	1.289613	0.812423	-1.126133
H136	H	1.361574	0.829791	-1.202423
H137	H	1.207793	0.673488	-1.185883
H138	H	1.279723	0.690837	-1.262183
H139	H	1.243606	0.815768	-1.274986
H140	H	1.171651	0.798398	-1.198691
H141	H	1.154454	0.726372	-1.274979
H142	H	1.086269	0.727657	-0.522894
H143	H	1.048846	0.511551	-0.367959
C144	C	0.856790	0.462503	-0.332858
C145	C	0.911068	0.421292	-0.303339
C146	C	0.852342	0.353235	-0.254610
H147	H	0.825003	0.491356	-0.289418
H148	H	0.811929	0.415425	-0.363275
H149	H	0.955912	0.468363	-0.272922
H150	H	0.942854	0.392421	-0.346761
H151	H	0.807480	0.306157	-0.285028
H152	H	0.820557	0.382096	-0.211175
H153	H	0.889159	0.325260	-0.234582
C154	C	0.641483	0.603569	-0.433763
C155	C	0.613404	0.621585	-0.352055
C156	C	0.516262	0.604754	-0.339792
H157	H	0.627002	0.643733	-0.462503
H158	H	0.609113	0.539755	-0.452119
H159	H	0.645763	0.685389	-0.333708
H160	H	0.627861	0.581426	-0.323297
H161	H	0.483892	0.540939	-0.358148
H162	H	0.501791	0.644919	-0.368536
H163	H	0.497197	0.616967	-0.284352
H164	H	1.314306	1.061669	-0.566486
C165	C	1.203109	1.115268	-0.646345
C166	C	1.161960	1.169567	-0.675904
C167	C	1.093916	1.110859	-0.724690
H168	H	1.231964	1.083456	-0.689765
H169	H	1.155996	1.070428	-0.615959
H170	H	1.209065	1.214390	-0.706289
H171	H	1.133087	1.201378	-0.632502
H172	H	1.046803	1.066019	-0.694304
H173	H	1.122778	1.079050	-0.768106
H174	H	1.065982	1.147691	-0.744746
H175	H	1.374885	1.016302	-0.522934
C176	C	1.238419	1.317885	-0.621073
C177	C	1.267717	1.415548	-0.600042
C178	C	1.216702	1.454017	-0.636657
H179	H	1.249180	1.304370	-0.677506
H180	H	1.173173	1.291255	-0.603728
H181	H	1.332948	1.442169	-0.617392
H182	H	1.256955	1.429090	-0.543615
H183	H	1.151455	1.427386	-0.619312
H184	H	1.227466	1.440495	-0.693089
H185	H	1.236567	1.520283	-0.622387
H186	H	1.587199	1.365291	-0.370530
