data_functionalizedCrystal
_audit_creation_method	'MofGen! by Chris Wilmer'
_symmetry_space_group_name_H-M	'P1'
_symmetry_Int_Tables_number	1
_symmetry_cell_setting	triclinic
loop_
_symmetry_equiv_pos_as_xyz
  x,y,z
_cell_length_a	22.610064
_cell_length_b	14.519709
_cell_length_c	14.519709
_cell_angle_alpha	96.319855
_cell_angle_beta	89.996868
_cell_angle_gamma	89.997369
loop_
_atom_site_label
_atom_site_type_symbol
_atom_site_fract_x
_atom_site_fract_y
_atom_site_fract_z
O1	O	0.049109	-1.223874	0.120879
O2	O	0.049127	-0.955397	0.135115
O3	O	0.049112	-1.096754	-0.006241
O4	O	0.049124	-1.082517	0.262235
O5	O	-0.049257	-1.096729	-0.006221
O6	O	-0.049242	-0.955372	0.135136
O7	O	-0.049260	-1.223849	0.120899
Zn8	Zn	-0.064869	-1.089606	0.128021
Zn9	Zn	0.064736	-1.089639	0.127994
O10	O	-0.049245	-1.082492	0.262256
C11	C	-0.000055	-0.921025	0.134462
C12	C	-0.000048	-0.818643	0.132474
C13	C	-0.000073	-1.096078	-0.040591
C14	C	-0.000073	-1.094090	-0.142972
N15	N	-0.153322	-1.089591	0.128039
C16	C	-0.561970	-1.152235	0.065411
C17	C	-0.623890	-1.152240	0.065404
O18	O	-0.655914	-1.205463	0.012169
N19	N	-0.654859	-1.089639	0.127975
C20	C	-0.623905	-1.027022	0.190550
O21	O	-0.655933	-0.973775	0.243770
C22	C	-0.561986	-1.027014	0.190551
C23	C	-0.531020	-1.089626	0.127983
C24	C	-0.531004	-1.214841	0.002846
C25	C	-0.469088	-1.214837	0.002855
C26	C	-0.438139	-1.152227	0.065427
C27	C	-0.469105	-1.089622	0.127991
C28	C	-0.531034	-0.964394	0.253121
C29	C	-0.469111	-0.964391	0.253117
C30	C	-0.438145	-1.027002	0.190548
C31	C	-0.376240	-1.027009	0.190571
N32	N	-0.345270	-1.089610	0.128000
C33	C	-0.376220	-1.152219	0.065428
C34	C	-0.753939	-1.027044	0.190541
C35	C	-0.815856	-1.027056	0.190544
C36	C	-0.815837	-1.152272	0.065397
C37	C	-0.753918	-1.152264	0.065399
C38	C	-0.722970	-1.089645	0.127970
C39	C	-0.246193	-1.152207	0.065450
C40	C	-0.184271	-1.152200	0.065467
C41	C	-0.184296	-1.026981	0.190610
C42	C	-0.246212	-1.026991	0.190598
C43	C	-0.277159	-1.089607	0.128010
O44	O	-0.344176	-0.973810	0.243777
O45	O	-0.344185	-1.205449	0.012209
N46	N	0.153189	-1.089662	0.127968
C47	C	-0.000077	-1.258221	0.121553
C48	C	-0.000080	-1.360602	0.123541
C49	C	-0.000076	-0.443748	0.125154
C50	C	-0.000068	-0.548056	0.127187
C51	C	-0.000062	-0.631192	0.128814
C52	C	-0.000055	-0.735507	0.130847
C53	C	-0.000057	-1.086770	-0.517868
C54	C	-0.000061	-1.088803	-0.413560
C55	C	-0.000065	-1.090430	-0.330423
C56	C	-0.000069	-1.092463	-0.226109
C57	C	-0.000059	-1.083168	0.296606
C58	C	-0.000055	-1.085156	0.398987
H59	H	-0.271382	-1.203194	0.014485
H60	H	-0.556238	-0.913410	0.304070
H61	H	-0.159088	-0.976008	0.241559
H62	H	-0.841065	-0.976082	0.241503
H63	H	-0.728709	-1.203247	0.014450
O64	O	-0.154283	-1.213056	0.004593
C65	C	-0.194883	-1.268329	-0.050620
H66	H	-0.239022	-1.230518	-0.051748
H67	H	-0.201469	-1.336882	-0.020523
C68	C	-0.116500	-1.333618	-0.148681
C69	C	-0.170711	-1.287174	-0.150073
H70	H	-0.101589	-1.345246	-0.210028
H71	H	-0.089147	-1.296382	-0.111481
H72	H	-0.121996	-1.390740	-0.123596
H73	H	-0.165213	-1.230047	-0.175147
H74	H	-0.198063	-1.324400	-0.187280
H75	H	-0.443915	-0.913396	0.304069
O76	O	-0.845999	-1.212999	0.004641
C77	C	-0.907289	-1.199586	0.018076
H78	H	-0.915746	-1.126325	0.052387
H79	H	-0.924862	-1.251858	0.064445
C80	C	-0.928690	-1.303265	-0.118374
C81	C	-0.939078	-1.213282	-0.076240
H82	H	-0.948300	-1.311718	-0.176552
H83	H	-0.887398	-1.312305	-0.127425
H84	H	-0.943334	-1.346816	-0.079724
H85	H	-0.924427	-1.169734	-0.114885
H86	H	-0.980368	-1.204235	-0.067199
H87	H	-0.271425	-0.976016	0.241556
O88	O	-0.439104	-1.275685	-0.058021
C89	C	-0.479709	-1.330952	-0.113229
H90	H	-0.523847	-1.293139	-0.114344
H91	H	-0.486292	-1.399509	-0.083136
C92	C	-0.401335	-1.396236	-0.211313
C93	C	-0.455546	-1.349790	-0.212688
H94	H	-0.386430	-1.407861	-0.272663
H95	H	-0.373978	-1.359005	-0.174117
H96	H	-0.406828	-1.453361	-0.186231
H97	H	-0.450051	-1.292662	-0.237759
H98	H	-0.482902	-1.387013	-0.249892
O99	O	-0.561089	-1.275540	-0.058031
C100	C	-0.596920	-1.226086	-0.115037
H101	H	-0.578276	-1.153350	-0.116760
H102	H	-0.643852	-1.221318	-0.086196
C103	C	-0.620749	-1.366098	-0.211823
C104	C	-0.597847	-1.276764	-0.213946
H105	H	-0.621323	-1.397359	-0.272834
H106	H	-0.596611	-1.399417	-0.173415
H107	H	-0.659857	-1.362112	-0.187785
H108	H	-0.558738	-1.280751	-0.237973
H109	H	-0.621979	-1.243447	-0.252360
H110	H	-0.728744	-0.976054	0.241501
