data_functionalizedCrystal
_audit_creation_method	'MofGen! by Chris Wilmer'
_symmetry_space_group_name_H-M	'P1'
_symmetry_Int_Tables_number	1
_symmetry_cell_setting	triclinic
loop_
_symmetry_equiv_pos_as_xyz
  x,y,z
_cell_length_a	19.077105
_cell_length_b	15.297327
_cell_length_c	19.077174
_cell_angle_alpha	102.301226
_cell_angle_beta	85.483752
_cell_angle_gamma	97.818066
loop_
_atom_site_label
_atom_site_type_symbol
_atom_site_fract_x
_atom_site_fract_y
_atom_site_fract_z
Zn1	Zn	1.036793	-0.438342	-0.498707
Zn2	Zn	1.536793	0.061658	0.001293
Zn3	Zn	1.013211	-0.582892	-0.399571
Zn4	Zn	1.513211	-0.082892	0.100429
Zn5	Zn	0.915816	-0.425731	-0.374469
Zn6	Zn	1.415816	0.074269	0.125531
Zn7	Zn	0.900112	-0.582833	-0.512681
Zn8	Zn	1.400112	-0.082833	-0.012681
O9	O	0.966483	-0.507450	-0.446357
O10	O	1.466483	-0.007450	0.053643
O11	O	1.131627	-0.462820	-0.490214
O12	O	1.631627	0.037180	0.009786
O13	O	0.996994	-0.556791	-0.296910
O14	O	1.496994	-0.056791	0.203090
O15	O	0.948305	-0.301162	-0.374596
O16	O	1.448305	0.198838	0.125404
O17	O	1.114301	-0.569019	-0.417379
O18	O	1.614301	-0.069019	0.082621
O19	O	1.037187	-0.310428	-0.465873
O20	O	1.537187	0.189572	0.034127
O21	O	0.925438	-0.441326	-0.278468
O22	O	1.425438	0.058674	0.221532
O23	O	0.815771	-0.441269	-0.388146
O24	O	1.315771	0.058731	0.111854
O25	O	0.921541	-0.568919	-0.610159
O26	O	1.421541	-0.068919	-0.110159
O27	O	0.804234	-0.556690	-0.489690
O28	O	1.304234	-0.056690	0.010310
O29	O	1.021960	-0.462762	-0.599892
O30	O	1.521960	0.037238	-0.099892
O31	O	0.981766	-0.709126	-0.430929
O32	O	1.481766	-0.209126	0.069071
O33	O	0.898673	-0.709082	-0.514031
O34	O	1.398673	-0.209082	-0.014031
C35	C	0.784602	-0.497605	-0.437711
C36	C	1.284602	0.002395	0.062289
C37	C	0.706790	-0.493417	-0.434032
C38	C	1.206790	0.006583	0.065968
C39	C	0.664232	-0.551626	-0.485112
C40	C	1.164232	-0.051626	0.014888
C41	C	0.591121	-0.547678	-0.481656
C42	C	1.091121	-0.047678	0.018344
C43	C	0.560569	-0.485525	-0.427118
C44	C	1.060569	0.014475	0.072882
C45	C	0.603133	-0.427310	-0.376035
C46	C	1.103133	0.072690	0.123965
C47	C	0.676243	-0.431254	-0.379494
C48	C	1.176243	0.068746	0.120506
C49	C	0.342558	-0.467273	-0.411113
C50	C	0.842558	0.032727	0.088887
C51	C	0.269442	-0.463335	-0.407657
C52	C	0.769442	0.036665	0.092343
C53	C	0.257435	-0.583703	-0.513280
C54	C	0.757435	-0.083703	-0.013280
C55	C	0.330546	-0.587645	-0.516731
C56	C	0.830546	-0.087645	-0.016731
C57	C	0.373105	-0.529427	-0.465651
C58	C	0.873105	-0.029427	0.034349
N59	N	0.485838	-0.481491	-0.423583
N60	N	0.985838	0.018509	0.076417
N61	N	0.447835	-0.533457	-0.469189
N62	N	0.947835	-0.033457	0.030811
C63	C	0.935976	-0.741839	-0.476737
C64	C	1.435976	-0.241839	0.023263
C65	C	0.922990	-0.842116	-0.489760
C66	C	1.422990	-0.342116	0.010240
C67	C	1.059593	-1.124762	-0.353534
C68	C	1.559593	-0.624762	0.146466
C69	C	1.071793	-1.030546	-0.341295
C70	C	1.571793	-0.530546	0.158705
C71	C	1.034594	-0.983434	-0.378410
C72	C	1.534594	-0.483434	0.121590
C73	C	0.985191	-1.030547	-0.427767
C74	C	1.485191	-0.530547	0.072233
C75	C	0.972985	-1.124772	-0.440003
C76	C	1.472985	-0.624772	0.059997
C77	C	0.947987	-0.983444	-0.464879
C78	C	1.447987	-0.483444	0.035121
C79	C	0.898584	-1.030557	-0.514236
C80	C	1.398584	-0.530557	-0.014236
C81	C	0.886381	-1.124773	-0.526471
C82	C	1.386381	-0.624773	-0.026471
C83	C	0.923580	-1.171885	-0.489356
C84	C	1.423580	-0.671885	0.010644
C85	C	0.960192	-0.889219	-0.452643
C86	C	1.460192	-0.389219	0.047357
C87	C	0.873585	-0.889229	-0.539112
C88	C	1.373585	-0.389229	-0.039112
C89	C	0.861385	-0.983445	-0.551352
C90	C	1.361385	-0.483445	-0.051352
C91	C	1.149074	-0.517333	-0.455038
C92	C	1.649074	-0.017333	0.044962
C93	C	1.226884	-0.521545	-0.458737
C94	C	1.726884	-0.021545	0.041263
C95	C	0.972629	-0.517241	-0.631501
C96	C	1.472629	-0.017241	-0.131501
C97	C	0.975248	-0.521413	-0.710399
C98	C	1.475248	-0.021413	-0.210399
C99	C	0.997128	-0.272147	-0.415876
C100	C	1.497128	0.227853	0.084124
C101	C	1.010187	-0.171875	-0.402886
C102	C	1.510187	0.328125	0.097114
C103	C	0.939225	-0.463258	-0.737862
C104	C	1.439225	0.036742	-0.237862
C105	C	0.941683	-0.467186	-0.811996
C106	C	1.441683	0.032814	-0.311996
C107	C	0.980167	-0.529265	-0.858663
C108	C	1.480167	-0.029265	-0.358663
C109	C	1.016191	-0.587426	-0.831195
C110	C	1.516191	-0.087426	-0.331195
C111	C	1.013729	-0.583502	-0.757064
C112	C	1.513729	-0.083502	-0.257064
C113	C	0.991521	-0.547451	-1.081404
C114	C	1.491521	-0.047451	-0.581404
C115	C	0.993982	-0.551369	-1.155540
C116	C	1.493982	-0.051369	-0.655540
C117	C	0.919472	-0.431130	-1.136335
C118	C	1.419472	0.068870	-0.636335
C119	C	0.917017	-0.427207	-1.062203
C120	C	1.417017	0.072793	-0.562203
C121	C	0.953038	-0.485372	-1.034741
C122	C	1.453038	0.014628	-0.534741
N123	N	0.982682	-0.533279	-0.934440
N124	N	1.482682	-0.033279	-0.434440
N125	N	0.950519	-0.481361	-0.958967
N126	N	1.450519	0.018639	-0.458967
C127	C	0.960409	-0.497633	-0.261927
C128	C	1.460409	0.002367	0.238073
C129	C	0.957959	-0.493214	-0.183004
C130	C	1.457959	0.006786	0.316996
H131	H	0.355416	-0.638259	-0.561141
H132	H	0.855416	-0.138259	-0.061141
N133	N	0.211534	-0.646493	-0.568371
N134	N	0.711534	-0.146493	-0.068371
H135	H	0.160583	-0.634566	-0.557907
H136	H	0.660583	-0.134566	-0.057907
H137	H	0.227822	-0.635923	-0.617882
H138	H	0.727822	-0.135923	-0.117882
H139	H	1.112015	-0.992190	-0.301108
H140	H	1.612015	-0.492190	0.198892
H141	H	0.885676	-0.376658	-1.024210
H142	H	1.385676	0.123342	-0.524210
N143	N	0.833454	-0.838428	-0.579144
N144	N	1.333454	-0.338428	-0.079144
H145	H	0.848684	-0.771592	-0.563905
H146	H	1.348684	-0.271592	-0.063905
H147	H	0.843863	-0.858128	-0.632499
H148	H	1.343863	-0.358128	-0.132499
N149	N	1.099714	-1.175565	-0.313504
N150	N	1.599714	-0.675565	0.186496
H151	H	1.089314	-1.155933	-0.260139
H152	H	1.589314	-0.655933	0.239861
H153	H	1.084468	-1.242388	-0.328798
H154	H	1.584468	-0.742388	0.171202
H155	H	0.244571	-0.412713	-0.363248
H156	H	0.744571	0.087287	0.136752
H157	H	0.907891	-0.412702	-0.699869
H158	H	1.407891	0.087298	-0.199869
N159	N	0.902827	-0.404465	-0.841618
N160	N	1.402827	0.095535	-0.341618
H161	H	0.878077	-0.364540	-0.800806
H162	H	1.378077	0.135460	-0.300806
H163	H	0.937780	-0.365890	-0.868326
H164	H	1.437780	0.134110	-0.368326
H165	H	0.689101	-0.602240	-0.529521
H166	H	1.189101	-0.102240	-0.029521
N167	N	0.880606	-0.368416	-1.165955
N168	N	1.380606	0.131584	-0.665955
H169	H	0.887998	-0.380324	-1.219999
H170	H	1.387998	0.119676	-0.719999
H171	H	0.828354	-0.379083	-1.152434
H172	H	1.328354	0.120917	-0.652434
N173	N	1.047760	-0.881816	-0.365211
N174	N	1.547760	-0.381816	0.134789
H175	H	1.065155	-0.862355	-0.411573
H176	H	1.565155	-0.362355	0.088427
H177	H	1.002226	-0.855957	-0.346884
H178	H	1.502226	-0.355957	0.153116
N179	N	0.570181	-0.360279	-0.317207
N180	N	1.070181	0.139721	0.182793
H181	H	0.608238	-0.324001	-0.285373
H182	H	1.108238	0.175999	0.214627
H183	H	0.546237	-0.318482	-0.339314
H184	H	1.046237	0.181518	0.160686
H185	H	1.020843	-0.594822	-1.059055
H186	H	1.520843	-0.094822	-0.559055
N187	N	1.035496	-0.618325	-1.205877
N188	N	1.535496	-0.118325	-0.705877
H189	H	1.057941	-0.654578	-1.177233
H190	H	1.557941	-0.154578	-0.677233
H191	H	1.002584	-0.660154	-1.240691
H192	H	1.502584	-0.160154	-0.740691
N193	N	0.910421	-1.273506	-0.502560
N194	N	1.410421	-0.773506	-0.002560
H195	H	0.941486	-1.296198	-0.471560
H196	H	1.441486	-0.796198	0.028440
H197	H	0.859014	-1.292903	-0.490157
H198	H	1.359014	-0.792903	0.009843
N199	N	0.833086	-1.175589	-0.579692
N200	N	1.333086	-0.675589	-0.079692
H201	H	0.811371	-1.131450	-0.601348
H202	H	1.311371	-0.631450	-0.101348
H203	H	0.857586	-1.217916	-0.618989
H204	H	1.357586	-0.717916	-0.118989
N205	N	1.057691	-0.654394	-0.881527
N206	N	1.557691	-0.154394	-0.381527
H207	H	1.053785	-0.648057	-0.932657
H208	H	1.553785	-0.148057	-0.432657
H209	H	1.109086	-0.642381	-0.869129
H210	H	1.609086	-0.142381	-0.369129
N211	N	0.722150	-0.368466	-0.324405
N212	N	1.222150	0.131534	0.175595
H213	H	0.691703	-0.328493	-0.289330
H214	H	1.191703	0.171507	0.210670
H215	H	0.746619	-0.405013	-0.297693
H216	H	1.246619	0.094987	0.202307
N217	N	1.052584	-0.646231	-0.727446
N218	N	1.552584	-0.146231	-0.227446
H219	H	1.104855	-0.635610	-0.740909
H220	H	1.604855	-0.135610	-0.240909
H221	H	1.045130	-0.634301	-0.673409
H222	H	1.545130	-0.134301	-0.173409
N223	N	0.808094	-1.034266	-0.604575
N224	N	1.308094	-0.534266	-0.104575
H225	H	0.786376	-0.990130	-0.626232
H226	H	1.286376	-0.490130	-0.126232
H227	H	0.832597	-1.076590	-0.643870
H228	H	1.332597	-0.576590	-0.143870
N229	N	0.545218	-0.610474	-0.536742
N230	N	1.045218	-0.110474	-0.036742
H231	H	0.561446	-0.599949	-0.586281
H232	H	1.061446	-0.099949	-0.086281
H233	H	0.549209	-0.674975	-0.534510
H234	H	1.049209	-0.174975	-0.034510
N235	N	0.388457	-0.404470	-0.356031
N236	N	0.888457	0.095530	0.143969
H237	H	0.358007	-0.364498	-0.320960
H238	H	0.858007	0.135502	0.179040
H239	H	0.412932	-0.441005	-0.329314
H240	H	0.912932	0.058995	0.170686
N241	N	1.013480	-0.838418	-0.399417
N242	N	1.513480	-0.338418	0.100583
H243	H	1.051927	-0.802558	-0.424748
H244	H	1.551927	-0.302558	0.075252
H245	H	0.988969	-0.796144	-0.360089
H246	H	1.488969	-0.296144	0.139911
