data_functionalizedCrystal
_audit_creation_method	'MofGen! by Chris Wilmer'
_symmetry_space_group_name_H-M	'P1'
_symmetry_Int_Tables_number	1
_symmetry_cell_setting	triclinic
loop_
_symmetry_equiv_pos_as_xyz
  x,y,z
_cell_length_a	16.098538
_cell_length_b	10.654550
_cell_length_c	10.654550
_cell_angle_alpha	95.515071
_cell_angle_beta	87.247749
_cell_angle_gamma	87.238141
loop_
_atom_site_label
_atom_site_type_symbol
_atom_site_fract_x
_atom_site_fract_y
_atom_site_fract_z
O1	O	0.069188	-1.673410	0.170841
O2	O	0.069203	-1.307933	0.187646
O3	O	0.069196	-1.499075	-0.003496
O4	O	0.069195	-1.482269	0.361982
O5	O	-0.069317	-1.487909	0.007625
O6	O	-0.069310	-1.296767	0.198767
O7	O	-0.069324	-1.662244	0.181962
Zn8	Zn	-0.091309	-1.477733	0.192130
Zn9	Zn	0.091187	-1.492445	0.177477
O10	O	-0.069317	-1.471103	0.373104
C11	C	-0.000051	-1.255552	0.191972
C12	C	-0.000046	-1.116109	0.188280
C13	C	-0.000058	-1.492258	-0.044733
C14	C	-0.000053	-1.488566	-0.184177
N15	N	-0.215858	-1.467702	0.202130
C16	C	-0.259446	-1.548860	0.121031
C17	C	-0.346634	-1.541855	0.128038
C18	C	-0.390233	-1.453696	0.216151
C19	C	-0.346639	-1.372529	0.297254
C20	C	-0.259452	-1.379529	0.290240
C21	C	-0.653483	-1.428319	0.241556
C22	C	-0.740676	-1.421327	0.248567
C23	C	-0.740665	-1.590652	0.079349
C24	C	-0.653476	-1.597650	0.072348
C25	C	-0.609890	-1.516478	0.153446
C26	C	-0.479354	-1.446536	0.223318
C27	C	-0.520770	-1.523633	0.146272
N28	N	0.215736	-1.502486	0.167468
C29	C	-0.000068	-1.714625	0.177635
C30	C	-0.000069	-1.854069	0.181327
C31	C	-0.000048	-1.036624	0.300822
C32	C	-0.000063	-0.905602	0.297346
C33	C	-0.000069	-0.933564	0.068777
C34	C	-0.000060	-1.064583	0.072254
C35	C	0.075444	-1.489436	-0.386779
C36	C	0.075449	-1.492918	-0.255760
C37	C	-0.075564	-1.480745	-0.243623
C38	C	-0.075569	-1.477272	-0.374641
C39	C	-0.000061	-1.477920	0.414341
C40	C	-0.000062	-1.481612	0.553784
H41	H	-0.223953	-1.620653	0.049285
H42	H	-0.000066	-0.840889	0.388989
C43	C	0.157364	-1.494340	-0.464659
C44	C	0.161770	-1.600540	-0.553448
C45	C	0.237221	-1.605091	-0.625214
H46	H	0.202397	-1.499565	-0.410638
H47	H	0.160516	-1.420164	-0.507154
H48	H	0.158626	-1.674698	-0.510955
H49	H	0.116754	-1.595338	-0.607495
H50	H	0.240372	-1.530915	-0.667709
H51	H	0.282248	-1.610313	-0.571183
H52	H	0.240217	-1.677140	-0.685473
H53	H	-0.382123	-1.607939	0.062000
C54	C	0.157516	-1.501345	-0.191454
C55	C	0.223636	-1.504371	-0.282180
C56	C	0.299250	-1.512119	-0.222988
H57	H	0.160775	-1.576053	-0.149542
H58	H	0.160703	-1.429820	-0.131679
H59	H	0.220450	-1.575890	-0.341932
H60	H	0.220404	-1.429670	-0.324097
H61	H	0.302438	-1.440594	-0.163213
H62	H	0.302501	-1.586828	-0.181078
H63	H	0.344121	-1.514161	-0.284534
C64	C	-0.787941	-1.678970	-0.008571
C65	C	-0.766735	-1.804261	0.011248
C66	C	-0.810275	-1.885652	-0.069720
H67	H	-0.773691	-1.665908	-0.093714
H68	H	-0.846120	-1.662263	0.008223
H69	H	-0.708569	-1.820961	-0.005555
H70	H	-0.780987	-1.817362	0.096375
H71	H	-0.868454	-1.868945	-0.052926
H72	H	-0.796021	-1.872579	-0.154858
H73	H	-0.795899	-1.970670	-0.056276
H74	H	-0.514860	-1.374757	0.295064
C75	C	-0.157598	-1.475794	-0.166027
C76	C	-0.203144	-1.363424	-0.181077
C77	C	-0.278721	-1.358813	-0.109626
H78	H	-0.146893	-1.478899	-0.079448
H79	H	-0.188683	-1.545783	-0.193947
H80	H	-0.172065	-1.293454	-0.153150
H81	H	-0.213870	-1.360294	-0.267640
H82	H	-0.309806	-1.428802	-0.137546
H83	H	-0.268008	-1.361922	-0.023052
H84	H	-0.309636	-1.282577	-0.119837
C85	C	-0.606118	-1.340072	0.329412
C86	C	-0.556090	-1.266602	0.257785
C87	C	-0.512448	-1.185288	0.338682
H88	H	-0.572031	-1.388301	0.379396
H89	H	-0.644543	-1.286500	0.382881
H90	H	-0.517670	-1.320167	0.204338
H91	H	-0.590156	-1.218347	0.207803
H92	H	-0.550873	-1.131716	0.392151
H93	H	-0.478366	-1.233527	0.388663
H94	H	-0.478505	-1.135421	0.290096
C95	C	0.000075	-1.151052	-0.049856
C96	C	0.071330	-1.232838	-0.060242
C97	C	0.071474	-1.312520	-0.172698
H98	H	0.000114	-1.101763	-0.119560
H99	H	-0.048200	-1.198936	-0.049378
H100	H	0.119592	-1.184959	-0.060731
H101	H	0.071306	-1.282155	0.009435
H102	H	0.023199	-1.360404	-0.172219
H103	H	0.071510	-1.263221	-0.242393
H104	H	0.119815	-1.368029	-0.179754
C105	C	-0.606408	-1.693186	-0.023798
C106	C	-0.627876	-1.669684	-0.145490
C107	C	-0.584624	-1.757649	-0.234212
H108	H	-0.620718	-1.776022	-0.008488
H109	H	-0.548189	-1.685944	-0.016756
H110	H	-0.686082	-1.676938	-0.152527
H111	H	-0.613563	-1.586865	-0.160840
H112	H	-0.526406	-1.750407	-0.227171
H113	H	-0.598938	-1.840479	-0.218891
H114	H	-0.599178	-1.741707	-0.316791
C115	C	-0.212168	-1.291559	0.378501
C116	C	-0.233346	-1.311313	0.503813
C117	C	-0.189797	-1.230304	0.585151
H118	H	-0.226432	-1.206428	0.365398
H119	H	-0.153991	-1.308359	0.361787
H120	H	-0.291510	-1.294504	0.520520
H121	H	-0.219080	-1.396429	0.516955
H122	H	-0.131620	-1.247104	0.568437
H123	H	-0.204064	-1.145177	0.572037
H124	H	-0.204154	-1.243704	0.670184
H125	H	-0.776170	-1.349534	0.320324
C126	C	-0.000034	-0.877380	-0.057067
C127	C	-0.000018	-0.745627	-0.036029
C128	C	0.000028	-0.693832	-0.151930
H129	H	-0.048322	-0.900573	-0.099673
H130	H	0.048289	-0.908412	-0.107346
H131	H	-0.048335	-0.714607	0.014230
H132	H	0.048267	-0.722399	0.006558
H133	H	0.048351	-0.724865	-0.202210
H134	H	-0.048261	-0.717035	-0.194528
H135	H	0.000047	-0.604435	-0.137673
C136	C	-0.000083	-1.092322	0.426918
C137	C	-0.000112	-0.994660	0.524733
C138	C	-0.000158	-1.045915	0.640914
H139	H	0.048209	-1.146715	0.429330
H140	H	-0.048402	-1.138932	0.436973
H141	H	0.048202	-0.948070	0.514682
H142	H	-0.048401	-0.940259	0.522363
H143	H	-0.048477	-1.092525	0.650969
H144	H	0.048135	-1.100307	0.643313
H145	H	-0.000185	-0.979659	0.707296
H146	H	-0.382143	-1.300742	0.368993
H147	H	-0.485269	-1.595408	0.074525
H148	H	-0.137058	-1.470904	-0.423035
