data_functionalizedCrystal
_audit_creation_method	'MofGen! by Chris Wilmer'
_symmetry_space_group_name_H-M	'P1'
_symmetry_Int_Tables_number	1
_symmetry_cell_setting	triclinic
loop_
_symmetry_equiv_pos_as_xyz
  x,y,z
_cell_length_a	19.188930
_cell_length_b	14.185569
_cell_length_c	15.625429
_cell_angle_alpha	59.452262
_cell_angle_beta	83.711404
_cell_angle_gamma	103.095687
loop_
_atom_site_label
_atom_site_type_symbol
_atom_site_fract_x
_atom_site_fract_y
_atom_site_fract_z
O1	O	0.900559	-0.136904	0.146199
O2	O	0.696165	-0.142880	0.162819
O3	O	0.813734	-0.087466	0.010366
O4	O	0.782990	-0.192318	0.298653
O5	O	0.848464	0.095736	-0.034665
O6	O	0.730895	0.040323	0.117788
O7	O	0.935289	0.046298	0.101168
Cu8	Cu	0.836264	0.060038	0.105366
Cu9	Cu	0.795191	-0.156620	0.158621
O10	O	0.817721	-0.009116	0.253622
C11	C	0.687556	-0.051073	0.139763
C12	C	0.610164	-0.050456	0.138138
N13	N	0.865157	0.212424	0.067909
N14	N	0.766303	-0.309003	0.196070
C15	C	0.559338	-0.083010	0.227603
C16	C	0.486612	-0.082470	0.226086
C17	C	0.464712	-0.049395	0.135105
C18	C	0.515550	-0.016830	0.045627
C19	C	0.588276	-0.017360	0.047144
N20	N	0.349489	-0.086496	0.080896
N21	N	0.280400	-0.085997	0.079462
C22	C	0.245593	-0.047792	0.130530
N23	N	0.282479	-0.010125	0.183105
N24	N	0.351572	-0.010630	0.184543
C25	C	0.385854	-0.048815	0.133451
C26	C	0.115909	-0.079761	0.218356
C27	C	0.043183	-0.079213	0.216834
C28	C	0.072120	-0.013583	0.036376
C29	C	0.144846	-0.014121	0.037897
C30	C	0.166734	-0.047217	0.128892
C31	C	0.943897	-0.045511	0.124226
C32	C	1.021288	-0.046136	0.125852
C33	C	0.833150	0.017548	-0.049032
C34	C	0.839255	0.057514	-0.158929
C35	C	0.681417	0.493505	0.306076
C36	C	0.703308	0.608837	0.277710
C37	C	0.807431	0.657849	0.142762
C38	C	0.785546	0.542520	0.171114
C39	C	0.722540	0.460356	0.252773
C40	C	0.826669	0.509371	0.117811
C41	C	0.804789	0.394050	0.146164
C42	C	0.741785	0.311879	0.227821
C43	C	0.700659	0.345035	0.281126
C44	C	0.889679	0.591535	0.036157
C45	C	0.930801	0.558386	-0.017147
C46	C	0.908918	0.443065	0.011202
C47	C	0.845915	0.360894	0.092859
C48	C	0.950044	0.409909	-0.042103
C49	C	0.928164	0.294588	-0.013749
C50	C	0.824034	0.245574	0.121213
C51	C	0.764663	-0.310321	-0.397645
C52	C	0.770403	-0.272733	-0.500918
C53	C	0.808264	-0.073018	-0.549994
C54	C	0.802531	-0.110590	-0.446724
C55	C	0.780729	-0.229242	-0.370557
C56	C	0.818597	-0.029511	-0.419636
C57	C	0.812861	-0.067080	-0.316374
C58	C	0.791058	-0.185727	-0.240200
C59	C	0.774993	-0.266811	-0.267295
C60	C	0.840393	0.089141	-0.495804
C61	C	0.856459	0.170220	-0.468715
C62	C	0.850728	0.132652	-0.365453
C63	C	0.828926	0.014004	-0.289279
C64	C	0.866793	0.213735	-0.338359
C65	C	0.861057	0.176167	-0.235097
C66	C	0.823189	-0.023565	-0.186018
C67	C	0.798303	-0.114132	0.313020
C68	C	0.792197	-0.154105	0.422919
H69	H	0.577154	-0.109962	0.301698
Br70	Br	0.213828	0.030060	-0.083525
H71	H	0.858733	0.724759	0.076277
H72	H	0.001801	-0.105717	0.289688
Br73	Br	0.145621	-0.124668	0.341843
Br74	Br	0.745419	-0.427841	-0.163917
H75	H	0.630106	0.426605	0.372564
Br76	Br	0.417623	-0.126648	0.347509
H77	H	0.884537	0.310342	-0.400387
Br78	Br	0.712093	0.155367	0.266310
Br79	Br	0.783273	-0.236719	-0.100056
H80	H	0.054277	0.013279	-0.037686
H81	H	0.746917	-0.406939	-0.335625
Br82	Br	0.615139	0.233525	0.391938
H83	H	0.982104	0.625295	-0.083632
Br84	Br	0.485832	0.028069	-0.077851
H85	H	0.805443	-0.120183	-0.123997
H86	H	0.629660	0.009150	-0.025711
H87	H	0.757312	-0.338767	-0.522964
Br88	Br	1.035560	0.521421	-0.152909
Br89	Br	0.882863	0.286202	-0.198328
H90	H	0.907493	0.685433	0.013078
H91	H	0.772723	0.178673	0.187701
Br92	Br	0.983978	0.249596	-0.086086
Br93	Br	0.837842	0.088004	-0.653369
H94	H	0.669816	0.635817	0.321124
H95	H	0.845056	0.119725	-0.579883
Br96	Br	0.886037	0.331243	-0.572091
