data_functionalizedCrystal
_audit_creation_method	'MofGen! by Chris Wilmer'
_symmetry_space_group_name_H-M	'P1'
_symmetry_Int_Tables_number	1
_symmetry_cell_setting	triclinic
loop_
_symmetry_equiv_pos_as_xyz
  x,y,z
_cell_length_a	19.805405
_cell_length_b	19.805407
_cell_length_c	19.805399
_cell_angle_alpha	90.019573
_cell_angle_beta	90.029301
_cell_angle_gamma	90.026410
loop_
_atom_site_label
_atom_site_type_symbol
_atom_site_fract_x
_atom_site_fract_y
_atom_site_fract_z
Zn1	Zn	-0.269479	1.034736	0.382712
Zn2	Zn	-0.382667	1.034651	0.269520
Zn3	Zn	-0.269498	0.921550	0.269536
Zn4	Zn	-0.382631	0.921514	0.382667
O5	O	-0.326069	0.978113	0.326109
O6	O	-0.284501	1.129441	0.367708
O7	O	-0.367678	1.019627	0.174805
O8	O	-0.174778	0.936616	0.284575
O9	O	-0.367660	1.129378	0.284547
O10	O	-0.174765	1.019772	0.367724
O11	O	-0.284533	0.936533	0.174817
O12	O	-0.284498	0.826829	0.284531
O13	O	-0.367598	0.936553	0.477389
O14	O	-0.367617	0.826802	0.367648
O15	O	-0.284466	1.019737	0.477422
O16	O	-0.477379	1.019592	0.284503
O17	O	-0.477353	0.936471	0.367632
C18	C	-0.326056	0.802257	0.326087
C19	C	-0.326067	0.727025	0.326093
C20	C	-0.501925	0.978036	0.326076
C21	C	-0.577157	0.978066	0.326084
C22	C	-0.369412	0.691684	0.369302
C23	C	-0.369413	0.620996	0.369312
C24	C	-0.326072	0.585649	0.326109
C25	C	-0.282722	0.620994	0.282898
C26	C	-0.282718	0.691681	0.282892
C27	C	-0.282737	0.335921	0.282920
C28	C	-0.282746	0.265229	0.282928
C29	C	-0.369432	0.265235	0.369340
C30	C	-0.369428	0.335922	0.369334
C31	C	-0.326076	0.371262	0.326126
C32	C	-0.326074	0.447910	0.326117
C33	C	-0.326076	0.509002	0.326114
C34	C	-0.612492	1.021389	0.282845
C35	C	-0.683181	1.021418	0.282860
C36	C	-0.718532	0.978119	0.326111
C37	C	-0.683192	0.934794	0.369356
C38	C	-0.612505	0.934769	0.369344
C39	C	-0.968265	0.934894	0.369406
C40	C	-1.038957	0.934921	0.369413
C41	C	-1.038941	1.021542	0.282922
C42	C	-0.968254	1.021517	0.282910
C43	C	-0.932920	0.978195	0.326157
C44	C	-0.856271	0.978166	0.326141
C45	C	-0.795179	0.978145	0.326124
C46	C	-0.149526	0.978207	0.326156
C47	C	-0.074294	0.978248	0.326177
C48	C	-0.326026	0.978151	0.502651
C49	C	-0.326008	0.978167	0.577883
C50	C	-0.326082	1.154655	0.326131
C51	C	-0.326088	1.229887	0.326140
C52	C	-0.326062	0.978114	0.150253
C53	C	-0.325890	0.978229	0.075021
C54	C	-0.282719	1.021481	0.613246
C55	C	-0.282699	1.021488	0.683934
C56	C	-0.325973	0.978184	0.719259
C57	C	-0.369264	0.934864	0.683892
C58	C	-0.369279	0.934854	0.613204
C59	C	-0.369201	0.934902	0.968965
C60	C	-0.369183	0.934917	1.039657
C61	C	-0.282620	1.021536	1.039695
C62	C	-0.282636	1.021527	0.969008
C63	C	-0.325924	0.978205	0.933647
C64	C	-0.325944	0.978197	0.856998
C65	C	-0.325957	0.978194	0.795906
H66	H	-0.404707	0.720458	0.404481
H67	H	-0.247448	0.236452	0.247747
C68	C	-0.235040	0.730559	0.235364
H69	H	-0.241239	0.777720	0.241553
H70	H	-0.244883	0.718953	0.189869
H71	H	-0.189575	0.718995	0.245361
H72	H	-0.247370	1.056809	1.068495
C73	C	-0.722077	0.887165	0.416930
H74	H	-0.769237	0.893379	0.410740
H75	H	-0.710455	0.897037	0.462416
H76	H	-0.710534	0.841689	0.406974
H77	H	-0.711948	1.056695	0.247649
C78	C	-0.416802	0.887237	0.930077
H79	H	-0.442570	0.861449	0.961241
H80	H	-0.390899	0.857760	0.902513
H81	H	-0.446311	0.913094	0.902489
C82	C	-1.077846	0.887297	0.416996
H83	H	-1.125005	0.893513	0.410802
H84	H	-1.066226	0.897175	0.462480
H85	H	-1.066306	0.841817	0.407047
H86	H	-0.247442	0.364686	0.247733
H87	H	-1.067719	1.056820	0.247711
C88	C	-0.929406	0.887230	0.416963
H89	H	-0.960586	0.861441	0.442715
H90	H	-0.901787	0.913085	0.446479
H91	H	-0.901877	0.857744	0.391030
H92	H	-0.404495	0.899602	0.712659
C93	C	-0.235033	1.069159	0.930154
H94	H	-0.209243	1.094953	0.961339
H95	H	-0.260930	1.098633	0.902575
H96	H	-0.205545	1.043272	0.902585
C97	C	-0.235050	0.582115	0.235373
H98	H	-0.241265	0.534954	0.241559
H99	H	-0.189584	0.593719	0.245358
H100	H	-0.244902	0.593679	0.189876
H101	H	-0.404709	0.592225	0.404496
C102	C	-0.416781	0.887275	1.078514
H103	H	-0.442560	0.861467	1.047330
H104	H	-0.446270	0.913152	1.106085
H105	H	-0.390872	0.857804	1.106090
C106	C	-0.573611	1.069019	0.235268
H107	H	-0.604783	1.094829	0.209524
H108	H	-0.546076	1.043138	0.205747
H109	H	-0.545997	1.098487	0.261188
C110	C	-0.235119	1.069117	0.574392
H111	H	-0.241331	1.062913	0.527228
H112	H	-0.189639	1.059238	0.585987
H113	H	-0.245030	1.114592	0.585984
C114	C	-0.929370	1.069148	0.235336
H115	H	-0.960540	1.094959	0.209590
H116	H	-0.901834	1.043267	0.205815
H117	H	-0.901757	1.098615	0.261258
C118	C	-0.417101	0.374800	0.416859
H119	H	-0.442912	0.343628	0.442600
H120	H	-0.446556	0.402355	0.390915
H121	H	-0.391238	0.402396	0.446397
C122	C	-0.573636	0.887115	0.416908
H123	H	-0.604813	0.861328	0.442666
H124	H	-0.546021	0.912983	0.446418
H125	H	-0.546101	0.857626	0.390984
C126	C	-0.416914	0.887225	0.574306
H127	H	-0.442693	0.861444	0.605467
H128	H	-0.391040	0.857739	0.546724
H129	H	-0.446411	0.913115	0.546736
C130	C	-0.235099	1.069150	0.722833
H131	H	-0.241285	1.062954	0.769991
H132	H	-0.245027	1.114615	0.711248
H133	H	-0.189616	1.059280	0.711265
H134	H	-0.404729	0.236454	0.404524
