data_functionalizedCrystal
_audit_creation_method	'MofGen! by Chris Wilmer'
_symmetry_space_group_name_H-M	'P1'
_symmetry_Int_Tables_number	1
_symmetry_cell_setting	triclinic
loop_
_symmetry_equiv_pos_as_xyz
  x,y,z
_cell_length_a	17.766277
_cell_length_b	19.288862
_cell_length_c	19.288857
_cell_angle_alpha	96.865805
_cell_angle_beta	90.008526
_cell_angle_gamma	89.973986
loop_
_atom_site_label
_atom_site_type_symbol
_atom_site_fract_x
_atom_site_fract_y
_atom_site_fract_z
O1	O	0.062888	-0.921352	0.086641
O2	O	0.062826	-0.719091	0.098332
O3	O	0.062850	-0.826068	-0.008644
O4	O	0.062864	-0.814374	0.193617
O5	O	-0.062339	-0.826050	-0.008650
O6	O	-0.062362	-0.719072	0.098326
O7	O	-0.062300	-0.921333	0.086636
Cu8	Cu	-0.073762	-0.820201	0.092481
Cu9	Cu	0.074288	-0.820223	0.092487
O10	O	-0.062324	-0.814355	0.193612
C11	C	0.000224	-0.693205	0.097953
C12	C	0.000200	-0.616101	0.096825
N13	N	-0.177892	-0.820190	0.092476
C14	C	0.000214	-0.571403	0.159593
C15	C	0.000219	-0.498956	0.158533
C16	C	0.000224	-0.471210	0.094701
C17	C	0.000206	-0.515918	0.031924
C18	C	0.000194	-0.588363	0.032986
C19	C	0.044099	-0.362956	0.044525
C20	C	0.044116	-0.290511	0.043465
C21	C	0.000257	-0.247764	0.091423
C22	C	-0.043607	-0.277469	0.140452
C23	C	-0.043619	-0.349915	0.141514
C24	C	0.000237	-0.392656	0.093543
C25	C	0.000275	-0.124510	0.153047
C26	C	0.000275	-0.052062	0.151984
C27	C	0.000270	-0.069026	0.025373
C28	C	0.000262	-0.141472	0.026438
C29	C	0.000269	-0.169210	0.090276
C30	C	-0.217269	-0.867575	0.045130
C31	C	-0.296071	-0.867579	0.045127
C32	C	-0.335493	-0.820205	0.092481
C33	C	-0.296107	-0.772811	0.139831
C34	C	-0.217307	-0.772804	0.139828
C35	C	-0.460328	-0.810904	0.155769
C36	C	-0.539127	-0.810916	0.155773
C37	C	-0.578539	-0.820223	0.092490
C38	C	-0.539143	-0.829533	0.029200
C39	C	-0.460343	-0.829526	0.029197
C40	C	-0.420939	-0.820207	0.092489
C41	C	-0.703362	-0.867615	0.045136
C42	C	-0.782165	-0.867615	0.045132
C43	C	-0.782200	-0.772850	0.139842
C44	C	-0.703398	-0.772847	0.139840
C45	C	-0.663984	-0.820234	0.092488
N46	N	0.178418	-0.820239	0.092486
C47	C	0.000290	0.052781	0.087017
C48	C	0.000279	-0.024321	0.088151
C49	C	0.000255	-0.825684	-0.034523
C50	C	0.000252	-0.824557	-0.111627
C51	C	0.068493	-0.824041	-0.147835
C52	C	0.068498	-0.822972	-0.220281
C53	C	0.000259	-0.822433	-0.256518
C54	C	-0.067990	-0.822945	-0.220302
C55	C	-0.067994	-0.824007	-0.147856
C56	C	-0.052004	-0.861427	-0.376752
C57	C	-0.051998	-0.860370	-0.449197
C58	C	0.000267	-0.819156	-0.479964
C59	C	0.052537	-0.779008	-0.438279
C60	C	0.052534	-0.780069	-0.365833
C61	C	0.000255	-0.821282	-0.335073
C62	C	0.068517	-0.817480	-0.594726
C63	C	0.068520	-0.816407	-0.667173
C64	C	-0.067970	-0.816387	-0.667193
C65	C	-0.067971	-0.817453	-0.594747
C66	C	0.000275	-0.818003	-0.558518
C67	C	0.000273	-0.814740	0.219491
C68	C	0.000280	-0.815867	0.296595
H69	H	0.000221	-0.593982	0.211576
F70	F	0.000179	-0.635937	-0.033824
H71	H	0.000282	-0.015669	0.203100
H72	H	0.124091	-0.815984	-0.696651
H73	H	-0.671269	-0.906198	0.006577
F74	F	-0.140602	-0.818002	-0.556210
H75	H	-0.428245	-0.803313	0.207305
H76	H	0.124064	-0.824487	-0.118342
F77	F	0.090781	-0.408444	-0.006523
H78	H	0.000228	-0.462556	0.209648
F79	F	-0.175323	-0.918005	-0.005268
H80	H	-0.328137	-0.906167	0.006570
H81	H	-0.814226	-0.906199	0.006574
F82	F	0.108161	-0.737341	-0.321471
F83	F	-0.107622	-0.905310	-0.344018
F84	F	-0.090288	-0.231980	0.191497
F85	F	-0.140615	-0.822367	-0.258868
F86	F	-0.338063	-0.722389	0.190227
F87	F	-0.175398	-0.722368	0.190222
H88	H	-0.123565	-0.824424	-0.118376
H89	H	-0.079338	-0.374097	0.181433
H90	H	0.000255	-0.177867	-0.024675
H91	H	-0.571197	-0.803341	0.207307
H92	H	-0.814297	-0.734274	0.178396
H93	H	0.000270	-0.147095	0.205028
F94	F	-0.661487	-0.722416	0.190235
H95	H	-0.428270	-0.837104	-0.022335
H96	H	-0.123532	-0.815943	-0.696696
F97	F	0.000268	-0.039502	-0.042562
H98	H	0.079836	-0.266331	0.003546
F99	F	0.141131	-0.822423	-0.258824
H100	H	0.000220	-0.493323	-0.020048
H101	H	-0.571231	-0.837111	-0.022332
H102	H	0.095096	-0.745447	-0.463327
H103	H	0.124087	-0.817924	-0.565227
F104	F	-0.107626	-0.903101	-0.493556
