data_functionalizedCrystal
_audit_creation_method	'MofGen! by Chris Wilmer'
_symmetry_space_group_name_H-M	'P1'
_symmetry_Int_Tables_number	1
_symmetry_cell_setting	triclinic
loop_
_symmetry_equiv_pos_as_xyz
  x,y,z
_cell_length_a	24.447405
_cell_length_b	24.446649
_cell_length_c	24.443239
_cell_angle_alpha	60.006064
_cell_angle_beta	60.011844
_cell_angle_gamma	59.992812
loop_
_atom_site_label
_atom_site_type_symbol
_atom_site_fract_x
_atom_site_fract_y
_atom_site_fract_z
O1	O	0.075907	-0.799232	0.668277
O2	O	0.028634	-0.622262	0.538455
O3	O	0.140702	-0.734230	0.538349
O4	O	-0.036160	-0.687265	0.668384
O5	O	0.177886	-0.697056	0.575424
O6	O	0.065818	-0.585088	0.575530
O7	O	0.113091	-0.762059	0.705353
Cu8	Cu	0.092850	-0.670179	0.643827
Cu9	Cu	0.048876	-0.714142	0.599981
O10	O	0.001024	-0.650091	0.705459
N11	N	0.123780	-0.639263	0.674669
N12	N	0.017951	-0.745064	0.569139
C13	C	0.170236	-0.489965	0.721065
C14	C	0.170249	-0.592837	0.721058
C15	C	0.195989	-0.567121	0.746758
C16	C	0.308182	-0.547773	0.687664
C17	C	0.378316	-0.571143	0.664253
C18	C	0.378353	-0.684626	0.707525
C19	C	0.308220	-0.661254	0.730938
C20	C	0.187125	-0.454882	0.652117
C21	C	0.163710	-0.384741	0.628763
C22	C	0.106523	-0.384772	0.743308
C23	C	0.129938	-0.454913	0.766662
C24	C	0.101291	-0.575906	0.738041
C25	C	0.077897	-0.599283	0.714670
C26	C	0.192412	-0.656523	0.657348
C27	C	0.215809	-0.633146	0.680711
C28	C	0.101393	-0.575928	0.859014
C29	C	0.078071	-0.599328	0.929152
C30	C	0.192636	-0.656582	0.929078
C31	C	0.215955	-0.633184	0.858938
C32	C	0.170332	-0.592855	0.823908
C33	C	0.273137	-0.592827	0.721004
C34	C	-0.131205	-0.791294	0.522327
C35	C	-0.028388	-0.791420	0.522551
C36	C	-0.054056	-0.817099	0.496741
C37	C	-0.073479	-0.929255	0.555734
C38	C	-0.050156	-0.999396	0.579142
C39	C	0.063326	-0.999525	0.536064
C40	C	0.040001	-0.929386	0.512654
C41	C	-0.166365	-0.808188	0.591256
C42	C	-0.236499	-0.784726	0.614512
C43	C	-0.236309	-0.727482	0.499907
C44	C	-0.166175	-0.750944	0.476651
C45	C	-0.045285	-0.722468	0.505590
C46	C	-0.021951	-0.699130	0.529061
C47	C	0.035176	-0.813691	0.586439
C48	C	0.011842	-0.837031	0.562976
C49	C	-0.045097	-0.722476	0.384488
C50	C	-0.021613	-0.699140	0.314350
C51	C	0.035607	-0.813706	0.314419
C52	C	0.012124	-0.837041	0.384558
C53	C	-0.028229	-0.791425	0.419591
C54	C	-0.028402	-0.894253	0.522492
N55	N	0.412405	-0.639229	0.674505
O56	O	0.626552	-0.645384	0.514503
O57	O	0.626802	-0.775625	0.691288
O58	O	0.626698	-0.775326	0.579168
O59	O	0.626656	-0.645683	0.626623
O60	O	0.515277	-0.738265	0.616407
O61	O	0.515382	-0.738564	0.728527
O62	O	0.515131	-0.608323	0.551742
Cu63	Cu	0.505083	-0.670059	0.643535
Cu64	Cu	0.636850	-0.713889	0.599495
O65	O	0.515236	-0.608622	0.663862
N66	N	0.729529	-0.744719	0.568518
N67	N	0.123755	-0.350686	0.674680
O68	O	-0.036153	-0.136410	0.668391
O69	O	0.140633	-0.136380	0.538141
O70	O	0.028472	-0.136412	0.538488
O71	O	0.076007	-0.136377	0.668044
O72	O	0.065663	-0.247842	0.575621
O73	O	0.177823	-0.247810	0.575274
O74	O	0.001037	-0.247840	0.705524
Cu75	Cu	0.092826	-0.258000	0.643789
Cu76	Cu	0.048844	-0.126220	0.599875
O77	O	0.113198	-0.247808	0.705177
N78	N	0.017907	-0.033534	0.568986
N79	N	0.124013	-0.639306	0.963182
O80	O	0.117754	-0.799195	1.177439
O81	O	-0.012458	-0.622342	1.177485
O82	O	-0.012155	-0.734480	1.177444
O83	O	0.117450	-0.687057	1.177480
O84	O	0.024954	-0.697317	1.066020
O85	O	0.024650	-0.585179	1.066061
O86	O	0.154862	-0.762032	1.066014
Cu87	Cu	0.093145	-0.670212	1.055863
Cu88	Cu	0.049259	-0.714162	1.187636
O89	O	0.154559	-0.649894	1.066055
N90	N	0.018389	-0.745075	1.280318
C91	C	0.042795	-0.581375	0.539107
C92	C	0.181576	-0.720034	0.538975
C93	C	0.098930	-0.802946	0.704700
C94	C	-0.039851	-0.664287	0.704832
C95	C	0.571122	-0.775030	0.732180
C96	C	0.570995	-0.774660	0.593332
C97	C	0.570808	-0.608917	0.510851
C98	C	0.570939	-0.609288	0.649698
C99	C	0.181453	-0.191954	0.538725
C100	C	0.042602	-0.192131	0.539201
C101	C	-0.039829	-0.192128	0.704893
C102	C	0.099069	-0.192090	0.704464
C103	C	-0.011836	-0.581480	1.121779
C104	C	-0.011453	-0.720342	1.121706
C105	C	0.154240	-0.802894	1.121720
C106	C	0.153865	-0.664024	1.121769
H107	H	0.064236	-0.543084	0.830495
H108	H	-0.090599	-0.192138	0.745784
C109	C	0.208826	-0.870559	1.121564
C110	C	0.264831	-0.861721	1.064231
C111	C	0.315125	-0.924038	1.064059
H112	H	0.221093	-0.890666	1.160375
H113	H	0.192685	-0.898717	1.121514
H114	H	0.280970	-0.833573	1.064287
H115	H	0.252585	-0.841625	1.025410
H116	H	0.298984	-0.952197	1.064009
H117	H	0.327387	-0.944141	1.102873
H118	H	0.353129	-0.918051	1.025157
H119	H	0.073721	-0.356231	0.780438
C120	C	-0.066327	-0.513722	1.121657
C121	C	-0.084145	-0.484313	1.064321
C122	C	-0.134332	-0.421890	1.064180
H123	H	-0.104446	-0.519502	1.160466
H124	H	-0.050159	-0.485540	1.121632
H125	H	-0.100314	-0.512488	1.064352
H126	H	-0.046041	-0.478516	1.025502
H127	H	-0.118164	-0.393709	1.064156
H128	H	-0.172447	-0.427677	1.102993
H129	H	-0.146423	-0.401926	1.025276
C130	C	0.112781	-0.192126	0.758669
C131	C	0.178193	-0.192134	0.734362
C132	C	0.190854	-0.192182	0.784281
H133	H	0.081938	-0.153285	0.770919
H134	H	0.107852	-0.231006	0.796769
H135	H	0.183117	-0.153258	0.696274
H136	H	0.209050	-0.230972	0.722117
H137	H	0.185924	-0.231062	0.822381
H138	H	0.160007	-0.153339	0.796528
H139	H	0.235238	-0.192193	0.767798
H140	H	-0.052152	-0.730472	1.121651
C141	C	0.208086	-0.650359	1.121737
C142	C	0.183798	-0.584941	1.121739
C143	C	0.233730	-0.572326	1.121701
H144	H	0.220339	-0.681210	1.160577
H145	H	0.246180	-0.655314	1.082860
H146	H	0.145716	-0.579992	1.160613
H147	H	0.171549	-0.554076	1.082902
H148	H	0.271824	-0.577282	1.082823
H149	H	0.245980	-0.603182	1.160541
H150	H	0.217260	-0.527938	1.121696
H151	H	0.232372	-0.730046	0.498140
C152	C	0.003199	-0.580969	0.967173
C153	C	-0.025691	-0.604793	0.950117
C154	C	-0.094662	-0.587886	0.985123
H155	H	-0.004254	-0.600663	1.013972
H156	H	-0.016541	-0.533639	0.955677
H157	H	-0.005958	-0.652113	0.961617
H158	H	-0.018257	-0.585102	0.903325
H159	H	-0.114401	-0.540557	0.973628
H160	H	-0.102108	-0.607582	1.031920
H161	H	-0.114273	-0.604043	0.973551
C162	C	0.242278	-0.700373	0.966984
C163	C	0.307643	-0.710196	0.921224
C164	C	0.353392	-0.750541	0.956119
H165	H	0.235645	-0.679015	0.994347
H166	H	0.235611	-0.742446	0.994327
H167	H	0.314307	-0.668131	0.893893
H168	H	0.314297	-0.731562	0.893861
H169	H	0.346725	-0.792613	0.983462
H170	H	0.346753	-0.729179	0.983480
H171	H	0.397747	-0.757216	0.925077
H172	H	0.570930	-0.568565	0.659852
C173	C	0.571079	-0.829535	0.799910
C174	C	0.513782	-0.847386	0.829343
C175	C	0.513717	-0.897588	0.891739
H176	H	0.609912	-0.867643	0.794092
H177	H	0.571058	-0.813364	0.828094
H178	H	0.513809	-0.863559	0.801165
H179	H	0.474940	-0.809293	0.835177
H180	H	0.513696	-0.881418	0.919923
H181	H	0.552553	-0.935693	0.885914
H182	H	0.474839	-0.909703	0.911719
C183	C	0.570736	-0.554486	0.443102
C184	C	0.570727	-0.578505	0.401748
C185	C	0.570668	-0.528385	0.339330
H186	H	0.531867	-0.516405	0.448917
H187	H	0.609582	-0.542284	0.422993
H188	H	0.531885	-0.590697	0.421853
H189	H	0.609592	-0.616579	0.395914
H190	H	0.609514	-0.516182	0.319221
H191	H	0.531798	-0.490307	0.345152
H192	H	0.570668	-0.544676	0.311262
H193	H	0.109031	-0.853782	0.745475
H194	H	0.032695	-0.530537	0.498334
C195	C	0.248980	-0.191575	0.483991
C196	C	0.248827	-0.191481	0.426740
C197	C	0.311027	-0.191148	0.376311
H198	H	0.257006	-0.152640	0.473473
H199	H	0.283253	-0.230361	0.499136
H200	H	0.214565	-0.152699	0.411597
H201	H	0.240813	-0.230413	0.437236
H202	H	0.345300	-0.229934	0.391456
H203	H	0.319047	-0.152212	0.365799
H204	H	0.310934	-0.191090	0.337462
C205	C	-0.107614	-0.650805	0.759209
C206	C	-0.148908	-0.585416	0.735112
C207	C	-0.211332	-0.572970	0.785189
H208	H	-0.127779	-0.681709	0.771457
H209	H	-0.101780	-0.655804	0.797276
H210	H	-0.154744	-0.580424	0.697057
H211	H	-0.128764	-0.554499	0.722869
H212	H	-0.205498	-0.577968	0.823255
H213	H	-0.231491	-0.603877	0.797433
H214	H	-0.239356	-0.528601	0.768848
C215	C	0.570981	-0.828870	0.579679
C216	C	0.570887	-0.804565	0.514292
C217	C	0.570865	-0.854481	0.501695
H218	H	0.609857	-0.866983	0.584584
H219	H	0.532143	-0.841096	0.610581
H220	H	0.609722	-0.792349	0.483400
H221	H	0.532014	-0.766459	0.509372
H222	H	0.532027	-0.866707	0.532596
H223	H	0.609742	-0.892591	0.506603
H224	H	0.570795	-0.837996	0.457332
C225	C	0.029058	-0.192298	0.484996
C226	C	0.013447	-0.249652	0.507990
C227	C	0.000983	-0.249841	0.458072
H228	H	-0.007513	-0.153497	0.474534
H229	H	0.067774	-0.192335	0.445998
H230	H	-0.025264	-0.249609	0.546976
H231	H	0.050010	-0.288462	0.518447
H232	H	0.039698	-0.249878	0.419074
H233	H	-0.035588	-0.211037	0.447614
H234	H	-0.009605	-0.288757	0.473664
C235	C	0.003003	-0.580865	0.733211
C236	C	-0.031891	-0.540580	0.773565
C237	C	-0.100883	-0.523611	0.790668
H238	H	-0.008630	-0.557027	0.693625
H239	H	-0.008495	-0.620525	0.757038
H240	H	-0.020398	-0.500927	0.749738
H241	H	-0.020279	-0.564406	0.813160
H242	H	-0.112381	-0.563271	0.814495
H243	H	-0.112509	-0.499775	0.751079
H244	H	-0.124568	-0.496281	0.818055
H245	H	0.064189	-0.543085	0.770891
C246	C	0.241922	-0.700167	0.613433
C247	C	0.282098	-0.664912	0.555033
C248	C	0.327714	-0.705088	0.514554
H249	H	0.269379	-0.739836	0.637120
H250	H	0.218151	-0.711658	0.601892
H251	H	0.305867	-0.653430	0.566575
H252	H	0.254659	-0.625245	0.531328
H253	H	0.303943	-0.716579	0.503012
H254	H	0.355167	-0.744755	0.538247
H255	H	0.354975	-0.681171	0.474922
C256	C	0.270205	-0.710187	0.767008
C257	C	0.287224	-0.742748	0.724327
C258	C	0.252212	-0.787823	0.757530
H259	H	0.281706	-0.742367	0.805971
H260	H	0.223404	-0.686489	0.779513
H261	H	0.334014	-0.766445	0.711832
H262	H	0.275721	-0.710585	0.685365
H263	H	0.205411	-0.764125	0.770034
H264	H	0.263716	-0.819999	0.796491
H265	H	0.263749	-0.809917	0.728574
C266	C	0.416247	-0.522117	0.628039
C267	C	0.370510	-0.457186	0.624334
C268	C	0.405428	-0.412004	0.590970
H269	H	0.443634	-0.533760	0.651875
H270	H	0.443565	-0.523863	0.584074
H271	H	0.343204	-0.455442	0.668291
H272	H	0.343122	-0.445522	0.600493
H273	H	0.432747	-0.413750	0.547005
H274	H	0.432814	-0.423653	0.614809
H275	H	0.374402	-0.367943	0.588446
H276	H	0.272095	-0.646975	0.830359
C277	C	0.230836	-0.492820	0.602508
C278	C	0.240592	-0.447080	0.537125
C279	C	0.280847	-0.482003	0.491406
H280	H	0.272929	-0.520178	0.609127
H281	H	0.209422	-0.520171	0.609222
H282	H	0.262007	-0.419740	0.530415
H283	H	0.198512	-0.419720	0.530486
H284	H	0.259433	-0.509354	0.498120
H285	H	0.322936	-0.509360	0.498031
H286	H	0.287466	-0.450974	0.447039
C287	C	0.270008	-0.473511	0.677017
C288	C	0.229770	-0.464116	0.739223
C289	C	0.194588	-0.395715	0.729441
H290	H	0.300851	-0.449954	0.653843
H291	H	0.242583	-0.457044	0.651367
H292	H	0.257194	-0.480575	0.764863
H293	H	0.198915	-0.487657	0.762407
H294	H	0.167162	-0.379248	0.703790
H295	H	0.225436	-0.372164	0.706264
H296	H	0.167278	-0.389332	0.771644
H297	H	0.406920	-0.740344	0.715602
C298	C	0.111696	-0.492974	0.841533
C299	C	0.135577	-0.475929	0.870381
C300	C	0.118791	-0.510983	0.939347
H301	H	0.064388	-0.481520	0.861339
H302	H	0.131430	-0.539773	0.848939
H303	H	0.115841	-0.429140	0.862980
H304	H	0.182883	-0.487384	0.850594
H305	H	0.138525	-0.557783	0.946753
H306	H	0.071483	-0.499527	0.959147
H307	H	0.134997	-0.499428	0.958928
C308	C	-0.040041	-0.624250	0.276366
C309	C	-0.080421	-0.589302	0.322062
C310	C	-0.097417	-0.520315	0.287094
H311	H	-0.000417	-0.612706	0.249069
H312	H	-0.063815	-0.612703	0.248951
H313	H	-0.056647	-0.600845	0.349464
H314	H	-0.120054	-0.600826	0.349360
H315	H	-0.121191	-0.508767	0.259679
H316	H	-0.057789	-0.508777	0.259798
H317	H	-0.124821	-0.496594	0.318093
H318	H	0.271959	-0.646925	0.666876
H319	H	0.177459	-0.356175	0.572617
H320	H	-0.077958	-0.685325	0.413008
H321	H	0.068452	-0.850855	0.285902
H322	H	-0.078038	-0.685325	0.472673
C323	C	0.030346	-0.911912	0.422635
C324	C	0.006518	-0.940732	0.405506
C325	C	0.023282	-1.009698	0.440574
H326	H	0.077650	-0.931749	0.411254
H327	H	0.010565	-0.919306	0.469429
H328	H	0.026302	-0.933343	0.358722
H329	H	-0.040784	-0.920914	0.416889
H330	H	0.003501	-1.017093	0.487368
H331	H	0.070586	-1.029529	0.429190
H332	H	0.007112	-1.029261	0.428961
C333	C	-0.040181	-0.624262	0.510508
C334	C	-0.016202	-0.595457	0.440745
C335	C	-0.032966	-0.526494	0.423626
H336	H	-0.087490	-0.604407	0.526484
H337	H	-0.020496	-0.616877	0.530234
H338	H	-0.035890	-0.602838	0.421026
H339	H	0.031105	-0.615293	0.424752
H340	H	-0.013281	-0.519109	0.443353
H341	H	-0.080275	-0.506645	0.439606
H342	H	-0.016695	-0.506942	0.376292
C343	C	0.078937	-0.863290	0.630232
C344	C	0.137341	-0.903593	0.595089
C345	C	0.177665	-0.949299	0.635416
H346	H	0.090493	-0.839604	0.641802
H347	H	0.055119	-0.890652	0.669854
H348	H	0.161155	-0.876235	0.555480
H349	H	0.125806	-0.927293	0.583519
H350	H	0.153846	-0.976661	0.675038
H351	H	0.189215	-0.925607	0.646984
H352	H	0.217293	-0.976654	0.611580
C353	C	0.089046	-0.891503	0.476607
C354	C	0.153940	-0.937286	0.473023
C355	C	0.199136	-0.902413	0.439828
H356	H	0.087413	-0.864149	0.432616
H357	H	0.077323	-0.864151	0.500522
H358	H	0.165659	-0.964627	0.449107
H359	H	0.155595	-0.964641	0.517004
H360	H	0.187413	-0.875061	0.463742
H361	H	0.197496	-0.875061	0.395839
H362	H	0.243170	-0.933472	0.437397
C363	C	0.030152	-0.911908	0.581494
C364	C	0.006228	-0.940768	0.651254
C365	C	0.023093	-1.009740	0.668324
H366	H	0.010502	-0.919344	0.561783
H367	H	0.077478	-0.931685	0.565473
H368	H	-0.041088	-0.920997	0.667268
H369	H	0.025876	-0.933350	0.670981
H370	H	0.070418	-1.029517	0.652303
H371	H	0.003441	-1.017170	0.648609
H372	H	0.006868	-1.029331	0.715657
H373	H	0.119026	-1.028132	0.528057
H374	H	-0.086862	-1.027893	0.606199
H375	H	-0.137894	-0.841050	0.628449
C376	C	-0.147762	-0.891235	0.566425
C377	C	-0.182240	-0.936906	0.600523
C378	C	-0.250668	-0.901905	0.610364
H379	H	-0.164348	-0.863850	0.592145
H380	H	-0.154207	-0.863903	0.524245
H381	H	-0.175799	-0.964227	0.642696
H382	H	-0.165675	-0.964292	0.574814
H383	H	-0.257114	-0.874573	0.568184
H384	H	-0.267247	-0.874522	0.636082
H385	H	-0.274069	-0.932887	0.633495
C386	C	-0.274556	-0.803173	0.689380
C387	C	-0.228920	-0.843549	0.724403
C388	C	-0.263952	-0.860567	0.793371
H389	H	-0.301921	-0.763554	0.700951
H390	H	-0.301906	-0.826962	0.700839
H391	H	-0.201581	-0.819760	0.712950
H392	H	-0.201554	-0.883177	0.712853
H393	H	-0.291303	-0.884356	0.804829
H394	H	-0.291316	-0.820944	0.804934
H395	H	-0.232994	-0.887969	0.817142
H396	H	-0.137547	-0.737181	0.420520
C397	C	-0.274160	-0.683662	0.450213
C398	C	-0.228357	-0.673887	0.384867
C399	C	-0.263200	-0.633515	0.339072
H400	H	-0.301527	-0.704982	0.456807
H401	H	-0.301492	-0.641577	0.456875
H402	H	-0.201037	-0.715964	0.378208
H403	H	-0.200989	-0.652558	0.378252
H404	H	-0.290531	-0.591431	0.345733
H405	H	-0.290566	-0.654840	0.345672
H406	H	-0.232128	-0.626873	0.294729
