data_functionalizedCrystal
_audit_creation_method	'MofGen! by Chris Wilmer'
_symmetry_space_group_name_H-M	'P1'
_symmetry_Int_Tables_number	1
_symmetry_cell_setting	triclinic
loop_
_symmetry_equiv_pos_as_xyz
  x,y,z
_cell_length_a	17.077404
_cell_length_b	12.645330
_cell_length_c	17.077396
_cell_angle_alpha	90.026204
_cell_angle_beta	90.018362
_cell_angle_gamma	90.010616
loop_
_atom_site_label
_atom_site_type_symbol
_atom_site_fract_x
_atom_site_fract_y
_atom_site_fract_z
Zn1	Zn	1.200110	-0.422097	0.443831
Zn2	Zn	1.700110	0.077903	0.943831
Zn3	Zn	1.200041	-0.599382	0.312570
Zn4	Zn	1.700041	-0.099382	0.812570
Zn5	Zn	1.068842	-0.422127	0.312582
Zn6	Zn	1.568842	0.077873	0.812582
Zn7	Zn	1.068834	-0.599312	0.443797
Zn8	Zn	1.568834	-0.099312	0.943797
O9	O	1.134457	-0.510730	0.378195
O10	O	1.634457	-0.010730	0.878195
O11	O	1.309948	-0.445631	0.426429
O12	O	1.809948	0.054369	0.926429
O13	O	1.182612	-0.575911	0.202725
O14	O	1.682612	-0.075911	0.702725
O15	O	1.086288	-0.273776	0.330012
O16	O	1.586288	0.226224	0.830012
O17	O	1.309897	-0.575882	0.329992
O18	O	1.809897	-0.075882	0.829992
O19	O	1.182730	-0.273754	0.426440
O20	O	1.682730	0.226246	0.926440
O21	O	1.086221	-0.445682	0.202733
O22	O	1.586221	0.054318	0.702733
O23	O	0.958994	-0.445614	0.329978
O24	O	1.458994	0.054386	0.829978
O25	O	1.086273	-0.575762	0.553648
O26	O	1.586273	-0.075762	1.053648
O27	O	0.958988	-0.575792	0.426381
O28	O	1.458988	-0.075792	0.926381
O29	O	1.182722	-0.445563	0.553674
O30	O	1.682722	0.054437	1.053674
O31	O	1.182603	-0.747720	0.329959
O32	O	1.682603	-0.247720	0.829959
O33	O	1.086206	-0.747669	0.426370
O34	O	1.586206	-0.247669	0.926370
C35	C	0.930509	-0.510700	0.378177
C36	C	1.430509	-0.010700	0.878177
C37	C	0.843259	-0.510712	0.378189
C38	C	1.343259	-0.010712	0.878189
C39	C	1.134418	-0.786159	0.378177
C40	C	1.634418	-0.286159	0.878177
C41	C	1.134473	-0.903989	0.378195
C42	C	1.634473	-0.403989	0.878195
C43	C	0.802296	-0.443011	0.428480
C44	C	1.302296	0.056989	0.928480
C45	C	0.720316	-0.443018	0.428483
C46	C	1.220316	0.056982	0.928483
C47	C	0.679300	-0.510732	0.378199
C48	C	1.179300	-0.010732	0.878199
C49	C	0.720268	-0.578436	0.327902
C50	C	1.220268	-0.078436	0.827902
C51	C	0.802247	-0.578423	0.327895
C52	C	1.302247	-0.078423	0.827895
C53	C	0.549398	-0.578460	0.327922
C54	C	1.049398	-0.078460	0.827922
C55	C	0.467414	-0.578475	0.327930
C56	C	0.967414	-0.078475	0.827930
C57	C	0.467467	-0.443055	0.428510
C58	C	0.967467	0.056945	0.928510
C59	C	0.549446	-0.443042	0.428503
C60	C	1.049446	0.056958	0.928503
C61	C	0.590409	-0.510748	0.378207
C62	C	1.090409	-0.010748	0.878207
C63	C	1.195019	-1.071541	0.317419
C64	C	1.695019	-0.571541	0.817419
C65	C	1.195216	-0.948981	0.317568
C66	C	1.695216	-0.448981	0.817568
C67	C	1.156905	-0.948374	0.460938
C68	C	1.656905	-0.448374	0.960938
C69	C	1.157385	-1.070972	0.460616
C70	C	1.657385	-0.570972	0.960616
C71	C	1.051470	-1.071312	0.357042
C72	C	1.551470	-0.571312	0.857042
C73	C	1.051868	-0.948708	0.355187
C74	C	1.551868	-0.448708	0.855187
C75	C	1.339201	-0.510761	0.378213
C76	C	1.839201	-0.010761	0.878213
C77	C	1.426451	-0.510774	0.378221
C78	C	1.926451	-0.010774	0.878221
C79	C	1.134504	-0.510651	0.582939
C80	C	1.634504	-0.010651	1.082939
C81	C	1.134525	-0.510618	0.670189
C82	C	1.634525	-0.010618	1.170189
C83	C	1.134518	-0.234224	0.378231
C84	C	1.634518	0.265776	0.878231
C85	C	1.134544	-0.116394	0.378246
C86	C	1.634544	0.383606	0.878246
C87	C	1.134455	-0.510731	0.174247
C88	C	1.634455	-0.010731	0.674247
C89	C	1.134587	-0.510466	0.086998
C90	C	1.634587	-0.010466	0.586998
C91	C	1.184747	-0.442818	0.711194
C92	C	1.684747	0.057182	1.211194
C93	C	1.184757	-0.442782	0.793174
C94	C	1.684757	0.057218	1.293174
C95	C	1.134547	-0.510554	0.834149
C96	C	1.634547	-0.010554	1.334149
C97	C	1.084319	-0.578357	0.793138
C98	C	1.584319	-0.078357	1.293138
C99	C	1.084306	-0.578386	0.711159
C100	C	1.584306	-0.078386	1.211159
C101	C	1.084350	-0.578294	0.964009
C102	C	1.584350	-0.078294	1.464009
C103	C	1.084364	-0.578266	1.045993
C104	C	1.584364	-0.078266	1.545993
C105	C	1.184801	-0.442689	1.046024
C106	C	1.684801	0.057311	1.546024
C107	C	1.184788	-0.442719	0.964045
C108	C	1.684788	0.057281	1.464045
C109	C	1.134561	-0.510524	0.923040
C110	C	1.634561	-0.010524	1.423040
H111	H	0.835686	-0.387873	0.469429
H112	H	1.335686	0.112127	0.969429
H113	H	1.031071	-1.102319	0.297757
H114	H	1.531071	-0.602319	0.797757
Cl115	Cl	0.600893	-0.663585	0.264697
Cl116	Cl	1.100893	-0.163585	0.764697
H117	H	0.434111	-0.387925	0.469461
H118	H	0.934111	0.112075	0.969461
Cl119	Cl	1.247915	-0.357525	0.912535
Cl120	Cl	1.747915	0.142475	1.412535
H121	H	1.115267	-1.100638	0.507498
H122	H	1.615267	-0.600638	1.007498
H123	H	0.686968	-0.387891	0.469437
H124	H	1.186968	0.112109	0.969437
H125	H	1.181181	-0.918976	0.256215
H126	H	1.681181	-0.418976	0.756215
H127	H	0.686867	-0.633565	0.286956
H128	H	1.186867	-0.133565	0.786956
Cl129	Cl	1.090965	-0.903389	0.532786
Cl130	Cl	1.590965	-0.403389	1.032786
H131	H	1.043477	-0.633449	1.079352
H132	H	1.543477	-0.133449	1.579352
H133	H	0.835598	-0.633552	0.286943
H134	H	1.335598	-0.133552	0.786943
Cl135	Cl	1.173629	-1.117172	0.222415
Cl136	Cl	1.673629	-0.617172	0.722415
H137	H	1.043402	-0.633586	0.677774
H138	H	1.543402	-0.133586	1.177774
Cl139	Cl	1.247945	-0.357450	1.097572
Cl140	Cl	1.747945	0.142550	1.597572
Cl141	Cl	0.601008	-0.357923	0.491725
Cl142	Cl	1.101008	0.142077	0.991725
Cl143	Cl	0.978545	-0.901443	0.418573
Cl144	Cl	1.478545	-0.401443	0.918573
Cl145	Cl	1.021205	-0.663535	0.912461
Cl146	Cl	1.521205	-0.163535	1.412461
H147	H	0.434021	-0.633614	0.286984
H148	H	0.934021	-0.133614	0.786984
Cl149	Cl	1.289509	-1.118984	0.338829
Cl150	Cl	1.789509	-0.618984	0.838829
H151	H	1.256746	-0.919576	0.331593
H152	H	1.756746	-0.419576	0.831593
Cl153	Cl	1.251136	-1.115003	0.488343
Cl154	Cl	1.751136	-0.615003	0.988343
Cl155	Cl	1.021195	-0.663552	0.844649
Cl156	Cl	1.521195	-0.163552	1.344649
H157	H	1.216941	-0.917589	0.479198
H158	H	1.716941	-0.417589	0.979198
H159	H	1.034954	-0.919709	0.294295
H160	H	1.534954	-0.419709	0.794295
Cl161	Cl	1.247931	-0.357590	0.844720
Cl162	Cl	1.747931	0.142410	1.344720
H163	H	1.225636	-0.387633	0.677838
H164	H	1.725636	0.112367	1.177838
Cl165	Cl	0.981902	-1.116098	0.425439
Cl166	Cl	1.481902	-0.616098	0.925439
