data_functionalizedCrystal
_audit_creation_method	'MofGen! by Chris Wilmer'
_symmetry_space_group_name_H-M	'P1'
_symmetry_Int_Tables_number	1
_symmetry_cell_setting	triclinic
loop_
_symmetry_equiv_pos_as_xyz
  x,y,z
_cell_length_a	16.992694
_cell_length_b	10.654550
_cell_length_c	9.130313
_cell_angle_alpha	90.004369
_cell_angle_beta	89.997845
_cell_angle_gamma	87.576577
loop_
_atom_site_label
_atom_site_type_symbol
_atom_site_fract_x
_atom_site_fract_y
_atom_site_fract_z
O1	O	-1.041839	-0.266431	-0.121615
O2	O	-0.541839	0.233569	0.378385
O3	O	-0.813538	-0.263508	-0.121658
O4	O	-0.313538	0.236492	0.378342
O5	O	-0.932938	-0.082684	-0.121627
O6	O	-0.432938	0.417316	0.378373
O7	O	-0.922439	-0.447255	-0.121647
O8	O	-0.422439	0.052745	0.378353
O9	O	-0.932929	-0.082678	0.121972
O10	O	-0.432929	0.417322	0.621972
O11	O	-0.813530	-0.263502	0.121940
O12	O	-0.313530	0.236498	0.621940
O13	O	-1.041831	-0.266425	0.121984
O14	O	-0.541831	0.233575	0.621984
Cu15	Cu	-0.927679	-0.264963	0.144204
Cu16	Cu	-0.427679	0.235037	0.644204
Cu17	Cu	-0.927689	-0.264970	-0.143879
Cu18	Cu	-0.427689	0.235030	0.356121
O19	O	-0.922431	-0.447249	0.121952
O20	O	-0.422431	0.052751	0.621952
C21	C	-0.784301	-0.259745	0.000136
C22	C	-0.284301	0.240255	0.500136
C23	C	-0.697196	-0.248526	0.000119
C24	C	-0.197196	0.251474	0.500119
C25	C	-0.932163	-0.035816	0.000172
C26	C	-0.432163	0.464184	0.500172
C27	C	-0.929856	0.103826	0.000169
C28	C	-0.429856	0.603826	0.500169
C29	C	-1.071068	-0.270188	0.000186
C30	C	-0.571068	0.229812	0.500186
C31	C	-1.158173	-0.281408	0.000193
C32	C	-0.658173	0.218592	0.500193
C33	C	-0.647544	-0.356776	0.000114
C34	C	-0.147544	0.143224	0.500114
C35	C	-0.565700	-0.346227	0.000135
C36	C	-0.065700	0.153773	0.500135
C37	C	-0.533509	-0.227426	0.000150
C38	C	-0.033509	0.272574	0.500150
C39	C	-0.583167	-0.119167	0.000160
C40	C	-0.083167	0.380833	0.500160
C41	C	-0.665010	-0.129718	0.000149
C42	C	-0.165010	0.370282	0.500149
C43	C	-0.289674	-0.183699	0.000192
C44	C	0.210326	0.316301	0.500192
C45	C	-0.207825	-0.173157	0.000198
C46	C	0.292175	0.326843	0.500198
C47	C	-0.190363	-0.400218	0.000176
C48	C	0.309637	0.099782	0.500176
C49	C	-0.272208	-0.410758	0.000157
C50	C	0.227792	0.089242	0.500157
C51	C	-0.321859	-0.302499	0.000174
C52	C	0.178141	0.197501	0.500174
N53	N	-0.449852	-0.216640	0.000167
N54	N	0.050148	0.283360	0.500167
N55	N	-0.405515	-0.313286	0.000168
N56	N	0.094485	0.186714	0.500168
C57	C	-0.923206	-0.494117	0.000150
C58	C	-0.423206	0.005883	0.500150
C59	C	-0.925512	-0.633759	0.000143
C60	C	-0.425512	-0.133759	0.500143
N61	N	-0.927678	-0.264957	0.346827
N62	N	-0.427678	0.235043	0.846827
C63	C	-1.000157	0.177237	0.000182
C64	C	-0.500157	0.677237	0.500182
C65	C	-0.997985	0.308445	0.000164
C66	C	-0.497985	0.808445	0.500164
C67	C	-0.855206	0.292820	0.000126
C68	C	-0.355206	0.792820	0.500126
C69	C	-0.857379	0.161614	0.000134
C70	C	-0.357379	0.661614	0.500134
N71	N	-0.927697	-0.264966	-0.346502
N72	N	-0.427697	0.235034	0.153498
C73	C	-0.980567	-0.184926	0.423493
C74	C	-0.480567	0.315074	0.923493
C75	C	-0.980574	-0.184927	0.576830
C76	C	-0.480574	0.315073	1.076830
C77	C	-0.874803	-0.345001	0.576821
C78	C	-0.374803	0.154999	1.076821
C79	C	-0.874792	-0.344993	0.423487
C80	C	-0.374792	0.155007	0.923487
H81	H	-0.673747	-0.453517	0.000101
H82	H	-0.173747	0.046483	0.500101
Br83	Br	-0.803032	-0.453620	0.680865
Br84	Br	-0.303032	0.046380	1.180865
Br85	Br	-1.098519	0.098813	0.000231
Br86	Br	-0.598519	0.598813	0.500231
H87	H	-0.796197	0.339888	0.000100
H88	H	-0.296197	0.839888	0.500100
Br89	Br	-1.093398	0.408070	0.000172
Br90	Br	-0.593398	0.908070	0.500172
Br91	Br	-0.803004	-0.453604	0.319428
Br92	Br	-0.303004	0.046396	0.819428
H93	H	-0.298411	-0.507498	0.000128
H94	H	0.201589	-0.007498	0.500128
Br95	Br	-0.357047	-0.036775	0.000219
Br96	Br	0.142953	0.463225	0.500219
Br97	Br	-0.498317	-0.493146	0.000124
Br98	Br	0.001683	0.006854	0.500124
Br99	Br	-0.164138	-0.011916	0.000250
Br100	Br	0.335862	0.488084	0.500250
Br101	Br	-0.539481	0.042065	0.000195
Br102	Br	-0.039481	0.542065	0.500195
H103	H	-0.149929	-0.488356	0.000165
H104	H	0.350071	0.011644	0.500165
Br105	Br	-0.732396	0.017200	0.000169
Br106	Br	-0.232396	0.517200	0.500169
H107	H	-0.800128	0.101841	0.000119
H108	H	-0.300128	0.601841	0.500119
H109	H	-1.023639	-0.119756	0.639247
H110	H	-0.523639	0.380244	1.139247
H111	H	-1.023629	-0.119754	0.361080
H112	H	-0.523629	0.380246	0.861080
