data_functionalizedCrystal
_audit_creation_method	'MofGen! by Chris Wilmer'
_symmetry_space_group_name_H-M	'P1'
_symmetry_Int_Tables_number	1
_symmetry_cell_setting	triclinic
loop_
_symmetry_equiv_pos_as_xyz
  x,y,z
_cell_length_a	16.109302
_cell_length_b	27.731996
_cell_length_c	15.186229
_cell_angle_alpha	89.990305
_cell_angle_beta	89.994701
_cell_angle_gamma	83.041584
loop_
_atom_site_label
_atom_site_type_symbol
_atom_site_fract_x
_atom_site_fract_y
_atom_site_fract_z
O1	O	1.102341	0.062133	-0.073280
O2	O	0.860181	0.069865	-0.073274
O3	O	0.988804	-0.004368	-0.073258
O4	O	0.973717	0.136366	-0.073296
O5	O	0.988796	-0.004369	0.073199
O6	O	0.860172	0.069864	0.073183
O7	O	1.102332	0.062132	0.073177
Zn8	Zn	0.981251	0.065998	0.096433
Zn9	Zn	0.981262	0.065999	-0.096530
O10	O	0.973709	0.136365	0.073161
C11	C	0.829206	0.069551	-0.000045
C12	C	0.736922	0.068612	-0.000042
C13	C	0.524604	0.066440	0.079784
C14	C	0.437896	0.065552	0.079781
C15	C	0.437915	0.065556	-0.079895
C16	C	0.524623	0.066440	-0.079891
C17	C	0.567965	0.066885	-0.000049
C18	C	0.394548	0.065113	-0.000056
C19	C	0.300535	0.064150	-0.000059
C20	C	0.661985	0.067846	-0.000045
C21	C	0.988490	-0.022377	-0.000027
C22	C	0.987557	-0.076037	-0.000018
C23	C	0.981688	-0.408778	-0.079894
C24	C	0.978143	-0.610451	-0.079910
O25	O	0.977653	-0.636523	-0.147806
N26	N	0.977698	-0.635670	-0.000077
C27	C	0.978134	-0.610468	0.079766
O28	O	0.977666	-0.636546	0.147669
C29	C	0.981673	-0.408795	0.079781
C30	C	0.982127	-0.383579	-0.000058
C31	C	0.982141	-0.383561	-0.159726
C32	C	0.983031	-0.333146	-0.159722
C33	C	0.983470	-0.307948	-0.079885
C34	C	0.983017	-0.333164	-0.000053
C35	C	0.982103	-0.383594	0.159622
C36	C	0.982986	-0.333172	0.159619
C37	C	0.983439	-0.307956	0.079780
C38	C	0.984346	-0.257551	0.079788
N39	N	0.984791	-0.232331	-0.000045
C40	C	0.984353	-0.257530	-0.079882
C41	C	0.976278	-0.716349	0.079753
C42	C	0.975395	-0.766767	0.079749
C43	C	0.975402	-0.766746	-0.079927
C44	C	0.976292	-0.716328	-0.079922
C45	C	0.976723	-0.691130	-0.000080
C46	C	0.986224	-0.151655	-0.079866
C47	C	0.987118	-0.101236	-0.079854
C48	C	0.987106	-0.101261	0.079821
C49	C	0.986217	-0.151676	0.079810
C50	C	0.985773	-0.176871	-0.000040
O51	O	0.984828	-0.231447	0.147649
O52	O	0.984803	-0.231442	-0.147774
C53	C	0.980798	-0.459192	-0.079899
C54	C	0.980345	-0.484409	-0.000067
C55	C	0.980783	-0.459210	0.079769
C56	C	0.979462	-0.534827	-0.000071
C57	C	0.979024	-0.560025	-0.079907
C58	C	0.979468	-0.534806	-0.159740
C59	C	0.980359	-0.484391	-0.159735
C60	C	0.980339	-0.484430	0.159602
C61	C	0.979449	-0.534845	0.159591
C62	C	0.979010	-0.560043	0.079755
C63	C	1.133308	0.062446	-0.000054
C64	C	1.225591	0.063385	-0.000063
C65	C	0.974023	0.154374	-0.000072
C66	C	0.974957	0.208034	-0.000087
N67	N	0.981249	0.065997	0.228126
N68	N	0.981270	0.065997	-0.228223
C69	C	1.038223	0.033137	0.453856
C70	C	1.038226	0.033136	0.546046
C71	C	0.924291	0.098858	0.546041
C72	C	0.924285	0.098856	0.453853
C73	C	0.981256	0.065996	0.407763
C74	C	0.981264	0.065997	0.592140
C75	C	0.981267	0.065996	0.692096
C76	C	0.981252	0.065997	0.307800
H77	H	0.559929	0.066801	-0.144904
O78	O	0.566832	0.066889	0.157260
C79	C	0.652664	0.067753	0.140149
H80	H	0.660873	0.083172	0.071536
H81	H	0.686504	0.029247	0.143938
C82	C	0.679542	0.080945	0.293296
C83	C	0.689623	0.099887	0.209027
H84	H	0.702342	0.100764	0.335785
H85	H	0.621716	0.080361	0.304825
H86	H	0.707742	0.048857	0.296441
H87	H	0.661415	0.131971	0.205880
H88	H	0.747446	0.100476	0.197498
H89	H	0.402595	0.065190	0.144789
O90	O	1.093452	0.001170	0.590860
C91	C	1.049328	-0.028652	0.644217
H92	H	0.983774	-0.029481	0.616446
H93	H	1.044774	-0.013526	0.714081
C94	C	1.176350	-0.079527	0.679750
C95	C	1.095837	-0.080547	0.645636
H96	H	1.205039	-0.111538	0.680629
H97	H	1.206078	-0.059434	0.643805
H98	H	1.172544	-0.066919	0.737966
H99	H	1.099644	-0.093149	0.587417
H100	H	1.066110	-0.100644	0.681572
O101	O	0.395677	0.065149	-0.157370
C102	C	0.309850	0.064262	-0.140257
H103	H	0.294356	0.079433	-0.071647
H104	H	0.294477	0.025256	-0.144036
C105	C	0.276825	0.076859	-0.293407
C106	C	0.257793	0.095496	-0.209142
H107	H	0.244713	0.096123	-0.335900
H108	H	0.334649	0.077454	-0.304937
H109	H	0.264014	0.044353	-0.296543
H110	H	0.270614	0.127998	-0.206003
H111	H	0.199971	0.094907	-0.197612
O112	O	0.869025	0.130845	0.409112
C113	C	0.881895	0.178699	0.431633
H114	H	0.948455	0.178947	0.456964
H115	H	0.835630	0.192891	0.485145
C116	C	0.786790	0.211160	0.318615
C117	C	0.868542	0.211466	0.349720
H118	H	0.778550	0.231373	0.268089
H119	H	0.778117	0.178920	0.303444
H120	H	0.748245	0.222986	0.363216
H121	H	0.907085	0.199635	0.305123
H122	H	0.877222	0.243705	0.364882
H123	H	0.987489	-0.080707	-0.144871
H124	H	0.985859	-0.172163	-0.144888
H125	H	0.877908	0.125612	0.583576
O126	O	0.979178	-0.559274	-0.237321
C127	C	1.051411	-0.552436	-0.285920
H128	H	1.102013	-0.542423	-0.239221
H129	H	1.035639	-0.521923	-0.335696
C130	C	1.021113	-0.612007	-0.392206
C131	C	1.083266	-0.599713	-0.334848
H132	H	1.040761	-0.641169	-0.422391
H133	H	0.972446	-0.616614	-0.359466
H134	H	1.007975	-0.586576	-0.433678
H135	H	1.096395	-0.625141	-0.293371
H136	H	1.131936	-0.595113	-0.367582
O137	O	0.983424	-0.308726	-0.237356
C138	C	0.982864	-0.341788	-0.307813
H139	H	0.955904	-0.375722	-0.284396
H140	H	1.049494	-0.352233	-0.332366
C141	C	0.961775	-0.276275	-0.412001
C142	C	0.928656	-0.317952	-0.383242
H143	H	0.928340	-0.261572	-0.458531
H144	H	0.962155	-0.254000	-0.364534
H145	H	1.017299	-0.284985	-0.432456
H146	H	0.873137	-0.309241	-0.362777
H147	H	0.928265	-0.340225	-0.430707
H148	H	0.981781	-0.404072	-0.224742
O149	O	0.976687	-0.691906	-0.157555
C150	C	0.976136	-0.724966	-0.228015
H151	H	0.949176	-0.758902	-0.204605
H152	H	1.042769	-0.735410	-0.252563
C153	C	0.955053	-0.659452	-0.332199
C154	C	0.921934	-0.701130	-0.303448
H155	H	0.921622	-0.644748	-0.378731
H156	H	0.955428	-0.637178	-0.284730
H157	H	1.010580	-0.668160	-0.352649
H158	H	0.866413	-0.692420	-0.282988
H159	H	0.921549	-0.723402	-0.350916
O160	O	0.987378	-0.076741	0.157344
C161	C	0.915865	-0.042081	0.162086
H162	H	0.865264	-0.053442	0.116778
H163	H	0.932823	-0.005112	0.140623
C164	C	0.945343	-0.024859	0.313109
C165	C	0.883191	-0.038815	0.257467
H166	H	0.925190	-0.022842	0.371945
H167	H	0.993525	-0.048208	0.309914
H168	H	0.959470	0.005948	0.295213
H169	H	0.869074	-0.069623	0.275357
H170	H	0.835007	-0.015470	0.260667
H171	H	0.985855	-0.172208	0.144821
H172	H	0.975046	-0.787271	-0.144933
O173	O	0.980882	-0.459911	0.237103
C174	C	1.053442	-0.436252	0.241891
H175	H	1.077589	-0.430518	0.172573
H176	H	1.103538	-0.459537	0.281277
C177	C	1.002755	-0.393744	0.372689
C178	C	1.032409	-0.386697	0.287552
H179	H	0.989783	-0.363177	0.400859
H180	H	0.953872	-0.409684	0.369466
H181	H	1.044507	-0.413149	0.405500
H182	H	0.990653	-0.367297	0.254740
H183	H	1.081285	-0.370752	0.290771
O184	O	0.974841	-0.791301	0.157251
C185	C	0.902281	-0.814961	0.162035
H186	H	0.878148	-0.820685	0.092717
H187	H	0.852176	-0.791682	0.201417
C188	C	0.952941	-0.857489	0.292839
C189	C	0.923305	-0.864523	0.207700
H190	H	0.965908	-0.888061	0.321011
H191	H	1.001825	-0.841548	0.289619
H192	H	0.911182	-0.838089	0.325646
H193	H	0.965068	-0.883918	0.174892
H194	H	0.874429	-0.880469	0.210916
H195	H	0.976633	-0.695838	0.144774
H196	H	0.980728	-0.463864	-0.224748
H197	H	1.084611	0.006381	0.416332
O198	O	0.981501	-0.408040	0.237208
C199	C	0.909684	-0.390209	0.285757
H200	H	0.859599	-0.372516	0.239019
H201	H	0.926474	-0.362178	0.335519
C202	C	0.937724	-0.454227	0.392108
C203	C	0.876206	-0.432500	0.334702
H204	H	0.917075	-0.480312	0.422303
H205	H	0.986110	-0.466239	0.359402
H206	H	0.951710	-0.430863	0.433568
H207	H	0.862228	-0.455861	0.293236
H208	H	0.827816	-0.420492	0.367402
O209	O	0.983257	-0.308660	0.237155
C210	C	0.911749	-0.273998	0.241920
H211	H	0.861141	-0.285350	0.196610
H212	H	0.928711	-0.237027	0.220474
C213	C	0.941245	-0.256802	0.392950
C214	C	0.879085	-0.270746	0.337305
H215	H	0.921098	-0.254794	0.451788
H216	H	0.989424	-0.280153	0.389739
H217	H	0.955375	-0.225993	0.375068
H218	H	0.864965	-0.301556	0.355180
H219	H	0.830904	-0.247400	0.340520
H220	H	0.979086	-0.555372	0.224610
