data_functionalizedCrystal
_audit_creation_method	'MofGen! by Chris Wilmer'
_symmetry_space_group_name_H-M	'P1'
_symmetry_Int_Tables_number	1
_symmetry_cell_setting	triclinic
loop_
_symmetry_equiv_pos_as_xyz
  x,y,z
_cell_length_a	19.121321
_cell_length_b	19.120904
_cell_length_c	19.121459
_cell_angle_alpha	89.921699
_cell_angle_beta	94.742451
_cell_angle_gamma	94.963752
loop_
_atom_site_label
_atom_site_type_symbol
_atom_site_fract_x
_atom_site_fract_y
_atom_site_fract_z
Zn1	Zn	1.073783	-0.336797	0.339724
Zn2	Zn	1.083738	-0.214125	0.452365
Zn3	Zn	0.960720	-0.224598	0.330142
Zn4	Zn	0.961108	-0.336770	0.452337
O5	O	1.019837	-0.278072	0.393642
O6	O	1.173741	-0.316152	0.358688
O7	O	1.071423	-0.117231	0.432154
O8	O	0.971390	-0.243876	0.233134
O9	O	1.181055	-0.226026	0.441445
O10	O	1.054456	-0.326308	0.240173
O11	O	0.981043	-0.124926	0.342357
O12	O	0.862133	-0.243849	0.342330
O13	O	0.972050	-0.435056	0.441397
O14	O	0.862418	-0.326262	0.432105
O15	O	1.054832	-0.435076	0.358661
O16	O	1.071799	-0.225999	0.550641
O17	O	0.981703	-0.316106	0.550620
C18	C	0.836700	-0.286189	0.386175
C19	C	0.758353	-0.289678	0.382998
C20	C	0.315044	-0.311800	0.362819
C21	C	0.388660	-0.308518	0.365817
C22	C	0.429267	-0.259883	0.410326
C23	C	0.396254	-0.214533	0.451845
C24	C	0.322639	-0.217819	0.448851
C25	C	0.651726	-0.247613	0.421523
C26	C	0.725345	-0.244329	0.424513
C27	C	0.717746	-0.338316	0.338485
C28	C	0.644130	-0.341595	0.335491
C29	C	0.611124	-0.296247	0.377013
C30	C	0.504514	-0.256526	0.413390
C31	C	0.535878	-0.299608	0.373953
C32	C	1.012374	-0.461263	0.401094
C33	C	1.009193	-0.539327	0.404270
C34	C	1.050797	-0.576014	0.362688
C35	C	1.047800	-0.649364	0.365669
C36	C	1.003202	-0.686027	0.410236
C37	C	0.961594	-0.649335	0.451820
C38	C	0.964588	-0.575986	0.448835
C39	C	0.992003	-0.907493	0.421401
C40	C	0.989014	-0.980847	0.424384
C41	C	1.075219	-0.980871	0.338232
C42	C	1.078212	-0.907521	0.335254
C43	C	1.036601	-0.870836	0.376835
C44	C	1.000139	-0.761003	0.413286
C45	C	1.039661	-0.795861	0.373781
C46	C	1.203689	-0.269924	0.401139
C47	C	1.282036	-0.266452	0.404334
C48	C	1.027892	-0.269928	0.576115
C49	C	1.031402	-0.266464	0.654181
C50	C	1.027310	-0.095595	0.386170
C51	C	1.030618	-0.017534	0.382802
C52	C	1.011769	-0.286263	0.210458
C53	C	1.008331	-0.289753	0.132396
C54	C	1.053620	-0.244505	1.095708
C55	C	1.050317	-0.247761	1.022356
C56	C	1.001726	-0.296270	0.985694
C57	C	0.956432	-0.341521	1.022388
C58	C	0.959733	-0.338261	1.095738
C59	C	0.989408	-0.308455	0.764225
C60	C	0.986112	-0.311713	0.690870
C61	C	1.079996	-0.217952	0.690843
C62	C	1.083296	-0.214699	0.764194
C63	C	1.037999	-0.259947	0.800881
C64	C	0.998350	-0.299601	0.910717
C65	C	1.041373	-0.256613	0.875857
H66	H	0.502813	-0.339209	0.337716
C67	C	0.599468	-0.395099	0.286530
N68	N	0.565828	-0.435398	0.249650
C69	C	0.440924	-0.161031	0.500803
N70	N	0.474569	-0.120729	0.537675
H71	H	0.537584	-0.216925	0.449627
C72	C	1.100125	-0.197969	0.982001
N73	N	1.137637	-0.160458	0.951605
C74	C	1.136744	-0.161331	0.804516
N75	N	1.177002	-0.121133	0.834887
H76	H	0.958787	-0.339099	0.880861
H77	H	1.075969	-0.766008	0.337491
H78	H	0.946542	-0.351218	0.661023
H79	H	0.624861	-0.210686	0.455331
C80	C	0.754059	-0.388199	0.292818
N81	N	0.781410	-0.425775	0.258422
H82	H	0.958131	-0.877632	0.455270
C83	C	0.902982	-0.394882	0.982058
N84	N	0.862725	-0.435077	0.951682
C85	C	0.912529	-0.689667	0.500838
N86	N	0.875572	-0.720045	0.537759
C87	C	0.286331	-0.167930	0.494518
N88	N	0.258985	-0.130353	0.528917
C89	C	0.951078	-0.801339	0.462304
N90	N	0.914122	-0.831723	0.499221
C91	C	1.107074	-0.191140	1.136028
N92	N	1.147334	-0.150942	1.166396
C93	C	0.918822	-0.535632	0.494580
N94	N	0.884348	-0.505237	0.529036
H95	H	1.087115	-0.546168	0.326399
C96	C	0.939582	-0.358232	0.804571
N97	N	0.902051	-0.395727	0.834963
C98	C	1.093569	-0.689716	0.319926
N99	N	1.128044	-0.720109	0.285470
H100	H	1.116874	-0.181112	0.660965
H101	H	1.114530	-0.877675	0.298964
C102	C	0.909912	-0.388039	1.136095
N103	N	0.872384	-0.425533	1.166491
H104	H	1.109096	-1.010748	0.304378
H105	H	0.281987	-0.351400	0.326570
H106	H	0.415532	-0.345448	0.332014
H107	H	1.080933	-0.217115	0.905710
C108	C	0.770011	-0.190829	0.473483
N109	N	0.803654	-0.150535	0.510366
H110	H	0.952695	-1.010696	0.460678
