data_functionalizedCrystal
_audit_creation_method	'MofGen! by Chris Wilmer'
_symmetry_space_group_name_H-M	'P1'
_symmetry_Int_Tables_number	1
_symmetry_cell_setting	triclinic
loop_
_symmetry_equiv_pos_as_xyz
  x,y,z
_cell_length_a	10.654550
_cell_length_b	15.021413
_cell_length_c	10.654550
_cell_angle_alpha	89.995793
_cell_angle_beta	84.484931
_cell_angle_gamma	90.004146
loop_
_atom_site_label
_atom_site_type_symbol
_atom_site_fract_x
_atom_site_fract_y
_atom_site_fract_z
O1	O	1.667848	0.073965	0.176382
O2	O	1.302370	0.073982	0.193188
O3	O	1.493512	0.073968	0.002046
O4	O	1.476706	0.073979	0.367525
O5	O	1.493481	-0.074097	0.002073
O6	O	1.302339	-0.074083	0.193216
O7	O	1.667818	-0.074099	0.176410
Zn8	Zn	1.485074	-0.097599	0.184817
Zn9	Zn	1.485114	0.097482	0.184781
O10	O	1.476675	-0.074085	0.367552
C11	C	1.255556	-0.000048	0.191968
C12	C	1.116113	-0.000042	0.188276
N13	N	1.485055	-0.230737	0.184841
C14	C	1.036628	-0.000041	0.300818
C15	C	0.905607	-0.000057	0.297341
C16	C	0.933570	-0.000071	0.068772
C17	C	1.064588	-0.000062	0.072250
C18	C	1.396657	-0.470413	0.273183
C19	C	1.510355	-0.529752	0.298547
C20	C	1.485087	-0.412344	0.184810
C21	C	1.371421	-0.529747	0.159474
C22	C	1.485108	-0.587768	0.184782
C23	C	1.598842	-0.470376	0.210231
C24	C	1.459834	-0.470365	0.071107
C25	C	1.573613	-0.529677	0.096424
C26	C	1.485074	-0.311286	0.184829
C27	C	1.485134	-0.688823	0.184763
C28	C	1.714631	-0.000067	0.177630
C29	C	1.854074	-0.000067	0.181322
C30	C	1.492263	-0.000064	-0.044738
C31	C	1.488571	-0.000063	-0.184181
N32	N	1.485142	0.230620	0.184747
C33	C	1.601112	-0.000067	-0.263667
C34	C	1.597636	-0.000056	-0.394688
C35	C	1.369066	-0.000040	-0.366725
C36	C	1.372544	-0.000044	-0.235706
C37	C	1.477925	-0.000051	0.414336
C38	C	1.481616	-0.000047	0.553779
H39	H	0.840894	-0.000058	0.388984
C40	C	1.149192	-0.535024	0.223227
C41	C	1.241645	-0.564946	0.130543
H42	H	1.069073	-0.556748	0.205366
H43	H	1.167743	-0.556237	0.303371
H44	H	1.148049	-0.471790	0.223784
H45	H	1.242795	-0.628180	0.129992
H46	H	1.223090	-0.543737	0.050378
H47	H	1.078574	-0.000032	0.395294
H48	H	0.891602	-0.000092	-0.025693
C49	C	1.649433	-0.616249	0.414609
C50	C	1.539213	-0.564981	0.428329
H51	H	1.667242	-0.637992	0.494734
H52	H	1.638113	-0.664975	0.360015
H53	H	1.717698	-0.580541	0.379791
H54	H	1.470945	-0.600691	0.463139
H55	H	1.550526	-0.516248	0.482943
C56	C	1.826692	-0.000066	-0.304472
C57	C	1.728647	-0.000071	-0.207029
H58	H	1.905427	-0.000060	-0.269506
H59	H	1.820577	-0.051696	-0.354984
H60	H	1.820575	0.051571	-0.354998
H61	H	1.734758	-0.051712	-0.156508
H62	H	1.734765	0.051564	-0.156496
C63	C	1.727399	-0.342114	0.239259
C64	C	1.728619	-0.435326	0.239408
H65	H	1.807504	-0.320478	0.257312
H66	H	1.709392	-0.321275	0.158753
H67	H	1.664485	-0.321377	0.301629
H68	H	1.791528	-0.456064	0.177031
H69	H	1.746642	-0.456175	0.319926
H70	H	1.129309	-0.000065	-0.019401
H71	H	1.321951	-0.444392	0.347979
H72	H	1.648486	-0.555535	0.021674
C73	C	1.311776	-0.465028	-0.084967
C74	C	1.430927	-0.435111	-0.058638
H75	H	1.293920	-0.443256	-0.165063
H76	H	1.310811	-0.528253	-0.085701
H77	H	1.249788	-0.443849	-0.022000
H78	H	1.492917	-0.456296	-0.121601
H79	H	1.431902	-0.371874	-0.057914
H80	H	1.689279	-0.000058	-0.459401
H81	H	1.274601	-0.000026	-0.408693
H82	H	1.280893	-0.000038	-0.170985
