data_functionalizedCrystal
_audit_creation_method	'MofGen! by Chris Wilmer'
_symmetry_space_group_name_H-M	'P1'
_symmetry_Int_Tables_number	1
_symmetry_cell_setting	triclinic
loop_
_symmetry_equiv_pos_as_xyz
  x,y,z
_cell_length_a	12.759401
_cell_length_b	16.625546
_cell_length_c	12.759393
_cell_angle_alpha	89.963806
_cell_angle_beta	89.981504
_cell_angle_gamma	90.022629
loop_
_atom_site_label
_atom_site_type_symbol
_atom_site_fract_x
_atom_site_fract_y
_atom_site_fract_z
Zn1	Zn	1.606199	-0.320951	-0.593948
Zn2	Zn	1.606069	-0.455807	-0.418253
Zn3	Zn	1.430501	-0.320993	-0.418287
Zn4	Zn	1.430465	-0.455745	-0.593895
O5	O	1.518308	-0.388374	-0.506096
O6	O	1.753203	-0.338848	-0.570649
O7	O	1.582740	-0.437968	-0.271237
O8	O	1.453876	-0.208155	-0.441625
O9	O	1.753107	-0.437927	-0.441568
O10	O	1.582961	-0.208124	-0.570682
O11	O	1.453751	-0.338920	-0.271261
O12	O	1.283475	-0.338860	-0.441574
O13	O	1.453816	-0.437821	-0.740923
O14	O	1.283449	-0.437862	-0.570592
O15	O	1.582927	-0.338788	-0.740962
O16	O	1.582706	-0.568632	-0.441517
O17	O	1.453691	-0.568586	-0.570560
C18	C	1.245341	-0.388359	-0.506081
C19	C	1.128564	-0.388372	-0.506100
C20	C	1.073717	-0.440005	-0.573169
C21	C	0.963992	-0.440015	-0.573180
C22	C	0.963974	-0.336758	-0.439045
C23	C	1.073696	-0.336744	-0.439040
C24	C	1.073726	-0.499623	-0.650608
C25	C	0.964002	-0.499633	-0.650619
C26	C	1.518209	-0.597865	-0.506052
C27	C	1.518263	-0.687486	-0.506068
C28	C	1.518446	-1.015662	-0.506177
C29	C	1.518392	-0.924353	-0.506150
C30	C	1.518353	-0.851577	-0.506122
C31	C	1.518301	-0.760262	-0.506096
C32	C	1.792342	-0.388390	-0.506111
C33	C	1.909118	-0.388396	-0.506117
C34	C	1.518382	-0.388293	-0.780129
C35	C	1.518413	-0.388258	-0.896906
C36	C	1.518437	-0.178065	-0.506163
C37	C	1.518492	-0.088444	-0.506191
C38	C	1.585650	-0.336687	-0.951790
C39	C	1.585675	-0.336657	-1.061514
C40	C	1.451223	-0.439778	-1.061461
C41	C	1.451194	-0.439803	-0.951739
C42	C	1.663279	-0.277153	-0.951821
C43	C	1.663304	-0.277124	-1.061546
C44	C	1.518296	-0.388397	-0.233128
C45	C	1.518468	-0.388204	-0.116352
H46	H	0.930008	-0.477343	-0.727974
N47	N	1.765597	-0.306961	-0.906839
H48	H	1.824677	-0.271105	-0.931275
H49	H	1.761831	-0.305984	-0.827784
H50	H	0.934196	-0.562065	-0.628680
H51	H	1.107730	-0.558911	-0.621317
N52	N	1.378635	-0.495395	-0.892540
H53	H	1.336051	-0.528036	-0.943928
H54	H	1.421330	-0.532734	-0.846984
N55	N	1.378711	-0.495360	-1.120602
H56	H	1.388925	-0.487515	-1.198439
H57	H	1.395007	-0.552955	-1.101409
N58	N	1.634471	-0.194442	-0.912402
H59	H	1.621628	-0.157515	-0.973952
H60	H	1.568835	-0.198090	-0.868389
H61	H	1.634200	-0.217792	-1.095600
H62	H	1.744671	-0.293849	-1.091322
N63	N	1.113228	-0.477561	-0.758434
H64	H	1.157204	-0.523010	-0.787098
H65	H	1.051660	-0.467708	-0.806478
N66	N	1.132856	-0.281034	-0.366730
H67	H	1.081445	-0.248329	-0.324255
H68	H	1.178362	-0.313788	-0.318019
H69	H	0.919287	-0.294723	-0.384448
