data_functionalizedCrystal
_audit_creation_method	'MofGen! by Chris Wilmer'
_symmetry_space_group_name_H-M	'P1'
_symmetry_Int_Tables_number	1
_symmetry_cell_setting	triclinic
loop_
_symmetry_equiv_pos_as_xyz
  x,y,z
_cell_length_a	6.817900
_cell_length_b	17.296766
_cell_length_c	17.110486
_cell_angle_alpha	100.227224
_cell_angle_beta	99.060439
_cell_angle_gamma	102.621013
loop_
_atom_site_label
_atom_site_type_symbol
_atom_site_fract_x
_atom_site_fract_y
_atom_site_fract_z
V1	V	-3.976392	-0.110853	-0.254662
O2	O	-3.965399	0.005573	-0.241624
O3	O	-3.927739	-0.220040	-0.260798
O4	O	-3.906258	-0.109040	-0.362136
O5	O	-3.987029	-0.106195	-0.139585
V6	V	-4.462869	-0.096940	-0.239941
O7	O	-4.231170	-0.141373	-0.286954
O8	O	-4.658287	-0.066421	-0.207649
O9	O	-4.288315	0.012247	-0.233806
O10	O	-4.591258	-0.213367	-0.252979
O11	O	-4.569629	-0.101598	-0.355019
O12	O	-4.309796	-0.098753	-0.132468
C13	C	-3.773381	-0.246661	-0.258813
C14	C	-3.814744	-0.335922	-0.264546
C15	C	-3.808623	-0.366461	-0.193958
C16	C	-3.847507	-0.450332	-0.199347
C17	C	-3.892496	-0.503662	-0.275325
C18	C	-3.898622	-0.473119	-0.345918
C19	C	-3.859753	-0.389250	-0.340528
C20	C	-4.011147	-0.757464	-0.295265
C21	C	-4.050010	-0.841338	-0.300649
C22	C	-3.998896	-0.818545	-0.154078
C23	C	-3.960017	-0.734675	-0.148695
C24	C	-3.966156	-0.704139	-0.219288
C25	C	-3.932236	-0.589392	-0.280835
C26	C	-3.926431	-0.618411	-0.213777
C27	C	-3.745979	-0.105069	-0.388078
C28	C	-3.769919	-0.104309	-0.475990
C29	C	-3.962444	-0.107959	-0.521609
C30	C	-3.984925	-0.107244	-0.604211
C31	C	-3.814883	-0.102885	-0.641194
C32	C	-3.622342	-0.099232	-0.595568
C33	C	-3.599860	-0.099941	-0.512966
C34	C	-3.873693	-0.100539	-0.890381
C35	C	-3.896192	-0.099833	-0.972989
C36	C	-4.258774	-0.107844	-0.981627
C37	C	-4.236277	-0.108557	-0.899024
C38	C	-4.043737	-0.104900	-0.853404
C39	C	-3.837860	-0.102157	-0.725627
C40	C	-4.020759	-0.105622	-0.768971
C41	C	-4.106015	0.038863	-0.235789
C42	C	-4.043890	0.128123	-0.230061
C43	C	-4.133417	-0.102728	-0.106521
C44	C	-4.088717	-0.103484	-0.018608
H45	H	-3.968870	-0.632823	-0.342696
H46	H	-3.443078	-0.096949	-0.475819
N47	N	-3.866344	-0.356301	-0.416657
H48	H	-4.007570	-0.378655	-0.452518
H49	H	-3.760890	-0.373103	-0.446686
N50	N	-3.666035	-0.096592	-0.841182
H51	H	-3.561734	-0.093725	-0.877147
H52	H	-3.674346	-0.146708	-0.817983
H53	H	-3.483890	-0.095678	-0.625684
H54	H	-3.771975	-0.323043	-0.132088
N55	N	-4.419681	-0.113252	-0.859139
H56	H	-4.376225	-0.113149	-0.799889
H57	H	-4.528326	-0.164877	-0.886730
N58	N	-4.098527	-0.898863	-0.382599
H59	H	-4.096521	-0.866793	-0.426503
H60	H	-4.239056	-0.936937	-0.390908
N61	N	-3.947202	-0.530637	-0.427868
H62	H	-3.970905	-0.588403	-0.420573
H63	H	-3.828293	-0.518183	-0.456056
H64	H	-3.923398	-0.691257	-0.086826
H65	H	-4.159204	-0.109169	-0.738856
H66	H	-4.415533	-0.110820	-1.018779
N67	N	-4.145852	-0.112667	-0.481725
H68	H	-4.271225	-0.114869	-0.523162
H69	H	-4.118870	-0.063136	-0.436376
H70	H	-3.993905	-0.843417	-0.096605
H71	H	-3.889810	-0.574986	-0.151917
N72	N	-4.017753	-0.724534	-0.371400
H73	H	-4.052138	-0.771047	-0.420347
H74	H	-3.879442	-0.687455	-0.369471
H75	H	-3.842525	-0.475191	-0.141867
N76	N	-4.192568	-0.111166	-0.653413
H77	H	-4.296877	-0.114036	-0.617451
H78	H	-4.235362	-0.161041	-0.699145
N79	N	-3.712770	-0.095108	-1.012875
H80	H	-3.587378	-0.092888	-0.971439
H81	H	-3.688703	-0.044634	-1.035687
N82	N	-3.654467	-0.097458	-0.765519
H83	H	-3.529080	-0.095254	-0.724089
H84	H	-3.630361	-0.046987	-0.788333
