data_functionalizedCrystal
_audit_creation_method	'MofGen! by Chris Wilmer'
_symmetry_space_group_name_H-M	'P1'
_symmetry_Int_Tables_number	1
_symmetry_cell_setting	triclinic
loop_
_symmetry_equiv_pos_as_xyz
  x,y,z
_cell_length_a	10.489716
_cell_length_b	27.732046
_cell_length_c	26.809956
_cell_angle_alpha	89.974324
_cell_angle_beta	90.019912
_cell_angle_gamma	96.414443
loop_
_atom_site_label
_atom_site_type_symbol
_atom_site_fract_x
_atom_site_fract_y
_atom_site_fract_z
O1	O	1.691103	-0.068143	0.041483
O2	O	1.319621	-0.074557	0.041486
O3	O	1.516900	-0.001026	0.041473
O4	O	1.493823	-0.141674	0.041496
O5	O	1.516830	-0.001005	-0.041486
O6	O	1.319551	-0.074536	-0.041473
O7	O	1.691033	-0.068123	-0.041476
Zn8	Zn	1.505281	-0.071326	-0.054646
Zn9	Zn	1.505373	-0.071353	0.054656
O10	O	1.493753	-0.141654	-0.041463
C11	C	1.272075	-0.074064	0.000006
C12	C	1.130507	-0.072623	0.000007
C13	C	1.030851	-0.117714	0.000015
C14	C	0.954518	-0.093877	-0.040894
C15	C	0.954594	-0.093887	0.040897
C16	C	1.056039	-0.048804	-0.040936
C17	C	1.056120	-0.048821	0.040892
C18	C	0.979838	-0.024950	-0.000027
C19	C	1.516381	0.016995	-0.000008
C20	C	1.514924	0.070659	-0.000014
C21	C	1.622325	0.408800	0.000003
C22	C	1.616917	0.610493	0.000005
O23	O	1.715124	0.641132	0.000026
N24	N	1.499939	0.630352	0.000005
C25	C	1.384306	0.599783	0.000008
O26	O	1.284685	0.621301	0.000013
C27	C	1.389715	0.398090	0.000009
C28	C	1.506701	0.378235	0.000004
C29	C	1.739301	0.388944	-0.000001
C30	C	1.740652	0.338523	-0.000004
C31	C	1.625027	0.307959	-0.000003
C32	C	1.508051	0.327814	0.000001
C33	C	1.274083	0.367522	0.000015
C34	C	1.275446	0.317097	0.000017
C35	C	1.392431	0.297241	0.000012
C36	C	1.393777	0.246829	-0.000001
N37	N	1.510755	0.226971	-0.000001
C38	C	1.626380	0.257536	-0.000002
C39	C	1.381474	0.705675	0.000006
C40	C	1.380121	0.756098	0.000005
C41	C	1.612733	0.766805	0.000003
C42	C	1.614084	0.716381	0.000001
C43	C	1.498451	0.685817	0.000006
C44	C	1.629208	0.151649	-0.000009
C45	C	1.630548	0.101223	-0.000015
C46	C	1.397937	0.090521	-0.000011
C47	C	1.396596	0.140942	-0.000008
C48	C	1.512242	0.171505	-0.000006
O49	O	1.295623	0.216161	-0.000016
O50	O	1.725986	0.236008	0.000004
C51	C	1.620974	0.459220	0.000006
C52	C	1.503999	0.479076	0.000011
C53	C	1.388374	0.448511	0.000012
C54	C	1.502646	0.529499	0.000009
C55	C	1.618271	0.560064	0.000008
C56	C	1.735248	0.540205	0.000009
C57	C	1.736599	0.489785	0.000005
C58	C	1.271397	0.468369	0.000012
C59	C	1.270055	0.518790	0.000014
C60	C	1.385680	0.549355	0.000013
C61	C	1.738579	-0.068615	0.000005
C62	C	1.880146	-0.070057	0.000007
N63	N	1.505227	-0.071307	-0.129242
C64	C	1.494276	0.840326	0.000013
C65	C	1.495746	0.786663	0.000003
C66	C	1.428580	-0.041732	-0.526140
C67	C	1.428519	-0.041718	-0.317262
O68	O	1.363265	-0.016531	-0.290273
N69	N	1.505279	-0.071315	-0.291121
C70	C	1.582065	-0.100915	-0.317202
O71	O	1.647362	-0.126085	-0.290175
C72	C	1.582131	-0.100926	-0.526079
C73	C	1.505357	-0.071331	-0.552217
C74	C	1.351813	-0.012139	-0.552278
C75	C	1.351824	-0.012144	-0.604495
C76	C	1.428601	-0.041743	-0.630572
C77	C	1.505367	-0.071336	-0.604434
C78	C	1.658923	-0.130523	-0.552159
C79	C	1.658935	-0.130522	-0.604382
C80	C	1.582161	-0.100927	-0.630520
C81	C	1.582155	-0.100941	-0.682728
N82	N	1.505396	-0.071344	-0.708869
C83	C	1.428619	-0.041745	-0.682791
C84	C	1.582023	-0.100908	-0.207539
C85	C	1.582004	-0.100906	-0.155320
C86	C	1.428461	-0.041708	-0.155383
C87	C	1.428473	-0.041713	-0.207603
C88	C	1.505263	-0.071311	-0.233680
C89	C	1.428646	-0.041760	-0.792449
C90	C	1.428659	-0.041769	-0.844670
C91	C	1.582208	-0.100965	-0.844602
C92	C	1.582190	-0.100957	-0.792386
C93	C	1.505405	-0.071351	-0.766311
O94	O	1.647386	-0.126111	-0.709748
O95	O	1.363353	-0.016571	-0.709828
C96	C	1.428569	-0.041726	-0.473923
C97	C	1.505336	-0.071319	-0.447785
C98	C	1.582113	-0.100918	-0.473862
C99	C	1.505318	-0.071318	-0.395566
C100	C	1.428540	-0.041719	-0.369488
C101	C	1.351781	-0.012122	-0.395629
C102	C	1.351792	-0.012127	-0.447846
C103	C	1.658872	-0.130515	-0.447721
C104	C	1.658854	-0.130508	-0.395505
C105	C	1.582077	-0.100909	-0.369427
N106	N	1.505437	-0.071368	0.129252
H107	H	1.100163	-0.029772	-0.075556
C108	C	1.141366	0.540628	0.000020
H109	H	1.157108	0.575036	0.000019
H110	H	1.093835	0.530147	0.028951
H111	H	1.093773	0.530176	-0.028912
C112	C	0.949201	0.028078	-0.000053
H113	H	0.901515	0.033935	0.029018
H114	H	0.900252	0.033790	-0.028845
H115	H	1.026961	0.049228	-0.000335
C116	C	1.666657	-0.133523	-0.873292
H117	H	1.712374	-0.151152	-0.850248
H118	H	1.725741	-0.113930	-0.893664
H119	H	1.613950	-0.155579	-0.893659
H120	H	1.100482	-0.029809	0.075473
H121	H	0.910170	-0.112903	-0.075473
H122	H	0.910302	-0.112939	0.075478
H123	H	1.725816	0.085060	-0.000020
C124	C	1.145398	0.389352	0.000025
H125	H	1.076742	0.363921	0.000032
H126	H	1.139987	0.408812	-0.028903
H127	H	1.140062	0.408785	0.028960
H128	H	1.833462	0.413825	-0.000000
C129	C	1.756415	0.185261	-0.000011
H130	H	1.826265	0.166208	-0.000019
H131	H	1.760765	0.205143	0.028918
H132	H	1.760699	0.205164	-0.028945
H133	H	1.835913	0.322362	-0.000006
C134	C	1.267327	0.020437	-0.366940
H135	H	1.221597	0.038063	-0.389982
H136	H	1.320030	0.042489	-0.346572
H137	H	1.208234	0.000842	-0.346569
H138	H	1.709344	0.700219	-0.000003
H139	H	1.706879	0.791699	0.000002
H140	H	1.284860	0.772259	-0.000000
H141	H	1.287306	0.680793	0.000010
H142	H	1.181281	0.292213	0.000022
H143	H	1.301337	0.157108	-0.000018
C144	C	1.267348	0.020431	-0.476592
H145	H	1.221635	0.038060	-0.453576
H146	H	1.208261	0.000841	-0.496963
H147	H	1.320060	0.042487	-0.496963
H148	H	1.177239	0.443488	0.000014
C149	C	1.270761	0.056894	-0.000006
H150	H	1.288330	0.024021	-0.000003
H151	H	1.222712	0.062965	-0.028933
H152	H	1.222787	0.062944	0.028930
C153	C	1.865284	0.467950	0.000005
H154	H	1.933942	0.493381	0.000009
H155	H	1.870636	0.448515	-0.028924
H156	H	1.870675	0.448493	0.028939
C157	C	1.743315	-0.163063	-0.366758
H158	H	1.789048	-0.180687	-0.389772
H159	H	1.690626	-0.185117	-0.346381
H160	H	1.802404	-0.143463	-0.346393
H161	H	1.289311	0.011957	-0.625772
H162	H	1.366135	-0.017669	-0.865950
H163	H	1.829394	0.565100	0.000005
C164	C	1.061863	-0.170697	-0.000024
H165	H	1.109598	-0.176542	0.029056
H166	H	1.110877	-0.176317	-0.028806
H167	H	0.984233	-0.191921	-0.000337
H168	H	1.289292	0.011967	-0.531051
H169	H	1.366121	-0.017651	-0.771225
H170	H	1.365957	-0.017614	-0.228882
H171	H	1.365942	-0.017609	-0.134142
H172	H	1.644506	-0.125012	-0.134042
C173	C	1.666486	-0.133473	-0.236217
H174	H	1.712181	-0.151100	-0.213165
H175	H	1.725588	-0.113887	-0.256588
H176	H	1.613782	-0.155530	-0.256584
H177	H	1.721443	-0.154622	-0.530886
C178	C	1.743399	-0.163084	-0.633063
H179	H	1.789106	-0.180710	-0.610014
H180	H	1.802490	-0.143496	-0.653436
H181	H	1.690693	-0.185143	-0.653428
C182	C	1.666642	-0.133510	-0.763632
H183	H	1.712375	-0.151136	-0.786644
H184	H	1.613954	-0.155561	-0.743252
H185	H	1.725731	-0.113907	-0.743269
H186	H	1.721397	-0.154618	-0.468948
