data_functionalizedCrystal
_audit_creation_method	'MofGen! by Chris Wilmer'
_symmetry_space_group_name_H-M	'P1'
_symmetry_Int_Tables_number	1
_symmetry_cell_setting	triclinic
loop_
_symmetry_equiv_pos_as_xyz
  x,y,z
_cell_length_a	27.731994
_cell_length_b	27.732048
_cell_length_c	26.809956
_cell_angle_alpha	89.999364
_cell_angle_beta	89.997334
_cell_angle_gamma	82.631595
loop_
_atom_site_label
_atom_site_type_symbol
_atom_site_fract_x
_atom_site_fract_y
_atom_site_fract_z
O1	O	0.640948	0.057385	-0.041414
O2	O	0.500151	0.066158	-0.041431
O3	O	0.574922	-0.008626	-0.041412
O4	O	0.566177	0.132169	-0.041432
O5	O	0.574908	-0.008614	0.041547
O6	O	0.500137	0.066170	0.041528
O7	O	0.640934	0.057397	0.041545
Zn8	Zn	0.570533	0.061785	0.054708
Zn9	Zn	0.570552	0.061770	-0.054594
O10	O	0.566163	0.132181	0.041527
C11	C	0.574732	-0.026627	0.000069
C12	C	0.574179	-0.080282	0.000073
C13	C	0.482137	0.065984	0.000046
C14	C	0.428480	0.065442	0.000040
C15	C	0.614884	-0.419105	0.000052
C16	C	0.612833	-0.620764	0.000045
O17	O	0.650055	-0.652027	0.000028
N18	N	0.568496	-0.639879	0.000040
C19	C	0.524670	-0.608576	0.000033
O20	O	0.486912	-0.629462	0.000024
C21	C	0.526721	-0.406918	0.000037
C22	C	0.571061	-0.387805	0.000047
C23	C	0.659220	-0.399992	0.000061
C24	C	0.659732	-0.349580	0.000066
C25	C	0.615908	-0.318281	0.000061
C26	C	0.571573	-0.337394	0.000052
C27	C	0.482895	-0.375615	0.000027
C28	C	0.483412	-0.325198	0.000027
C29	C	0.527751	-0.306086	0.000037
C30	C	0.528262	-0.255683	0.000051
N31	N	0.572598	-0.236567	0.000056
C32	C	0.616421	-0.267867	0.000061
C33	C	0.523596	-0.714450	0.000032
C34	C	0.523083	-0.764864	0.000032
C35	C	0.611246	-0.777049	0.000043
C36	C	0.611759	-0.726633	0.000047
C37	C	0.567932	-0.695335	0.000037
C38	C	0.617494	-0.161998	0.000071
C39	C	0.618002	-0.111581	0.000078
C40	C	0.529839	-0.099401	0.000064
C41	C	0.529331	-0.149813	0.000060
C42	C	0.573162	-0.181111	0.000062
O43	O	0.491060	-0.224391	0.000063
O44	O	0.654174	-0.246971	0.000060
C45	C	0.614372	-0.469517	0.000047
C46	C	0.570036	-0.488629	0.000038
C47	C	0.526213	-0.457330	0.000033
C48	C	0.569523	-0.539043	0.000038
C49	C	0.613346	-0.570343	0.000043
C50	C	0.657683	-0.551228	0.000048
C51	C	0.658195	-0.500816	0.000052
C52	C	0.481876	-0.476445	0.000028
C53	C	0.481367	-0.526857	0.000024
C54	C	0.525191	-0.558157	0.000029
C55	C	0.095754	0.062032	0.045281
C56	C	-0.105904	0.059970	0.045287
O57	O	-0.131983	0.059688	0.083746
N58	N	-0.131111	0.059708	0.000066
C59	C	-0.105900	0.059958	-0.045160
O60	O	-0.131967	0.059683	-0.083623
C61	C	0.095757	0.062016	-0.045165
C62	C	0.120961	0.062283	0.000059
C63	C	0.120958	0.062299	0.090501
C64	C	0.171369	0.062817	0.090499
C65	C	0.196576	0.063068	0.045277
C66	C	0.171372	0.062802	0.000057
C67	C	0.120968	0.062263	-0.090390
C68	C	0.171386	0.062776	-0.090388
C69	C	0.196590	0.063043	-0.045164
C70	C	0.246991	0.063571	-0.045167
N71	N	0.272198	0.063833	0.000054
C72	C	0.246991	0.063582	0.045276
C73	C	-0.211774	0.058879	-0.045154
C74	C	-0.262188	0.058365	-0.045152
C75	C	-0.262188	0.058376	0.045294
C76	C	-0.211773	0.058893	0.045293
C77	C	-0.186566	0.059141	0.000067
C78	C	0.352858	0.064670	0.045268
C79	C	0.403273	0.065190	0.045262
C80	C	0.403269	0.065176	-0.045184
C81	C	0.352858	0.064659	-0.045179
C82	C	0.327654	0.064404	0.000052
O83	O	0.273102	0.063848	-0.083606
O84	O	0.273068	0.063846	0.083733
C85	C	0.045343	0.061514	0.045283
C86	C	0.020139	0.061247	0.000063
C87	C	0.045346	0.061499	-0.045160
C88	C	-0.030275	0.060734	0.000064
C89	C	-0.055483	0.060482	0.045286
C90	C	-0.030275	0.060745	0.090507
C91	C	0.020136	0.061263	0.090505
C92	C	0.020139	0.061237	-0.090381
C93	C	-0.030272	0.060719	-0.090375
C94	C	-0.055479	0.060468	-0.045153
C95	C	0.658949	0.057571	0.000067
C96	C	0.712605	0.058114	0.000070
C97	C	0.566353	0.150182	0.000045
C98	C	0.566906	0.203837	0.000037
N99	N	0.570524	0.061795	0.129304
N100	N	0.570565	0.061756	-0.129190
C101	C	0.603656	0.028664	0.473939
C102	C	0.603668	0.028656	0.682816
O103	O	0.631818	0.000490	0.709827
N104	N	0.570555	0.061759	0.708931
C105	C	0.537434	0.094864	0.682824
O106	O	0.509266	0.123017	0.709829
C107	C	0.537420	0.094869	0.473947
C108	C	0.570539	0.061767	0.447835
C109	C	0.636772	-0.004436	0.447826
C110	C	0.636771	-0.004432	0.395610
C111	C	0.603653	0.028672	0.369506
C112	C	0.570538	0.061771	0.395618
C113	C	0.504298	0.127972	0.447841
C114	C	0.504297	0.127969	0.395618
C115	C	0.537415	0.094867	0.369506
C116	C	0.537419	0.094879	0.317298
N117	N	0.570532	0.061776	0.291183
C118	C	0.603650	0.028672	0.317287
C119	C	0.537444	0.094860	0.792487
C120	C	0.537448	0.094860	0.844706
C121	C	0.603681	0.028651	0.844695
C122	C	0.603679	0.028654	0.792475
C123	C	0.570557	0.061757	0.766372
C124	C	0.603644	0.028683	0.207629
C125	C	0.603641	0.028692	0.155408
C126	C	0.537406	0.094898	0.155424
C127	C	0.537411	0.094892	0.207640
C128	C	0.570532	0.061781	0.233742
O129	O	0.509280	0.123027	0.290255
O130	O	0.631806	0.000517	0.290273
C131	C	0.603658	0.028660	0.526155
C132	C	0.570542	0.061759	0.552267
C133	C	0.537425	0.094863	0.526163
C134	C	0.570546	0.061759	0.604486
C135	C	0.603663	0.028655	0.630590
C136	C	0.636776	-0.004448	0.604475
C137	C	0.636775	-0.004444	0.552259
C138	C	0.504312	0.127966	0.552279
C139	C	0.504316	0.127960	0.604495
C140	C	0.537433	0.094856	0.630599
H141	H	0.654110	-0.096023	0.000087
H142	H	0.694301	-0.485260	0.000060
O143	O	0.701761	-0.430441	0.000133
C144	C	0.704104	-0.459957	0.043106
H145	H	0.665753	-0.462226	0.057423
H146	H	0.722409	-0.497986	0.033448
H147	H	0.726044	-0.443529	0.073196
H148	H	0.693365	-0.576720	0.000054
H149	H	0.653186	-0.187475	0.000070
H150	H	-0.050808	0.060542	0.127329
O151	O	0.668880	-0.036642	0.473201
C152	C	0.643230	-0.066280	0.503421
H153	H	0.605111	-0.066829	0.487697
H154	H	0.663244	-0.104841	0.504003
H155	H	0.640592	-0.051140	0.542999
O156	O	0.702816	-0.331043	-0.000018
C157	C	0.729515	-0.347085	-0.042975
H158	H	0.703582	-0.357372	-0.073007
H159	H	0.749856	-0.316700	-0.057395
H160	H	0.756695	-0.380153	-0.033259
H161	H	0.493226	-0.165375	0.000066
H162	H	0.630647	0.001700	0.771217
O163	O	0.472123	0.160173	0.527003
C164	C	0.442892	0.189377	0.561256
H165	H	0.462710	0.189773	0.598476
H166	H	0.435228	0.228037	0.546177
H167	H	0.407101	0.173937	0.566812
H168	H	0.447722	-0.299716	0.000018
O169	O	0.654872	-0.708150	0.000029
C170	C	0.693438	-0.746592	0.000048
H171	H	0.680147	-0.780742	-0.015657
H172	H	0.724421	-0.736294	-0.024036
H173	H	0.706931	-0.753827	0.039849
H174	H	0.646929	-0.802541	0.000047
H175	H	0.423802	0.065383	-0.082003
H176	H	0.040658	0.061440	-0.127207
H177	H	0.663744	-0.031400	0.625737
H178	H	0.332342	0.064467	0.082099
O179	O	-0.054675	0.060440	-0.134354
C180	C	-0.021611	0.060784	-0.174265
H181	H	0.016442	0.045849	-0.161000
H182	H	-0.032922	0.037149	-0.205888
H183	H	-0.021616	0.099631	-0.188179
O184	O	0.487316	-0.068923	0.000037
C185	C	0.497281	-0.020330	0.000053
H186	H	0.535240	-0.018687	-0.015644
H187	H	0.469333	0.002725	-0.024039
H188	H	0.495328	-0.005734	0.039852
H189	H	0.487905	-0.688970	0.000025
O190	O	0.438250	-0.545339	-0.000007
C191	C	0.399684	-0.506897	0.000001
H192	H	0.412981	-0.472746	-0.015696
H193	H	0.368711	-0.517194	-0.024094
H194	H	0.386174	-0.499665	0.039798
O195	O	0.328329	0.064339	-0.089077
C196	C	0.304975	0.022150	-0.091785
H197	H	0.299350	0.008115	-0.052520
H198	H	0.268223	0.031200	-0.110929
H199	H	0.328467	-0.006978	-0.114096
H200	H	0.630612	0.001736	0.134149
O201	O	0.479969	-0.783346	0.000006
C202	C	0.441403	-0.744904	0.000013
H203	H	0.454699	-0.710755	-0.015690
H204	H	0.410428	-0.755204	-0.024078
H205	H	0.427896	-0.737667	0.039811
O206	O	0.195838	0.063105	-0.134334
C207	C	0.177716	0.104849	-0.161856
H208	H	0.159807	0.133982	-0.135399
H209	H	0.208924	0.119245	-0.182374
H210	H	0.149762	0.095075	-0.190050
H211	H	0.100456	0.062045	-0.127217
O212	O	0.439836	-0.394197	0.000100
C213	C	0.436886	-0.423007	0.043054
H214	H	0.462046	-0.411279	0.073095
H215	H	0.397887	-0.418184	0.057463
H216	H	0.448337	-0.462852	0.033340
H217	H	0.477348	0.154919	0.625752
O218	O	-0.286702	0.058197	-0.089070
C219	C	-0.321663	0.099773	-0.091781
H220	H	-0.310522	0.129204	-0.066122
H221	H	-0.324172	0.113819	-0.131781
H222	H	-0.358563	0.089916	-0.079634
O223	O	0.427684	0.065426	0.089240
C224	C	0.394619	0.065103	0.129153
H225	H	0.360802	0.049423	0.115896
H226	H	0.412430	0.041779	0.160785
H227	H	0.383890	0.103844	0.143052
O228	O	0.439316	-0.446026	-0.000063
C229	C	0.436979	-0.416486	-0.043019
H230	H	0.461845	-0.435129	-0.073050
H231	H	0.397999	-0.410531	-0.057443
H232	H	0.449202	-0.379913	-0.033300
O233	O	0.195778	0.063049	0.134475
C234	C	0.162709	0.062727	0.174384
H235	H	0.128891	0.047051	0.161122
H236	H	0.180514	0.039401	0.206017
H237	H	0.151980	0.101468	0.188285
O238	O	0.044626	0.061604	0.134423
C239	C	0.068007	0.103776	0.137124
H240	H	0.048771	0.132891	0.111457
H241	H	0.066627	0.117842	0.177120
H242	H	0.107526	0.094696	0.124981
H243	H	-0.282721	0.058173	0.082116
O244	O	0.096468	0.061968	0.134422
C245	C	0.073087	0.019797	0.137140
H246	H	0.092320	-0.009325	0.111478
H247	H	0.074467	0.005741	0.177140
H248	H	0.033567	0.028875	0.125001
H249	H	0.663737	-0.031387	0.374352
O250	O	-0.187363	0.059126	0.089267
C251	C	-0.220431	0.058808	0.129178
H252	H	-0.254251	0.043133	0.115919
H253	H	-0.202625	0.035483	0.160811
H254	H	-0.231156	0.097550	0.143078
H255	H	0.630614	0.001720	0.228875
O256	O	0.635803	-0.003490	0.870134
C257	C	0.628708	0.003620	0.921822
H258	H	0.590144	0.021966	0.928952
H259	H	0.634354	-0.033025	0.941671
H260	H	0.655889	0.027668	0.936640
O261	O	0.505213	0.126971	0.870046
C262	C	0.457423	0.119457	0.857278
H263	H	0.457480	0.080755	0.842926
H264	H	0.433121	0.125190	0.891619
H265	H	0.443024	0.146349	0.826966
O266	O	-0.187369	0.059142	-0.089133
C267	C	-0.220433	0.058789	-0.129041
H268	H	-0.258485	0.073734	-0.115777
H269	H	-0.209117	0.082412	-0.160675
H270	H	-0.220432	0.019939	-0.142940
H271	H	0.510471	0.121818	0.771238
O272	O	0.472078	0.160145	0.473121
C273	C	0.442858	0.189364	0.438873
H274	H	0.442468	0.169545	0.401651
H275	H	0.404198	0.197010	0.453957
H276	H	0.458280	0.225165	0.433316
O277	O	0.472188	0.160148	0.370207
C278	C	0.497847	0.189800	0.340012
H279	H	0.535816	0.170282	0.332182
H280	H	0.477610	0.197594	0.303294
H281	H	0.500862	0.225501	0.360140
O282	O	0.505193	0.127065	0.232932
C283	C	0.475972	0.156292	0.198691
H284	H	0.475582	0.136482	0.161464
H285	H	0.437312	0.163932	0.213777
H286	H	0.491392	0.192095	0.193145
O287	O	0.505255	0.127005	0.129984
C288	C	0.512365	0.119912	0.078296
H289	H	0.530726	0.081354	0.071167
H290	H	0.475719	0.125542	0.058451
H291	H	0.536399	0.147105	0.063474
O292	O	0.668963	-0.036648	0.526974
C293	C	0.698197	-0.065855	0.561221
H294	H	0.678381	-0.066256	0.598444
H295	H	0.705862	-0.104513	0.546137
H296	H	0.733987	-0.050413	0.566773
