data_functionalizedCrystal
_audit_creation_method	'MofGen! by Chris Wilmer'
_symmetry_space_group_name_H-M	'P1'
_symmetry_Int_Tables_number	1
_symmetry_cell_setting	triclinic
loop_
_symmetry_equiv_pos_as_xyz
  x,y,z
_cell_length_a	12.759401
_cell_length_b	13.897449
_cell_length_c	12.759399
_cell_angle_alpha	89.992101
_cell_angle_beta	89.984607
_cell_angle_gamma	90.001883
loop_
_atom_site_label
_atom_site_type_symbol
_atom_site_fract_x
_atom_site_fract_y
_atom_site_fract_z
Zn1	Zn	1.606080	0.545339	0.418446
Zn2	Zn	1.606024	0.384044	0.594091
Zn3	Zn	1.430433	0.384063	0.418428
Zn4	Zn	1.430369	0.545302	0.594085
O5	O	1.518226	0.464687	0.506262
O6	O	1.753093	0.523950	0.441756
O7	O	1.582735	0.249065	0.570784
O8	O	1.453783	0.405479	0.271409
O9	O	1.753052	0.405448	0.570802
O10	O	1.582830	0.523968	0.271423
O11	O	1.453728	0.249079	0.441725
O12	O	1.283403	0.405444	0.441719
O13	O	1.453674	0.680289	0.570791
O14	O	1.283356	0.523906	0.570773
O15	O	1.582768	0.680315	0.441750
O16	O	1.582673	0.405412	0.741111
O17	O	1.453620	0.523888	0.741107
C18	C	1.245259	0.464674	0.506244
C19	C	1.128482	0.464691	0.506261
C20	C	0.963892	0.526283	0.573578
C21	C	1.073616	0.526273	0.573566
C22	C	1.073618	0.403107	0.438971
C23	C	0.963896	0.403113	0.438989
C24	C	1.518220	0.716280	0.506272
C25	C	1.518218	0.823494	0.506276
C26	C	1.518215	0.910563	0.506280
C27	C	1.518214	1.019796	0.506275
C28	C	1.792259	0.464701	0.506282
C29	C	1.909036	0.464707	0.506290
C30	C	1.518162	0.464665	0.779230
C31	C	1.518230	0.464688	0.896006
C32	C	1.518222	1.214073	0.506275
C33	C	1.518219	1.106859	0.506265
C34	C	1.518320	0.464730	0.232229
C35	C	1.518359	0.464748	0.115453
C36	C	1.585505	0.403068	0.950836
C37	C	1.585572	0.403100	1.060560
C38	C	1.451082	0.526375	1.060615
C39	C	1.451020	0.526347	0.950893
H40	H	1.118299	0.352961	0.384175
H41	H	1.640233	0.352862	0.906150
H42	H	1.640355	0.352924	1.105198
O43	O	0.910713	0.586243	0.638903
C44	C	0.937519	0.682415	0.616086
H45	H	1.017191	0.684473	0.575692
H46	H	0.875778	0.714993	0.562134
C47	C	0.844727	0.738155	0.768221
C48	C	0.942585	0.740683	0.718616
H49	H	0.847847	0.774100	0.831464
H50	H	0.826663	0.673363	0.783591
H51	H	0.793286	0.765302	0.723250
H52	H	0.994021	0.713526	0.763581
H53	H	0.960657	0.805473	0.703255
H54	H	1.118275	0.576414	0.628359
O55	O	0.910764	0.343264	0.373522
C56	C	0.982711	0.288887	0.314128
H57	H	1.060930	0.328396	0.310540
H58	H	0.994369	0.215568	0.352474
C59	C	0.843822	0.226638	0.206703
C60	C	0.939889	0.275167	0.202289
H61	H	0.817407	0.218170	0.137717
H62	H	0.795349	0.263269	0.246720
H63	H	0.853550	0.165543	0.238663
H64	H	0.930158	0.336264	0.170342
H65	H	0.988360	0.238545	0.162264
H66	H	1.396360	0.576575	1.105317
H67	H	1.396237	0.576530	0.906248
