data_functionalizedCrystal
_audit_creation_method	'MofGen! by Chris Wilmer'
_symmetry_space_group_name_H-M	'P1'
_symmetry_Int_Tables_number	1
_symmetry_cell_setting	triclinic
loop_
_symmetry_equiv_pos_as_xyz
  x,y,z
_cell_length_a	13.032831
_cell_length_b	12.759400
_cell_length_c	13.032268
_cell_angle_alpha	97.150187
_cell_angle_beta	90.886977
_cell_angle_gamma	82.819639
loop_
_atom_site_label
_atom_site_type_symbol
_atom_site_fract_x
_atom_site_fract_y
_atom_site_fract_z
Zn1	Zn	1.498516	-0.709532	-0.780845
Zn2	Zn	1.998516	-0.209532	-0.280845
Zn3	Zn	1.520267	-0.866067	-0.608867
Zn4	Zn	2.020267	-0.366067	-0.108867
Zn5	Zn	1.348373	-0.665643	-0.587085
Zn6	Zn	1.848373	-0.165643	-0.087085
Zn7	Zn	1.326515	-0.860387	-0.758992
Zn8	Zn	1.826515	-0.360387	-0.258992
O9	O	1.423418	-0.775407	-0.683947
O10	O	1.923418	-0.275407	-0.183947
O11	O	1.645323	-0.751042	-0.776293
O12	O	2.145323	-0.251042	-0.276293
O13	O	1.515715	-0.823490	-0.462060
O14	O	2.015715	-0.323490	0.037940
O15	O	1.368334	-0.524453	-0.612817
O16	O	1.868334	-0.024453	-0.112817
O17	O	1.661303	-0.866048	-0.649941
O18	O	2.161303	-0.366048	-0.149941
O19	O	1.478644	-0.556699	-0.755172
O20	O	1.978644	-0.056699	-0.255172
O21	O	1.389425	-0.676239	-0.446057
O22	O	1.889425	-0.176239	0.053943
O23	O	1.201551	-0.670731	-0.591628
O24	O	1.701551	-0.170731	-0.091628
O25	O	1.331081	-0.856366	-0.905808
O26	O	1.831081	-0.356366	-0.405808
O27	O	1.185493	-0.813808	-0.717927
O28	O	1.685493	-0.313808	-0.217927
O29	O	1.457450	-0.745534	-0.921863
O30	O	1.957450	-0.245534	-0.421863
O31	O	1.494520	-1.012325	-0.628751
O32	O	1.994520	-0.512325	-0.128751
O33	O	1.352172	-1.008152	-0.739048
O34	O	1.852172	-0.508152	-0.239048
C35	C	1.156205	-0.736891	-0.650043
C36	C	1.656205	-0.236891	-0.150043
C37	C	1.041887	-0.720442	-0.635563
C38	C	1.541887	-0.220442	-0.135563
C39	C	0.983014	-0.783992	-0.691504
C40	C	1.483014	-0.283992	-0.191504
C41	C	0.864860	-0.766993	-0.676540
C42	C	1.364860	-0.266993	-0.176540
C43	C	1.423359	-1.048363	-0.683918
C44	C	1.923359	-0.548363	-0.183918
C45	C	1.423424	-1.165153	-0.683952
C46	C	1.923424	-0.665153	-0.183952
C47	C	1.497609	-1.222171	-0.626602
C48	C	1.997609	-0.722171	-0.126602
C49	C	1.497668	-1.331908	-0.626642
C50	C	1.997668	-0.831908	-0.126642
C51	C	1.349348	-1.327596	-0.741382
C52	C	1.849348	-0.827596	-0.241382
C53	C	1.349295	-1.217863	-0.741348
C54	C	1.849295	-0.717863	-0.241348
C55	C	1.571738	-1.169461	-0.569206
C56	C	2.071738	-0.669461	-0.069206
C57	C	1.645929	-1.226480	-0.511852
C58	C	2.145929	-0.726480	-0.011852
C59	C	1.645988	-1.336216	-0.511891
C60	C	2.145988	-0.836216	-0.011891
C61	C	1.571857	-1.388934	-0.569286
C62	C	2.071857	-0.888934	-0.069286
C63	C	1.691674	-0.814074	-0.717984
C64	C	2.191674	-0.314074	-0.217984
C65	C	1.805989	-0.830552	-0.732489
C66	C	2.305989	-0.330552	-0.232489
C67	C	1.389401	-0.805212	-0.952195
C68	C	1.889401	-0.305212	-0.452195
C69	C	1.374905	-0.817913	-1.066506
C70	C	1.874905	-0.317913	-0.566506
C71	C	1.423501	-0.501392	-0.684002
C72	C	1.923501	-0.001392	-0.184002
C73	C	1.423537	-0.384623	-0.684026
C74	C	1.923537	0.115377	-0.184026
C75	C	1.430967	-0.768738	-1.125413
C76	C	1.930967	-0.268738	-0.625413
C77	C	1.415986	-0.781864	-1.243560
C78	C	1.915986	-0.281864	-0.743560
C79	C	1.457361	-0.745651	-0.416751
C80	C	1.957361	-0.245651	0.083249
C81	C	1.472056	-0.732683	-0.302465
C82	C	1.972056	-0.232683	0.197535
H83	H	1.004816	-0.653445	-0.576595
H84	H	1.504816	-0.153445	-0.076595
O85	O	1.550339	-0.664045	-1.253425
O86	O	2.050339	-0.164045	-0.753425
H87	H	1.530138	-0.581316	-1.271756
H88	H	2.030138	-0.081316	-0.771756
O89	O	1.269274	-1.156361	-0.803198
O90	O	1.769274	-0.656361	-0.303198
H91	H	1.308600	-1.118758	-0.861384
H92	H	1.808600	-0.618758	-0.361384
H93	H	1.571918	-1.478291	-0.569323
H94	H	2.071918	-0.978291	-0.069323
H95	H	1.571696	-1.080107	-0.569164
H96	H	2.071696	-0.580107	-0.069164
O97	O	1.296629	-0.886553	-1.115546
O98	O	1.796629	-0.386553	-0.615546
H99	H	1.297150	-0.886095	-1.200648
H100	H	1.797150	-0.386095	-0.700648
H101	H	1.706403	-1.382640	-0.465198
H102	H	2.206403	-0.882640	0.034802
O103	O	1.337710	-0.850507	-1.292604
O104	O	1.837710	-0.350507	-0.792604
H105	H	1.259585	-0.818578	-1.261810
H106	H	1.759585	-0.318578	-0.761810
O107	O	1.725898	-1.169635	-0.449970
O108	O	2.225898	-0.669635	0.050030
H109	H	1.713396	-1.083749	-0.459574
H110	H	2.213396	-0.583749	0.040426
O111	O	1.032112	-0.872712	-0.769643
O112	O	1.532112	-0.372712	-0.269643
H113	H	1.086899	-0.927967	-0.729694
H114	H	1.586899	-0.427967	-0.229694
O115	O	0.815780	-0.678259	-0.598398
O116	O	1.315780	-0.178259	-0.098398
H117	H	0.730682	-0.678844	-0.598892
H118	H	1.230682	-0.178844	-0.098892
O119	O	1.509246	-0.700106	-1.076366
O120	O	2.009246	-0.200106	-0.576366
H121	H	1.469397	-0.634627	-1.021583
H122	H	1.969397	-0.134627	-0.521583
O123	O	0.855070	-0.919295	-0.810620
O124	O	1.355070	-0.419295	-0.310620
H125	H	0.909848	-0.974548	-0.770658
H126	H	1.409848	-0.474548	-0.270658
O127	O	1.269381	-1.384444	-0.803265
O128	O	1.769381	-0.884444	-0.303265
H129	H	1.281872	-1.470326	-0.793641
H130	H	1.781872	-0.970326	-0.293641
