data_functionalizedCrystal
_audit_creation_method	'MofGen! by Chris Wilmer'
_symmetry_space_group_name_H-M	'P1'
_symmetry_Int_Tables_number	1
_symmetry_cell_setting	triclinic
loop_
_symmetry_equiv_pos_as_xyz
  x,y,z
_cell_length_a	16.992694
_cell_length_b	16.109301
_cell_length_c	15.186229
_cell_angle_alpha	90.005167
_cell_angle_beta	90.002273
_cell_angle_gamma	92.935148
loop_
_atom_site_label
_atom_site_type_symbol
_atom_site_fract_x
_atom_site_fract_y
_atom_site_fract_z
O1	O	1.040345	-0.176288	-0.073123
O2	O	1.540345	0.323712	0.426877
O3	O	0.812060	-0.174354	-0.073149
O4	O	1.312060	0.325646	0.426851
O5	O	0.932474	-0.054708	-0.073126
O6	O	1.432474	0.445292	0.426874
O7	O	0.919931	-0.295934	-0.073146
O8	O	1.419931	0.204066	0.426854
O9	O	0.932466	-0.054706	0.073331
O10	O	1.432466	0.445294	0.573331
O11	O	0.812052	-0.174352	0.073308
O12	O	1.312052	0.325648	0.573308
O13	O	1.040337	-0.176286	0.073334
O14	O	1.540337	0.323714	0.573334
Zn15	Zn	0.926193	-0.175318	0.096574
Zn16	Zn	1.426193	0.324682	0.596574
Zn17	Zn	0.926204	-0.175321	-0.096389
Zn18	Zn	1.426204	0.324679	0.403611
O19	O	0.919923	-0.295931	0.073312
O20	O	1.419923	0.204069	0.573312
C21	C	0.782844	-0.171865	0.000076
C22	C	1.282844	0.328135	0.500076
C23	C	0.695802	-0.164441	0.000067
C24	C	1.195802	0.335559	0.500067
N25	N	0.926192	-0.175316	0.228267
N26	N	1.426192	0.324684	0.728267
C27	C	0.931962	-0.023699	0.000103
C28	C	1.431962	0.476301	0.500103
C29	C	0.930439	0.068698	0.000104
C30	C	1.430439	0.568698	0.500104
C31	C	0.645543	-0.236067	0.000062
C32	C	1.145543	0.263933	0.500062
C33	C	0.563758	-0.229087	0.000074
C34	C	1.063758	0.270913	0.500074
C35	C	0.532234	-0.150481	0.000086
C36	C	1.032234	0.349519	0.500086
C37	C	0.582499	-0.078849	0.000094
C38	C	1.082499	0.421151	0.500094
C39	C	0.664282	-0.085830	0.000087
C40	C	1.164282	0.414170	0.500087
C41	C	0.288644	-0.121548	0.000112
C42	C	0.788644	0.378452	0.500112
C43	C	0.206854	-0.114572	0.000116
C44	C	0.706854	0.385428	0.500116
C45	C	0.188119	-0.264811	0.000098
C46	C	0.688119	0.235189	0.500098
C47	C	0.269904	-0.271785	0.000086
C48	C	0.769904	0.228215	0.500086
C49	C	0.320163	-0.200154	0.000099
C50	C	0.820163	0.299846	0.500099
N51	N	0.448637	-0.143344	0.000096
N52	N	0.948637	0.356656	0.500096
N53	N	0.403758	-0.207291	0.000095
N54	N	0.903758	0.292709	0.500095
C55	C	1.069553	-0.178775	0.000107
C56	C	1.569553	0.321225	0.500107
C57	C	1.156595	-0.186198	0.000111
C58	C	1.656595	0.313802	0.500111
C59	C	0.920435	-0.326941	0.000081
C60	C	1.420435	0.173059	0.500081
C61	C	0.921959	-0.419338	0.000074
C62	C	1.421959	0.080662	0.500074
C63	C	0.998348	0.286439	0.000097
C64	C	1.498348	0.786439	0.500097
C65	C	0.996911	0.373256	0.000090
C66	C	1.496911	0.873256	0.500090
C67	C	0.854044	0.362915	0.000077
C68	C	1.354044	0.862915	0.500077
C69	C	0.855482	0.276100	0.000078
C70	C	1.355482	0.776100	0.500078
C71	C	0.927636	0.237865	0.000093
C72	C	1.427636	0.737865	0.500093
C73	C	0.924761	0.411496	0.000084
C74	C	1.424761	0.911496	0.500084
C75	C	0.923202	0.505626	0.000076
C76	C	1.423202	1.005626	0.500076
C77	C	0.929196	0.143729	0.000099
C78	C	1.429196	0.643729	0.500099
N79	N	0.926212	-0.175317	-0.228082
N80	N	1.426212	0.324683	0.271918
C81	C	0.979529	-0.122357	0.454000
C82	C	1.479529	0.377643	0.954000
C83	C	0.979532	-0.122355	0.546190
C84	C	1.479532	0.377645	1.046190
C85	C	0.872869	-0.228279	0.546179
C86	C	1.372869	0.271721	1.046179
C87	C	0.872863	-0.228275	0.453991
C88	C	1.372863	0.271725	0.953991
C89	C	0.926198	-0.175316	0.407904
C90	C	1.426198	0.324684	0.907904
C91	C	0.926206	-0.175317	0.592281
C92	C	1.426206	0.324683	1.092281
C93	C	0.926208	-0.175316	0.692237
C94	C	1.426208	0.324684	1.192237
C95	C	0.926195	-0.175316	0.307941
C96	C	1.426195	0.324684	0.807941
H97	H	0.671204	-0.300077	0.000052
H98	H	1.171204	0.199923	0.500052
C99	C	0.774678	0.404982	0.000078
C100	C	1.274678	0.904982	0.500078
N101	N	0.714898	0.436666	0.000086
N102	N	1.214898	0.936666	0.500086
H103	H	0.797897	0.236549	0.000072
H104	H	1.297897	0.736549	0.500072
H105	H	0.829430	-0.271401	0.416457
H106	H	1.329430	0.228599	0.916457
H107	H	0.181191	-0.050558	0.000124
H108	H	0.681191	0.449442	0.500124
C109	C	0.343917	-0.042750	0.000120
C110	C	0.843917	0.457250	0.500120
N111	N	0.385552	0.016604	0.000124
N112	N	0.885552	0.516604	0.500124
C113	C	0.508477	-0.307882	0.000085
C114	C	1.008477	0.192118	0.500085
N115	N	0.466839	-0.367235	0.000099
N116	N	0.966839	0.132765	0.500099
H117	H	1.057101	0.255311	0.000107
H118	H	1.557101	0.755311	0.500107
C119	C	0.304575	-0.358259	0.000088
C120	C	0.804575	0.141741	0.500088
N121	N	0.330688	-0.423392	0.000091
N122	N	0.830688	0.076608	0.500091
C123	C	1.038194	-0.064089	0.596891
C124	C	1.538194	0.435911	1.096891
N125	N	1.082379	-0.020197	0.635079
N126	N	1.582379	0.479803	1.135079
C127	C	0.547819	0.007620	0.000108
C128	C	1.047819	0.507620	0.500108
N129	N	0.521700	0.072750	0.000115
N130	N	1.021700	0.572750	0.500115
H131	H	0.147190	-0.323129	0.000090
H132	H	0.647190	0.176871	0.500090
C133	C	0.814202	-0.286529	0.596883
C134	C	1.314202	0.213471	1.096883
N135	N	0.770013	-0.330404	0.635073
N136	N	1.270013	0.169596	1.135073
H137	H	0.705203	-0.027504	0.000091
H138	H	1.205203	0.472496	0.500091
H139	H	1.022956	-0.079233	0.416478
H140	H	1.522956	0.420767	0.916478
C141	C	1.074699	0.426684	0.000103
C142	C	1.574699	0.926684	0.500103
N143	N	1.133293	0.466926	0.000114
N144	N	1.633293	0.966926	0.500114
