data_functionalizedCrystal
_audit_creation_method	'MofGen! by Chris Wilmer'
_symmetry_space_group_name_H-M	'P1'
_symmetry_Int_Tables_number	1
_symmetry_cell_setting	triclinic
loop_
_symmetry_equiv_pos_as_xyz
  x,y,z
_cell_length_a	14.044220
_cell_length_b	27.732064
_cell_length_c	12.503572
_cell_angle_alpha	93.498303
_cell_angle_beta	86.164750
_cell_angle_gamma	87.919150
loop_
_atom_site_label
_atom_site_type_symbol
_atom_site_fract_x
_atom_site_fract_y
_atom_site_fract_z
O1	O	1.261509	0.113904	-0.089188
O2	O	1.761509	0.613904	0.410812
O3	O	0.985603	0.109701	-0.089216
O4	O	1.485603	0.609701	0.410784
O5	O	1.132117	0.041808	-0.089205
O6	O	1.632117	0.541808	0.410795
O7	O	1.114995	0.181797	-0.089199
O8	O	1.614995	0.681797	0.410801
O9	O	1.121098	0.046923	0.089436
O10	O	1.621098	0.546923	0.589436
O11	O	0.974584	0.114816	0.089425
O12	O	1.474584	0.614816	0.589425
O13	O	1.250491	0.119019	0.089453
O14	O	1.750491	0.619019	0.589453
Cu15	Cu	1.111531	0.117384	0.105751
Cu16	Cu	1.611531	0.617384	0.605751
Cu17	Cu	1.124562	0.111335	-0.105513
Cu18	Cu	1.624562	0.611335	0.394487
O19	O	1.103976	0.186912	0.089443
O20	O	1.603976	0.686912	0.589443
C21	C	0.944806	0.110418	0.000101
C22	C	1.444806	0.610418	0.500101
C23	C	0.839661	0.104931	0.000090
C24	C	1.339661	0.604931	0.500090
C25	C	1.126246	0.026341	0.000112
C26	C	1.626246	0.526341	0.500112
C27	C	1.125157	-0.027364	0.000102
C28	C	1.625157	0.472636	0.500102
C29	C	0.647144	0.094900	0.000111
C30	C	1.147144	0.594900	0.500111
C31	C	0.588945	0.133817	0.000117
C32	C	1.088945	0.633817	0.500117
C33	C	0.481822	0.128236	0.000129
C34	C	0.981822	0.628236	0.500129
C35	C	0.754277	0.100481	0.000099
C36	C	1.254277	0.600481	0.500099
C37	C	1.031158	-0.408849	0.000088
C38	C	1.531158	0.091151	0.500088
C39	C	1.035168	-0.207000	0.000087
C40	C	1.535168	0.293000	0.500087
O41	O	0.962230	-0.179172	0.000037
O42	O	1.462230	0.320828	0.500037
N43	N	1.122048	-0.183796	0.000096
N44	N	1.622048	0.316204	0.500096
C45	C	1.207933	-0.211056	0.000098
C46	C	1.707933	0.288944	0.500098
O47	O	1.281922	-0.186688	0.000094
O48	O	1.781922	0.313312	0.500094
C49	C	1.203922	-0.412904	0.000091
C50	C	1.703922	0.087096	0.500091
C51	C	1.117036	-0.436106	0.000093
C52	C	1.617036	0.063894	0.500093
C53	C	0.944279	-0.432051	0.000089
C54	C	1.444279	0.067949	0.500089
C55	C	0.943277	-0.482510	0.000095
C56	C	1.443277	0.017490	0.500095
C57	C	1.029154	-0.509767	0.000100
C58	C	1.529154	-0.009767	0.500100
C59	C	1.116034	-0.486565	0.000099
C60	C	1.616034	0.013435	0.500099
C61	C	1.289806	-0.440164	0.000085
C62	C	1.789806	0.059836	0.500085
C63	C	1.288796	-0.490629	0.000081
C64	C	1.788796	0.009371	0.500081
C65	C	1.201909	-0.513831	0.000083
C66	C	1.701909	-0.013831	0.500083
C67	C	1.200909	-0.564281	0.000110
C68	C	1.700909	-0.064281	0.500110
N69	N	1.114029	-0.587485	0.000102
N70	N	1.614029	-0.087485	0.500102
C71	C	1.028152	-0.560229	0.000097
C72	C	1.528152	-0.060229	0.500097
C73	C	1.210032	-0.105083	0.000103
C74	C	1.710032	0.394917	0.500103
C75	C	1.211035	-0.054621	0.000107
C76	C	1.711035	0.445379	0.500107
C77	C	1.038270	-0.050569	0.000094
C78	C	1.538270	0.449431	0.500094
C79	C	1.037268	-0.101032	0.000098
C80	C	1.537268	0.398968	0.500098
C81	C	1.123152	-0.128288	0.000095
C82	C	1.623152	0.371712	0.500095
C83	C	1.026054	-0.666196	0.000110
C84	C	1.526054	-0.166196	0.500110
C85	C	1.025059	-0.716659	0.000121
C86	C	1.525059	-0.216659	0.500121
C87	C	1.197824	-0.720707	0.000128
C88	C	1.697824	-0.220707	0.500128
C89	C	1.198819	-0.670248	0.000123
C90	C	1.698819	-0.170248	0.500123
C91	C	1.112926	-0.642994	0.000111
C92	C	1.612926	-0.142994	0.500111
O93	O	1.273809	-0.592139	0.000149
O94	O	1.773809	-0.092139	0.500149
O95	O	0.954174	-0.584607	0.000077
O96	O	1.454174	-0.084607	0.500077
C97	C	1.032160	-0.358390	0.000082
C98	C	1.532160	0.141610	0.500082
C99	C	1.119040	-0.335188	0.000081
C100	C	1.619040	0.164812	0.500081
C101	C	1.204917	-0.362445	0.000086
C102	C	1.704917	0.137555	0.500086
C103	C	1.120042	-0.284726	0.000085
C104	C	1.620042	0.215274	0.500085
C105	C	1.034165	-0.257469	0.000079
C106	C	1.534165	0.242531	0.500079
C107	C	0.947285	-0.280674	0.000071
C108	C	1.447285	0.219326	0.500071
C109	C	0.946283	-0.331133	0.000077
C110	C	1.446283	0.168867	0.500077
C111	C	1.291797	-0.339240	0.000095
C112	C	1.791797	0.160760	0.500095
C113	C	1.292792	-0.288781	0.000090
C114	C	1.792792	0.211219	0.500090
C115	C	1.206915	-0.261524	0.000085
C116	C	1.706915	0.238476	0.500085
C117	C	1.291288	0.118301	0.000134
C118	C	1.791288	0.618301	0.500134
C119	C	1.396433	0.123788	0.000138
C120	C	1.896433	0.623788	0.500138
C121	C	1.109847	0.202378	0.000123
C122	C	1.609847	0.702378	0.500123
C123	C	1.110937	0.256084	0.000126
C124	C	1.610937	0.756084	0.500126
N125	N	1.102373	0.121639	0.254342
N126	N	1.602373	0.621639	0.754342
N127	N	1.133728	0.107077	-0.254105
N128	N	1.633728	0.607077	0.245895
C129	C	1.088900	0.127902	0.473456
C130	C	1.588900	0.627902	0.973456
C131	C	1.147198	0.100815	0.526788
C132	C	1.647198	0.600815	1.026788
C133	C	1.139701	0.104300	0.648710
C134	C	1.639701	0.604300	1.148710
C135	C	1.096395	0.124418	0.351523
C136	C	1.596395	0.624418	0.851523
H137	H	0.619571	0.171327	0.000114
H138	H	1.119571	0.671327	0.500114
C139	C	1.306616	-0.029105	0.000119
C140	C	1.806616	0.470895	0.500119
N141	N	1.378611	-0.009888	0.000121
N142	N	1.878611	0.490112	0.500121
H143	H	0.616519	0.057393	0.000115
H144	H	1.116519	0.557393	0.500115
C145	C	1.222241	0.065957	0.464770
C146	C	1.722241	0.565957	0.964770
N147	N	1.278767	0.039705	0.418053
N148	N	1.778767	0.539705	0.918053
C149	C	1.013871	0.162763	0.535474
C150	C	1.513871	0.662763	1.035474
N151	N	0.957361	0.189021	0.582198
N152	N	1.457361	0.689021	1.082198
C153	C	0.929474	-0.742178	0.000120
C154	C	1.429474	-0.242178	0.500120
N155	N	0.857481	-0.761398	0.000115
N156	N	1.357481	-0.261398	0.500115
C157	C	0.931567	-0.636223	0.000104
C158	C	1.431567	-0.136223	0.500104
N159	N	0.860399	-0.613647	0.000107
N160	N	1.360399	-0.113647	0.500107
H161	H	0.966517	-0.119919	0.000105
H162	H	1.466517	0.380081	0.500105
H163	H	1.360558	-0.421282	0.000082
H164	H	1.860558	0.078718	0.500082
C165	C	0.847695	-0.508025	0.000084
C166	C	1.347695	-0.008025	0.500084
N167	N	0.775698	-0.527241	0.000071
N168	N	1.275698	-0.027241	0.500071
H169	H	0.874343	-0.409864	0.000081
H170	H	1.374343	0.090136	0.500081
C171	C	0.943805	-0.020577	0.000080
C172	C	1.443805	0.479423	0.500080
N173	N	0.872658	0.002014	0.000060
N174	N	1.372658	0.502014	0.500060
H175	H	1.279973	-0.127271	0.000102
H176	H	1.779973	0.372729	0.500102
H177	H	1.358735	-0.512819	0.000072
H178	H	1.858735	-0.012819	0.500072
C179	C	1.294397	-0.644725	0.000127
C180	C	1.794397	-0.144725	0.500127
N181	N	1.366389	-0.625505	0.000117
N182	N	1.866389	-0.125505	0.500117
H183	H	0.875531	-0.350019	0.000080
H184	H	1.375531	0.149981	0.500080
C185	C	1.292284	-0.750700	0.000131
C186	C	1.792284	-0.250700	0.500131
N187	N	1.363433	-0.773291	0.000126
N188	N	1.863433	-0.273291	0.500126
C189	C	1.388381	-0.263265	0.000089
C190	C	1.888381	0.236735	0.500089
N191	N	1.460377	-0.244048	0.000079
N192	N	1.960377	0.255952	0.500079
C193	C	1.386274	-0.369215	0.000115
C194	C	1.886274	0.130785	0.500115
N195	N	1.457439	-0.391791	0.000141
N196	N	1.957439	0.108209	0.500141
C197	C	0.852820	-0.250682	0.000061
C198	C	1.352820	0.249318	0.500061
N199	N	0.781673	-0.228090	0.000046
N200	N	1.281673	0.271910	0.500046
