data_functionalizedCrystal
_audit_creation_method	'MofGen! by Chris Wilmer'
_symmetry_space_group_name_H-M	'P1'
_symmetry_Int_Tables_number	1
_symmetry_cell_setting	triclinic
loop_
_symmetry_equiv_pos_as_xyz
  x,y,z
_cell_length_a	16.176319
_cell_length_b	10.540558
_cell_length_c	17.699083
_cell_angle_alpha	96.091925
_cell_angle_beta	90.014116
_cell_angle_gamma	90.003101
loop_
_atom_site_label
_atom_site_type_symbol
_atom_site_fract_x
_atom_site_fract_y
_atom_site_fract_z
O1	O	0.068724	-1.683908	0.106737
O2	O	0.068731	-1.314315	0.116772
O3	O	0.068720	-1.509553	0.001634
O4	O	0.068735	-1.488669	0.221875
O5	O	-0.068773	-1.509563	0.001610
O6	O	-0.068762	-1.314325	0.116748
O7	O	-0.068769	-1.683918	0.106713
Cu8	Cu	-0.081320	-1.499122	0.111728
Cu9	Cu	0.081282	-1.499110	0.111757
O10	O	-0.068758	-1.488679	0.221851
C11	C	-0.000015	-1.267031	0.116004
C12	C	-0.000012	-1.126125	0.113744
C13	C	-0.000341	-0.944280	0.027338
C14	C	-0.000021	-1.090855	0.029629
C15	C	0.078502	-1.063707	0.154234
C16	C	0.078558	-0.917216	0.151357
C17	C	-0.077797	-0.916708	0.153041
C18	C	-0.078825	-1.063675	0.153822
N19	N	-0.195685	-1.499140	0.111708
N20	N	0.195647	-1.499103	0.111771
C21	C	0.238903	-1.422431	0.065323
C22	C	0.325450	-1.422440	0.065310
C23	C	0.368740	-1.499115	0.111751
C24	C	0.325478	-1.575796	0.158201
C25	C	0.238932	-1.575793	0.158209
C26	C	0.674506	-1.575811	0.158171
C27	C	0.761058	-1.575806	0.158161
C28	C	0.761024	-1.422459	0.065272
C29	C	0.674478	-1.422456	0.065280
C30	C	0.631224	-1.499141	0.111727
C31	C	0.537380	-1.499132	0.111738
C32	C	0.462582	-1.499118	0.111744
C33	C	-0.000027	-1.508810	-0.026580
C34	C	-0.000027	-1.506565	-0.110613
C35	C	-0.000024	-0.731204	0.107471
C36	C	-0.000027	-0.872116	0.109701
C37	C	-0.000030	-1.621166	-0.158484
C38	C	-0.000023	-1.619049	-0.237441
C39	C	-0.000018	-1.502330	-0.268526
C40	C	-0.000012	-1.387720	-0.220648
C41	C	-0.000014	-1.389838	-0.141693
C42	C	-0.000005	-1.379175	-0.539067
C43	C	-0.000006	-1.377065	-0.618029
C44	C	-0.000015	-1.608386	-0.634816
C45	C	-0.000016	-1.610504	-0.555860
C46	C	-0.000006	-1.495895	-0.507990
C47	C	-0.000012	-1.498192	-0.422376
C48	C	-0.000018	-1.500032	-0.354138
C49	C	-0.000010	-1.489423	0.250065
C50	C	-0.000004	-1.491668	0.334098
H51	H	0.137245	-0.889549	0.121449
H52	H	-0.000024	-1.705549	-0.530556
H53	H	0.639299	-1.638252	0.195991
Cl54	Cl	-0.000024	-1.752468	-0.695001
H55	H	0.796302	-1.638248	0.195981
H56	H	0.796252	-1.360022	0.027450
Cl57	Cl	0.087169	-1.156166	-0.019658
H58	H	-0.083561	-1.086779	0.215146
Cl59	Cl	0.083041	-1.096510	0.249598
H60	H	-0.056304	-1.134055	-0.002229
Cl61	Cl	-0.169683	-0.868789	0.110993
Cl62	Cl	0.379825	-1.326008	0.006939
H63	H	0.360731	-1.638232	0.196011
H64	H	0.203714	-1.638227	0.196032
H65	H	0.639236	-1.360014	0.027466
H66	H	-0.000004	-1.282013	-0.643334
Cl67	Cl	0.000010	-1.235094	-0.478898
Cl68	Cl	-0.000006	-1.245762	-0.081511
Cl69	Cl	0.184490	-1.326028	0.006940
Cl70	Cl	0.000004	-1.240986	-0.259726
H71	H	-0.056649	-0.916307	-0.005903
Cl72	Cl	-0.000045	-1.767908	-0.119415
H73	H	0.055649	-0.914674	-0.005743
Cl74	Cl	0.084068	-0.841442	0.244749
Cl75	Cl	-0.168504	-1.127601	0.108076
Cl76	Cl	0.168715	-1.130240	0.110840
Cl77	Cl	-0.000030	-1.763126	-0.297620
H78	H	-0.078324	-0.868370	0.213794
