data_functionalizedCrystal
_audit_creation_method	'MofGen! by Chris Wilmer'
_symmetry_space_group_name_H-M	'P1'
_symmetry_Int_Tables_number	1
_symmetry_cell_setting	triclinic
loop_
_symmetry_equiv_pos_as_xyz
  x,y,z
_cell_length_a	19.288864
_cell_length_b	17.699083
_cell_length_c	18.366186
_cell_angle_alpha	89.992864
_cell_angle_beta	89.977106
_cell_angle_gamma	83.209630
loop_
_atom_site_label
_atom_site_type_symbol
_atom_site_fract_x
_atom_site_fract_y
_atom_site_fract_z
O1	O	0.921465	0.094417	-0.060785
O2	O	1.421465	0.594417	0.439215
O3	O	0.719219	0.107154	-0.060735
O4	O	1.219219	0.607154	0.439265
O5	O	0.826056	-0.009412	-0.060755
O6	O	1.326056	0.490588	0.439245
O7	O	0.814628	0.210983	-0.060765
O8	O	1.314628	0.710983	0.439235
O9	O	0.826038	-0.009417	0.060345
O10	O	1.326038	0.490583	0.560345
O11	O	0.719201	0.107148	0.060364
O12	O	1.219201	0.607148	0.560364
O13	O	0.921446	0.094412	0.060315
O14	O	1.421446	0.594412	0.560315
Zn15	Zn	0.820321	0.100779	0.079567
Zn16	Zn	1.320321	0.600779	0.579567
Zn17	Zn	0.820345	0.100786	-0.079987
Zn18	Zn	1.320345	0.600786	0.420013
O19	O	0.814610	0.210977	0.060335
O20	O	1.314610	0.710977	0.560335
C21	C	0.693333	0.106741	-0.000179
C22	C	1.193333	0.606741	0.499821
C23	C	0.616228	0.105511	-0.000160
C24	C	1.116228	0.605511	0.499840
C25	C	0.825637	-0.037611	-0.000205
C26	C	1.325637	0.462389	0.499795
C27	C	0.824409	-0.121627	-0.000204
C28	C	1.324409	0.378373	0.499796
C29	C	0.571613	0.173906	-0.000174
C30	C	1.071613	0.673906	0.499826
C31	C	0.499164	0.172751	-0.000182
C32	C	0.999164	0.672751	0.499818
C33	C	0.471334	0.103196	-0.000190
C34	C	0.971334	0.603196	0.499810
C35	C	0.515959	0.034791	-0.000172
C36	C	1.015959	0.534791	0.499828
C37	C	0.588406	0.035949	-0.000156
C38	C	1.088406	0.535949	0.499844
C39	C	0.363014	0.048520	-0.042639
C40	C	0.863014	0.548520	0.457361
C41	C	0.290568	0.047365	-0.042659
C42	C	0.790568	0.547365	0.457341
C43	C	0.247884	0.099622	-0.000234
C44	C	0.747884	0.599622	0.499766
C45	C	0.277654	0.153047	0.042200
C46	C	0.777654	0.653047	0.542200
C47	C	0.350101	0.154205	0.042216
C48	C	0.850101	0.654205	0.542216
C49	C	0.392779	0.101932	-0.000206
C50	C	0.892779	0.601932	0.499794
C51	C	0.124712	0.166769	-0.000256
C52	C	0.624712	0.666769	0.499744
C53	C	0.052262	0.165610	-0.000260
C54	C	0.552262	0.665610	0.499740
C55	C	0.069059	0.027649	-0.000257
C56	C	0.569059	0.527649	0.499743
C57	C	0.141507	0.028809	-0.000246
C58	C	0.641507	0.528809	0.499754
C59	C	0.169329	0.098371	-0.000249
C60	C	0.669329	0.598371	0.499751
C61	C	0.887120	-0.170336	-0.000219
C62	C	1.387120	0.329664	0.499781
C63	C	0.885961	-0.249278	-0.000225
C64	C	1.385961	0.250722	0.499775
C65	C	0.822091	-0.279509	-0.000211
C66	C	1.322091	0.220491	0.499789
C67	C	0.759375	-0.230794	-0.000199
C68	C	1.259375	0.269206	0.499801
C69	C	0.760535	-0.151854	-0.000198
C70	C	1.260535	0.348146	0.499802
C71	C	0.754699	-0.549150	-0.000204
C72	C	1.254699	-0.049150	0.499796
C73	C	0.753545	-0.628097	-0.000203
C74	C	1.253545	-0.128097	0.499797
C75	C	0.880126	-0.646575	-0.000230
C76	C	1.380126	-0.146575	0.499770
C77	C	0.881285	-0.567635	-0.000230
C78	C	1.381285	-0.067635	0.499770
C79	C	0.818570	-0.518926	-0.000221
C80	C	1.318570	-0.018926	0.499779
C81	C	0.819827	-0.433329	-0.000216
C82	C	1.319827	0.066671	0.499784
C83	C	0.820834	-0.365105	-0.000211
C84	C	1.320834	0.134895	0.499789
C85	C	0.947332	0.094824	-0.000243
C86	C	1.447332	0.594824	0.499757
C87	C	1.024437	0.096054	-0.000267
C88	C	1.524437	0.596054	0.499733
C89	C	0.815028	0.239176	-0.000217
C90	C	1.315028	0.739176	0.499783
C91	C	0.816257	0.323193	-0.000222
C92	C	1.316257	0.823193	0.499778
N93	N	0.820310	0.100773	0.188458
N94	N	1.320310	0.600773	0.688458
N95	N	0.820361	0.100786	-0.188878
N96	N	1.320361	0.600786	0.311122
C97	C	0.867632	0.049183	0.226550
C98	C	1.367632	0.549183	0.726550
C99	C	0.867637	0.049180	0.302777
C100	C	1.367637	0.549180	0.802777
C101	C	0.820325	0.100780	0.340911
C102	C	1.320325	0.600780	0.840911
C103	C	0.772993	0.152373	0.302810
C104	C	1.272993	0.652373	0.802810
C105	C	0.772986	0.152370	0.226583
C106	C	1.272986	0.652370	0.726583
C107	C	0.811108	0.169742	0.461669
C108	C	1.311108	0.669742	0.961669
C109	C	0.811121	0.169746	0.537894
C110	C	1.311121	0.669746	1.037894
C111	C	0.820345	0.100789	0.576018
C112	C	1.320345	0.600789	1.076018
C113	C	0.829571	0.031825	0.537908
C114	C	1.329571	0.531825	1.037908
C115	C	0.829563	0.031822	0.461681
C116	C	1.329563	0.531822	0.961681
C117	C	0.820328	0.100788	0.423565
C118	C	1.320328	0.600788	0.923565
C119	C	0.867675	0.049191	0.696765
C120	C	1.367675	0.549191	1.196765
C121	C	0.867674	0.049187	0.772994
C122	C	1.367674	0.549187	1.272994
C123	C	0.773034	0.152387	0.773025
C124	C	1.273034	0.652387	1.273025
C125	C	0.773031	0.152385	0.696797
C126	C	1.273031	0.652385	1.196797
C127	C	0.820355	0.100788	0.658672
C128	C	1.320355	0.600788	1.158672
H129	H	0.594260	0.230549	-0.000178
H130	H	1.094260	0.730549	0.499822
Cl131	Cl	0.967418	-0.132340	-0.000228
Cl132	Cl	1.467418	0.367660	0.499772
Cl133	Cl	0.841172	-0.054869	0.585826
Cl134	Cl	1.341172	0.445131	1.085826
H135	H	0.803585	0.225898	0.430635
H136	H	1.303585	0.725898	0.930635
H137	H	0.931192	-0.686243	-0.000241
H138	H	1.431192	-0.186243	0.499759
Cl139	Cl	0.387524	0.221361	0.095563
Cl140	Cl	0.887524	0.721361	0.595563
Cl141	Cl	0.159691	0.254216	-0.000253
Cl142	Cl	0.659691	0.754216	0.499747
Cl143	Cl	0.673245	-0.666100	-0.000188
Cl144	Cl	1.173245	-0.166100	0.499812
H145	H	0.493296	-0.021841	-0.000188
H146	H	0.993296	0.478159	0.499812
Cl147	Cl	0.927134	-0.015681	0.350672
Cl148	Cl	1.427134	0.484319	0.850672
H149	H	0.703632	-0.509501	-0.000197
H150	H	1.203632	-0.009501	0.499803
Cl151	Cl	0.443066	0.258740	-0.000199
Cl152	Cl	0.943066	0.758740	0.499801
H153	H	0.015936	0.221308	-0.000268
H154	H	0.515936	0.721308	0.499732
Cl155	Cl	0.679081	-0.268799	-0.000191
Cl156	Cl	1.179081	0.231201	0.499809
Cl157	Cl	0.224003	0.218747	0.095538
Cl158	Cl	0.724003	0.718747	0.595538
H159	H	0.837073	-0.024330	0.430655
H160	H	1.337073	0.475670	0.930655
Cl161	Cl	0.681695	-0.090619	-0.000183
Cl162	Cl	1.181695	0.409381	0.499817
Cl163	Cl	0.961582	-0.529635	-0.000249
Cl164	Cl	1.461582	-0.029635	0.499751
H165	H	0.906208	0.007172	0.804009
H166	H	1.406208	0.507172	1.304009
Cl167	Cl	0.927164	-0.015677	0.648834
Cl168	Cl	1.427164	0.484323	1.148834
H169	H	0.906165	0.007168	0.195510
H170	H	1.406165	0.507168	0.695510
H171	H	0.266335	0.003866	-0.077214
H172	H	0.766335	0.503866	0.422786
Cl173	Cl	0.713551	0.217249	0.820959
Cl174	Cl	1.213551	0.717249	1.320959
Cl175	Cl	0.713541	0.217248	0.648906
Cl176	Cl	1.213541	0.717248	1.148906
H177	H	0.803613	0.225900	0.568918
H178	H	1.303613	0.725900	1.068918
Cl179	Cl	0.964802	-0.310510	-0.000241
Cl180	Cl	1.464802	0.189490	0.499759
Cl181	Cl	0.713512	0.217239	0.350747
Cl182	Cl	1.213512	0.717239	0.850747
H183	H	0.046401	-0.028984	-0.000308
H184	H	0.546401	0.471016	0.499692
Cl185	Cl	0.197598	-0.057179	-0.000232
Cl186	Cl	0.697598	0.442821	0.499768
H187	H	0.734449	0.194382	0.195569
H188	H	1.234449	0.694382	0.695569
H189	H	0.397762	0.005964	-0.077190
H190	H	0.897762	0.505964	0.422810
H191	H	0.624733	-0.019749	-0.000145
H192	H	1.124733	0.480251	0.499855
