data_functionalizedCrystal
_audit_creation_method	'MofGen! by Chris Wilmer'
_symmetry_space_group_name_H-M	'P1'
_symmetry_Int_Tables_number	1
_symmetry_cell_setting	triclinic
loop_
_symmetry_equiv_pos_as_xyz
  x,y,z
_cell_length_a	12.645331
_cell_length_b	18.050589
_cell_length_c	12.645331
_cell_angle_alpha	89.999012
_cell_angle_beta	89.999107
_cell_angle_gamma	90.027456
loop_
_atom_site_label
_atom_site_type_symbol
_atom_site_fract_x
_atom_site_fract_y
_atom_site_fract_z
Zn1	Zn	1.620480	-0.295863	0.599245
Zn2	Zn	1.620380	-0.420004	0.421984
Zn3	Zn	1.443246	-0.295831	0.422011
Zn4	Zn	1.443143	-0.420014	0.599220
O5	O	1.531812	-0.357928	0.510615
O6	O	1.768814	-0.312340	0.575730
O7	O	1.596884	-0.403515	0.273640
O8	O	1.466840	-0.191910	0.445544
O9	O	1.768741	-0.403546	0.445497
O10	O	1.597053	-0.191934	0.575757
O11	O	1.466744	-0.312286	0.273660
O12	O	1.294885	-0.312295	0.445520
O13	O	1.466666	-0.403562	0.747571
O14	O	1.294810	-0.403531	0.575714
O15	O	1.596954	-0.312349	0.747589
O16	O	1.596785	-0.523930	0.445473
O17	O	1.466570	-0.523937	0.575688
C18	C	1.256382	-0.357911	0.510618
C19	C	1.138552	-0.357922	0.510644
C20	C	0.970977	-0.415633	0.592123
C21	C	1.093537	-0.415447	0.592463
C22	C	1.094086	-0.279712	0.541167
C23	C	0.971488	-0.280064	0.541741
C24	C	0.971334	-0.377790	0.398385
C25	C	1.093939	-0.379501	0.398990
C26	C	1.531684	-0.550880	0.510598
C27	C	1.531726	-0.633426	0.510626
C28	C	1.460985	-0.832907	0.581412
C29	C	1.435166	-0.882318	0.484680
C30	C	1.531831	-0.784556	0.510639
C31	C	1.557701	-0.882227	0.607382
C32	C	1.531929	-0.930541	0.510661
C33	C	1.505961	-0.832880	0.413857
C34	C	1.628541	-0.832784	0.536624
C35	C	1.602759	-0.882173	0.439825
C36	C	1.531771	-0.700458	0.510628
C37	C	1.531989	-1.014638	0.510662
C38	C	1.808317	-0.357945	0.510613
C39	C	1.926147	-0.357953	0.510612
C40	C	1.531810	-0.357960	0.787120
C41	C	1.531809	-0.357973	0.904950
C42	C	1.531969	-0.164222	0.510656
C43	C	1.532037	-0.081676	0.510673
C44	C	1.449543	-0.415139	1.072503
C45	C	1.449794	-0.415382	0.949943
C46	C	1.643490	-0.379228	0.949456
C47	C	1.643003	-0.379626	1.072055
C48	C	1.503340	-0.279356	1.072153
C49	C	1.500883	-0.279787	0.949547
C50	C	1.531802	-0.357924	1.235185
C51	C	1.531791	-0.357943	1.117355
H52	H	0.941835	-0.235549	0.485094
H53	H	1.124792	-0.262574	0.622321
H54	H	1.122865	-0.402321	0.675620
H55	H	1.668043	-0.436055	0.918764
H56	H	0.940165	-0.402677	0.674795
H57	H	1.556431	-0.234898	0.918919
H58	H	1.423303	-0.260004	1.103067
H59	H	1.662713	-0.903669	0.379916
H60	H	1.563246	-0.236740	1.101160
H61	H	1.123014	-0.437052	0.375970
H62	H	1.667125	-0.437073	1.100662
H63	H	1.366977	-0.402081	0.919851
H64	H	1.123599	-0.473445	0.573334
H65	H	1.353428	-0.904092	0.462723
H66	H	0.940406	-0.433846	0.370642
H67	H	1.468592	-0.473622	0.920626
H68	H	1.579543	-0.903902	0.689187
H69	H	1.400985	-0.811274	0.641177
H70	H	1.418695	-0.263759	0.920458
H71	H	0.942893	-0.263233	0.623784
H72	H	1.484025	-0.811294	0.332029
H73	H	0.941475	-0.473823	0.573205
H74	H	1.710261	-0.811012	0.558628
H75	H	1.706432	-0.338867	0.920314
H76	H	1.366464	-0.401985	1.101987
H77	H	1.468140	-0.473035	1.103319
H78	H	1.123247	-0.235569	0.483653
H79	H	1.124585	-0.340534	0.335001
H80	H	0.942346	-0.335776	0.337652
H81	H	1.706363	-0.339775	1.101726
