data_functionalizedCrystal
_audit_creation_method	'MofGen! by Chris Wilmer'
_symmetry_space_group_name_H-M	'P1'
_symmetry_Int_Tables_number	1
_symmetry_cell_setting	triclinic
loop_
_symmetry_equiv_pos_as_xyz
  x,y,z
_cell_length_a	27.732048
_cell_length_b	19.188930
_cell_length_c	18.266242
_cell_angle_alpha	90.011475
_cell_angle_beta	89.988474
_cell_angle_gamma	97.106282
loop_
_atom_site_label
_atom_site_type_symbol
_atom_site_fract_x
_atom_site_fract_y
_atom_site_fract_z
O1	O	0.641184	-0.083079	-0.060930
O2	O	0.974518	0.250254	0.272403
O3	O	1.307851	0.583588	0.605736
O4	O	0.500429	-0.095711	-0.060924
O5	O	0.833763	0.237622	0.272410
O6	O	1.167096	0.570956	0.605743
O7	O	0.574869	0.012287	-0.060913
O8	O	0.908202	0.345620	0.272420
O9	O	1.241535	0.678953	0.605754
O10	O	0.566745	-0.191077	-0.060941
O11	O	0.900078	0.142257	0.272392
O12	O	1.233412	0.475590	0.605726
O13	O	0.574856	0.012292	0.060849
O14	O	0.908189	0.345625	0.394182
O15	O	1.241523	0.678959	0.727516
O16	O	0.500417	-0.095706	0.060838
O17	O	0.833750	0.237628	0.394172
O18	O	1.167083	0.570961	0.727505
O19	O	0.641172	-0.083074	0.060832
O20	O	0.974505	0.250260	0.394165
O21	O	1.307838	0.583593	0.727498
Zn22	Zn	0.570792	-0.089389	0.080167
Zn23	Zn	0.904126	0.243945	0.413501
Zn24	Zn	1.237459	0.577278	0.746834
Zn25	Zn	0.570809	-0.089396	-0.080259
Zn26	Zn	0.904142	0.243937	0.253074
Zn27	Zn	1.237475	0.577271	0.586407
O28	O	0.566732	-0.191071	0.060821
O29	O	0.900066	0.142262	0.394154
O30	O	1.233399	0.475595	0.727488
C31	C	0.482415	-0.095443	-0.000042
C32	C	0.815749	0.237890	0.333292
C33	C	1.149082	0.571223	0.666625
C34	C	0.428758	-0.094645	-0.000039
C35	C	0.762091	0.238689	0.333295
C36	C	1.095425	0.572022	0.666628
C37	C	0.574599	0.038299	-0.000030
C38	C	0.907933	0.371632	0.333304
C39	C	1.241266	0.704965	0.666637
C40	C	0.573810	0.115798	-0.000023
C41	C	0.907143	0.449131	0.333310
C42	C	1.240476	0.782465	0.666643
C43	C	0.659186	-0.083341	-0.000052
C44	C	0.992519	0.249992	0.333281
C45	C	1.325852	0.583325	0.666615
C46	C	0.712843	-0.084140	-0.000060
C47	C	1.046176	0.249193	0.333274
C48	C	1.379510	0.582527	0.666607
C49	C	1.051478	-0.025347	-0.000027
C50	C	1.384812	0.307986	0.333307
C51	C	1.718145	0.641320	0.666640
C52	C	1.253147	-0.028310	-0.000025
C53	C	1.586480	0.305024	0.333309
C54	C	1.919814	0.638357	0.666642
O55	O	1.284238	0.025452	0.000014
O56	O	1.617572	0.358786	0.333348
O57	O	1.950905	0.692119	0.666681
N58	N	1.272466	-0.092348	-0.000036
N59	N	1.605800	0.240986	0.333298
N60	N	1.939133	0.574319	0.666631
C61	C	1.241365	-0.155650	-0.000042
C62	C	1.574699	0.177684	0.333291
C63	C	1.908032	0.511017	0.666624
O64	O	1.262425	-0.210186	-0.000044
O65	O	1.595759	0.123147	0.333289
O66	O	1.929092	0.456481	0.666623
C67	C	1.039698	-0.152686	-0.000039
C68	C	1.373031	0.180647	0.333294
C69	C	1.706364	0.513980	0.666628
C70	C	1.020381	-0.088644	-0.000035
C71	C	1.353714	0.244689	0.333298
C72	C	1.687048	0.578022	0.666631
C73	C	1.032161	0.038690	-0.000022
C74	C	1.365495	0.372023	0.333311
C75	C	1.698828	0.705357	0.666645
C76	C	0.981747	0.039430	-0.000027
C77	C	1.315080	0.372763	0.333307
C78	C	1.648414	0.706097	0.666640
C79	C	0.950650	-0.023867	-0.000035
C80	C	1.283983	0.309466	0.333298
C81	C	1.617317	0.642799	0.666631
C82	C	0.969967	-0.087904	-0.000040
C83	C	1.303300	0.245429	0.333293
C84	C	1.636634	0.578762	0.666627
C85	C	1.008598	-0.215988	-0.000040
C86	C	1.341931	0.117346	0.333293
C87	C	1.675264	0.450679	0.666626
C88	C	0.958178	-0.215241	-0.000038
C89	C	1.291511	0.118092	0.333296
C90	C	1.624845	0.451425	0.666629
C91	C	0.938861	-0.151199	-0.000034
C92	C	1.272195	0.182134	0.333299
C93	C	1.605528	0.515468	0.666632
C94	C	0.888456	-0.150461	-0.000053
C95	C	1.221789	0.182872	0.333280
C96	C	1.555122	0.516205	0.666613
N97	N	0.869136	-0.086423	-0.000042
N98	N	1.202469	0.246910	0.333291
N99	N	1.535803	0.580243	0.666624
C100	C	0.900233	-0.023126	-0.000033
C101	C	1.233567	0.310207	0.333300
C102	C	1.566900	0.643540	0.666633
C103	C	1.347244	-0.157201	-0.000045
C104	C	1.680578	0.176132	0.333288
C105	C	2.013911	0.509466	0.666621
C106	C	1.397661	-0.157942	-0.000048
C107	C	1.730994	0.175391	0.333286
C108	C	2.064328	0.508725	0.666619
C109	C	1.409439	-0.030601	-0.000028
C110	C	1.742772	0.302732	0.333305
C111	C	2.076106	0.636065	0.666638
C112	C	1.359021	-0.029861	-0.000032
C113	C	1.692355	0.303472	0.333302
C114	C	2.025688	0.636805	0.666635
C115	C	1.327925	-0.093163	-0.000034
C116	C	1.661258	0.240171	0.333299
C117	C	1.994591	0.573504	0.666632
C118	C	0.794359	-0.021577	-0.000043
C119	C	1.127693	0.311756	0.333290
C120	C	1.461026	0.645090	0.666623
C121	C	0.743940	-0.020843	-0.000051
C122	C	1.077273	0.312491	0.333282
C123	C	1.410607	0.645824	0.666616
C124	C	0.732166	-0.148183	-0.000066
C125	C	1.065500	0.185151	0.333267
C126	C	1.398833	0.518484	0.666600
C127	C	0.782581	-0.148918	-0.000063
C128	C	1.115914	0.184416	0.333271
C129	C	1.449248	0.517749	0.666604
C130	C	0.813677	-0.085609	-0.000049
C131	C	1.147010	0.247724	0.333285
C132	C	1.480344	0.581058	0.666618
O133	O	0.857336	-0.204194	-0.000084
O134	O	1.190669	0.129139	0.333249
O135	O	1.524003	0.462472	0.666583
O136	O	0.879164	0.031402	-0.000015
O137	O	1.212497	0.364735	0.333318
O138	O	1.545831	0.698069	0.666651
C139	C	1.101893	-0.026087	-0.000022
C140	C	1.435226	0.307246	0.333311
C141	C	1.768559	0.640580	0.666645
C142	C	1.121210	-0.090124	-0.000026
C143	C	1.454543	0.243209	0.333307
C144	C	1.787876	0.576543	0.666640
C145	C	1.090112	-0.153421	-0.000035
C146	C	1.423446	0.179912	0.333298
C147	C	1.756779	0.513245	0.666631
C148	C	1.171626	-0.090865	-0.000029
C149	C	1.504960	0.242468	0.333305
C150	C	1.838293	0.575802	0.666638
C151	C	1.202723	-0.027568	-0.000020
C152	C	1.536057	0.305765	0.333314
C153	C	1.869390	0.639099	0.666647
C154	C	1.183404	0.036470	-0.000009
C155	C	1.516737	0.369803	0.333325
C156	C	1.850071	0.703137	0.666658
C157	C	1.132990	0.037210	-0.000013
C158	C	1.466323	0.370543	0.333320
C159	C	1.799656	0.703877	0.666654
C160	C	1.109432	-0.217459	-0.000046
C161	C	1.442765	0.115874	0.333287
C162	C	1.776099	0.449207	0.666620
C163	C	1.159847	-0.218194	-0.000043
C164	C	1.493180	0.115139	0.333291
C165	C	1.826513	0.448473	0.666624
C166	C	1.190944	-0.154897	-0.000034
C167	C	1.524277	0.178436	0.333300
C168	C	1.857610	0.511770	0.666633
C169	C	0.567002	-0.217083	-0.000064
C170	C	0.900335	0.116250	0.333269
C171	C	1.233668	0.449583	0.666603
C172	C	0.567791	-0.294583	-0.000075
C173	C	0.901125	0.038751	0.333258
C174	C	1.234458	0.372084	0.666592
N175	N	0.570784	-0.089383	0.189654
N176	N	0.904118	0.243950	0.522988
N177	N	1.237451	0.577283	0.856321
C178	C	0.617488	0.161001	-0.000022
C179	C	0.950821	0.494334	0.333311
C180	C	1.284155	0.827667	0.666645
C181	C	0.616746	0.233820	-0.000034
C182	C	0.950080	0.567153	0.333300
C183	C	1.283413	0.900486	0.666633
C184	C	0.572323	0.261433	-0.000032
C185	C	0.905657	0.594766	0.333301
C186	C	1.238990	0.928100	0.666635
C187	C	0.528639	0.216220	-0.000038
C188	C	0.861972	0.549554	0.333296
C189	C	1.195306	0.882887	0.666629
C190	C	0.529382	0.143403	-0.000033
C191	C	0.862715	0.476736	0.333300
C192	C	1.196049	0.810070	0.666633
N193	N	0.538363	0.369223	0.041407
N194	N	0.871696	0.702556	0.374741
N195	N	1.205030	1.035890	0.708074
N196	N	0.537660	0.438397	0.041405
N197	N	0.870993	0.771731	0.374738
N198	N	1.204327	1.105064	0.708071
C199	C	0.570081	0.480827	-0.000047
C200	C	0.903415	0.814161	0.333286
C201	C	1.236748	1.147494	0.666620
N202	N	0.603240	0.451471	-0.041487
N203	N	0.936573	0.784805	0.291847
N204	N	1.269907	1.118138	0.625180
N205	N	0.603944	0.382291	-0.041481
N206	N	0.937278	0.715624	0.291853
N207	N	1.270611	1.048958	0.625186
C208	C	0.571512	0.340390	-0.000037
C209	C	0.904846	0.673724	0.333296
C210	C	1.238179	1.007057	0.666629
C211	C	0.612959	0.604989	-0.000059
C212	C	0.946292	0.938322	0.333274
C213	C	1.279625	1.271656	0.666608
C214	C	0.612215	0.677809	-0.000075
C215	C	0.945548	1.011142	0.333258
C216	C	1.278881	1.344476	0.666591
C217	C	0.524106	0.660208	-0.000072
C218	C	0.857440	0.993542	0.333261
C219	C	1.190773	1.326875	0.666595
C220	C	0.524851	0.587390	-0.000063
C221	C	0.858185	0.920723	0.333270
C222	C	1.191518	1.254057	0.666603
C223	C	0.569279	0.559785	-0.000053
C224	C	0.902612	0.893118	0.333280
C225	C	1.235945	1.226452	0.666613
N226	N	0.570820	-0.089396	-0.189746
N227	N	0.904154	0.243938	0.143587
N228	N	1.237487	0.577271	0.476920
C229	C	0.603757	-0.041585	0.227968
C230	C	0.937090	0.291748	0.561301
C231	C	1.270424	0.625081	0.894635
C232	C	0.603760	-0.041582	0.304613
C233	C	0.937093	0.291751	0.637946
C234	C	1.270427	0.625085	0.971279
C235	C	0.570795	-0.089389	0.342941
C236	C	0.904129	0.243944	0.676274
C237	C	1.237462	0.577278	1.009608
C238	C	0.537817	-0.137191	0.304618
C239	C	0.871150	0.196143	0.637952
C240	C	1.204483	0.529476	0.971285
C241	C	0.537811	-0.137188	0.227975
C242	C	0.871144	0.196145	0.561308
C243	C	1.204478	0.529479	0.894641
N244	N	0.564512	-0.151237	0.463265
N245	N	0.897845	0.182097	0.796598
N246	N	1.231179	0.515430	1.129932
N247	N	0.564520	-0.151237	0.536073
N248	N	0.897853	0.182097	0.869407
N249	N	1.231187	0.515430	1.202740
C250	C	0.570809	-0.089399	0.573864
C251	C	0.904142	0.243934	0.907197
C252	C	1.237475	0.577268	1.240530
N253	N	0.577099	-0.027558	0.536095
N254	N	0.910432	0.305775	0.869429
N255	N	1.243765	0.639108	1.202762
N256	N	0.577093	-0.027559	0.463280
N257	N	0.910426	0.305775	0.796614
N258	N	1.243760	0.639108	1.129947
C259	C	0.570797	-0.089397	0.426048
C260	C	0.904130	0.243936	0.759381
C261	C	1.237464	0.577270	1.092715
C262	C	0.603786	-0.041593	0.695284
C263	C	0.937120	0.291740	1.028618
C264	C	1.270453	0.625073	1.361951
C265	C	0.603786	-0.041589	0.771931
C266	C	0.937119	0.291744	1.105264
C267	C	1.270453	0.625078	1.438597
C268	C	0.537845	-0.137204	0.771935
C269	C	0.871178	0.196130	1.105268
C270	C	1.204512	0.529463	1.438601
C271	C	0.537843	-0.137202	0.695290
C272	C	0.871176	0.196131	1.028623
C273	C	1.204510	0.529465	1.361956
C274	C	0.570816	-0.089397	0.656969
C275	C	0.904150	0.243936	0.990303
C276	C	1.237483	0.577269	1.323636
H277	H	0.819672	0.029975	-0.000032
H278	H	1.153005	0.363308	0.333301
H279	H	1.486339	0.696641	0.666634
H280	H	1.321929	-0.208752	-0.000049
H281	H	1.655262	0.124582	0.333285
H282	H	1.988596	0.457915	0.666618
N283	N	0.960916	0.108504	-0.000016
N284	N	1.294250	0.441837	0.333318
N285	N	1.627583	0.775171	0.666651
H286	H	0.988272	0.148484	-0.000006
H287	H	1.321606	0.481818	0.333327
H288	H	1.654939	0.815151	0.666660
H289	H	0.940251	0.111587	0.045125
H290	H	1.273584	0.444921	0.378459
H291	H	1.606917	0.778254	0.711792
H292	H	0.489283	0.550585	-0.000060
H293	H	0.822617	0.883918	0.333273
H294	H	1.155950	1.217251	0.666606
H295	H	1.117267	0.089360	-0.000010
H296	H	1.450601	0.422693	0.333323
H297	H	1.783934	0.756026	0.666657
N298	N	0.803416	-0.217992	-0.000072
N299	N	1.136749	0.115342	0.333261
N300	N	1.470082	0.448675	0.666594
H301	H	0.824061	-0.221135	0.045068
H302	H	1.157395	0.112198	0.378402
H303	H	1.490728	0.445531	0.711735
H304	H	0.824056	-0.221099	-0.045236
H305	H	1.157390	0.112234	0.288097
H306	H	1.490723	0.445567	0.621431
H307	H	0.492469	0.238708	-0.000038
H308	H	0.825803	0.572041	0.333295
H309	H	1.159136	0.905374	0.666628
H310	H	0.653664	0.138530	-0.000016
H311	H	0.986998	0.471863	0.333317
H312	H	1.320331	0.805196	0.666650
H313	H	1.057476	0.090237	-0.000012
H314	H	1.390810	0.423570	0.333321
H315	H	1.724143	0.756904	0.666654
N316	N	0.924640	-0.283520	-0.000050
N317	N	1.257973	0.049814	0.333283
N318	N	1.591306	0.383147	0.666616
H319	H	0.889769	-0.273339	-0.000052
H320	H	1.223102	0.059995	0.333281
H321	H	1.556435	0.393328	0.666615
H322	H	0.930874	-0.311449	0.045086
H323	H	1.264207	0.021885	0.378419
H324	H	1.597541	0.355218	0.711752
H325	H	1.343298	0.022288	-0.000028
H326	H	1.676631	0.355621	0.333305
H327	H	2.009964	0.688954	0.666639
H328	H	1.413384	-0.210091	-0.000061
H329	H	1.746717	0.123242	0.333273
H330	H	2.080050	0.456575	0.666606
N331	N	1.216949	0.104742	-0.000002
N332	N	1.550283	0.438075	0.333331
N333	N	1.883616	0.771408	0.666665
H334	H	1.251818	0.094548	0.000000
H335	H	1.585151	0.427881	0.333333
H336	H	1.918484	0.761215	0.666667
H337	H	1.210704	0.132676	0.045141
H338	H	1.544038	0.466009	0.378475
H339	H	1.877371	0.799343	0.711808
H340	H	1.175569	-0.270349	-0.000051
H341	H	1.508902	0.062985	0.333282
H342	H	1.842235	0.396318	0.666616
N343	N	1.442984	0.037671	-0.000020
N344	N	1.776317	0.371004	0.333314
N345	N	2.109651	0.704337	0.666647
H346	H	1.477853	0.027477	-0.000021
H347	H	1.811186	0.360811	0.333312
H348	H	2.144519	0.694144	0.666646
H349	H	1.436740	0.065601	0.045127
H350	H	1.770073	0.398934	0.378460
H351	H	2.103407	0.732268	0.711793
H352	H	0.706838	-0.199718	-0.000077
H353	H	1.040171	0.133616	0.333256
H354	H	1.373505	0.466949	0.666590
H355	H	0.728216	0.031310	-0.000050
H356	H	1.061549	0.364644	0.333283
H357	H	1.394882	0.697977	0.666617
H358	H	0.493813	0.106598	-0.000034
H359	H	0.827146	0.439932	0.333299
H360	H	1.160479	0.773265	0.666632
H361	H	1.024316	-0.268138	-0.000047
H362	H	1.357649	0.065196	0.333287
H363	H	1.690982	0.398529	0.666620
N364	N	0.663859	0.282584	-0.000017
N365	N	0.997192	0.615917	0.333317
N366	N	1.330526	0.949250	0.666650
H367	H	0.656646	0.332902	-0.000017
H368	H	0.989979	0.666235	0.333316
H369	H	1.323312	0.999568	0.666649
H370	H	0.683238	0.273695	-0.045150
H371	H	1.016572	0.607028	0.288183
H372	H	1.349905	0.940362	0.621517
N373	N	1.075895	-0.285733	-0.000004
N374	N	1.409228	0.047600	0.333329
N375	N	1.742562	0.380933	0.666662
H376	H	1.095789	-0.326408	0.000006
H377	H	1.429122	0.006925	0.333339
H378	H	1.762455	0.340259	0.666673
H379	H	1.054712	-0.288238	-0.045129
H380	H	1.388045	0.045096	0.288204
H381	H	1.721379	0.378429	0.621537
H382	H	0.511003	-0.176126	0.803141
H383	H	0.844336	0.157207	1.136474
H384	H	1.177669	0.490540	1.469808
H385	H	0.649134	0.582512	-0.000054
H386	H	0.982467	0.915845	0.333279
H387	H	1.315801	1.249179	0.666612
H388	H	0.647785	0.714613	-0.000078
H389	H	0.981118	1.047946	0.333255
H390	H	1.314451	1.381280	0.666589
N391	N	0.476192	0.689980	-0.000079
N392	N	0.809525	1.023313	0.333255
N393	N	1.142858	1.356647	0.666588
H394	H	0.482348	0.742969	-0.000084
H395	H	0.815681	1.076303	0.333250
H396	H	1.149014	1.409636	0.666583
H397	H	0.457078	0.673421	0.045061
H398	H	0.790412	1.006755	0.378394
H399	H	1.123745	1.340088	0.711727
H400	H	0.630605	-0.002659	0.196770
H401	H	0.963938	0.330675	0.530103
H402	H	1.297271	0.664008	0.863436
H403	H	0.630611	-0.002658	0.335814
H404	H	0.963944	0.330676	0.669147
H405	H	1.297278	0.664009	1.002480
N406	N	0.502259	-0.188751	0.345952
N407	N	0.835592	0.144582	0.679286
N408	N	1.168925	0.477916	1.012619
H409	H	0.507266	-0.181501	0.400320
H410	H	0.840599	0.151832	0.733654
H411	H	1.173932	0.485165	1.066987
H412	H	0.507732	-0.238228	0.332539
H413	H	0.841066	0.095105	0.665872
H414	H	1.174399	0.428438	0.999206
N415	N	0.502245	-0.188741	0.186645
N416	N	0.835578	0.144592	0.519978
N417	N	1.168912	0.477925	0.853312
H418	H	0.481360	-0.219025	0.222553
H419	H	0.814693	0.114308	0.555886
H420	H	1.148026	0.447641	0.889220
H421	H	0.520680	-0.219426	0.154829
H422	H	0.854013	0.113907	0.488163
H423	H	1.187346	0.447241	0.821496
N424	N	0.502279	-0.188756	0.653960
N425	N	0.835613	0.144578	0.987293
N426	N	1.168946	0.477911	1.320626
H427	H	0.481395	-0.219041	0.689868
H428	H	0.814729	0.114292	1.023202
H429	H	1.148062	0.447626	1.356535
H430	H	0.520713	-0.219439	0.622141
H431	H	0.854046	0.113894	0.955475
H432	H	1.187380	0.447227	1.288808
H433	H	0.630634	-0.002666	0.664083
H434	H	0.963967	0.330668	0.997416
H435	H	1.297300	0.664001	1.330749
H436	H	0.630635	-0.002662	0.803126
H437	H	0.963968	0.330671	1.136460
H438	H	1.297301	0.664004	1.469793
