data_functionalizedCrystal
_audit_creation_method	'MofGen! by Chris Wilmer'
_symmetry_space_group_name_H-M	'P1'
_symmetry_Int_Tables_number	1
_symmetry_cell_setting	triclinic
loop_
_symmetry_equiv_pos_as_xyz
  x,y,z
_cell_length_a	17.639617
_cell_length_b	12.594516
_cell_length_c	17.640968
_cell_angle_alpha	101.230308
_cell_angle_beta	109.666032
_cell_angle_gamma	101.197819
loop_
_atom_site_label
_atom_site_type_symbol
_atom_site_fract_x
_atom_site_fract_y
_atom_site_fract_z
Zn1	Zn	1.354366	0.140778	0.721237
Zn2	Zn	1.326429	-0.082343	0.583405
Zn3	Zn	1.188668	0.050580	0.555513
Zn4	Zn	1.216518	-0.082239	0.693288
O5	O	1.271495	0.006694	0.638361
O6	O	1.466003	0.148886	0.726324
O7	O	1.284808	-0.102502	0.464362
O8	O	1.210684	0.211507	0.577520
O9	O	1.445478	-0.015040	0.625059
O10	O	1.332422	0.277775	0.699278
O11	O	1.183595	-0.004844	0.443870
O12	O	1.077019	-0.004744	0.550419
O13	O	1.258151	-0.014864	0.812338
O14	O	1.097481	-0.102325	0.651641
O15	O	1.359427	0.148986	0.832872
O16	O	1.311813	-0.231291	0.597957
O17	O	1.231062	-0.231215	0.678687
C18	C	1.057343	-0.063312	0.594971
C19	C	0.965732	-0.093280	0.576428
C20	C	0.717912	0.234447	0.779432
C21	C	0.631826	0.206255	0.761992
C22	C	0.610444	0.035735	0.656393
C23	C	0.696531	0.063910	0.673827
C24	C	0.750258	0.163268	0.735347
C25	C	0.728877	-0.007269	0.629742
C26	C	0.814956	0.020906	0.647173
C27	C	0.868688	0.120261	0.708688
C28	C	0.836337	0.191443	0.752777
C29	C	0.675148	-0.106623	0.568218
C30	C	0.707494	-0.177802	0.524133
C31	C	0.793575	-0.149631	0.541568
C32	C	0.847307	-0.050276	0.603083
C33	C	0.825926	-0.220813	0.497478
C34	C	0.912004	-0.192638	0.514908
C35	C	0.933386	-0.022100	0.620513
C36	C	1.271454	-0.269864	0.638339
C37	C	1.271518	-0.388143	0.638372
C38	C	1.315514	-0.457359	0.594534
C39	C	1.350865	-0.496859	0.673841
C40	C	1.236280	-0.559393	0.559134
C41	C	1.306915	-0.426060	0.717726
C42	C	1.192285	-0.488615	0.602961
C43	C	1.227617	-0.528075	0.682314
C44	C	1.486484	0.076972	0.681920
C45	C	1.578099	0.106921	0.700483
C46	C	1.315012	0.077134	0.853348
C47	C	1.333556	0.107152	0.944963
C48	C	1.271563	0.284345	0.638405
C49	C	1.271591	0.402664	0.638424
C50	C	1.228195	-0.063380	0.424219
C51	C	1.209811	-0.093045	0.332637
C52	C	1.130933	-0.220663	1.192824
C53	C	1.148375	-0.192438	1.278913
C54	C	1.253825	-0.021835	1.300284
C55	C	1.236388	-0.050043	1.214194
C56	C	1.174942	-0.149459	1.160470
C57	C	1.280398	0.021160	1.181840
C58	C	1.262965	-0.007049	1.095758
C59	C	1.201524	-0.106462	1.042029
C60	C	1.157510	-0.177669	1.074388
C61	C	1.341848	0.120571	1.235566
C62	C	1.385857	0.191775	1.203212
C63	C	1.368421	0.163570	1.117128
C64	C	1.306979	0.064157	1.063399
C65	C	1.412435	0.234777	1.084769
C66	C	1.395003	0.206568	0.998687
C67	C	1.289547	0.035948	0.977317
H68	H	0.880086	0.272348	0.802876
H69	H	0.605054	-0.129542	0.554011
O70	O	1.097919	-0.274284	1.022117
C71	C	1.134765	-0.344010	0.981840
H72	H	1.194632	-0.290262	0.981621
H73	H	1.150513	-0.409074	1.016829
C74	C	0.999341	-0.470899	0.891143
C75	C	1.072867	-0.404884	0.890868
H76	H	0.961159	-0.508454	0.835028
H77	H	0.974517	-0.423927	0.918281
H78	H	1.012475	-0.525111	0.920305
H79	H	1.059734	-0.350665	0.861715
H80	H	1.097688	-0.451849	0.863723
O81	O	0.600549	0.275502	0.804929
C82	C	0.666429	0.369249	0.862948
H83	H	0.728358	0.346650	0.878167
H84	H	0.669485	0.443286	0.834723
C85	C	0.574546	0.429925	0.925202
C86	C	0.650608	0.402165	0.943900
H87	H	0.564787	0.450234	0.975135
H88	H	0.530161	0.366768	0.886111
H89	H	0.577102	0.491619	0.901680
H90	H	0.648047	0.340464	0.967411
H91	H	0.694993	0.465313	0.982996
H92	H	0.566688	-0.045159	0.606301
H93	H	1.112533	-0.250428	1.305251
O94	O	0.655189	-0.274297	0.464428
C95	C	0.572274	-0.283889	0.458479
H96	H	0.573406	-0.232141	0.519752
H97	H	0.537957	-0.251109	0.404711
C98	C	0.525136	-0.472109	0.366584
C99	C	0.526528	-0.408559	0.441844
H100	H	0.496916	-0.549011	0.356319
H101	H	0.580997	-0.465646	0.370589
H102	H	0.496541	-0.444779	0.321787
H103	H	0.555132	-0.435880	0.486641
H104	H	0.470670	-0.415029	0.437846
O105	O	1.430861	-0.502396	0.709478
C106	C	1.476999	-0.466446	0.663056
H107	H	1.432109	-0.477017	0.596376
H108	H	1.513917	-0.373867	0.694056
C109	C	1.593303	-0.524975	0.742443
C110	C	1.538168	-0.537967	0.660543
H111	H	1.631038	-0.569088	0.740895
H112	H	1.562221	-0.549191	0.773721
H113	H	1.624059	-0.447823	0.768267
H114	H	1.507405	-0.615115	0.634724
H115	H	1.569247	-0.513765	0.629260
H116	H	0.782168	-0.301704	0.447383
H117	H	1.190454	-0.558921	0.719462
O118	O	1.342478	-0.357640	0.797761
C119	C	1.296418	-0.394468	0.844005
H120	H	1.229814	-0.445136	0.799203
H121	H	1.327907	-0.449814	0.880800
C122	C	1.375342	-0.229254	0.960365
C123	C	1.293536	-0.291478	0.905338
H124	H	1.373567	-0.165727	0.998201
H125	H	1.406376	-0.204444	0.929211
H126	H	1.401574	-0.275388	0.991019
H127	H	1.267309	-0.245348	0.874678
H128	H	1.262498	-0.316278	0.936489
H129	H	0.977135	0.058804	0.670612
H130	H	1.187335	-0.129431	0.971937
H131	H	1.080877	-0.301598	1.149074
O132	O	0.943300	-0.261933	0.472039
C133	C	0.877419	-0.355659	0.413992
H134	H	0.822893	-0.368435	0.435320
H135	H	0.855596	-0.340059	0.349584
C136	C	0.975558	-0.446165	0.382583
C137	C	0.908592	-0.461862	0.408782
H138	H	0.994787	-0.511675	0.379366
H139	H	1.019944	-0.383019	0.421688
H140	H	0.957363	-0.433162	0.328913
H141	H	0.926790	-0.474850	0.462456
H142	H	0.864210	-0.525013	0.369686
O143	O	1.472014	0.331428	1.136975
C144	C	1.435196	0.401145	1.177298
H145	H	1.365028	0.378006	1.138214
H146	H	1.445563	0.388675	1.241957
C147	C	1.561944	0.553822	1.234804
C148	C	1.475763	0.525409	1.186796
H149	H	1.586969	0.630475	1.240666
H150	H	1.586750	0.506852	1.207640
H151	H	1.570571	0.543422	1.288680
H152	H	1.467137	0.535796	1.132917
H153	H	1.450956	0.572385	1.213951
O154	O	1.200766	-0.627883	0.479122
C155	C	1.247332	-0.591737	0.433118
H156	H	1.283631	-0.498914	0.463904
H157	H	1.293194	-0.643990	0.432123
C158	C	1.142630	-0.721066	0.304813
C159	C	1.187207	-0.607055	0.342621
H160	H	1.105543	-0.730519	0.248989
H161	H	1.111258	-0.745422	0.335807
H162	H	1.180856	-0.764597	0.303991
H163	H	1.148981	-0.563529	0.343451
H164	H	1.218571	-0.582692	0.311625
O165	O	1.229761	-0.060518	0.925077
C166	C	1.166462	-0.033649	0.864493
H167	H	1.166640	0.057028	0.889406
H168	H	1.178733	-0.043043	0.804413
C169	C	1.080283	-0.225467	0.815220
C170	C	1.080497	-0.114100	0.845822
H171	H	1.027255	-0.275096	0.803700
H172	H	1.122929	-0.243572	0.856035
H173	H	1.090512	-0.233280	0.765157
H174	H	1.070278	-0.106286	0.895890
H175	H	1.037846	-0.095996	0.805016
O176	O	1.313459	0.074715	1.352585
C177	C	1.319427	0.084332	1.435506
H178	H	1.258193	0.032525	1.434377
H179	H	1.373253	0.051634	1.469825
C180	C	1.411160	0.272616	1.482633
C181	C	1.335949	0.208994	1.481247
H182	H	1.421355	0.349514	1.510851
H183	H	1.407142	0.266137	1.426769
H184	H	1.456006	0.245356	1.511231
H185	H	1.291103	0.236246	1.452640
H186	H	1.339960	0.215481	1.537108
H187	H	0.938778	0.143203	0.722875
H188	H	0.761661	0.315351	0.829531
H189	H	1.356041	0.143534	1.305659
H190	H	1.352736	-0.426268	0.557506
H191	H	1.125260	-0.483942	0.572965
H192	H	1.435889	0.272717	1.246966
H193	H	1.430838	0.264550	0.972344
