data_functionalizedCrystal
_audit_creation_method	'MofGen! by Chris Wilmer'
_symmetry_space_group_name_H-M	'P1'
_symmetry_Int_Tables_number	1
_symmetry_cell_setting	triclinic
loop_
_symmetry_equiv_pos_as_xyz
  x,y,z
_cell_length_a	17.699077
_cell_length_b	14.044190
_cell_length_c	16.176319
_cell_angle_alpha	89.988653
_cell_angle_beta	89.993140
_cell_angle_gamma	88.236177
loop_
_atom_site_label
_atom_site_type_symbol
_atom_site_fract_x
_atom_site_fract_y
_atom_site_fract_z
O1	O	1.012350	0.119823	-0.068745
O2	O	1.512350	0.619823	0.431255
O3	O	0.793047	0.135422	-0.068750
O4	O	1.293047	0.635422	0.431250
O5	O	0.899404	-0.010354	-0.068731
O6	O	1.399404	0.489646	0.431269
O7	O	0.905993	0.265600	-0.068764
O8	O	1.405993	0.765600	0.431236
O9	O	0.899387	-0.010364	0.068762
O10	O	1.399387	0.489636	0.568762
O11	O	0.793030	0.135413	0.068743
O12	O	1.293030	0.635413	0.568743
O13	O	1.012333	0.119814	0.068748
O14	O	1.512333	0.619814	0.568748
Cu15	Cu	0.902680	0.127613	0.081300
Cu16	Cu	1.402680	0.627613	0.581300
Cu17	Cu	0.902700	0.127624	-0.081302
Cu18	Cu	1.402700	0.627624	0.418698
O19	O	0.905976	0.265591	0.068730
O20	O	1.405976	0.765591	0.568730
C21	C	0.764803	0.134859	-0.000004
C22	C	1.264803	0.634859	0.499996
C23	C	0.680669	0.133185	-0.000005
C24	C	1.180669	0.633185	0.499995
C25	C	0.641138	0.132392	0.074943
C26	C	1.141138	0.632392	0.574943
C27	C	0.562086	0.130804	0.074944
C28	C	1.062086	0.630804	0.574944
C29	C	0.522566	0.130016	-0.000004
C30	C	1.022566	0.630016	0.499996
C31	C	0.562103	0.130807	-0.074958
C32	C	1.062103	0.630807	0.425042
C33	C	0.641154	0.132389	-0.074958
C34	C	1.141154	0.632389	0.425042
C35	C	0.243299	0.124430	-0.074959
C36	C	0.743299	0.624430	0.425041
C37	C	0.164243	0.122851	-0.074953
C38	C	0.664243	0.622851	0.425047
C39	C	0.164232	0.122845	0.074944
C40	C	0.664232	0.622845	0.574944
C41	C	0.243283	0.124426	0.074944
C42	C	0.743283	0.624426	0.574944
C43	C	0.282813	0.125212	-0.000010
C44	C	0.782813	0.625212	0.499990
C45	C	0.368530	0.126932	-0.000010
C46	C	0.868530	0.626932	0.499990
C47	C	0.436850	0.128303	-0.000005
C48	C	0.936850	0.628303	0.499995
C49	C	0.896513	-0.045667	0.000018
C50	C	1.396513	0.454333	0.500018
C51	C	0.887915	-0.150873	0.000025
C52	C	1.387915	0.349127	0.500025
C53	C	0.933175	-0.401265	-0.000007
C54	C	1.433175	0.098735	0.499993
C55	C	0.872208	-0.343494	-0.000002
C56	C	1.372208	0.156506	0.499998
C57	C	0.880950	-0.236310	0.000013
C58	C	1.380950	0.263690	0.500013
C59	C	0.924435	-0.508459	-0.000022
C60	C	1.424435	-0.008459	0.499978
C61	C	1.040577	0.120377	0.000000
C62	C	1.540577	0.620377	0.500000
C63	C	1.124711	0.122051	-0.000004
C64	C	1.624711	0.622051	0.499996
C65	C	0.908867	0.300903	-0.000021
C66	C	1.408867	0.800903	0.499979
C67	C	0.917465	0.406109	-0.000034
C68	C	1.417465	0.906109	0.499966
N69	N	0.902672	0.127604	0.195665
N70	N	1.402672	0.627604	0.695665
N71	N	0.902714	0.127624	-0.195667
N72	N	1.402714	0.627624	0.304333
C73	C	0.949784	0.063081	0.238938
C74	C	1.449784	0.563081	0.738938
C75	C	0.949788	0.063080	0.325485
C76	C	1.449788	0.563080	0.825485
C77	C	0.902683	0.127608	0.368758
C78	C	1.402683	0.627608	0.868758
C79	C	0.855565	0.192134	0.325479
C80	C	1.355565	0.692134	0.825479
C81	C	0.855558	0.192130	0.238934
C82	C	1.355558	0.692130	0.738934
C83	C	0.855593	0.192152	0.674507
C84	C	1.355593	0.692152	1.174507
C85	C	0.855605	0.192153	0.761059
C86	C	1.355605	0.692153	1.261059
C87	C	0.949822	0.063102	0.761059
C88	C	1.449822	0.563102	1.261059
C89	C	0.949815	0.063098	0.674513
C90	C	1.449815	0.563098	1.174513
C91	C	0.902695	0.127620	0.631242
C92	C	1.402695	0.627620	1.131242
C93	C	0.902690	0.127619	0.537398
C94	C	1.402690	0.627619	1.037398
C95	C	0.902691	0.127614	0.462600
C96	C	1.402691	0.627614	0.962600
H97	H	0.132068	0.122209	-0.135989
H98	H	0.632068	0.622209	0.364011
O99	O	0.794370	-0.384598	0.000004
O100	O	1.294370	0.115402	0.500004
H101	H	0.787485	-0.429090	-0.056035
H102	H	1.287485	0.070910	0.443965
O103	O	1.011006	-0.360154	0.000005
O104	O	1.511006	0.139846	0.500005
H105	H	1.054325	-0.419007	-0.000005
H106	H	1.554325	0.080993	0.499995
H107	H	0.988146	0.010539	0.203711
H108	H	1.488146	0.510539	0.703711
H109	H	0.673339	0.133037	-0.135989
H110	H	1.173339	0.633037	0.364011
O111	O	0.285910	0.125296	0.155779
O112	O	0.785910	0.625296	0.655779
H113	H	0.245140	0.124477	0.207898
H114	H	0.745140	0.624477	0.707898
O115	O	1.000616	-0.006496	0.372161
O116	O	1.500616	0.493504	0.872161
H117	H	1.033381	-0.051352	0.327530
H118	H	1.533381	0.448648	0.827530
O119	O	0.519446	0.129958	0.155781
O120	O	1.019446	0.629958	0.655781
H121	H	0.560207	0.130786	0.207896
H122	H	1.060207	0.630786	0.707896
O123	O	0.121582	0.122433	0.155791
O124	O	0.621582	0.622433	0.655791
H125	H	0.059968	0.121354	0.143205
H126	H	0.559968	0.621354	0.643205
H127	H	0.673310	0.133041	0.135975
H128	H	1.173310	0.633041	0.635975
H129	H	0.817227	0.244690	0.639283
H130	H	1.317227	0.744690	1.139283
O131	O	0.285931	0.125287	-0.155798
O132	O	0.785931	0.625287	0.344202
H133	H	0.245167	0.124486	-0.207911
H134	H	0.745167	0.624486	0.292089
O135	O	1.000616	-0.006504	0.627838
O136	O	1.500616	0.493496	1.127838
H137	H	1.033371	-0.051381	0.672468
H138	H	1.533371	0.448619	1.172468
O139	O	0.804734	0.261722	0.192269
O140	O	1.304734	0.761722	0.692269
H141	H	0.765254	0.221873	0.152870
H142	H	1.265254	0.721873	0.652870
O143	O	0.804765	0.261738	0.372153
O144	O	1.304765	0.761738	0.872153
H145	H	0.772001	0.306602	0.327520
H146	H	1.272001	0.806602	0.827520
O147	O	0.519483	0.129962	-0.155799
O148	O	1.019483	0.629962	0.344201
H149	H	0.457872	0.128740	-0.143209
H150	H	0.957872	0.628740	0.356791
H151	H	0.988187	0.010561	0.796299
H152	H	1.488187	0.510561	1.296299
H153	H	0.817244	0.244701	0.796290
H154	H	1.317244	0.744701	1.296290
