data_functionalizedCrystal
_audit_creation_method	'MofGen! by Chris Wilmer'
_symmetry_space_group_name_H-M	'P1'
_symmetry_Int_Tables_number	1
_symmetry_cell_setting	triclinic
loop_
_symmetry_equiv_pos_as_xyz
  x,y,z
_cell_length_a	16.109304
_cell_length_b	10.654556
_cell_length_c	14.586319
_cell_angle_alpha	89.998146
_cell_angle_beta	89.999019
_cell_angle_gamma	83.975087
loop_
_atom_site_label
_atom_site_type_symbol
_atom_site_fract_x
_atom_site_fract_y
_atom_site_fract_z
O1	O	0.116798	1.666252	-0.076199
O2	O	0.127918	1.300624	-0.076208
O3	O	0.001387	1.493480	-0.076204
O4	O	0.243329	1.473396	-0.076204
O5	O	0.001385	1.493467	0.076277
O6	O	0.127916	1.300611	0.076273
O7	O	0.116796	1.666239	0.076281
Cu8	Cu	0.122356	1.483423	0.090200
Cu9	Cu	0.122358	1.483439	-0.090127
O10	O	0.243327	1.473382	0.076277
C11	C	0.127099	1.253831	0.000031
C12	C	0.124653	1.114421	0.000027
C13	C	0.121210	0.917929	-0.083083
C14	C	0.123504	1.048921	-0.083089
C15	C	0.123501	1.048925	0.083154
C16	C	0.121202	0.917937	0.083159
C17	C	0.078022	1.237572	-0.182954
C18	C	0.079186	1.303061	-0.266079
C19	C	0.127072	1.250904	-0.339465
C20	C	0.173815	1.133256	-0.329729
C21	C	0.172659	1.067772	-0.246603
C22	C	0.124753	1.119931	-0.173220
C23	C	0.166690	0.729282	0.183019
C24	C	0.165540	0.663795	0.266146
C25	C	0.117659	0.715948	0.339540
C26	C	0.070929	0.833598	0.329813
C27	C	0.072079	0.899085	0.246686
C28	C	0.119959	0.846923	0.173292
C29	C	-0.029594	1.492660	0.000034
C30	C	-0.121903	1.490218	0.000028
C31	C	-0.334273	1.484586	-0.083086
C32	C	-0.421007	1.482281	-0.083085
C33	C	-0.421006	1.482273	0.083158
C34	C	-0.334273	1.484569	0.083156
C35	C	-0.290909	1.485732	0.000031
C36	C	-0.464376	1.481131	0.000034
C37	C	-0.558417	1.478631	0.000035
C38	C	-0.196863	1.488229	0.000029
C39	C	0.274308	1.474203	0.000037
C40	C	0.366617	1.476644	0.000037
C41	C	0.117615	1.713032	0.000040
C42	C	0.120061	1.852442	0.000038
N43	N	0.122354	1.483422	0.217031
N44	N	0.122354	1.483451	-0.216958
C45	C	0.066345	1.568847	0.452040
C46	C	0.066343	1.568850	0.548021
C47	C	0.178365	1.398017	0.548027
C48	C	0.178363	1.398008	0.452047
C49	C	0.122353	1.483430	0.404056
C50	C	0.122354	1.483443	0.596017
C51	C	0.122352	1.483446	0.700084
C52	C	0.122354	1.483426	0.299982
H53	H	0.210718	0.971988	-0.238676
H54	H	0.128019	1.304235	-0.407147
F55	F	0.224791	1.077763	-0.407836
H56	H	-0.456324	1.481328	0.150835
H57	H	0.041123	1.398851	-0.274001
F58	F	-0.288119	1.485777	0.171626
F59	F	0.006733	1.659757	0.400968
H60	H	0.020735	1.638402	0.587087
H61	H	-0.456310	1.481345	-0.150768
F62	F	0.237973	1.307112	0.599108
F63	F	0.237974	1.307087	0.400976
H64	H	0.034026	0.994883	0.238771
F65	F	0.119993	0.848230	-0.171548
H66	H	0.039018	1.280044	-0.123206
H67	H	0.031942	0.876065	0.389577
F68	F	0.124722	1.118639	0.171613
H69	H	0.116734	0.662621	0.407229
H70	H	0.203599	0.568002	0.274063
F71	F	-0.288125	1.485819	-0.171555
F72	F	0.217660	0.673772	0.104908
