data_functionalizedCrystal
_audit_creation_method	'MofGen! by Chris Wilmer'
_symmetry_space_group_name_H-M	'P1'
_symmetry_Int_Tables_number	1
_symmetry_cell_setting	triclinic
loop_
_symmetry_equiv_pos_as_xyz
  x,y,z
_cell_length_a	10.685904
_cell_length_b	10.685594
_cell_length_c	10.686551
_cell_angle_alpha	90.301037
_cell_angle_beta	81.591549
_cell_angle_gamma	99.063657
loop_
_atom_site_label
_atom_site_type_symbol
_atom_site_fract_x
_atom_site_fract_y
_atom_site_fract_z
Zn1	Zn	1.975681	-0.282817	-0.886853
Zn2	Zn	1.942993	-0.511409	-0.690870
Zn3	Zn	1.744607	-0.317937	-0.660818
Zn4	Zn	1.747124	-0.511287	-0.886771
O5	O	1.852601	-0.405862	-0.781328
O6	O	2.150022	-0.298493	-0.873467
O7	O	1.901944	-0.500493	-0.510302
O8	O	1.787886	-0.136694	-0.678260
O9	O	2.126006	-0.466438	-0.729479
O10	O	1.957655	-0.110892	-0.844327
O11	O	1.756190	-0.358351	-0.488223
O12	O	1.566264	-0.358233	-0.678180
O13	O	1.792176	-0.466231	-1.063363
O14	O	1.568113	-0.500286	-0.844186
O15	O	1.960095	-0.298375	-1.063424
O16	O	1.904384	-0.687977	-0.729399
O17	O	1.760480	-0.687887	-0.873326
C18	C	1.520859	-0.433058	-0.757914
C19	C	1.378939	-0.444720	-0.747929
C20	C	1.829195	-0.733713	-0.804645
C21	C	1.819302	-0.873956	-0.814670
C22	C	2.185638	-0.378562	-0.804834
C23	C	2.327559	-0.366928	-0.814851
C24	C	1.880062	-0.378372	-1.110460
C25	C	1.891765	-0.366657	-1.250716
C26	C	1.876136	-0.076726	-0.757950
C27	C	1.886165	0.063532	-0.747988
C28	C	1.825327	-0.433149	-0.453476
C29	C	1.813897	-0.444489	-0.313212
H30	H	1.314355	-0.520238	-0.682995
H31	H	1.392150	-0.291398	-0.879781
H32	H	1.950989	-0.882692	-0.683231
H33	H	1.967394	-0.291059	-1.304517
H34	H	1.754493	-0.927725	-0.879433
H35	H	1.738281	-0.520089	-1.259418
