data_functionalizedCrystal
_audit_creation_method	'MofGen! by Chris Wilmer'
_symmetry_space_group_name_H-M	'P1'
_symmetry_Int_Tables_number	1
_symmetry_cell_setting	triclinic
loop_
_symmetry_equiv_pos_as_xyz
  x,y,z
_cell_length_a	14.044220
_cell_length_b	18.266242
_cell_length_c	14.044209
_cell_angle_alpha	89.991400
_cell_angle_beta	86.811584
_cell_angle_gamma	90.003954
loop_
_atom_site_label
_atom_site_type_symbol
_atom_site_fract_x
_atom_site_fract_y
_atom_site_fract_z
O1	O	1.277172	0.060811	-0.230170
O2	O	1.000501	0.060830	-0.221864
O3	O	1.134685	0.060810	-0.087681
O4	O	1.142988	0.060831	-0.364353
O5	O	1.134659	-0.060952	-0.087671
O6	O	1.000475	-0.060932	-0.221854
O7	O	1.277147	-0.060951	-0.230160
Zn8	Zn	1.138807	-0.080274	-0.226006
Zn9	Zn	1.138841	0.080153	-0.226018
O10	O	1.142963	-0.060931	-0.364343
C11	C	0.964866	-0.000049	-0.218223
C12	C	0.858724	-0.000043	-0.207379
N13	N	1.138791	-0.189761	-0.225997
C14	C	0.664386	-0.000059	-0.187553
C15	C	0.613256	-0.000056	-0.264467
C16	C	0.505120	-0.000065	-0.253435
C17	C	0.772532	-0.000050	-0.198583
C18	C	1.198232	-0.228078	-0.166614
C19	C	1.198237	-0.304723	-0.166610
C20	C	1.138813	-0.343048	-0.226006
C21	C	1.079361	-0.304721	-0.285393
C22	C	1.079350	-0.228078	-0.285388
N23	N	1.133803	-0.463373	-0.309456
N24	N	1.133819	-0.536182	-0.309458
C25	C	1.138841	-0.573970	-0.226022
N26	N	1.143865	-0.536200	-0.142584
N27	N	1.143854	-0.463385	-0.142583
C28	C	1.138818	-0.426155	-0.226018
C29	C	1.198291	-0.695395	-0.166631
C30	C	1.198290	-0.772041	-0.166625
C31	C	1.079418	-0.772037	-0.285416
C32	C	1.079414	-0.695393	-0.285413
C33	C	1.138855	-0.657076	-0.226022
C34	C	1.312781	-0.000070	-0.233800
C35	C	1.418924	-0.000072	-0.244645
C36	C	1.131037	-0.000072	-0.052054
C37	C	1.120193	-0.000074	0.054088
N38	N	1.138864	0.189640	-0.226020
C39	C	1.100368	-0.000067	0.248426
C40	C	1.177283	-0.000071	0.299556
C41	C	1.166252	-0.000067	0.407692
C42	C	1.111398	-0.000071	0.140280
C43	C	1.146613	-0.000054	0.600031
C44	C	1.157463	-0.000064	0.493888
H45	H	0.650694	-0.000047	-0.338601
O46	O	0.619580	-0.000031	-0.099186
C47	C	0.520022	-0.000055	-0.107707
H48	H	0.503063	0.022996	-0.180274
H49	H	0.491902	-0.058472	-0.100772
C50	C	0.492997	0.019383	0.060772
C51	C	0.472166	0.047700	-0.028353
H52	H	0.463475	0.048837	0.109723
H53	H	0.560070	0.019396	0.066514
H54	H	0.469562	-0.029297	0.066537
H55	H	0.495611	0.096375	-0.034122
H56	H	0.405095	0.047696	-0.034095
H57	H	1.026241	-0.000061	0.285863
H58	H	1.246630	-0.196883	-0.118252
H59	H	1.031030	-0.803241	-0.333773
H60	H	1.246643	-0.335927	-0.118252
H61	H	1.246689	-0.664196	-0.118267
H62	H	1.031016	-0.664193	-0.333772
H63	H	1.251416	-0.000026	0.262117
H64	H	1.030974	-0.335929	-0.333752
H65	H	1.246690	-0.803240	-0.118263
H66	H	1.030945	-0.196879	-0.333745
