data_functionalizedCrystal
_audit_creation_method	'MofGen! by Chris Wilmer'
_symmetry_space_group_name_H-M	'P1'
_symmetry_Int_Tables_number	1
_symmetry_cell_setting	triclinic
loop_
_symmetry_equiv_pos_as_xyz
  x,y,z
_cell_length_a	19.805407
_cell_length_b	16.120484
_cell_length_c	19.805399
_cell_angle_alpha	92.869501
_cell_angle_beta	89.983114
_cell_angle_gamma	92.925608
loop_
_atom_site_label
_atom_site_type_symbol
_atom_site_fract_x
_atom_site_fract_y
_atom_site_fract_z
Zn1	Zn	1.021057	-0.331915	-0.396377
Zn2	Zn	1.015239	-0.471337	-0.288925
Zn3	Zn	0.907876	-0.331942	-0.283202
Zn4	Zn	0.902099	-0.471289	-0.402070
O5	O	0.961568	-0.401621	-0.342643
O6	O	1.115002	-0.350419	-0.382135
O7	O	1.000980	-0.452877	-0.193450
O8	O	0.927742	-0.215272	-0.293437
O9	O	1.110727	-0.452851	-0.303191
O10	O	1.010896	-0.215253	-0.376586
O11	O	0.922101	-0.350464	-0.189246
O12	O	0.812394	-0.350418	-0.298958
O13	O	0.917896	-0.452770	-0.496030
O14	O	0.808149	-0.452796	-0.386289
O15	O	1.005294	-0.350373	-0.491847
O16	O	0.995378	-0.587997	-0.308711
O17	O	0.912255	-0.587962	-0.391838
C18	C	0.785713	-0.401605	-0.342621
C19	C	0.710480	-0.401618	-0.342628
C20	C	0.672940	-0.455007	-0.388035
C21	C	0.602252	-0.455008	-0.388044
C22	C	0.569104	-0.401625	-0.342643
C23	C	0.606649	-0.348230	-0.297235
C24	C	0.677336	-0.348225	-0.297229
C25	C	0.321575	-0.348249	-0.297258
C26	C	0.250882	-0.348260	-0.297266
C27	C	0.246490	-0.455032	-0.388073
C28	C	0.317178	-0.455027	-0.388067
C29	C	0.354717	-0.401630	-0.342661
C30	C	0.431365	-0.401628	-0.342652
C31	C	0.492457	-0.401630	-0.342649
C32	C	0.952577	-0.618229	-0.351528
C33	C	0.948792	-0.710895	-0.355352
C34	C	0.941887	-0.880557	-0.362347
C35	C	0.981370	-0.921844	-0.322951
C36	C	0.977528	-1.016250	-0.326843
C37	C	0.945728	-0.786143	-0.358456
C38	C	1.138110	-0.401638	-0.342666
C39	C	1.213342	-0.401645	-0.342676
C40	C	0.961600	-0.401563	-0.519184
C41	C	0.961614	-0.401538	-0.594415
C42	C	0.970612	-0.184167	-0.333738
C43	C	0.974467	-0.091501	-0.329944
C44	C	0.920554	-0.348207	-0.627569
C45	C	0.920564	-0.348191	-0.698257
C46	C	0.961638	-0.401502	-0.735789
C47	C	1.002699	-0.454840	-0.702630
C48	C	1.002685	-0.454860	-0.631944
C49	C	1.002756	-0.454762	-0.987700
C50	C	1.002768	-0.454736	-1.058391
C51	C	0.920635	-0.348093	-1.054013
C52	C	0.920621	-0.348113	-0.983327
C53	C	0.961679	-0.401453	-0.950174
C54	C	0.961667	-0.401471	-0.873527
C55	C	0.961654	-0.401481	-0.812435
C56	C	0.961577	-0.401618	-0.166787
C57	C	0.961705	-0.401408	-0.091547
H58	H	0.571690	-0.498483	-0.425018
O59	O	0.218651	-0.296520	-0.253089
C60	C	0.175775	-0.343924	-0.211266
H61	H	0.194356	-0.409577	-0.209695
H62	H	0.122087	-0.346837	-0.232307
C63	C	0.153540	-0.222452	-0.141210
C64	C	0.176366	-0.303086	-0.139276
H65	H	0.153902	-0.197260	-0.096804
H66	H	0.182424	-0.190514	-0.169388
H67	H	0.108802	-0.224890	-0.158748
H68	H	0.221105	-0.300646	-0.121747
H69	H	0.147489	-0.335023	-0.111093
H70	H	1.036126	-0.498281	-0.604950
H71	H	1.018058	-0.886290	-0.286299
O72	O	0.880682	-0.296443	-0.946800
C73	C	0.834974	-0.343921	-0.907864
H74	H	0.856218	-0.407106	-0.899864
H75	H	0.784439	-0.353071	-0.935476
C76	C	0.798518	-0.220467	-0.848666
C77	C	0.824613	-0.298069	-0.838835
H78	H	0.792124	-0.192183	-0.806086
H79	H	0.829310	-0.188479	-0.874899
H80	H	0.756409	-0.228103	-0.871678
H81	H	0.866725	-0.290432	-0.815831
H82	H	0.793827	-0.330055	-0.812596
O83	O	0.898132	-0.923093	-0.406007
C84	C	0.903998	-1.009248	-0.400224
H85	H	0.925735	-1.021052	-0.348489
H86	H	0.939029	-1.033889	-0.441404
C87	C	0.807022	-1.039628	-0.471705
C88	C	0.833715	-1.054127	-0.408161
H89	H	0.763669	-1.067313	-0.476604
H90	H	0.803071	-0.981585	-0.475604
H91	H	0.836220	-1.060163	-0.506015
H92	H	0.804520	-1.033583	-0.373853
H93	H	0.837659	-1.112168	-0.404256
O94	O	0.880590	-0.296394	-0.591217
C95	C	0.844363	-0.249306	-0.635641
H96	H	0.840612	-0.283440	-0.687426
H97	H	0.871782	-0.185987	-0.640570
C98	C	0.777426	-0.195371	-0.543953
C99	C	0.772814	-0.237299	-0.607555
H100	H	0.733292	-0.187961	-0.526628
H101	H	0.801834	-0.227092	-0.514023
H102	H	0.800278	-0.142610	-0.548069
H103	H	0.749970	-0.290063	-0.603437
H104	H	0.748400	-0.205587	-0.637484
O105	O	0.713772	-0.296458	-0.253025
C106	C	0.695712	-0.314560	-0.186286
H107	H	0.673514	-0.381157	-0.185514
H108	H	0.656531	-0.269836	-0.166819
C109	C	0.786159	-0.222989	-0.141670
C110	C	0.758900	-0.304788	-0.140721
H111	H	0.825135	-0.216959	-0.113562
H112	H	0.798325	-0.210791	-0.186633
H113	H	0.753502	-0.185728	-0.125449
H114	H	0.791554	-0.342047	-0.156949
H115	H	0.746741	-0.316993	-0.095760
O116	O	1.042685	-0.506609	-1.094750
C117	C	1.078933	-0.553680	-1.050332
H118	H	1.051081	-0.556581	-1.000058
H119	H	1.131609	-0.523165	-1.041570
C120	C	1.119204	-0.638840	-1.143304
C121	C	1.084992	-0.642408	-1.081560
H122	H	1.122944	-0.693571	-1.162568
H123	H	1.094785	-0.607126	-1.173231
H124	H	1.163097	-0.613407	-1.135995
H125	H	1.041097	-0.667832	-1.088871
H126	H	1.109404	-0.674129	-1.051635
H127	H	0.887201	-0.304663	-1.081015
O128	O	1.042544	-0.506659	-0.955478
C129	C	1.001769	-0.560508	-0.916778
H130	H	0.948248	-0.565646	-0.938279
H131	H	1.000503	-0.534754	-0.862148
C132	C	1.096969	-0.640867	-0.892845
C133	C	1.031235	-0.647184	-0.919258
H134	H	1.115146	-0.694332	-0.894372
H135	H	1.124441	-0.604586	-0.918916
H136	H	1.095905	-0.619402	-0.847323
H137	H	1.032301	-0.668638	-0.964781
H138	H	1.003764	-0.683471	-0.893194
H139	H	0.887126	-0.304766	-0.725248
H140	H	0.215918	-0.498507	-0.425048
O141	O	0.705031	-0.506891	-0.432203
C142	C	0.656735	-0.554026	-0.472272
H143	H	0.607764	-0.519884	-0.473262
H144	H	0.646583	-0.617306	-0.449999
C145	C	0.743992	-0.608085	-0.543573
C146	C	0.683847	-0.566148	-0.544794
H147	H	0.760716	-0.615566	-0.588307
H148	H	0.776530	-0.576332	-0.516577
H149	H	0.735523	-0.660814	-0.525009
H150	H	0.692317	-0.513416	-0.563349
H151	H	0.651310	-0.597892	-0.571795
O152	O	0.349271	-0.506910	-0.432235
C153	C	0.300978	-0.554047	-0.472305
H154	H	0.252006	-0.519909	-0.473297
H155	H	0.290827	-0.617328	-0.450033
C156	C	0.388239	-0.608101	-0.543603
C157	C	0.328092	-0.566168	-0.544826
H158	H	0.404965	-0.615582	-0.588336
H159	H	0.420775	-0.576347	-0.516606
H160	H	0.379772	-0.660831	-0.525039
H161	H	0.336562	-0.513436	-0.563381
H162	H	0.295557	-0.597915	-0.571828
H163	H	0.352131	-0.304776	-0.260280
H164	H	0.579655	-0.304761	-0.260271
H165	H	1.036139	-0.498251	-0.733195
