data_functionalizedCrystal
_audit_creation_method	'MofGen! by Chris Wilmer'
_symmetry_space_group_name_H-M	'P1'
_symmetry_Int_Tables_number	1
_symmetry_cell_setting	triclinic
loop_
_symmetry_equiv_pos_as_xyz
  x,y,z
_cell_length_a	16.625547
_cell_length_b	16.625539
_cell_length_c	17.641144
_cell_angle_alpha	78.809763
_cell_angle_beta	101.173176
_cell_angle_gamma	89.975178
loop_
_atom_site_label
_atom_site_type_symbol
_atom_site_fract_x
_atom_site_fract_y
_atom_site_fract_z
Zn1	Zn	1.297517	-0.520968	0.314588
Zn2	Zn	1.324657	-0.413426	0.446737
Zn3	Zn	1.162685	-0.386144	0.314616
Zn4	Zn	1.189876	-0.548196	0.446689
O5	O	1.243684	-0.467184	0.380658
O6	O	1.413952	-0.506725	0.332127
O7	O	1.303149	-0.296981	0.429243
O8	O	1.157833	-0.381217	0.204034
O9	O	1.433891	-0.427714	0.429216
O10	O	1.256894	-0.480271	0.204014
O11	O	1.184149	-0.276937	0.332173
O12	O	1.053458	-0.407618	0.332127
O13	O	1.204176	-0.657410	0.429134
O14	O	1.073435	-0.526677	0.429161
O15	O	1.283260	-0.637406	0.332080
O16	O	1.329515	-0.454116	0.557309
O17	O	1.230492	-0.553131	0.557274
C18	C	1.034190	-0.467143	0.380642
C19	C	0.944571	-0.467148	0.380655
C20	C	0.871789	-0.467158	0.380656
C21	C	0.780481	-0.467179	0.380660
C22	C	0.707706	-0.467201	0.380668
C23	C	0.616393	-0.467222	0.380673
C24	C	1.243724	-0.677481	0.380599
C25	C	1.243741	-0.767097	0.380574
C26	C	1.243760	-1.095254	0.380485
C27	C	1.243753	-1.003951	0.380512
C28	C	1.243751	-0.931178	0.380530
C29	C	1.243743	-0.839869	0.380556
C30	C	1.453996	-0.467226	0.380674
C31	C	1.543618	-0.467244	0.380680
C32	C	1.285921	-0.509556	0.585963
C33	C	1.304064	-0.527711	0.673794
C34	C	1.243678	-0.257693	0.380659
C35	C	1.243771	-0.168032	0.380462
C36	C	1.201303	-0.424663	0.174550
C37	C	1.183243	-0.406544	0.086720
C38	C	1.106144	-0.329369	0.963004
C39	C	1.123206	-0.346429	1.045534
C40	C	1.226241	-0.449625	1.045385
C41	C	1.209185	-0.432577	0.962853
C42	C	1.149137	-0.372447	0.921669
C43	C	1.252177	-0.475655	0.921518
C44	C	1.235126	-0.458604	0.838994
C45	C	1.175082	-0.398475	0.797804
C46	C	1.132085	-0.355396	0.839145
C47	C	1.312230	-0.535780	0.962704
C48	C	1.355222	-0.578858	0.921369
C49	C	1.338167	-0.561812	0.838843
C50	C	1.278123	-0.501683	0.797653
C51	C	1.381164	-0.604891	0.797502
C52	C	1.364112	-0.587840	0.714978
C53	C	1.261072	-0.484633	0.715128
H54	H	1.212168	-0.435675	0.681595
H55	H	1.057241	-0.280411	0.929470
N56	N	1.416545	-0.640289	0.963440
N57	N	1.409234	-0.712773	0.954186
H58	H	1.452542	-0.756162	0.983898
N59	N	1.079305	-0.302387	1.087745
N60	N	1.025714	-0.248686	1.050960
H61	H	0.994720	-0.217571	1.080771
N62	N	1.287578	-0.511037	1.087469
N63	N	1.302798	-0.526252	1.161151
H64	H	1.346118	-0.569626	1.190872
N65	N	1.329669	-0.553186	1.047001
N66	N	1.354177	-0.497919	1.083852
H67	H	1.366497	-0.510210	1.143387
H68	H	1.083182	-0.306438	0.805611
N69	N	1.442506	-0.666297	0.839588
N70	N	1.457729	-0.681506	0.913270
H71	H	1.501053	-0.724874	0.942993
H72	H	1.399122	-0.622919	0.681322
H73	H	1.161203	-0.384591	0.730607
