data_functionalizedCrystal
_audit_creation_method	'MofGen! by Chris Wilmer'
_symmetry_space_group_name_H-M	'P1'
_symmetry_Int_Tables_number	1
_symmetry_cell_setting	triclinic
loop_
_symmetry_equiv_pos_as_xyz
  x,y,z
_cell_length_a	19.188930
_cell_length_b	14.853567
_cell_length_c	13.330367
_cell_angle_alpha	90.000844
_cell_angle_beta	90.021431
_cell_angle_gamma	83.389856
loop_
_atom_site_label
_atom_site_type_symbol
_atom_site_fract_x
_atom_site_fract_y
_atom_site_fract_z
O1	O	-0.926523	-0.112552	-0.083738
O2	O	-0.426523	0.387448	0.416262
O3	O	-0.723263	-0.127704	-0.083668
O4	O	-0.223263	0.372296	0.416332
O5	O	-0.830322	0.011132	-0.083708
O6	O	-0.330322	0.511132	0.416292
O7	O	-0.819464	-0.251388	-0.083698
O8	O	-0.319464	0.248612	0.416302
O9	O	-0.830307	0.011135	0.083139
O10	O	-0.330307	0.511135	0.583139
O11	O	-0.723247	-0.127701	0.083179
O12	O	-0.223247	0.372299	0.583179
O13	O	-0.926508	-0.112549	0.083109
O14	O	-0.426508	0.387451	0.583109
Cu15	Cu	-0.824876	-0.120125	0.098379
Cu16	Cu	-0.324876	0.379875	0.598379
Cu17	Cu	-0.824894	-0.120128	-0.098937
Cu18	Cu	-0.324894	0.379872	0.401063
O19	O	-0.819448	-0.251385	0.083149
O20	O	-0.319448	0.248615	0.583149
C21	C	-0.829823	0.044720	-0.000287
C22	C	-0.329823	0.544720	0.499713
C23	C	-0.828348	0.144795	-0.000295
C24	C	-0.328348	0.644795	0.499705
C25	C	-0.697242	-0.127211	-0.000236
C26	C	-0.197242	0.372789	0.499764
C27	C	-0.619733	-0.125739	-0.000209
C28	C	-0.119733	0.374261	0.499791
C29	C	-0.952528	-0.113041	-0.000325
C30	C	-0.452528	0.386959	0.499675
C31	C	-1.030038	-0.114514	-0.000358
C32	C	-0.530038	0.385486	0.499642
C33	C	-0.575080	-0.207203	-0.000222
C34	C	-0.075080	0.292797	0.499778
C35	C	-0.502252	-0.205819	-0.000233
C36	C	-0.002252	0.294181	0.499767
C37	C	-0.474079	-0.122966	-0.000252
C38	C	0.025921	0.377034	0.499748
C39	C	-0.518741	-0.041491	-0.000233
C40	C	-0.018741	0.458509	0.499767
C41	C	-0.591568	-0.042878	-0.000212
C42	C	-0.091568	0.457122	0.499788
N43	N	-0.365893	-0.059637	-0.057080
N44	N	0.134107	0.440363	0.442920
N45	N	-0.296710	-0.058326	-0.057102
N46	N	0.203290	0.441674	0.442898
C47	C	-0.254657	-0.118785	-0.000313
C48	C	0.245343	0.381215	0.499687
N49	N	-0.284398	-0.180619	0.056486
N50	N	0.215602	0.319381	0.556486
N51	N	-0.353587	-0.181933	0.056504
N52	N	0.146413	0.318067	0.556504
C53	C	-0.395112	-0.121454	-0.000274
C54	C	0.104888	0.378546	0.499726
C55	C	-0.131035	-0.198755	-0.000336
C56	C	0.368965	0.301245	0.499664
C57	C	-0.058205	-0.197368	-0.000341
C58	C	0.441795	0.302632	0.499659
C59	C	-0.074696	-0.033038	-0.000352
C60	C	0.425304	0.466962	0.499648
C61	C	-0.147524	-0.034427	-0.000337
C62	C	0.352476	0.465573	0.499663
C63	C	-0.175689	-0.117288	-0.000334
C64	C	0.324311	0.382712	0.499666
C65	C	-0.819948	-0.284972	-0.000274
C66	C	-0.319948	0.215028	0.499726
C67	C	-0.821422	-0.385048	-0.000272
C68	C	-0.321422	0.114952	0.499728
N69	N	-0.824868	-0.120121	0.237160
N70	N	-0.324868	0.379879	0.737160
C71	C	-0.758520	0.556941	-0.000252
C72	C	-0.258520	1.056941	0.499748
C73	C	-0.885709	0.578929	-0.000296
C74	C	-0.385709	1.078929	0.499704
C75	C	-0.887095	0.484903	-0.000302
C76	C	-0.387095	0.984903	0.499698
C77	C	-0.824193	0.426891	-0.000282
C78	C	-0.324193	0.926891	0.499718
C79	C	-0.759904	0.462906	-0.000255
C80	C	-0.259904	0.962906	0.499745
C81	C	-0.951383	0.448881	-0.000319
C82	C	-0.451383	0.948881	0.499681
C83	C	-0.952772	0.354850	-0.000324
C84	C	-0.452772	0.854850	0.499676
C85	C	-0.889869	0.296836	-0.000311
C86	C	-0.389869	0.796836	0.499689
C87	C	-0.825577	0.332856	-0.000285
C88	C	-0.325577	0.832856	0.499715
C89	C	-0.762675	0.274845	-0.000265
C90	C	-0.262675	0.774845	0.499735
C91	C	-0.698383	0.310862	-0.000247
C92	C	-0.198383	0.810862	0.499753
C93	C	-0.697001	0.404892	-0.000242
C94	C	-0.197001	0.904892	0.499758
C95	C	-0.891251	0.202807	-0.000315
C96	C	-0.391251	0.702807	0.499685
C97	C	-0.764059	0.180809	-0.000269
C98	C	-0.264059	0.680809	0.499731
N99	N	-0.824908	-0.120124	-0.237719
N100	N	-0.324908	0.379876	0.262281
C101	C	-0.777486	-0.181580	0.709801
C102	C	-0.277486	0.318420	1.209801
C103	C	-0.872321	-0.058669	0.709733
C104	C	-0.372321	0.441331	1.209733
C105	C	-0.872313	-0.058666	0.604715
C106	C	-0.372313	0.441334	1.104715
C107	C	-0.824892	-0.120122	0.552235
C108	C	-0.324892	0.379878	1.052235
C109	C	-0.777478	-0.181581	0.604773
C110	C	-0.277478	0.318419	1.104773
C111	C	-0.919731	0.002786	0.552169
C112	C	-0.419731	0.502786	1.052169
C113	C	-0.919725	0.002791	0.447144
C114	C	-0.419725	0.502791	0.947144
C115	C	-0.872300	-0.058662	0.394662
C116	C	-0.372300	0.441338	0.894662
C117	C	-0.824884	-0.120123	0.447207
C118	C	-0.324884	0.379877	0.947207
C119	C	-0.777462	-0.181580	0.394726
C120	C	-0.277462	0.318420	0.894726
C121	C	-0.730042	-0.243037	0.447269
C122	C	-0.230042	0.256963	0.947269
C123	C	-0.730053	-0.243034	0.552290
C124	C	-0.230053	0.256966	1.052290
C125	C	-0.872290	-0.058665	0.289641
C126	C	-0.372290	0.441335	0.789641
C127	C	-0.777454	-0.181581	0.289698
C128	C	-0.277454	0.318419	0.789698
H129	H	-0.465889	-0.272159	-0.000241
H130	H	0.034111	0.227841	0.499759
H131	H	-0.183881	0.031910	-0.000332
H132	H	0.316119	0.531910	0.499668
H133	H	-0.738876	-0.231616	0.752583
H134	H	-0.238876	0.268384	1.252583
O135	O	-0.923468	0.007614	0.766329
O136	O	-0.423468	0.507614	1.266329
H137	H	-0.915506	-0.002708	0.848185
H138	H	-0.415506	0.497292	1.348185
H139	H	-0.958344	0.052818	0.594902
H140	H	-0.458344	0.552818	1.094902
O141	O	-0.960584	0.163954	-0.000342
O142	O	-0.460584	0.663954	0.499658
H143	H	-1.004091	0.220090	-0.000359
H144	H	-0.504091	0.720090	0.499641
H145	H	-0.647168	0.263617	-0.000223
H146	H	-0.147168	0.763617	0.499777
O147	O	-0.488359	0.047872	-0.000245
O148	O	0.011641	0.547872	0.499755
H149	H	-0.506322	0.087011	-0.068239
H150	H	-0.006322	0.587011	0.431761
H151	H	-0.153968	-0.266225	-0.000319
H152	H	0.346032	0.233775	0.499681
H153	H	-0.958336	0.052833	0.404371
H154	H	-0.458336	0.552833	0.904371
H155	H	-0.910901	-0.008631	0.246865
H156	H	-0.410901	0.491369	0.746865
H157	H	-0.644657	0.434227	-0.000226
H158	H	-0.144657	0.934227	0.499774
O159	O	-0.605454	-0.296574	-0.000211
O160	O	-0.105454	0.203426	0.499789
H161	H	-0.663598	-0.283855	-0.000202
H162	H	-0.163598	0.216145	0.499798
O163	O	-0.010038	-0.285236	-0.000351
O164	O	0.489962	0.214764	0.499649
H165	H	-0.041862	-0.343083	-0.000354
H166	H	0.458138	0.156917	0.499646
O167	O	-0.678889	-0.309305	0.390650
O168	O	-0.178889	0.190695	0.890650
H169	H	-0.708313	-0.353024	0.342771
H170	H	-0.208313	0.146976	0.842771
O171	O	-1.019224	0.511448	-0.000337
O172	O	-0.519224	1.011448	0.499663
H173	H	-1.049972	0.498678	0.067665
H174	H	-0.549972	0.998678	0.567665
H175	H	-0.706174	0.586271	-0.000241
H176	H	-0.206174	1.086271	0.499759
O177	O	-0.953553	0.641491	-0.000308
O178	O	-0.453553	1.141491	0.499692
H179	H	-0.941789	0.712927	-0.000302
H180	H	-0.441789	1.212927	0.499698
O181	O	-0.044321	0.056328	-0.000358
O182	O	0.455679	0.556328	0.499642
H183	H	-0.062282	0.095467	-0.068354
H184	H	0.437718	0.595467	0.431646
O185	O	-0.696214	0.118239	-0.000238
O186	O	-0.196214	0.618239	0.499762
H187	H	-0.651279	0.159084	-0.000215
H188	H	-0.151279	0.659084	0.499785
H189	H	-0.627925	0.023463	-0.000202
H190	H	-0.127925	0.523463	0.499798
O191	O	-1.022111	0.316002	-0.000367
O192	O	-0.522111	0.816002	0.499633
H193	H	-1.065617	0.372139	-0.000392
H194	H	-0.565617	0.872139	0.499608
H195	H	-0.738835	-0.231623	0.246975
H196	H	-0.238835	0.268377	0.746975
O197	O	-0.678917	-0.309327	0.608957
O198	O	-0.178917	0.190673	1.108957
H199	H	-0.686899	-0.299009	0.690802
H200	H	-0.186899	0.200991	1.190802
