data_functionalizedCrystal
_audit_creation_method	'MofGen! by Chris Wilmer'
_symmetry_space_group_name_H-M	'P1'
_symmetry_Int_Tables_number	1
_symmetry_cell_setting	triclinic
loop_
_symmetry_equiv_pos_as_xyz
  x,y,z
_cell_length_a	29.839134
_cell_length_b	29.839131
_cell_length_c	29.839125
_cell_angle_alpha	90.025363
_cell_angle_beta	90.024313
_cell_angle_gamma	90.027971
loop_
_atom_site_label
_atom_site_type_symbol
_atom_site_fract_x
_atom_site_fract_y
_atom_site_fract_z
Zn1	Zn	0.686739	-0.179003	0.254129
Zn2	Zn	1.020072	0.154330	0.587462
Zn3	Zn	1.353406	0.487663	0.920796
Zn4	Zn	0.686679	-0.254115	0.178989
Zn5	Zn	1.020013	0.079218	0.512322
Zn6	Zn	1.353346	0.412551	0.845656
Zn7	Zn	0.611622	-0.178991	0.178996
Zn8	Zn	0.944955	0.154343	0.512329
Zn9	Zn	1.278288	0.487676	0.845662
Zn10	Zn	0.611578	-0.254097	0.254074
Zn11	Zn	0.944911	0.079236	0.587408
Zn12	Zn	1.278244	0.412569	0.920741
O13	O	0.649154	-0.216552	0.216547
O14	O	0.982488	0.116782	0.549880
O15	O	1.315821	0.450115	0.883214
O16	O	0.749598	-0.188980	0.244182
O17	O	1.082931	0.144354	0.577515
O18	O	1.416265	0.477687	0.910848
O19	O	0.676716	-0.244152	0.116123
O20	O	1.010049	0.089181	0.449456
O21	O	1.343383	0.422515	0.782789
O22	O	0.621630	-0.116125	0.188988
O23	O	0.954963	0.217208	0.522321
O24	O	1.288296	0.550542	0.855655
O25	O	0.749554	-0.244164	0.188977
O26	O	1.082888	0.089169	0.522310
O27	O	1.416221	0.422502	0.855643
O28	O	0.676818	-0.116134	0.244188
O29	O	1.010151	0.217199	0.577521
O30	O	1.343485	0.550532	0.910855
O31	O	0.621572	-0.188958	0.116128
O32	O	0.954905	0.144375	0.449461
O33	O	1.288238	0.477708	0.782794
O34	O	0.548749	-0.188941	0.188935
O35	O	0.882082	0.144392	0.522268
O36	O	1.215415	0.477726	0.855601
O37	O	0.621554	-0.244134	0.316949
O38	O	0.954888	0.089199	0.650282
O39	O	1.288221	0.422533	0.983615
O40	O	0.548716	-0.244122	0.244095
O41	O	0.882050	0.089212	0.577428
O42	O	1.215383	0.422545	0.910761
O43	O	0.676775	-0.188962	0.316989
O44	O	1.010108	0.144371	0.650322
O45	O	1.343442	0.477704	0.983656
O46	O	0.676673	-0.316980	0.188924
O47	O	1.010007	0.016353	0.522257
O48	O	1.343340	0.349687	0.855590
O49	O	0.621497	-0.316967	0.244088
O50	O	0.954830	0.016366	0.577422
O51	O	1.288163	0.349700	0.910755
C52	C	0.532432	-0.216528	0.216510
C53	C	0.865765	0.116805	0.549843
C54	C	1.199098	0.450138	0.883177
C55	C	0.482497	-0.216529	0.216505
C56	C	0.815831	0.116804	0.549838
C57	C	1.149164	0.450138	0.883171
C58	C	0.125915	-0.187777	0.187884
C59	C	0.459248	0.145557	0.521217
C60	C	0.792581	0.478890	0.854550
C61	C	0.313588	-0.187764	0.187857
C62	C	0.646921	0.145569	0.521190
C63	C	0.980254	0.478903	0.854523
O64	O	0.337856	-0.163279	0.163480
O65	O	0.671189	0.170054	0.496814
O66	O	1.004523	0.503387	0.830147
N67	N	0.337052	-0.216536	0.216527
N68	N	0.670386	0.116797	0.549861
N69	N	1.003719	0.450130	0.883194
C70	C	0.313596	-0.245312	0.245209
C71	C	0.646929	0.088021	0.578542
C72	C	0.980262	0.421355	0.911875
O73	O	0.337860	-0.269781	0.269598
O74	O	0.671193	0.063552	0.602931
O75	O	1.004527	0.396886	0.936264
C76	C	0.125923	-0.245322	0.245238
C77	C	0.459257	0.088011	0.578571
C78	C	0.792590	0.421345	0.911905
C79	C	0.102461	-0.216551	0.216562
C80	C	0.435795	0.116782	0.549896
C81	C	0.769128	0.450116	0.883229
C82	C	0.102452	-0.159007	0.159211
C83	C	0.435786	0.174326	0.492544
C84	C	0.769119	0.507659	0.825877
C85	C	0.055537	-0.159013	0.159216
C86	C	0.388870	0.174321	0.492549
C87	C	0.722204	0.507654	0.825883
C88	C	0.032084	-0.187787	0.187895
C89	C	0.365417	0.145546	0.521228
C90	C	0.698750	0.478880	0.854561
C91	C	0.055546	-0.216556	0.216568
C92	C	0.388879	0.116777	0.549901
C93	C	0.722213	0.450111	0.883234
C94	C	0.102468	-0.274095	0.273922
C95	C	0.435801	0.059238	0.607255
C96	C	0.769134	0.392572	0.940588
C97	C	0.055547	-0.274094	0.273927
C98	C	0.388880	0.059239	0.607260
C99	C	0.722213	0.392572	0.940594
C100	C	0.032085	-0.245323	0.245251
C101	C	0.365418	0.088010	0.578585
C102	C	0.698751	0.421344	0.911918
C103	C	-0.014823	-0.245336	0.245251
C104	C	0.318510	0.087998	0.578585
C105	C	0.651844	0.421331	0.911918
N106	N	-0.038287	-0.216563	0.216581
N107	N	0.295046	0.116770	0.549914
N108	N	0.628379	0.450104	0.883247
C109	C	-0.014834	-0.187789	0.187902
C110	C	0.318499	0.145544	0.521236
C111	C	0.651833	0.478878	0.854569
C112	C	0.412126	-0.245305	0.245191
C113	C	0.745460	0.088028	0.578524
C114	C	1.078793	0.421361	0.911857
C115	C	0.459044	-0.245303	0.245183
C116	C	0.792377	0.088030	0.578516
C117	C	1.125711	0.421363	0.911850
C118	C	0.459033	-0.187755	0.187831
C119	C	0.792366	0.145579	0.521165
C120	C	1.125700	0.478912	0.854498
C121	C	0.412114	-0.187759	0.187837
C122	C	0.745447	0.145574	0.521170
C123	C	1.078781	0.478908	0.854504
C124	C	0.388662	-0.216533	0.216520
C125	C	0.721995	0.116801	0.549853
C126	C	1.055328	0.450134	0.883187
C127	C	-0.113360	-0.187802	0.187916
C128	C	0.219973	0.145531	0.521249
C129	C	0.553307	0.478864	0.854582
C130	C	-0.160280	-0.187811	0.187922
C131	C	0.173054	0.145522	0.521255
C132	C	0.506387	0.478855	0.854589
C133	C	-0.160264	-0.245358	0.245275
C134	C	0.173069	0.087975	0.578609
C135	C	0.506402	0.421309	0.911942
C136	C	-0.113349	-0.245351	0.245267
C137	C	0.219985	0.087982	0.578601
C138	C	0.553318	0.421316	0.911934
C139	C	-0.089898	-0.216569	0.216586
C140	C	0.243436	0.116764	0.549919
C141	C	0.576769	0.450097	0.883253
O142	O	-0.039120	-0.269804	0.269618
O143	O	0.294213	0.063530	0.602952
O144	O	0.627547	0.396863	0.936285
O145	O	-0.039107	-0.163316	0.163524
O146	O	0.294227	0.170017	0.496858
O147	O	0.627560	0.503350	0.830191
C148	C	0.172830	-0.187771	0.187878
C149	C	0.506163	0.145562	0.521212
C150	C	0.839497	0.478895	0.854545
C151	C	0.196292	-0.216541	0.216552
C152	C	0.529626	0.116793	0.549885
C153	C	0.862959	0.450126	0.883218
C154	C	0.172839	-0.245315	0.245230
C155	C	0.506172	0.088018	0.578563
C156	C	0.839506	0.421352	0.911897
C157	C	0.243210	-0.216539	0.216544
C158	C	0.576543	0.116795	0.549877
C159	C	0.909877	0.450128	0.883210
C160	C	0.266663	-0.187764	0.187865
C161	C	0.599997	0.145569	0.521199
C162	C	0.933330	0.478902	0.854532
C163	C	0.243199	-0.158992	0.159195
C164	C	0.576532	0.174341	0.492528
C165	C	0.909865	0.507675	0.825861
C166	C	0.196283	-0.158997	0.159200
C167	C	0.529617	0.174336	0.492533
C168	C	0.862950	0.507670	0.825867
C169	C	0.196304	-0.274087	0.273901
C170	C	0.529637	0.059246	0.607234
C171	C	0.862970	0.392579	0.940567
C172	C	0.243219	-0.274080	0.273892
C173	C	0.576552	0.059253	0.607226
C174	C	0.909886	0.392587	0.940559
C175	C	0.266672	-0.245306	0.245214
C176	C	0.600006	0.088027	0.578547
C177	C	0.933339	0.421361	0.911881
C178	C	0.649086	-0.333274	0.216509
C179	C	0.982419	0.000059	0.549842
C180	C	1.315753	0.333392	0.883176
C181	C	0.649098	-0.383209	0.216508
C182	C	0.982431	-0.049875	0.549841
C183	C	1.315764	0.283458	0.883175
C184	C	0.677885	-0.692822	0.245331
C185	C	1.011218	-0.359489	0.578664
C186	C	1.344551	-0.026155	0.911997
C187	C	0.677933	-0.880495	0.245358
C188	C	1.011267	-0.547162	0.578691
C189	C	1.344600	-0.213828	0.912024
O190	O	0.702342	-0.904734	0.269836
O191	O	1.035675	-0.571401	0.603169
O192	O	1.369009	-0.238068	0.936502
N193	N	0.649231	-0.903994	0.216597
N194	N	0.982564	-0.570660	0.549930
N195	N	1.315897	-0.237327	0.883264
C196	C	0.620512	-0.880571	0.187829
C197	C	0.953845	-0.547238	0.521163
C198	C	1.287178	-0.213905	0.854496
O199	O	0.596096	-0.904865	0.163370
O200	O	0.929429	-0.571531	0.496704
O201	O	1.262763	-0.238198	0.830037
C202	C	0.620461	-0.692899	0.187805
C203	C	0.953794	-0.359566	0.521138
C204	C	1.287128	-0.026232	0.854472
C205	C	0.649169	-0.669403	0.216564
C206	C	0.982502	-0.336069	0.549898
C207	C	1.315835	-0.002736	0.883231
C208	C	0.706590	-0.669326	0.274088
C209	C	1.039923	-0.335992	0.607422
C210	C	1.373256	-0.002659	0.940755
C211	C	0.706579	-0.622410	0.274079
C212	C	1.039912	-0.289077	0.607413
C213	C	1.373246	0.044256	0.940746
C214	C	0.677863	-0.598991	0.245313
C215	C	1.011196	-0.265658	0.578647
C216	C	1.344530	0.067676	0.911980
C217	C	0.649158	-0.622487	0.216556
C218	C	0.982491	-0.289154	0.549889
C219	C	1.315825	0.044179	0.883222
C220	C	0.591740	-0.669477	0.159040
C221	C	0.925073	-0.336144	0.492373
C222	C	1.258407	-0.002811	0.825707
C223	C	0.591729	-0.622556	0.159037
C224	C	0.925062	-0.289223	0.492370
C225	C	1.258396	0.044110	0.825704
C226	C	0.620437	-0.599060	0.187797
C227	C	0.953770	-0.265727	0.521130
C228	C	1.287103	0.067606	0.854463
C229	C	0.620431	-0.552153	0.187781
C230	C	0.953765	-0.218819	0.521114
C231	C	1.287098	0.114514	0.854447
N232	N	0.649134	-0.528654	0.216541
N233	N	0.982467	-0.195321	0.549875
N234	N	1.315801	0.138013	0.883208
C235	C	0.677850	-0.552073	0.245308
C236	C	1.011183	-0.218740	0.578641
C237	C	1.344517	0.114593	0.911974
C238	C	0.620541	-0.979102	0.187844
C239	C	0.953874	-0.645768	0.521177
C240	C	1.287208	-0.312435	0.854510
C241	C	0.620554	-1.026020	0.187849
C242	C	0.953887	-0.692686	0.521182
C243	C	1.287221	-0.359353	0.854516
C244	C	0.677975	-1.025940	0.245378
C245	C	1.011309	-0.692607	0.578711
C246	C	1.344642	-0.359274	0.912045
C247	C	0.677964	-0.979022	0.245370
C248	C	1.011297	-0.645688	0.578703
C249	C	1.344631	-0.312355	0.912037
C250	C	0.649244	-0.955603	0.216604
C251	C	0.982577	-0.622270	0.549938
C252	C	1.315910	-0.288936	0.883271
C253	C	0.677826	-0.453547	0.245287
C254	C	1.011159	-0.120214	0.578620
C255	C	1.344492	0.213119	0.911954
C256	C	0.677814	-0.406628	0.245274
C257	C	1.011147	-0.073294	0.578608
C258	C	1.344480	0.260039	0.911941
C259	C	0.620391	-0.406711	0.187747
C260	C	0.953724	-0.073378	0.521080
C261	C	1.287057	0.259955	0.854414
C262	C	0.620404	-0.453627	0.187758
C263	C	0.953738	-0.120294	0.521091
C264	C	1.287071	0.213040	0.854424
C265	C	0.649123	-0.477044	0.216531
C266	C	0.982456	-0.143710	0.549865
C267	C	1.315790	0.189623	0.883198
O268	O	0.596032	-0.527885	0.163319
O269	O	0.929365	-0.194551	0.496652
O270	O	1.262699	0.138782	0.829986
O271	O	0.702255	-0.527772	0.269770
O272	O	1.035588	-0.194438	0.603103
O273	O	1.368922	0.138895	0.936437
C274	C	0.677895	-0.739737	0.245339
C275	C	1.011229	-0.406404	0.578673
C276	C	1.344562	-0.073071	0.912006
C277	C	0.649190	-0.763234	0.216582
C278	C	0.982524	-0.429900	0.549915
C279	C	1.315857	-0.096567	0.883249
C280	C	0.620474	-0.739815	0.187816
C281	C	0.953808	-0.406481	0.521149
C282	C	1.287141	-0.073148	0.854482
C283	C	0.649203	-0.810152	0.216587
C284	C	0.982537	-0.476818	0.549921
C285	C	1.315870	-0.143485	0.883254
C286	C	0.677919	-0.833571	0.245354
C287	C	1.011253	-0.500237	0.578687
C288	C	1.344586	-0.166904	0.912020
C289	C	0.706622	-0.810072	0.274115
C290	C	1.039955	-0.476739	0.607448
C291	C	1.373289	-0.143405	0.940781
C292	C	0.706611	-0.763157	0.274106
C293	C	1.039945	-0.429823	0.607439
C294	C	1.373278	-0.096490	0.940772
C295	C	0.591772	-0.763313	0.159055
C296	C	0.925105	-0.429980	0.492388
C297	C	1.258438	-0.096647	0.825721
C298	C	0.591785	-0.810229	0.159066
C299	C	0.925118	-0.476895	0.492399
C300	C	1.258452	-0.143562	0.825732
C301	C	0.620501	-0.833648	0.187832
C302	C	0.953834	-0.500315	0.521165
C303	C	1.287168	-0.166981	0.854499
C304	C	0.766333	-0.216575	0.216585
C305	C	1.099666	0.116758	0.549918
C306	C	1.432999	0.450091	0.883251
C307	C	0.816267	-0.216586	0.216601
C308	C	1.149600	0.116748	0.549934
C309	C	1.482934	0.450081	0.883267
C310	C	0.649167	-0.216548	0.333725
C311	C	0.982500	0.116786	0.667059
C312	C	1.315833	0.450119	1.000392
C313	C	0.649172	-0.216546	0.383660
C314	C	0.982505	0.116787	0.716993
C315	C	1.315838	0.450121	1.050326
C316	C	0.649235	-0.099373	0.216595
C317	C	0.982569	0.233960	0.549928
C318	C	1.315902	0.567293	0.883262
C319	C	0.649270	-0.049439	0.216615
C320	C	0.982603	0.283895	0.549949
C321	C	1.315937	0.617228	0.883282
C322	C	0.649168	-0.216523	0.099825
C323	C	0.982501	0.116810	0.433158
C324	C	1.315835	0.450143	0.766491
C325	C	0.649250	-0.216398	0.049890
C326	C	0.982583	0.116935	0.383224
C327	C	1.315917	0.450268	0.716557
C328	C	0.677955	-0.187743	0.693327
C329	C	1.011289	0.145590	1.026661
C330	C	1.344622	0.478924	1.359994
C331	C	0.677978	-0.187705	0.881000
C332	C	1.011311	0.145629	1.214334
C333	C	1.344644	0.478962	1.547667
O334	O	0.702417	-0.163258	0.905286
O335	O	1.035750	0.170076	1.238619
O336	O	1.369084	0.503409	1.571952
N337	N	0.649231	-0.216426	0.904445
N338	N	0.982565	0.116908	1.237778
N339	N	1.315898	0.450241	1.571112
C340	C	0.620475	-0.245156	0.880969
C341	C	0.953809	0.088177	1.214302
C342	C	1.287142	0.421511	1.547635
O343	O	0.596022	-0.269581	0.905216
O344	O	0.929355	0.063752	1.238549
O345	O	1.262689	0.397086	1.571883
C346	C	0.620451	-0.245192	0.693296
C347	C	0.953784	0.088142	1.026630
C348	C	1.287118	0.421475	1.359963
C349	C	0.649202	-0.216472	0.669854
C350	C	0.982536	0.116861	1.003187
C351	C	1.315869	0.450195	1.336521
C352	C	0.706704	-0.159025	0.669885
C353	C	1.040037	0.174308	1.003218
C354	C	1.373371	0.507641	1.336552
C355	C	0.706700	-0.159037	0.622970
C356	C	1.040033	0.174296	0.956303
C357	C	1.373367	0.507630	1.289636
C358	C	0.677947	-0.187766	0.599496
C359	C	1.011280	0.145567	0.932830
C360	C	1.344614	0.478901	1.266163
C361	C	0.649198	-0.216484	0.622939
C362	C	0.982532	0.116850	0.956272
C363	C	1.315865	0.450183	1.289605
C364	C	0.591693	-0.273920	0.669821
C365	C	0.925026	0.059414	1.003154
C366	C	1.258360	0.392747	1.336487
C367	C	0.591689	-0.273925	0.622900
C368	C	0.925022	0.059408	0.956233
C369	C	1.258355	0.392741	1.289566
C370	C	0.620440	-0.245206	0.599458
C371	C	0.953773	0.088128	0.932791
C372	C	1.287107	0.421461	1.266124
C373	C	0.620441	-0.245225	0.552550
C374	C	0.953775	0.088109	0.885883
C375	C	1.287108	0.421442	1.219217
N376	N	0.649188	-0.216504	0.529105
N377	N	0.982521	0.116830	0.862439
N378	N	1.315854	0.450163	1.195772
C379	C	0.677941	-0.187774	0.552578
C380	C	1.011274	0.145559	0.885912
C381	C	1.344607	0.478892	1.219245
C382	C	0.620491	-0.245136	0.979499
C383	C	0.953824	0.088197	1.312833
C384	C	1.287157	0.421531	1.646166
C385	C	0.620497	-0.245128	1.026417
C386	C	0.953830	0.088206	1.359751
C387	C	1.287164	0.421539	1.693084
C388	C	0.677999	-0.187675	1.026446
C389	C	1.011332	0.145658	1.359779
C390	C	1.344666	0.478991	1.693112
C391	C	0.677994	-0.187686	0.979527
C392	C	1.011328	0.145647	1.312860
C393	C	1.344661	0.478980	1.646194
C394	C	0.649237	-0.216415	0.956055
C395	C	0.982570	0.116918	1.289388
C396	C	1.315904	0.450252	1.622721
C397	C	0.677930	-0.187801	0.454053
C398	C	1.011263	0.145532	0.787386
C399	C	1.344597	0.478866	1.120719
C400	C	0.677925	-0.187817	0.407133
C401	C	1.011258	0.145517	0.740466
C402	C	1.344591	0.478850	1.073800
C403	C	0.620421	-0.245267	0.407109
C404	C	0.953754	0.088066	0.740442
C405	C	1.287088	0.421400	1.073775
C406	C	0.620428	-0.245253	0.454024
C407	C	0.953761	0.088080	0.787357
C408	C	1.287095	0.421413	1.120691
C409	C	0.649184	-0.216517	0.477495
C410	C	0.982517	0.116817	0.810828
C411	C	1.315851	0.450150	1.144162
O412	O	0.596011	-0.269655	0.528236
O413	O	0.929344	0.063678	0.861569
O414	O	1.262678	0.397012	1.194903
O415	O	0.702383	-0.163346	0.528323
O416	O	1.035717	0.169987	0.861656
O417	O	1.369050	0.503320	1.194990
C418	C	0.677959	-0.187731	0.740243
C419	C	1.011293	0.145602	1.073576
C420	C	1.344626	0.478935	1.406909
C421	C	0.649211	-0.216449	0.763685
C422	C	0.982544	0.116884	1.097018
C423	C	1.315877	0.450218	1.430352
C424	C	0.620458	-0.245178	0.740212
C425	C	0.953791	0.088155	1.073545
C426	C	1.287124	0.421488	1.406879
C427	C	0.649217	-0.216441	0.810603
C428	C	0.982551	0.116893	1.143936
C429	C	1.315884	0.450226	1.477270
C430	C	0.677970	-0.187711	0.834076
C431	C	1.011304	0.145622	1.167409
C432	C	1.344637	0.478955	1.500743
C433	C	0.706717	-0.158990	0.810631
C434	C	1.040050	0.174343	1.143965
C435	C	1.373383	0.507676	1.477298
C436	C	0.706712	-0.159002	0.763716
C437	C	1.040046	0.174331	1.097049
C438	C	1.373379	0.507665	1.430383
C439	C	0.591711	-0.273899	0.763657
C440	C	0.925045	0.059434	1.096990
C441	C	1.258378	0.392768	1.430323
C442	C	0.591718	-0.273886	0.810572
C443	C	0.925052	0.059448	1.143905
C444	C	1.258385	0.392781	1.477239
C445	C	0.620471	-0.245156	0.834045
C446	C	0.953805	0.088177	1.167379
C447	C	1.287138	0.421510	1.500712
H448	H	-0.179368	-0.268787	0.268623
H449	H	0.153965	0.064546	0.601956
H450	H	0.487298	0.397880	0.935290
H451	H	0.568297	-0.297295	0.744550
H452	H	0.901631	0.036038	1.077883
H453	H	1.234964	0.369372	1.411216
H454	H	0.262303	-0.135564	0.135842
H455	H	0.595636	0.197769	0.469175
H456	H	0.928969	0.531102	0.802509
H457	H	0.729974	-0.688389	0.297516
H458	H	1.063307	-0.355055	0.630849
H459	H	1.396640	-0.021722	0.964183
H460	H	0.262318	-0.297513	0.297243
H461	H	0.595651	0.035820	0.630576
H462	H	0.928985	0.369153	0.963910
O463	O	0.708928	-0.953679	0.276387
O464	O	1.042262	-0.620346	0.609720
O465	O	1.375595	-0.287013	0.943054
H466	H	0.728897	-0.977851	0.296389
H467	H	1.062230	-0.644518	0.629722
H468	H	1.395564	-0.311185	0.963056
H469	H	0.568306	-0.297277	0.829655
H470	H	0.901639	0.036056	1.162988
H471	H	1.234973	0.369390	1.496322
H472	H	0.729988	-0.744029	0.297525
H473	H	1.063321	-0.410696	0.630858
H474	H	1.396654	-0.077363	0.964191
O475	O	0.589564	-0.953845	0.156814
O476	O	0.922897	-0.620512	0.490147
O477	O	1.256231	-0.287179	0.823481
H478	H	0.609682	-0.932465	0.133980
H479	H	0.943016	-0.599132	0.467313
H480	H	1.276349	-0.265798	0.800646
O481	O	0.171010	-0.305185	0.304772
O482	O	0.504343	0.028148	0.638105
O483	O	0.837677	0.361481	0.971439
H484	H	0.195213	-0.325213	0.324681
H485	H	0.528546	0.008120	0.658014
H486	H	0.861879	0.341453	0.991347
O487	O	0.386833	-0.276405	0.276065
O488	O	0.720166	0.056928	0.609398
O489	O	1.053500	0.390261	0.942732
H490	H	0.411036	-0.296435	0.295972
H491	H	0.744369	0.036898	0.629305
H492	H	1.077703	0.370232	0.962638
O493	O	-0.185588	-0.156784	0.156988
O494	O	0.147746	0.176550	0.490322
O495	O	0.481079	0.509883	0.823655
H496	H	-0.206950	-0.133961	0.177138
H497	H	0.126384	0.199373	0.510471
H498	H	0.459717	0.532706	0.843805
H499	H	0.478143	-0.268737	0.268529
H500	H	0.811476	0.064597	0.601862
H501	H	1.144810	0.397930	0.935196
O502	O	-0.088069	-0.156767	0.156975
O503	O	0.245264	0.176566	0.490308
O504	O	0.578597	0.509899	0.823641
H505	H	-0.112272	-0.136770	0.137035
H506	H	0.221061	0.196563	0.470369
H507	H	0.554394	0.529896	0.803702
O508	O	0.709002	-0.156708	0.954243
O509	O	1.042335	0.176625	1.287577
O510	O	1.375668	0.509958	1.620910
H511	H	0.728993	-0.136730	0.978453
H512	H	1.062327	0.196603	1.311786
H513	H	1.395660	0.529937	1.645119
H514	H	0.730005	-0.829148	0.297536
H515	H	1.063338	-0.495815	0.630869
H516	H	1.396672	-0.162481	0.964202
O517	O	0.708783	-0.381284	0.276289
O518	O	1.042116	-0.047951	0.609623
O519	O	1.375450	0.285382	0.942956
H520	H	0.728751	-0.405454	0.296294
H521	H	1.062084	-0.072121	0.629627
H522	H	1.395417	0.261212	0.962961
H523	H	0.121563	-0.297524	0.297272
H524	H	0.454896	0.035809	0.630606
H525	H	0.788229	0.369143	0.963939
O526	O	0.560755	-0.597297	0.128007
O527	O	0.894089	-0.263964	0.461340
O528	O	1.227422	0.069370	0.794673
H529	H	0.540801	-0.621521	0.108009
H530	H	0.874134	-0.288188	0.441342
H531	H	1.207468	0.045146	0.774675
O532	O	0.589443	-0.478974	0.156739
O533	O	0.922777	-0.145641	0.490072
O534	O	1.256110	0.187693	0.823406
H535	H	0.569472	-0.454805	0.136736
H536	H	0.902806	-0.121471	0.470069
H537	H	1.236139	0.211862	0.803403
O538	O	0.589418	-0.381448	0.156722
O539	O	0.922751	-0.048115	0.490055
O540	O	1.256085	0.285218	0.823389
H541	H	0.594232	-0.344877	0.161554
H542	H	0.927566	-0.011544	0.494888
H543	H	1.260899	0.321790	0.828221
H544	H	0.730125	-0.135615	0.744633
H545	H	1.063458	0.197718	1.077967
H546	H	1.396791	0.531051	1.411300
O547	O	0.708803	-0.478801	0.276317
O548	O	1.042136	-0.145468	0.609651
O549	O	1.375469	0.187865	0.942984
H550	H	0.728762	-0.454575	0.296307
H551	H	1.062095	-0.121241	0.629640
H552	H	1.395429	0.212092	0.962974
O553	O	0.560819	-0.835570	0.128045
O554	O	0.894152	-0.502236	0.461378
O555	O	1.227486	-0.168903	0.794712
H556	H	0.540848	-0.811398	0.108046
H557	H	0.874181	-0.478065	0.441379
H558	H	1.207514	-0.144731	0.774713
H559	H	0.036454	-0.297524	0.297286
H560	H	0.369788	0.035809	0.630620
H561	H	0.703121	0.369142	0.963953
O562	O	-0.088038	-0.276382	0.276194
O563	O	0.245295	0.056951	0.609527
O564	O	0.578628	0.390284	0.942860
H565	H	-0.112231	-0.296390	0.296138
H566	H	0.221102	0.036943	0.629471
H567	H	0.554435	0.370277	0.962804
H568	H	0.729954	-0.603282	0.297499
H569	H	1.063287	-0.269949	0.630833
H570	H	1.396621	0.063384	0.964166
O571	O	0.708944	-1.051203	0.276411
O572	O	1.042277	-0.717869	0.609744
O573	O	1.375611	-0.384536	0.943078
H574	H	0.704124	-1.087774	0.271584
H575	H	1.037457	-0.754441	0.604917
H576	H	1.370790	-0.421108	0.938250
O577	O	0.589594	-1.051361	0.156827
O578	O	0.922927	-0.718027	0.490161
O579	O	1.256260	-0.384694	0.823494
H580	H	0.569622	-1.027189	0.136829
H581	H	0.902955	-0.693856	0.470162
H582	H	1.236289	-0.360522	0.803495
O583	O	0.737715	-0.128033	0.695200
O584	O	1.071048	0.205300	1.028533
O585	O	1.404382	0.538634	1.361867
H586	H	0.760560	-0.148138	0.716580
H587	H	1.093894	0.185195	1.049914
H588	H	1.427227	0.518529	1.383247
H589	H	0.701339	-0.164429	0.388048
H590	H	1.034672	0.168904	0.721382
H591	H	1.368006	0.502237	1.054715
H592	H	0.177185	-0.135568	0.135850
H593	H	0.510518	0.197765	0.469183
H594	H	0.843851	0.531098	0.802516
O595	O	0.560773	-0.694814	0.128024
O596	O	0.894106	-0.361480	0.461357
O597	O	1.227440	-0.028147	0.794690
H598	H	0.540801	-0.670639	0.108028
H599	H	0.874135	-0.337306	0.441361
H600	H	1.207468	-0.003972	0.774694
O601	O	0.560805	-0.738056	0.128020
O602	O	0.894138	-0.404723	0.461354
O603	O	1.227471	-0.071390	0.794687
H604	H	0.540854	-0.762283	0.108021
H605	H	0.874187	-0.428949	0.441355
H606	H	1.207521	-0.095616	0.774688
O607	O	0.708948	-0.156812	0.479365
O608	O	1.042281	0.176522	0.812698
O609	O	1.375615	0.509855	1.146032
H610	H	0.728939	-0.136850	0.455175
H611	H	1.062272	0.196483	0.788509
H612	H	1.395606	0.529816	1.121842
O613	O	0.737708	-0.128058	0.597687
O614	O	1.071041	0.205275	0.931021
O615	O	1.404375	0.538608	1.264354
H616	H	0.757697	-0.108079	0.621898
H617	H	1.091030	0.225254	0.955232
H618	H	1.424364	0.558587	1.288565
H619	H	0.701411	-0.164283	1.045566
H620	H	1.034744	0.169050	1.378899
H621	H	1.368078	0.502383	1.712232
O622	O	0.589488	-0.276105	1.051700
O623	O	0.922822	0.057229	1.385033
O624	O	1.256155	0.390562	1.718367
H625	H	0.569491	-0.296077	1.027491
H626	H	0.902825	0.037256	1.360824
H627	H	1.236158	0.370589	1.694157
H628	H	0.597073	-0.268533	0.960392
H629	H	0.930406	0.064800	1.293726
H630	H	1.263740	0.398134	1.627059
H631	H	0.568280	-0.297306	0.688899
H632	H	0.901614	0.036027	1.022233
H633	H	1.234947	0.369360	1.355566
H634	H	0.568265	-0.297315	0.603791
H635	H	0.901599	0.036018	0.937124
H636	H	1.234932	0.369351	1.270458
O637	O	0.589420	-0.276229	0.479313
O638	O	0.922753	0.057104	0.812646
O639	O	1.256087	0.390437	1.145980
H640	H	0.569424	-0.296207	0.455106
H641	H	0.902758	0.037127	0.788439
H642	H	1.236091	0.370460	1.121773
H643	H	0.597013	-0.268659	0.387988
H644	H	0.930346	0.064674	0.721322
H645	H	1.263679	0.398008	1.054655
O646	O	0.737719	-0.127997	0.835959
O647	O	1.071053	0.205336	1.169292
O648	O	1.404386	0.538670	1.502625
H649	H	0.760560	-0.148100	0.857346
H650	H	1.093894	0.185233	1.190679
H651	H	1.427227	0.518566	1.524012
O652	O	0.030233	-0.127978	0.128291
O653	O	0.363566	0.205355	0.461625
O654	O	0.696899	0.538689	0.794958
H655	H	0.039258	-0.092731	0.136069
H656	H	0.372591	0.240602	0.469403
H657	H	0.705925	0.573935	0.802736
O658	O	0.127740	-0.127976	0.128267
O659	O	0.461073	0.205358	0.461600
O660	O	0.794407	0.538691	0.794933
H661	H	0.118750	-0.092728	0.136032
H662	H	0.452084	0.240606	0.469366
H663	H	0.785417	0.573939	0.802699
O664	O	0.386809	-0.156724	0.156913
O665	O	0.720142	0.176609	0.490247
O666	O	1.053476	0.509943	0.823580
H667	H	0.411005	-0.136715	0.136974
H668	H	0.744338	0.196618	0.470307
H669	H	1.077671	0.529952	0.803640
O670	O	0.484332	-0.156714	0.156902
O671	O	0.817666	0.176619	0.490235
O672	O	1.150999	0.509952	0.823568
H673	H	0.520898	-0.161547	0.161720
H674	H	0.854231	0.171787	0.495053
H675	H	1.187565	0.505120	0.828387
