data_functionalizedCrystal
_audit_creation_method	'MofGen! by Chris Wilmer'
_symmetry_space_group_name_H-M	'P1'
_symmetry_Int_Tables_number	1
_symmetry_cell_setting	triclinic
loop_
_symmetry_equiv_pos_as_xyz
  x,y,z
_cell_length_a	14.519709
_cell_length_b	16.109301
_cell_length_c	15.186229
_cell_angle_alpha	90.005167
_cell_angle_beta	89.997743
_cell_angle_gamma	83.570813
loop_
_atom_site_label
_atom_site_type_symbol
_atom_site_fract_x
_atom_site_fract_y
_atom_site_fract_z
O1	O	-1.223634	-0.108984	-0.073117
O2	O	-0.955130	-0.121819	-0.073144
O3	O	-1.096758	0.005617	-0.073121
O4	O	-1.082006	-0.236420	-0.073140
O5	O	-1.096748	0.005618	0.073337
O6	O	-0.955120	-0.121817	0.073313
O7	O	-1.223625	-0.108983	0.073340
Zn8	Zn	-1.089371	-0.115400	0.096580
Zn9	Zn	-1.089383	-0.115402	-0.096384
O10	O	-1.081996	-0.236418	0.073317
C11	C	-0.920766	-0.121220	0.000081
C12	C	-0.818389	-0.119427	0.000071
C13	C	-1.096156	0.036593	0.000108
C14	C	-1.094364	0.128892	0.000109
C15	C	-1.257988	-0.109582	0.000113
C16	C	-1.360365	-0.111374	0.000118
C17	C	-0.443507	-0.112829	0.000112
C18	C	-0.547811	-0.114661	0.000100
C19	C	-0.630945	-0.116128	0.000091
C20	C	-0.735256	-0.117961	0.000081
C21	C	-1.082599	-0.267395	0.000086
C22	C	-1.084390	-0.359693	0.000079
N23	N	-1.089369	-0.115397	0.228273
C24	C	-1.174238	0.351026	0.000104
C25	C	-1.172547	0.437749	0.000096
C26	C	-1.004510	0.418166	0.000082
C27	C	-1.006202	0.331444	0.000084
C28	C	-1.091068	0.297877	0.000099
C29	C	-1.087686	0.471322	0.000090
C30	C	-1.085852	0.565351	0.000082
C31	C	-1.092902	0.203842	0.000105
N32	N	-1.089392	-0.115397	-0.228076
C33	C	-1.152103	-0.058988	0.454006
C34	C	-1.152106	-0.058986	0.546196
C35	C	-1.026651	-0.171810	0.546184
C36	C	-1.026645	-0.171807	0.453996
C37	C	-1.089376	-0.115397	0.407909
C38	C	-1.089386	-0.115398	0.592287
C39	C	-1.089388	-0.115396	0.692243
C40	C	-1.089372	-0.115397	0.307947
H41	H	-1.243341	0.323699	0.000114
H42	H	-0.938471	0.288168	0.000077
H43	H	-1.203183	-0.013052	0.583725
H44	H	-0.935415	0.445507	0.000072
H45	H	-1.203182	-0.013055	0.416484
O46	O	-0.959003	-0.232660	0.595890
H47	H	-0.969552	-0.223193	0.667739
H48	H	-0.975560	-0.217742	0.416462
O49	O	-1.262256	0.495070	0.000111
H50	H	-1.265518	0.535038	-0.059588
