data_functionalizedCrystal
_audit_creation_method	'MofGen! by Chris Wilmer'
_symmetry_space_group_name_H-M	'P1'
_symmetry_Int_Tables_number	1
_symmetry_cell_setting	triclinic
loop_
_symmetry_equiv_pos_as_xyz
  x,y,z
_cell_length_a	10.654550
_cell_length_b	10.540539
_cell_length_c	9.730223
_cell_angle_alpha	90.000775
_cell_angle_beta	89.996251
_cell_angle_gamma	84.505197
loop_
_atom_site_label
_atom_site_type_symbol
_atom_site_fract_x
_atom_site_fract_y
_atom_site_fract_z
O1	O	1.667897	0.178295	-0.114396
O2	O	1.302424	0.195282	-0.114373
O3	O	1.493499	0.002079	-0.114383
O4	O	1.476822	0.371498	-0.114386
O5	O	1.493496	0.002084	0.114197
O6	O	1.302422	0.195287	0.114207
O7	O	1.667895	0.178300	0.114184
Zn8	Zn	1.485158	0.186794	0.150487
Zn9	Zn	1.485161	0.186788	-0.150677
O10	O	1.476820	0.371503	0.114194
C11	C	1.255625	0.194038	-0.000080
C12	C	1.116180	0.190306	-0.000072
C13	C	1.036734	0.304061	-0.000093
C14	C	0.905712	0.300547	-0.000116
C15	C	0.933595	0.069513	-0.000104
C16	C	1.064614	0.073028	-0.000071
C17	C	1.020636	0.437446	-0.000106
C18	C	0.889614	0.433932	-0.000129
C19	C	1.492247	-0.045221	-0.000096
C20	C	1.488505	-0.186168	-0.000103
C21	C	1.345134	-0.369543	-0.000607
C22	C	1.348927	-0.222926	-0.000093
C23	C	1.555675	-0.247847	0.130423
C24	C	1.550912	-0.394389	0.130533
C25	C	1.553753	-0.394914	-0.129405
C26	C	1.555039	-0.247933	-0.131131
C27	C	1.714694	0.179545	-0.000112
C28	C	1.854139	0.183276	-0.000129
C29	C	1.478072	0.418803	-0.000096
C30	C	1.481813	0.559750	-0.000098
N31	N	1.485165	0.186798	0.356024
N32	N	1.485164	0.186774	-0.356213
C33	C	1.569795	0.101277	0.427945
C34	C	1.569791	0.101261	0.571828
C35	C	1.400525	0.272299	0.571855
C36	C	1.400523	0.272308	0.427975
C37	C	1.667523	0.002533	0.427931
C38	C	1.667520	0.002518	0.571814
H39	H	1.296074	-0.180306	-0.093659
C40	C	1.806851	0.167990	0.412189
C41	C	1.790636	0.044283	0.367697
H42	H	1.882860	0.193766	0.375016
H43	H	1.737696	0.224716	0.382036
H44	H	1.811016	0.169376	0.509692
H45	H	1.786461	0.042898	0.270193
H46	H	1.859809	-0.012458	0.397843
H47	H	1.658178	-0.225529	0.135270
H48	H	1.289998	-0.398125	-0.094209
C49	C	1.719980	-0.138714	-0.030268
C50	C	1.692422	-0.215299	-0.141784
H51	H	1.804802	-0.118578	-0.036835
H52	H	1.664911	-0.062329	-0.031375
H53	H	1.708938	-0.183309	0.053036
H54	H	1.703455	-0.170700	-0.225088
H55	H	1.747507	-0.291697	-0.140690
H56	H	1.295701	-0.181149	0.093636
C57	C	0.921107	0.527682	0.220595
C58	C	0.827963	0.488355	0.133081
H59	H	0.883041	0.561283	0.302827
H60	H	0.979830	0.456903	0.242023
H61	H	0.963602	0.591548	0.176288
H62	H	0.785473	0.424481	0.177384
H63	H	0.769217	0.559142	0.111655
H64	H	1.049984	0.489615	0.095560
H65	H	1.501268	-0.422569	0.228111
H66	H	1.646046	-0.095040	0.388879
C67	C	1.442456	-0.291179	-0.337023
C68	C	1.488797	-0.192649	-0.261497
H69	H	1.401556	-0.257039	-0.417500
H70	H	1.510394	-0.351648	-0.362270
H71	H	1.383973	-0.331658	-0.282524
H72	H	1.547287	-0.152176	-0.315993
H73	H	1.420851	-0.132158	-0.236253
H74	H	0.891593	-0.025971	-0.000125
C75	C	1.445531	-0.287115	0.339120
C76	C	1.492686	-0.190332	0.261567
H77	H	1.406646	-0.251608	0.420083
H78	H	1.385201	-0.326652	0.286317
H79	H	1.512774	-0.348712	0.363572
H80	H	1.425441	-0.128740	0.237106
H81	H	1.553021	-0.150775	0.314380
H82	H	1.508579	-0.426453	-0.228336
C83	C	1.850427	-0.070173	0.704463
C84	C	1.797810	0.031877	0.624541
H85	H	1.930861	-0.052048	0.737008
H86	H	1.796805	-0.082260	0.780378
H87	H	1.859319	-0.145415	0.650195
H88	H	1.788910	0.107118	0.678812
H89	H	1.851446	0.043979	0.548615
H90	H	1.636975	-0.089689	0.616432
C91	C	1.149445	-0.346669	0.123421
C92	C	1.270991	-0.410285	0.125049
H93	H	1.103674	-0.371832	0.200992
H94	H	1.154873	-0.257294	0.126500
H95	H	1.107349	-0.367757	0.041674
H96	H	1.313091	-0.389189	0.206792
H97	H	1.265568	-0.499680	0.121982
H98	H	1.651295	-0.442394	0.136449
H99	H	1.129295	-0.019602	-0.000034
H100	H	1.056307	0.479916	-0.098793
C101	C	1.374792	0.444831	0.266193
C102	C	1.307492	0.366313	0.348919
H103	H	1.317354	0.502864	0.217384
H104	H	1.427461	0.490982	0.322325
H105	H	1.425189	0.393895	0.202749
H106	H	1.257102	0.417248	0.412370
H107	H	1.254802	0.320159	0.292782
H108	H	0.847900	0.484188	-0.095797
H109	H	1.654570	-0.442176	-0.130289
C110	C	1.229857	0.298217	0.733680
C111	C	1.307496	0.366291	0.650954
H112	H	1.172431	0.356248	0.782516
H113	H	1.184217	0.244967	0.677544
H114	H	1.280274	0.247284	0.797101
H115	H	1.257080	0.417217	0.587526
H116	H	1.353140	0.419564	0.707095
