data_functionalizedCrystal
_audit_creation_method	'MofGen! by Chris Wilmer'
_symmetry_space_group_name_H-M	'P1'
_symmetry_Int_Tables_number	1
_symmetry_cell_setting	triclinic
loop_
_symmetry_equiv_pos_as_xyz
  x,y,z
_cell_length_a	14.044220
_cell_length_b	14.044190
_cell_length_c	12.503572
_cell_angle_alpha	93.839403
_cell_angle_beta	86.164750
_cell_angle_gamma	93.190328
loop_
_atom_site_label
_atom_site_type_symbol
_atom_site_fract_x
_atom_site_fract_y
_atom_site_fract_z
O1	O	1.282207	0.225116	-0.089227
O2	O	1.005537	0.216809	-0.089254
O3	O	1.139714	0.082627	-0.089220
O4	O	1.148029	0.359297	-0.089261
O5	O	1.129625	0.092737	0.089420
O6	O	0.995447	0.226918	0.089386
O7	O	1.272117	0.235226	0.089412
Cu8	Cu	1.132861	0.231995	0.105710
Cu9	Cu	1.144793	0.220039	-0.105552
O10	O	1.137940	0.369407	0.089378
C11	C	0.964870	0.218228	0.000063
C12	C	0.858728	0.207383	0.000054
C13	C	1.131033	0.052060	0.000103
C14	C	1.120185	-0.054082	0.000111
C15	C	0.664388	0.187558	0.000078
C16	C	0.613260	0.264472	0.000071
C17	C	0.505123	0.253441	0.000085
C18	C	0.772535	0.198587	0.000065
C19	C	1.177287	-0.299543	0.000075
C20	C	1.100371	-0.248417	0.000075
C21	C	1.111398	-0.140279	0.000095
C22	C	1.166262	-0.407691	0.000054
C23	C	1.312784	0.233806	0.000093
C24	C	1.418927	0.244651	0.000095
C25	C	1.146621	0.399974	0.000053
C26	C	1.157469	0.506116	0.000038
N27	N	1.124476	0.240404	0.254300
N28	N	1.153185	0.211623	-0.254142
C29	C	1.112141	0.252782	0.473412
C30	C	1.165517	0.199248	0.526753
C31	C	1.158654	0.206136	0.648675
C32	C	1.119003	0.245896	0.351480
H33	H	0.650703	0.338605	0.000055
C34	C	0.613819	0.087415	0.000088
H35	H	0.660116	0.040603	0.000094
H36	H	0.578582	0.076408	-0.062204
H37	H	0.571563	0.083448	0.062395
C38	C	1.000225	-0.298994	0.000064
H39	H	1.005852	-0.366093	0.000063
H40	H	0.970034	-0.284563	-0.062227
H41	H	0.963011	-0.277540	0.062372
C42	C	1.277425	-0.248965	0.000108
H43	H	1.271791	-0.181865	0.000131
H44	H	1.314659	-0.270410	-0.062180
H45	H	1.307598	-0.263397	0.062418
C46	C	1.234244	0.130378	0.464754
H47	H	1.229920	0.134741	0.389755
H48	H	1.217395	0.066810	0.483111
H49	H	1.297833	0.147121	0.483133
H50	H	1.061294	0.303783	0.519307
