data_functionalizedCrystal
_audit_creation_method	'MofGen! by Chris Wilmer'
_symmetry_space_group_name_H-M	'P1'
_symmetry_Int_Tables_number	1
_symmetry_cell_setting	triclinic
loop_
_symmetry_equiv_pos_as_xyz
  x,y,z
_cell_length_a	15.625020
_cell_length_b	19.188930
_cell_length_c	14.750779
_cell_angle_alpha	77.396187
_cell_angle_beta	85.134135
_cell_angle_gamma	83.713990
loop_
_atom_site_label
_atom_site_type_symbol
_atom_site_fract_x
_atom_site_fract_y
_atom_site_fract_z
O1	O	1.083516	0.177769	-0.457068
O2	O	0.841687	0.172675	-0.372878
O3	O	0.969585	0.074049	-0.417385
O4	O	0.955619	0.276395	-0.412561
O5	O	1.005740	0.046172	-0.270317
O6	O	0.877842	0.144798	-0.225809
O7	O	1.119671	0.149892	-0.310000
Zn8	Zn	1.004497	0.142919	-0.244554
Zn9	Zn	0.956861	0.179648	-0.438324
O10	O	0.991774	0.248518	-0.265492
C11	C	0.828826	0.156203	-0.288572
C12	C	0.736638	0.148647	-0.256477
C13	C	0.626409	0.122801	-0.131080
C14	C	0.713031	0.129904	-0.161247
C15	C	0.673625	0.160292	-0.321578
C16	C	0.586999	0.153189	-0.291425
C17	C	0.563398	0.134444	-0.196174
C18	C	0.523987	0.164831	-0.356519
C19	C	0.437368	0.157732	-0.326367
C20	C	0.413759	0.138991	-0.231121
C21	C	0.476778	0.127345	-0.166022
C22	C	0.547589	0.183581	-0.451769
C23	C	0.484578	0.195224	-0.516863
C24	C	0.397958	0.188120	-0.486712
C25	C	0.374349	0.169378	-0.391466
C26	C	0.334939	0.199765	-0.551811
C27	C	0.248319	0.192666	-0.521659
C28	C	0.287729	0.162279	-0.361313
C29	C	0.987211	0.034067	-0.343691
C30	C	0.985856	-0.043533	-0.343211
C31	C	1.060900	-0.083235	-0.369333
C32	C	1.059622	-0.156145	-0.368903
C33	C	0.983300	-0.189353	-0.342333
C34	C	0.908244	-0.149640	-0.316213
C35	C	0.909522	-0.076730	-0.316652
N36	N	0.937264	-0.310905	-0.271972
N37	N	0.936056	-0.380167	-0.271555
C38	C	0.979444	-0.409026	-0.341010
N39	N	1.024101	-0.366010	-0.410891
N40	N	1.025313	-0.296742	-0.411305
C41	C	0.981905	-0.268411	-0.341854
C42	C	1.053107	-0.527786	-0.366668
C43	C	1.051824	-0.600696	-0.366243
C44	C	0.900446	-0.594191	-0.313544
C45	C	0.901729	-0.521281	-0.313978
C46	C	0.978063	-0.488084	-0.340537
C47	C	1.132532	0.166364	-0.394307
C48	C	1.224718	0.173922	-0.426408
C49	C	0.974147	0.288500	-0.339188
C50	C	0.975501	0.366102	-0.339674
N51	N	1.037013	0.117852	-0.112314
N52	N	0.924352	0.204710	-0.570566
C53	C	0.833538	0.274687	0.310312
C54	C	0.856330	0.257127	0.402880
C55	C	0.969606	0.169830	0.363423
C56	C	0.946821	0.187380	0.270851
C57	C	0.878788	0.239810	0.244303
C58	C	0.992071	0.152503	0.204842
C59	C	0.969291	0.170055	0.112277
C60	C	0.901261	0.222484	0.085721
C61	C	0.856007	0.257362	0.151738
C62	C	1.060108	0.100078	0.231390
C63	C	1.105357	0.065201	0.165382
C64	C	1.082574	0.082749	0.072816
C65	C	1.014544	0.135177	0.046260
C66	C	1.127827	0.047871	0.006799
C67	C	1.105047	0.065423	-0.085766
C68	C	0.991764	0.152729	-0.046305
H69	H	0.503806	0.210488	-0.594417
C70	C	0.916919	0.210393	-0.075516
H71	H	0.909831	0.215844	-0.140097
H72	H	0.929484	0.254717	-0.063434
H73	H	0.865261	0.196179	-0.041045
H74	H	0.764334	0.120426	-0.108231
C75	C	1.142176	-0.199828	-0.397631
H76	H	1.187820	-0.169615	-0.413506
H77	H	1.132222	-0.218680	-0.449840
H78	H	1.157424	-0.238132	-0.347256
H79	H	1.141895	0.037023	-0.139513
H80	H	0.354167	0.215034	-0.629363
C81	C	0.261776	0.141548	-0.256546
H82	H	0.201170	0.138952	-0.247918
H83	H	0.277565	0.176668	-0.226189
H84	H	0.290579	0.096193	-0.230905
H85	H	0.692853	0.175556	-0.399132
H86	H	0.618121	0.189365	-0.476315
H87	H	1.123057	-0.056210	-0.390962
H88	H	0.197012	0.202149	-0.574665
C89	C	0.758700	0.332357	0.281104
H90	H	0.735012	0.350619	0.333672
H91	H	0.715344	0.311758	0.257004
H92	H	0.779585	0.370283	0.234621
C93	C	1.137066	-0.491264	-0.395892
H94	H	1.181576	-0.525352	-0.411401
H95	H	1.153321	-0.472688	-0.345871
H96	H	1.128100	-0.453225	-0.448449
C97	C	1.134378	-0.644369	-0.394977
H98	H	1.180021	-0.614154	-0.410847
H99	H	1.124426	-0.663217	-0.447190
H100	H	1.149628	-0.682677	-0.344606
H101	H	0.838302	-0.621227	-0.291914
H102	H	0.846101	-0.176683	-0.294581
C103	C	1.202662	-0.009795	0.036010
H104	H	1.209746	-0.015254	0.100592
H105	H	1.254318	0.004404	0.001536
H106	H	1.190078	-0.054120	0.023934
C107	C	0.826971	-0.033058	-0.287909
H108	H	0.781332	-0.063275	-0.272018
H109	H	0.811716	0.005252	-0.338268
H110	H	0.836936	-0.014216	-0.235690
C111	C	0.819182	-0.477609	-0.285230
H112	H	0.773545	-0.507828	-0.269336
H113	H	0.803924	-0.439301	-0.335588
H114	H	0.829148	-0.458766	-0.233012
C115	C	0.781169	0.315032	0.122530
H116	H	0.757482	0.333294	0.175098
H117	H	0.737813	0.294433	0.098430
H118	H	0.802054	0.352957	0.076047
H119	H	0.882717	0.236776	0.010347
H120	H	0.343227	0.133215	-0.206572
C121	C	0.806513	0.295461	0.475501
H122	H	0.762720	0.329185	0.446434
H123	H	0.845131	0.319695	0.501272
H124	H	0.780931	0.261139	0.523599
C125	C	1.044435	0.112158	0.392633
H126	H	1.051519	0.106696	0.457217
H127	H	1.096095	0.126354	0.358162
H128	H	1.031845	0.067836	0.380555
C129	C	1.180187	0.007529	0.194592
H130	H	1.187271	0.002067	0.259176
H131	H	1.231846	0.021725	0.160120
H132	H	1.167596	-0.036793	0.182513
H133	H	0.607191	0.107546	-0.053517
C134	C	0.450812	0.106723	-0.061248
H135	H	0.500744	0.100807	-0.026793
H136	H	0.424319	0.063067	-0.048403
H137	H	0.411359	0.143586	-0.043907
H138	H	1.078656	0.085791	0.306763
