data_functionalizedCrystal
_audit_creation_method	'MofGen! by Chris Wilmer'
_symmetry_space_group_name_H-M	'P1'
_symmetry_Int_Tables_number	1
_symmetry_cell_setting	triclinic
loop_
_symmetry_equiv_pos_as_xyz
  x,y,z
_cell_length_a	16.120490
_cell_length_b	16.120444
_cell_length_c	12.759393
_cell_angle_alpha	92.863624
_cell_angle_beta	87.082392
_cell_angle_gamma	90.165174
loop_
_atom_site_label
_atom_site_type_symbol
_atom_site_fract_x
_atom_site_fract_y
_atom_site_fract_z
Zn1	Zn	1.254489	-0.395618	-0.699338
Zn2	Zn	1.754489	0.104382	-0.199338
Zn3	Zn	1.247325	-0.534692	-0.532072
Zn4	Zn	1.747325	-0.034692	-0.032072
Zn5	Zn	1.115423	-0.388593	-0.514348
Zn6	Zn	1.615423	0.111407	-0.014348
Zn7	Zn	1.108339	-0.527563	-0.698383
Zn8	Zn	1.608339	-0.027563	-0.198383
O9	O	1.181394	-0.461616	-0.611035
O10	O	1.681394	0.038384	-0.111035
O11	O	1.369905	-0.419989	-0.684967
O12	O	1.869905	0.080011	-0.184967
O13	O	1.229794	-0.515355	-0.382701
O14	O	1.729794	-0.015355	0.117299
O15	O	1.139834	-0.273162	-0.531869
O16	O	1.639834	0.226838	-0.031869
O17	O	1.364641	-0.522166	-0.562078
O18	O	1.864641	-0.022166	-0.062078
O19	O	1.242005	-0.278323	-0.667780
O20	O	1.742005	0.221677	-0.167780
O21	O	1.132887	-0.408017	-0.369678
O22	O	1.632887	0.091983	0.130322
O23	O	0.998118	-0.401104	-0.530942
O24	O	1.498118	0.098896	-0.030942
O25	O	1.127760	-0.510017	-0.845530
O26	O	1.627760	-0.010017	-0.345530
O27	O	0.992913	-0.503205	-0.666152
O28	O	1.492913	-0.003205	-0.166152
O29	O	1.235136	-0.413077	-0.846232
O30	O	1.735136	0.086923	-0.346232
O31	O	1.222925	-0.650109	-0.561152
O32	O	1.722925	-0.150109	-0.061152
O33	O	1.120813	-0.644871	-0.683339
O34	O	1.620813	-0.144871	-0.183339
C35	C	0.965343	-0.450619	-0.596521
C36	C	1.465343	0.049381	-0.096521
C37	C	0.872914	-0.445935	-0.590338
C38	C	1.372914	0.054065	-0.090338
C39	C	1.170345	-0.677663	-0.624090
C40	C	1.670345	-0.177663	-0.124090
C41	C	1.165694	-0.770092	-0.629715
C42	C	1.665694	-0.270092	-0.129715
C43	C	0.659945	-0.485909	-0.643109
C44	C	1.159945	0.014091	-0.143109
C45	C	0.703691	-0.437390	-0.579048
C46	C	1.203691	0.062610	-0.079048
C47	C	0.797855	-0.442146	-0.585332
C48	C	1.297855	0.057854	-0.085332
C49	C	0.565772	-0.481154	-0.636827
C50	C	1.065772	0.018846	-0.136827
C51	C	1.205723	-0.983072	-0.582095
C52	C	1.705723	-0.483072	-0.082095
C53	C	1.157219	-0.939317	-0.639997
C54	C	1.657219	-0.439317	-0.139997
C55	C	1.161936	-0.845152	-0.634274
C56	C	1.661936	-0.345152	-0.134274
C57	C	1.201007	-1.077246	-0.587816
C58	C	1.701007	-0.577246	-0.087816
C59	C	1.398289	-0.472657	-0.625606
C60	C	1.898289	0.027343	-0.125606
C61	C	1.490717	-0.477361	-0.631816
C62	C	1.990717	0.022639	-0.131816
C63	C	1.181457	-0.461535	-0.885067
C64	C	1.681457	0.038465	-0.385067
C65	C	1.181483	-0.461501	-1.001844
C66	C	1.681483	0.038499	-0.501844
C67	C	1.192509	-0.244727	-0.597954
C68	C	1.692509	0.255273	-0.097954
C69	C	1.197245	-0.152302	-0.592380
C70	C	1.697245	0.347698	-0.092380
C71	C	1.237402	-0.411020	-1.057073
C72	C	1.737402	0.088980	-0.557073
C73	C	1.237423	-0.410991	-1.166797
C74	C	1.737423	0.089009	-0.666797
C75	C	1.125605	-0.511931	-1.166052
C76	C	1.625605	-0.011931	-0.666052
C77	C	1.125580	-0.511955	-1.056330
C78	C	1.625580	-0.011955	-0.556330
C79	C	1.301961	-0.352745	-1.057504
C80	C	1.801961	0.147255	-0.557504
C81	C	1.301983	-0.352716	-1.167228
C82	C	1.801983	0.147284	-0.667228
C83	C	1.181383	-0.461639	-0.338068
C84	C	1.681383	0.038361	0.161932
C85	C	1.181529	-0.461448	-0.221289
C86	C	1.681529	0.038552	0.278711
H87	H	0.670422	-0.392280	-0.519485
H88	H	1.170422	0.107720	-0.019485
O89	O	1.259411	-0.943266	-0.517846
O90	O	1.759411	-0.443266	-0.017846
C91	C	1.252230	-0.856747	-0.526378
C92	C	1.752230	-0.356747	-0.026378
H93	H	1.188618	-0.841771	-0.555722
H94	H	1.688618	-0.341771	-0.055722
H95	H	1.259516	-0.823993	-0.446101
H96	H	1.759516	-0.323993	0.053899
H97	H	1.302748	-0.834515	-0.584209
H98	H	1.802748	-0.334515	-0.084209
H99	H	1.080043	-0.553059	-1.011366
H100	H	1.580043	-0.053059	-0.511366
H101	H	1.080089	-0.553007	-1.210428
H102	H	1.580089	-0.053007	-0.710428
H103	H	1.112150	-0.972579	-0.693866
H104	H	1.612150	-0.472579	-0.193866
H105	H	0.693212	-0.531016	-0.702666
H106	H	1.193212	-0.031016	-0.202666
O107	O	1.285165	-0.274895	-1.016008
O108	O	1.785165	0.225105	-0.516008
C109	C	1.206612	-0.249607	-1.046318
C110	C	1.706612	0.250393	-0.546318
H111	H	1.167677	-0.306699	-1.066950
H112	H	1.667677	0.193301	-0.566950
H113	H	1.173911	-0.211593	-0.978743
H114	H	1.673911	0.288407	-0.478743
H115	H	1.214725	-0.210079	-1.117769
H116	H	1.714725	0.289921	-0.617769
O117	O	1.373516	-0.384104	-1.023585
O118	O	1.873516	0.115896	-0.523585
C119	C	1.383913	-0.466714	-1.063694
C120	C	1.883913	0.033286	-0.563694
H121	H	1.347276	-0.476731	-1.137377
H122	H	1.847276	0.023269	-0.637377
H123	H	1.452575	-0.479116	-1.084095
H124	H	1.952575	0.020884	-0.584095
H125	H	1.360297	-0.511095	-1.002046
H126	H	1.860297	-0.011095	-0.502046
O127	O	1.278077	-0.278382	-1.201631
O128	O	1.778077	0.221618	-0.701631
C129	C	1.206561	-0.289587	-1.259939
C130	C	1.706561	0.210413	-0.759939
H131	H	1.172879	-0.348481	-1.235883
H132	H	1.672879	0.151519	-0.735883
H133	H	1.163539	-0.233912	-1.243757
H134	H	1.663539	0.266088	-0.743757
H135	H	1.225432	-0.295427	-1.347322
H136	H	1.725432	0.204573	-0.847322
O137	O	1.377696	-0.377289	-1.209298
O138	O	1.877696	0.122711	-0.709298
C139	C	1.368643	-0.449545	-1.274659
C140	C	1.868643	0.050455	-0.774659
H141	H	1.302407	-0.453199	-1.301879
H142	H	1.802407	0.046801	-0.801879
H143	H	1.414049	-0.447279	-1.345937
H144	H	1.914049	0.052721	-0.845937
H145	H	1.382155	-0.506586	-1.229017
H146	H	1.882155	-0.006586	-0.729017
