data_functionalizedCrystal
_audit_creation_method	'MofGen! by Chris Wilmer'
_symmetry_space_group_name_H-M	'P1'
_symmetry_Int_Tables_number	1
_symmetry_cell_setting	triclinic
loop_
_symmetry_equiv_pos_as_xyz
  x,y,z
_cell_length_a	14.519710
_cell_length_b	16.109301
_cell_length_c	14.586319
_cell_angle_alpha	90.005214
_cell_angle_beta	89.997436
_cell_angle_gamma	96.429187
loop_
_atom_site_label
_atom_site_type_symbol
_atom_site_fract_x
_atom_site_fract_y
_atom_site_fract_z
O1	O	1.223634	-0.108984	-0.076223
O2	O	1.723634	0.391016	0.423777
O3	O	0.955130	-0.121819	-0.076230
O4	O	1.455130	0.378181	0.423770
O5	O	1.096758	0.005617	-0.076217
O6	O	1.596758	0.505617	0.423783
O7	O	1.082006	-0.236420	-0.076236
O8	O	1.582006	0.263580	0.423764
O9	O	1.096748	0.005618	0.076264
O10	O	1.596748	0.505618	0.576264
O11	O	0.955120	-0.121817	0.076251
O12	O	1.455120	0.378183	0.576251
O13	O	1.223624	-0.108983	0.076257
O14	O	1.723624	0.391017	0.576257
Cu15	Cu	1.089371	-0.115400	0.090177
Cu16	Cu	1.589371	0.384600	0.590177
Cu17	Cu	1.089383	-0.115402	-0.090149
Cu18	Cu	1.589383	0.384598	0.409851
O19	O	1.081996	-0.236418	0.076245
O20	O	1.581996	0.263582	0.576245
C21	C	0.920766	-0.121220	0.000010
C22	C	1.420766	0.378780	0.500010
C23	C	0.818389	-0.119427	0.000008
C24	C	1.318389	0.380573	0.500008
C25	C	1.096156	0.036593	0.000024
C26	C	1.596156	0.536593	0.500024
C27	C	1.094364	0.128892	0.000025
C28	C	1.594364	0.628892	0.500025
C29	C	1.257988	-0.109582	0.000016
C30	C	1.757988	0.390418	0.500016
C31	C	1.360365	-0.111374	0.000012
C32	C	1.860365	0.388626	0.500012
C33	C	1.735247	-0.117973	0.000011
C34	C	2.235247	0.382027	0.500011
C35	C	1.630943	-0.116140	0.000011
C36	C	2.130943	0.383860	0.500011
C37	C	1.547809	-0.114674	0.000011
C38	C	2.047809	0.385326	0.500011
C39	C	1.443499	-0.112841	0.000012
C40	C	1.943499	0.387159	0.500012
C41	C	1.082599	-0.267395	0.000002
C42	C	1.582599	0.232605	0.500002
C43	C	1.084390	-0.359693	-0.000005
C44	C	1.584390	0.140307	0.499995
N45	N	1.089370	-0.115397	0.217009
N46	N	1.589370	0.384603	0.717009
C47	C	1.174238	0.351026	0.000012
C48	C	1.674238	0.851026	0.500012
C49	C	1.172547	0.437749	0.000005
C50	C	1.672547	0.937749	0.500005
C51	C	1.004510	0.418166	0.000004
C52	C	1.504510	0.918166	0.500004
C53	C	1.006202	0.331444	0.000005
C54	C	1.506202	0.831444	0.500005
C55	C	1.091068	0.297877	0.000014
C56	C	1.591068	0.797877	0.500014
C57	C	1.087686	0.471322	0.000005
C58	C	1.587686	0.971322	0.500005
C59	C	1.085852	0.565351	-0.000003
C60	C	1.585852	1.065351	0.499997
C61	C	1.092902	0.203842	0.000021
C62	C	1.592902	0.703842	0.500021
N63	N	1.089392	-0.115397	-0.216981
N64	N	1.589392	0.384603	0.283019
C65	C	1.152104	-0.058988	0.452021
C66	C	1.652104	0.441012	0.952021
C67	C	1.152106	-0.058986	0.548002
C68	C	1.652106	0.441014	1.048002
C69	C	1.026651	-0.171809	0.548000
C70	C	1.526651	0.328191	1.048000
C71	C	1.026645	-0.171807	0.452021
C72	C	1.526645	0.328193	0.952021
C73	C	1.089376	-0.115397	0.404033
C74	C	1.589376	0.384603	0.904033
C75	C	1.089385	-0.115398	0.595994
C76	C	1.589385	0.384602	1.095994
C77	C	1.089388	-0.115396	0.700061
C78	C	1.589388	0.384604	1.200061
C79	C	1.089373	-0.115398	0.299960
C80	C	1.589373	0.384602	0.799960
H81	H	1.243341	0.323699	0.000018
H82	H	1.743341	0.823699	0.500018
O83	O	0.959009	-0.232662	0.599760
O84	O	1.459009	0.267338	1.099760
H85	H	0.887119	-0.221929	0.581359
H86	H	1.387119	0.278071	1.081359
O87	O	1.262256	0.495070	0.000013
O88	O	1.762256	0.995070	0.500013
H89	H	1.265519	0.535038	-0.062141
H90	H	1.765519	1.035038	0.437859
H91	H	0.935415	0.445507	-0.000001
H92	H	1.435415	0.945507	0.499999
O93	O	0.958989	-0.232653	0.400252
O94	O	1.458989	0.267347	0.900252
H95	H	0.915379	-0.271888	0.449743
H96	H	1.415379	0.228112	0.949743
O97	O	1.219740	0.001863	0.400252
O98	O	1.719740	0.501863	0.900252
H99	H	1.291633	-0.008857	0.418659
H100	H	1.791633	0.491143	0.918659
O101	O	0.916494	0.274109	0.000017
O102	O	1.416494	0.774109	0.500017
H103	H	0.857197	0.312018	0.000028
H104	H	1.357197	0.812018	0.500028
O105	O	1.219773	0.001844	0.599764
O106	O	1.719773	0.501844	1.099764
H107	H	1.263397	0.041060	0.550267
H108	H	1.763397	0.541060	1.050267
