data_functionalizedCrystal
_audit_creation_method	'MofGen! by Chris Wilmer'
_symmetry_space_group_name_H-M	'P1'
_symmetry_Int_Tables_number	1
_symmetry_cell_setting	triclinic
loop_
_symmetry_equiv_pos_as_xyz
  x,y,z
_cell_length_a	18.101398
_cell_length_b	10.686285
_cell_length_c	10.686551
_cell_angle_alpha	80.915481
_cell_angle_beta	85.597251
_cell_angle_gamma	85.626453
loop_
_atom_site_label
_atom_site_type_symbol
_atom_site_fract_x
_atom_site_fract_y
_atom_site_fract_z
Zn1	Zn	1.183135	-0.450316	-0.679229
Zn2	Zn	1.183076	-0.678896	-0.450726
Zn3	Zn	1.050462	-0.466653	-0.466966
Zn4	Zn	1.068115	-0.662498	-0.662908
O5	O	1.121197	-0.564591	-0.564957
O6	O	1.286763	-0.480663	-0.648951
O7	O	1.158071	-0.664441	-0.275249
O8	O	1.060699	-0.286862	-0.508749
O9	O	1.286719	-0.648600	-0.481072
O10	O	1.158174	-0.274860	-0.664698
O11	O	1.060641	-0.508507	-0.287180
O12	O	0.949168	-0.492607	-0.492924
O13	O	1.090785	-0.620653	-0.842705
O14	O	0.962138	-0.636494	-0.636882
O15	O	1.175290	-0.464763	-0.854696
O16	O	1.175188	-0.854344	-0.465246
O17	O	1.090727	-0.842297	-0.621136
C18	C	1.134888	-0.894374	-0.539686
C19	C	1.140815	-1.035454	-0.528917
C20	C	0.928782	-0.564544	-0.564895
C21	C	0.846468	-0.564553	-0.564896
C22	C	0.547385	-0.564624	-0.564997
C23	C	0.570525	-0.473567	-0.474938
C24	C	0.656137	-0.473863	-0.474501
C25	C	0.695763	-0.564587	-0.564947
C26	C	0.668716	-0.701104	-0.518169
C27	C	0.583020	-0.700608	-0.517532
C28	C	0.583170	-0.520309	-0.701974
C29	C	0.668666	-0.517388	-0.701468
C30	C	0.779621	-0.564575	-0.564920
C31	C	0.463527	-0.564645	-0.565020
C32	C	1.314364	-0.564638	-0.565021
C33	C	1.396680	-0.564658	-0.565048
C34	C	1.135014	-0.539056	-0.896046
C35	C	1.140901	-0.528175	-1.037136
C36	C	1.107474	-0.233517	-0.590356
C37	C	1.101626	-0.092433	-0.601179
C38	C	1.107473	-0.589934	-0.235164
C39	C	1.101714	-0.600458	-0.094102
H40	H	1.178896	-1.094609	-0.458797
H41	H	1.063662	-0.670670	-1.034933
C42	C	1.192316	-0.433319	-1.117065
C43	C	1.198336	-0.422197	-1.262874
C44	C	1.249750	-0.327343	-1.342802
C45	C	1.295144	-0.243612	-1.276921
C46	C	1.289126	-0.254731	-1.131104
C47	C	1.237712	-0.349585	-1.051176
H48	H	1.164731	-0.484183	-1.311650
H49	H	1.254205	-0.319113	-1.450745
H50	H	1.333204	-0.173395	-1.336089
H51	H	1.322731	-0.192745	-1.082329
H52	H	1.233258	-0.357815	-0.943233
H53	H	1.063542	-1.033287	-0.671286
H54	H	0.695099	-0.771212	-0.581262
H55	H	0.568942	-0.586506	-0.769202
C56	C	0.680253	-0.337540	-0.515679
C57	C	0.621563	-0.227644	-0.549193
C58	C	0.645674	-0.091314	-0.590366
C59	C	0.728476	-0.064880	-0.598024
C60	C	0.787171	-0.174780	-0.564509
C61	C	0.763060	-0.311110	-0.523337
H62	H	0.560264	-0.247209	-0.543525
H63	H	0.602224	-0.009959	-0.615175
H64	H	0.746324	0.036040	-0.628502
H65	H	0.848470	-0.155214	-0.570177
H66	H	0.806510	-0.392464	-0.498527
H67	H	0.546738	-0.372373	-0.505204
H68	H	0.545785	-0.503389	-0.374246
C69	C	0.679451	-0.514564	-0.337669
C70	C	0.731963	-0.633756	-0.305485
C71	C	0.755278	-0.674462	-0.168647
C72	C	0.726082	-0.595975	-0.063995
C73	C	0.673568	-0.476775	-0.096177
C74	C	0.650252	-0.436069	-0.233014
H75	H	0.753578	-0.691864	-0.382957
H76	H	0.794153	-0.762702	-0.144824
H77	H	0.743342	-0.626108	0.037300
H78	H	0.651952	-0.418668	-0.018705
H79	H	0.611377	-0.347829	-0.256837
H80	H	0.560126	-0.736981	-0.417091
C81	C	0.563130	-0.796127	-0.601506
C82	C	0.625205	-0.872617	-0.668926
C83	C	0.605318	-0.968144	-0.752886
C84	C	0.523357	-0.987182	-0.769427
C85	C	0.461277	-0.910690	-0.702005
C86	C	0.481163	-0.815163	-0.618045
H87	H	0.685882	-0.858526	-0.656683
H88	H	0.651275	-1.024769	-0.802796
H89	H	0.508636	-1.057897	-0.831579
H90	H	0.400600	-0.924781	-0.714247
H91	H	0.435207	-0.758539	-0.568135
C92	C	0.693830	-0.750812	-0.383856
C93	C	0.744633	-0.873334	-0.360203
C94	C	0.769744	-0.923035	-0.225888
C95	C	0.744052	-0.850213	-0.115225
C96	C	0.693247	-0.727684	-0.138875
C97	C	0.668136	-0.677983	-0.273190
H98	H	0.763654	-0.927248	-0.442126
H99	H	0.807354	-1.013740	-0.208382
H100	H	0.762641	-0.887005	-0.015797
H101	H	0.674226	-0.673770	-0.056952
H102	H	0.630526	-0.587278	-0.290696
C103	C	0.692134	-0.381599	-0.748868
C104	C	0.774946	-0.354519	-0.762303
C105	C	0.798419	-0.218730	-0.809693
C106	C	0.739079	-0.110019	-0.843648
C107	C	0.656262	-0.137096	-0.830213
C108	C	0.632790	-0.272886	-0.782823
H109	H	0.818878	-0.434996	-0.737167
H110	H	0.859726	-0.198686	-0.819638
H111	H	0.756455	-0.009500	-0.878729
H112	H	0.612331	-0.056620	-0.855350
H113	H	0.571482	-0.292929	-0.772879
H114	H	0.558974	-0.421953	-0.742534
H115	H	0.696042	-0.578053	-0.772992
