data_functionalizedCrystal
_audit_creation_method	'MofGen! by Chris Wilmer'
_symmetry_space_group_name_H-M	'P1'
_symmetry_Int_Tables_number	1
_symmetry_cell_setting	triclinic
loop_
_symmetry_equiv_pos_as_xyz
  x,y,z
_cell_length_a	19.077105
_cell_length_b	12.645330
_cell_length_c	19.076919
_cell_angle_alpha	87.723750
_cell_angle_beta	89.923776
_cell_angle_gamma	87.714233
loop_
_atom_site_label
_atom_site_type_symbol
_atom_site_fract_x
_atom_site_fract_y
_atom_site_fract_z
Zn1	Zn	1.058309	-0.512860	0.440444
Zn2	Zn	1.558309	-0.012860	0.940444
Zn3	Zn	1.062962	-0.683311	0.322946
Zn4	Zn	1.562962	-0.183311	0.822946
Zn5	Zn	0.945526	-0.498659	0.318237
Zn6	Zn	1.445526	0.001341	0.818237
Zn7	Zn	0.940784	-0.682672	0.435699
Zn8	Zn	1.440784	-0.182672	0.935699
O9	O	1.001896	-0.594376	0.379332
O10	O	1.501896	-0.094376	0.879332
O11	O	1.157259	-0.541682	0.428815
O12	O	1.657259	-0.041682	0.928815
O13	O	1.051316	-0.653141	0.223990
O14	O	1.551316	-0.153141	0.723990
O15	O	0.960524	-0.352199	0.334463
O16	O	1.460524	0.147801	0.834463
O17	O	1.160677	-0.666911	0.342490
O18	O	1.660677	-0.166911	0.842490
O19	O	1.043386	-0.362632	0.424248
O20	O	1.543386	0.137368	0.924248
O21	O	0.965036	-0.517478	0.220530
O22	O	1.465036	-0.017478	0.720530
O23	O	0.846565	-0.516858	0.329862
O24	O	1.346565	-0.016858	0.829862
O25	O	0.952442	-0.665822	0.534660
O26	O	1.452442	-0.165822	1.034660
O27	O	0.843081	-0.652051	0.416161
O28	O	1.343081	-0.152051	0.916161
O29	O	1.038788	-0.541062	0.538146
O30	O	1.538788	-0.041062	1.038146
O31	O	1.046718	-0.831570	0.337888
O32	O	1.546718	-0.331570	0.837888
O33	O	0.956954	-0.831101	0.420727
O34	O	1.456954	-0.331101	0.920727
C35	C	0.819326	-0.582845	0.371986
C36	C	1.319326	-0.082845	0.871986
C37	C	0.741222	-0.577939	0.368860
C38	C	1.241222	-0.077939	0.868860
C39	C	0.702735	-0.646120	0.412251
C40	C	1.202735	-0.146120	0.912251
C41	C	0.629348	-0.641496	0.409318
C42	C	1.129348	-0.141496	0.909318
C43	C	0.594448	-0.568695	0.362988
C44	C	1.094448	-0.068695	0.862988
C45	C	0.632940	-0.500507	0.319594
C46	C	1.132940	-0.000507	0.819594
C47	C	0.706326	-0.505126	0.322532
C48	C	1.206326	-0.005126	0.822532
C49	C	0.375159	-0.547316	0.349394
C50	C	0.875159	-0.047316	0.849394
C51	C	0.301768	-0.542704	0.346458
C52	C	0.801768	-0.042704	0.846458
C53	C	0.298181	-0.683692	0.436183
C54	C	0.798181	-0.183692	0.936183
C55	C	0.371569	-0.688309	0.439113
C56	C	0.871569	-0.188309	0.939113
C57	C	0.410054	-0.620117	0.395722
C58	C	0.910054	-0.120117	0.895722
N59	N	0.519434	-0.563970	0.359986
N60	N	1.019434	-0.063970	0.859986
N61	N	0.485066	-0.624839	0.398728
N62	N	0.985066	-0.124839	0.898728
C63	C	1.001845	-0.869801	0.379320
C64	C	1.501845	-0.369801	0.879320
C65	C	1.001886	-0.987635	0.379341
C66	C	1.501886	-0.487635	0.879341
C67	C	0.945633	-1.154972	0.431631
C68	C	1.445633	-0.654972	0.931631
C69	C	0.945363	-1.032385	0.431445
C70	C	1.445363	-0.532385	0.931445
C71	C	0.984820	-1.026659	0.304483
C72	C	1.484820	-0.526659	0.804483
C73	C	0.984477	-1.149256	0.304800
C74	C	1.484477	-0.649256	0.804800
C75	C	1.075561	-1.160522	0.401321
C76	C	1.575561	-0.660522	0.901321
C77	C	1.075039	-1.037980	0.402922
C78	C	1.575039	-0.537980	0.902922
C79	C	1.185178	-0.605952	0.386707
C80	C	1.685178	-0.105952	0.886707
C81	C	1.263281	-0.610885	0.389850
C82	C	1.763281	-0.110885	0.889850
C83	C	0.994567	-0.604955	0.562612
C84	C	1.494567	-0.104955	1.062612
C85	C	0.991444	-0.609463	0.640716
C86	C	1.491444	-0.109463	1.140716
C87	C	1.001965	-0.317876	0.379360
C88	C	1.501965	0.182124	0.879360
C89	C	1.001995	-0.200049	0.379372
C90	C	1.501995	0.299951	0.879372
C91	C	1.009236	-0.583764	0.196766
C92	C	1.509236	-0.083764	0.696766
C93	C	1.012495	-0.578966	0.118668
C94	C	1.512495	-0.078966	0.618668
C95	C	1.034930	-0.546628	0.679225
C96	C	1.534930	-0.046628	1.179225
C97	C	1.031987	-0.550859	0.752611
C98	C	1.531987	-0.050859	1.252611
C99	C	0.985561	-0.617932	0.787487
C100	C	1.485561	-0.117932	1.287487
C101	C	0.942070	-0.680769	0.748972
C102	C	1.442070	-0.180769	1.248972
C103	C	0.945010	-0.676531	0.675587
C104	C	1.445010	-0.176531	1.175587
C105	C	0.971944	-0.637565	1.006769
C106	C	1.471944	-0.137565	1.506769
C107	C	0.969009	-0.641800	1.080159
C108	C	1.469009	-0.141800	1.580159
C109	C	1.058925	-0.511889	1.083793
C110	C	1.558925	-0.011889	1.583793
C111	C	1.061864	-0.507662	1.010407
C112	C	1.561864	-0.007662	1.510407
C113	C	1.018371	-0.570495	0.971898
C114	C	1.518371	-0.070495	1.471898
N115	N	0.982553	-0.622261	0.862499
N116	N	1.482553	-0.122261	1.362499
N117	N	1.021376	-0.566159	0.896887
N118	N	1.521376	-0.066159	1.396887
H119	H	0.273354	-0.483409	0.308735
H120	H	0.773354	0.016591	0.808735
H121	H	1.023908	-1.178854	0.264375
H122	H	1.523908	-0.678854	0.764375
F123	F	0.925655	-0.704438	0.965794
F124	F	1.425655	-0.204438	1.465794
H125	H	1.117515	-1.189748	0.363295
H126	H	1.617515	-0.689748	0.863295
H127	H	0.406485	-0.491797	0.314057
H128	H	0.906485	0.008203	0.814057
H129	H	0.955696	-1.006214	0.486858
H130	H	1.455696	-0.506214	0.986858
F131	F	0.958974	-1.198628	0.504292
F132	F	1.458974	-0.698628	1.004292
F133	F	1.096671	-1.206377	0.471663
F134	F	1.596671	-0.706377	0.971663
F135	F	1.084347	-0.475245	0.642115
F136	F	1.584347	0.024755	1.142115
H137	H	0.931710	-0.991707	0.285967
H138	H	1.431710	-0.491707	0.785967
H139	H	0.604518	-0.441227	0.281874
H140	H	1.104518	0.058773	0.781874
H141	H	0.266839	-0.739209	0.471510
H142	H	0.766839	-0.239209	0.971510
F143	F	1.105209	-0.445020	1.124781
F144	F	1.605209	0.054980	1.624781
F145	F	0.919591	-0.713187	1.117274
F146	F	1.419591	-0.213187	1.617274
H147	H	1.067399	-0.499695	0.783962
H148	H	1.567399	0.000305	1.283962
F149	F	1.036947	-0.988531	0.252025
F150	F	1.536947	-0.488531	0.752025
F151	F	0.747286	-0.432557	0.276350
F152	F	1.247286	0.067443	0.776350
F153	F	1.111277	-0.436275	0.973295
F154	F	1.611277	0.063725	1.473295
H155	H	0.904267	-0.735377	0.777373
H156	H	1.404267	-0.235377	1.277373
H157	H	0.909592	-0.727687	0.644233
H158	H	1.409592	-0.227687	1.144233
F159	F	0.874711	-1.189925	0.412557
F160	F	1.374711	-0.689925	0.912557
H161	H	0.731145	-0.705405	0.449976
H162	H	1.231145	-0.205405	0.949976
H163	H	0.598015	-0.697017	0.444651
H164	H	1.098015	-0.197017	0.944651
H165	H	0.890765	-0.998945	0.416668
H166	H	1.390765	-0.498945	0.916668
H167	H	0.399979	-0.747594	0.476839
H168	H	0.899979	-0.247594	0.976839
F169	F	0.914302	-1.181063	0.280949
F170	F	1.414302	-0.681063	0.780949
F171	F	1.091935	-1.005268	0.474951
F172	F	1.591935	-0.505268	0.974951
H173	H	1.119004	-1.007870	0.367868
H174	H	1.619004	-0.507870	0.867868
