data_functionalizedCrystal
_audit_creation_method	'MofGen! by Chris Wilmer'
_symmetry_space_group_name_H-M	'P1'
_symmetry_Int_Tables_number	1
_symmetry_cell_setting	triclinic
loop_
_symmetry_equiv_pos_as_xyz
  x,y,z
_cell_length_a	12.645331
_cell_length_b	18.050590
_cell_length_c	12.645323
_cell_angle_alpha	90.030576
_cell_angle_beta	90.022676
_cell_angle_gamma	90.017531
loop_
_atom_site_label
_atom_site_type_symbol
_atom_site_fract_x
_atom_site_fract_y
_atom_site_fract_z
Zn1	Zn	1.620725	-0.295674	0.599404
Zn2	Zn	1.620604	-0.419873	0.422127
Zn3	Zn	1.443439	-0.295699	0.422149
Zn4	Zn	1.443419	-0.419824	0.599342
O5	O	1.532047	-0.357767	0.510755
O6	O	1.769056	-0.312159	0.575905
O7	O	1.597061	-0.403432	0.273782
O8	O	1.467016	-0.191771	0.445697
O9	O	1.768967	-0.403407	0.445660
O10	O	1.597267	-0.191753	0.575926
O11	O	1.466899	-0.312202	0.273798
O12	O	1.295089	-0.312155	0.445637
O13	O	1.466981	-0.403325	0.747698
O14	O	1.295074	-0.403349	0.575820
O15	O	1.597247	-0.312112	0.747743
O16	O	1.597040	-0.523791	0.445599
O17	O	1.466863	-0.523755	0.575799
C18	C	1.256617	-0.357750	0.510725
C19	C	1.138787	-0.357760	0.510737
C20	C	0.971197	-0.300126	0.429290
C21	C	1.093757	-0.300275	0.428931
C22	C	1.094265	-0.435993	0.480211
C23	C	0.971667	-0.435678	0.479655
C24	C	0.971638	-0.337906	0.623024
C25	C	1.094244	-0.336158	0.622400
C26	C	1.531965	-0.550720	0.510713
C27	C	1.532027	-0.633265	0.510731
C28	C	1.602965	-0.832708	0.440027
C29	C	1.628865	-0.882039	0.536780
C30	C	1.532088	-0.784396	0.510773
C31	C	1.506295	-0.882147	0.414063
C32	C	1.532148	-0.930381	0.510805
C33	C	1.558037	-0.832639	0.607577
C34	C	1.435422	-0.832743	0.484795
C35	C	1.461286	-0.882051	0.581614
C36	C	1.532056	-0.700297	0.510753
C37	C	1.532179	-1.014477	0.510836
C38	C	1.808552	-0.357786	0.510787
C39	C	1.926382	-0.357793	0.510800
C40	C	1.532125	-0.357710	0.787261
C41	C	1.532158	-0.357686	0.905091
C42	C	1.532157	-0.164062	0.510821
C43	C	1.532205	-0.081516	0.510849
C44	C	1.532030	-0.357771	0.235326
C45	C	1.532202	-0.357586	0.117496
C46	C	1.449955	-0.414797	1.072626
C47	C	1.450170	-0.415080	0.950066
C48	C	1.643857	-0.378927	0.949608
C49	C	1.643406	-0.379285	1.072206
C50	C	1.503718	-0.279014	1.072300
C51	C	1.501226	-0.279485	0.949693
H52	H	0.941734	-0.241938	0.448220
C53	C	1.729009	-0.325451	1.112325
C54	C	1.819943	-0.354273	1.182097
C55	C	1.905550	-0.300447	1.222213
C56	C	1.900224	-0.217800	1.192558
C57	C	1.809287	-0.188974	1.122782
C58	C	1.723679	-0.242800	1.082666
H59	H	1.823889	-0.415458	1.204053
H60	H	1.972868	-0.321787	1.273866
H61	H	1.963596	-0.177954	1.222255
H62	H	1.805340	-0.127789	1.100826
H63	H	1.656362	-0.221460	1.031013
C64	C	1.380351	-0.911153	0.662539
C65	C	1.262690	-0.890551	0.651597
C66	C	1.181763	-0.919660	0.732522
C67	C	1.218495	-0.969372	0.824388
C68	C	1.336162	-0.989977	0.835333
C69	C	1.417089	-0.960868	0.754408
H70	H	1.235493	-0.853749	0.583589
H71	H	1.094658	-0.904406	0.724419
H72	H	1.158588	-0.990920	0.884293
H73	H	1.363359	-1.026779	0.903341
H74	H	1.504194	-0.976122	0.762511
H75	H	1.662924	-0.811042	0.380261
H76	H	1.710639	-0.903694	0.558773
C77	C	1.476778	-0.911521	0.303560
C78	C	1.546114	-0.892052	0.207418
C79	C	1.516607	-0.921422	0.096913
C80	C	1.417764	-0.970261	0.082551
C81	C	1.348422	-0.989733	0.178696
C82	C	1.377929	-0.960362	0.289201
H83	H	1.619289	-0.855896	0.218047
H84	H	1.567939	-0.907008	0.025740
H85	H	1.395921	-0.992003	0.000748
H86	H	1.275247	-1.025888	0.168067
H87	H	1.326597	-0.974777	0.360374
H88	H	1.579796	-0.810985	0.689446
H89	H	1.367341	-0.401788	0.919966
C90	C	1.135664	-0.459172	0.370564
C91	C	1.110729	-0.411307	0.272923
C92	C	1.152126	-0.434481	0.163274
C93	C	1.218458	-0.505518	0.151266
C94	C	1.243396	-0.553387	0.248911
C95	C	1.201999	-0.530214	0.358560
H96	H	1.061624	-0.358717	0.281808
H97	H	1.133665	-0.399045	0.090990
H98	H	1.249102	-0.522673	0.070097
H99	H	1.292502	-0.605978	0.240026
H100	H	1.220460	-0.565650	0.430843
H101	H	1.563623	-0.236389	1.101320
C102	C	1.324984	-0.803459	0.455049
C103	C	1.276404	-0.822982	0.346875
C104	C	1.165965	-0.793697	0.317116
C105	C	1.104107	-0.744888	0.395529
C106	C	1.152687	-0.725362	0.503710
C107	C	1.263126	-0.754647	0.533470
H108	H	1.322195	-0.859116	0.288822
H109	H	1.130004	-0.808152	0.237033
H110	H	1.022354	-0.723209	0.373499
H111	H	1.106896	-0.689228	0.561763
H112	H	1.299088	-0.740192	0.613552
H113	H	1.419026	-0.263466	0.920596
C114	C	0.931608	-0.495697	0.556339
C115	C	1.011176	-0.543761	0.617884
C116	C	0.971123	-0.603784	0.694557
C117	C	0.851501	-0.615742	0.709686
C118	C	0.771925	-0.567677	0.648140
C119	C	0.811979	-0.507654	0.571466
H120	H	1.099734	-0.534910	0.606686
H121	H	1.030031	-0.639365	0.740117
H122	H	0.821851	-0.660175	0.766444
H123	H	0.683368	-0.576528	0.659338
H124	H	0.753071	-0.472073	0.525906
H125	H	1.667550	-0.436723	1.100809
C126	C	1.135659	-0.388765	0.708831
C127	C	1.057369	-0.434863	0.774900
C128	C	1.098788	-0.487478	0.861323
C129	C	1.218497	-0.493995	0.881677
C130	C	1.296794	-0.447896	0.815607
C131	C	1.255376	-0.395280	0.729183
H132	H	0.968747	-0.430040	0.759834
H133	H	1.040826	-0.521604	0.910233
H134	H	1.249157	-0.532944	0.945653
H135	H	1.385417	-0.452719	0.830673
H136	H	1.313337	-0.361154	0.680274
H137	H	0.940743	-0.281854	0.650783
H138	H	1.668415	-0.435763	0.918911
H139	H	1.556755	-0.234606	0.919079
C140	C	1.475101	-0.492999	1.114244
C141	C	1.569910	-0.505084	1.188721
C142	C	1.595060	-0.583286	1.230340
C143	C	1.525400	-0.649402	1.197482
C144	C	1.430585	-0.637318	1.123000
C145	C	1.405435	-0.559117	1.081381
H146	H	1.621482	-0.456140	1.213049
H147	H	1.665248	-0.592230	1.285477
H148	H	1.544017	-0.707291	1.228291
H149	H	1.379013	-0.686263	1.098673
H150	H	1.335247	-0.550173	1.026245
H151	H	1.123349	-0.278587	0.645418
C152	C	1.134432	-0.221902	0.454766
C153	C	1.055359	-0.158742	0.475870
C154	C	1.096028	-0.080365	0.501699
C155	C	1.215769	-0.065148	0.506424
C156	C	1.294850	-0.128310	0.485319
C157	C	1.254181	-0.206687	0.459490
H158	H	0.966713	-0.170005	0.472372
H159	H	1.037487	-0.033608	0.517321
H160	H	1.245875	-0.007129	0.525544
H161	H	1.383496	-0.117048	0.488817
H162	H	1.312722	-0.253444	0.443867
C163	C	1.475624	-0.493761	0.910442
C164	C	1.495824	-0.556532	0.990355
C165	C	1.521283	-0.635217	0.950732
C166	C	1.526541	-0.651131	0.831196
C167	C	1.506340	-0.588358	0.751276
C168	C	1.480881	-0.509673	0.790900
H169	H	1.491932	-0.544753	1.078849
H170	H	1.536237	-0.681685	1.009894
H171	H	1.545387	-0.709378	0.801865
H172	H	1.510232	-0.600137	0.662783
H173	H	1.465927	-0.463205	0.731737
H174	H	1.366880	-0.401633	1.102102
C175	C	1.728870	-0.324417	0.910264
C176	C	1.697779	-0.259828	0.837081
C177	C	1.782789	-0.205315	0.797739
C178	C	1.898890	-0.215391	0.831582
C179	C	1.929986	-0.279983	0.904769
C180	C	1.844977	-0.334496	0.944110
H181	H	1.611829	-0.252366	0.812025
H182	H	1.759769	-0.157500	0.743561
H183	H	1.961819	-0.175038	0.802459
H184	H	2.015936	-0.287445	0.929825
H185	H	1.867997	-0.382311	0.998288
C186	C	1.395595	-0.252855	1.114038
C187	C	1.295490	-0.298675	1.090830
C188	C	1.187362	-0.272526	1.132568
C189	C	1.179339	-0.200558	1.197515
C190	C	1.279447	-0.154734	1.220727
C191	C	1.387575	-0.180882	1.178989
H192	H	1.301426	-0.351954	1.042749
H193	H	1.113255	-0.306449	1.115384
H194	H	1.099296	-0.181201	1.228412
H195	H	1.273511	-0.101454	1.268808
H196	H	1.461682	-0.146960	1.196172
H197	H	0.940349	-0.313125	0.346618
H198	H	1.123035	-0.313420	0.345769
H199	H	0.943020	-0.452544	0.397614
H200	H	1.123433	-0.480108	0.537715
H201	H	0.942658	-0.379908	0.683756
