data_functionalizedCrystal
_audit_creation_method	'MofGen! by Chris Wilmer'
_symmetry_space_group_name_H-M	'P1'
_symmetry_Int_Tables_number	1
_symmetry_cell_setting	triclinic
loop_
_symmetry_equiv_pos_as_xyz
  x,y,z
_cell_length_a	18.215407
_cell_length_b	16.120444
_cell_length_c	18.215399
_cell_angle_alpha	92.870532
_cell_angle_beta	89.982187
_cell_angle_gamma	92.921021
loop_
_atom_site_label
_atom_site_type_symbol
_atom_site_fract_x
_atom_site_fract_y
_atom_site_fract_z
Zn1	Zn	1.110201	-0.332038	-0.430930
Zn2	Zn	1.610201	0.167962	0.069070
Zn3	Zn	1.103866	-0.471459	-0.314101
Zn4	Zn	1.603866	0.028541	0.185899
Zn5	Zn	0.987133	-0.332051	-0.307883
Zn6	Zn	1.487133	0.167949	0.192117
Zn7	Zn	0.980858	-0.471399	-0.437128
Zn8	Zn	1.480858	0.028601	0.062872
O9	O	1.045515	-0.401737	-0.372510
O10	O	1.545515	0.098263	0.127490
O11	O	1.212344	-0.350553	-0.415442
O12	O	1.712344	0.149447	0.084558
O13	O	1.088355	-0.452997	-0.210293
O14	O	1.588355	0.047003	0.289707
O15	O	1.008736	-0.215383	-0.319009
O16	O	1.508736	0.284617	0.180991
O17	O	1.207689	-0.452985	-0.329608
O18	O	1.707689	0.047015	0.170392
O19	O	1.099154	-0.215374	-0.409412
O20	O	1.599154	0.284626	0.090588
O21	O	1.002593	-0.350575	-0.205725
O22	O	1.502593	0.149425	0.294275
O23	O	0.883318	-0.350516	-0.325018
O24	O	1.383318	0.149484	0.174982
O25	O	0.998041	-0.452881	-0.539289
O26	O	1.498041	0.047119	-0.039289
O27	O	0.878707	-0.452894	-0.419974
O28	O	1.378707	0.047106	0.080026
O29	O	1.093069	-0.350494	-0.534735
O30	O	1.593069	0.149506	-0.034735
O31	O	1.082271	-0.588117	-0.335617
O32	O	1.582271	-0.088117	0.164383
O33	O	0.991898	-0.588073	-0.426004
O34	O	1.491898	-0.088073	0.073996
C35	C	0.854310	-0.401700	-0.372494
C36	C	1.354310	0.098300	0.127506
C37	C	0.772511	-0.401704	-0.372506
C38	C	1.272511	0.098296	0.127494
C39	C	0.509865	-0.348503	-0.417284
C40	C	1.009865	0.151497	0.082716
C41	C	0.586725	-0.348490	-0.417281
C42	C	1.086725	0.151510	0.082719
C43	C	0.581904	-0.454998	-0.327754
C44	C	1.081904	0.045002	0.172246
C45	C	0.505046	-0.455015	-0.327762
C46	C	1.005046	0.044985	0.172238
C47	C	0.469029	-0.401763	-0.372525
C48	C	0.969029	0.098237	0.127475
C49	C	0.622746	-0.401732	-0.372515
C50	C	1.122746	0.098268	0.127485
C51	C	0.706081	-0.401718	-0.372511
C52	C	1.206081	0.098282	0.127489
C53	C	0.385689	-0.401778	-0.372530
C54	C	0.885689	0.098222	0.127470
C55	C	1.035736	-0.618345	-0.382174
C56	C	1.535736	-0.118345	0.117826
C57	C	1.031620	-0.711011	-0.386333
C58	C	1.531620	-0.211011	0.113667
C59	C	1.067047	-0.921955	-0.351095
C60	C	1.567047	-0.421955	0.148905
C61	C	1.024119	-0.880667	-0.393933
C62	C	1.524119	-0.380667	0.106067
C63	C	1.028294	-0.786262	-0.389703
C64	C	1.528294	-0.286262	0.110297
C65	C	1.062873	-1.016369	-0.355325
C66	C	1.562873	-0.516369	0.144675
C67	C	1.237466	-0.401774	-0.372527
C68	C	1.737466	0.098226	0.127473
C69	C	1.319264	-0.401790	-0.372534
C70	C	1.819264	0.098210	0.127466
C71	C	1.045562	-0.401679	-0.564461
C72	C	1.545562	0.098321	-0.064461
C73	C	1.045582	-0.401655	-0.646259
C74	C	1.545582	0.098345	-0.146259
C75	C	1.055352	-0.184283	-0.362825
C76	C	1.555352	0.315717	0.137175
C77	C	1.059543	-0.091617	-0.358698
C78	C	1.559543	0.408383	0.141302
C79	C	1.095082	-0.348292	-0.832081
C80	C	1.595082	0.151708	-0.332081
C81	C	1.095092	-0.348267	-0.908939
C82	C	1.595092	0.151733	-0.408939
C83	C	0.996140	-0.454889	-0.913669
C84	C	1.496140	0.045111	-0.413669
C85	C	0.996127	-0.454908	-0.836812
C86	C	1.496127	0.045092	-0.336812
C87	C	1.045603	-0.401611	-0.796020
C88	C	1.545603	0.098389	-0.296020
C89	C	1.045625	-0.401567	-0.949735
C90	C	1.545625	0.098433	-0.449735
C91	C	1.045636	-0.401541	-1.033067
C92	C	1.545636	0.098459	-0.533067
C93	C	1.045591	-0.401636	-0.712682
C94	C	1.545591	0.098364	-0.212682
C95	C	1.045513	-0.401734	-0.181304
C96	C	1.545513	0.098266	0.318696
C97	C	1.045645	-0.401524	-0.099496
C98	C	1.545645	0.098476	0.400504
H99	H	0.480543	-0.305142	-0.453733
H100	H	0.980543	0.194858	0.046267
H101	H	0.955830	-0.498327	-0.807451
H102	H	1.455830	0.001673	-0.307451
O103	O	0.626283	-0.296673	-0.460778
O104	O	1.126283	0.203327	0.039222
C105	C	0.578008	-0.249695	-0.500300
C106	C	1.078008	0.250305	-0.000300
H107	H	0.523342	-0.246779	-0.470033
H108	H	1.023342	0.253221	0.029967
H109	H	0.568479	-0.280301	-0.557517
H110	H	1.068479	0.219699	-0.057517
C111	C	0.679135	-0.164553	-0.544244
C112	C	1.179135	0.335447	-0.044244
C113	C	0.611995	-0.160966	-0.507065
C114	C	1.111995	0.339034	-0.007065
H115	H	0.700101	-0.109822	-0.548420
H116	H	1.200101	0.390178	-0.048420
H117	H	0.711660	-0.196205	-0.517619
H118	H	1.211660	0.303795	-0.017619
H119	H	0.671185	-0.190063	-0.591921
H120	H	1.171185	0.309937	-0.091921
H121	H	0.619948	-0.135467	-0.459386
H122	H	1.119948	0.364533	0.040614
H123	H	0.579473	-0.129308	-0.533682
H124	H	1.079473	0.370692	-0.033682
H125	H	0.984231	-0.916221	-0.433785
H126	H	1.484231	-0.416221	0.066215
H127	H	0.611239	-0.498352	-0.291308
H128	H	1.111239	0.001648	0.208692
H129	H	0.955861	-0.498284	-0.946891
H130	H	1.455861	0.001716	-0.446891
O131	O	1.114563	-0.879420	-0.303568
O132	O	1.614563	-0.379420	0.196432
C133	C	1.108207	-0.793265	-0.309882
C134	C	1.608207	-0.293265	0.190118
H135	H	1.051909	-0.781519	-0.333425
H136	H	1.551909	-0.281519	0.166575
H137	H	1.152913	-0.768476	-0.348018
H138	H	1.652913	-0.268476	0.151982
C139	C	1.186067	-0.762935	-0.204545
C140	C	1.686067	-0.262935	0.295455
C141	C	1.116919	-0.748508	-0.233455
C142	C	1.616919	-0.248508	0.266545
H143	H	1.191444	-0.735326	-0.157403
H144	H	1.691444	-0.235326	0.342597
H145	H	1.190351	-0.820979	-0.200292
H146	H	1.690351	-0.320979	0.299708
H147	H	1.223314	-0.742277	-0.236332
H148	H	1.723314	-0.242277	0.263668
H149	H	1.079673	-0.769176	-0.201673
H150	H	1.579673	-0.269176	0.298327
H151	H	1.112628	-0.690467	-0.237701
H152	H	1.612628	-0.190467	0.262299
H153	H	0.471795	-0.498390	-0.291314
H154	H	0.971795	0.001610	0.208686
H155	H	1.135383	-0.304848	-0.938295
H156	H	1.635383	0.195152	-0.438295
H157	H	1.135366	-0.304891	-0.798870
H158	H	1.635366	0.195109	-0.298870
