data_functionalizedCrystal
_audit_creation_method	'MofGen! by Chris Wilmer'
_symmetry_space_group_name_H-M	'P1'
_symmetry_Int_Tables_number	1
_symmetry_cell_setting	triclinic
loop_
_symmetry_equiv_pos_as_xyz
  x,y,z
_cell_length_a	14.908795
_cell_length_b	14.908178
_cell_length_c	14.908694
_cell_angle_alpha	89.840902
_cell_angle_beta	96.796463
_cell_angle_gamma	96.402092
loop_
_atom_site_label
_atom_site_type_symbol
_atom_site_fract_x
_atom_site_fract_y
_atom_site_fract_z
Zn1	Zn	1.394304	-0.311873	0.572660
Zn2	Zn	1.376741	-0.454534	0.412549
Zn3	Zn	1.234199	-0.311896	0.412564
Zn4	Zn	1.233165	-0.470918	0.554116
O5	O	1.309602	-0.387305	0.487972
O6	O	1.519065	-0.323931	0.559176
O7	O	1.350915	-0.428766	0.286304
O8	O	1.263220	-0.185638	0.441567
O9	O	1.506162	-0.428744	0.441543
O10	O	1.380848	-0.185621	0.559190
O11	O	1.246190	-0.323971	0.286314
O12	O	1.106970	-0.339857	0.423586
O13	O	1.261458	-0.456667	0.682823
O14	O	1.106210	-0.456690	0.527584
O15	O	1.379846	-0.339818	0.696447
O16	O	1.349912	-0.582963	0.423561
O17	O	1.244428	-0.595000	0.527570
C18	C	1.073637	-0.400054	0.473575
C19	C	0.972690	-0.405531	0.467436
C20	C	0.823694	-0.467720	0.397455
C21	C	0.918542	-0.462577	0.403222
C22	C	0.931982	-0.353622	0.525884
C23	C	0.837134	-0.358764	0.520116
C24	C	0.782993	-0.415816	0.455900
C25	C	0.688143	-0.420963	0.450138
C26	C	0.701584	-0.312003	0.572794
C27	C	0.796433	-0.306861	0.578562
C28	C	1.295178	-0.621717	0.473573
C29	C	1.289092	-0.721997	0.467448
C30	C	1.400061	-0.910277	0.578538
C31	C	1.394346	-1.004498	0.572786
C32	C	1.271943	-1.004664	0.450199
C33	C	1.277658	-0.910442	0.455950
C34	C	1.341720	-0.863252	0.520121
C35	C	1.347439	-0.769028	0.525868
C36	C	1.225032	-0.769196	0.403285
C37	C	1.219317	-0.863418	0.397533
C38	C	1.546488	-0.374507	0.502426
C39	C	1.647435	-0.369054	0.508586
C40	C	1.322495	-0.400068	0.723285
C41	C	1.327990	-0.405506	0.823561
C42	C	1.324108	-0.151978	0.502449
C43	C	1.330290	-0.051695	0.508618
C44	C	1.296815	-0.374525	0.253582
C45	C	1.291512	-0.368823	0.153332
C46	C	1.229243	-0.306606	1.012003
C47	C	1.234403	-0.311713	1.106221
C48	C	1.343463	-0.420832	1.106218
C49	C	1.338304	-0.415725	1.012000
C50	C	1.281193	-0.358609	0.964895
C51	C	1.276039	-0.353497	0.870676
C52	C	1.385094	-0.462620	0.870674
C53	C	1.390253	-0.467728	0.964892
H54	H	0.951677	-0.504842	0.355629
H55	H	1.436748	-0.514233	1.003257
H56	H	1.452228	-0.871853	0.630782
H57	H	1.441849	-1.042783	0.620359
H58	H	0.840527	-0.260409	0.630842
H59	H	1.219783	-1.043103	0.397958
H60	H	0.976080	-0.307168	0.578160
H61	H	1.389947	-0.467345	1.144586
H62	H	1.427398	-0.504962	0.832310
H63	H	1.177530	-0.730897	0.355715
C64	C	1.213213	-0.290671	0.818862
N65	N	1.165888	-0.243352	0.779838
H66	H	1.167158	-0.901853	0.345290
C67	C	0.656806	-0.254911	0.637094
N68	N	0.623077	-0.211914	0.685526
C69	C	0.628589	-0.483717	0.379496
N70	N	0.583735	-0.530982	0.326284
C71	C	1.177258	-0.254501	1.158036
N72	N	1.134216	-0.211405	1.197063
C73	C	0.764137	-0.530481	0.326822
N74	N	0.719279	-0.577754	0.273619
C75	C	1.417907	-0.717120	0.596457
N76	N	1.470983	-0.678026	0.649629
C77	C	1.166425	-0.243775	0.960186
N78	N	1.119109	-0.196450	0.921159
