data_functionalizedCrystal
_audit_creation_method	'MofGen! by Chris Wilmer'
_symmetry_space_group_name_H-M	'P1'
_symmetry_Int_Tables_number	1
_symmetry_cell_setting	triclinic
loop_
_symmetry_equiv_pos_as_xyz
  x,y,z
_cell_length_a	8.559649
_cell_length_b	9.616153
_cell_length_c	8.559649
_cell_angle_alpha	90.000928
_cell_angle_beta	69.778664
_cell_angle_gamma	90.006285
loop_
_atom_site_label
_atom_site_type_symbol
_atom_site_fract_x
_atom_site_fract_y
_atom_site_fract_z
O1	O	2.126889	0.115624	-0.055042
O2	O	1.651404	0.115629	0.028739
O3	O	1.931037	0.115625	-0.250894
O4	O	1.847256	0.115628	0.224591
O5	O	1.931002	-0.115667	-0.250885
O6	O	1.651369	-0.115662	0.028748
O7	O	2.126854	-0.115668	-0.055033
Zn8	Zn	1.889106	-0.152387	-0.013141
Zn9	Zn	1.889152	0.152349	-0.013153
O10	O	1.847221	-0.115663	0.224600
C11	C	1.591077	-0.000016	0.035093
C12	C	1.411378	-0.000014	0.053992
N13	N	1.889087	-0.360362	-0.013134
C14	C	1.739156	-0.580729	0.136060
C15	C	1.739383	-0.419562	0.136515
C16	C	2.053825	-0.418813	0.003067
C17	C	2.052980	-0.580031	0.004095
C18	C	1.876027	-0.580274	-0.179186
C19	C	1.871983	-0.419048	-0.177566
C20	C	2.187180	-0.000020	-0.061387
C21	C	2.366879	-0.000013	-0.080286
C22	C	1.937369	-0.000019	-0.311198
C23	C	1.956268	-0.000011	-0.490898
N24	N	1.889185	0.360324	-0.013174
C25	C	1.840889	-0.000017	0.284904
C26	C	1.821990	-0.000015	0.464604
H27	H	1.466258	-0.000007	-0.209705
Cl28	Cl	1.257940	0.000002	0.253823
H29	H	1.692570	-0.000018	-0.436018
H30	H	1.616261	-0.380046	0.129926
H31	H	2.085696	-0.000024	-0.590286
Cl32	Cl	1.548372	-0.640615	0.126499
H33	H	2.067747	-0.617618	0.124532
H34	H	1.745184	-0.621227	0.259013
Cl35	Cl	2.228735	-0.640236	-0.159144
Cl36	Cl	1.748936	-0.359986	0.327419
H37	H	2.167260	-0.380462	-0.103600
Cl38	Cl	2.045316	-0.639126	-0.350268
H39	H	2.069472	-0.378422	0.122005
H40	H	1.759645	-0.621010	-0.199924
H41	H	1.750906	-0.380846	-0.190345
Cl42	Cl	2.032202	-0.356860	-0.354574
