data_functionalizedCrystal
_audit_creation_method	'MofGen! by Chris Wilmer'
_symmetry_space_group_name_H-M	'P1'
_symmetry_Int_Tables_number	1
_symmetry_cell_setting	triclinic
loop_
_symmetry_equiv_pos_as_xyz
  x,y,z
_cell_length_a	10.654550
_cell_length_b	11.026607
_cell_length_c	9.130313
_cell_angle_alpha	89.997484
_cell_angle_beta	89.999724
_cell_angle_gamma	96.535474
loop_
_atom_site_label
_atom_site_type_symbol
_atom_site_fract_x
_atom_site_fract_y
_atom_site_fract_z
O1	O	1.704908	0.170768	-0.121683
O2	O	1.342961	0.187037	-0.121709
O3	O	1.493937	0.001997	-0.121693
O4	O	1.553932	0.355808	-0.121699
O5	O	1.493922	0.001991	0.121906
O6	O	1.342947	0.187032	0.121889
O7	O	1.704894	0.170762	0.121916
Cu8	Cu	1.523919	0.178896	0.144145
Cu9	Cu	1.523936	0.178903	-0.143939
O10	O	1.553918	0.355802	0.121899
C11	C	1.295897	0.185840	0.000087
C12	C	1.155678	0.182266	0.000076
C13	C	1.099841	0.291214	0.000079
C14	C	0.968090	0.287849	0.000104
C15	C	0.948022	0.066576	0.000119
C16	C	1.079771	0.069943	0.000104
C17	C	1.482861	-0.043310	0.000104
C18	C	1.449867	-0.178302	0.000096
C19	C	1.540970	-0.251341	0.000101
C20	C	1.506871	-0.390862	0.000093
C21	C	1.751958	0.171959	0.000116
C22	C	1.892177	0.175533	0.000117
C23	C	1.564993	0.401109	0.000099
C24	C	1.597988	0.536101	0.000097
N25	N	1.523916	0.178891	0.346768
N26	N	1.523947	0.178898	-0.346561
C27	C	1.590804	0.096990	0.423427
C28	C	1.590816	0.096990	0.576764
C29	C	1.457050	0.260803	0.576769
C30	C	1.457031	0.260796	0.423435
H31	H	0.886203	-0.024873	0.000151
H32	H	1.161641	0.382675	0.000067
H33	H	1.645281	0.030298	0.639175
H34	H	1.125232	-0.018782	0.000106
H35	H	1.402557	0.327490	0.361015
C36	C	0.907707	0.406271	0.000027
C37	C	1.002387	0.505352	-0.000037
C38	C	0.946812	0.614466	-0.000126
H39	H	0.856750	0.409736	0.084959
H40	H	0.856753	0.409622	-0.084948
H41	H	1.053320	0.502004	0.084930
H42	H	1.053351	0.501928	-0.084963
H43	H	0.895857	0.617817	-0.085101
H44	H	0.895855	0.617918	0.084808
H45	H	1.011043	0.681705	-0.000182
C46	C	1.678657	-0.197070	-0.000196
C47	C	1.738351	-0.235971	-0.125539
C48	C	1.865185	-0.185991	-0.125875
H49	H	1.719528	-0.223326	0.084654
H50	H	1.683329	-0.110513	-0.000274
H51	H	1.733687	-0.322510	-0.125447
H52	H	1.697518	-0.209717	-0.210409
H53	H	1.869858	-0.099434	-0.125953
H54	H	1.906044	-0.212250	-0.041020
H55	H	1.905701	-0.212369	-0.210924
H56	H	1.403623	-0.431617	0.000076
C57	C	1.384310	0.349781	0.659746
C58	C	1.325696	0.421481	0.559786
C59	C	1.258663	0.503451	0.636167
H60	H	1.440895	0.400922	0.719555
H61	H	1.321992	0.305600	0.719543
H62	H	1.388007	0.465659	0.500015
H63	H	1.269092	0.370374	0.499975
H64	H	1.196345	0.459270	0.695964
H65	H	1.315256	0.554583	0.695973
H66	H	1.218876	0.552101	0.568357
C67	C	1.312276	-0.232871	0.000155
C68	C	1.305809	-0.360407	0.000184
C69	C	1.179079	-0.410714	0.000256
H70	H	1.271444	-0.206710	-0.084772
H71	H	1.271531	-0.206658	0.085136
H72	H	1.346536	-0.386610	-0.084789
H73	H	1.346614	-0.386603	0.085104
H74	H	1.138334	-0.384501	0.085237
H75	H	1.138257	-0.384543	-0.084672
H76	H	1.174674	-0.497251	0.000290
C77	C	1.663433	0.007923	0.340451
C78	C	1.721984	-0.063825	0.440414
C79	C	1.788885	-0.145903	0.364036
H80	H	1.725781	0.051984	0.280615
H81	H	1.606738	-0.043166	0.280682
H82	H	1.778675	-0.012743	0.500158
H83	H	1.659666	-0.107913	0.500253
H84	H	1.732190	-0.196992	0.304266
H85	H	1.851226	-0.101831	0.304202
H86	H	1.828610	-0.194601	0.431848
H87	H	1.701236	-0.423146	-0.000005
