data_functionalizedCrystal
_audit_creation_method	'MofGen! by Chris Wilmer'
_symmetry_space_group_name_H-M	'P1'
_symmetry_Int_Tables_number	1
_symmetry_cell_setting	triclinic
loop_
_symmetry_equiv_pos_as_xyz
  x,y,z
_cell_length_a	15.944551
_cell_length_b	14.044220
_cell_length_c	12.503572
_cell_angle_alpha	93.835250
_cell_angle_beta	93.522593
_cell_angle_gamma	91.656192
loop_
_atom_site_label
_atom_site_type_symbol
_atom_site_fract_x
_atom_site_fract_y
_atom_site_fract_z
O1	O	0.198062	-1.263178	-0.089210
O2	O	0.531395	-0.929845	0.244123
O3	O	0.864728	-0.596512	0.577456
O4	O	0.190753	-0.987210	-0.089237
O5	O	0.524086	-0.653877	0.244096
O6	O	0.857420	-0.320544	0.577429
O7	O	0.072697	-1.132730	-0.089213
O8	O	0.406031	-0.799397	0.244120
O9	O	0.739364	-0.466063	0.577453
O10	O	0.316117	-1.117659	-0.089234
O11	O	0.649451	-0.784326	0.244099
O12	O	0.982784	-0.450992	0.577432
O13	O	0.081592	-1.121786	0.089427
O14	O	0.414925	-0.788453	0.422760
O15	O	0.748258	-0.455119	0.756093
O16	O	0.199647	-0.976267	0.089403
O17	O	0.532981	-0.642933	0.422736
O18	O	0.866314	-0.309600	0.756069
O19	O	0.206956	-1.252235	0.089430
O20	O	0.540290	-0.918901	0.422763
O21	O	0.873623	-0.585568	0.756096
Cu22	Cu	0.204114	-1.113251	0.105728
Cu23	Cu	0.537447	-0.779918	0.439061
Cu24	Cu	0.870781	-0.446585	0.772394
Cu25	Cu	0.193595	-1.126194	-0.105535
Cu26	Cu	0.526928	-0.792860	0.227798
Cu27	Cu	0.860262	-0.459527	0.561132
O28	O	0.325012	-1.106715	0.089406
O29	O	0.658345	-0.773382	0.422739
O30	O	0.991679	-0.440048	0.756073
C31	C	0.192001	-0.946424	0.000079
C32	C	0.525335	-0.613091	0.333413
C33	C	0.858668	-0.279757	0.666746
C34	C	0.182459	-0.841198	0.000069
C35	C	0.515793	-0.507865	0.333403
C36	C	0.849126	-0.174532	0.666736
C37	C	0.045804	-1.126632	0.000107
C38	C	0.379137	-0.793299	0.333440
C39	C	0.712470	-0.459966	0.666773
C40	C	-0.047583	-1.124756	0.000107
C41	C	0.285751	-0.791423	0.333440
C42	C	0.619084	-0.458090	0.666774
C43	C	0.205708	-1.293021	0.000111
C44	C	0.539041	-0.959688	0.333444
C45	C	0.872374	-0.626354	0.666777
C46	C	0.215249	-1.398247	0.000114
C47	C	0.548583	-1.064914	0.333447
C48	C	0.881916	-0.731581	0.666780
C49	C	-0.269530	-1.030073	0.000083
C50	C	0.063803	-0.696740	0.333416
C51	C	0.397136	-0.363407	0.666750
C52	C	-0.322870	-1.068645	0.088168
C53	C	0.010464	-0.735312	0.421501
C54	C	0.343797	-0.401979	0.754834
C55	C	-0.218563	-1.121363	0.000099
C56	C	0.114770	-0.788030	0.333432
C57	C	0.448104	-0.454697	0.666765
C58	C	-0.331621	-1.079457	-0.087957
C59	C	0.001713	-0.746123	0.245376
C60	C	0.335046	-0.412790	0.578709
C61	C	-0.383722	-1.118079	0.000086
C62	C	-0.050389	-0.784746	0.333419
C63	C	0.282944	-0.451413	0.666752
C64	C	-0.270669	-1.159956	0.088256
C65	C	0.062665	-0.826623	0.421589
C66	C	0.395998	-0.493289	0.754923
C67	C	-0.279418	-1.170759	-0.087948
C68	C	0.053915	-0.837426	0.245385
C69	C	0.387248	-0.504093	0.578718
C70	C	-0.332734	-1.209396	0.000158
C71	C	0.000599	-0.876063	0.333491
C72	C	0.333933	-0.542730	0.666825
C73	C	-0.123419	-1.123252	0.000107
C74	C	0.209914	-0.789919	0.333440
C75	C	0.543248	-0.456586	0.666774
C76	C	-0.478865	-1.116197	0.000085
C77	C	-0.145531	-0.782863	0.333418
C78	C	0.187802	-0.449530	0.666752
C79	C	0.351905	-1.112813	0.000083
C80	C	0.685239	-0.779480	0.333417
C81	C	1.018572	-0.446146	0.666750
C82	C	0.445291	-1.114689	0.000076
C83	C	0.778625	-0.781356	0.333409
C84	C	1.111958	-0.448023	0.666743
N85	N	0.211512	-1.104155	0.254318
N86	N	0.544846	-0.770822	0.587652
N87	N	0.878179	-0.437488	0.920985
C88	C	0.165017	-0.648534	0.000092
C89	C	0.498350	-0.315201	0.333425
C90	C	0.831684	0.018132	0.666759
C91	C	0.232688	-0.590906	0.000091
C92	C	0.566021	-0.257572	0.333424
C93	C	0.899354	0.075761	0.666758
C94	C	0.222983	-0.483701	0.000104
C95	C	0.556316	-0.150367	0.333437
C96	C	0.889649	0.182966	0.666770
C97	C	0.174721	-0.755749	0.000079
C98	C	0.508054	-0.422416	0.333413
C99	C	0.841388	-0.089083	0.666746
N100	N	0.186191	-1.135297	-0.254126
N101	N	0.519524	-0.801964	0.079207
N102	N	0.852857	-0.468631	0.412541
C103	C	0.222403	-1.090774	0.473431
C104	C	0.555736	-0.757441	0.806765
C105	C	0.889069	-0.424108	1.140098
C106	C	0.175303	-1.148675	0.526768
C107	C	0.508636	-0.815342	0.860101
C108	C	0.841970	-0.482008	1.193435
C109	C	0.181362	-1.141230	0.648690
C110	C	0.514696	-0.807896	0.982023
C111	C	0.848029	-0.474563	1.315357
C112	C	0.216344	-1.098218	0.351498
C113	C	0.549677	-0.764885	0.684832
C114	C	0.883011	-0.431552	1.018165
H115	H	-0.342162	-1.025471	0.162629
H116	H	-0.008828	-0.692138	0.495962
H117	H	0.324505	-0.358805	0.829296
C118	C	0.283028	-1.016268	0.535435
C119	C	0.616361	-0.682935	0.868768
C120	C	0.949694	-0.349602	1.202102
H121	H	0.279204	-1.020985	0.610433
H122	H	0.612537	-0.687652	0.943766
H123	H	0.945871	-0.354318	1.277100
H124	H	0.268341	-0.954079	0.517080
H125	H	0.601675	-0.620746	0.850413
H126	H	0.935008	-0.287412	1.183746
H127	H	0.338949	-1.027793	0.517065
H128	H	0.672282	-0.694459	0.850398
H129	H	1.005616	-0.361126	1.183732
C130	C	-0.234753	-1.205896	0.188973
C131	C	0.098580	-0.872562	0.522306
C132	C	0.431914	-0.539229	0.855639
H133	H	-0.175226	-1.206771	0.188383
H134	H	0.158107	-0.873438	0.521716
H135	H	0.491440	-0.540105	0.855049
H136	H	-0.256913	-1.269390	0.189239
H137	H	0.076420	-0.936057	0.522572
H138	H	0.409753	-0.602723	0.855905
H139	H	-0.249950	-1.169847	0.251438
H140	H	0.083384	-0.836514	0.584772
H141	H	0.416717	-0.503181	0.918105
H142	H	-0.241893	-0.954293	0.000164
H143	H	0.091441	-0.620959	0.333497
H144	H	0.424774	-0.287626	0.666830
H145	H	-0.360211	-1.285235	0.000215
H146	H	-0.026878	-0.951902	0.333548
H147	H	0.306456	-0.618568	0.666882
H148	H	-0.260107	-1.213901	-0.162413
H149	H	0.073226	-0.880567	0.170920
H150	H	0.406560	-0.547234	0.504253
C151	C	-0.367669	-1.033444	-0.188557
C152	C	-0.034336	-0.700110	0.144776
C153	C	0.298998	-0.366777	0.478109
H154	H	-0.345916	-0.969740	-0.188448
H155	H	-0.012583	-0.636407	0.144885
H156	H	0.320751	-0.303074	0.478218
H157	H	-0.427219	-1.033107	-0.188190
H158	H	-0.093885	-0.699774	0.145144
H159	H	0.239448	-0.366441	0.478477
H160	H	-0.352092	-1.069088	-0.251101
H161	H	-0.018759	-0.735754	0.082233
H162	H	0.314574	-0.402421	0.415566
H163	H	0.297911	-0.622081	0.000080
H164	H	0.631245	-0.288748	0.333413
H165	H	0.964578	0.044585	0.666747
C166	C	0.076911	-0.606426	0.000093
C167	C	0.410244	-0.273092	0.333426
C168	C	0.743578	0.060241	0.666760
H169	H	0.081865	-0.538851	0.000089
H170	H	0.415198	-0.205518	0.333422
H171	H	0.748531	0.127815	0.666755
H172	H	0.050351	-0.623406	0.062384
H173	H	0.383685	-0.290073	0.395717
H174	H	0.717018	0.043260	0.729050
H175	H	0.044164	-0.631023	-0.062216
H176	H	0.377498	-0.297690	0.271118
H177	H	0.710831	0.035643	0.604451
H178	H	0.130429	-1.203838	0.480864
H179	H	0.463762	-0.870504	0.814197
H180	H	0.797096	-0.537171	1.147531
