data_functionalizedCrystal
_audit_creation_method	'MofGen! by Chris Wilmer'
_symmetry_space_group_name_H-M	'P1'
_symmetry_Int_Tables_number	1
_symmetry_cell_setting	triclinic
loop_
_symmetry_equiv_pos_as_xyz
  x,y,z
_cell_length_a	12.759401
_cell_length_b	19.077068
_cell_length_c	12.759393
_cell_angle_alpha	87.738768
_cell_angle_beta	90.018496
_cell_angle_gamma	92.327081
loop_
_atom_site_label
_atom_site_type_symbol
_atom_site_fract_x
_atom_site_fract_y
_atom_site_fract_z
Zn1	Zn	1.589361	-0.280156	0.610733
Zn2	Zn	1.582157	-0.397871	0.442092
Zn3	Zn	1.413661	-0.280192	0.435075
Zn4	Zn	1.406557	-0.397817	0.617730
O5	O	1.497934	-0.339009	0.526408
O6	O	1.735426	-0.295778	0.588371
O7	O	1.559764	-0.382299	0.294142
O8	O	1.442956	-0.181697	0.452511
O9	O	1.730133	-0.382263	0.464471
O10	O	1.572043	-0.181670	0.581567
O11	O	1.435971	-0.295841	0.288987
O12	O	1.265698	-0.295788	0.459296
O13	O	1.430848	-0.382171	0.763821
O14	O	1.260479	-0.382207	0.593492
O15	O	1.565154	-0.295726	0.758680
O16	O	1.552875	-0.496355	0.471256
O17	O	1.423862	-0.496315	0.600297
C18	C	1.224968	-0.338996	0.526393
C19	C	1.108190	-0.339007	0.526412
C20	C	1.050634	-0.384078	0.596181
C21	C	0.940909	-0.384086	0.596193
C22	C	0.946308	-0.293953	0.456658
C23	C	1.056030	-0.293941	0.456652
C24	C	1.047516	-0.436117	0.676738
C25	C	0.937791	-0.436126	0.676750
C26	C	1.486845	-0.521872	0.537320
C27	C	1.482197	-0.600102	0.542023
C28	C	1.547235	-0.636852	0.477104
C29	C	1.542870	-0.710357	0.481534
C30	C	1.473460	-0.747111	0.550879
C31	C	1.408418	-0.710356	0.615805
C32	C	1.412790	-0.636852	0.611380
C33	C	1.453182	-0.966943	0.571318
C34	C	1.448813	-1.040452	0.575736
C35	C	1.583267	-1.040448	0.441466
C36	C	1.587627	-0.966943	0.437042
C37	C	1.522590	-0.930195	0.501972
N38	N	1.468994	-0.822245	0.555406
N39	N	1.527062	-0.855062	0.497450
C40	C	1.771967	-0.339023	0.526423
C41	C	1.888743	-0.339028	0.526430
C42	C	1.498012	-0.338938	0.800437
C43	C	1.498045	-0.338908	0.917212
C44	C	1.509096	-0.155432	0.515476
C45	C	1.513852	-0.077202	0.510817
C46	C	1.497920	-0.339029	0.253441
C47	C	1.498102	-0.338861	0.136655
C48	C	1.567988	-0.293891	0.969398
C49	C	1.568014	-0.293866	1.079121
C50	C	1.428152	-0.383879	1.084461
C51	C	1.428122	-0.383901	0.974740
C52	C	1.648739	-0.241925	0.966316
C53	C	1.648766	-0.241900	1.076039
H54	H	1.102889	-0.257236	0.399846
C55	C	0.888928	-0.244387	0.379925
H56	H	0.815337	-0.250850	0.389917
H57	H	0.909777	-0.197109	0.392595
H58	H	0.906261	-0.254633	0.309914
H59	H	1.078200	-0.421581	0.757275
C60	C	1.089258	-0.506028	0.641367
H61	H	1.031920	-0.537171	0.625626
H62	H	1.131651	-0.497613	0.580628
H63	H	1.129945	-0.526438	0.696041
H64	H	1.351908	-0.740287	0.672271
C65	C	0.893439	-0.409843	0.779668
H66	H	0.949615	-0.398137	0.825495
H67	H	0.853972	-0.369470	0.764879
H68	H	0.849378	-0.445716	0.812131
C69	C	0.893092	-0.509741	0.651518
H70	H	0.949168	-0.540008	0.641121
H71	H	0.850658	-0.527901	0.708249
H72	H	0.851887	-0.506727	0.589599
H73	H	1.603752	-0.606931	0.420632
H74	H	1.371164	-0.420555	0.932254
C75	C	1.757486	-0.261637	1.117455
H76	H	1.802178	-0.269778	1.060032
H77	H	1.786814	-0.224330	1.156603
H78	H	1.750534	-0.302996	1.161272
H79	H	1.724832	-0.261465	0.933449
H80	H	1.595830	-0.740275	0.428669
H81	H	1.644147	-0.937020	0.380577
C82	C	1.654809	-1.080873	0.370058
H83	H	1.642273	-1.129913	0.382628
H84	H	1.640189	-1.068874	0.298731
H85	H	1.726113	-1.068778	0.384778
C86	C	1.381625	-0.926529	0.642720
H87	H	1.339652	-0.958948	0.684638
H88	H	1.423484	-0.897805	0.686809
H89	H	1.337571	-0.897907	0.600752
C90	C	1.341249	-0.596427	0.682792
H91	H	1.299279	-0.628842	0.724720
H92	H	1.383127	-0.567708	0.726872
H93	H	1.297191	-0.567800	0.640838
C94	C	1.372468	-1.080881	0.652027
H95	H	1.334368	-1.048468	0.690072
H96	H	1.325001	-1.109602	0.613533
H97	H	1.410946	-1.109506	0.699558
H98	H	1.371221	-0.420509	1.131314
C99	C	1.613674	-0.171936	1.117860
H100	H	1.598035	-0.140794	1.060559
H101	H	1.552920	-0.180282	1.160257
H102	H	1.668435	-0.151562	1.158555
H103	H	1.630257	-0.187418	0.933301
