data_functionalizedCrystal
_audit_creation_method	'MofGen! by Chris Wilmer'
_symmetry_space_group_name_H-M	'P1'
_symmetry_Int_Tables_number	1
_symmetry_cell_setting	triclinic
loop_
_symmetry_equiv_pos_as_xyz
  x,y,z
_cell_length_a	17.699083
_cell_length_b	7.681481
_cell_length_c	8.559649
_cell_angle_alpha	94.930900
_cell_angle_beta	76.530840
_cell_angle_gamma	84.282230
loop_
_atom_site_label
_atom_site_type_symbol
_atom_site_fract_x
_atom_site_fract_y
_atom_site_fract_z
O1	O	0.984481	0.146179	0.217239
O2	O	0.762594	0.146236	0.243540
O3	O	0.893086	0.146200	-0.002289
O4	O	0.853989	0.146214	0.463068
O5	O	0.909151	-0.146662	-0.032615
O6	O	0.778659	-0.146627	0.213214
O7	O	1.000546	-0.146684	0.186913
Zn8	Zn	0.892153	-0.193153	0.195249
Zn9	Zn	0.870986	0.192705	0.235204
O10	O	0.870054	-0.146648	0.432742
C11	C	0.742483	-0.000188	0.227435
C12	C	0.658625	-0.000166	0.224611
N13	N	0.906605	-0.456491	0.167979
C14	C	0.601743	-0.000163	0.368906
C15	C	0.522953	-0.000185	0.366238
C16	C	0.501047	-0.000199	0.219275
C17	C	0.557937	-0.000208	0.074969
C18	C	0.636726	-0.000198	0.077637
C19	C	0.240193	-0.000252	0.064205
C20	C	0.161397	-0.000257	0.061548
C21	C	0.126420	-0.000240	0.352806
C22	C	0.205209	-0.000229	0.355474
C23	C	0.262092	-0.000248	0.211168
C24	C	0.347524	-0.000226	0.214062
C25	C	0.415616	-0.000208	0.216380
C26	C	1.020657	-0.000256	0.203018
C27	C	1.104513	-0.000266	0.205843
C28	C	0.904081	-0.000228	-0.076993
C29	C	0.912900	-0.000221	-0.254407
N30	N	0.856542	0.456043	0.262461
C31	C	0.859058	-0.000216	0.507446
C32	C	0.850239	-0.000212	0.684861
H33	H	0.619571	-0.000150	0.488580
Cl34	Cl	0.756992	-0.000192	-0.185866
Cl35	Cl	0.777639	-0.427840	0.411357
Cl36	Cl	0.985518	-0.572615	0.019092
H37	H	0.973299	-0.000250	-0.338150
H38	H	0.476641	-0.000180	0.483737
H39	H	0.223038	-0.000210	0.475147
Cl40	Cl	0.054905	-0.000225	0.534222
H41	H	0.286499	-0.000269	-0.053299
Cl42	Cl	0.133861	-0.000276	-0.123220
H43	H	0.683040	-0.000200	-0.039863
Cl44	Cl	0.530399	-0.000237	-0.109787
