data_functionalizedCrystal
_audit_creation_method	'MofGen! by Chris Wilmer'
_symmetry_space_group_name_H-M	'P1'
_symmetry_Int_Tables_number	1
_symmetry_cell_setting	triclinic
loop_
_symmetry_equiv_pos_as_xyz
  x,y,z
_cell_length_a	17.077404
_cell_length_b	16.959454
_cell_length_c	17.077396
_cell_angle_alpha	90.024735
_cell_angle_beta	90.019501
_cell_angle_gamma	90.020300
loop_
_atom_site_label
_atom_site_type_symbol
_atom_site_fract_x
_atom_site_fract_y
_atom_site_fract_z
Zn1	Zn	1.200070	-0.314677	0.443863
Zn2	Zn	1.700070	0.185323	0.943863
Zn3	Zn	1.199983	-0.446865	0.312606
Zn4	Zn	1.699983	0.053135	0.812606
Zn5	Zn	1.068802	-0.314705	0.312611
Zn6	Zn	1.568802	0.185295	0.812611
Zn7	Zn	1.068776	-0.446818	0.443829
Zn8	Zn	1.568776	0.053182	0.943829
O9	O	1.134408	-0.380766	0.378227
O10	O	1.634408	0.119234	0.878227
O11	O	1.309905	-0.332220	0.426463
O12	O	1.809905	0.167780	0.926463
O13	O	1.182556	-0.429365	0.202759
O14	O	1.682556	0.070635	0.702759
O15	O	1.086262	-0.204090	0.330038
O16	O	1.586262	0.295910	0.830038
O17	O	1.309842	-0.429338	0.330029
O18	O	1.809842	0.070662	0.830029
O19	O	1.182704	-0.204070	0.426469
O20	O	1.682704	0.295930	0.926469
O21	O	1.086178	-0.332267	0.202763
O22	O	1.586178	0.167733	0.702763
O23	O	0.958951	-0.332222	0.330006
O24	O	1.458951	0.167778	0.830006
O25	O	1.086218	-0.429258	0.553681
O26	O	1.586218	0.070742	1.053681
O27	O	0.958933	-0.429285	0.426411
O28	O	1.458933	0.070715	0.926411
O29	O	1.182679	-0.332174	0.553706
O30	O	1.682679	0.167826	1.053706
O31	O	1.182532	-0.557469	0.329996
O32	O	1.682532	-0.057469	0.829996
O33	O	1.086134	-0.557435	0.426406
O34	O	1.586134	-0.057435	0.926406
C35	C	0.930460	-0.380752	0.378206
C36	C	1.430460	0.119248	0.878206
C37	C	0.843210	-0.380764	0.378215
C38	C	1.343210	0.119236	0.878215
C39	C	0.802231	-0.431381	0.428333
C40	C	1.302231	0.068619	0.928333
C41	C	0.720250	-0.431383	0.428345
C42	C	1.220250	0.068617	0.928345
C43	C	0.679251	-0.380771	0.378236
C44	C	1.179251	0.119229	0.878236
C45	C	0.720236	-0.330149	0.328116
C46	C	1.220236	0.169851	0.828116
C47	C	0.802215	-0.330144	0.328108
C48	C	1.302215	0.169856	0.828108
C49	C	0.549366	-0.330164	0.328134
C50	C	1.049366	0.169836	0.828134
C51	C	0.467381	-0.330170	0.328141
C52	C	0.967381	0.169830	0.828141
C53	C	0.467401	-0.431404	0.428372
C54	C	0.967401	0.068596	0.928372
C55	C	0.549380	-0.431399	0.428364
C56	C	1.049380	0.068601	0.928364
C57	C	0.590360	-0.380777	0.378243
C58	C	1.090360	0.119223	0.878243
C59	C	1.134342	-0.586132	0.378214
C60	C	1.634342	-0.086132	0.878214
C61	C	1.134386	-0.673989	0.378235
C62	C	1.634386	-0.173989	0.878235
C63	C	1.084287	-1.045476	0.428422
C64	C	1.584287	-0.545476	0.928422
C65	C	1.184748	-1.045452	0.328112
C66	C	1.684748	-0.545452	0.828112
C67	C	1.184720	-0.962906	0.328105
C68	C	1.684720	-0.462906	0.828105
C69	C	1.134474	-0.921642	0.378256
C70	C	1.634474	-0.421642	0.878256
C71	C	1.084256	-0.962923	0.428415
C72	C	1.584256	-0.462923	0.928415
C73	C	1.234932	-0.921619	0.277942
C74	C	1.734932	-0.421619	0.777942
C75	C	1.234906	-0.839068	0.277932
C76	C	1.734906	-0.339068	0.777932
C77	C	1.184664	-0.797802	0.328088
C78	C	1.684664	-0.297802	0.828088
C79	C	1.134444	-0.839088	0.378249
C80	C	1.634444	-0.339088	0.878249
C81	C	1.084198	-0.797823	0.428400
C82	C	1.584198	-0.297823	0.928400
C83	C	1.033981	-0.839108	0.478566
C84	C	1.533981	-0.339108	0.978566
C85	C	1.034013	-0.921657	0.478571
C86	C	1.534013	-0.421657	0.978571
C87	C	1.184632	-0.715254	0.328083
C88	C	1.684632	-0.215254	0.828083
C89	C	1.084167	-0.715270	0.428393
C90	C	1.584167	-0.215270	0.928393
C91	C	1.339152	-0.380781	0.378250
C92	C	1.839152	0.119219	0.878250
C93	C	1.426402	-0.380787	0.378259
C94	C	1.926402	0.119213	0.878259
C95	C	1.134455	-0.380708	0.582972
C96	C	1.634455	0.119292	1.082972
C97	C	1.134476	-0.380683	0.670222
C98	C	1.634476	0.119317	1.170222
C99	C	1.134495	-0.174598	0.378258
C100	C	1.634495	0.325402	0.878258
C101	C	1.134533	-0.086741	0.378271
C102	C	1.634533	0.413259	0.878271
C103	C	1.134406	-0.380767	0.174279
C104	C	1.634406	0.119233	0.674279
C105	C	1.134538	-0.380569	0.087030
C106	C	1.634538	0.119431	0.587030
C107	C	1.184705	-0.330127	0.711226
C108	C	1.684705	0.169873	1.211226
C109	C	1.184714	-0.330101	0.793206
C110	C	1.684714	0.169899	1.293206
C111	C	1.134498	-0.380635	0.834181
C112	C	1.634498	0.119365	1.334181
C113	C	1.084263	-0.431193	0.793171
C114	C	1.584263	0.068807	1.293171
C115	C	1.084250	-0.431214	0.711192
C116	C	1.584250	0.068786	1.211192
C117	C	1.084295	-0.431145	0.964041
C118	C	1.584295	0.068855	1.464041
C119	C	1.084309	-0.431125	1.046026
C120	C	1.584309	0.068875	1.546026
C121	C	1.184759	-0.330032	1.046056
C122	C	1.684759	0.169968	1.546056
C123	C	1.184746	-0.330053	0.964077
C124	C	1.684746	0.169947	1.464077
C125	C	1.134512	-0.380613	0.923072
C126	C	1.634512	0.119387	1.423072
H127	H	0.582760	-0.472616	0.469164
H128	H	1.082760	0.027384	0.969164
H129	H	0.835607	-0.472598	0.469136
H130	H	1.335607	0.027402	0.969136
N131	N	1.238872	-0.275628	0.667035
N132	N	1.738872	0.224372	1.167035
H133	H	1.270692	-0.243596	0.705454
H134	H	1.770692	0.256404	1.205454
H135	H	1.206931	-0.239055	0.633020
H136	H	1.706931	0.260945	1.133020
N137	N	0.846418	-0.275545	0.274058
N138	N	1.346418	0.224455	0.774058
H139	H	0.808007	-0.243482	0.242314
H140	H	1.308007	0.256518	0.742314
H141	H	0.880410	-0.307666	0.237672
H142	H	1.380410	0.192334	0.737672
N143	N	1.238874	-0.275558	0.837434
N144	N	1.738874	0.224442	1.337434
H145	H	1.270682	-0.243548	0.799037
H146	H	1.770682	0.256452	1.299037
H147	H	1.275195	-0.307713	0.871459
H148	H	1.775195	0.192287	1.371459
H149	H	1.225514	-0.681643	0.287235
H150	H	1.725514	-0.181643	0.787235
N151	N	0.423208	-0.486006	0.482431
N152	N	0.923208	0.013994	0.982431
H153	H	0.365054	-0.478329	0.474837
H154	H	0.865054	0.021671	0.974837
H155	H	0.437569	-0.473779	0.538513
H156	H	0.937569	0.026221	1.038513
N157	N	1.238941	-0.275491	1.090265
N158	N	1.738941	0.224509	1.590265
H159	H	1.275310	-0.307602	1.124283
H160	H	1.775310	0.192398	1.624283
H161	H	1.207009	-0.238852	1.124229
H162	H	1.707009	0.261148	1.624229
H163	H	1.043341	-0.472374	0.677807
H164	H	1.543341	0.027626	1.177807
H165	H	1.225651	-1.079055	0.287277
H166	H	1.725651	-0.579055	0.787277
H167	H	0.686889	-0.472601	0.469156
H168	H	1.186889	0.027399	0.969156
N169	N	1.029976	-0.670765	0.482489
N170	N	1.529976	-0.170765	0.982489
H171	H	0.998172	-0.709446	0.514267
H172	H	1.498172	-0.209446	1.014267
H173	H	0.993652	-0.636561	0.450500
H174	H	1.493652	-0.136561	0.950500
H175	H	0.434002	-0.288948	0.287347
H176	H	0.934002	0.211052	0.787347
H177	H	1.043373	-0.472335	0.826539
H178	H	1.543373	0.027665	1.326539
H179	H	0.993067	-0.805501	0.519396
H180	H	1.493067	-0.305501	1.019396
N181	N	0.676017	-0.275565	0.274063
N182	N	1.176017	0.224435	0.774063
H183	H	0.714419	-0.243498	0.242313
H184	H	1.214419	0.256502	0.742313
H185	H	0.642025	-0.239029	0.306079
H186	H	1.142025	0.260971	0.806079
H187	H	0.993129	-0.955278	0.519412
H188	H	1.493129	-0.455278	1.019412
N189	N	0.593568	-0.275563	0.274080
N190	N	1.093568	0.224437	0.774080
H191	H	0.555157	-0.243502	0.242335
H192	H	1.055157	0.256498	0.742335
H193	H	0.627556	-0.307690	0.237696
H194	H	1.127556	0.192310	0.737696
H195	H	1.225641	-0.288909	0.930717
H196	H	1.725641	0.211091	1.430717
H197	H	1.275796	-0.805459	0.237085
H198	H	1.775796	-0.305459	0.737085
N199	N	1.030128	-1.089997	0.482530
N200	N	1.530128	-0.589997	0.982530
H201	H	1.037770	-1.148554	0.474929
H202	H	1.537770	-0.648554	0.974929
H203	H	0.974068	-1.075616	0.470257
H204	H	1.474068	-0.575616	0.970257
N205	N	1.030149	-0.485627	1.090223
N206	N	1.530149	0.014373	1.590223
H207	H	0.998320	-0.517656	1.051809
H208	H	1.498320	-0.017656	1.551809
H209	H	0.993848	-0.453436	1.124238
H210	H	1.493848	0.046564	1.624238
N211	N	1.289107	-0.966123	0.223837
N212	N	1.789107	-0.466123	0.723837
H213	H	1.281505	-1.024681	0.231454
H214	H	1.781505	-0.524681	0.731454
H215	H	1.345161	-0.951652	0.236090
H216	H	1.845161	-0.451652	0.736090
N217	N	1.030112	-0.485671	0.919812
N218	N	1.530112	0.014329	1.419812
H219	H	0.998303	-0.517683	0.958207
H220	H	1.498303	-0.017683	1.458207
H221	H	1.062044	-0.522261	0.885798
H222	H	1.562044	-0.022261	1.385798
