data_functionalizedCrystal
_audit_creation_method	'MofGen! by Chris Wilmer'
_symmetry_space_group_name_H-M	'P1'
_symmetry_Int_Tables_number	1
_symmetry_cell_setting	triclinic
loop_
_symmetry_equiv_pos_as_xyz
  x,y,z
_cell_length_a	23.532407
_cell_length_b	15.944551
_cell_length_c	15.021413
_cell_angle_alpha	89.996935
_cell_angle_beta	89.995415
_cell_angle_gamma	96.826258
loop_
_atom_site_label
_atom_site_type_symbol
_atom_site_fract_x
_atom_site_fract_y
_atom_site_fract_z
O1	O	0.755658	-0.101954	-0.073978
O2	O	0.589851	-0.116707	-0.073992
O3	O	0.677282	0.012982	-0.073977
O4	O	0.668227	-0.231643	-0.073993
O5	O	0.677268	0.012964	0.074088
O6	O	0.589837	-0.116726	0.074072
O7	O	0.755644	-0.101972	0.074086
Zn8	Zn	0.672738	-0.109352	0.097588
Zn9	Zn	0.672757	-0.109328	-0.097493
O10	O	0.668213	-0.231662	0.074071
C11	C	0.568627	-0.116341	0.000038
C12	C	0.505406	-0.115211	0.000033
C13	C	0.238923	-0.033805	0.000063
C14	C	0.298327	-0.034855	0.000062
O15	O	0.334821	0.029724	0.000098
N16	N	0.321252	-0.111955	0.000051
C17	C	0.284769	-0.188011	0.000049
O18	O	0.309723	-0.253688	0.000040
C19	C	0.225366	-0.186961	0.000056
C20	C	0.202444	-0.109856	0.000058
C21	C	0.216001	0.043294	0.000066
C22	C	0.156601	0.044343	0.000065
C23	C	0.120122	-0.031708	0.000060
C24	C	0.143044	-0.108807	0.000057
C25	C	0.188884	-0.263016	0.000060
C26	C	0.129477	-0.261959	0.000068
C27	C	0.106556	-0.184854	0.000070
C28	C	0.047166	-0.183808	0.000051
N29	N	0.024241	-0.106708	0.000062
C30	C	0.060719	-0.030657	0.000067
C31	C	0.409520	-0.190211	0.000037
C32	C	0.468922	-0.191262	0.000024
C33	C	0.482476	-0.038105	0.000039
C34	C	0.423073	-0.037055	0.000045
C35	C	0.386595	-0.113110	0.000048
C36	C	-0.064026	-0.028460	0.000063
C37	C	-0.123432	-0.027418	0.000058
C38	C	-0.136981	-0.180575	0.000048
C39	C	-0.077580	-0.181617	0.000048
C40	C	-0.041104	-0.105553	0.000059
O41	O	0.010637	-0.248352	0.000019
O42	O	0.035757	0.035008	0.000087
C43	C	0.676899	0.044264	0.000056
C44	C	0.675772	0.137501	0.000056
C45	C	0.776868	-0.102339	0.000054
C46	C	0.840090	-0.103468	0.000053
C47	C	0.668596	-0.262944	0.000037
C48	C	0.669723	-0.356180	0.000030
N49	N	0.672730	-0.109368	0.230725
C50	C	0.618885	0.351878	0.000039
C51	C	0.645295	0.413109	0.073046
C52	C	0.673733	0.308209	0.000049
C53	C	0.645321	0.413110	-0.072934
C54	C	0.671760	0.473105	0.000038
C55	C	0.700158	0.368212	0.073116
C56	C	0.700177	0.368207	-0.072929
C57	C	0.726627	0.429421	0.000096
C58	C	0.674869	0.213216	0.000056
C59	C	0.670629	0.568097	0.000038
N60	N	0.672770	-0.109305	-0.230631
C61	C	0.632296	-0.169309	0.470401
C62	C	0.683757	-0.185182	0.529739
C63	C	0.672745	-0.109347	0.412332
C64	C	0.621298	-0.093492	0.529736
C65	C	0.672754	-0.109329	0.587756
C66	C	0.724231	-0.125258	0.470363
C67	C	0.661739	-0.033535	0.470355
C68	C	0.713237	-0.049376	0.529666
C69	C	0.672738	-0.109360	0.311275
C70	C	0.672766	-0.109315	0.688811
H71	H	0.137944	0.107130	0.000070
H72	H	0.379822	-0.252148	0.000032
Cl73	Cl	0.217684	-0.359955	0.000058
H74	H	0.404415	0.025731	0.000048
H75	H	-0.142091	0.035373	0.000058
H76	H	0.622090	0.433014	0.134763
H77	H	-0.166692	-0.242493	0.000040
H78	H	0.598124	-0.220057	0.444380
H79	H	0.245696	0.105227	0.000073
H80	H	0.577786	-0.080091	0.555819
Cl81	Cl	0.735938	0.337644	0.168514
Cl82	Cl	0.083623	-0.357579	0.000074
Cl83	Cl	0.528346	0.057502	0.000044
Cl84	Cl	0.609498	0.443839	-0.168220
Cl85	Cl	-0.048764	-0.278551	0.000034
H86	H	0.747484	0.001343	0.555525
H87	H	0.772194	0.462963	0.000141
Cl88	Cl	0.735973	0.337437	-0.168222
Cl89	Cl	0.497730	-0.288198	0.000002
H90	H	-0.034333	0.033478	0.000072
H91	H	0.693074	-0.249286	0.555823
H92	H	0.767753	-0.138737	0.444393
H93	H	0.573358	0.318187	0.000108
Cl94	Cl	0.647328	0.065405	0.430048
