data_functionalizedCrystal
_audit_creation_method	'MofGen! by Chris Wilmer'
_symmetry_space_group_name_H-M	'P1'
_symmetry_Int_Tables_number	1
_symmetry_cell_setting	triclinic
loop_
_symmetry_equiv_pos_as_xyz
  x,y,z
_cell_length_a	10.723024
_cell_length_b	15.021413
_cell_length_c	10.723023
_cell_angle_alpha	89.994937
_cell_angle_beta	84.467709
_cell_angle_gamma	90.007085
loop_
_atom_site_label
_atom_site_type_symbol
_atom_site_fract_x
_atom_site_fract_y
_atom_site_fract_z
O1	O	1.657195	0.074024	0.175011
O2	O	1.294042	0.074027	0.191764
O3	O	1.483996	0.074022	0.001811
O4	O	1.467241	0.074029	0.364964
O5	O	1.483966	-0.074042	0.001838
O6	O	1.294012	-0.074037	0.191791
O7	O	1.657165	-0.074040	0.175038
Zn8	Zn	1.475584	-0.097547	0.183419
Zn9	Zn	1.475623	0.097534	0.183383
O10	O	1.467211	-0.074035	0.364991
C11	C	1.247528	-0.000005	0.190558
C12	C	1.108973	-0.000004	0.186911
C13	C	1.033991	-0.000001	0.293198
C14	C	0.890787	0.000000	0.289431
N15	N	1.475565	-0.230685	0.183442
C16	C	1.387717	-0.470365	0.271235
C17	C	1.500686	-0.529700	0.296421
C18	C	1.475597	-0.412291	0.183412
C19	C	1.362659	-0.529698	0.158254
C20	C	1.475618	-0.587716	0.183384
C21	C	1.588624	-0.470320	0.208654
C22	C	1.450522	-0.470313	0.070437
C23	C	1.563572	-0.529621	0.095576
C24	C	1.475584	-0.311234	0.183430
C25	C	1.475644	-0.688771	0.183365
C26	C	1.703679	-0.000006	0.176243
C27	C	1.842234	-0.000002	0.179891
C28	C	1.482762	-0.000009	-0.044675
C29	C	1.479114	-0.000006	-0.183229
N30	N	1.475651	0.230672	0.183350
C31	C	1.477504	0.076697	-0.245009
C32	C	1.473734	0.076701	-0.388212
C33	C	1.468445	-0.000002	0.411477
C34	C	1.472093	0.000001	0.550031
H35	H	0.906659	0.000002	0.088896
H36	H	0.826354	0.000006	0.380421
H37	H	1.067152	0.000017	0.093125
O38	O	1.299284	-0.439357	0.360068
C39	C	1.326201	-0.469638	0.479014
H40	H	1.430146	-0.486272	0.476383
H41	H	1.301793	-0.415370	0.551594
H42	H	1.268432	-0.531754	0.505249
O43	O	1.471855	0.155022	-0.451619
C44	C	1.361999	0.159767	-0.513749
H45	H	1.287620	0.114000	-0.465193
H46	H	1.325751	0.231150	-0.510935
H47	H	1.383792	0.137989	-0.615356
H48	H	1.477694	-0.065671	-0.236354
O49	O	1.425381	-0.439116	-0.043534
C50	C	1.527139	-0.387465	-0.095741
H51	H	1.615695	-0.407740	-0.052069
H52	H	1.541023	-0.398874	-0.201271
H53	H	1.506983	-0.314015	-0.076100
O54	O	1.652497	-0.560432	0.007089
C55	C	1.771351	-0.529993	0.034057
H56	H	1.768671	-0.513438	0.138030
H57	H	1.844096	-0.584134	0.009552
H58	H	1.797395	-0.467797	-0.023603
H59	H	1.473484	-0.065670	-0.396849
H60	H	1.521914	-0.555786	0.391949
H61	H	1.478911	0.142361	-0.191883
H62	H	1.075812	-0.000004	0.386984
H63	H	1.684164	-0.444347	0.230035
H64	H	1.267140	-0.555783	0.136988
