data_functionalizedCrystal
_audit_creation_method	'MofGen! by Chris Wilmer'
_symmetry_space_group_name_H-M	'P1'
_symmetry_Int_Tables_number	1
_symmetry_cell_setting	triclinic
loop_
_symmetry_equiv_pos_as_xyz
  x,y,z
_cell_length_a	12.837943
_cell_length_b	14.853559
_cell_length_c	11.892095
_cell_angle_alpha	93.896703
_cell_angle_beta	85.689438
_cell_angle_gamma	89.230197
loop_
_atom_site_label
_atom_site_type_symbol
_atom_site_fract_x
_atom_site_fract_y
_atom_site_fract_z
O1	O	1.382402	0.229204	-0.093972
O2	O	1.080580	0.217625	-0.093980
O3	O	1.239558	0.092869	-0.093975
O4	O	1.223424	0.353961	-0.093977
O5	O	1.226302	0.103253	0.094032
O6	O	1.067325	0.228009	0.094027
O7	O	1.369146	0.239588	0.094035
Zn8	Zn	1.216131	0.235448	0.123881
Zn9	Zn	1.233596	0.221766	-0.123826
O10	O	1.210169	0.364345	0.094030
C11	C	1.035327	0.218906	0.000023
C12	C	0.920233	0.207239	0.000020
C13	C	0.679471	0.347487	0.000035
C14	C	0.571330	0.336530	0.000033
C15	C	0.595807	0.174369	0.000022
C16	C	0.703949	0.185326	0.000024
C17	C	0.745776	0.271888	0.000029
C18	C	0.853920	0.282844	0.000023
C19	C	0.878395	0.120684	0.000020
C20	C	0.770254	0.109727	0.000018
C21	C	1.232201	0.064410	0.000027
C22	C	1.230015	-0.035860	0.000020
C23	C	1.227968	-0.465482	-0.102463
C24	C	1.213516	-0.454155	0.102510
C25	C	1.215578	-0.359947	0.102511
C26	C	1.223834	-0.318502	0.000024
C27	C	1.230027	-0.371265	-0.102465
C28	C	1.209375	-0.307177	0.204997
C29	C	1.211436	-0.212962	0.205003
C30	C	1.219699	-0.171516	0.102514
C31	C	1.225893	-0.224285	0.000021
C32	C	1.234149	-0.182840	-0.102466
C33	C	1.240351	-0.235608	-0.204960
C34	C	1.238290	-0.329818	-0.204953
C35	C	1.221760	-0.077305	0.102508
C36	C	1.236209	-0.088623	-0.102468
C37	C	1.414400	0.238308	0.000030
C38	C	1.529494	0.249974	0.000025
C39	C	1.217526	0.392803	0.000026
C40	C	1.219712	0.493073	0.000025
N41	N	1.204220	0.244785	0.292935
N42	N	1.245515	0.212422	-0.292880
C43	C	1.328400	0.147396	0.529587
C44	C	1.320082	0.153930	0.647928
C45	C	1.179260	0.264382	0.647962
C46	C	1.187579	0.257848	0.529620
C47	C	1.262152	0.199354	0.470437
C48	C	1.270475	0.192825	0.352093
C49	C	1.129649	0.303272	0.352129
C50	C	1.121331	0.309806	0.470470
H51	H	0.713528	0.417968	0.000037
H52	H	1.075708	0.345582	0.303956
H53	H	1.247065	-0.201850	-0.288405
N54	N	0.499810	0.418070	0.000083
H55	H	0.542720	0.474566	0.000100
H56	H	0.459302	0.413232	-0.069601
N57	N	0.550682	0.081015	0.000050
H58	H	0.472113	0.085550	0.000061
H59	H	0.579828	0.043664	-0.069643
H60	H	1.060612	0.357428	0.518671
N61	N	1.350883	0.129727	0.288242
H62	H	1.400290	0.165426	0.239126
H63	H	1.391512	0.097807	0.343737
H64	H	1.202648	-0.340929	0.288437
H65	H	1.374026	0.111620	0.696085
H66	H	1.242936	-0.054886	-0.185927
N67	N	1.215069	-0.020385	0.213034
H68	H	1.147332	-0.032509	0.257834
H69	H	1.275813	-0.036124	0.257758
N70	N	0.725125	0.016374	0.000023
H71	H	0.685711	0.004368	-0.069670
H72	H	0.783591	-0.029799	0.000062
N73	N	0.899040	0.376201	0.000018
H74	H	0.840622	0.422429	0.000023
H75	H	0.938465	0.388126	0.069713
N76	N	0.949910	0.039137	0.000002
H77	H	1.024766	0.059210	-0.000000
H78	H	0.931445	0.005659	0.069694
N79	N	1.244978	-0.386730	-0.315492
H80	H	1.242416	-0.452700	-0.299936
H81	H	1.184275	-0.370939	-0.360248
H82	H	1.118537	0.311999	0.696165
N83	N	1.234665	-0.522387	-0.213006
H84	H	1.232112	-0.588360	-0.197460
H85	H	1.173961	-0.506600	-0.257763
H86	H	1.206788	-0.487906	0.185950
H87	H	1.206390	-0.170007	0.288459
N88	N	1.408808	0.084303	0.465728
H89	H	1.458207	0.120006	0.416609
H90	H	1.449446	0.052383	0.521216
