data_functionalizedCrystal
_audit_creation_method	'MofGen! by Chris Wilmer'
_symmetry_space_group_name_H-M	'P1'
_symmetry_Int_Tables_number	1
_symmetry_cell_setting	triclinic
loop_
_symmetry_equiv_pos_as_xyz
  x,y,z
_cell_length_a	14.044220
_cell_length_b	14.853566
_cell_length_c	13.930277
_cell_angle_alpha	89.995631
_cell_angle_beta	90.003087
_cell_angle_gamma	91.588354
loop_
_atom_site_label
_atom_site_type_symbol
_atom_site_fract_x
_atom_site_fract_y
_atom_site_fract_z
O1	O	-0.123761	1.206174	-0.079765
O2	O	-0.138506	0.944883	-0.079781
O3	O	0.006856	1.071607	-0.079769
O4	O	-0.269123	1.079451	-0.079777
O5	O	0.006859	1.071587	0.079893
O6	O	-0.138503	0.944864	0.079881
O7	O	-0.123758	1.206155	0.079897
Zn8	Zn	-0.131130	1.075506	0.105239
Zn9	Zn	-0.131134	1.075532	-0.105123
O10	O	-0.269120	1.079431	0.079885
C11	C	-0.137836	0.911232	0.000048
C12	C	-0.135835	0.810989	0.000042
C13	C	-0.127371	0.387144	-0.086972
C14	C	-0.127369	0.387145	0.087097
C15	C	-0.129248	0.481328	0.087094
C16	C	-0.130191	0.528423	0.000057
C17	C	-0.129254	0.481336	-0.086978
C18	C	-0.130195	0.528421	0.174127
C19	C	-0.132075	0.622610	0.174128
C20	C	-0.133011	0.669708	0.087089
C21	C	-0.132073	0.622615	0.000051
C22	C	-0.133016	0.669710	-0.086986
C23	C	-0.132071	0.622619	-0.174026
C24	C	-0.130190	0.528434	-0.174016
C25	C	-0.134892	0.763894	0.087080
C26	C	-0.134898	0.763902	-0.086992
C27	C	-0.304441	1.082875	0.000053
C28	C	-0.409680	1.093116	0.000050
C29	C	-0.602366	1.111840	0.000056
C30	C	-0.659904	1.039202	0.000052
C31	C	-0.767121	1.049620	0.000055
C32	C	-0.495139	1.101423	0.000053
C33	C	0.042177	1.068163	0.000061
C34	C	0.147416	1.057922	0.000058
C35	C	-0.124427	1.239806	0.000066
C36	C	-0.126429	1.340049	0.000065
N37	N	-0.131126	1.075495	0.248805
N38	N	-0.131130	1.075549	-0.248689
C39	C	-0.195475	1.019414	0.701069
C40	C	-0.066786	1.131674	0.701049
C41	C	-0.066783	1.131663	0.600553
C42	C	-0.131128	1.075528	0.550311
C43	C	-0.195476	1.019403	0.600564
C44	C	-0.002442	1.187793	0.550292
C45	C	-0.002437	1.187785	0.449790
C46	C	-0.066779	1.131644	0.399546
C47	C	-0.131129	1.075517	0.449806
C48	C	-0.195474	1.019382	0.399563
C49	C	-0.259820	0.963249	0.449821
C50	C	-0.259817	0.963263	0.550320
C51	C	-0.066781	1.131630	0.299047
C52	C	-0.195475	1.019371	0.299058
H53	H	-0.135671	0.802231	0.157946
H54	H	-0.247863	0.973709	0.741991
C55	C	-0.617671	0.944617	0.000054
N56	N	-0.585857	0.873379	0.000059
C57	C	-0.644599	1.206418	0.000077
N58	N	-0.676420	1.277653	0.000100
H59	H	-0.126598	0.348799	-0.157837
C60	C	-0.126335	0.335336	0.182833
N61	N	-0.125554	0.296310	0.254945
H62	H	-0.247869	0.973655	0.258157
C63	C	0.003990	1.193419	0.756319
N64	N	0.057303	1.239926	0.797952
C65	C	-0.129162	0.476611	0.269862
N66	N	-0.128383	0.437582	0.341973
H67	H	-0.132843	0.660944	0.245000
C68	C	-0.330598	0.901503	0.394541
N69	N	-0.383906	0.854997	0.352901
H70	H	-0.132845	0.660977	-0.244892
C71	C	0.068333	1.249537	0.605565
N72	N	0.121645	1.296042	0.647201
C73	C	0.068352	1.249523	0.394516
N74	N	0.121674	1.296022	0.352883
C75	C	-0.129157	0.476626	-0.269751
N76	N	-0.128382	0.437601	-0.341857
H77	H	-0.312207	0.917563	0.591246
H78	H	-0.014396	1.177337	0.258132
H79	H	-0.135663	0.802241	-0.157870
