data_functionalizedCrystal
_audit_creation_method	'MofGen! by Chris Wilmer'
_symmetry_space_group_name_H-M	'P1'
_symmetry_Int_Tables_number	1
_symmetry_cell_setting	triclinic
loop_
_symmetry_equiv_pos_as_xyz
  x,y,z
_cell_length_a	13.339070
_cell_length_b	14.421503
_cell_length_c	13.339070
_cell_angle_alpha	90.007886
_cell_angle_beta	64.370706
_cell_angle_gamma	90.010332
loop_
_atom_site_label
_atom_site_type_symbol
_atom_site_fract_x
_atom_site_fract_y
_atom_site_fract_z
O1	O	1.496809	0.077136	-0.550513
O2	O	1.182000	0.077132	-0.478253
O3	O	1.303275	0.077131	-0.356979
O4	O	1.375535	0.077137	-0.671788
O5	O	1.303254	-0.077093	-0.356996
O6	O	1.181979	-0.077092	-0.478271
O7	O	1.496789	-0.077087	-0.550530
Cu8	Cu	1.339382	-0.091171	-0.514402
Cu9	Cu	1.339407	0.091216	-0.514382
O10	O	1.375514	-0.077086	-0.671805
C11	C	1.140874	0.000019	-0.466056
C12	C	1.018360	0.000018	-0.429672
N13	N	1.339372	-0.219453	-0.514418
C14	C	0.732973	0.000038	-0.712571
C15	C	0.848081	0.000043	-0.746759
C16	C	0.890657	0.000036	-0.667490
C17	C	0.818112	0.000026	-0.554028
C18	C	0.702992	0.000029	-0.519837
C19	C	0.860676	0.000027	-0.474756
C20	C	0.788132	0.000016	-0.361294
C21	C	0.673023	0.000018	-0.327109
C22	C	0.630448	0.000025	-0.406377
C23	C	0.975796	0.000024	-0.508947
C24	C	0.945816	0.000014	-0.316213
C25	C	0.830707	0.000010	-0.282025
C26	C	1.283271	-0.469106	-0.570456
C27	C	1.388481	-0.530907	-0.619622
C28	C	1.339392	-0.408614	-0.514399
C29	C	1.234215	-0.530907	-0.465266
C30	C	1.339402	-0.591336	-0.514381
C31	C	1.444666	-0.469054	-0.563628
C32	C	1.290322	-0.469049	-0.409211
C33	C	1.395591	-0.530822	-0.458355
C34	C	1.339385	-0.303353	-0.514412
C35	C	1.339420	-0.696594	-0.514371
C36	C	1.537914	0.000027	-0.562728
C37	C	1.660428	0.000035	-0.599111
C38	C	1.291058	0.000020	-0.315872
C39	C	1.254675	0.000023	-0.193358
N40	N	1.339423	0.219497	-0.514359
C41	C	1.387730	0.000026	-0.712912
C42	C	1.424114	0.000029	-0.835426
C43	C	1.537574	0.000027	0.092030
C44	C	1.571761	0.000018	-0.023079
C45	C	1.492492	0.000020	-0.065654
C46	C	1.379030	0.000029	0.006890
C47	C	1.344839	0.000030	0.122010
C48	C	1.299758	0.000023	-0.035674
C49	C	1.186296	0.000032	0.036871
C50	C	1.152111	0.000034	0.151979
C51	C	1.231380	0.000033	0.194555
C52	C	1.333949	0.000022	-0.150794
C53	C	1.141215	0.000026	-0.120813
C54	C	1.107028	0.000034	-0.005705
H55	H	1.034852	0.000028	-0.601328
H56	H	1.429995	-0.558077	-0.708573
O57	O	0.602666	0.000138	-0.216861
C58	C	0.621674	0.080020	-0.166587
H59	H	0.709520	0.106648	-0.218808
H60	H	0.611901	0.062051	-0.079603
H61	H	0.558974	0.135953	-0.160694
H62	H	1.076667	0.000022	-0.155477
O63	O	1.681955	-0.000149	-0.093592
C64	C	1.707477	-0.080012	-0.161098
H65	H	1.642482	-0.135839	-0.117904
H66	H	1.793091	-0.106821	-0.175667
H67	H	1.707496	-0.061955	-0.244311
O68	O	1.452372	-0.562800	-0.401816
C69	C	1.492732	-0.487146	-0.363057
H70	H	1.499430	-0.423549	-0.416342
H71	H	1.578275	-0.504819	-0.368595
H72	H	1.433130	-0.471894	-0.272895
H73	H	0.536718	0.000021	-0.378547
H74	H	1.602102	0.000018	0.126707
O75	O	0.691666	0.000213	-0.789602
C76	C	0.728948	0.080079	-0.856585
H77	H	0.751844	0.135898	-0.809595
H78	H	0.660044	0.106900	-0.877798
H79	H	0.805101	0.062022	-0.936525
H80	H	1.248784	-0.441857	-0.320279
H81	H	1.203550	0.000043	0.288284
O82	O	0.918580	0.000232	-0.856956
C83	C	0.986077	0.080104	-0.882465
H84	H	0.942887	0.135911	-0.817447
H85	H	1.000620	0.106939	-0.968064
H86	H	1.069302	0.062049	-0.882514
O87	O	0.760342	0.000131	-0.171780
C88	C	0.779342	0.080014	-0.121502
H89	H	0.867190	0.106643	-0.173716
H90	H	0.769558	0.062048	-0.034514
H91	H	0.716645	0.135946	-0.115619
H92	H	1.520335	0.000013	-0.159382
H93	H	1.533664	-0.441999	-0.605279
H94	H	1.059723	0.000035	0.211043
O95	O	1.128042	-0.563207	-0.415800
C96	C	1.069192	-0.531779	-0.475205
H97	H	1.110800	-0.466695	-0.523947
H98	H	0.979833	-0.515125	-0.414449
H99	H	1.069353	-0.588103	-0.535253
H100	H	0.980479	0.000013	-0.251665
H101	H	1.235894	-0.442008	-0.617934
H102	H	1.014645	0.000041	0.053377
O103	O	1.002451	-0.000088	-0.700559
C104	C	1.032676	-0.079980	-0.659162
H105	H	0.957582	-0.106613	-0.583197
H106	H	1.102323	-0.062025	-0.634656
H107	H	1.062564	-0.135905	-0.726155
H108	H	1.426331	0.000015	-0.209849
