data_functionalizedCrystal
_audit_creation_method	'MofGen! by Chris Wilmer'
_symmetry_space_group_name_H-M	'P1'
_symmetry_Int_Tables_number	1
_symmetry_cell_setting	triclinic
loop_
_symmetry_equiv_pos_as_xyz
  x,y,z
_cell_length_a	12.759401
_cell_length_b	12.645330
_cell_length_c	12.645324
_cell_angle_alpha	90.033794
_cell_angle_beta	90.018640
_cell_angle_gamma	90.012923
loop_
_atom_site_label
_atom_site_type_symbol
_atom_site_fract_x
_atom_site_fract_y
_atom_site_fract_z
Zn1	Zn	1.606271	-0.421952	0.599336
Zn2	Zn	1.606172	-0.599261	0.422070
Zn3	Zn	1.430573	-0.422013	0.422091
Zn4	Zn	1.430568	-0.599175	0.599295
O5	O	1.518396	-0.510600	0.510698
O6	O	1.753279	-0.445483	0.575830
O7	O	1.582838	-0.575810	0.273725
O8	O	1.453924	-0.273658	0.445629
O9	O	1.753206	-0.575751	0.445593
O10	O	1.583008	-0.273613	0.575850
O11	O	1.453827	-0.445587	0.273741
O12	O	1.283551	-0.445503	0.445589
O13	O	1.453915	-0.575604	0.747648
O14	O	1.283548	-0.575663	0.575781
O15	O	1.583004	-0.445400	0.747678
O16	O	1.582834	-0.747597	0.445553
O17	O	1.453819	-0.747534	0.575760
C18	C	1.245429	-0.510581	0.510683
C19	C	1.128652	-0.510599	0.510702
C20	C	0.964085	-0.578492	0.578393
C21	C	1.073809	-0.578480	0.578382
C22	C	1.073766	-0.442732	0.443021
C23	C	0.964044	-0.442750	0.443027
C24	C	1.223766	-0.703523	0.616033
C25	C	1.278648	-0.771377	0.683723
C26	C	1.243075	-0.787778	0.787136
C27	C	1.152622	-0.736308	0.822879
C28	C	1.097745	-0.668446	0.755195
C29	C	1.133316	-0.652066	0.651767
C30	C	0.814085	-0.317706	0.405388
C31	C	0.759206	-0.249838	0.337708
C32	C	0.794777	-0.233426	0.234293
C33	C	0.885233	-0.284877	0.198554
C34	C	0.940112	-0.352746	0.266234
C35	C	0.904534	-0.369159	0.369647
C36	C	1.518344	-0.786030	0.510673
C37	C	1.518417	-0.903860	0.510698
C38	C	1.599450	-1.071420	0.428618
C39	C	1.599714	-0.948859	0.428819
C40	C	1.548445	-0.948229	0.622441
C41	C	1.549088	-1.070827	0.622005
C42	C	1.407324	-1.071191	0.482135
C43	C	1.407857	-0.948587	0.479629
C44	C	1.792429	-0.510620	0.510713
C45	C	1.909206	-0.510629	0.510720
C46	C	1.518470	-0.510486	0.787203
C47	C	1.518502	-0.510437	0.905034
C48	C	1.518478	-0.234095	0.510746
C49	C	1.518512	-0.116265	0.510767
C50	C	1.518383	-0.510638	0.235268
C51	C	1.518555	-0.510388	0.117439
C52	C	1.599729	-0.428507	0.949934
C53	C	1.600078	-0.428721	1.072494
C54	C	1.548200	-0.622206	1.072909
C55	C	1.548759	-0.621760	0.950311
C56	C	1.407436	-0.481515	0.950212
C57	C	1.408062	-0.479023	1.072819
H58	H	1.252729	-0.690188	0.531822
H59	H	1.681361	-1.102147	0.447344
F60	F	1.114778	-0.753755	0.932953
F61	F	1.653157	-0.654719	1.113045
H62	H	1.490866	-0.684904	1.102017
H63	H	1.385698	-0.396734	1.101927
F64	F	0.905726	-0.650737	0.650435
H65	H	1.491288	-0.919076	0.685288
F66	F	1.132137	-0.370491	0.370986
H67	H	1.682067	-0.919449	0.447757
H68	H	1.492125	-0.684882	0.920604
H69	H	1.630361	-1.099336	0.646259
F70	F	1.001485	-0.613670	0.793229
F71	F	1.653475	-0.907985	0.654673
H72	H	1.581553	-0.345823	1.102605
F73	F	1.372046	-0.376767	0.909825
H74	H	1.380018	-1.102210	0.402072
F75	F	1.575801	-0.319821	0.911445
H76	H	1.681560	-0.447448	0.919134
F77	F	1.324778	-0.908565	0.552101
H78	H	1.682391	-0.447881	1.101830
F79	F	1.324782	-0.551274	1.112803
F80	F	1.301489	-0.859994	0.859175
H81	H	1.492719	-1.100487	0.685321
H82	H	1.629936	-0.646222	0.921721
F83	F	1.378257	-0.910695	0.372147
F84	F	1.328335	-0.559494	0.912237
H85	H	1.347019	-1.100192	0.541968
H86	H	0.685557	-0.207937	0.366819
F87	F	1.374913	-0.826150	0.645680
F88	F	1.036383	-0.407508	0.228192
F89	F	0.736371	-0.161183	0.162268
F90	F	0.923097	-0.267408	0.088489
H91	H	0.785114	-0.331065	0.489597
F92	F	1.575103	-0.909653	0.320533
H93	H	1.580898	-1.100982	0.345520
