data_functionalizedCrystal
_audit_creation_method	'MofGen! by Chris Wilmer'
_symmetry_space_group_name_H-M	'P1'
_symmetry_Int_Tables_number	1
_symmetry_cell_setting	triclinic
loop_
_symmetry_equiv_pos_as_xyz
  x,y,z
_cell_length_a	10.723024
_cell_length_b	9.198806
_cell_length_c	10.723024
_cell_angle_alpha	90.002012
_cell_angle_beta	84.467869
_cell_angle_gamma	90.003648
loop_
_atom_site_label
_atom_site_type_symbol
_atom_site_fract_x
_atom_site_fract_y
_atom_site_fract_z
O1	O	1.657188	0.120879	0.175024
O2	O	2.157188	0.620879	0.675024
O3	O	1.294035	0.120884	0.191778
O4	O	1.794035	0.620884	0.691778
O5	O	1.483988	0.120876	0.001825
O6	O	1.983988	0.620876	0.501825
O7	O	1.467235	0.120887	0.364977
O8	O	1.967235	0.620887	0.864977
O9	O	1.483973	-0.120909	0.001824
O10	O	1.983973	0.379091	0.501824
O11	O	1.294020	-0.120901	0.191777
O12	O	1.794020	0.379099	0.691777
O13	O	1.657173	-0.120906	0.175024
O14	O	2.157173	0.379094	0.675024
Cu15	Cu	1.475595	-0.142981	0.183401
Cu16	Cu	1.975595	0.357019	0.683401
Cu17	Cu	1.475613	0.142958	0.183401
Cu18	Cu	1.975613	0.642958	0.683401
O19	O	1.467220	-0.120898	0.364977
O20	O	1.967220	0.379102	0.864977
C21	C	1.247528	-0.000008	0.190558
C22	C	1.747528	0.499992	0.690558
C23	C	1.108974	-0.000007	0.186911
C24	C	1.608974	0.499993	0.686911
C25	C	1.033991	-0.000002	0.293198
C26	C	1.533991	0.499998	0.793198
C27	C	0.890788	-0.000001	0.289431
C28	C	1.390788	0.499999	0.789431
N29	N	1.475592	-0.344095	0.183399
N30	N	1.975592	0.155905	0.683399
C31	C	1.555347	-0.416295	0.103292
C32	C	2.055347	0.083705	0.603292
C33	C	1.555367	-0.583707	0.103288
C34	C	2.055367	-0.083707	0.603288
C35	C	1.703680	-0.000011	0.176243
C36	C	2.203680	0.499989	0.676243
C37	C	1.842234	-0.000003	0.179891
C38	C	2.342234	0.499997	0.679891
C39	C	1.482762	-0.000015	-0.044675
C40	C	1.982762	0.499985	0.455325
C41	C	1.479114	-0.000010	-0.183229
C42	C	1.979114	0.499990	0.316771
N43	N	1.475626	0.344072	0.183393
N44	N	1.975626	0.844072	0.683393
C45	C	1.585401	-0.000009	-0.258212
C46	C	2.085401	0.499991	0.241788
C47	C	1.581634	-0.000004	-0.401415
C48	C	2.081634	0.499996	0.098585
C49	C	1.468447	-0.000004	0.411477
C50	C	1.968447	0.499996	0.911477
C51	C	1.472094	0.000000	0.550031
C52	C	1.972094	0.500000	1.050031
H53	H	0.906659	0.000003	0.088896
H54	H	1.406659	0.500003	0.588896
Cl55	Cl	1.370180	-0.440001	0.289280
Cl56	Cl	1.870180	0.059999	0.789280
Cl57	Cl	1.722124	-0.000014	-0.500888
Cl58	Cl	2.222124	0.499986	-0.000888
Cl59	Cl	1.044415	-0.000021	0.042105
Cl60	Cl	1.544415	0.499979	0.542105
Cl61	Cl	1.660469	-0.320389	-0.002877
Cl62	Cl	2.160469	0.179611	0.497123
Cl63	Cl	1.334308	0.000007	-0.247788
Cl64	Cl	1.834308	0.500007	0.252212
H65	H	1.623653	-0.645796	0.034709
H66	H	2.123653	-0.145796	0.534709
Cl67	Cl	1.370202	-0.560082	0.289295
Cl68	Cl	1.870202	-0.060082	0.789295
H69	H	1.679187	-0.000019	-0.216390
H70	H	2.179187	0.499981	0.283610
H71	H	1.075814	-0.000008	0.386984
H72	H	1.575814	0.499992	0.886984
Cl73	Cl	1.331599	-0.000012	-0.350504
Cl74	Cl	1.831599	0.499988	0.149496
H75	H	0.826355	0.000009	0.380421
H76	H	1.326355	0.500009	0.880421
