data_functionalizedCrystal
_audit_creation_method	'MofGen! by Chris Wilmer'
_symmetry_space_group_name_H-M	'P1'
_symmetry_Int_Tables_number	1
_symmetry_cell_setting	triclinic
loop_
_symmetry_equiv_pos_as_xyz
  x,y,z
_cell_length_a	14.971486
_cell_length_b	19.288865
_cell_length_c	14.048226
_cell_angle_alpha	89.988335
_cell_angle_beta	89.998499
_cell_angle_gamma	83.375189
loop_
_atom_site_label
_atom_site_type_symbol
_atom_site_fract_x
_atom_site_fract_y
_atom_site_fract_z
O1	O	1.186458	0.090517	-0.079062
O2	O	1.686458	0.590517	0.420938
O3	O	0.925999	0.101357	-0.079090
O4	O	1.425999	0.601357	0.420910
O5	O	1.063754	-0.005169	-0.079056
O6	O	1.563754	0.494831	0.420944
O7	O	1.048702	0.197043	-0.079096
O8	O	1.548702	0.697043	0.420904
O9	O	1.063738	-0.005175	0.079265
O10	O	1.563738	0.494825	0.579265
O11	O	0.925982	0.101351	0.079232
O12	O	1.425982	0.601351	0.579232
O13	O	1.186441	0.090511	0.079259
O14	O	1.686441	0.590511	0.579259
Zn15	Zn	1.056209	0.095930	0.104382
Zn16	Zn	1.556209	0.595930	0.604382
Zn17	Zn	1.056231	0.095938	-0.104213
Zn18	Zn	1.556231	0.595938	0.395787
O19	O	1.048686	0.197037	0.079226
O20	O	1.548686	0.697037	0.579226
C21	C	0.892669	0.100869	0.000068
C22	C	1.392669	0.600869	0.500068
C23	C	0.793379	0.099416	0.000058
C24	C	1.293379	0.599416	0.500058
C25	C	0.735816	0.161997	0.000047
C26	C	1.235816	0.661997	0.500047
C27	C	0.642524	0.160628	0.000062
C28	C	1.142524	0.660628	0.500062
C29	C	0.606797	0.096677	0.000080
C30	C	1.106797	0.596677	0.500080
C31	C	0.664368	0.034092	0.000094
C32	C	1.164368	0.534092	0.500094
C33	C	0.757658	0.035461	0.000086
C34	C	1.257658	0.535461	0.500086
C35	C	0.469921	0.031241	0.000108
C36	C	0.969921	0.531241	0.500108
C37	C	0.376624	0.029871	0.000113
C38	C	0.876624	0.529871	0.500113
C39	C	0.354786	0.156407	0.000083
C40	C	0.854786	0.656407	0.500083
C41	C	0.448077	0.157777	0.000075
C42	C	0.948077	0.657777	0.500075
C43	C	0.505641	0.095191	0.000087
C44	C	1.005641	0.595191	0.500087
C45	C	1.063262	-0.031050	0.000107
C46	C	1.563262	0.468950	0.500107
C47	C	1.061808	-0.108158	0.000115
C48	C	1.561808	0.391842	0.500115
C49	C	1.142636	-0.152591	0.000128
C50	C	1.642636	0.347409	0.500128
C51	C	1.141271	-0.225043	0.000113
C52	C	1.641271	0.274957	0.500113
C53	C	1.059071	-0.253058	0.000104
C54	C	1.559071	0.246942	0.500104
C55	C	0.978232	-0.208615	0.000085
C56	C	1.478232	0.291385	0.500085
C57	C	0.979600	-0.136166	0.000091
C58	C	1.479600	0.363834	0.500091
C59	C	0.994448	-0.361558	0.055554
C60	C	1.494448	0.138442	0.555554
C61	C	0.993083	-0.434007	0.055554
C62	C	1.493083	0.065993	0.555554
C63	C	1.054848	-0.476517	0.000082
C64	C	1.554848	0.023483	0.500082
C65	C	1.117994	-0.446571	-0.055378
C66	C	1.617994	0.053429	0.444622
C67	C	1.119362	-0.374121	-0.055372
C68	C	1.619362	0.125879	0.444628
C69	C	1.057579	-0.331617	0.000097
C70	C	1.557579	0.168383	0.500097
C71	C	1.134201	-0.599511	0.000077
C72	C	1.634201	-0.099511	0.500077
C73	C	1.132832	-0.671963	0.000056
C74	C	1.632832	-0.171963	0.500056
C75	C	0.969791	-0.655535	0.000038
C76	C	1.469791	-0.155535	0.500038
C77	C	0.971163	-0.583084	0.000050
C78	C	1.471163	-0.083084	0.500050
C79	C	1.053370	-0.555077	0.000074
C80	C	1.553370	-0.055077	0.500074
C81	C	1.219771	0.090999	0.000099
C82	C	1.719771	0.590999	0.500099
C83	C	1.319061	0.092452	0.000103
C84	C	1.819061	0.592452	0.500103
C85	C	1.049178	0.222918	0.000060
C86	C	1.549178	0.722918	0.500060
C87	C	1.050632	0.300026	0.000046
C88	C	1.550632	0.800026	0.500046
N89	N	1.056201	0.095924	0.246743
N90	N	1.556201	0.595924	0.746743
N91	N	1.056246	0.095939	-0.246574
N92	N	1.556246	0.595939	0.253426
C93	C	1.117218	0.048774	0.296576
C94	C	1.617218	0.548774	0.796576
C95	C	1.117224	0.048773	0.396233
C96	C	1.617224	0.548773	0.896233
C97	C	1.056217	0.095927	0.446056
C98	C	1.556217	0.595927	0.946056
C99	C	0.995193	0.143079	0.396217
C100	C	1.495193	0.643079	0.896217
C101	C	0.995183	0.143076	0.296561
C102	C	1.495183	0.643076	0.796561
C103	C	0.995219	0.143084	0.603931
C104	C	1.495219	0.643084	1.103931
C105	C	0.995229	0.143089	0.703593
C106	C	1.495229	0.643089	1.203593
C107	C	1.117259	0.048782	0.703603
C108	C	1.617259	0.548782	1.203603
C109	C	1.117250	0.048778	0.603947
C110	C	1.617250	0.548778	1.103947
C111	C	1.056227	0.095932	0.554115
C112	C	1.556227	0.595932	1.054115
H113	H	0.307912	0.207367	0.000078
H114	H	0.807912	0.707367	0.500078
H115	H	1.166931	0.010386	0.563382
H116	H	1.666931	0.510386	1.063382
H117	H	1.168289	-0.481182	-0.100548
H118	H	1.668289	0.018818	0.399452
N119	N	1.220014	-0.719894	0.000071
N120	N	1.720014	-0.219894	0.500071
H121	H	1.255905	-0.710864	-0.058607
H122	H	1.755905	-0.210864	0.441393
H123	H	1.255805	-0.710866	0.058811
H124	H	1.755805	-0.210866	0.558811
H125	H	0.911305	-0.231430	0.000076
H126	H	1.411305	0.268570	0.500076
H127	H	0.945550	0.181485	0.744154
H128	H	1.445550	0.681485	1.244154
N129	N	0.338087	-0.039103	0.000131
N130	N	0.838087	0.460897	0.500131
H131	H	0.388708	-0.078543	0.000144
H132	H	0.888708	0.421457	0.500144
H133	H	0.299854	-0.042423	0.058824
H134	H	0.799854	0.457577	0.558824
H135	H	1.166908	0.010380	0.436807
H136	H	1.666908	0.510380	0.936807
H137	H	0.595658	0.211588	0.000052
H138	H	1.095658	0.711588	0.500052
N139	N	1.183080	-0.002076	0.757344
N140	N	1.683080	0.497924	1.257344
H141	H	1.173829	0.005077	0.828036
H142	H	1.673829	0.505077	1.328036
H143	H	1.172955	-0.051366	0.739941
H144	H	1.672955	0.448634	1.239941
H145	H	0.477162	0.209852	0.000051
H146	H	0.977162	0.709852	0.500051
N147	N	0.532011	-0.036261	0.000127
N148	N	1.032011	0.463739	0.500127
H149	H	0.495225	-0.076982	0.000136
H150	H	0.995225	0.423018	0.500136
H151	H	0.571191	-0.038446	-0.058568
H152	H	1.071191	0.461554	0.441432
H153	H	0.635272	-0.017978	0.000123
H154	H	1.135272	0.482022	0.500123
H155	H	0.945524	0.181479	0.563360
H156	H	1.445524	0.681479	1.063360
H157	H	0.945515	0.181470	0.436788
H158	H	1.445515	0.681470	0.936788
N159	N	0.929368	0.193926	0.242807
N160	N	1.429368	0.693926	0.742807
H161	H	0.890721	0.223799	0.289490
H162	H	1.390721	0.723799	0.789490
H163	H	0.963475	0.224677	0.201440
H164	H	1.463475	0.724677	0.701440
N165	N	1.228453	-0.272979	0.000125
N166	N	1.728453	0.227021	0.500125
H167	H	1.280737	-0.244242	0.000140
H168	H	1.780737	0.255758	0.500140
H169	H	1.231421	-0.303405	0.058817
H170	H	1.731421	0.196595	0.558817
H171	H	0.804527	-0.015498	0.000094
H172	H	1.304527	0.484502	0.500094
N173	N	0.774346	0.230973	0.000016
N174	N	1.274346	0.730973	0.500016
H175	H	0.723720	0.270410	0.000012
H176	H	1.223720	0.770410	0.500012
H177	H	0.812582	0.234298	0.058702
H178	H	1.312582	0.734298	0.558702
N179	N	1.231306	-0.122393	0.000134
N180	N	1.731306	0.377607	0.500134
H181	H	1.235513	-0.092692	-0.058556
H182	H	1.735513	0.407308	0.441444
H183	H	1.235457	-0.092743	0.058863
H184	H	1.735457	0.407257	0.558863
H185	H	0.941662	-0.458383	0.100707
H186	H	1.441662	0.041617	0.600707
N187	N	1.187460	-0.341820	-0.115185
N188	N	1.687460	0.158180	0.384815
H189	H	1.226384	-0.379739	-0.150329
H190	H	1.726384	0.120261	0.349671
H191	H	1.155116	-0.308436	-0.162562
H192	H	1.655116	0.191564	0.337438
N193	N	1.222862	-0.569296	0.000099
N194	N	1.722862	-0.069296	0.500099
H195	H	1.273861	-0.608441	0.000098
H196	H	1.773861	-0.108441	0.500098
H197	H	1.226986	-0.539580	-0.058587
H198	H	1.726986	-0.039580	0.441413
H199	H	0.902863	-0.678344	0.000026
H200	H	1.402863	-0.178344	0.500026
H201	H	0.905343	-0.546906	0.000044
H202	H	1.405343	-0.046906	0.500044
H203	H	0.944148	-0.326952	0.100731
H204	H	1.444148	0.173048	0.600731
H205	H	0.913778	-0.099988	0.000081
H206	H	1.413778	0.400012	0.500081
H207	H	1.166901	0.010379	0.256016
H208	H	1.666901	0.510379	0.756016
