data_functionalizedCrystal
_audit_creation_method	'MofGen! by Chris Wilmer'
_symmetry_space_group_name_H-M	'P1'
_symmetry_Int_Tables_number	1
_symmetry_cell_setting	triclinic
loop_
_symmetry_equiv_pos_as_xyz
  x,y,z
_cell_length_a	14.472310
_cell_length_b	15.995350
_cell_length_c	15.995350
_cell_angle_alpha	83.492375
_cell_angle_beta	90.001162
_cell_angle_gamma	89.990621
loop_
_atom_site_label
_atom_site_type_symbol
_atom_site_fract_x
_atom_site_fract_y
_atom_site_fract_z
O1	O	0.076758	-1.110997	-0.107921
O2	O	0.076776	-0.867221	-0.121248
O3	O	0.076766	-0.995773	0.007303
O4	O	0.076769	-0.982445	-0.236472
O5	O	-0.076916	-0.995740	0.007296
O6	O	-0.076906	-0.867188	-0.121256
O7	O	-0.076924	-1.110963	-0.107928
Cu8	Cu	-0.090947	-0.989073	-0.114593
Cu9	Cu	0.090800	-0.989112	-0.114584
O10	O	-0.076913	-0.982412	-0.236480
C11	C	-0.000062	-0.836010	-0.120701
C12	C	-0.000055	-0.743060	-0.119049
C13	C	-0.000073	-0.995205	0.038494
C14	C	-0.000068	-0.993553	0.131444
N15	N	-0.218778	-0.989051	-0.114598
C16	C	-0.592869	-0.989111	-0.114581
C17	C	-0.553698	-0.920095	-0.183135
C18	C	-0.446610	-0.920254	-0.183385
C19	C	-0.407278	-0.989081	-0.114590
C20	C	-0.446122	-1.076445	-0.133671
C21	C	-0.553243	-1.076057	-0.134159
C22	C	-0.553398	-0.971542	-0.026741
C23	C	-0.446270	-0.969538	-0.027327
C24	C	-0.302390	-0.989069	-0.114593
C25	C	-0.697757	-0.989128	-0.114579
N26	N	0.218631	-0.989140	-0.114572
C27	C	-0.000083	-1.142175	-0.108476
C28	C	-0.000084	-1.235125	-0.110127
C29	C	-0.000074	-0.405312	-0.113117
C30	C	-0.000418	-0.452746	-0.021565
C31	C	-0.000065	-0.549436	-0.023217
C32	C	-0.000065	-0.572873	-0.116060
C33	C	0.087692	-0.531804	-0.161212
C34	C	0.087759	-0.435169	-0.158912
C35	C	-0.087007	-0.434792	-0.160812
C36	C	-0.088160	-0.531737	-0.160790
C37	C	-0.000057	-0.667570	-0.117727
C38	C	-0.000076	-0.310614	-0.111452
C39	C	-0.000072	-0.982980	-0.267671
C40	C	-0.000071	-0.984631	-0.360621
C41	C	-0.000071	-0.987621	0.469192
C42	C	0.000281	-0.896069	0.421758
C43	C	-0.000066	-0.897721	0.325068
C44	C	-0.000069	-0.990564	0.301631
C45	C	-0.087831	-1.035701	0.342705
C46	C	-0.087904	-1.033401	0.439340
C47	C	0.086861	-1.035330	0.439707
C48	C	0.088021	-1.035309	0.342762
C49	C	-0.000071	-0.992231	0.206934
C50	C	-0.000075	-0.985956	0.563890
H51	H	-0.420349	-0.855314	-0.172016
C52	C	-0.588448	-0.832066	-0.167985
C53	C	-0.652829	-0.821770	-0.093186
C54	C	-0.687546	-0.733733	-0.078008
C55	C	-0.657883	-0.655994	-0.137629
C56	C	-0.593499	-0.666288	-0.212433
C57	C	-0.558781	-0.754324	-0.227611
H58	H	-0.674791	-0.879320	-0.049046
H59	H	-0.735208	-0.726113	-0.022633
H60	H	-0.683583	-0.590824	-0.126394
H61	H	-0.571537	-0.608738	-0.256573
H62	H	-0.511120	-0.761944	-0.282987
H63	H	-0.091888	-1.100617	0.471588
C64	C	0.084917	-0.849778	0.286672
C65	C	0.156677	-0.895439	0.237113
C66	C	0.241661	-0.847488	0.198724
C67	C	0.254885	-0.753875	0.209895
C68	C	0.183123	-0.708209	0.259456
C69	C	0.098139	-0.756160	0.297845
H70	H	0.146890	-0.964741	0.228842
H71	H	0.294783	-0.881293	0.162036
H72	H	0.317795	-0.718379	0.181477
H73	H	0.192911	-0.638907	0.267727
H74	H	0.045017	-0.722354	0.334534
C75	C	0.175762	-0.990776	0.305966
C76	C	0.247374	-1.039822	0.259594
C77	C	0.335126	-0.995279	0.222830
C78	C	0.351265	-0.901690	0.232437
C79	C	0.279650	-0.852639	0.278811
C80	C	0.191899	-0.897182	0.315575
H81	H	0.235429	-1.109106	0.252480
H82	H	0.388139	-1.031591	0.188501
H83	H	0.416223	-0.868717	0.205222
H84	H	0.291596	-0.783354	0.285924
H85	H	0.138886	-0.860870	0.349904
C86	C	-0.411966	-0.882721	-0.007761
C87	C	-0.307626	-0.865776	-0.001177
C88	C	-0.273310	-0.778960	0.018384
C89	C	-0.343334	-0.709089	0.031360
C90	C	-0.447681	-0.726031	0.024776
C91	C	-0.481997	-0.812848	0.005215
H92	H	-0.255783	-0.917501	-0.010783
H93	H	-0.196065	-0.766419	0.023257
H94	H	-0.317932	-0.644822	0.045840
H95	H	-0.499523	-0.674306	0.034382
H96	H	-0.559242	-0.825389	0.000342
C97	C	-0.085253	-0.849463	0.287499
C98	C	-0.182979	-0.878837	0.315276
C99	C	-0.268200	-0.830592	0.277749
C100	C	-0.255694	-0.752973	0.212446
C101	C	-0.157964	-0.723596	0.184665
C102	C	-0.072743	-0.771841	0.222191
H103	H	-0.192240	-0.936298	0.363621
H104	H	-0.340546	-0.852340	0.298315
H105	H	-0.318779	-0.717260	0.184666
H106	H	-0.148703	-0.666134	0.136320
H107	H	-0.000397	-0.750093	0.201626
H108	H	0.093317	-1.103014	0.327400
H109	H	-0.153137	-1.004324	0.314320
H110	H	0.062168	-0.433166	0.014865
C111	C	-0.410115	-1.033041	0.044822
C112	C	-0.478549	-1.088242	0.100328
C113	C	-0.442397	-1.151756	0.172473
C114	C	-0.337811	-1.160070	0.189111
C115	C	-0.269371	-1.104868	0.133603
C116	C	-0.305523	-1.041353	0.061459
H117	H	-0.555976	-1.082089	0.088013
H118	H	-0.493062	-1.192621	0.213564
H119	H	-0.311049	-1.207088	0.242517
H120	H	-0.191944	-1.111021	0.145919
H121	H	-0.254858	-1.000489	0.020368
H122	H	-0.087600	-0.403031	-0.228313
C123	C	0.085303	-0.846652	0.446801
C124	C	0.072411	-0.764984	0.488032
C125	C	0.157438	-0.715570	0.513083
C126	C	0.255357	-0.747824	0.496903
C127	C	0.268253	-0.829495	0.455669
C128	C	0.183226	-0.878910	0.430618
H129	H	-0.000078	-0.741105	0.500011
H130	H	0.147891	-0.655111	0.543607
H131	H	0.318299	-0.711244	0.515447
H132	H	0.340742	-0.853375	0.443690
H133	H	0.192773	-0.939369	0.400095
H134	H	0.090955	-0.545930	-0.229421
H135	H	-0.093461	-0.547101	-0.228494
H136	H	-0.062299	-0.859626	0.441349
H137	H	-0.420643	-1.129029	-0.085068
C138	C	-0.085427	-0.427693	0.027878
C139	C	-0.155577	-0.363856	-0.014269
C140	C	-0.240586	-0.338792	0.035178
C141	C	-0.255446	-0.377565	0.126771
C142	C	-0.185294	-0.441405	0.168923
C143	C	-0.100285	-0.466469	0.119476
H144	H	-0.144579	-0.335151	-0.082076
H145	H	-0.292517	-0.291533	0.003973
H146	H	-0.318374	-0.359011	0.163374
H147	H	-0.196292	-0.470111	0.236730
H148	H	-0.048354	-0.513729	0.150680
C149	C	-0.588253	-1.147913	-0.069723
C150	C	-0.692774	-1.162428	-0.057266
C151	C	-0.727778	-1.234474	0.006949
C152	C	-0.658261	-1.292006	0.058706
C153	C	-0.553734	-1.277494	0.046251
C154	C	-0.518730	-1.205447	-0.017964
H155	H	-0.744241	-1.119838	-0.095581
H156	H	-0.805157	-1.245218	0.016169
H157	H	-0.684173	-1.345340	0.106242
H158	H	-0.502267	-1.320084	0.084566
H159	H	-0.441351	-1.194704	-0.027184
C160	C	-0.590017	-0.935086	-0.270698
C161	C	-0.694691	-0.933909	-0.288095
C162	C	-0.730999	-0.948926	-0.375654
C163	C	-0.662633	-0.965120	-0.445817
C164	C	-0.557953	-0.966297	-0.428423
C165	C	-0.521645	-0.951280	-0.340863
H166	H	-0.745304	-0.921921	-0.236154
H167	H	-0.808490	-0.948055	-0.388530
H168	H	-0.689511	-0.976236	-0.510634
H169	H	-0.507339	-0.978285	-0.480364
H170	H	-0.444154	-0.952151	-0.327987
C171	C	0.176375	-0.410448	-0.114417
C172	C	0.195578	-0.447056	-0.022837
C173	C	0.284195	-0.422342	0.021661
C174	C	0.353610	-0.361019	-0.025420
C175	C	0.334410	-0.324407	-0.117005
C176	C	0.245792	-0.349122	-0.161503
H177	H	0.144191	-0.492455	0.012020
H178	H	0.298408	-0.449445	0.089458
H179	H	0.419210	-0.342724	0.007520
H180	H	0.385796	-0.279009	-0.151862
H181	H	0.231579	-0.322019	-0.229300
H182	H	-0.419285	-1.092297	-0.197002
C183	C	-0.586993	-1.096967	-0.220700
C184	C	-0.691256	-1.100942	-0.239059
C185	C	-0.725000	-1.121851	-0.325602
C186	C	-0.654481	-1.138786	-0.393788
C187	C	-0.550211	-1.134812	-0.375431
C188	C	-0.516467	-1.113903	-0.288887
H189	H	-0.743465	-1.088405	-0.188582
H190	H	-0.802188	-1.124792	-0.339191
H191	H	-0.679460	-1.154264	-0.457853
H192	H	-0.498003	-1.147349	-0.425908
H193	H	-0.439279	-1.110961	-0.275299
H194	H	-0.153505	-1.000459	0.457639
H195	H	-0.062973	-0.577852	0.012275
C196	C	-0.175880	-0.568959	-0.116558
C197	C	-0.271884	-0.538953	-0.148866
C198	C	-0.359607	-0.576351	-0.104776
C199	C	-0.351325	-0.643755	-0.028378
C200	C	-0.255317	-0.673764	0.003934
C201	C	-0.167594	-0.636367	-0.040156
H202	H	-0.278018	-0.489054	-0.205424
H203	H	-0.430678	-0.554135	-0.128695
H204	H	-0.416262	-0.671439	0.004261
H205	H	-0.249183	-0.723664	0.060492
H206	H	-0.096523	-0.658582	-0.016236
H207	H	0.062951	-0.577308	0.012521
H208	H	0.153379	-1.005412	0.460250
H209	H	-0.153524	-0.414242	-0.130885
H210	H	-0.091097	-1.103909	0.328579
C211	C	0.087659	-1.126521	0.482608
C212	C	0.009854	-1.157582	0.544091
C213	C	0.010640	-1.248770	0.586993
C214	C	0.089231	-1.308896	0.568411
C215	C	0.167041	-1.277836	0.506925
C216	C	0.166255	-1.186648	0.464023
H217	H	-0.048329	-1.113072	0.557849
H218	H	-0.046961	-1.271762	0.632509
H219	H	0.089813	-1.376399	0.600170
H220	H	0.225224	-1.322346	0.493167
H221	H	0.223856	-1.163656	0.418507
H222	H	-0.420976	-0.931473	-0.248569
H223	H	-0.580461	-0.909219	-0.008392
H224	H	-0.578728	-1.021872	0.024275
H225	H	0.091741	-0.402921	-0.226128
H226	H	0.153002	-0.560193	-0.129845
