data_functionalizedCrystal
_audit_creation_method	'MofGen! by Chris Wilmer'
_symmetry_space_group_name_H-M	'P1'
_symmetry_Int_Tables_number	1
_symmetry_cell_setting	triclinic
loop_
_symmetry_equiv_pos_as_xyz
  x,y,z
_cell_length_a	13.032831
_cell_length_b	18.101395
_cell_length_c	13.032268
_cell_angle_alpha	82.853748
_cell_angle_beta	89.113023
_cell_angle_gamma	82.835691
loop_
_atom_site_label
_atom_site_type_symbol
_atom_site_fract_x
_atom_site_fract_y
_atom_site_fract_z
Zn1	Zn	1.498320	-0.500117	0.780796
Zn2	Zn	1.520028	-0.610451	0.608808
Zn3	Zn	1.348189	-0.469181	0.587040
Zn4	Zn	1.326277	-0.606447	0.758934
O5	O	1.423203	-0.546549	0.683894
O6	O	1.645116	-0.529375	0.776242
O7	O	1.515487	-0.580440	0.462005
O8	O	1.368189	-0.369663	0.612782
O9	O	1.661064	-0.610437	0.649882
O10	O	1.478491	-0.392391	0.755134
O11	O	1.389238	-0.476650	0.446012
O12	O	1.201366	-0.472767	0.591582
O13	O	1.330844	-0.603613	0.905750
O14	O	1.185268	-0.573616	0.717872
O15	O	1.457244	-0.525493	0.921812
O16	O	1.494241	-0.713541	0.628683
O17	O	1.351893	-0.710600	0.738979
C18	C	1.156001	-0.519401	0.649993
C19	C	1.041687	-0.507806	0.635514
C20	C	0.982797	-0.552600	0.691451
C21	C	0.864648	-0.540618	0.676488
C22	C	1.423070	-0.738943	0.683847
C23	C	1.423102	-0.821262	0.683873
C24	C	1.423321	-1.120381	0.683957
C25	C	1.333919	-1.087270	0.753573
C26	C	1.333573	-1.001594	0.753276
C27	C	1.423212	-0.971985	0.683916
C28	C	1.407642	-0.991648	0.571811
C29	C	1.407070	-1.077279	0.572223
C30	C	1.528588	-1.101951	0.725513
C31	C	1.527646	-1.016421	0.727809
C32	C	1.423153	-0.888117	0.683886
C33	C	1.423378	-1.204247	0.683979
C34	C	1.691449	-0.573804	0.717929
C35	C	1.805759	-0.585418	0.732432
C36	C	1.389178	-0.567557	0.952140
C37	C	1.374679	-0.576509	1.066450
C38	C	1.423363	-0.353408	0.683968
C39	C	1.423431	-0.271103	0.684000
C40	C	1.457155	-0.525575	0.416700
C41	C	1.471854	-0.516434	0.302416
C42	C	1.430755	-0.541848	1.125361
C43	C	1.415770	-0.551100	1.243507
H44	H	1.004636	-0.460583	0.576551
H45	H	1.341720	-0.988702	0.835969
H46	H	1.356658	-0.587621	1.280533
C47	C	1.492663	-0.965849	0.499981
C48	C	1.546556	-1.027862	0.460121
C49	C	1.624909	-1.004135	0.393974
H50	H	1.462937	-0.930924	0.444743
H51	H	1.538996	-0.942623	0.537398
H52	H	1.500231	-1.051076	0.422706
H53	H	1.576305	-1.062793	0.515335
H54	H	1.671242	-0.980909	0.431391
H55	H	1.595175	-0.969209	0.338742
H56	H	1.661492	-1.046207	0.366929
C57	C	1.617316	-1.130790	0.658230
C58	C	1.710612	-1.114027	0.695990
C59	C	1.792358	-1.140577	0.634024
H60	H	1.619741	-1.183573	0.659655
H61	H	1.607065	-1.107374	0.589152
H62	H	1.720861	-1.137446	0.765050
H63	H	1.708221	-1.061249	0.694562
H64	H	1.782107	-1.117160	0.564946
H65	H	1.794773	-1.193359	0.635454
H66	H	1.855667	-1.129201	0.659630
H67	H	1.331997	-0.960395	0.537896
C68	C	1.305093	-1.090935	0.527414
C69	C	1.303501	-1.168121	0.527291
C70	C	1.209578	-1.180724	0.486011
H71	H	1.249549	-1.071570	0.568317
H72	H	1.298014	-1.066498	0.458577
H73	H	1.310568	-1.192549	0.596115
H74	H	1.359023	-1.187503	0.486383
H75	H	1.202500	-1.156287	0.417174
H76	H	1.154042	-1.161355	0.526918
H77	H	1.208489	-1.233095	0.485913
C78	C	1.032314	-0.615464	0.770156
C79	C	1.085676	-0.584990	0.843920
C80	C	1.131312	-0.642879	0.916432
H81	H	0.980154	-0.642051	0.803424
H82	H	1.079255	-0.648812	0.736037
H83	H	1.038739	-0.551655	0.878035
H84	H	1.137852	-0.558408	0.810683
H85	H	1.178253	-0.676227	0.882313
H86	H	1.079145	-0.669463	0.949692
H87	H	1.167531	-0.622211	0.966483
H88	H	1.315571	-0.613028	1.103481
H89	H	1.256075	-1.099292	0.725253
H90	H	1.470108	-1.098787	0.517844
H91	H	1.545469	-1.132313	0.806592
C92	C	1.229066	-0.961619	0.715245
C93	C	1.151285	-0.986664	0.781088
C94	C	1.054995	-0.949864	0.746073
H95	H	1.228333	-0.909052	0.714930
H96	H	1.217236	-0.972248	0.647143
H97	H	1.163111	-0.976029	0.849173
H98	H	1.151984	-1.039226	0.781412
H99	H	1.043165	-0.960493	0.677970
H100	H	1.054273	-0.897298	0.745758
H101	H	1.002208	-0.966856	0.790736
H102	H	0.827601	-0.493392	0.617521
C103	C	1.344625	-1.125686	0.864086
C104	C	1.431741	-1.179801	0.871656
C105	C	1.441628	-1.215220	0.973443
H106	H	1.352243	-1.089514	0.909441
H107	H	1.284619	-1.149191	0.882638
H108	H	1.491732	-1.156297	0.853117
H109	H	1.424144	-1.215989	0.826324
H110	H	1.381622	-1.238725	0.991994
H111	H	1.449242	-1.179042	1.018789
H112	H	1.500730	-1.251946	0.978590
C113	C	0.855265	-0.648284	0.811146
C114	C	0.908624	-0.617811	0.884912
C115	C	0.954251	-0.675699	0.957431
H116	H	0.803100	-0.674868	0.844411
H117	H	0.902206	-0.681636	0.777033
H118	H	0.861687	-0.584472	0.919022
H119	H	0.960805	-0.591232	0.851678
H120	H	1.001192	-0.709050	0.923317
H121	H	0.902079	-0.702280	0.990687
H122	H	0.990468	-0.655032	1.007483
C123	C	1.550532	-0.467590	1.253106
C124	C	1.524891	-0.394076	1.276342
C125	C	1.597335	-0.349056	1.230930
H126	H	1.617454	-0.486713	1.279388
H127	H	1.550129	-0.467785	1.180248
H128	H	1.525304	-0.393884	1.349186
H129	H	1.457981	-0.374930	1.250060
H130	H	1.596933	-0.349251	1.158071
H131	H	1.664253	-0.368186	1.257215
H132	H	1.579943	-0.299171	1.246681
C133	C	1.543551	-1.000773	0.837997
C134	C	1.549983	-1.068121	0.904612
C135	C	1.564594	-1.053736	1.006133
H136	H	1.605747	-0.978924	0.841896
H137	H	1.486888	-0.967186	0.857782
H138	H	1.606641	-1.101697	0.884833
H139	H	1.487795	-1.089980	0.900745
H140	H	1.507931	-1.020149	1.025918
H141	H	1.626790	-1.031886	1.010021
H142	H	1.568950	-1.099428	1.051345
H143	H	1.596674	-0.997101	0.681897
H144	H	1.489853	-0.505321	1.088329
