data_functionalizedCrystal
_audit_creation_method	'MofGen! by Chris Wilmer'
_symmetry_space_group_name_H-M	'P1'
_symmetry_Int_Tables_number	1
_symmetry_cell_setting	triclinic
loop_
_symmetry_equiv_pos_as_xyz
  x,y,z
_cell_length_a	10.489716
_cell_length_b	27.732048
_cell_length_c	9.565339
_cell_angle_alpha	90.003958
_cell_angle_beta	90.003468
_cell_angle_gamma	83.585895
loop_
_atom_site_label
_atom_site_type_symbol
_atom_site_fract_x
_atom_site_fract_y
_atom_site_fract_z
O1	O	1.691077	0.068130	0.116266
O2	O	1.319596	0.074543	0.116273
O3	O	1.516874	0.001013	0.116242
O4	O	1.493799	0.141661	0.116296
O5	O	1.516857	0.001018	-0.116278
O6	O	1.319579	0.074549	-0.116248
O7	O	1.691060	0.068136	-0.116254
Zn8	Zn	1.505317	0.071343	-0.153169
Zn9	Zn	1.505339	0.071336	0.153187
O10	O	1.493782	0.141667	-0.116224
C11	C	1.272076	0.074064	0.000013
C12	C	1.130509	0.072623	0.000014
C13	C	1.030853	0.117714	0.000035
C14	C	0.954546	0.093890	-0.114625
C15	C	0.954569	0.093874	0.114622
C16	C	1.056066	0.048817	-0.114740
C17	C	1.056095	0.048808	0.114610
C18	C	0.979838	0.024950	-0.000079
C19	C	1.516381	-0.016995	-0.000022
C20	C	1.514923	-0.070659	-0.000033
C21	C	1.622319	-0.408799	0.000037
C22	C	1.616907	-0.610493	0.000056
O23	O	1.715114	-0.641132	0.000116
N24	N	1.499929	-0.630351	0.000057
C25	C	1.384296	-0.599782	0.000062
O26	O	1.284675	-0.621301	0.000078
C27	C	1.389709	-0.398090	0.000053
C28	C	1.506695	-0.378235	0.000038
C29	C	1.739295	-0.388944	0.000023
C30	C	1.740646	-0.338523	0.000011
C31	C	1.625022	-0.307958	0.000012
C32	C	1.508046	-0.327814	0.000025
C33	C	1.274077	-0.367522	0.000068
C34	C	1.275441	-0.317096	0.000069
C35	C	1.392426	-0.297241	0.000054
C36	C	1.393774	-0.246829	0.000014
N37	N	1.510751	-0.226971	0.000013
C38	C	1.626376	-0.257536	0.000012
C39	C	1.381463	-0.705674	0.000065
C40	C	1.380109	-0.756097	0.000064
C41	C	1.612721	-0.766804	0.000061
C42	C	1.614073	-0.716380	0.000051
C43	C	1.498441	-0.685816	0.000064
C44	C	1.629205	-0.151649	-0.000016
C45	C	1.630547	-0.101223	-0.000034
C46	C	1.397936	-0.090521	-0.000023
C47	C	1.396594	-0.140942	-0.000012
C48	C	1.512239	-0.171505	-0.000004
O49	O	1.295620	-0.216161	-0.000030
O50	O	1.725982	-0.236008	0.000027
C51	C	1.620967	-0.459220	0.000049
C52	C	1.503991	-0.479076	0.000063
C53	C	1.388367	-0.448511	0.000064
C54	C	1.502638	-0.529498	0.000063
C55	C	1.618262	-0.560063	0.000062
C56	C	1.735240	-0.540205	0.000061
C57	C	1.736591	-0.489785	0.000048
C58	C	1.271389	-0.468369	0.000065
C59	C	1.270047	-0.518790	0.000075
C60	C	1.385671	-0.549355	0.000075
C61	C	1.738580	0.068615	0.000008
C62	C	1.880147	0.070057	0.000016
C63	C	1.494275	0.159674	0.000043
C64	C	1.495733	0.213338	0.000064
N65	N	1.505311	0.071348	-0.362248
C66	C	1.414812	0.105619	-0.546607
C67	C	1.389873	0.061991	-0.453397
C68	C	1.530193	0.114972	-0.453388
C69	C	1.480360	0.027677	-0.546576
C70	C	1.620729	0.080687	-0.546576
C71	C	1.595840	0.037028	-0.453408
N72	N	1.505355	0.071327	0.362266
H73	H	0.910220	0.112927	-0.211545
H74	H	1.100434	0.029785	0.211534
O75	O	1.749957	0.091177	-0.600850
H76	H	1.737882	0.124408	-0.666358
H77	H	1.053798	0.156937	-0.000057
O78	O	1.859948	-0.573179	0.000060
H79	H	1.915970	-0.566080	-0.094720
O80	O	1.756734	-0.079811	-0.000047
H81	H	1.738259	-0.039614	-0.000068
H82	H	0.957133	-0.014301	-0.000160
H83	H	1.174777	-0.534951	0.000075
H84	H	1.100212	0.029796	-0.211771
O85	O	0.895877	0.119090	0.243017
H86	H	0.915842	0.157560	0.242781
H87	H	1.723375	-0.176528	-0.000003
O88	O	1.452342	-0.021214	-0.600549
H89	H	1.452528	-0.020832	-0.716582
O90	O	1.866823	-0.317110	0.000035
H91	H	1.946985	-0.346841	0.000059
O92	O	1.864014	-0.421907	0.000002
H93	H	1.945568	-0.399620	-0.000021
O94	O	1.147895	-0.388928	0.000096
H95	H	1.141680	-0.411643	-0.094676
O96	O	1.558066	0.163850	-0.399171
H97	H	1.482796	0.192239	-0.436517
O98	O	1.697247	-0.001410	-0.399524
H99	H	1.676301	-0.037572	-0.437048
O100	O	1.740247	-0.694965	0.000061
H101	H	1.820413	-0.724695	0.000072
O102	O	1.737435	-0.799774	0.000070
H103	H	1.716828	-0.838171	0.000084
H104	H	1.284848	-0.772259	0.000052
H105	H	1.287295	-0.680793	0.000074
H106	H	1.292287	0.054082	-0.412458
O107	O	1.150721	-0.284129	0.000066
H108	H	1.069156	-0.306411	0.000062
O109	O	1.270422	-0.162362	-0.000001
H110	H	1.190250	-0.132635	0.000004
O111	O	1.273229	-0.057551	-0.000020
H112	H	1.293834	-0.019154	-0.000015
O113	O	1.862774	-0.468375	0.000061
H114	H	1.918286	-0.480630	-0.094700
O115	O	1.146674	-0.435405	0.000040
H116	H	1.065116	-0.457690	0.000026
O117	O	1.313356	0.143973	-0.600847
H118	H	1.217657	0.136090	-0.563534
