data_functionalizedCrystal
_audit_creation_method	'MofGen! by Chris Wilmer'
_symmetry_space_group_name_H-M	'P1'
_symmetry_Int_Tables_number	1
_symmetry_cell_setting	triclinic
loop_
_symmetry_equiv_pos_as_xyz
  x,y,z
_cell_length_a	16.625547
_cell_length_b	18.050589
_cell_length_c	16.625539
_cell_angle_alpha	90.024824
_cell_angle_beta	90.024822
_cell_angle_gamma	90.028158
loop_
_atom_site_label
_atom_site_type_symbol
_atom_site_fract_x
_atom_site_fract_y
_atom_site_fract_z
Zn1	Zn	1.232648	-0.295659	0.456020
Zn2	Zn	1.232538	-0.419857	0.321196
Zn3	Zn	1.097810	-0.295685	0.321191
Zn4	Zn	1.097767	-0.419812	0.455976
O5	O	1.165191	-0.357753	0.388596
O6	O	1.345466	-0.312142	0.438156
O7	O	1.214638	-0.403415	0.208363
O8	O	1.115761	-0.191757	0.339093
O9	O	1.345385	-0.403390	0.339101
O10	O	1.214826	-0.191738	0.438152
O11	O	1.115654	-0.312187	0.208359
O12	O	0.984972	-0.312143	0.339050
O13	O	1.115687	-0.403313	0.568814
O14	O	0.984940	-0.403338	0.438075
O15	O	1.214784	-0.312099	0.568847
O16	O	1.214596	-0.523776	0.339058
O17	O	1.115580	-0.523742	0.438080
C18	C	0.955700	-0.357739	0.388558
C19	C	0.866079	-0.357751	0.388560
C20	C	0.793296	-0.357752	0.388570
C21	C	0.701988	-0.357756	0.388591
C22	C	0.629212	-0.357763	0.388611
C23	C	0.537897	-0.357768	0.388630
C24	C	1.165093	-0.550706	0.388582
C25	C	1.165126	-0.633251	0.388603
C26	C	1.111334	-0.832711	0.442433
C27	C	1.091677	-0.882153	0.368856
C28	C	1.165205	-0.784382	0.388614
C29	C	1.184901	-0.882021	0.462200
C30	C	1.165280	-0.930367	0.388631
C31	C	1.145510	-0.832736	0.314998
C32	C	1.238767	-0.832601	0.408392
C33	C	1.219139	-0.882020	0.334763
C34	C	1.165160	-0.700283	0.388605
C35	C	1.165325	-1.014463	0.388631
C36	C	1.375500	-0.357768	0.388634
C37	C	1.465121	-0.357775	0.388651
C38	C	1.165243	-0.357698	0.598905
C39	C	1.165266	-0.357674	0.688526
C40	C	1.165311	-0.164048	0.388627
C41	C	1.165362	-0.081502	0.388640
C42	C	1.165185	-0.357755	0.179105
C43	C	1.165319	-0.357569	0.089484
C44	C	1.165303	-0.357591	1.016702
C45	C	1.165290	-0.357617	0.925393
C46	C	1.165285	-0.357633	0.852617
C47	C	1.165271	-0.357658	0.761302
H48	H	1.065710	-0.811059	0.487881
H49	H	1.029503	-0.903934	0.352143
H50	H	1.300928	-0.810821	0.425140
H51	H	1.128809	-0.811176	0.252757
N52	N	1.279527	-0.910521	0.274419
H53	H	1.251122	-0.942078	0.233031
H54	H	1.321436	-0.941244	0.303056
H55	H	1.201530	-0.903671	0.524424
