data_functionalizedCrystal
_audit_creation_method	'MofGen! by Chris Wilmer'
_symmetry_space_group_name_H-M	'P1'
_symmetry_Int_Tables_number	1
_symmetry_cell_setting	triclinic
loop_
_symmetry_equiv_pos_as_xyz
  x,y,z
_cell_length_a	10.686220
_cell_length_b	12.594516
_cell_length_c	10.686551
_cell_angle_alpha	94.403300
_cell_angle_beta	89.691918
_cell_angle_gamma	94.397503
loop_
_atom_site_label
_atom_site_type_symbol
_atom_site_fract_x
_atom_site_fract_y
_atom_site_fract_z
Zn1	Zn	1.972283	-0.259491	0.562399
Zn2	Zn	1.956050	-0.452140	0.352650
Zn3	Zn	1.746401	-0.286719	0.368718
Zn4	Zn	1.762480	-0.449983	0.578427
O5	O	1.859303	-0.362083	0.465548
O6	O	2.145671	-0.274554	0.521143
O7	O	1.914717	-0.442494	0.179236
O8	O	1.776429	-0.134156	0.394426
O9	O	2.133745	-0.416093	0.367041
O10	O	1.942383	-0.114152	0.536723
O11	O	1.760688	-0.320960	0.191041
O12	O	1.572992	-0.318868	0.409968
O13	O	1.803834	-0.412416	0.751846
O14	O	1.584805	-0.438818	0.564041
O15	O	1.957975	-0.272463	0.740070
O16	O	1.930308	-0.600805	0.382583
O17	O	1.788093	-0.599220	0.548461
C18	C	1.533382	-0.381564	0.490488
C19	C	1.393954	-0.389922	0.501188
C20	C	1.859220	-0.638630	0.465542
C21	C	1.859303	-0.756928	0.465573
C22	C	1.781939	-0.825363	0.555736
C23	C	1.742587	-0.906041	0.443608
C24	C	1.898771	-0.887040	0.577711
C25	C	1.819885	-0.836056	0.353389
C26	C	1.976128	-0.817041	0.487566
C27	C	1.936813	-0.897690	0.375356
C28	C	2.186497	-0.342527	0.440512
C29	C	2.325928	-0.334193	0.429842
C30	C	1.884508	-0.339162	0.792747
C31	C	1.895249	-0.329394	0.932180
C32	C	1.859423	-0.084453	0.465579
C33	C	1.859474	0.033857	0.465592
C34	C	1.834268	-0.384834	0.139617
C35	C	1.823770	-0.394288	0.000166
H36	H	1.374354	-0.280088	0.360574
O37	O	1.741101	-0.469630	0.942399
C38	C	1.770889	-0.571863	0.972244
H39	H	1.873848	-0.568742	1.000685
H40	H	1.709401	-0.598452	1.053343
C41	C	1.620954	-0.655672	0.821944
C42	C	1.747412	-0.651840	0.856865
H43	H	1.606467	-0.705007	0.750776
H44	H	1.600881	-0.586796	0.801839
H45	H	1.569728	-0.677826	0.889536
H46	H	1.798634	-0.629673	0.789279
H47	H	1.767493	-0.720714	0.876955
O48	O	1.977962	-0.254217	0.990197
C49	C	1.970653	-0.260879	1.121166
H50	H	1.875185	-0.300300	1.146345
H51	H	2.047872	-0.310535	1.152652
C52	C	2.104574	-0.099410	1.156763
C53	C	1.987315	-0.147819	1.187688
H54	H	2.114858	-0.029671	1.197799
H55	H	2.109503	-0.094923	1.068526
H56	H	2.168910	-0.140801	1.183002
H57	H	1.922982	-0.106435	1.161435
H58	H	1.982376	-0.152297	1.275923
H59	H	1.932083	-0.909763	0.672537
O60	O	1.335989	-0.454394	0.583802
C61	C	1.205010	-0.448689	0.576437
H62	H	1.184086	-0.370415	0.536861
H63	H	1.162650	-0.518630	0.512331
C64	C	1.173121	-0.549850	0.757060
C65	C	1.147421	-0.453708	0.708461
H66	H	1.137595	-0.552951	0.838496
H67	H	1.261363	-0.553698	0.762020
H68	H	1.137820	-0.608124	0.703626
H69	H	1.182735	-0.395437	0.761886
H70	H	1.059183	-0.449851	0.703513
O71	O	2.015104	-0.935187	0.284382
C72	C	2.137680	-0.888035	0.306768
H73	H	2.133061	-0.809511	0.366616
H74	H	2.194079	-0.944410	0.358287
C75	C	2.207302	-0.962891	0.107276
C76	C	2.201628	-0.866442	0.180774
H77	H	2.246752	-0.949576	0.029558
H78	H	2.124722	-0.994662	0.092195
H79	H	2.254299	-1.009861	0.150223
H80	H	2.154620	-0.819480	0.137833
H81	H	2.284203	-0.834663	0.195844
O82	O	1.624753	-0.952271	0.421624
C83	C	1.543390	-0.915348	0.516864
H84	H	1.600225	-0.886044	0.604435
H85	H	1.491789	-0.846870	0.483234
C86	C	1.377639	-1.043097	0.440480
C87	C	1.447443	-1.007113	0.548039
H88	H	1.318450	-1.099699	0.459707
H89	H	1.432453	-1.067970	0.376311
H90	H	1.334650	-0.986023	0.412465
H91	H	1.490444	-1.064182	0.576043
H92	H	1.392635	-0.982251	0.612214
O93	O	1.779975	-0.808939	0.240331
C94	C	1.780345	-0.696884	0.241693
H95	H	1.773989	-0.661412	0.342718
H96	H	1.870851	-0.663527	0.197360
C97	C	1.674881	-0.711025	0.042518
C98	C	1.667064	-0.667459	0.166598
H99	H	1.605008	-0.692873	-0.003808
H100	H	1.674636	-0.786519	0.041597
H101	H	1.750308	-0.683224	0.005591
H102	H	1.591646	-0.695271	0.203528
H103	H	1.667293	-0.591969	0.167524
H104	H	1.716381	-0.793643	0.631890
H105	H	2.074827	-0.778222	0.506205
