data_functionalizedCrystal
_audit_creation_method	'MofGen! by Chris Wilmer'
_symmetry_space_group_name_H-M	'P1'
_symmetry_Int_Tables_number	1
_symmetry_cell_setting	triclinic
loop_
_symmetry_equiv_pos_as_xyz
  x,y,z
_cell_length_a	19.288864
_cell_length_b	19.288864
_cell_length_c	17.766277
_cell_angle_alpha	90.023305
_cell_angle_beta	89.979562
_cell_angle_gamma	96.863758
loop_
_atom_site_label
_atom_site_type_symbol
_atom_site_fract_x
_atom_site_fract_y
_atom_site_fract_z
O1	O	-0.921351	0.086644	0.062871
O2	O	-0.421351	0.586644	0.562871
O3	O	-0.719090	0.098333	0.062825
O4	O	-0.219090	0.598333	0.562825
O5	O	-0.826065	-0.008642	0.062803
O6	O	-0.326065	0.491358	0.562803
O7	O	-0.814376	0.193619	0.062893
O8	O	-0.314376	0.693619	0.562893
O9	O	-0.826051	-0.008638	-0.062386
O10	O	-0.326051	0.491362	0.437614
O11	O	-0.719076	0.098337	-0.062364
O12	O	-0.219076	0.598337	0.437636
O13	O	-0.921337	0.086648	-0.062317
O14	O	-0.421337	0.586648	0.437683
Cu15	Cu	-0.820205	0.092493	-0.073771
Cu16	Cu	-0.320205	0.592493	0.426229
Cu17	Cu	-0.820222	0.092488	0.074279
Cu18	Cu	-0.320222	0.592488	0.574279
O19	O	-0.814362	0.193623	-0.062295
O20	O	-0.314362	0.693623	0.437705
C21	C	-0.693207	0.097959	0.000224
C22	C	-0.193207	0.597959	0.500224
C23	C	-0.616103	0.096830	0.000203
C24	C	-0.116103	0.596830	0.500203
C25	C	-0.825682	-0.034516	0.000198
C26	C	-0.325682	0.465484	0.500198
C27	C	-0.824553	-0.111620	0.000167
C28	C	-0.324553	0.388380	0.500167
C29	C	-0.947220	0.087022	0.000286
C30	C	-0.447220	0.587022	0.500286
C31	C	-1.024324	0.088151	0.000311
C32	C	-0.524324	0.588151	0.500311
C33	C	-0.814745	0.219497	0.000311
C34	C	-0.314745	0.719497	0.500311
C35	C	-0.815874	0.296601	0.000347
C36	C	-0.315874	0.796601	0.500347
C37	C	-0.571407	0.159598	0.000243
C38	C	-0.071407	0.659598	0.500243
C39	C	-0.498960	0.158537	0.000251
C40	C	0.001040	0.658537	0.500251
C41	C	-0.471212	0.094705	0.000234
C42	C	0.028788	0.594705	0.500234
C43	C	-0.515918	0.031929	0.000190
C44	C	-0.015918	0.531929	0.500190
C45	C	-0.588364	0.032991	0.000175
C46	C	-0.088364	0.532991	0.500175
C47	C	-0.362955	0.044524	0.044096
C48	C	0.137045	0.544524	0.544096
C49	C	-0.290511	0.043464	0.044116
C50	C	0.209489	0.543464	0.544116
C51	C	-0.247767	0.091425	0.000278
C52	C	0.252233	0.591425	0.500278
C53	C	-0.277474	0.140457	-0.043570
C54	C	0.222526	0.640457	0.456430
C55	C	-0.349920	0.141520	-0.043585
C56	C	0.150080	0.641520	0.456415
C57	C	-0.392658	0.093546	0.000250
C58	C	0.107342	0.593546	0.500250
C59	C	-0.124514	0.153047	0.000326
C60	C	0.375486	0.653047	0.500326
C61	C	-0.052066	0.151984	0.000329
C62	C	0.447934	0.651984	0.500329
C63	C	-0.069026	0.025374	0.000275
C64	C	0.430974	0.525374	0.500275
C65	C	-0.141473	0.026439	0.000265
C66	C	0.358527	0.526439	0.500265
C67	C	-0.169212	0.090278	0.000293
C68	C	0.330788	0.590278	0.500293
N69	N	-0.820198	0.092495	-0.177902
N70	N	-0.320198	0.592495	0.322098
C71	C	-0.753106	0.341297	0.000317
C72	C	-0.253106	0.841297	0.500317
C73	C	-0.754167	0.413744	0.000301
C74	C	-0.254167	0.913744	0.500301
C75	C	-0.817999	0.441492	0.000298
C76	C	-0.317999	0.941492	0.500298
C77	C	-0.880775	0.396786	0.000332
C78	C	-0.380775	0.896786	0.500332
C79	C	-0.879713	0.324340	0.000357
C80	C	-0.379713	0.824340	0.500357
C81	C	-0.868173	0.549743	-0.043589
C82	C	-0.368173	1.049743	0.456411
C83	C	-0.869233	0.622187	-0.043618
C84	C	-0.369233	1.122187	0.456382
C85	C	-0.821279	0.664937	0.000227
C86	C	-0.321279	1.164937	0.500227
C87	C	-0.772253	0.635235	0.044091
C88	C	-0.272253	1.135235	0.544091
C89	C	-0.771190	0.562790	0.044115
C90	C	-0.271190	1.062790	0.544115
C91	C	-0.819158	0.520046	0.000273
C92	C	-0.319158	1.020046	0.500273
C93	C	-0.759657	0.788190	0.000180
C94	C	-0.259657	1.288190	0.500180
C95	C	-0.760720	0.860638	0.000168
C96	C	-0.260720	1.360638	0.500168
C97	C	-0.887330	0.843677	0.000192
C98	C	-0.387330	1.343677	0.500192
C99	C	-0.886265	0.771231	0.000212
C100	C	-0.386265	1.271231	0.500212
C101	C	-0.822426	0.743492	0.000202
C102	C	-0.322426	1.243492	0.500202
C103	C	-0.862227	0.134494	-0.782159
C104	C	-0.362227	0.634494	-0.282159
C105	C	-0.862220	0.134501	-0.703358
C106	C	-0.362220	0.634501	-0.203358
C107	C	-0.820228	0.092480	-0.663990
C108	C	-0.320228	0.592480	-0.163990
C109	C	-0.778227	0.050464	-0.703432
C110	C	-0.278227	0.550464	-0.203432
C111	C	-0.778230	0.050464	-0.782232
C112	C	-0.278230	0.550464	-0.282232
C113	C	-0.818502	0.029856	-0.539176
C114	C	-0.318502	0.529856	-0.039176
C115	C	-0.818504	0.029855	-0.460377
C116	C	-0.318504	0.529855	0.039623
C117	C	-0.820215	0.092482	-0.420944
C118	C	-0.320215	0.592482	0.079056
C119	C	-0.821939	0.155111	-0.460320
C120	C	-0.321939	0.655111	0.039680
C121	C	-0.821942	0.155111	-0.539120
C122	C	-0.321942	0.655111	-0.039120
C123	C	-0.820220	0.092476	-0.578545
C124	C	-0.320220	0.592476	-0.078545
C125	C	-0.862203	0.134507	-0.296066
C126	C	-0.362203	0.634507	0.203934
C127	C	-0.862191	0.134515	-0.217263
C128	C	-0.362191	0.634515	0.282737
C129	C	-0.778202	0.050472	-0.217339
C130	C	-0.278202	0.550472	0.282661
C131	C	-0.778210	0.050470	-0.296140
C132	C	-0.278210	0.550470	0.203860
C133	C	-0.820214	0.092486	-0.335500
C134	C	-0.320214	0.592486	0.164500
N135	N	-0.820234	0.092480	0.178409
N136	N	-0.320234	0.592480	0.678409
H137	H	-0.593987	0.211580	0.000268
H138	H	-0.093987	0.711580	0.500268
H139	H	-0.177866	-0.024674	0.000236
H140	H	0.322134	0.475326	0.500236
Cl141	Cl	-0.159390	0.233300	0.000354
Cl142	Cl	0.340610	0.733300	0.500354
Cl143	Cl	-0.914971	0.187353	-0.167691
Cl144	Cl	-0.414971	0.687353	0.332309
H145	H	-0.624756	-0.018124	0.000143
H146	H	-0.124756	0.481876	0.500143
H147	H	-0.046435	-0.026600	0.000308
H148	H	0.453565	0.473400	0.500308
H149	H	-0.909150	0.646365	-0.079337
H150	H	-0.409150	1.146365	0.420663
Cl151	Cl	-0.915026	0.187311	-0.653776
Cl152	Cl	-0.415026	0.687311	-0.153776
H153	H	-0.744036	0.016252	-0.671374
H154	H	-0.244036	0.516252	-0.171374
H155	H	-0.907229	0.514941	-0.079291
H156	H	-0.407229	1.014941	0.420709
H157	H	-0.932748	0.419382	0.000344
H158	H	-0.432748	0.919382	0.500344
Cl159	Cl	-0.915004	0.187329	-0.345550
Cl160	Cl	-0.415004	0.687329	0.154450
Cl161	Cl	-0.824104	0.233842	-0.588619
Cl162	Cl	-0.324104	0.733842	-0.088619
Cl163	Cl	-0.958628	0.268147	0.000392
Cl164	Cl	-0.458628	0.768147	0.500392
H165	H	-0.744008	0.016263	-0.185287
H166	H	-0.244008	0.516263	0.314713
Cl167	Cl	-0.915026	0.187320	-0.831635
Cl168	Cl	-0.415026	0.687320	-0.331635
H169	H	-0.744018	0.016255	-0.328246
H170	H	-0.244018	0.516255	0.171754
Cl171	Cl	-0.681804	0.916829	0.000140
Cl172	Cl	-0.181804	1.416829	0.500140
H173	H	-0.823333	0.206109	-0.428215
H174	H	-0.323333	0.706109	0.071785
H175	H	-0.817102	-0.021146	-0.571275
H176	H	-0.317102	0.478854	-0.071275
Cl177	Cl	-0.816331	-0.048877	-0.410884
Cl178	Cl	-0.316331	0.451123	0.089116
H179	H	-0.374105	0.181442	-0.079290
H180	H	0.125895	0.681442	0.420710
H181	H	-0.493322	-0.020044	0.000187
H182	H	0.006678	0.479956	0.500187
H183	H	-0.744033	0.016250	-0.814337
H184	H	-0.244033	0.516250	-0.314337
H185	H	-0.242673	0.179511	-0.079268
H186	H	0.257327	0.679511	0.420732
Cl187	Cl	-0.253170	-0.018169	0.099247
Cl188	Cl	0.246830	0.481831	0.599247
Cl189	Cl	-0.442760	0.237451	0.000300
Cl190	Cl	0.057240	0.737451	0.500300
H191	H	-0.397752	0.005467	0.079799
H192	H	0.102248	0.505467	0.579799
Cl193	Cl	-0.672852	0.306429	0.000313
Cl194	Cl	-0.172852	0.806429	0.500313
Cl195	Cl	-0.675253	0.469944	0.000260
Cl196	Cl	-0.175253	0.969944	0.500260
H197	H	-0.015674	0.203099	0.000357
H198	H	0.484326	0.703099	0.500357
Cl199	Cl	-0.709565	0.525451	0.099260
Cl200	Cl	-0.209565	1.025451	0.599260
H201	H	-0.733200	0.670042	0.079789
H202	H	-0.233200	1.170042	0.579789
Cl203	Cl	-0.679404	0.753314	0.000172
Cl204	Cl	-0.179404	1.253314	0.500172
H205	H	-0.939303	0.866269	0.000245
H206	H	-0.439303	1.366269	0.500245
Cl207	Cl	-0.965178	0.715038	0.000242
Cl208	Cl	-0.465178	1.215038	0.500242
