data_functionalizedCrystal
_audit_creation_method	'MofGen! by Chris Wilmer'
_symmetry_space_group_name_H-M	'P1'
_symmetry_Int_Tables_number	1
_symmetry_cell_setting	triclinic
loop_
_symmetry_equiv_pos_as_xyz
  x,y,z
_cell_length_a	12.827893
_cell_length_b	13.897448
_cell_length_c	12.827893
_cell_angle_alpha	90.009754
_cell_angle_beta	90.003786
_cell_angle_gamma	90.017853
loop_
_atom_site_label
_atom_site_type_symbol
_atom_site_fract_x
_atom_site_fract_y
_atom_site_fract_z
Zn1	Zn	1.597493	-0.384178	0.590830
Zn2	Zn	2.097493	0.115822	1.090830
Zn3	Zn	1.597427	-0.545441	0.416083
Zn4	Zn	2.097427	-0.045441	0.916083
Zn5	Zn	1.422782	-0.384163	0.416104
Zn6	Zn	1.922782	0.115837	0.916104
Zn7	Zn	1.422713	-0.545434	0.590783
Zn8	Zn	1.922713	-0.045434	1.090783
O9	O	1.510104	-0.464804	0.503450
O10	O	2.010104	0.035196	1.003450
O11	O	1.743720	-0.405580	0.567661
O12	O	2.243720	0.094420	1.067661
O13	O	1.574262	-0.524044	0.269850
O14	O	2.074262	-0.024044	0.769850
O15	O	1.446014	-0.249183	0.439310
O16	O	1.946014	0.250817	0.939310
O17	O	1.743672	-0.524060	0.439275
O18	O	2.243672	-0.024060	0.939275
O19	O	1.574374	-0.249195	0.567681
O20	O	2.074374	0.250805	1.067681
O21	O	1.445950	-0.405553	0.269865
O22	O	1.945950	0.094447	0.769865
O23	O	1.276537	-0.405546	0.439264
O24	O	1.776537	0.094454	0.939264
O25	O	1.445896	-0.524046	0.737025
O26	O	1.945896	-0.024046	1.237025
O27	O	1.276486	-0.524031	0.567600
O28	O	1.776486	-0.024031	1.067600
O29	O	1.574307	-0.405573	0.737060
O30	O	2.074307	0.094427	1.237060
O31	O	1.574195	-0.680422	0.439229
O32	O	2.074195	-0.180422	0.939229
O33	O	1.445833	-0.680416	0.567580
O34	O	1.945833	-0.180416	1.067580
C35	C	1.238594	-0.464786	0.503430
C36	C	1.738594	0.035214	1.003430
C37	C	1.122441	-0.464802	0.503446
C38	C	1.622441	0.035198	1.003446
C39	C	1.070680	-0.406279	0.567075
C40	C	1.570680	0.093721	1.067075
C41	C	0.950629	-0.406293	0.567093
C42	C	1.450629	0.093707	1.067093
C43	C	1.510028	-0.715418	0.503420
C44	C	2.010028	-0.215418	1.003420
C45	C	1.510091	-0.822632	0.503442
C46	C	2.010091	-0.322632	1.003442
C47	C	1.510200	-1.018927	0.503507
C48	C	2.010200	-0.518927	1.003507
C49	C	1.510136	-0.909695	0.503474
C50	C	2.010136	-0.409695	1.003474
C51	C	1.782674	-0.464823	0.503471
C52	C	2.282674	0.035177	1.003471
C53	C	1.898827	-0.464830	0.503479
C54	C	2.398827	0.035170	1.003479
C55	C	1.510101	-0.464810	0.776020
C56	C	2.010101	0.035190	1.276020
C57	C	1.510100	-0.464813	0.892173
C58	C	2.010100	0.035187	1.392173
C59	C	1.510209	-0.213211	0.503503
C60	C	2.010209	0.286789	1.003503
C61	C	1.510254	-0.105997	0.503526
C62	C	2.010254	0.394003	1.003526
C63	C	1.573635	-0.406196	0.943975
C64	C	2.073635	0.093804	1.443975
C65	C	1.573635	-0.406197	1.064025
C66	C	2.073635	0.093803	1.564025
C67	C	1.510099	-0.464819	1.231940
C68	C	2.010099	0.035181	1.731940
C69	C	1.510100	-0.464817	1.115787
C70	C	2.010100	0.035183	1.615787
H71	H	0.906116	-0.356193	0.621571
H72	H	1.406116	0.143807	1.121571
O73	O	1.123783	-0.346352	0.631943
O74	O	1.623783	0.153648	1.131943
C75	C	1.157372	-0.182378	0.683002
C76	C	1.657372	0.317622	1.183002
C77	C	1.097193	-0.250134	0.609452
C78	C	1.597193	0.249866	1.109452
H79	H	1.135880	-0.104573	0.664859
H80	H	1.635880	0.395427	1.164859
H81	H	1.244736	-0.192933	0.671411
H82	H	1.744736	0.307067	1.171411
H83	H	1.135998	-0.199480	0.767247
H84	H	1.635998	0.300520	1.267247
H85	H	1.118479	-0.233074	0.525179
H86	H	1.618479	0.266926	1.025179
H87	H	1.009844	-0.239567	0.621134
H88	H	1.509844	0.260433	1.121134
H89	H	1.077879	-0.514915	0.448983
H90	H	1.577879	-0.014915	0.948983
O91	O	1.445174	-0.524789	1.062818
O92	O	1.945174	-0.024789	1.562818
C93	C	1.312503	-0.647134	1.074065
C94	C	1.812503	-0.147134	1.574065
C95	C	1.385990	-0.579278	1.134191
C96	C	1.885990	-0.079278	1.634191
H97	H	1.264618	-0.691192	1.131744
H98	H	1.764618	-0.191192	1.631744
H99	H	1.360464	-0.697595	1.022992
H100	H	1.860464	-0.197595	1.522992
H101	H	1.257969	-0.602794	1.022935
H102	H	1.757969	-0.102794	1.522935
H103	H	1.440539	-0.623541	1.185378
H104	H	1.940539	-0.123541	1.685378
H105	H	1.337964	-0.528815	1.185198
H106	H	1.837964	-0.028815	1.685198
H107	H	0.943334	-0.514942	0.449008
H108	H	1.443334	-0.014942	0.949008
H109	H	1.455700	-0.514992	0.936700
H110	H	1.955700	-0.014992	1.436700
O111	O	1.638500	-0.346416	0.890703
O112	O	2.138500	0.153584	1.390703
C113	C	1.697571	-0.291843	0.722480
C114	C	2.197571	0.208157	1.222480
C115	C	1.624071	-0.359608	0.782676
C116	C	2.124071	0.140392	1.282676
H117	H	1.685915	-0.302471	0.635130
H118	H	2.185915	0.197529	1.135130
H119	H	1.781868	-0.308777	0.743804
H120	H	2.281868	0.191223	1.243804
H121	H	1.679289	-0.214054	0.743954
H122	H	2.179289	0.285946	1.243954
H123	H	1.642258	-0.437420	0.761235
H124	H	2.142258	0.062580	1.261235
H125	H	1.539795	-0.342592	0.761348
H126	H	2.039795	0.157408	1.261348
H127	H	1.628032	-0.356016	1.108574
H128	H	2.128032	0.143984	1.608574
