data_functionalizedCrystal
_audit_creation_method	'MofGen! by Chris Wilmer'
_symmetry_space_group_name_H-M	'P1'
_symmetry_Int_Tables_number	1
_symmetry_cell_setting	triclinic
loop_
_symmetry_equiv_pos_as_xyz
  x,y,z
_cell_length_a	25.639243
_cell_length_b	25.639239
_cell_length_c	25.639233
_cell_angle_alpha	90.019301
_cell_angle_beta	90.015962
_cell_angle_gamma	90.042008
loop_
_atom_site_label
_atom_site_type_symbol
_atom_site_fract_x
_atom_site_fract_y
_atom_site_fract_z
Zn1	Zn	0.799223	-0.208176	0.295654
Zn2	Zn	0.799145	-0.295595	0.208217
Zn3	Zn	0.711799	-0.208180	0.208227
Zn4	Zn	0.711743	-0.295587	0.295617
O5	O	0.755478	-0.251885	0.251929
O6	O	0.872378	-0.219775	0.284066
O7	O	0.787550	-0.284004	0.135053
O8	O	0.723452	-0.135014	0.219844
O9	O	0.872321	-0.284001	0.219827
O10	O	0.787682	-0.135012	0.284076
O11	O	0.723377	-0.219781	0.135061
O12	O	0.638627	-0.219772	0.219808
O13	O	0.723357	-0.283987	0.368787
O14	O	0.638586	-0.283990	0.284013
O15	O	0.787628	-0.219767	0.368814
O16	O	0.787496	-0.368759	0.219791
O17	O	0.723282	-0.368753	0.284003
C18	C	0.755388	-0.387727	0.251903
C19	C	0.755398	-0.445841	0.251910
C20	C	0.619635	-0.251881	0.251908
C21	C	0.561521	-0.251892	0.251911
C22	C	0.722035	-0.697044	0.285353
C23	C	0.722016	-0.642440	0.285347
O24	O	0.693564	-0.614211	0.313764
N25	N	0.755464	-0.615115	0.251937
C26	C	0.788937	-0.642398	0.218535
O27	O	0.817386	-0.614142	0.190118
C28	C	0.788959	-0.697001	0.218545
C29	C	0.755505	-0.724323	0.251953
C30	C	0.688584	-0.724366	0.318759
C31	C	0.688603	-0.778966	0.318764
C32	C	0.722073	-0.806245	0.285364
C33	C	0.755524	-0.778923	0.251958
C34	C	0.822434	-0.724283	0.185145
C35	C	0.822453	-0.778890	0.185158
C36	C	0.788999	-0.806211	0.218566
C37	C	0.789012	-0.860803	0.218563
N38	N	0.755564	-0.888127	0.251972
C39	C	0.722094	-0.860848	0.285373
C40	C	0.788890	-0.527727	0.218519
C41	C	0.788866	-0.473125	0.218507
C42	C	0.721945	-0.473170	0.285320
C43	C	0.721967	-0.527774	0.285329
C44	C	0.755442	-0.555052	0.251929
C45	C	0.722136	-0.975513	0.285381
C46	C	0.722156	-1.030119	0.285382
C47	C	0.789079	-1.030068	0.218571
C48	C	0.789057	-0.975468	0.218568
C49	C	0.755584	-0.948191	0.251977
O50	O	0.817451	-0.889066	0.190162
O51	O	0.693655	-0.889110	0.313791
C52	C	0.201182	-0.218495	0.285434
C53	C	0.146578	-0.218494	0.285437
O54	O	0.118361	-0.190088	0.313913
N55	N	0.119239	-0.251883	0.251943
C56	C	0.146507	-0.285271	0.218440
O57	O	0.118239	-0.313670	0.189951
C58	C	0.201110	-0.285268	0.218434
C59	C	0.228446	-0.251881	0.251934
C60	C	0.228518	-0.185109	0.318931
C61	C	0.283119	-0.185111	0.318928
C62	C	0.310383	-0.218497	0.285428
C63	C	0.283047	-0.251882	0.251932
C64	C	0.228377	-0.318653	0.184929
C65	C	0.282984	-0.318647	0.184926
C66	C	0.310320	-0.285260	0.218426
C67	C	0.364912	-0.285270	0.218429
N68	N	0.392251	-0.251881	0.251923
C69	C	0.364987	-0.218494	0.285423
C70	C	0.031836	-0.285273	0.218453
C71	C	-0.022766	-0.285279	0.218461
C72	C	-0.022691	-0.218501	0.285458
C73	C	0.031912	-0.218499	0.285452
C74	C	0.059175	-0.251884	0.251947
C75	C	0.479652	-0.218500	0.285415
C76	C	0.534257	-0.218506	0.285411
C77	C	0.534177	-0.285281	0.218413
C78	C	0.479577	-0.285278	0.218418
C79	C	0.452315	-0.251883	0.251921
O80	O	0.393163	-0.313659	0.189966
O81	O	0.393261	-0.190095	0.313903
C82	C	0.891851	-0.251888	0.251950
C83	C	0.949965	-0.251890	0.251959
C84	C	0.755495	-0.251875	0.388302
C85	C	0.755502	-0.251871	0.446416
C86	C	0.755582	-0.115512	0.251965
C87	C	0.755626	-0.057397	0.251981
C88	C	0.755491	-0.251856	0.116086
C89	C	0.755585	-0.251713	0.057972
C90	C	0.789010	-0.218333	0.806799
C91	C	0.789016	-0.218318	0.861403
O92	O	0.817464	-0.189864	0.889657
N93	N	0.755559	-0.251749	0.888698
C94	C	0.722090	-0.285192	0.861387
O95	O	0.693632	-0.313626	0.889617
C96	C	0.722081	-0.285204	0.806783
C97	C	0.755544	-0.251775	0.779491
C98	C	0.822470	-0.184906	0.779506
C99	C	0.822464	-0.184921	0.724906
C100	C	0.788998	-0.218363	0.697598
C101	C	0.755538	-0.251790	0.724890
C102	C	0.688610	-0.318644	0.779472
C103	C	0.688603	-0.318653	0.724865
C104	C	0.722066	-0.285224	0.697573
C105	C	0.722067	-0.285247	0.642982
N106	N	0.755524	-0.251817	0.615686
C107	C	0.788990	-0.218375	0.642994
C108	C	0.722110	-0.285165	0.976057
C109	C	0.722121	-0.285157	1.030660
C110	C	0.789047	-0.218282	1.030672
C111	C	0.789038	-0.218293	0.976069
C112	C	0.755567	-0.251735	0.948762
C113	C	0.788975	-0.218410	0.528329
C114	C	0.788968	-0.218429	0.473724
C115	C	0.722040	-0.285302	0.473716
C116	C	0.722049	-0.285285	0.528316
C117	C	0.755518	-0.251834	0.555622
O118	O	0.693632	-0.313686	0.614693
O119	O	0.817437	-0.189941	0.614757
H120	H	0.694880	-0.953311	0.312586
H121	H	0.661330	-0.702160	0.345960
C122	C	0.825321	-0.557354	0.182349
C123	C	0.858838	-0.588622	0.212004
C124	C	0.892422	-0.615907	0.178710
H125	H	0.805432	-0.578740	0.159527
H126	H	0.845265	-0.533261	0.162475
H127	H	0.838896	-0.612712	0.231870
H128	H	0.878738	-0.567249	0.234825
H129	H	0.912366	-0.591814	0.158835
H130	H	0.872528	-0.637290	0.155890
H131	H	0.915169	-0.637122	0.198826
H132	H	0.816293	-0.953222	0.191359
H133	H	0.556512	-0.191317	0.312692
C134	C	0.652199	-0.354879	0.695194
C135	C	0.618694	-0.325287	0.663852
C136	C	0.585148	-0.358643	0.636521
H137	H	0.672116	-0.377680	0.673854
H138	H	0.632245	-0.374774	0.719259
H139	H	0.638646	-0.305401	0.639791
H140	H	0.598765	-0.302488	0.685180
H141	H	0.565194	-0.378537	0.660585
H142	H	0.605070	-0.381442	0.615183
H143	H	0.562408	-0.338569	0.615256
H144	H	-0.044900	-0.191315	0.312733
C145	C	0.563759	-0.321615	0.182108
C146	C	0.550459	-0.373366	0.193403
C147	C	0.577706	-0.406848	0.159973
H148	H	0.554829	-0.313979	0.146974
H149	H	0.600198	-0.316864	0.186912
H150	H	0.514028	-0.378114	0.188596
H151	H	0.559390	-0.381018	0.228532
H152	H	0.614145	-0.402097	0.164776
H153	H	0.568775	-0.399208	0.124840
H154	H	0.568690	-0.441965	0.167635
H155	H	-0.045019	-0.312472	0.191188
C156	C	0.825383	-1.059786	0.182353
C157	C	0.818240	-1.113452	0.189517
C158	C	0.851675	-1.140845	0.156163
H159	H	0.817776	-1.050921	0.147197
H160	H	0.860520	-1.050835	0.190032
H161	H	0.783110	-1.122400	0.181835
H162	H	0.825851	-1.122332	0.224667
H163	H	0.886812	-1.131894	0.163842
H164	H	0.844065	-1.131976	0.121009
H165	H	0.846837	-1.177260	0.161023
H166	H	0.694806	-0.312510	0.550539
H167	H	0.694729	-0.550015	0.312536
H168	H	0.816286	-0.191071	0.953851
C169	C	0.450032	-0.182181	0.321706
C170	C	0.418708	-0.148610	0.292173
C171	C	0.391420	-0.115145	0.325588
H172	H	0.428682	-0.202154	0.344463
H173	H	0.474122	-0.162272	0.341644
H174	H	0.394620	-0.168518	0.272243
H175	H	0.440044	-0.128626	0.269416
H176	H	0.415511	-0.095235	0.345526
H177	H	0.370074	-0.135123	0.348344
H178	H	0.370168	-0.092360	0.305554
C179	C	0.061340	-0.321587	0.182060
C180	C	0.025705	-0.350835	0.152743
C181	C	0.052861	-0.384297	0.119218
H182	H	0.082649	-0.301615	0.159264
H183	H	0.082619	-0.344426	0.202006
H184	H	0.004434	-0.327999	0.132799
H185	H	0.004395	-0.370818	0.175525
H186	H	0.074140	-0.407136	0.139164
H187	H	0.074169	-0.364321	0.096425
H188	H	0.028687	-0.404149	0.099326
C189	C	0.198801	-0.354919	0.148495
C190	C	0.234376	-0.384139	0.119148
C191	C	0.207151	-0.417548	0.085572
H192	H	0.177487	-0.377782	0.168388
H193	H	0.177521	-0.334894	0.125723
H194	H	0.255647	-0.404162	0.141917
H195	H	0.255691	-0.361290	0.099244
H196	H	0.185871	-0.397523	0.062800
H197	H	0.185838	-0.440408	0.105469
H198	H	0.231284	-0.437374	0.065653
H199	H	0.849675	-0.702045	0.157942
C200	C	0.312651	-0.354928	0.148635
C201	C	0.343993	-0.388477	0.178173
C202	C	0.371333	-0.421902	0.144761
H203	H	0.288607	-0.374861	0.128674
H204	H	0.333989	-0.334908	0.125897
H205	H	0.322656	-0.408495	0.200901
H206	H	0.368046	-0.368559	0.198132
H207	H	0.392672	-0.401882	0.122024
H208	H	0.347286	-0.441831	0.124802
H209	H	0.392606	-0.444666	0.164798
C210	C	0.685522	-0.443574	0.321523
C211	C	0.633801	-0.456903	0.310086
C212	C	0.600235	-0.429642	0.343419
H213	H	0.693085	-0.452473	0.356680
H214	H	0.690269	-0.407137	0.316727
H215	H	0.629056	-0.493331	0.314887
H216	H	0.626221	-0.448002	0.274936
H217	H	0.604983	-0.393205	0.338623
H218	H	0.607803	-0.438544	0.378574
H219	H	0.565139	-0.438678	0.335660
C220	C	0.449829	-0.321445	0.182020
C221	C	0.418487	-0.291790	0.148569
C222	C	0.391076	-0.325086	0.115032
H223	H	0.473830	-0.341341	0.162021
H224	H	0.428484	-0.344247	0.201962
H225	H	0.439829	-0.268996	0.128629
H226	H	0.394476	-0.271895	0.168554
H227	H	0.369731	-0.347888	0.134974
H228	H	0.415081	-0.344980	0.095037
H229	H	0.369803	-0.304970	0.092335
H230	H	0.661361	-0.801207	0.345968
H231	H	0.816219	-0.191207	0.451505
H232	H	0.816296	-0.191050	1.052917
C233	C	0.858784	-0.808599	0.148956
C234	C	0.851657	-0.862267	0.156120
C235	C	0.885123	-0.889650	0.122787
H236	H	0.851194	-0.799739	0.113794
H237	H	0.893914	-0.799634	0.156654
H238	H	0.816536	-0.871228	0.148417
H239	H	0.859251	-0.871142	0.191274
H240	H	0.920252	-0.880685	0.130486
H241	H	0.877530	-0.880786	0.087628
H242	H	0.880295	-0.926067	0.127647
C243	C	0.685771	-1.059809	0.321571
C244	C	0.652279	-1.091197	0.291940
C245	C	0.618752	-1.118548	0.325259
H246	H	0.705703	-1.081121	0.344383
H247	H	0.665807	-1.035756	0.341454
H248	H	0.672241	-1.115247	0.272066
H249	H	0.632336	-1.069898	0.269129
H250	H	0.598787	-1.094495	0.345142
H251	H	0.638688	-1.139856	0.348070
H252	H	0.596021	-1.139843	0.305159
H253	H	0.816101	-0.450883	0.191298
C254	C	0.312700	-0.148797	0.355313
C255	C	0.277127	-0.119551	0.384636
C256	C	0.304353	-0.086084	0.418154
H257	H	0.333998	-0.168765	0.378107
H258	H	0.333995	-0.125957	0.335362
H259	H	0.255840	-0.142388	0.404585
H260	H	0.255827	-0.099572	0.361856
H261	H	0.325649	-0.063244	0.398203
H262	H	0.325651	-0.106056	0.440944
H263	H	0.280221	-0.066233	0.438049
C264	C	0.198857	-0.148945	0.355339
C265	C	0.167495	-0.178600	0.388793
C266	C	0.140163	-0.145304	0.422341
H267	H	0.222906	-0.129053	0.375334
H268	H	0.177533	-0.126138	0.335403
H269	H	0.188818	-0.201397	0.408727
H270	H	0.143437	-0.198490	0.368813
H271	H	0.118839	-0.122498	0.402406
H272	H	0.164215	-0.125414	0.442332
H273	H	0.118877	-0.165420	0.445041
H274	H	0.054166	-0.191310	0.312730
C275	C	0.685781	-0.321701	0.444082
C276	C	0.697139	-0.373430	0.457347
C277	C	0.663755	-0.406974	0.430050
H278	H	0.650636	-0.314121	0.452994
H279	H	0.690582	-0.316951	0.407650
H280	H	0.692333	-0.378177	0.493770
H281	H	0.732278	-0.381026	0.448433
H282	H	0.668556	-0.402224	0.393618
H283	H	0.628612	-0.399390	0.438964
H284	H	0.671460	-0.442076	0.439042
H285	H	0.816227	-0.191169	0.550555
C286	C	0.858811	-0.148564	0.695373
C287	C	0.888105	-0.119267	0.730984
C288	C	0.921588	-0.085760	0.703802
H289	H	0.881624	-0.168506	0.674070
H290	H	0.838836	-0.125758	0.674085
H291	H	0.908079	-0.142070	0.752263
H292	H	0.865306	-0.099314	0.752288
H293	H	0.901613	-0.062954	0.682514
H294	H	0.944398	-0.105707	0.682500
H295	H	0.941465	-0.065875	0.727960
H296	H	0.849722	-0.157671	0.801735
C297	C	0.685737	-0.321476	1.060194
C298	C	0.656421	-0.350755	1.024584
C299	C	0.622890	-0.384211	1.051770
H300	H	0.705662	-0.344300	1.081498
H301	H	0.662943	-0.301482	1.081480
H302	H	0.679212	-0.370747	1.003307
H303	H	0.636486	-0.327945	1.003279
H304	H	0.600097	-0.364217	1.073056
H305	H	0.642820	-0.407031	1.073073
H306	H	0.602993	-0.404077	1.027613
H307	H	0.694853	-0.312400	0.953827
C308	C	0.652216	-0.354956	0.809000
C309	C	0.622899	-0.384228	0.773387
C310	C	0.589360	-0.417680	0.800568
H311	H	0.672136	-0.377785	0.830305
H312	H	0.629425	-0.334960	0.830286
H313	H	0.645688	-0.404223	0.752111
H314	H	0.602969	-0.361413	0.752081
H315	H	0.566568	-0.397683	0.821854
H316	H	0.609283	-0.440505	0.821872
H317	H	0.569460	-0.437541	0.776409
