data_functionalizedCrystal
_audit_creation_method	'MofGen! by Chris Wilmer'
_symmetry_space_group_name_H-M	'P1'
_symmetry_Int_Tables_number	1
_symmetry_cell_setting	triclinic
loop_
_symmetry_equiv_pos_as_xyz
  x,y,z
_cell_length_a	10.685741
_cell_length_b	10.685969
_cell_length_c	10.686551
_cell_angle_alpha	90.351934
_cell_angle_beta	89.636396
_cell_angle_gamma	99.045477
loop_
_atom_site_label
_atom_site_type_symbol
_atom_site_fract_x
_atom_site_fract_y
_atom_site_fract_z
Zn1	Zn	-0.610788	-2.022474	-0.605030
Zn2	Zn	-0.836885	-2.024851	-0.411205
Zn3	Zn	-0.608406	-1.796405	-0.411224
Zn4	Zn	-0.804598	-1.828631	-0.634746
O5	O	-0.715169	-1.918090	-0.515551
O6	O	-0.655289	-2.199519	-0.566874
O7	O	-0.819092	-1.982055	-0.236546
O8	O	-0.431993	-1.811913	-0.424505
O9	O	-0.821401	-2.201265	-0.424471
O10	O	-0.433743	-1.978005	-0.566893
O11	O	-0.651230	-1.814217	-0.236561
O12	O	-0.619923	-1.623951	-0.453319
O13	O	-0.766374	-1.866837	-0.805465
O14	O	-0.764064	-1.647627	-0.617540
O15	O	-0.623982	-2.009253	-0.783633
O16	O	-1.009331	-2.013303	-0.453286
O17	O	-0.985611	-1.869141	-0.617521
C18	C	-0.688233	-1.589965	-0.538657
C19	C	-0.676737	-1.449597	-0.548574
C20	C	-0.385762	-1.891099	-0.492386
C21	C	-0.245389	-1.879597	-0.482514
C22	C	-1.043296	-1.945013	-0.538651
C23	C	-1.183676	-1.956649	-0.548567
C24	C	-0.691842	-1.941375	-0.841103
C25	C	-0.681902	-1.951297	-0.979833
C26	C	-0.742201	-1.247495	-0.492341
C27	C	-0.753692	-1.387862	-0.482411
C28	C	-0.738320	-1.894962	-0.191254
C29	C	-0.747925	-1.885255	-0.052482
H30	H	-0.828383	-1.442403	-0.418180
H31	H	-0.617777	-2.015435	-1.023769
N32	N	-0.832889	-1.800302	-0.994293
H33	H	-0.828190	-1.805015	-0.900112
H34	H	-0.804219	-1.710102	-1.021987
N35	N	-0.255929	-2.055701	-0.633472
H36	H	-0.349329	-2.050158	-0.628723
H37	H	-0.224941	-2.040560	-0.722400
H38	H	-0.602061	-1.395064	-0.612812
H39	H	-0.190829	-1.804827	-0.418403
