data_functionalizedCrystal
_audit_creation_method	'MofGen! by Chris Wilmer'
_symmetry_space_group_name_H-M	'P1'
_symmetry_Int_Tables_number	1
_symmetry_cell_setting	triclinic
loop_
_symmetry_equiv_pos_as_xyz
  x,y,z
_cell_length_a	20.299480
_cell_length_b	20.298645
_cell_length_c	20.294903
_cell_angle_alpha	60.007695
_cell_angle_beta	60.015306
_cell_angle_gamma	59.991039
loop_
_atom_site_label
_atom_site_type_symbol
_atom_site_fract_x
_atom_site_fract_y
_atom_site_fract_z
O1	O	0.091305	-0.962534	0.804873
O2	O	0.034397	-0.749399	0.648508
O3	O	0.169355	-0.884263	0.648401
O4	O	-0.043654	-0.827670	0.804979
O5	O	0.214132	-0.839502	0.693072
O6	O	0.079173	-0.704639	0.693178
O7	O	0.136081	-0.917774	0.849544
Zn8	Zn	0.114736	-0.804099	0.778453
Zn9	Zn	0.055742	-0.863073	0.719598
O10	O	0.001122	-0.782910	0.849650
N11	N	0.155000	-0.763857	0.818624
N12	N	0.015485	-0.903322	0.679427
C13	C	0.179343	-0.615641	0.842971
C14	C	0.179443	-0.739552	0.966834
C15	C	0.303264	-0.739536	0.842917
C16	C	0.179356	-0.739528	0.842952
C17	C	0.210353	-0.708565	0.873918
C18	C	-0.132622	-0.927446	0.654695
C19	C	-0.008595	-0.927622	0.530981
C20	C	-0.008820	-1.051459	0.654914
C21	C	-0.008800	-0.927618	0.654995
C22	C	-0.039709	-0.958538	0.623897
N23	N	0.376268	-0.763873	0.818558
O24	O	0.652281	-0.777347	0.619856
O25	O	0.652556	-0.934198	0.832777
O26	O	0.652445	-0.933836	0.697731
O27	O	0.652392	-0.777709	0.754902
O28	O	0.518259	-0.889182	0.742556
O29	O	0.518369	-0.889544	0.877602
O30	O	0.518095	-0.732693	0.664680
Zn31	Zn	0.496927	-0.804029	0.778258
Zn32	Zn	0.673724	-0.862862	0.719200
O33	O	0.518205	-0.733055	0.799726
N34	N	0.794383	-0.903019	0.678891
N35	N	0.154981	-0.542636	0.818657
O36	O	-0.043628	-0.266455	0.805024
O37	O	0.169291	-0.266451	0.648191
O38	O	0.034217	-0.266468	0.648577
O39	O	0.091446	-0.266438	0.804638
O40	O	0.078998	-0.400670	0.693303
O41	O	0.214071	-0.400653	0.692918
O42	O	0.001152	-0.400657	0.849750
Zn43	Zn	0.114722	-0.421963	0.778435
Zn44	Zn	0.055722	-0.245145	0.719506
O45	O	0.136226	-0.400640	0.849364
N46	N	0.015453	-0.124472	0.679286
N47	N	0.155155	-0.763898	1.039838
O48	O	0.141555	-0.962488	1.315987
O49	O	-0.015254	-0.749480	1.316022
O50	O	-0.014890	-0.884527	1.315962
O51	O	0.141192	-0.827441	1.316047
O52	O	0.029815	-0.839777	1.181768
O53	O	0.029452	-0.704730	1.181828
O54	O	0.186261	-0.917739	1.181793
Zn55	Zn	0.114954	-0.804130	1.160504
Zn56	Zn	0.056053	-0.863089	1.337311
O57	O	0.185897	-0.782692	1.181853
N58	N	0.015850	-0.903330	1.457977
C59	C	0.051451	-0.700162	0.649301
C60	C	0.218580	-0.867175	0.649169
C61	C	0.119026	-0.967011	0.848750
C62	C	-0.048103	-0.799998	0.848882
C63	C	0.585495	-0.933471	0.882014
C64	C	0.585361	-0.933023	0.714775
C65	C	0.585151	-0.733419	0.615444
C66	C	0.585291	-0.733869	0.782682
C67	C	0.218449	-0.333386	0.648902
C68	C	0.051232	-0.333573	0.649435
C69	C	-0.048061	-0.333556	0.848984
C70	C	0.119212	-0.333537	0.848507
C71	C	-0.014496	-0.700269	1.248929
C72	C	-0.014037	-0.867500	1.248828
C73	C	0.185503	-0.966949	1.248886
C74	C	0.185054	-0.799709	1.248957
H75	H	0.039295	-0.638935	0.600193
C76	C	-0.051128	-0.962694	1.248665
C77	C	-0.080207	-0.883948	1.248714
H78	H	-0.091978	-0.972845	1.248589
H79	H	-0.036467	-0.999931	1.295477
H80	H	-0.005223	-0.968706	1.201884
H81	H	-0.126109	-0.877938	1.295498
H82	H	-0.094879	-0.846702	1.201896
C83	C	0.585644	-1.068999	0.964651
C84	C	0.585601	-0.999952	0.964563
H85	H	0.585705	-1.110039	1.015615
H86	H	0.632417	-1.087467	0.923578
H87	H	0.538829	-1.056318	0.954832
H88	H	0.632419	-1.012631	0.974376
H89	H	0.538823	-0.981481	1.005648
C90	C	0.223242	-1.099485	1.248838
C91	C	0.251967	-1.049532	1.248872
H92	H	0.264275	-1.150469	1.248833
H93	H	0.208580	-1.075333	1.202037
H94	H	0.177398	-1.106542	1.295630
H95	H	0.297809	-1.042471	1.202076
H96	H	0.266641	-1.073691	1.295677
C97	C	0.585298	-0.970157	0.619528
C98	C	0.585384	-0.999236	0.698265
H99	H	0.585307	-1.011034	0.609339
H100	H	0.632054	-0.955438	0.582294
H101	H	0.538466	-0.924283	0.613557
H102	H	0.632219	-1.045107	0.704234
H103	H	0.538623	-1.013966	0.735510
C104	C	0.351063	-0.962178	0.611639
C105	C	0.301169	-0.883453	0.582787
H106	H	0.402051	-0.972224	0.570658
H107	H	0.326880	-0.999455	0.626330
H108	H	0.358107	-0.968239	0.657489
H109	H	0.294120	-0.877394	0.536940
H110	H	0.325358	-0.846165	0.568084
H111	H	0.585279	-0.684826	0.794916
H112	H	0.585062	-0.684173	0.554297
C113	C	0.350757	-0.332708	0.610923
C114	C	0.300822	-0.332874	0.582261
H115	H	0.401608	-0.332387	0.569779
H116	H	0.358114	-0.379606	0.656618
H117	H	0.326418	-0.286008	0.625800
H118	H	0.325158	-0.379577	0.567390
H119	H	0.293468	-0.285971	0.536552
H120	H	0.038975	-0.333574	0.600406
H121	H	-0.109209	-0.333558	0.898221
C122	C	0.067027	-0.333527	0.983918
C123	C	0.135747	-0.333528	0.914698
H124	H	0.077235	-0.333516	1.024778
H125	H	0.054239	-0.380326	1.002557
H126	H	0.023004	-0.286727	0.971362
H127	H	0.179768	-0.380331	0.927253
H128	H	0.148545	-0.286724	0.896056
H129	H	0.234089	-0.787495	1.248972
C130	C	-0.053688	-0.557185	1.179976
C131	C	-0.080958	-0.617684	1.248941
H132	H	-0.094718	-0.506201	1.179987
H133	H	-0.041006	-0.567028	1.133176
H134	H	-0.006852	-0.557290	1.180001
H135	H	-0.127791	-0.617583	1.248912
H136	H	-0.093650	-0.607839	1.295752
C137	C	0.214156	-1.099472	0.886094
C138	C	0.135428	-1.049662	0.915049
H139	H	0.224278	-1.150499	0.927024
H140	H	0.251403	-1.075253	0.871399
H141	H	0.220173	-1.106456	0.840229
H142	H	0.129413	-1.042674	0.960911
H143	H	0.098170	-1.073887	0.929756
H144	H	-0.109285	-0.787936	0.898049
