data_functionalizedCrystal
_audit_creation_method	'MofGen! by Chris Wilmer'
_symmetry_space_group_name_H-M	'P1'
_symmetry_Int_Tables_number	1
_symmetry_cell_setting	triclinic
loop_
_symmetry_equiv_pos_as_xyz
  x,y,z
_cell_length_a	21.295418
_cell_length_b	29.839131
_cell_length_c	21.295411
_cell_angle_alpha	89.979636
_cell_angle_beta	89.956262
_cell_angle_gamma	90.057233
loop_
_atom_site_label
_atom_site_type_symbol
_atom_site_fract_x
_atom_site_fract_y
_atom_site_fract_z
Zn1	Zn	0.962308	-0.178715	-0.356239
Zn2	Zn	0.962190	-0.253830	-0.250967
Zn3	Zn	0.857031	-0.178736	-0.250949
Zn4	Zn	0.856981	-0.253839	-0.356163
O5	O	0.909628	-0.216280	-0.303580
O6	O	1.050382	-0.188667	-0.342314
O7	O	0.948213	-0.243874	-0.162875
O8	O	0.871067	-0.115866	-0.264940
O9	O	1.050295	-0.243854	-0.264971
O10	O	0.948413	-0.115851	-0.342296
O11	O	0.870953	-0.188703	-0.162862
O12	O	0.768935	-0.188711	-0.264867
O13	O	0.870981	-0.243869	-0.444263
O14	O	0.768898	-0.243889	-0.342167
O15	O	0.948364	-0.188675	-0.444319
O16	O	0.948164	-0.316699	-0.264897
O17	O	0.870866	-0.316705	-0.342185
C18	C	0.746076	-0.216304	-0.303507
C19	C	0.676108	-0.216325	-0.303491
C20	C	0.643238	-0.245094	-0.343681
C21	C	0.577496	-0.245083	-0.343710
C22	C	0.544625	-0.216307	-0.303536
C23	C	0.577503	-0.187532	-0.263343
C24	C	0.643244	-0.187541	-0.263321
N25	N	0.441350	-0.212791	-0.248479
N26	N	0.378899	-0.212785	-0.248502
C27	C	0.346551	-0.216279	-0.303603
N28	N	0.379013	-0.219787	-0.358681
N29	N	0.441470	-0.219795	-0.358657
C30	C	0.473340	-0.216294	-0.303557
C31	C	0.242396	-0.245037	-0.343827
C32	C	0.176652	-0.245023	-0.343857
C33	C	0.176660	-0.187475	-0.263485
C34	C	0.242403	-0.187487	-0.263461
C35	C	0.275266	-0.216271	-0.303632
C36	C	0.909514	-0.333003	-0.303548
C37	C	0.909523	-0.382937	-0.303556
C38	C	0.949949	-0.692564	-0.263395
C39	C	0.950027	-0.880238	-0.263419
O40	O	0.984309	-0.904489	-0.229249
N41	N	0.909758	-0.903722	-0.303627
C42	C	0.869470	-0.880286	-0.343835
O43	O	0.835225	-0.904567	-0.378039
C44	C	0.869396	-0.692614	-0.343813
C45	C	0.909663	-0.669131	-0.303598
C46	C	0.990214	-0.669082	-0.223184
C47	C	0.990192	-0.622167	-0.223176
C48	C	0.949905	-0.598734	-0.263379
C49	C	0.909641	-0.622216	-0.303590
C50	C	0.829111	-0.669178	-0.384023
C51	C	0.829097	-0.622257	-0.384015
C52	C	0.869364	-0.598775	-0.343800
C53	C	0.869332	-0.551867	-0.343785
N54	N	0.909601	-0.528383	-0.303577
C55	C	0.949887	-0.551816	-0.263374
C56	C	0.869511	-0.978816	-0.343842
C57	C	0.869528	-1.025734	-0.343847
C58	C	0.950087	-1.025683	-0.263432
C59	C	0.950065	-0.978764	-0.263425
C60	C	0.909780	-0.955332	-0.303634
C61	C	0.949837	-0.453290	-0.263359
C62	C	0.949810	-0.406370	-0.263353
C63	C	0.869254	-0.406426	-0.343770
C64	C	0.869279	-0.453341	-0.343774
C65	C	0.909576	-0.476772	-0.303567
O66	O	0.835073	-0.527587	-0.377942
O67	O	0.984137	-0.527526	-0.229185
C68	C	0.949972	-0.739480	-0.263403
C69	C	0.909707	-0.762962	-0.303614
C70	C	0.869421	-0.739529	-0.343817
C71	C	0.909725	-0.809880	-0.303619
C72	C	0.950012	-0.833313	-0.263416
C73	C	0.990281	-0.809829	-0.223208
C74	C	0.990258	-0.762913	-0.223200
C75	C	0.829152	-0.763014	-0.384025
C76	C	0.829177	-0.809929	-0.384029
C77	C	0.869463	-0.833362	-0.343826
C78	C	1.073818	-0.216257	-0.303653
C79	C	1.143786	-0.216247	-0.303684
C80	C	0.909680	-0.216271	-0.467770
C81	C	0.909702	-0.216267	-0.537738
C82	C	0.909759	-0.099102	-0.303625
C83	C	0.909815	-0.049167	-0.303644
C84	C	0.949994	-0.187526	-0.570635
C85	C	0.949993	-0.187507	-0.636377
C86	C	0.909707	-0.216236	-0.669221
C87	C	0.869407	-0.244978	-0.636316
C88	C	0.869405	-0.244994	-0.570575
N89	N	0.904840	-0.255537	-0.772436
N90	N	0.904846	-0.255521	-0.834887
C91	C	0.909711	-0.216190	-0.867295
N92	N	0.914582	-0.176875	-0.834893
N93	N	0.914580	-0.176891	-0.772436
C94	C	0.909705	-0.216222	-0.740506
C95	C	0.950004	-0.187426	-0.971478
C96	C	0.949999	-0.187406	-1.037221
C97	C	0.869416	-0.244882	-1.037159
C98	C	0.869418	-0.244898	-0.971417
C99	C	0.909716	-0.216171	-0.938580
C100	C	0.909612	-0.216257	-0.140028
C101	C	0.909712	-0.216135	-0.070060
H102	H	0.982600	-0.387253	-0.230603
O103	O	0.989162	-0.159476	-0.939673
C104	C	1.024732	-0.134108	-0.982810
H105	H	0.998950	-0.132544	-1.029653
H106	H	1.031484	-0.098716	-0.963819
H107	H	1.072523	-0.150549	-0.989838
O108	O	1.029498	-0.832610	-0.184253
C109	C	1.070132	-0.859699	-0.220168
H110	H	1.073966	-0.845536	-0.269748
H111	H	1.118598	-0.860189	-0.197481
H112	H	1.050693	-0.895277	-0.222315
H113	H	0.836604	-0.268368	-0.663061
O114	O	0.989240	-1.048519	-0.224476
C115	C	0.980623	-1.094964	-0.233117
H116	H	0.959928	-1.101362	-0.281651
H117	H	1.027798	-1.112744	-0.228982
H118	H	0.947178	-1.108345	-0.195707
O119	O	0.989169	-0.159651	-0.668410
C120	C	1.029805	-0.185221	-0.706451
H121	H	1.007558	-0.219266	-0.716280
H122	H	1.038268	-0.166913	-0.752689
H123	H	1.076447	-0.190161	-0.681148
H124	H	0.836492	-0.472462	-0.376522
H125	H	0.550736	-0.164102	-0.230635
O126	O	0.830248	-0.272959	-0.538713
C127	C	0.794675	-0.298304	-0.581795
H128	H	0.820455	-0.299843	-0.628679
H129	H	0.787924	-0.333707	-0.562796
H130	H	0.746884	-0.281859	-0.588747
H131	H	1.022982	-0.603050	-0.190431
H132	H	0.269155	-0.268472	-0.376540
O133	O	0.789952	-0.740324	-0.423097
C134	C	0.754430	-0.771118	-0.458593
H135	H	0.752290	-0.804573	-0.432809
H136	H	0.704820	-0.757613	-0.465239
H137	H	0.777456	-0.776069	-0.506434
O138	O	0.830194	-0.272741	-1.069030
C139	C	0.767464	-0.262945	-1.052910
H140	H	0.764323	-0.227061	-1.034834
H141	H	0.736364	-0.266808	-1.096124
H142	H	0.750981	-0.287045	-1.014741
H143	H	0.836612	-0.268304	-0.944632
H144	H	0.669992	-0.268531	-0.376392
O145	O	0.830475	-1.048522	-0.382998
C146	C	0.844190	-1.037012	-0.445750
H147	H	0.894473	-1.024071	-0.448987
H148	H	0.838761	-1.067860	-0.476851
H149	H	0.810425	-1.009801	-0.462156
H150	H	1.023048	-0.743797	-0.190453
H151	H	0.982652	-0.472362	-0.230620
O152	O	0.675079	-0.159581	-0.224215
C153	C	0.631974	-0.134170	-0.188775
H154	H	0.585076	-0.152560	-0.186566
H155	H	0.650920	-0.129329	-0.139183
H156	H	0.625068	-0.100073	-0.211916
H157	H	0.982808	-0.163999	-1.064005
O158	O	1.029370	-0.691771	-0.184066
C159	C	1.064911	-0.660975	-0.148592
H160	H	1.039109	-0.627556	-0.146388
H161	H	1.071653	-0.674533	-0.099000
H162	H	1.112707	-0.655934	-0.171700
H163	H	0.796381	-0.829044	-0.416777
H164	H	0.550728	-0.268510	-0.376440
O165	O	0.144818	-0.273014	-0.382919
C166	C	0.187925	-0.298412	-0.418376
H167	H	0.234756	-0.299945	-0.392571
H168	H	0.168878	-0.333813	-0.425001
H169	H	0.194998	-0.282017	-0.466228
H170	H	0.982807	-0.164134	-0.543903
H171	H	0.269165	-0.164062	-0.230731
H172	H	0.149898	-0.164043	-0.230778
H173	H	0.982855	-0.959647	-0.230679
O174	O	0.830340	-0.956007	-0.382813
C175	C	0.789677	-0.928926	-0.346920
H176	H	0.811902	-0.921886	-0.299245
H177	H	0.781209	-0.895935	-0.372550
H178	H	0.743042	-0.947055	-0.339941
H179	H	0.796318	-0.688289	-0.416767
H180	H	0.796292	-0.603181	-0.416761
H181	H	0.836451	-0.387339	-0.376501
