data_functionalizedCrystal
_audit_creation_method	'MofGen! by Chris Wilmer'
_symmetry_space_group_name_H-M	'P1'
_symmetry_Int_Tables_number	1
_symmetry_cell_setting	triclinic
loop_
_symmetry_equiv_pos_as_xyz
  x,y,z
_cell_length_a	14.519709
_cell_length_b	11.026607
_cell_length_c	9.482900
_cell_angle_alpha	78.599815
_cell_angle_beta	99.301351
_cell_angle_gamma	96.133081
loop_
_atom_site_label
_atom_site_type_symbol
_atom_site_fract_x
_atom_site_fract_y
_atom_site_fract_z
O1	O	-1.261291	-0.140186	-0.120696
O2	O	-0.927958	0.193147	0.212637
O3	O	-0.594625	0.526480	0.545970
O4	O	-0.995906	-0.158920	-0.120740
O5	O	-0.662573	0.174414	0.212594
O6	O	-0.329239	0.507747	0.545927
O7	O	-1.106603	0.027148	-0.120716
O8	O	-0.773270	0.360481	0.212617
O9	O	-0.439937	0.693814	0.545950
O10	O	-1.150594	-0.326254	-0.120720
O11	O	-0.817261	0.007080	0.212614
O12	O	-0.483927	0.340413	0.545947
O13	O	-1.084143	-0.010799	0.121071
O14	O	-0.750810	0.322535	0.454405
O15	O	-0.417477	0.655868	0.787738
O16	O	-0.973446	-0.196866	0.121048
O17	O	-0.640113	0.136467	0.454381
O18	O	-0.306779	0.469801	0.787715
O19	O	-1.238831	-0.178133	0.121091
O20	O	-0.905498	0.155201	0.454425
O21	O	-0.572165	0.488534	0.787758
Cu22	Cu	-1.104088	-0.190964	0.143147
Cu23	Cu	-0.770755	0.142369	0.476480
Cu24	Cu	-0.437421	0.475703	0.809813
Cu25	Cu	-1.130649	-0.146088	-0.142795
Cu26	Cu	-0.797316	0.187245	0.190538
Cu27	Cu	-0.463983	0.520578	0.523871
O28	O	-1.128134	-0.364200	0.121068
O29	O	-0.794801	-0.030867	0.454401
O30	O	-0.461467	0.302467	0.787735
C31	C	-0.950173	-0.177018	0.000148
C32	C	-0.616840	0.156315	0.333482
C33	C	-0.283506	0.489648	0.666815
C34	C	-0.847362	-0.174399	0.000132
C35	C	-0.514029	0.158935	0.333465
C36	C	-0.180695	0.492268	0.666798
C37	C	-1.087258	0.053403	0.000174
C38	C	-0.753925	0.386737	0.333508
C39	C	-0.420592	0.720070	0.666841
C40	C	-1.063067	0.188171	0.000165
C41	C	-0.729733	0.521505	0.333499
C42	C	-0.396400	0.854838	0.666832
C43	C	-1.284565	-0.160033	0.000200
C44	C	-0.951231	0.173300	0.333533
C45	C	-0.617898	0.506633	0.666867
C46	C	-1.387377	-0.162652	0.000207
C47	C	-1.054043	0.170682	0.333541
C48	C	-0.720710	0.504015	0.666874
C49	C	-0.470873	-0.164774	0.000198
C50	C	-0.137539	0.168559	0.333531
C51	C	0.195794	0.501892	0.666864
C52	C	-0.575623	-0.167447	0.000179
C53	C	-0.242290	0.165886	0.333512
C54	C	0.091044	0.499220	0.666846
C55	C	-0.659114	-0.169586	0.000163
C56	C	-0.325781	0.163747	0.333497
C57	C	0.007553	0.497081	0.666830
C58	C	-0.763871	-0.172260	0.000147
C59	C	-0.430538	0.161074	0.333480
C60	C	-0.097204	0.494407	0.666814
C61	C	-1.147479	-0.390455	0.000174
C62	C	-0.814146	-0.057122	0.333507
C63	C	-0.480813	0.276212	0.666841
C64	C	-1.171672	-0.525222	0.000174
C65	C	-0.838339	-0.191888	0.333507
C66	C	-0.505005	0.141445	0.666840
N67	N	-1.085413	-0.222527	0.344263
N68	N	-0.752079	0.110807	0.677596
N69	N	-0.418746	0.444140	1.010930
C70	C	-1.129865	0.261831	0.000174
C71	C	-0.796532	0.595164	0.333507
C72	C	-0.463198	0.928497	0.666841
C73	C	-1.104864	0.401121	0.000165
C74	C	-0.771530	0.734454	0.333498
C75	C	-0.438197	1.067787	0.666831
N76	N	-1.149330	-0.114516	-0.343911
N77	N	-0.815997	0.218817	-0.010578
N78	N	-0.482664	0.552151	0.322755
C79	C	-1.125134	-0.155391	0.416471
C80	C	-0.791800	0.177942	0.749804
C81	C	-0.458467	0.511275	1.083137
C82	C	-1.109604	-0.181661	0.583885
C83	C	-0.776270	0.151672	0.917218
C84	C	-0.442937	0.485005	1.250551
H85	H	-1.205563	0.221771	0.000196
H86	H	-0.872229	0.555105	0.333529
H87	H	-0.538896	0.888438	0.666862
H88	H	-1.247386	0.434745	0.000077
H89	H	-0.914052	0.768079	0.333410
H90	H	-0.580719	1.101412	0.666743
Br91	Br	-0.978687	0.467869	0.000123
Br92	Br	-0.645354	0.801203	0.333456
Br93	Br	-0.312020	1.134536	0.666790
Br94	Br	-1.225443	0.013424	0.552574
Br95	Br	-0.892110	0.346757	0.885907
Br96	Br	-0.558776	0.680090	1.219240
Br97	Br	-1.200695	-0.026868	0.312946
Br98	Br	-0.867361	0.306466	0.646279
Br99	Br	-0.534028	0.639799	0.979613
H100	H	-1.064093	-0.258588	0.646000
H101	H	-0.730760	0.074746	0.979333
H102	H	-0.397426	0.408079	1.312666
Br103	Br	-0.936895	0.254926	0.000124
Br104	Br	-0.603561	0.588259	0.333457
Br105	Br	-0.270228	0.921592	0.666790
Br106	Br	-1.009558	-0.350736	0.447788
Br107	Br	-0.676225	-0.017403	0.781121
Br108	Br	-0.342892	0.315931	1.114455
