data_functionalizedCrystal
_audit_creation_method	'MofGen! by Chris Wilmer'
_symmetry_space_group_name_H-M	'P1'
_symmetry_Int_Tables_number	1
_symmetry_cell_setting	triclinic
loop_
_symmetry_equiv_pos_as_xyz
  x,y,z
_cell_length_a	16.109295
_cell_length_b	16.109301
_cell_length_c	15.186229
_cell_angle_alpha	90.000894
_cell_angle_beta	90.000428
_cell_angle_gamma	96.539667
loop_
_atom_site_label
_atom_site_type_symbol
_atom_site_fract_x
_atom_site_fract_y
_atom_site_fract_z
O1	O	-1.103134	0.106844	-0.073159
O2	O	-0.861071	0.120148	-0.073173
O3	O	-0.988752	-0.007535	-0.073171
O4	O	-0.975453	0.234527	-0.073162
O5	O	-0.988743	-0.007537	0.073287
O6	O	-0.861062	0.120146	0.073284
O7	O	-1.103125	0.106842	0.073298
Zn8	Zn	-0.982092	0.113494	0.096544
Zn9	Zn	-0.982104	0.113496	-0.096420
O10	O	-0.975444	0.234525	0.073295
C11	C	-0.830092	0.119609	0.000053
C12	C	-0.737796	0.117996	0.000048
N13	N	-0.982091	0.113492	0.228237
C14	C	-0.515523	0.190008	0.000060
C15	C	-0.428803	0.188486	0.000065
C16	C	-0.448677	0.036996	0.000056
C17	C	-0.535396	0.038520	0.000057
C18	C	-0.568816	0.115028	0.000054
C19	C	-0.395377	0.111982	0.000059
C20	C	-0.301351	0.110331	0.000064
C21	C	-0.662849	0.116679	0.000050
C22	C	-0.134104	0.107386	0.000068
C23	C	-0.226397	0.109014	0.000065
C24	C	-0.975987	0.265501	0.000068
C25	C	-0.977602	0.357796	0.000071
C26	C	-0.988209	-0.038511	0.000055
C27	C	-0.986594	-0.130806	0.000046
C28	C	-0.905594	0.580070	0.000054
C29	C	-0.907118	0.666790	0.000048
C30	C	-1.058607	0.646913	0.000060
C31	C	-1.057083	0.560194	0.000060
C32	C	-0.980573	0.526775	0.000062
C33	C	-0.983622	0.700215	0.000055
C34	C	-0.985275	0.794241	0.000048
C35	C	-0.978920	0.432744	0.000067
N36	N	-0.982112	0.113492	-0.228112
C37	C	-1.038647	0.056973	0.453961
C38	C	-1.038650	0.056971	0.546151
C39	C	-0.925549	0.170014	0.546157
C40	C	-0.925543	0.170011	0.453969
C41	C	-0.982097	0.113491	0.407873
C42	C	-0.982106	0.113492	0.592251
C43	C	-0.982108	0.113490	0.692207
C44	C	-0.982094	0.113492	0.307911
H45	H	-0.542731	0.252306	0.000064
H46	H	-0.578790	-0.022542	0.000055
F47	F	-1.136890	0.503470	0.000064
H48	H	-1.084697	0.010947	0.583672
H49	H	-0.385414	0.249542	0.000071
F50	F	-0.413101	-0.044424	0.000055
F51	F	-1.098834	-0.003183	0.404906
H52	H	-0.843296	0.552864	0.000058
F53	F	-0.827315	0.723507	0.000035
F54	F	-0.865366	0.230165	0.595222
F55	F	-0.865349	0.230166	0.404916
H56	H	-1.120899	0.674134	0.000068
