data_functionalizedCrystal
_audit_creation_method	'MofGen! by Chris Wilmer'
_symmetry_space_group_name_H-M	'P1'
_symmetry_Int_Tables_number	1
_symmetry_cell_setting	triclinic
loop_
_symmetry_equiv_pos_as_xyz
  x,y,z
_cell_length_a	17.699083
_cell_length_b	14.853559
_cell_length_c	16.176319
_cell_angle_alpha	89.995393
_cell_angle_beta	89.998611
_cell_angle_gamma	83.457234
loop_
_atom_site_label
_atom_site_type_symbol
_atom_site_fract_x
_atom_site_fract_y
_atom_site_fract_z
O1	O	1.004372	0.114009	-0.068627
O2	O	0.784031	0.128842	-0.068653
O3	O	0.900091	-0.009827	-0.068638
O4	O	0.888313	0.252677	-0.068641
O5	O	0.900075	-0.009836	0.068855
O6	O	0.784015	0.128833	0.068840
O7	O	1.004356	0.114000	0.068867
Cu8	Cu	0.894184	0.121416	0.081407
Cu9	Cu	0.894203	0.121426	-0.081194
O10	O	0.888297	0.252668	0.068852
C11	C	0.755825	0.128306	0.000090
C12	C	0.671803	0.126711	0.000080
C13	C	0.899550	-0.043418	0.000107
C14	C	0.897954	-0.143496	0.000102
C15	C	0.623391	0.208107	0.000079
C16	C	0.544444	0.206603	0.000090
C17	C	0.513910	0.123703	0.000095
C18	C	0.562328	0.042301	0.000098
C19	C	0.641274	0.043806	0.000094
C20	C	0.243949	0.036232	0.000119
C21	C	0.164998	0.034734	0.000121
C22	C	0.147120	0.199029	0.000115
C23	C	0.226065	0.200534	0.000110
C24	C	0.274476	0.119133	0.000118
C25	C	0.360080	0.120764	0.000108
C26	C	0.428308	0.122071	0.000099
C27	C	0.891193	-0.566642	-0.074847
C28	C	0.891176	-0.566646	0.075054
C29	C	0.892681	-0.472618	0.075055
C30	C	0.893442	-0.425598	0.000104
C31	C	0.892697	-0.472605	-0.074848
C32	C	0.893419	-0.425603	0.150005
C33	C	0.894924	-0.331569	0.150009
C34	C	0.895690	-0.284548	0.075057
C35	C	0.894945	-0.331561	0.000102
C36	C	0.895706	-0.284540	-0.074849
C37	C	0.894967	-0.331553	-0.149804
C38	C	0.893463	-0.425583	-0.149800
C39	C	0.897194	-0.190517	0.075053
C40	C	0.897209	-0.190503	-0.074850
C41	C	1.032562	0.114536	0.000122
C42	C	1.116584	0.116130	0.000126
C43	C	0.888837	0.286260	0.000105
C44	C	0.890433	0.386338	0.000104
N45	N	0.894176	0.121408	0.195773
N46	N	0.894217	0.121427	-0.195559
C47	C	0.945583	0.060030	0.239043
C48	C	0.945587	0.060029	0.325591
C49	C	0.894187	0.121411	0.368865
C50	C	0.842775	0.182791	0.325588
C51	C	0.842768	0.182787	0.239043
C52	C	0.842801	0.182808	0.674617
C53	C	0.842813	0.182809	0.761168
C54	C	0.945619	0.060050	0.761164
C55	C	0.945613	0.060046	0.674619
C56	C	0.894198	0.121423	0.631350
C57	C	0.894194	0.121422	0.537505
C58	C	0.894195	0.121417	0.462708
H59	H	0.505030	0.272883	0.000088
C60	C	0.786257	0.250315	0.808769
H61	H	0.755628	0.286860	0.770605
H62	H	0.813510	0.287813	0.842528
H63	H	0.754731	0.217909	0.842533
C64	C	0.131412	-0.056460	0.000135
H65	H	0.171550	-0.104725	0.000148
H66	H	0.100986	-0.060464	-0.047809
H67	H	0.100988	-0.060454	0.048091
C68	C	0.259652	0.291721	0.000102
H69	H	0.313603	0.280958	0.000091
H70	H	0.243043	0.325228	0.048047
H71	H	0.243039	0.325228	-0.047852
C72	C	0.786224	0.250302	0.191441
H73	H	0.793576	0.241503	0.133701
H74	H	0.794501	0.310461	0.205615
H75	H	0.735704	0.240579	0.205633
H76	H	0.890595	-0.604924	-0.135874
H77	H	0.800921	0.232766	0.360828
H78	H	0.892796	-0.463893	0.211026
C79	C	0.786269	0.250340	0.627027
H80	H	0.793621	0.241551	0.569286
H81	H	0.794563	0.310491	0.641212
H82	H	0.735743	0.240637	0.641214
C83	C	0.093866	0.288570	0.000118
H84	H	0.042475	0.275806	0.000131
H85	H	0.103127	0.322572	-0.047832
H86	H	0.103135	0.322566	0.048068
H87	H	0.987482	0.010071	0.796403
C88	C	1.002127	-0.007482	0.191445
H89	H	0.994769	0.001312	0.133704
H90	H	0.993857	-0.067641	0.205634
H91	H	1.052648	0.002247	0.205625
C92	C	0.895802	-0.279828	-0.232247
H93	H	0.895143	-0.321288	-0.276889
H94	H	0.940487	-0.250113	-0.235353
H95	H	0.852279	-0.236177	-0.235365
C96	C	0.898045	-0.138788	-0.157298
H97	H	0.897384	-0.180255	-0.201933
H98	H	0.942730	-0.109075	-0.160409
H99	H	0.854522	-0.095136	-0.160420
C100	C	0.656971	0.299298	0.000072
H101	H	0.616829	0.347558	0.000081
H102	H	0.687395	0.303305	-0.047876
H103	H	0.687397	0.303296	0.048024
C104	C	0.297195	-0.053303	0.000115
H105	H	0.348586	-0.040540	0.000119
H106	H	0.287927	-0.087296	-0.047832
H107	H	0.287930	-0.087306	0.048068
C108	C	0.528743	-0.048887	0.000103
H109	H	0.474792	-0.038127	0.000097
H110	H	0.545355	-0.082399	0.048049
H111	H	0.545355	-0.082388	-0.047851
H112	H	0.680691	-0.022475	0.000094
C113	C	0.892640	-0.477296	-0.232241
H114	H	0.891626	-0.540030	-0.221504
H115	H	0.936989	-0.468864	-0.263037
H116	H	0.848782	-0.454906	-0.263037
H117	H	0.890552	-0.604935	0.136075
H118	H	0.895528	-0.293300	0.211042
C119	C	1.002131	-0.007485	0.373189
H120	H	0.994769	0.001298	0.430930
H121	H	1.052650	0.002230	0.359001
H122	H	0.993848	-0.067645	0.359009
C123	C	0.898005	-0.138807	0.157493
H124	H	0.897338	-0.180278	0.202130
H125	H	0.854491	-0.095149	0.160599
H126	H	0.942699	-0.109104	0.160617
H127	H	0.987469	0.010067	0.639387
