data_functionalizedCrystal
_audit_creation_method	'MofGen! by Chris Wilmer'
_symmetry_space_group_name_H-M	'P1'
_symmetry_Int_Tables_number	1
_symmetry_cell_setting	triclinic
loop_
_symmetry_equiv_pos_as_xyz
  x,y,z
_cell_length_a	13.339070
_cell_length_b	15.944551
_cell_length_c	12.376457
_cell_angle_alpha	101.276265
_cell_angle_beta	75.589755
_cell_angle_gamma	99.564016
loop_
_atom_site_label
_atom_site_type_symbol
_atom_site_fract_x
_atom_site_fract_y
_atom_site_fract_z
O1	O	1.361721	0.409519	-0.094056
O2	O	1.067189	0.354248	-0.094048
O3	O	1.222496	0.261484	-0.094042
O4	O	1.206414	0.502283	-0.094062
O5	O	1.183683	0.284634	0.093969
O6	O	1.028376	0.377398	0.093963
O7	O	1.322908	0.432670	0.093955
Zn8	Zn	1.169480	0.408710	0.123810
Zn9	Zn	1.220618	0.378208	-0.123903
O10	O	1.167601	0.525433	0.093949
C11	C	1.010092	0.356487	-0.000041
C12	C	0.897788	0.328657	-0.000038
C13	C	1.202422	0.241610	-0.000036
C14	C	1.200420	0.147897	-0.000036
C15	C	0.533017	0.545045	-0.000074
C16	C	0.638533	0.571195	-0.000081
C17	C	0.703352	0.510563	-0.000069
C18	C	0.662645	0.423776	-0.000053
C19	C	0.557120	0.397623	-0.000055
C20	C	0.727455	0.363140	-0.000050
C21	C	0.686748	0.276354	-0.000033
C22	C	0.581233	0.250205	-0.000035
C23	C	0.516415	0.310837	-0.000046
C24	C	0.832979	0.389294	-0.000048
C25	C	0.857082	0.241871	-0.000029
C26	C	0.751566	0.215722	-0.000022
C27	C	1.099369	-0.090507	-0.000048
C28	C	1.127158	-0.129176	0.092651
C29	C	1.196799	-0.023674	-0.000044
C30	C	1.165448	-0.151979	-0.092713
C31	C	1.193296	-0.189405	-0.000057
C32	C	1.224599	-0.061099	0.092732
C33	C	1.262892	-0.083908	-0.092715
C34	C	1.290747	-0.122540	0.000007
C35	C	1.198814	0.071800	-0.000036
C36	C	1.191287	-0.284874	-0.000058
C37	C	1.380005	0.430431	-0.000054
C38	C	1.492311	0.458260	-0.000065
C39	C	1.187676	0.545308	-0.000059
C40	C	1.189680	0.639019	-0.000067
N41	N	1.134587	0.429527	0.292867
N42	N	1.255518	0.357386	-0.292960
C43	C	1.336516	0.309045	0.647859
C44	C	1.360931	0.294473	0.529520
C45	C	1.304347	0.328235	0.470351
C46	C	1.223343	0.376572	0.529532
C47	C	1.198930	0.391151	0.647883
C48	C	1.166762	0.410341	0.470375
C49	C	1.085758	0.458678	0.529556
C50	C	1.061349	0.473254	0.647895
C51	C	1.117933	0.439492	0.707064
C52	C	1.191175	0.395762	0.352024
C53	C	1.053590	0.477868	0.352048
C54	C	1.029174	0.492440	0.470387
H55	H	0.866111	0.459956	-0.000057
C56	C	0.670395	0.692983	-0.096756
C57	C	0.683260	0.666588	-0.000101
H58	H	0.697999	0.751881	-0.096764
H59	H	0.706184	0.658913	-0.162301
H60	H	0.598271	0.686069	-0.096742
H61	H	0.755385	0.673496	-0.000119
H62	H	0.647472	0.700668	0.065461
C63	C	1.031407	-0.189328	-0.198318
C64	C	1.131643	-0.205086	-0.198512
H65	H	1.010537	-0.222109	-0.263634
H66	H	0.983877	-0.205438	-0.132500
H67	H	1.031834	-0.129751	-0.198706
H68	H	1.131215	-0.264662	-0.198115
H69	H	1.179186	-0.188981	-0.264347
H70	H	1.018478	-0.076032	0.000046
C71	C	0.890156	0.136158	0.096633
C72	C	0.928319	0.175214	-0.000016
H73	H	0.934137	0.095008	0.096632
H74	H	0.888965	0.178802	0.162182
H75	H	0.821488	0.108166	0.096620
H76	H	0.996984	0.203212	0.000001
H77	H	0.929521	0.132564	-0.065582
C78	C	0.885968	0.481817	0.315653
C79	C	0.991384	0.514984	0.287022
H80	H	0.847572	0.504735	0.275507
H81	H	0.878989	0.420811	0.296264
H82	H	0.859849	0.497423	0.394605
H83	H	1.017505	0.499372	0.208071
H84	H	0.998369	0.576004	0.306403
H85	H	0.480235	0.594401	-0.000092
C86	C	0.841106	0.519789	0.096587
C87	C	0.819336	0.539301	-0.000070
H88	H	0.912714	0.537530	0.096583
H89	H	0.799252	0.549175	0.162131
H90	H	0.826133	0.459424	0.096585
H91	H	0.834303	0.599667	-0.000065
H92	H	0.861205	0.509917	-0.065631
H93	H	1.069769	-0.149237	0.171023
H94	H	1.249577	-0.021853	0.171188
H95	H	1.371680	-0.136832	0.000057
H96	H	0.430494	0.289550	-0.000040
C97	C	1.309169	-0.103284	-0.295499
C98	C	1.340316	-0.056797	-0.198517
H99	H	1.356960	-0.086541	-0.360821
H100	H	1.308004	-0.163171	-0.296636
H101	H	1.241422	-0.091652	-0.294819
H102	H	1.408060	-0.068434	-0.199193
H103	H	1.341491	0.003104	-0.197381
H104	H	1.257129	0.356407	0.303849
H105	H	0.548096	0.179536	-0.000034
H106	H	1.324230	0.316368	0.373994
H107	H	1.426885	0.255119	0.481339
C108	C	1.331000	0.216262	0.780968
C109	C	1.398702	0.271938	0.712903
H110	H	1.369396	0.193349	0.821119
H111	H	1.279277	0.247143	0.833136
H112	H	1.298424	0.170526	0.734803
H113	H	1.431272	0.317678	0.759070
H114	H	1.450443	0.241056	0.660729
H115	H	1.098051	0.451353	0.803425
C116	C	0.927801	0.552947	0.636029
C117	C	0.972315	0.526392	0.712949
H118	H	0.872833	0.585748	0.676192
H119	H	0.979431	0.587307	0.589858
H120	H	0.900935	0.503790	0.589882
H121	H	0.999189	0.575549	0.759090
H122	H	0.920676	0.492031	0.759139
H123	H	0.718409	0.145057	-0.000018
H124	H	0.963219	0.531797	0.518587
