data_functionalizedCrystal
_audit_creation_method	'MofGen! by Chris Wilmer'
_symmetry_space_group_name_H-M	'P1'
_symmetry_Int_Tables_number	1
_symmetry_cell_setting	triclinic
loop_
_symmetry_equiv_pos_as_xyz
  x,y,z
_cell_length_a	12.594517
_cell_length_b	12.594517
_cell_length_c	12.594501
_cell_angle_alpha	89.939871
_cell_angle_beta	90.045068
_cell_angle_gamma	89.993934
loop_
_atom_site_label
_atom_site_type_symbol
_atom_site_fract_x
_atom_site_fract_y
_atom_site_fract_z
Zn1	Zn	1.627577	0.423337	0.601924
Zn2	Zn	1.627426	0.601462	0.423962
Zn3	Zn	1.449510	0.423496	0.423950
Zn4	Zn	1.449592	0.601272	0.601889
O5	O	1.538526	0.512392	0.512931
O6	O	1.776503	0.446978	0.578337
O7	O	1.603727	0.578001	0.275014
O8	O	1.473159	0.274529	0.447569
O9	O	1.776392	0.577846	0.447588
O10	O	1.603984	0.274412	0.578326
O11	O	1.473013	0.447250	0.275006
O12	O	1.300575	0.447066	0.447535
O13	O	1.473300	0.577522	0.750840
O14	O	1.300635	0.577677	0.578266
O15	O	1.604064	0.446794	0.750866
O16	O	1.603807	0.750382	0.447554
O17	O	1.473153	0.750243	0.578277
C18	C	1.261985	0.512368	0.512896
C19	C	1.143680	0.512384	0.512906
C20	C	1.003599	0.441267	0.441964
C21	C	1.074492	0.415271	0.539087
C22	C	1.074358	0.538333	0.415792
C23	C	1.003787	0.486380	0.610159
C24	C	1.003647	0.609487	0.486798
C25	C	1.074508	0.583527	0.583989
C26	C	1.538580	0.234771	0.512950
C27	C	1.538602	0.116465	0.512958
C28	C	1.609750	0.047148	0.584081
C29	C	1.635718	-0.023545	0.486981
C30	C	1.512668	-0.023641	0.610062
C31	C	1.564621	0.047330	0.415807
C32	C	1.441526	0.047241	0.538954
C33	C	1.467457	-0.023420	0.441787
C34	C	1.816147	0.512416	0.512968
C35	C	1.934452	0.512426	0.512983
C36	C	1.538502	0.788933	0.512936
C37	C	1.538589	0.907238	0.512974
C38	C	1.538406	0.512587	0.236390
C39	C	1.538535	0.512403	0.118085
C40	C	1.610227	0.582864	0.048783
C41	C	1.513390	0.609461	-0.022272
C42	C	1.635614	0.485450	-0.021659
C43	C	1.441645	0.539053	0.048588
C44	C	1.563934	0.414997	0.049208
C45	C	1.467030	0.441558	-0.021815
C46	C	1.538708	0.512119	0.790553
C47	C	1.538786	0.512002	0.908858
H48	H	1.105443	0.643687	0.644084
H49	H	0.972469	0.381062	0.382012
H50	H	1.669969	0.078136	0.644146
O51	O	1.590874	0.084174	0.317743
C52	C	1.609249	-0.002299	0.249163
H53	H	1.566166	-0.075444	0.280603
H54	H	1.698090	-0.019124	0.244993
C55	C	1.620422	0.114617	0.098795
C56	C	1.567500	0.024781	0.137406
H57	H	1.594674	0.131321	0.029857
H58	H	1.608047	0.172876	0.144998
H59	H	1.694453	0.100584	0.095329
H60	H	1.493472	0.038819	0.140884
H61	H	1.579862	-0.033476	0.091200
H62	H	0.972505	0.691563	0.464648
O63	O	1.733711	-0.060599	0.460924
C64	C	1.808497	-0.024633	0.536082
H65	H	1.766220	-0.004836	0.613577
H66	H	1.849800	0.049447	0.504427
C67	C	1.943427	-0.136475	0.461078
C68	C	1.891503	-0.112168	0.556262
H69	H	1.994633	-0.190468	0.473524
H70	H	1.893044	-0.160703	0.410440
H71	H	1.977837	-0.074734	0.434709
H72	H	1.857083	-0.173905	0.582623
H73	H	1.941882	-0.087952	0.606905
O74	O	1.733509	0.458571	-0.058358
C75	C	1.808700	0.533299	-0.022414
H76	H	1.777363	0.574208	0.051934
H77	H	1.823132	0.595064	-0.087045
C78	C	1.952158	0.425985	-0.087589
C79	C	1.913674	0.476224	0.003731
H80	H	2.016913	0.390781	-0.071466
H81	H	1.901501	0.375641	-0.111810
H82	H	1.964176	0.477465	-0.141440
H83	H	1.901644	0.424743	0.057575
H84	H	1.964331	0.526559	0.027961
H85	H	1.407284	-0.054212	0.381578
O86	O	1.343656	0.084324	0.565402
C87	C	1.316614	0.048202	0.667869
H88	H	1.392067	0.028261	0.713801
H89	H	1.264966	-0.025823	0.661151
C90	C	1.162245	0.160169	0.670416
C91	C	1.254918	0.135686	0.726833
H92	H	1.124184	0.214130	0.706787
H93	H	1.180460	0.184503	0.601380
H94	H	1.119217	0.098474	0.664821
H95	H	1.297950	0.197377	0.732415
H96	H	1.236709	0.111365	0.795871
O97	O	1.486371	-0.060953	0.707938
C98	C	1.393128	-0.122463	0.700610
H99	H	1.383640	-0.152898	0.615920
H100	H	1.321577	-0.071545	0.722462
C101	C	1.412397	-0.179941	0.881505
C102	C	1.400749	-0.217329	0.777490
H103	H	1.417094	-0.238456	0.928932
H104	H	1.475214	-0.138498	0.886445
H105	H	1.352769	-0.137509	0.899700
H106	H	1.460382	-0.259749	0.759292
H107	H	1.337941	-0.258782	0.772549
O108	O	1.682454	0.654057	0.085830
C109	C	1.759092	0.600749	0.147738
H110	H	1.761792	0.513502	0.123880
H111	H	1.737152	0.607335	0.235286
C112	C	1.865482	0.758634	0.158628
C113	C	1.868804	0.651478	0.129319
H114	H	1.933158	0.789928	0.147271
H115	H	1.813848	0.794551	0.116923
H116	H	1.847194	0.764109	0.231583
H117	H	1.887079	0.646006	0.056362
H118	H	1.920444	0.615562	0.171012
O119	O	1.343877	0.566208	0.085423
C120	C	1.344929	0.566118	0.197368
H121	H	1.429796	0.577392	0.226803
H122	H	1.312710	0.487191	0.227849
C123	C	1.170726	0.643560	0.202562
C124	C	1.274960	0.657417	0.238714
H125	H	1.127562	0.699874	0.228067
H126	H	1.170014	0.643618	0.127142
H127	H	1.143891	0.577784	0.227965
H128	H	1.301797	0.723185	0.213300
H129	H	1.275674	0.657372	0.314130
H130	H	1.585345	0.332818	0.080617
H131	H	1.492008	0.691663	-0.053660
H132	H	1.406440	0.381800	-0.052619
H133	H	0.972915	0.464354	0.692343
H134	H	1.105592	0.333167	0.561221
H135	H	1.105362	0.560262	0.333632
