data_functionalizedCrystal
_audit_creation_method	'MofGen! by Chris Wilmer'
_symmetry_space_group_name_H-M	'P1'
_symmetry_Int_Tables_number	1
_symmetry_cell_setting	triclinic
loop_
_symmetry_equiv_pos_as_xyz
  x,y,z
_cell_length_a	14.971482
_cell_length_b	6.394989
_cell_length_c	13.448316
_cell_angle_alpha	90.003556
_cell_angle_beta	89.993798
_cell_angle_gamma	94.944840
loop_
_atom_site_label
_atom_site_type_symbol
_atom_site_fract_x
_atom_site_fract_y
_atom_site_fract_z
O1	O	1.189893	-0.272176	-0.082672
O2	O	0.929845	-0.304782	-0.082676
O3	O	1.063560	0.015577	-0.082675
O4	O	1.056178	-0.592534	-0.082674
O5	O	1.063543	0.015596	0.082709
O6	O	0.929827	-0.304762	0.082707
O7	O	1.189875	-0.272156	0.082711
Cu8	Cu	1.059850	-0.288457	0.097810
Cu9	Cu	1.059871	-0.288480	-0.097775
O10	O	1.056160	-0.592514	0.082710
C11	C	0.896496	-0.303315	0.000015
C12	C	0.797151	-0.298949	0.000013
C13	C	0.750475	-0.296882	0.090165
C14	C	0.657132	-0.292747	0.090166
C15	C	0.610466	-0.290694	0.000014
C16	C	0.657149	-0.292754	-0.090145
C17	C	0.750491	-0.296875	-0.090145
C18	C	0.462594	-0.284172	-0.090138
C19	C	0.369246	-0.280055	-0.090139
C20	C	0.369235	-0.280044	0.090172
C21	C	0.462577	-0.284164	0.090172
C22	C	0.509253	-0.286229	0.000013
C23	C	1.223225	-0.273622	0.000018
C24	C	1.322569	-0.277988	0.000013
C25	C	1.062092	0.093412	0.000013
C26	C	1.057631	0.329657	0.000012
N27	N	1.059842	-0.288439	0.235375
N28	N	1.059885	-0.288482	-0.235340
C29	C	1.119070	-0.146643	0.287415
C30	C	1.119076	-0.146641	0.391519
C31	C	1.059857	-0.288447	0.443579
C32	C	1.000622	-0.430250	0.391531
C33	C	1.000612	-0.430240	0.287429
C34	C	1.000647	-0.430265	0.608511
C35	C	1.000657	-0.430278	0.712619
C36	C	1.119110	-0.146665	0.712600
C37	C	1.119101	-0.146655	0.608499
C38	C	1.059867	-0.288462	0.556458
H39	H	0.788463	-0.298572	0.163577
H40	H	1.167304	-0.031179	0.433890
Cl41	Cl	1.193576	0.031598	0.778026
H42	H	0.952433	-0.545749	0.755002
H43	H	0.952400	-0.545705	0.433924
H44	H	1.167326	-0.031197	0.566111
Cl45	Cl	0.809171	-0.299463	-0.203483
H46	H	0.952381	-0.545703	0.245059
Cl47	Cl	0.598455	-0.290187	0.203505
Cl48	Cl	0.521240	-0.286769	0.203508
H49	H	0.952409	-0.545732	0.566143
H50	H	0.331226	-0.278363	0.163583
H51	H	0.331253	-0.278385	-0.163548
H52	H	0.500595	-0.285853	-0.163555
H53	H	0.619147	-0.291068	-0.163548
H54	H	1.167297	-0.031177	0.245035
