data_functionalizedCrystal
_audit_creation_method	'MofGen! by Chris Wilmer'
_symmetry_space_group_name_H-M	'P1'
_symmetry_Int_Tables_number	1
_symmetry_cell_setting	triclinic
loop_
_symmetry_equiv_pos_as_xyz
  x,y,z
_cell_length_a	12.645330
_cell_length_b	16.959455
_cell_length_c	12.645323
_cell_angle_alpha	90.021359
_cell_angle_beta	89.975130
_cell_angle_gamma	89.985361
loop_
_atom_site_label
_atom_site_type_symbol
_atom_site_fract_x
_atom_site_fract_y
_atom_site_fract_z
Zn1	Zn	-0.422117	-1.208452	-0.599409
Zn2	Zn	-0.599405	-1.208364	-0.422149
Zn3	Zn	-0.422147	-1.076264	-0.422157
Zn4	Zn	-0.599330	-1.076250	-0.599369
O5	O	-0.510750	-1.142332	-0.510771
O6	O	-0.445654	-1.319051	-0.575909
O7	O	-0.575936	-1.190809	-0.273803
O8	O	-0.273796	-1.093842	-0.445691
O9	O	-0.575907	-1.318986	-0.445676
O10	O	-0.273774	-1.190959	-0.575917
O11	O	-0.445705	-1.093756	-0.273809
O12	O	-0.445631	-0.965651	-0.445651
O13	O	-0.575778	-1.093818	-0.747721
O14	O	-0.575807	-0.965641	-0.575848
O15	O	-0.445581	-1.190946	-0.747751
O16	O	-0.747743	-1.190796	-0.445637
O17	O	-0.747687	-1.093733	-0.575840
C18	C	-0.510715	-0.936966	-0.510747
C19	C	-0.510725	-0.849110	-0.510761
C20	C	-0.786180	-1.142275	-0.510756
C21	C	-0.904010	-1.142322	-0.510785
C22	C	-0.510668	-1.142391	-0.787276
C23	C	-0.510633	-1.142415	-0.905107
C24	C	-1.071583	-1.081512	-0.592948
C25	C	-0.949023	-1.081201	-0.592684
C26	C	-0.948602	-1.119771	-0.399064
C27	C	-1.071200	-1.119400	-0.399563
C28	C	-1.071105	-1.226056	-0.539438
C29	C	-0.948498	-1.225543	-0.541881
C30	C	-0.234245	-1.142412	-0.510809
C31	C	-0.116414	-1.142446	-0.510825
C32	C	-0.510786	-1.348501	-0.510796
C33	C	-0.510801	-1.436357	-0.510807
C34	C	-0.442912	-0.477615	-0.443119
C35	C	-0.578675	-0.477653	-0.578483
C36	C	-0.578660	-0.560199	-0.578477
C37	C	-0.510771	-0.601457	-0.510789
C38	C	-0.442897	-0.560168	-0.443109
C39	C	-0.646540	-0.601494	-0.646149
C40	C	-0.646528	-0.684044	-0.646144
C41	C	-0.578633	-0.725304	-0.578461
C42	C	-0.510756	-0.684010	-0.510779
C43	C	-0.442867	-0.725268	-0.443091
C44	C	-0.374983	-0.683976	-0.375413
C45	C	-0.375002	-0.601427	-0.375426
C46	C	-0.578614	-0.807852	-0.578449
C47	C	-0.442852	-0.807821	-0.443081
C48	C	-0.592154	-1.081124	-1.072652
C49	C	-0.592558	-1.081284	-0.950092
C50	C	-0.540957	-1.225701	-0.949624
C51	C	-0.541469	-1.225365	-1.072222
C52	C	-0.398332	-1.121209	-1.072305
C53	C	-0.399004	-1.119351	-0.949699
C54	C	-0.510755	-1.142320	-0.235341
C55	C	-0.510491	-1.142448	-0.117512
H56	H	-0.918870	-1.095311	-0.675525
H57	H	-0.387640	-0.443991	-0.388020
H58	H	-1.101950	-1.246628	-0.619520
H59	H	-1.100996	-1.095492	-0.676061
N60	N	-0.648033	-0.435512	-0.647604
N61	N	-0.715550	-0.389433	-0.610193
H62	H	-0.764537	-0.359668	-0.659013
N63	N	-0.305658	-0.559260	-0.306296
N64	N	-0.207844	-0.568486	-0.313491
H65	H	-0.158870	-0.538703	-0.264667
N66	N	-0.644325	-1.247956	-1.108105
N67	N	-0.715233	-1.263860	-1.042603
H68	H	-0.787879	-1.279816	-1.067939
H69	H	-0.919784	-1.019216	-0.573728
H70	H	-0.337490	-1.165875	-1.101317
H71	H	-0.622089	-1.244012	-0.918935
H72	H	-0.674783	-1.095008	-1.103471
N73	N	-0.910212	-1.043897	-0.368081
N74	N	-0.856424	-1.036766	-0.285723
H75	H	-0.829312	-0.983179	-0.263843
H76	H	-0.484572	-1.272606	-1.101899
H77	H	-0.334944	-1.160753	-0.919076
H78	H	-0.701819	-0.567896	-0.701249
N79	N	-0.696819	-1.098999	-0.913289
N80	N	-0.715225	-1.102238	-0.816260
H81	H	-0.788854	-1.114784	-0.790267
H82	H	-0.573360	-1.019182	-1.102127
H83	H	-0.387561	-0.841407	-0.387967
H84	H	-0.483360	-1.272617	-0.920487
N85	N	-0.910082	-1.285500	-0.472299
N86	N	-0.973670	-1.325589	-0.419045
H87	H	-0.946543	-1.367933	-0.369894
N88	N	-0.305654	-0.726135	-0.306271
N89	N	-0.305666	-0.799839	-0.306271
H90	H	-0.256706	-0.829619	-0.257439
H91	H	-0.370691	-1.061535	-1.103211
H92	H	-0.701803	-0.717657	-0.701253
N93	N	-1.107494	-1.283013	-0.464422
N94	N	-1.161258	-1.340599	-0.494651
H95	H	-1.186965	-1.380820	-0.441670
N96	N	-0.647964	-0.850018	-0.647567
N97	N	-0.708582	-0.813172	-0.707987
H98	H	-0.757565	-0.842950	-0.756806
H99	H	-0.376135	-1.058060	-0.920601
N100	N	-0.568746	-1.003807	-0.912341
N101	N	-0.551715	-0.949236	-0.976539
H102	H	-0.534903	-0.894513	-0.949883
H103	H	-1.102479	-1.019914	-0.574235
N104	N	-1.107179	-1.042725	-0.369148
N105	N	-1.041745	-0.989859	-0.347703
H106	H	-1.067149	-0.935705	-0.326221
N107	N	-1.108436	-1.172639	-0.320176
N108	N	-1.205540	-1.181846	-0.306398
H109	H	-1.231836	-1.219442	-0.250327
H110	H	-0.919349	-1.242550	-0.624102
N111	N	-0.912028	-1.173687	-0.320214
N112	N	-0.852545	-1.229466	-0.345540
H113	H	-0.826713	-1.267547	-0.289855
