data_functionalizedCrystal
_audit_creation_method	'MofGen! by Chris Wilmer'
_symmetry_space_group_name_H-M	'P1'
_symmetry_Int_Tables_number	1
_symmetry_cell_setting	triclinic
loop_
_symmetry_equiv_pos_as_xyz
  x,y,z
_cell_length_a	17.699083
_cell_length_b	11.892095
_cell_length_c	17.699083
_cell_angle_alpha	93.880337
_cell_angle_beta	96.716985
_cell_angle_gamma	93.885077
loop_
_atom_site_label
_atom_site_type_symbol
_atom_site_fract_x
_atom_site_fract_y
_atom_site_fract_z
O1	O	1.008916	0.093846	-0.090872
O2	O	1.508916	0.593846	0.409128
O3	O	0.788539	0.093884	-0.103322
O4	O	1.288539	0.593884	0.396678
O5	O	0.904953	0.093854	0.013092
O6	O	1.404953	0.593854	0.513092
O7	O	0.892502	0.093876	-0.207286
O8	O	1.392502	0.593876	0.292714
O9	O	0.895247	-0.094151	0.003400
O10	O	1.395247	0.405849	0.503400
O11	O	0.778833	-0.094121	-0.113014
O12	O	1.278833	0.405879	0.386986
O13	O	0.999210	-0.094159	-0.100563
O14	O	1.499210	0.405841	0.399437
Zn15	Zn	0.887480	-0.123990	-0.108327
Zn16	Zn	1.387480	0.376010	0.391673
Zn17	Zn	0.900269	0.123715	-0.095558
Zn18	Zn	1.400269	0.623715	0.404442
O19	O	0.882796	-0.094129	-0.216977
O20	O	1.382796	0.405871	0.283023
C21	C	0.755490	-0.000114	-0.107722
C22	C	1.255490	0.499886	0.392278
C23	C	0.671472	-0.000100	-0.106382
C24	C	1.171472	0.499900	0.393618
N25	N	0.878758	-0.293042	-0.117041
N26	N	1.378758	0.206958	0.382959
C27	C	0.622852	-0.000094	-0.174715
C28	C	1.122852	0.499906	0.325285
C29	C	0.543907	-0.000109	-0.173454
C30	C	1.043907	0.499891	0.326546
C31	C	0.513586	-0.000122	-0.103858
C32	C	1.013586	0.499878	0.396142
C33	C	0.562213	-0.000132	-0.035520
C34	C	1.062213	0.499868	0.464480
C35	C	0.641155	-0.000125	-0.036783
C36	C	1.141155	0.499875	0.463217
C37	C	0.243848	-0.000160	-0.030426
C38	C	0.743848	0.499840	0.469574
C39	C	0.164900	-0.000163	-0.029168
C40	C	0.664900	0.499837	0.470832
C41	C	0.146601	-0.000144	-0.167097
C42	C	0.646601	0.499856	0.332903
C43	C	0.225543	-0.000137	-0.168360
C44	C	0.725543	0.499863	0.331640
C45	C	0.274162	-0.000153	-0.100023
C46	C	0.774162	0.499847	0.399977
C47	C	0.359762	-0.000139	-0.101391
C48	C	0.859762	0.499861	0.398609
C49	C	0.427988	-0.000128	-0.102488
C50	C	0.927988	0.499872	0.397512
C51	C	0.969691	-0.529713	-0.026159
C52	C	1.469691	-0.029713	0.473841
C53	C	0.963600	-0.648053	-0.032256
C54	C	1.463600	-0.148053	0.467744
C55	C	0.860481	-0.648065	-0.135327
C56	C	1.360481	-0.148065	0.364673
C57	C	0.866572	-0.529725	-0.129230
C58	C	1.366572	-0.029725	0.370770
C59	C	0.921180	-0.470553	-0.074645
C60	C	1.421180	0.029447	0.425355
C61	C	0.927274	-0.352210	-0.068553
C62	C	1.427274	0.147790	0.431447
C63	C	0.824152	-0.352224	-0.171620
C64	C	1.324152	0.147776	0.328380
C65	C	0.818061	-0.470565	-0.177716
C66	C	1.318061	0.029435	0.322284
C67	C	1.032260	-0.000158	-0.096164
C68	C	1.532260	0.499842	0.403836
C69	C	1.116277	-0.000165	-0.097503
C70	C	1.616277	0.499835	0.402497
C71	C	0.899654	-0.000149	0.036443
C72	C	1.399654	0.499851	0.536443
C73	C	0.898315	-0.000149	0.120461
C74	C	1.398315	0.499851	0.620461
N75	N	0.908997	0.292767	-0.086838
N76	N	1.408997	0.792767	0.413162
C77	C	0.888095	-0.000124	-0.240328
C78	C	1.388095	0.499876	0.259672
C79	C	0.889434	-0.000116	-0.324346
C80	C	1.389434	0.499884	0.175654
C81	C	0.966648	-0.000162	0.169081
C82	C	1.466648	0.499838	0.669081
C83	C	0.965386	-0.000152	0.248025
C84	C	1.465386	0.499848	0.748025
C85	C	0.895791	-0.000137	0.278347
C86	C	1.395791	0.499863	0.778347
C87	C	0.827453	-0.000120	0.229720
C88	C	1.327453	0.499880	0.729720
C89	C	0.828716	-0.000122	0.150778
C90	C	1.328716	0.499878	0.650778
C91	C	0.822358	-0.000110	0.548084
C92	C	1.322358	0.499890	1.048084
C93	C	0.821100	-0.000111	0.627032
C94	C	1.321100	0.499889	1.127032
C95	C	0.959029	-0.000140	0.645331
C96	C	1.459029	0.499860	1.145331
C97	C	0.960292	-0.000142	0.566389
C98	C	1.460292	0.499858	1.066389
C99	C	0.891955	-0.000119	0.517770
C100	C	1.391955	0.499881	1.017770
C101	C	0.893324	-0.000128	0.432170
C102	C	1.393324	0.499872	0.932170
C103	C	0.894420	-0.000136	0.363944
C104	C	1.394420	0.499864	0.863944
H105	H	0.504323	-0.000102	-0.229098
H106	H	1.004323	0.499898	0.270902
N107	N	0.986154	-0.288372	-0.009674
N108	N	1.486154	0.211628	0.490326
H109	H	1.022142	-0.239259	-0.036015
H110	H	1.522142	0.260741	0.463985
H111	H	1.015906	-0.343873	0.020108
H112	H	1.515906	0.156127	0.520108
H113	H	0.770787	-0.000101	0.254415
H114	H	1.270787	0.499899	0.754415
H115	H	0.647533	-0.000082	-0.231388
H116	H	1.147533	0.499918	0.268612
N117	N	0.748654	-0.000093	0.495652
N118	N	1.248654	0.499907	0.995652
H119	H	0.749700	0.069606	0.466086
H120	H	1.249700	0.569606	0.966086
H121	H	0.704419	-0.000128	0.526896
H122	H	1.204419	0.499872	1.026896
N123	N	0.759171	-0.534399	-0.236587
N124	N	1.259171	-0.034399	0.263413
H125	H	0.768852	-0.513801	-0.289232
H126	H	1.268852	-0.013801	0.210768
H127	H	0.706556	-0.513791	-0.226817
H128	H	1.206556	-0.013791	0.273183
H129	H	0.773072	-0.000111	0.111192
H130	H	1.273072	0.499889	0.611192
N131	N	0.801585	-0.711911	-0.194186
N132	N	1.301585	-0.211911	0.305814
H133	H	0.827919	-0.761010	-0.230184
H134	H	1.327919	-0.261010	0.269816
H135	H	0.771787	-0.656417	-0.223929
H136	H	1.271787	-0.156417	0.276071
N137	N	1.035354	-0.000167	0.533684
N138	N	1.535354	0.499833	1.033684
H139	H	1.078453	-0.000173	0.576465
H140	H	1.578453	0.499827	1.076465
H141	H	1.042480	0.069527	0.504918
H142	H	1.542480	0.569527	1.004918
H143	H	0.784653	-0.304043	-0.211103
H144	H	1.284653	0.195957	0.288897
H145	H	1.023321	-0.000182	0.144400
H146	H	1.523321	0.499818	0.644400
N147	N	1.039087	-0.000173	0.300466
N148	N	1.539087	0.499827	0.800466
H149	H	1.083366	-0.000193	0.269278
H150	H	1.583366	0.499807	0.769278
H151	H	1.037962	-0.069869	0.330028
H152	H	1.537962	0.430131	0.830028
H153	H	1.014672	-0.000152	0.684926
H154	H	1.514672	0.499848	1.184926
N155	N	0.746033	-0.000101	0.659738
N156	N	1.246033	0.499899	1.159738
H157	H	0.702932	-0.000087	0.616960
H158	H	1.202932	0.499913	1.116960
H159	H	0.746107	0.069592	0.695687
H160	H	1.246107	0.569592	1.195687
H161	H	0.250226	-0.000121	-0.225032
H162	H	0.750226	0.499879	0.274968
H163	H	0.140216	-0.000176	0.027508
H164	H	0.640216	0.499824	0.527508
N165	N	0.094161	-0.000130	-0.240808
N166	N	0.594161	0.499870	0.259192
H167	H	0.039550	-0.000140	-0.229452
H168	H	0.539550	0.499860	0.270548
H169	H	0.100375	-0.069817	-0.274740
H170	H	0.600375	0.430183	0.225260
N171	N	0.296281	-0.000185	0.043277
N172	N	0.796281	0.499815	0.543277
H173	H	0.265091	-0.000192	0.087554
H174	H	0.765091	0.499808	0.587554
H175	H	0.333029	0.069508	0.049357
H176	H	0.833029	0.569508	0.549357
H177	H	1.014160	-0.481534	0.018281
H178	H	1.514160	0.018466	0.518281
N179	N	0.529512	-0.000164	0.039545
N180	N	1.029512	0.499836	0.539545
H181	H	0.472125	-0.000167	0.029977
H182	H	0.972125	0.499833	0.529977
H183	H	0.550898	0.069525	0.073038
H184	H	1.050898	0.569525	0.573038
H185	H	1.003101	-0.696218	0.007227
H186	H	1.503101	-0.196218	0.507227
N187	N	0.693599	-0.000141	0.036918
N188	N	1.193599	0.499859	0.536918
H189	H	0.662413	-0.000149	0.081199
H190	H	1.162413	0.499851	0.581199
H191	H	0.730345	0.069555	0.042995
H192	H	1.230345	0.569555	0.542995
