data_functionalizedCrystal
_audit_creation_method	'MofGen! by Chris Wilmer'
_symmetry_space_group_name_H-M	'P1'
_symmetry_Int_Tables_number	1
_symmetry_cell_setting	triclinic
loop_
_symmetry_equiv_pos_as_xyz
  x,y,z
_cell_length_a	14.908742
_cell_length_b	13.032721
_cell_length_c	13.032268
_cell_angle_alpha	76.710373
_cell_angle_beta	100.845435
_cell_angle_gamma	86.488382
loop_
_atom_site_label
_atom_site_type_symbol
_atom_site_fract_x
_atom_site_fract_y
_atom_site_fract_z
Zn1	Zn	1.252707	0.573312	-0.579721
Zn2	Zn	1.252608	0.728390	-0.424675
Zn3	Zn	1.123791	0.543168	-0.409806
Zn4	Zn	1.079880	0.740629	-0.612486
O5	O	1.177247	0.646374	-0.506672
O6	O	1.378933	0.601377	-0.551664
O7	O	1.253856	0.686083	-0.272992
O8	O	1.159310	0.399627	-0.412410
O9	O	1.378860	0.715312	-0.437752
O10	O	1.254024	0.421774	-0.537246
O11	O	1.159215	0.550000	-0.262068
O12	O	0.991727	0.561868	-0.444181
O13	O	1.084470	0.736171	-0.757850
O14	O	0.959466	0.706942	-0.593090
O15	O	1.211445	0.613244	-0.733778
O16	O	1.211277	0.877553	-0.469524
O17	O	1.084374	0.886544	-0.607508
C18	C	0.942864	0.632463	-0.520578
C19	C	0.842588	0.626539	-0.526556
C20	C	0.701260	0.559002	-0.594404
C21	C	0.795479	0.564559	-0.588792
C22	C	0.795471	0.682970	-0.469932
C23	C	0.701252	0.677413	-0.475545
C24	C	0.654150	0.615426	-0.537782
C25	C	0.559931	0.609863	-0.543388
C26	C	0.559923	0.728279	-0.424534
C27	C	0.654142	0.733836	-0.418922
C28	C	1.143072	0.920308	-0.543707
C29	C	1.128530	1.037507	-0.559581
C30	C	1.143070	0.679435	-0.785717
C31	C	1.128507	0.693524	-0.904630
C32	C	1.412544	0.660342	-0.492712
C33	C	1.512814	0.666294	-0.486763
C34	C	1.211576	0.371376	-0.469515
C35	C	1.226206	0.254187	-0.453680
C36	C	1.184878	1.085283	-0.498432
C37	C	1.169850	1.206414	-0.514838
C38	C	1.184838	0.638983	-0.945734
C39	C	1.169787	0.653543	-1.068636
C40	C	1.211351	0.613369	-0.228699
C41	C	1.226127	0.598994	-0.109736
H42	H	0.833832	0.518613	-0.634900
C43	C	1.305202	0.522167	-1.035403
C44	C	1.295262	0.419876	-1.049569
C45	C	1.368079	0.349072	-0.981106
H46	H	1.361723	0.543198	-1.052084
H47	H	1.304807	0.522482	-0.962661
H48	H	1.295665	0.419565	-1.122294
H49	H	1.238756	0.398813	-1.032880
H50	H	1.367684	0.349386	-0.908365
H51	H	1.424595	0.370112	-0.997794
H52	H	1.361340	0.279658	-0.990702
H53	H	1.285581	1.205419	-0.389182
C54	C	1.090745	0.730335	-1.143084
C55	C	1.125592	0.808503	-1.213305
C56	C	1.052810	0.879270	-1.281891
H57	H	1.051126	0.692934	-1.183657
H58	H	1.057361	0.762733	-1.101398
H59	H	1.158961	0.776108	-1.254987
H60	H	1.165202	0.845930	-1.172762
H61	H	1.019426	0.911667	-1.240204
H62	H	1.013196	0.841859	-1.322456
H63	H	1.076444	0.932320	-1.329537
H64	H	0.692505	0.784307	-0.368253
C65	C	1.049392	1.102709	-0.645493
C66	C	1.050202	1.209887	-0.644661
C67	C	0.977306	1.269978	-0.723781
H68	H	1.055883	1.094099	-0.714245
H69	H	0.992897	1.079387	-0.630961
H70	H	1.106684	1.233202	-0.659201
H71	H	1.043699	1.218530	-0.575928
H72	H	0.920811	1.246655	-0.709248
H73	H	0.983803	1.261359	-0.792527
H74	H	0.977840	1.342703	-0.723220
H75	H	1.069131	0.750990	-0.960426
H76	H	0.521583	0.559385	-0.594059
C77	C	0.508691	0.789699	-0.363254
C78	C	0.438785	0.861362	-0.436087
C79	C	0.391581	0.917965	-0.379675
H80	H	0.482580	0.741729	-0.313431
H81	H	0.550204	0.827471	-0.325417
H82	H	0.397279	0.823592	-0.473906
H83	H	0.464872	0.909353	-0.485911
H84	H	0.433094	0.955738	-0.341837
H85	H	0.365476	0.869988	-0.329853
H86	H	0.344150	0.966602	-0.429084
C87	C	1.263909	0.562171	-0.871382
C88	C	1.253984	0.459870	-0.885528
C89	C	1.326801	0.389081	-0.817045
H90	H	1.320431	0.583204	-0.888058
H91	H	1.263503	0.562499	-0.798647
H92	H	1.254398	0.459545	-0.958247
H93	H	1.197477	0.438805	-0.868845
H94	H	1.326395	0.389409	-0.744310
H95	H	1.383318	0.410124	-0.833727
H96	H	1.320072	0.319661	-0.826627
H97	H	0.662911	0.508518	-0.645069
H98	H	0.833837	0.733440	-0.419265
H99	H	1.244249	1.036512	-0.433938
H100	H	1.110481	1.255185	-0.579343
