data_functionalizedCrystal
_audit_creation_method	'MofGen! by Chris Wilmer'
_symmetry_space_group_name_H-M	'P1'
_symmetry_Int_Tables_number	1
_symmetry_cell_setting	triclinic
loop_
_symmetry_equiv_pos_as_xyz
  x,y,z
_cell_length_a	16.625545
_cell_length_b	16.625548
_cell_length_c	19.076919
_cell_angle_alpha	92.280941
_cell_angle_beta	92.272080
_cell_angle_gamma	90.026626
loop_
_atom_site_label
_atom_site_type_symbol
_atom_site_fract_x
_atom_site_fract_y
_atom_site_fract_z
Zn1	Zn	-0.339312	1.214317	-0.397955
Zn2	Zn	0.160688	1.714317	0.102045
Zn3	Zn	-0.468733	1.219639	-0.280262
Zn4	Zn	0.031267	1.719639	0.219738
Zn5	Zn	-0.333921	1.084904	-0.280274
Zn6	Zn	0.166079	1.584904	0.219726
Zn7	Zn	-0.474108	1.079444	-0.397918
Zn8	Zn	0.025892	1.579444	0.102082
O9	O	-0.404019	1.149576	-0.339102
O10	O	0.095981	1.649576	0.160898
O11	O	-0.356487	1.327855	-0.382353
O12	O	0.143513	1.827855	0.117647
O13	O	-0.446344	1.206278	-0.181775
O14	O	0.053656	1.706278	0.318225
O15	O	-0.221805	1.102129	-0.295904
O16	O	0.278195	1.602129	0.204096
O17	O	-0.451572	1.331765	-0.295885
O18	O	0.048428	1.831765	0.204115
O19	O	-0.225766	1.197208	-0.382364
O20	O	0.274234	1.697208	0.117636
O21	O	-0.347299	1.107289	-0.181783
O22	O	0.152701	1.607289	0.318217
O23	O	-0.352510	0.971348	-0.295869
O24	O	0.147490	1.471348	0.204131
O25	O	-0.460732	1.092823	-0.496412
O26	O	0.039268	1.592823	0.003588
O27	O	-0.455505	0.967336	-0.382301
O28	O	0.044495	1.467336	0.117699
O29	O	-0.361699	1.191914	-0.496439
O30	O	0.138301	1.691914	0.003561
O31	O	-0.582278	1.200984	-0.295849
O32	O	-0.082278	1.700984	0.204151
O33	O	-0.586226	1.097983	-0.382290
O34	O	-0.086226	1.597983	0.117710
C35	C	-0.404006	0.940086	-0.339082
C36	C	0.095994	1.440086	0.160918
C37	C	-0.404021	0.850465	-0.339091
C38	C	0.095979	1.350465	0.160909
C39	C	-0.613508	1.149490	-0.339080
C40	C	-0.113508	1.649490	0.160920
C41	C	-0.703130	1.149525	-0.339094
C42	C	-0.203130	1.649525	0.160906
C43	C	-0.775913	1.149556	-0.339108
C44	C	-0.275913	1.649556	0.160892
C45	C	-0.867222	1.149602	-0.339124
C46	C	-0.367222	1.649602	0.160876
C47	C	-0.939999	1.149644	-0.339132
C48	C	-0.439999	1.649644	0.160868
C49	C	-1.031314	1.149689	-0.339147
C50	C	-0.531314	1.649689	0.160853
C51	C	-0.404028	0.522288	-0.339121
C52	C	0.095972	1.022288	0.160879
C53	C	-0.404024	0.613597	-0.339110
C54	C	0.095976	1.113597	0.160890
C55	C	-0.404025	0.686373	-0.339105
C56	C	0.095975	1.186373	0.160895
C57	C	-0.404020	0.777688	-0.339096
C58	C	0.095980	1.277688	0.160904
C59	C	-0.193711	1.149684	-0.339140
C60	C	0.306289	1.649684	0.160860
C61	C	-0.104091	1.149730	-0.339156
C62	C	0.395909	1.649730	0.160844
C63	C	-0.412417	1.141166	-0.522676
C64	C	0.087583	1.641166	-0.022676
C65	C	-0.415995	1.137582	-0.600905
C66	C	0.084005	1.637582	-0.100905
C67	C	-0.404032	1.359884	-0.339122
C68	C	0.095968	1.859884	0.160878
C69	C	-0.404037	1.449505	-0.339131
C70	C	0.095963	1.949505	0.160869
C71	C	-0.366117	1.187487	-0.637672
C72	C	0.133883	1.687487	-0.137672
C73	C	-0.369477	1.184109	-0.711176
C74	C	0.130523	1.684109	-0.211176
C75	C	-0.422719	1.130830	-0.747911
C76	C	0.077281	1.630830	-0.247911
C77	C	-0.472599	1.080920	-0.711139
C78	C	0.027401	1.580920	-0.211139
C79	C	-0.469234	1.084294	-0.637636
C80	C	0.030766	1.584294	-0.137636
C81	C	-0.438305	1.115204	-0.967739
C82	C	0.061695	1.615204	-0.467739
C83	C	-0.441667	1.111836	-1.041247
C84	C	0.058333	1.611836	-0.541247
C85	C	-0.338544	1.215024	-1.041279
C86	C	0.161456	1.715024	-0.541279
C87	C	-0.335188	1.218397	-0.967775
C88	C	0.164812	1.718397	-0.467775
C89	C	-0.385065	1.168483	-0.931009
C90	C	0.114935	1.668483	-0.431009
N91	N	-0.426156	1.127379	-0.823044
N92	N	0.073844	1.627379	-0.323044
N93	N	-0.381623	1.171932	-0.855877
N94	N	0.118377	1.671932	-0.355877
C95	C	-0.395595	1.158000	-0.156242
C96	C	0.104405	1.658000	0.343758
C97	C	-0.391789	1.161740	-0.078014
C98	C	0.108211	1.661740	0.421986
H99	H	-0.322765	1.230874	-0.607767
H100	H	0.177235	1.730874	-0.107767
O101	O	-0.320998	1.232671	-0.746783
O102	O	0.179002	1.732671	-0.246783
C103	C	-0.273275	1.280410	-0.698598
C104	C	0.226725	1.780410	-0.198598
H105	H	-0.303905	1.285586	-0.646197
H106	H	0.196095	1.785586	-0.146197
H107	H	-0.211676	1.251279	-0.690786
H108	H	0.288324	1.751279	-0.190786
C109	C	-0.225358	1.358556	-0.791659
C110	C	0.274642	1.858556	-0.291659
C111	C	-0.262983	1.364920	-0.727301
C112	C	0.237017	1.864920	-0.227301
H113	H	-0.219006	1.410685	-0.809365
H114	H	0.280994	1.910685	-0.309365
H115	H	-0.257508	1.326392	-0.824122
H116	H	0.242492	1.826392	-0.324122
H117	H	-0.174030	1.334278	-0.785140
H118	H	0.325970	1.834278	-0.285140
H119	H	-0.314314	1.389189	-0.733823
H120	H	0.185686	1.889189	-0.233823
H121	H	-0.230841	1.397090	-0.694839
H122	H	0.269159	1.897090	-0.194839
O123	O	-0.283395	1.270170	-0.932201
O124	O	0.216605	1.770170	-0.432201
C125	C	-0.240105	1.313509	-0.980415
C126	C	0.259895	1.813509	-0.480415
H127	H	-0.239707	1.278081	-1.032806
H128	H	0.260293	1.778081	-0.532806
H129	H	-0.269994	1.374372	-0.988236
H130	H	0.230006	1.874372	-0.488236
C131	C	-0.153469	1.370007	-0.887398
C132	C	0.346531	1.870007	-0.387398
C133	C	-0.152974	1.326489	-0.951743
C134	C	0.347026	1.826489	-0.451743
H135	H	-0.099723	1.378017	-0.869711
H136	H	0.400277	1.878017	-0.369711
H137	H	-0.182635	1.340811	-0.854914
H138	H	0.317365	1.840811	-0.354914
H139	H	-0.178380	1.420721	-0.893924
H140	H	0.321620	1.920721	-0.393924
H141	H	-0.128071	1.275773	-0.945215
H142	H	0.371929	1.775773	-0.445215
H143	H	-0.123800	1.355677	-0.984225
H144	H	0.376200	1.855677	-0.484225
H145	H	-0.297936	1.255660	-1.071221
H146	H	0.202064	1.755660	-0.571221
H147	H	-0.485025	1.068447	-1.071155
H148	H	0.014975	1.568447	-0.571155
O149	O	-0.486825	1.066680	-0.932140
O150	O	0.013175	1.566680	-0.432140
C151	C	-0.534517	1.018915	-0.980328
C152	C	-0.034517	1.518915	-0.480328
H153	H	-0.539726	1.049546	-1.032721
H154	H	-0.039726	1.549546	-0.532721
H155	H	-0.505326	0.957345	-0.988155
H156	H	-0.005326	1.457345	-0.488155
C157	C	-0.612613	0.970909	-0.887266
C158	C	-0.112613	1.470909	-0.387266
C159	C	-0.619016	1.008535	-0.951615
C160	C	-0.119016	1.508535	-0.451615
H161	H	-0.664735	0.964502	-0.869555
H162	H	-0.164735	1.464502	-0.369555
H163	H	-0.580480	1.003087	-0.854800
H164	H	-0.080480	1.503087	-0.354800
H165	H	-0.588284	0.919605	-0.893798
H166	H	-0.088284	1.419605	-0.393798
H167	H	-0.643335	1.059841	-0.945081
H168	H	-0.143335	1.559841	-0.445081
H169	H	-0.651155	0.976365	-0.984080
H170	H	-0.151155	1.476365	-0.484080
H171	H	-0.515946	1.037536	-0.741055
H172	H	-0.015946	1.537536	-0.241055
O173	O	-0.517777	1.035796	-0.602027
O174	O	-0.017777	1.535796	-0.102027
C175	C	-0.565483	0.988038	-0.650210
C176	C	-0.065483	1.488038	-0.150210
H177	H	-0.570666	1.018653	-0.702613
H178	H	-0.070666	1.518653	-0.202613
H179	H	-0.536320	0.926452	-0.658018
H180	H	-0.036320	1.426452	-0.158018
C181	C	-0.643622	0.940104	-0.557148
C182	C	-0.143622	1.440104	-0.057148
C183	C	-0.649993	0.977710	-0.621507
C184	C	-0.149993	1.477710	-0.121507
H185	H	-0.695751	0.933729	-0.539442
H186	H	-0.195751	1.433729	-0.039442
H187	H	-0.611480	0.972277	-0.524685
H188	H	-0.111480	1.472277	-0.024685
H189	H	-0.619316	0.888786	-0.563663
H190	H	-0.119316	1.388786	-0.063663
H191	H	-0.674289	1.029030	-0.614990
H192	H	-0.174289	1.529030	-0.114990
H193	H	-0.682141	0.945545	-0.653968
H194	H	-0.182141	1.445545	-0.153968
