data_functionalizedCrystal
_audit_creation_method	'MofGen! by Chris Wilmer'
_symmetry_space_group_name_H-M	'P1'
_symmetry_Int_Tables_number	1
_symmetry_cell_setting	triclinic
loop_
_symmetry_equiv_pos_as_xyz
  x,y,z
_cell_length_a	15.944551
_cell_length_b	11.792241
_cell_length_c	10.268362
_cell_angle_alpha	89.999703
_cell_angle_beta	90.000094
_cell_angle_gamma	96.153923
loop_
_atom_site_label
_atom_site_type_symbol
_atom_site_fract_x
_atom_site_fract_y
_atom_site_fract_z
O1	O	-1.115185	0.146381	-0.108150
O2	O	-0.615185	0.646381	0.391850
O3	O	-0.870717	0.164428	-0.108180
O4	O	-0.370717	0.664428	0.391820
O5	O	-0.998883	-0.009815	-0.108172
O6	O	-0.498883	0.490185	0.391828
O7	O	-0.987018	0.320624	-0.108158
O8	O	-0.487018	0.820624	0.391842
O9	O	-0.998872	-0.009822	0.108428
O10	O	-0.498872	0.490178	0.608428
O11	O	-0.870705	0.164421	0.108420
O12	O	-0.370705	0.664421	0.608420
O13	O	-1.115173	0.146373	0.108451
O14	O	-0.615173	0.646373	0.608451
Cu15	Cu	-0.992938	0.155396	0.128213
Cu16	Cu	-0.492938	0.655396	0.628213
Cu17	Cu	-0.992952	0.155405	-0.127942
Cu18	Cu	-0.492952	0.655405	0.372058
O19	O	-0.987007	0.320616	0.108443
O20	O	-0.487007	0.820616	0.608443
C21	C	-0.839414	0.163675	0.000116
C22	C	-0.339414	0.663675	0.500116
C23	C	-0.746157	0.161429	0.000103
C24	C	-0.246157	0.661429	0.500103
C25	C	-1.146476	0.147126	0.000152
C26	C	-0.646476	0.647126	0.500152
C27	C	-1.239733	0.149372	0.000156
C28	C	-0.739733	0.649372	0.500156
C29	C	-0.987758	0.362905	0.000144
C30	C	-0.487758	0.862905	0.500144
C31	C	-0.989989	0.488900	0.000150
C32	C	-0.489989	0.988900	0.500150
C33	C	-0.530789	0.048056	0.000124
C34	C	-0.030789	0.548056	0.500124
C35	C	-0.470012	0.100706	-0.106670
C36	C	0.029988	0.600706	0.393330
C37	C	-0.575413	0.157365	0.000119
C38	C	-0.075413	0.657365	0.500119
C39	C	-0.470023	0.100725	0.106882
C40	C	0.029977	0.600725	0.606882
C41	C	-0.410483	0.153432	0.000139
C42	C	0.089517	0.653432	0.500139
C43	C	-0.515864	0.210045	-0.106763
C44	C	-0.015864	0.710045	0.393237
C45	C	-0.515882	0.210049	0.106884
C46	C	-0.015882	0.710049	0.606884
C47	C	-0.455123	0.262778	0.000065
C48	C	0.044877	0.762778	0.500065
C49	C	-0.670426	0.159628	0.000106
C50	C	-0.170426	0.659628	0.500106
C51	C	-0.315471	0.151178	0.000142
C52	C	0.184529	0.651178	0.500142
C53	C	-0.998132	-0.052104	0.000123
C54	C	-0.498132	0.447896	0.500123
C55	C	-0.995901	-0.178099	0.000109
C56	C	-0.495901	0.321901	0.500109
N57	N	-0.992935	0.155390	0.308379
N58	N	-0.492935	0.655390	0.808379
C59	C	-0.994091	0.719579	0.000118
C60	C	-0.494091	1.219579	0.500118
C61	C	-0.991811	0.591212	0.000136
C62	C	-0.491811	1.091212	0.500136
N63	N	-0.992961	0.155402	-0.308108
N64	N	-0.492961	0.655402	0.191892
C65	C	-0.992947	0.155403	0.574049
C66	C	-0.492947	0.655403	1.074049
C67	C	-0.992938	0.155399	0.426211
C68	C	-0.492938	0.655399	0.926211
H69	H	-0.563713	-0.042662	-0.000012
H70	H	-0.063713	0.457338	0.499988
H71	H	-0.449698	0.054476	-0.196960
H72	H	0.050302	0.554476	0.303040
F73	F	-0.542464	0.270426	0.224906
F74	F	-0.042464	0.770426	0.724906
F75	F	-0.542265	0.270435	-0.224902
F76	F	-0.042265	0.770435	0.275098
F77	F	-0.412315	0.381473	-0.000005
F78	F	0.087685	0.881473	0.499995
F79	F	-0.443492	0.040268	0.224889
F80	F	0.056508	0.540268	0.724889
