data_functionalizedCrystal
_audit_creation_method	'MofGen! by Chris Wilmer'
_symmetry_space_group_name_H-M	'P1'
_symmetry_Int_Tables_number	1
_symmetry_cell_setting	triclinic
loop_
_symmetry_equiv_pos_as_xyz
  x,y,z
_cell_length_a	6.817900
_cell_length_b	17.982959
_cell_length_c	16.305550
_cell_angle_alpha	95.663793
_cell_angle_beta	103.455250
_cell_angle_gamma	102.451857
loop_
_atom_site_label
_atom_site_type_symbol
_atom_site_fract_x
_atom_site_fract_y
_atom_site_fract_z
V1	V	-4.021185	-0.106056	-0.263386
O2	O	-4.014053	0.004435	-0.258009
O3	O	-3.967692	-0.209656	-0.261933
O4	O	-3.972655	-0.104715	-0.378098
O5	O	-4.009056	-0.101232	-0.141040
V6	V	-4.505489	-0.092806	-0.248710
O7	O	-4.280728	-0.135122	-0.295579
O8	O	-4.696143	-0.063740	-0.216517
O9	O	-4.335776	0.010793	-0.250163
O10	O	-4.630018	-0.203297	-0.254086
O11	O	-4.635015	-0.097630	-0.371056
O12	O	-4.330813	-0.094147	-0.133997
C13	C	-3.811458	-0.234902	-0.257868
C14	C	-3.849007	-0.319597	-0.257445
C15	C	-4.048560	-0.363278	-0.261467
C16	C	-4.083832	-0.442859	-0.261074
C17	C	-3.919546	-0.478757	-0.256654
C18	C	-3.719978	-0.435071	-0.252634
C19	C	-3.684711	-0.355492	-0.253032
C20	C	-3.862200	-0.756002	-0.251027
C21	C	-3.897482	-0.835586	-0.250626
C22	C	-4.261321	-0.843370	-0.259069
C23	C	-4.226054	-0.763791	-0.259467
C24	C	-4.026493	-0.720112	-0.255452
C25	C	-3.988250	-0.633822	-0.255879
C26	C	-3.957783	-0.565045	-0.256220
C27	C	-3.817788	-0.101039	-0.406047
C28	C	-3.859359	-0.100628	-0.499828
C29	C	-4.010522	-0.099036	-0.840568
C30	C	-3.774699	-0.094308	-0.799624
C31	C	-3.731470	-0.095051	-0.702131
C32	C	-3.935526	-0.099825	-0.671523
C33	C	-4.098969	-0.175070	-0.722401
C34	C	-4.140853	-0.174645	-0.819949
C35	C	-4.068613	-0.029120	-0.794491
C36	C	-4.020712	-0.028524	-0.696646
C37	C	-3.893155	-0.100274	-0.575986
C38	C	-4.052902	-0.098592	-0.936105
C39	C	-4.155351	0.036035	-0.254225
C40	C	-4.097040	0.120730	-0.254654
C41	C	-4.149022	-0.097826	-0.106044
C42	C	-4.086689	-0.098233	-0.012263
H43	H	-3.522219	-0.319928	-0.249761
N44	N	-4.476480	-0.890512	-0.263316
H45	H	-4.526227	-0.931260	-0.315876
H46	H	-4.575126	-0.855672	-0.266110
N47	N	-4.225757	-0.324563	-0.266234
H48	H	-4.357527	-0.364314	-0.268725
H49	H	-4.245962	-0.299244	-0.319149
H50	H	-3.607555	-0.040950	-0.666927
N51	N	-4.089615	-0.244749	-0.860431
H52	H	-4.116252	-0.245174	-0.924075
H53	H	-4.179948	-0.292897	-0.848929
N54	N	-3.646953	-0.708907	-0.246684
H55	H	-3.597285	-0.668187	-0.194098
H56	H	-3.651260	-0.683296	-0.299262
H57	H	-3.727212	-0.144540	-0.831303
N58	N	-3.637520	-0.022312	-0.815761
H59	H	-3.726900	0.007941	-0.849771
H60	H	-3.539945	-0.037130	-0.848861
H61	H	-3.902321	0.027132	-0.662082
H62	H	-4.240545	-0.031914	-0.821316
N63	N	-3.640181	-0.162334	-0.680758
H64	H	-3.627919	-0.191631	-0.734706
H65	H	-3.733794	-0.197696	-0.653595
N66	N	-4.370691	-0.183380	-0.857064
H67	H	-4.444378	-0.187493	-0.810044
H68	H	-4.429032	-0.231511	-0.901163
H69	H	-4.251828	-0.181285	-0.703509
H70	H	-4.041009	-0.228013	-0.705765
H71	H	-3.979933	0.027893	-0.807668
H72	H	-4.168045	-0.027588	-0.675295
H73	H	-4.246325	-0.478422	-0.264351
H74	H	-4.359834	-0.734567	-0.263063
N75	N	-3.720273	-0.874303	-0.245860
H76	H	-3.753727	-0.914679	-0.298067
H77	H	-3.699958	-0.899568	-0.192907
H78	H	-3.586218	-0.464305	-0.249039
