data_functionalizedCrystal
_audit_creation_method	'MofGen! by Chris Wilmer'
_symmetry_space_group_name_H-M	'P1'
_symmetry_Int_Tables_number	1
_symmetry_cell_setting	triclinic
loop_
_symmetry_equiv_pos_as_xyz
  x,y,z
_cell_length_a	19.288859
_cell_length_b	16.109295
_cell_length_c	17.766277
_cell_angle_alpha	89.995364
_cell_angle_beta	89.999931
_cell_angle_gamma	96.703543
loop_
_atom_site_label
_atom_site_type_symbol
_atom_site_fract_x
_atom_site_fract_y
_atom_site_fract_z
O1	O	0.921591	-0.103695	0.062604
O2	O	0.719363	-0.117691	0.062601
O3	O	0.826034	0.010357	0.062604
O4	O	0.814919	-0.231744	0.062602
O5	O	0.826037	0.010370	-0.062585
O6	O	0.719365	-0.117679	-0.062587
O7	O	0.921593	-0.103682	-0.062585
Cu8	Cu	0.820480	-0.110679	-0.074017
Cu9	Cu	0.820477	-0.110694	0.074033
O10	O	0.814922	-0.231731	-0.062587
C11	C	0.693487	-0.117236	0.000007
C12	C	0.616380	-0.115886	0.000006
C13	C	0.052495	-0.181891	0.000007
C14	C	0.124945	-0.183166	0.000011
C15	C	0.169473	-0.108033	0.000010
C16	C	0.141547	-0.031619	0.000025
C17	C	0.069099	-0.030346	0.000028
C18	C	0.290612	-0.051995	-0.043851
C19	C	0.363058	-0.053271	-0.043860
C20	C	0.392929	-0.111956	0.000002
C21	C	0.350342	-0.169380	0.043863
C22	C	0.277893	-0.168107	0.043866
C23	C	0.248032	-0.109405	0.000007
C24	C	0.499405	-0.189748	-0.000003
C25	C	0.571856	-0.191020	0.000006
C26	C	0.588457	-0.039471	0.000012
C27	C	0.516007	-0.038201	0.000011
C28	C	0.471485	-0.113342	0.000000
C29	C	0.825586	0.041337	0.000011
C30	C	0.824238	0.133628	0.000017
C31	C	0.884400	0.356108	0.000045
C32	C	0.883128	0.442825	0.000058
C33	C	0.756568	0.422514	0.000052
C34	C	0.757841	0.335799	0.000045
C35	C	0.821759	0.302599	0.000038
C36	C	0.819214	0.476030	0.000057
C37	C	0.817835	0.570051	0.000071
C38	C	0.823138	0.208572	0.000026
C39	C	0.947470	-0.104138	0.000012
C40	C	1.024577	-0.105487	0.000017
C41	C	0.815374	0.737290	0.000025
C42	C	0.816735	0.645001	0.000078
N43	N	0.820475	-0.110699	0.178164
N44	N	0.820487	-0.110668	-0.178147
C45	C	0.867793	-0.054109	0.217552
C46	C	0.867799	-0.054108	0.296353
C47	C	0.820475	-0.110688	0.335764
C48	C	0.773153	-0.167288	0.296367
C49	C	0.773153	-0.167294	0.217567
C50	C	0.757213	-0.121636	0.460609
C51	C	0.757212	-0.121625	0.539407
C52	C	0.820475	-0.110676	0.578811
C53	C	0.883742	-0.099721	0.539405
C54	C	0.883742	-0.099726	0.460605
C55	C	0.820470	-0.110689	0.421210
C56	C	0.867804	-0.054082	0.703645
C57	C	0.867811	-0.054086	0.782448
C58	C	0.773158	-0.167263	0.782460
C59	C	0.773158	-0.167262	0.703658
C60	C	0.820480	-0.110668	0.664255
H61	H	0.594585	-0.253240	0.000004
F62	F	0.691166	0.278847	0.000043
H63	H	0.906333	-0.008024	0.328429
H64	H	0.934137	0.486389	0.000065
F65	F	0.005115	-0.261864	0.000003
F66	F	0.918171	0.006148	0.661708
F67	F	0.689881	-0.133341	0.581338
F68	F	0.952427	0.320777	0.000038
H69	H	0.935255	-0.090808	0.428525
F70	F	0.689876	-0.133294	0.418680
H71	H	0.624712	0.021704	0.000017
F72	F	0.951076	-0.088063	0.581335
F73	F	0.722797	-0.227485	0.824400
H74	H	0.734622	-0.213358	0.328459
H75	H	0.734620	-0.213377	0.185496
H76	H	0.704529	0.449556	0.000057
H77	H	0.493276	0.024015	0.000015
H78	H	0.147681	-0.245386	-0.000005
F79	F	0.918180	0.006142	0.824369
F80	F	0.258833	0.010503	-0.090503
F81	F	0.918159	0.006120	0.175618
H82	H	0.397727	-0.006518	-0.079577
F83	F	0.722792	-0.227489	0.661735
F84	F	0.382124	-0.231849	0.090541
F85	F	0.452018	-0.269719	-0.000012
F86	F	0.232572	-0.229216	0.090548
F87	F	0.188939	0.048343	0.000026
H88	H	0.046369	0.031873	0.000037
