data_functionalizedCrystal
_audit_creation_method	'MofGen! by Chris Wilmer'
_symmetry_space_group_name_H-M	'P1'
_symmetry_Int_Tables_number	1
_symmetry_cell_setting	triclinic
loop_
_symmetry_equiv_pos_as_xyz
  x,y,z
_cell_length_a	15.995350
_cell_length_b	23.532407
_cell_length_c	15.072220
_cell_angle_alpha	89.994175
_cell_angle_beta	89.991149
_cell_angle_gamma	83.170526
loop_
_atom_site_label
_atom_site_type_symbol
_atom_site_fract_x
_atom_site_fract_y
_atom_site_fract_z
O1	O	1.110385	0.073404	-0.073717
O2	O	0.866535	0.082469	-0.073736
O3	O	0.995813	-0.004967	-0.073710
O4	O	0.981107	0.160840	-0.073743
O5	O	0.995781	-0.004962	0.073856
O6	O	0.866503	0.082474	0.073829
O7	O	1.110354	0.073409	0.073848
Zn8	Zn	0.988423	0.077942	0.097268
Zn9	Zn	0.988465	0.077935	-0.097155
O10	O	0.981075	0.160845	0.073822
C11	C	0.835327	0.082096	0.000044
C12	C	0.742386	0.080973	0.000038
C13	C	0.404672	0.076938	0.000057
C14	C	0.452624	0.014668	0.000399
C15	C	0.549305	0.015792	0.000060
C16	C	0.572216	0.078939	0.000048
C17	C	0.530892	0.109650	-0.084222
C18	C	0.434269	0.108086	-0.084286
C19	C	0.433883	0.109378	0.083523
C20	C	0.530828	0.109363	0.084631
C21	C	0.666904	0.080074	0.000040
C22	C	0.309984	0.075805	0.000059
C23	C	0.995423	-0.026182	0.000075
C24	C	0.994297	-0.089404	0.000082
C25	C	1.063739	-0.488239	0.000039
C26	C	1.062693	-0.547644	0.000032
O27	O	1.127067	-0.584141	0.000004
N28	N	0.985837	-0.570566	0.000027
C29	C	0.910022	-0.534080	0.000019
O30	O	0.844554	-0.559031	0.000013
C31	C	0.911069	-0.474677	0.000019
C32	C	0.987930	-0.451758	0.000034
C33	C	1.140594	-0.465320	0.000052
C34	C	1.141640	-0.405920	0.000061
C35	C	1.065830	-0.369439	0.000056
C36	C	0.988975	-0.392358	0.000042
C37	C	0.835255	-0.438192	0.000005
C38	C	0.836308	-0.378785	0.000005
C39	C	0.913169	-0.355867	0.000020
C40	C	0.914212	-0.296477	0.000046
N41	N	0.991068	-0.273555	0.000051
C42	C	1.066877	-0.310036	0.000056
C43	C	0.907829	-0.658831	0.000016
C44	C	0.906781	-0.718233	0.000022
C45	C	1.059453	-0.731793	0.000034
C46	C	1.060500	-0.672389	0.000034
C47	C	0.984685	-0.635909	0.000022
C48	C	1.069067	-0.185291	0.000075
C49	C	1.070106	-0.125885	0.000087
C50	C	0.917435	-0.112330	0.000071
C51	C	0.916396	-0.171731	0.000063
C52	C	0.992219	-0.208210	0.000062
O53	O	0.849872	-0.259945	0.000070
O54	O	1.132335	-0.285076	0.000051
C55	C	1.141561	0.073781	0.000066
C56	C	1.234502	0.074905	0.000067
C57	C	0.981465	0.182060	0.000035
C58	C	0.982591	0.245281	0.000023
N59	N	0.988401	0.077946	0.229957
N60	N	0.988494	0.077927	-0.229844
C61	C	0.988463	0.077933	0.589158
C62	C	0.919059	0.124562	0.551537
C63	C	0.919216	0.124732	0.448711
C64	C	0.988431	0.077940	0.410954
C65	C	1.075688	0.090918	0.448249
C66	C	1.075299	0.091250	0.551107
C67	C	0.971391	0.018188	0.551269
C68	C	0.969383	0.018587	0.448405
C69	C	0.988419	0.077942	0.310241
C70	C	0.988482	0.077932	0.689872
H71	H	0.401740	0.155290	0.084084
Br72	Br	0.596066	-0.024542	-0.100961
Br73	Br	0.422073	-0.026817	0.101127
Br74	Br	1.101518	0.162712	0.405289
H75	H	0.909172	0.005708	0.577257
H76	H	0.929757	0.168648	0.577368
H77	H	0.577922	-0.008349	0.060468
H78	H	1.090419	0.134821	0.575081
Br79	Br	0.937261	0.198636	0.407665
Br80	Br	1.243493	-0.514821	0.000058
H81	H	0.854341	0.116999	0.423497
H82	H	1.022010	-0.016511	0.575598
H83	H	0.853973	0.116956	0.576295
H84	H	0.774569	-0.349085	-0.000006
Br85	Br	0.862403	0.002167	0.407783
H86	H	0.401641	0.153804	-0.088119
Br87	Br	1.162338	-0.781314	0.000037
Br88	Br	0.553816	0.186970	-0.089484
H89	H	1.128531	0.058627	0.575992
Br90	Br	0.812084	-0.202836	0.000064
H91	H	0.433249	-0.010110	-0.059692
Br92	Br	1.174425	-0.094785	0.000108
H93	H	0.416160	0.085686	-0.147271
H94	H	0.559457	0.088316	-0.146929
Br95	Br	0.399920	0.075450	0.189985
Br96	Br	1.163795	0.035819	0.407492
Br97	Br	1.164815	-0.641292	0.000056
Br98	Br	0.802466	-0.749328	0.000024
H99	H	0.558318	0.086945	0.146973
H100	H	1.016688	-0.017738	0.422708
Br101	Br	0.555790	0.186119	0.093100
Br102	Br	1.171971	-0.234789	0.000073
H103	H	0.846088	-0.629131	0.000014
Br104	Br	0.730936	-0.469280	-0.000018
Br105	Br	0.814556	-0.062809	0.000064
Br106	Br	1.245957	-0.374826	0.000055
