data_functionalizedCrystal
_audit_creation_method	'MofGen! by Chris Wilmer'
_symmetry_space_group_name_H-M	'P1'
_symmetry_Int_Tables_number	1
_symmetry_cell_setting	triclinic
loop_
_symmetry_equiv_pos_as_xyz
  x,y,z
_cell_length_a	9.065218
_cell_length_b	10.489741
_cell_length_c	8.140239
_cell_angle_alpha	89.996756
_cell_angle_beta	89.997198
_cell_angle_gamma	84.777530
loop_
_atom_site_label
_atom_site_type_symbol
_atom_site_fract_x
_atom_site_fract_y
_atom_site_fract_z
O1	O	1.959494	0.187043	-0.136617
O2	O	1.530135	0.202385	-0.136619
O3	O	1.754585	0.009151	-0.136608
O4	O	1.735045	0.380276	-0.136628
O5	O	1.754572	0.009149	0.136619
O6	O	1.530123	0.202383	0.136608
O7	O	1.959482	0.187040	0.136610
Zn8	Zn	1.744800	0.194711	0.179990
Zn9	Zn	1.744817	0.194714	-0.179999
O10	O	1.735032	0.380274	0.136599
C11	C	1.475149	0.200909	-0.000006
C12	C	1.311328	0.196501	-0.000006
C13	C	1.753102	-0.038387	0.000004
C14	C	1.748687	-0.180032	0.000001
C15	C	1.605877	-0.248688	-0.000011
C16	C	1.673333	-0.340568	0.134704
C17	C	1.673379	-0.340540	-0.134676
C18	C	1.816202	-0.270047	0.134828
C19	C	1.816228	-0.270009	-0.134673
C20	C	1.883788	-0.361862	0.000075
C21	C	2.014467	0.188516	-0.000007
C22	C	2.178289	0.192925	-0.000017
C23	C	1.736514	0.427812	-0.000017
C24	C	1.740930	0.569458	-0.000025
N25	N	1.744800	0.194708	0.425672
N26	N	1.744829	0.194707	-0.425681
H27	H	1.488459	-0.199461	0.000124
C28	C	1.897743	-0.227681	-0.288527
H29	H	1.982138	-0.186398	-0.256172
H30	H	1.833068	-0.169976	-0.350784
H31	H	1.928311	-0.300544	-0.353540
C32	C	1.591701	-0.382767	0.288556
H33	H	1.492966	-0.343662	0.288396
H34	H	1.641484	-0.357470	0.384221
H35	H	1.590265	-0.473210	0.287944
C36	C	1.591738	-0.382689	-0.288534
H37	H	1.656884	-0.439147	-0.351979
H38	H	1.559590	-0.309589	-0.352386
H39	H	1.508372	-0.425356	-0.256142
C40	C	1.897742	-0.228111	0.288866
H41	H	1.900003	-0.137745	0.287966
H42	H	1.996171	-0.267871	0.289263
H43	H	1.847327	-0.252828	0.384410
C44	C	2.042542	-0.428070	0.000175
H45	H	2.093020	-0.403935	0.095958
H46	H	2.093659	-0.402846	-0.094613
H47	H	2.038879	-0.518289	-0.000722
