data_functionalizedCrystal
_audit_creation_method	'MofGen! by Chris Wilmer'
_symmetry_space_group_name_H-M	'P1'
_symmetry_Int_Tables_number	1
_symmetry_cell_setting	triclinic
loop_
_symmetry_equiv_pos_as_xyz
  x,y,z
_cell_length_a	12.970454
_cell_length_b	23.196402
_cell_length_c	23.196401
_cell_angle_alpha	60.008822
_cell_angle_beta	90.012226
_cell_angle_gamma	59.999878
loop_
_atom_site_label
_atom_site_type_symbol
_atom_site_fract_x
_atom_site_fract_y
_atom_site_fract_z
Zr1	Zr	0.993220	0.630996	-0.075636
O2	O	0.828562	0.751263	-0.167681
O3	O	1.043692	0.510730	-0.047423
O4	O	1.043647	0.630997	-0.167688
O5	O	0.828648	0.630995	0.047456
O6	O	1.213314	0.630997	-0.167689
O7	O	0.828607	0.630996	-0.047416
O8	O	1.213396	0.415861	0.047443
O9	O	0.828566	0.846130	-0.167677
O10	O	1.191844	0.560196	-0.035387
O11	O	1.065253	0.560196	0.035416
O12	O	1.065200	0.701795	-0.106181
O13	O	0.938609	0.701794	-0.035379
Zr14	Zr	1.263884	0.630993	0.075671
Zr15	Zr	1.263820	0.630995	-0.075638
Zr16	Zr	0.993285	0.630994	0.075673
Zr17	Zr	0.993227	0.782298	-0.075629
Zr18	Zr	1.263877	0.479690	0.075664
O19	O	1.213412	0.751259	0.047457
O20	O	1.213320	0.751262	-0.167684
O21	O	0.828654	0.751260	0.047461
O22	O	1.428543	0.510726	0.167716
O23	O	1.428451	0.510729	-0.047426
O24	O	1.043784	0.510727	0.167719
O25	O	1.428456	0.630994	-0.047421
O26	O	1.213458	0.630992	0.167723
O27	O	1.043790	0.630992	0.167724
O28	O	1.428497	0.630993	0.047450
O29	O	1.043657	0.846130	-0.167679
O30	O	1.213447	0.415859	0.167713
O31	O	1.428538	0.415858	0.167712
O32	O	1.428486	0.415860	0.047441
O33	O	0.828618	0.846129	-0.047407
O34	O	1.043709	0.846128	-0.047408
O35	O	1.191905	0.560194	0.106216
O36	O	1.318495	0.560195	0.035413
O37	O	1.191851	0.701793	-0.035381
O38	O	1.065260	0.701792	0.035422
C39	C	1.128543	0.441738	0.000009
C40	C	1.128540	0.377506	0.000006
C41	C	0.790073	0.630995	0.000020
C42	C	0.675196	0.630996	0.000021
C43	C	1.194610	0.347336	-0.036954
C44	C	1.194622	0.286975	-0.036949
C45	C	1.128539	0.256798	0.000008
C46	C	1.062466	0.286972	0.036977
C47	C	1.062466	0.347326	0.036976
C48	C	1.017827	0.194769	-0.005265
C49	C	1.017823	0.134420	-0.005269
C50	C	1.128541	0.070643	0.000015
C51	C	1.239262	0.067231	0.005290
C52	C	1.239262	0.127585	0.005289
C53	C	1.128533	0.191354	0.000014
C54	C	1.194630	-0.024978	-0.036941
C55	C	1.194646	-0.085344	-0.036930
C56	C	1.062478	-0.085340	0.036991
C57	C	1.062475	-0.024981	0.036985
C58	C	1.128548	0.005199	0.000015
C59	C	1.467031	0.630993	0.000014
C60	C	1.581908	0.630993	0.000013
C61	C	1.128471	0.630997	-0.189247
C62	C	1.128444	0.630998	-0.253482
C63	C	1.128561	0.820251	0.000025
C64	C	1.128565	0.884483	0.000028
C65	C	1.062343	0.704909	-0.320608
C66	C	1.062375	0.704910	-0.380964
C67	C	1.128491	0.630996	-0.374188
C68	C	1.194606	0.557076	-0.307049
C69	C	1.194582	0.557077	-0.246696
C70	C	1.119099	0.574368	-0.441507
C71	C	1.119113	0.574370	-0.501861
C72	C	1.128571	0.630990	-0.560336
C73	C	1.137988	0.687621	-0.558456
C74	C	1.137964	0.687622	-0.498103
C75	C	1.128524	0.630987	-0.439627
C76	C	1.062501	0.704907	-0.692909
C77	C	1.062542	0.704905	-0.753264
C78	C	1.194765	0.557069	-0.679347
C79	C	1.194732	0.557073	-0.618994
C80	C	1.128594	0.630994	-0.625780
C81	C	1.128633	0.630992	0.189282
C82	C	1.128661	0.630991	0.253516
C83	C	1.467022	0.441737	0.000006
C84	C	1.581896	0.377505	0.000003
C85	C	1.128624	0.441735	0.189274
C86	C	1.128648	0.377502	0.253505
C87	C	1.467103	0.441734	0.189271
C88	C	1.582004	0.377501	0.253502
C89	C	0.790001	0.820255	-0.189236
C90	C	0.675100	0.884488	-0.253467
C91	C	0.790082	0.820252	0.000028
C92	C	0.675209	0.884484	0.000032
C93	C	1.128480	0.820254	-0.189239
C94	C	1.128456	0.884486	-0.253471
C95	C	1.569731	0.347342	-0.036963
C96	C	1.677657	0.286997	-0.036980
C97	C	1.797746	0.256813	-0.000028
C98	C	1.809908	0.286982	0.036938
C99	C	1.701984	0.347330	0.036951
C100	C	1.194770	0.347337	0.320633
C101	C	1.194788	0.286992	0.380991
C102	C	1.128691	0.256809	0.374221
C103	C	1.062561	0.286980	0.307086
C104	C	1.062536	0.347328	0.246729
C105	C	1.702053	0.347337	0.246707
C106	C	1.810025	0.286991	0.307053
C107	C	1.797946	0.256807	0.374193
C108	C	1.677884	0.286977	0.380986
C109	C	1.569915	0.347326	0.320641
C110	C	0.555051	0.914659	-0.246672
C111	C	0.447079	0.975024	-0.307018
C112	C	0.459159	1.005211	-0.374158
C113	C	0.579220	0.975037	-0.380951
C114	C	0.687190	0.914678	-0.320606
C115	C	0.687373	0.914654	0.036991
C116	C	0.579448	0.975015	0.036992
C117	C	0.459358	1.005201	0.000038
C118	C	0.447196	0.975029	-0.036926
C119	C	0.555121	0.914673	-0.036930
C120	C	1.194566	0.914650	-0.246678
C121	C	1.194568	0.974996	-0.307025
C122	C	1.128452	1.005181	-0.374164
C123	C	1.062339	0.975011	-0.380956
C124	C	1.062346	0.914662	-0.320609
H125	H	1.248414	0.371905	-0.067055
F126	F	0.542154	0.882566	-0.076265
F127	F	1.128729	0.192580	0.438465
H128	H	1.248595	0.371906	0.326159
F129	F	1.665047	0.254844	0.452447
F130	F	1.912869	0.192577	0.438412
F131	F	1.109080	0.514104	-0.503858
F132	F	1.937726	0.254847	0.076264
F133	F	0.592418	1.007113	0.076338
F134	F	1.128454	1.069411	-0.438384
H135	H	1.711913	0.371904	0.192043
H136	H	0.589041	0.999624	-0.435624
H137	H	0.349405	0.999616	-0.067013
H138	H	1.008746	0.262396	0.301584
H139	H	0.371233	1.054359	-0.423289
H140	H	1.248456	-0.109912	-0.067025
H141	H	1.248439	0.496895	-0.301536
F142	F	1.714950	0.379421	0.076301
F143	F	1.264930	1.007097	-0.299781
H144	H	1.248406	0.890083	-0.192015
F145	F	1.937792	0.254890	0.299808
H146	H	1.008509	0.999597	-0.435628
H147	H	1.008505	0.890110	-0.326150
F148	F	1.264957	0.254853	-0.076283
H149	H	1.008648	0.765098	-0.698435
F150	F	1.357096	0.123951	0.010905
H151	H	1.248644	0.262434	0.435649
H152	H	0.785146	0.890080	0.067088
F153	F	0.992162	0.379423	0.175289
H154	H	1.472169	0.371878	0.326183
H155	H	1.248436	-0.000407	-0.067042
F156	F	1.357104	-0.000640	0.010912
F157	F	1.264933	0.478408	-0.175249
H158	H	1.008672	-0.109909	0.067082
H159	H	1.008668	-0.000413	0.067080
F160	F	0.899984	0.138059	-0.010887
F161	F	0.542166	0.882541	-0.175222
H162	H	0.927654	0.246706	-0.009583
F163	F	0.992143	0.379436	0.076317
H164	H	1.008662	0.262397	0.067069
F165	F	0.991930	0.783583	-0.327835
F166	F	0.814952	0.882569	-0.327849
H167	H	0.371490	1.054347	0.000047
H168	H	0.349330	0.999581	-0.301473
H169	H	1.008545	0.765099	-0.435629
H170	H	1.008720	0.765094	-0.807923
H171	H	1.145682	0.733729	-0.606069
F172	F	1.265144	0.478403	-0.672131
F173	F	1.265065	0.478406	-0.547549
F174	F	1.147987	0.747891	-0.496104
H175	H	1.111389	0.528262	-0.393899
H176	H	1.667729	0.262441	-0.067082
F177	F	1.912599	0.192584	-0.000048
F178	F	1.441933	0.379457	-0.076297
