data_functionalizedCrystal
_audit_creation_method	'MofGen! by Chris Wilmer'
_symmetry_space_group_name_H-M	'P1'
_symmetry_Int_Tables_number	1
_symmetry_cell_setting	triclinic
loop_
_symmetry_equiv_pos_as_xyz
  x,y,z
_cell_length_a	17.699083
_cell_length_b	16.109301
_cell_length_c	14.586319
_cell_angle_alpha	89.998390
_cell_angle_beta	90.000185
_cell_angle_gamma	83.372248
loop_
_atom_site_label
_atom_site_type_symbol
_atom_site_fract_x
_atom_site_fract_y
_atom_site_fract_z
O1	O	-1.004228	-0.105132	0.076115
O2	O	-0.783869	-0.118811	0.076145
O3	O	-0.900102	0.009070	0.076120
O4	O	-0.887995	-0.233013	0.076140
O5	O	-0.900088	0.009063	-0.076361
O6	O	-0.783855	-0.118818	-0.076336
O7	O	-1.004214	-0.105139	-0.076366
Cu8	Cu	-0.894033	-0.111979	-0.090274
Cu9	Cu	-0.894050	-0.111971	0.090053
O10	O	-0.887981	-0.233020	-0.076341
C11	C	-0.755664	-0.118324	-0.000091
C12	C	-0.671644	-0.116854	-0.000080
C13	C	-0.899604	0.040040	-0.000121
C14	C	-0.898134	0.132333	-0.000122
C15	C	-1.032419	-0.105626	-0.000127
C16	C	-1.116439	-0.107096	-0.000133
C17	C	-0.623130	-0.191917	-0.000074
C18	C	-0.544185	-0.190531	-0.000086
C19	C	-0.513755	-0.114080	-0.000098
C20	C	-0.562275	-0.039011	-0.000106
C21	C	-0.641219	-0.040398	-0.000101
C22	C	-0.243904	-0.033414	-0.000130
C23	C	-0.164954	-0.032032	-0.000132
C24	C	-0.146870	-0.183546	-0.000115
C25	C	-0.225814	-0.184934	-0.000109
C26	C	-0.274327	-0.109865	-0.000123
C27	C	-0.359928	-0.111369	-0.000112
C28	C	-0.428155	-0.112575	-0.000102
C29	C	-0.888478	-0.263990	-0.000098
C30	C	-0.889949	-0.356283	-0.000091
N31	N	-0.894027	-0.111985	-0.217105
C32	C	-0.963686	0.354719	-0.000117
C33	C	-0.962298	0.441437	-0.000109
C34	C	-0.824392	0.421325	-0.000093
C35	C	-0.825780	0.334608	-0.000095
C36	C	-0.895429	0.301308	-0.000111
C37	C	-0.892654	0.474742	-0.000102
C38	C	-0.891149	0.568766	-0.000094
C39	C	-0.896934	0.207278	-0.000118
C40	C	-0.939929	-0.162335	-0.452114
C41	C	-0.939937	-0.162329	-0.548095
C42	C	-0.848158	-0.061603	-0.548100
C43	C	-0.848155	-0.061605	-0.452121
C44	C	-0.894039	-0.111976	-0.404130
C45	C	-0.894050	-0.111968	-0.596091
C46	C	-0.894058	-0.111961	-0.700158
C47	C	-0.894032	-0.111981	-0.300056
N48	N	-0.894062	-0.111958	0.216884
H49	H	-0.647900	-0.254172	-0.000064
Cl50	Cl	-0.264064	-0.281047	-0.000090
H51	H	-0.810800	-0.020594	-0.587186
H52	H	-0.680719	0.020726	-0.000105
H53	H	-0.504688	-0.251655	-0.000080
H54	H	-0.107361	-0.244671	-0.000109
H55	H	-1.020398	0.327608	-0.000128
Cl56	Cl	-0.997617	-0.225651	-0.391786
Cl57	Cl	-0.739965	0.267458	-0.000079
Cl58	Cl	-0.997631	-0.225640	-0.608414
H59	H	-0.140182	0.030227	-0.000143
Cl60	Cl	-1.048111	0.508578	-0.000114
H61	H	-0.767686	0.448449	-0.000082
H62	H	-0.810785	-0.020592	-0.413051
H63	H	-0.283394	0.027712	-0.000141
Cl64	Cl	-0.524020	0.057100	-0.000127
