data_functionalizedCrystal
_audit_creation_method	'MofGen! by Chris Wilmer'
_symmetry_space_group_name_H-M	'P1'
_symmetry_Int_Tables_number	1
_symmetry_cell_setting	triclinic
loop_
_symmetry_equiv_pos_as_xyz
  x,y,z
_cell_length_a	8.965430
_cell_length_b	10.489763
_cell_length_c	23.532409
_cell_angle_alpha	83.698960
_cell_angle_beta	89.996511
_cell_angle_gamma	90.001949
loop_
_atom_site_label
_atom_site_type_symbol
_atom_site_fract_x
_atom_site_fract_y
_atom_site_fract_z
O1	O	-0.123963	-1.691365	-0.080401
O2	O	-0.123979	-1.319923	-0.087929
O3	O	-0.123973	-1.516844	-0.001308
O4	O	-0.123970	-1.494445	-0.167022
O5	O	0.124106	-1.516827	-0.001313
O6	O	0.124099	-1.319907	-0.087934
O7	O	0.124116	-1.691349	-0.080406
Cu8	Cu	0.146759	-1.505626	-0.084171
Cu9	Cu	-0.146623	-1.505646	-0.084164
O10	O	0.124109	-1.494428	-0.167027
C11	C	0.000058	-1.272403	-0.087360
C12	C	0.000051	-1.130831	-0.085651
N13	N	0.353108	-1.505622	-0.084175
N14	N	-0.352972	-1.505660	-0.084155
C15	C	0.000065	-1.064523	-0.030530
C16	C	-0.122245	-0.971541	-0.056561
C17	C	0.122341	-0.971558	-0.056580
C18	C	-0.122361	-1.039713	-0.111705
C19	C	0.122336	-1.039740	-0.111716
C20	C	-0.000005	-0.946784	-0.137788
C21	C	0.450411	-1.414525	-0.124221
C22	C	0.549830	-1.529637	-0.135748
C23	C	0.549816	-1.390558	-0.072653
C24	C	0.450339	-1.620792	-0.095728
C25	C	0.450316	-1.481637	-0.032611
C26	C	0.549690	-1.596833	-0.044116
C27	C	0.000079	-0.738872	-0.080966
C28	C	0.000088	-0.880452	-0.082648
C29	C	0.000063	-1.516265	0.019909
C30	C	0.000052	-1.514548	0.083138
C31	C	0.000070	-1.495007	-0.188244
C32	C	0.000071	-1.496724	-0.251473
C33	C	-0.135183	-1.507259	0.356434
C34	C	-0.135183	-1.508853	0.297024
O35	O	-0.250185	-1.509729	0.266296
N36	N	0.000047	-1.509633	0.267313
C37	C	0.135286	-1.508832	0.297017
O38	O	0.250310	-1.509642	0.266291
C39	C	0.135285	-1.507247	0.356427
C40	C	0.000046	-1.506454	0.386134
C41	C	-0.270411	-1.506468	0.386141
C42	C	-0.270410	-1.504872	0.445548
C43	C	-0.135181	-1.504067	0.475248
C44	C	0.000047	-1.504858	0.445541
C45	C	0.270523	-1.506455	0.386131
C46	C	0.270510	-1.504872	0.445545
C47	C	0.135271	-1.504079	0.475252
C48	C	0.135276	-1.502458	0.534647
N49	N	0.000046	-1.501678	0.564358
C50	C	-0.135182	-1.502483	0.534658
C51	C	0.135279	-1.512161	0.172252
C52	C	0.135282	-1.513737	0.112842
C53	C	-0.135188	-1.513760	0.112853
C54	C	-0.135189	-1.512176	0.172263
C55	C	0.000049	-1.511382	0.201962
C56	C	-0.135170	-1.499130	0.659416
C57	C	-0.135158	-1.497528	0.718828
C58	C	0.135311	-1.497512	0.718812
C59	C	0.135299	-1.499106	0.659405
C60	C	0.000046	-1.499920	0.629709
O61	O	0.250219	-1.501586	0.565413
O62	O	-0.250187	-1.501688	0.565392
H63	H	-0.000089	-1.115718	0.014780
H64	H	0.225749	-1.070005	-0.135023
F65	F	0.606318	-1.697654	0.000162
H66	H	-0.380535	-1.504235	0.469730
H67	H	-0.245313	-1.511528	0.196446
H68	H	0.593541	-1.549951	-0.179347
H69	H	0.406826	-1.718136	-0.105517
F70	F	0.393134	-1.455039	0.024358
H71	H	0.380640	-1.504226	0.469723
H72	H	0.225747	-0.941349	-0.033249
F73	F	-0.279122	-1.499995	0.627819
F74	F	0.279221	-1.514553	0.081231
H75	H	0.406820	-1.337557	-0.158118
H76	H	0.593517	-1.293234	-0.062917
H77	H	-0.245290	-1.496878	0.743012
H78	H	-0.380536	-1.507127	0.361966
F79	F	-0.279112	-1.514596	0.081233
H80	H	0.245413	-1.511503	0.196429
H81	H	-0.225654	-0.941309	-0.033236
F82	F	0.414465	-1.507286	0.354527
H83	H	0.245422	-1.499701	0.635214
F84	F	0.279224	-1.496645	0.750431
H85	H	-0.225883	-1.069773	-0.135008
F86	F	-0.000087	-0.880209	-0.197072
