data_functionalizedCrystal
_audit_creation_method	'MofGen! by Chris Wilmer'
_symmetry_space_group_name_H-M	'P1'
_symmetry_Int_Tables_number	1
_symmetry_cell_setting	triclinic
loop_
_symmetry_equiv_pos_as_xyz
  x,y,z
_cell_length_a	13.033748
_cell_length_b	12.759394
_cell_length_c	13.032268
_cell_angle_alpha	82.848752
_cell_angle_beta	76.702071
_cell_angle_gamma	97.208174
loop_
_atom_site_label
_atom_site_type_symbol
_atom_site_fract_x
_atom_site_fract_y
_atom_site_fract_z
Zn1	Zn	1.547461	-0.270741	0.394596
Zn2	Zn	1.569924	-0.420907	0.217014
Zn3	Zn	1.392413	-0.270816	0.239537
Zn4	Zn	1.369844	-0.471961	0.417080
O5	O	1.469911	-0.358606	0.317057
O6	O	1.699062	-0.269264	0.352203
O7	O	1.565223	-0.379663	0.071380
O8	O	1.413025	-0.123782	0.260121
O9	O	1.715566	-0.379590	0.221734
O10	O	1.526938	-0.123726	0.374043
O11	O	1.434806	-0.269392	0.087927
O12	O	1.240798	-0.318896	0.281924
O13	O	1.374559	-0.466603	0.562719
O14	O	1.224216	-0.466676	0.412365
O15	O	1.505054	-0.318768	0.546200
O16	O	1.543338	-0.574705	0.243537
O17	O	1.396341	-0.612213	0.390525
C18	C	1.193971	-0.398335	0.352029
C19	C	1.075919	-0.415360	0.367016
C20	C	1.031452	-0.349751	0.309261
C21	C	0.909440	-0.367346	0.324749
C22	C	1.469854	-0.631580	0.317047
C23	C	1.469922	-0.748350	0.317065
C24	C	1.588425	-0.748164	0.435806
C25	C	1.647709	-0.802928	0.495181
C26	C	1.647769	-0.912644	0.495195
C27	C	1.588536	-0.967599	0.435832
C28	C	1.529252	-0.912835	0.376458
C29	C	1.529201	-0.803116	0.376447
C30	C	1.410745	-0.913023	0.257725
C31	C	1.410690	-0.803305	0.257702
C32	C	1.351513	-0.967978	0.198361
C33	C	1.292233	-0.913212	0.138980
C34	C	1.292177	-0.803489	0.138966
C35	C	1.351406	-0.748541	0.198328
C36	C	1.746928	-0.318724	0.281948
C37	C	1.864976	-0.301728	0.266987
C38	C	1.434783	-0.398372	0.594073
C39	C	1.419814	-0.415318	0.712121
C40	C	1.469994	-0.084566	0.317086
C41	C	1.470029	0.032213	0.317099
C42	C	1.504962	-0.318911	0.041110
C43	C	1.520137	-0.301640	-0.076963
C44	C	1.477706	-0.349727	0.756576
C45	C	1.462237	-0.367240	0.878585
H46	H	1.695933	-0.758175	0.543516
H47	H	1.023661	-0.484559	0.427924
H48	H	1.358791	-0.484432	0.764388
H49	H	1.401209	-0.436359	0.930848
C50	C	1.601466	-0.209541	0.853179
C51	C	1.600656	-0.210487	0.746051
C52	C	1.675560	-0.125664	0.681669
H53	H	1.583725	-0.143711	0.873160
H54	H	1.670578	-0.217204	0.862181
H55	H	1.531559	-0.202815	0.737055
H56	H	1.618409	-0.276297	0.726038
H57	H	1.744672	-0.133327	0.690671
H58	H	1.657811	-0.059841	0.701659
H59	H	1.675027	-0.126300	0.608975
C60	C	0.934817	-0.209484	0.185850
C61	C	1.041947	-0.210347	0.186640
C62	C	1.106314	-0.125382	0.111923
H63	H	0.925859	-0.217009	0.116693
H64	H	0.914777	-0.143729	0.203801
H65	H	1.061981	-0.276085	0.168682
H66	H	1.050940	-0.202807	0.255779
H67	H	1.086273	-0.059627	0.129874
H68	H	1.097346	-0.132915	0.042771
H69	H	1.179007	-0.125950	0.112456
C70	C	1.588461	-0.629053	0.435964
C71	C	1.653001	-0.592652	0.500674
C72	C	1.653049	-0.482935	0.500858
H73	H	1.615580	-0.591627	0.365161
H74	H	1.517588	-0.616747	0.463018
H75	H	1.723859	-0.604948	0.473616
H76	H	1.625897	-0.630047	0.571486
H77	H	1.582176	-0.470629	0.527912
H78	H	1.680167	-0.445520	0.430051
H79	H	1.696831	-0.458225	0.544770
C80	C	1.712230	-0.971911	0.559697
C81	C	1.764103	-0.900305	0.611669
C82	C	1.823499	-0.954863	0.671091
H83	H	1.665822	-1.027220	0.611174
H84	H	1.763760	-1.002170	0.513263
H85	H	1.712580	-0.870063	0.658099
H86	H	1.810529	-0.844995	0.560217
H87	H	1.875029	-0.985121	0.624657
H88	H	1.777083	-1.010170	0.722563
H89	H	1.858710	-0.906285	0.706354
H90	H	1.588580	-1.056938	0.435860
H91	H	0.857185	-0.436549	0.385662
H92	H	1.351561	-1.057315	0.198382
H93	H	1.243896	-0.758908	0.090622
H94	H	1.538719	-0.280604	0.704311
H95	H	1.244005	-0.957967	0.090657
C96	C	1.351115	-0.629455	0.198352
C97	C	1.246532	-0.611671	0.238167
C98	C	1.246220	-0.501981	0.238197
H99	H	1.394798	-0.604448	0.242214
H100	H	1.378147	-0.592118	0.127489
H101	H	1.219514	-0.648994	0.309019
H102	H	1.202830	-0.636653	0.194316
H103	H	1.273252	-0.464644	0.167334
H104	H	1.289908	-0.476984	0.282060
H105	H	1.175261	-0.489899	0.265203
H106	H	1.083711	-0.280559	0.248346
