data_functionalizedCrystal
_audit_creation_method	'MofGen! by Chris Wilmer'
_symmetry_space_group_name_H-M	'P1'
_symmetry_Int_Tables_number	1
_symmetry_cell_setting	triclinic
loop_
_symmetry_equiv_pos_as_xyz
  x,y,z
_cell_length_a	14.853567
_cell_length_b	23.532407
_cell_length_c	13.330367
_cell_angle_alpha	89.990692
_cell_angle_beta	89.995418
_cell_angle_gamma	83.241804
loop_
_atom_site_label
_atom_site_type_symbol
_atom_site_fract_x
_atom_site_fract_y
_atom_site_fract_z
O1	O	1.195556	0.074353	-0.083365
O2	O	0.932999	0.083210	-0.083383
O3	O	1.072195	-0.004116	-0.083355
O4	O	1.056360	0.161678	-0.083393
O5	O	1.072175	-0.004118	0.083492
O6	O	0.932979	0.083208	0.083464
O7	O	1.195536	0.074351	0.083482
Cu8	Cu	1.064255	0.078779	0.098707
Cu9	Cu	1.064279	0.078782	-0.098609
O10	O	1.056340	0.161677	0.083454
C11	C	0.899405	0.082808	0.000038
C12	C	0.799334	0.081605	0.000032
C13	C	0.387423	0.024648	0.000067
C14	C	0.365008	0.128393	0.000043
C15	C	0.459029	0.129524	0.000039
C16	C	0.517252	0.078216	0.000048
C17	C	0.481454	0.025777	0.000061
C18	C	0.494835	0.181961	0.000016
C19	C	0.588861	0.183094	0.000012
C20	C	0.647086	0.131786	0.000028
C21	C	0.611283	0.079345	0.000042
C22	C	0.669506	0.028037	0.000051
C23	C	0.633704	-0.024404	0.000072
C24	C	0.539679	-0.025531	0.000077
C25	C	0.741111	0.132913	0.000023
C26	C	0.763536	0.029166	0.000044
C27	C	1.071782	-0.025335	0.000071
C28	C	1.070569	-0.088557	0.000078
C29	C	1.145338	-0.487334	0.000029
C30	C	1.144212	-0.546739	0.000021
O31	O	1.213524	-0.583181	-0.000011
N32	N	1.061460	-0.569726	0.000016
C33	C	0.979829	-0.533305	0.000008
O34	O	0.909339	-0.558312	0.000002
C35	C	0.980957	-0.473901	0.000009
C36	C	1.063714	-0.450917	0.000024
C37	C	1.228089	-0.464349	0.000043
C38	C	1.229214	-0.404948	0.000052
C39	C	1.147590	-0.368531	0.000048
C40	C	1.064839	-0.391516	0.000034
C41	C	0.899327	-0.437481	-0.000006
C42	C	0.900461	-0.378073	-0.000006
C43	C	0.983218	-0.355089	0.000009
C44	C	0.984341	-0.295698	0.000039
N45	N	1.067092	-0.272711	0.000044
C46	C	1.148717	-0.309128	0.000048
C47	C	0.977469	-0.658058	0.000005
C48	C	0.976340	-0.717461	0.000012
C49	C	1.140723	-0.730890	0.000023
C50	C	1.141851	-0.671486	0.000023
C51	C	1.060220	-0.635070	0.000011
C52	C	1.151075	-0.184380	0.000069
C53	C	1.152194	-0.124974	0.000083
C54	C	0.987811	-0.111549	0.000067
C55	C	0.986692	-0.170951	0.000058
C56	C	1.068331	-0.207365	0.000056
O57	O	0.915065	-0.259221	0.000067
O58	O	1.219196	-0.284112	0.000041
C59	C	1.229130	0.074753	0.000058
C60	C	1.329200	0.075956	0.000058
C61	C	1.056753	0.182895	0.000026
C62	C	1.057966	0.246118	0.000011
N63	N	1.064245	0.078777	0.237489
N64	N	1.064296	0.078779	-0.237390
C65	C	1.002641	0.117434	0.710099
C66	C	1.125942	0.040124	0.710092
C67	C	1.125932	0.040123	0.605074
C68	C	1.064276	0.078778	0.552563
C69	C	1.002631	0.117435	0.605071
C70	C	1.187582	0.001470	0.552558
C71	C	1.187575	0.001467	0.447533
C72	C	1.125914	0.040120	0.395021
C73	C	1.064266	0.078778	0.447535
C74	C	1.002610	0.117434	0.395025
C75	C	0.940957	0.156089	0.447537
C76	C	0.940970	0.156088	0.552559
C77	C	1.125901	0.040122	0.289999
C78	C	1.002600	0.117434	0.289997
H79	H	0.770257	0.175610	0.000007
H80	H	0.447423	0.223733	-0.000001
F81	F	1.253203	-0.039664	0.608443
F82	F	1.237965	-0.223128	0.000067
H83	H	1.237775	-0.030008	0.404784
H84	H	0.810936	-0.012615	0.000056
F85	F	1.191518	-0.001012	0.234118
H86	H	0.681121	-0.066179	0.000072
H87	H	0.890760	0.187565	0.404771
H88	H	0.358269	-0.018049	0.000088
F89	F	1.314973	-0.503099	0.000047
F90	F	0.501569	-0.081338	0.000095
F91	F	0.936972	0.158575	0.234119
H92	H	0.317597	0.170165	0.000027
H93	H	0.618003	0.225795	-0.000005
F94	F	1.227596	-0.769658	0.000023
F95	F	0.875361	0.197226	0.608450
H96	H	1.219587	-0.106264	0.000098
H97	H	1.209239	-0.652777	0.000035
H98	H	1.296604	-0.386241	0.000061
H99	H	0.908951	-0.736168	0.000017
F100	F	1.191563	-0.001010	0.765977
F101	F	0.890580	-0.619305	0.000001
H102	H	0.952441	0.148906	0.752857
F103	F	0.900945	-0.072782	0.000062
F104	F	0.811244	-0.461929	-0.000026
H105	H	0.919305	-0.189665	0.000074
F106	F	0.813576	-0.339319	-0.000022
