data_functionalizedCrystal
_audit_creation_method	'MofGen! by Chris Wilmer'
_symmetry_space_group_name_H-M	'P1'
_symmetry_Int_Tables_number	1
_symmetry_cell_setting	triclinic
loop_
_symmetry_equiv_pos_as_xyz
  x,y,z
_cell_length_a	19.288867
_cell_length_b	13.339070
_cell_length_c	18.366186
_cell_angle_alpha	89.998593
_cell_angle_beta	89.995964
_cell_angle_gamma	99.383182
loop_
_atom_site_label
_atom_site_type_symbol
_atom_site_fract_x
_atom_site_fract_y
_atom_site_fract_z
O1	O	0.945920	0.126094	-0.060521
O2	O	0.746974	0.143101	-0.060528
O3	O	0.823615	-0.012562	-0.060523
O4	O	0.869280	0.281758	-0.060526
O5	O	0.823603	-0.012566	0.060576
O6	O	0.746962	0.143098	0.060572
O7	O	0.945908	0.126091	0.060578
Zn8	Zn	0.846433	0.134594	0.079802
Zn9	Zn	0.846449	0.134598	-0.079752
O10	O	0.869268	0.281754	0.060574
C11	C	0.720985	0.142552	0.000021
C12	C	0.643561	0.140908	0.000018
C13	C	0.815895	-0.050218	0.000025
C14	C	0.792902	-0.162415	0.000022
C15	C	0.085695	0.129071	-0.065984
C16	C	0.158442	0.130609	-0.065987
C17	C	0.194815	0.131381	0.000024
C18	C	0.158432	0.130588	0.066043
C19	C	0.085685	0.129040	0.066044
C20	C	0.316152	0.193031	0.050597
C21	C	0.388898	0.194585	0.050593
C22	C	0.419191	0.136153	0.000024
C23	C	0.376730	0.076178	-0.050553
C24	C	0.303983	0.074629	-0.050552
C25	C	0.273697	0.133059	0.000031
C26	C	0.534445	0.138606	-0.065993
C27	C	0.607193	0.140138	-0.065993
C28	C	0.607183	0.140128	0.066038
C29	C	0.534435	0.138585	0.066036
C30	C	0.498071	0.137829	0.000019
C31	C	0.971682	-0.528021	0.000028
C32	C	0.993287	-0.422606	0.000036
C33	C	0.943193	-0.357553	0.000032
C34	C	0.871490	-0.397925	0.000021
C35	C	0.849882	-0.503350	0.000019
C36	C	0.821393	-0.332883	0.000023
C37	C	0.749690	-0.373254	0.000012
C38	C	0.728086	-0.478669	0.000010
C39	C	0.778180	-0.543722	0.000014
C40	C	0.843000	-0.227458	0.000025
C41	C	0.721200	-0.202787	0.000016
C42	C	0.699595	-0.308202	0.000008
C43	C	0.971898	0.126640	0.000028
C44	C	1.049321	0.128284	0.000026
C45	C	0.876988	0.319410	0.000024
C46	C	0.899980	0.431607	0.000022
N47	N	0.846427	0.134590	0.188693
N48	N	0.846459	0.134594	-0.188643
C49	C	0.880400	0.065685	0.773246
C50	C	0.880401	0.065688	0.697018
C51	C	0.846448	0.134589	0.658905
C52	C	0.812505	0.203511	0.697025
C53	C	0.812511	0.203513	0.773252
C54	C	0.785784	0.148078	0.538148
C55	C	0.785776	0.148068	0.461923
C56	C	0.846431	0.134587	0.423797
C57	C	0.907094	0.121095	0.461905
C58	C	0.907099	0.121097	0.538132
C59	C	0.846438	0.134595	0.576250
C60	C	0.880377	0.065677	0.303031
C61	C	0.880380	0.065686	0.226801
C62	C	0.812478	0.203505	0.226810
C63	C	0.812481	0.203500	0.303038
C64	C	0.846429	0.134581	0.341144
H65	H	0.056092	0.128451	-0.119741
H66	H	0.188064	0.131255	-0.119742
C67	C	0.754416	-0.659679	0.000010
H68	H	0.794522	-0.692635	0.000015
H69	H	0.727041	-0.678969	-0.042221
H70	H	0.727035	-0.678974	0.042245
C71	C	0.649215	-0.523076	0.000004
H72	H	0.622474	-0.469239	-0.000004
H73	H	0.638249	-0.563692	0.042232
H74	H	0.638263	-0.563683	-0.042233
C75	C	0.917732	-0.010121	0.655086
H76	H	0.937947	-0.051170	0.688698
H77	H	0.953628	0.026121	0.625340
H78	H	0.884643	-0.052100	0.625360
H79	H	0.641213	-0.341087	0.000000
H80	H	0.908045	0.009570	0.804269
C81	C	0.410042	0.011899	-0.106182
H82	H	0.459447	0.021399	-0.098936
H83	H	0.400264	0.032465	-0.154104
H84	H	0.390973	-0.057830	-0.099815
C85	C	0.198434	0.131421	0.138655
H86	H	0.166348	0.130717	0.177970
H87	H	0.232875	0.190947	0.141410
H88	H	0.220748	0.073084	0.141387
C89	C	0.966957	-0.241600	0.000031
H90	H	1.016835	-0.226873	0.000030
H91	H	0.949347	-0.213190	0.042256
H92	H	0.949362	-0.213201	-0.042210
H93	H	0.784835	0.259610	0.195779
C94	C	0.045693	0.128403	0.138656
H95	H	-0.002835	0.127435	0.129201
H96	H	0.063736	0.187648	0.165680
H97	H	0.051501	0.069783	0.165879
H98	H	0.908024	0.009576	0.195770
H99	H	0.680409	-0.149821	0.000017
H100	H	0.784839	0.259608	0.334071
H101	H	0.504836	0.137987	-0.119749
H102	H	0.736378	0.159043	0.430901
C103	C	0.647205	0.141004	-0.138608
H104	H	0.615127	0.140342	-0.177923
H105	H	0.669524	0.082680	-0.141360
H106	H	0.681644	0.200543	-0.141346
H107	H	0.901381	-0.194598	0.000034
C108	C	1.072153	-0.378204	0.000039
H109	H	1.098894	-0.432042	0.000033
H110	H	1.083111	-0.337594	0.042269
H111	H	1.083116	-0.337592	-0.042196
H112	H	0.504820	0.137948	0.119789
H113	H	1.012461	-0.580995	0.000037
C114	C	0.647184	0.140976	0.138650
H115	H	0.695720	0.142016	0.129196
H116	H	0.629200	0.081794	0.165774
H117	H	0.641320	0.199656	0.165772
H118	H	0.956493	0.110114	0.569156
H119	H	0.269414	0.025794	-0.091733
C120	C	0.719093	0.163070	0.580080
H121	H	0.682973	0.171139	0.546468
H122	H	0.729110	0.221964	0.609769
H123	H	0.704056	0.105389	0.609862
C124	C	0.973823	0.106284	0.419977
H125	H	0.965137	0.108231	0.369122
H126	H	0.986297	0.042447	0.432463
H127	H	1.011199	0.159057	0.432471
C128	C	0.435595	0.260529	0.106239
H129	H	0.407134	0.295086	0.136369
H130	H	0.468879	0.308750	0.081218
H131	H	0.459572	0.218419	0.135477
C132	C	0.917722	-0.010123	0.344950
H133	H	0.937945	-0.051155	0.311331
H134	H	0.884648	-0.052105	0.374689
H135	H	0.953625	0.026132	0.374681
H136	H	0.784861	0.259613	0.665990
H137	H	0.784872	0.259629	0.804283
H138	H	0.291493	0.240609	0.091784
