data_functionalizedCrystal
_audit_creation_method	'MofGen! by Chris Wilmer'
_symmetry_space_group_name_H-M	'P1'
_symmetry_Int_Tables_number	1
_symmetry_cell_setting	triclinic
loop_
_symmetry_equiv_pos_as_xyz
  x,y,z
_cell_length_a	17.699083
_cell_length_b	10.654550
_cell_length_c	9.130313
_cell_angle_alpha	89.993688
_cell_angle_beta	89.998556
_cell_angle_gamma	96.116027
loop_
_atom_site_label
_atom_site_type_symbol
_atom_site_fract_x
_atom_site_fract_y
_atom_site_fract_z
O1	O	1.005085	-0.158809	0.121593
O2	O	1.505085	0.341191	0.621593
O3	O	0.784838	-0.179470	0.121641
O4	O	1.284838	0.320530	0.621641
O5	O	0.900026	0.013688	0.121607
O6	O	1.400026	0.513688	0.621607
O7	O	0.889898	-0.351967	0.121628
O8	O	1.389898	0.148033	0.621628
O9	O	0.900016	0.013701	-0.121992
O10	O	1.400016	0.513701	0.378008
O11	O	0.784828	-0.179458	-0.121957
O12	O	1.284828	0.320542	0.378043
O13	O	1.005075	-0.158797	-0.122005
O14	O	1.505075	0.341203	0.377995
Cu15	Cu	0.894951	-0.169126	-0.144224
Cu16	Cu	1.394951	0.330874	0.355776
Cu17	Cu	0.894963	-0.169141	0.143860
Cu18	Cu	1.394963	0.330859	0.643860
O19	O	0.889888	-0.351955	-0.121971
O20	O	1.389888	0.148045	0.378029
C21	C	0.756632	-0.178724	-0.000152
C22	C	1.256632	0.321276	0.499848
C23	C	0.672599	-0.176503	-0.000134
C24	C	1.172599	0.323497	0.499866
C25	C	0.899277	0.060479	-0.000191
C26	C	1.399277	0.560479	0.499809
C27	C	0.897052	0.199884	-0.000189
C28	C	1.397052	0.699884	0.499811
N29	N	0.894948	-0.169115	-0.346847
N30	N	1.394948	0.330885	0.153153
C31	C	0.624699	-0.289883	-0.000128
C32	C	1.124699	0.210117	0.499872
C33	C	0.545743	-0.287788	-0.000147
C34	C	1.045743	0.212212	0.499853
C35	C	0.514688	-0.172313	-0.000162
C36	C	1.014688	0.327687	0.499838
C37	C	0.562594	-0.058924	-0.000172
C38	C	1.062594	0.441076	0.499828
C39	C	0.641549	-0.061020	-0.000163
C40	C	1.141549	0.438980	0.499837
C41	C	0.244177	-0.050470	-0.000209
C42	C	0.744177	0.449530	0.499791
C43	C	0.165216	-0.048383	-0.000213
C44	C	0.665216	0.451617	0.499787
C45	C	0.148371	-0.277239	-0.000192
C46	C	0.648371	0.222761	0.499808
C47	C	0.227326	-0.279334	-0.000184
C48	C	0.727326	0.220666	0.499816
C49	C	0.275225	-0.165946	-0.000202
C50	C	0.775225	0.334054	0.499798
C51	C	0.360839	-0.168219	-0.000184
C52	C	0.860839	0.331781	0.499816
C53	C	0.429076	-0.170039	-0.000169
C54	C	0.929076	0.329961	0.499831
C55	C	1.033282	-0.159543	-0.000209
C56	C	1.533282	0.340457	0.499791
C57	C	1.117314	-0.161764	-0.000217
C58	C	1.617314	0.338236	0.499783
C59	C	0.890637	-0.398746	-0.000169
C60	C	1.390637	0.101254	0.499831
C61	C	0.892861	-0.538151	-0.000163
C62	C	1.392861	-0.038151	0.499837
C63	C	0.964873	0.280556	-0.000203
C64	C	1.464873	0.780556	0.499797
C65	C	0.962778	0.411541	-0.000185
C66	C	1.462778	0.911541	0.499815
C67	C	0.825036	0.381166	-0.000144
C68	C	1.325036	0.881166	0.499856
C69	C	0.827132	0.250185	-0.000152
C70	C	1.327132	0.750185	0.499848
C71	C	0.848668	-0.093065	-0.576887
C72	C	1.348668	0.406935	-0.076887
C73	C	0.848658	-0.093048	-0.423550
C74	C	1.348658	0.406952	0.076450
C75	C	0.941257	-0.245195	-0.423488
C76	C	1.441257	0.254805	0.076512
C77	C	0.941271	-0.245204	-0.576822
C78	C	1.441271	0.254796	-0.076822
N79	N	0.894971	-0.169142	0.346483
N80	N	1.394971	0.330858	0.846483
H81	H	0.649978	-0.383916	-0.000115
H82	H	1.149978	0.116084	0.499885
H83	H	0.810954	-0.031098	-0.361164
H84	H	1.310954	0.468902	0.138836
Br85	Br	0.785836	0.010165	-0.680970
Br86	Br	1.285836	0.510165	-0.180970
Br87	Br	1.004087	-0.348421	-0.319392
Br88	Br	1.504087	0.151579	0.180608
Br89	Br	0.730148	0.449441	-0.000089
Br90	Br	1.230148	0.949441	0.499911
H91	H	0.978981	-0.307156	-0.639216
H92	H	1.478981	0.192844	-0.139216
Br93	Br	0.309174	0.103414	-0.000237
Br94	Br	0.809174	0.603414	0.499763
Br95	Br	1.054824	0.521022	-0.000195
Br96	Br	1.554824	1.021022	0.499805
H97	H	0.252606	-0.373366	-0.000165
H98	H	0.752606	0.126634	0.499835
Br99	Br	0.480737	-0.441668	-0.000134
Br100	Br	0.980737	0.058332	0.499866
H101	H	0.109361	-0.369564	-0.000185
H102	H	0.609361	0.130436	0.499815
H103	H	0.139935	0.045657	-0.000227
H104	H	0.639935	0.545657	0.499773
H105	H	0.680549	0.031306	-0.000167
H106	H	1.180549	0.531306	0.499833
Br107	Br	0.520449	0.097796	-0.000206
Br108	Br	1.020449	0.597796	0.499794
Br109	Br	1.059764	0.212294	-0.000254
Br110	Br	1.559764	0.712294	0.499746
Br111	Br	0.735083	0.140690	-0.000113
Br112	Br	1.235083	0.640690	0.499887
