data_functionalizedCrystal
_audit_creation_method	'MofGen! by Chris Wilmer'
_symmetry_space_group_name_H-M	'P1'
_symmetry_Int_Tables_number	1
_symmetry_cell_setting	triclinic
loop_
_symmetry_equiv_pos_as_xyz
  x,y,z
_cell_length_a	12.759401
_cell_length_b	12.645330
_cell_length_c	12.759393
_cell_angle_alpha	90.031109
_cell_angle_beta	90.020938
_cell_angle_gamma	90.014171
loop_
_atom_site_label
_atom_site_type_symbol
_atom_site_fract_x
_atom_site_fract_y
_atom_site_fract_z
Zn1	Zn	1.606281	-0.421945	0.594016
Zn2	Zn	1.606179	-0.599246	0.418334
Zn3	Zn	1.430580	-0.422001	0.418351
Zn4	Zn	1.430578	-0.599171	0.593971
O5	O	1.518405	-0.510591	0.506168
O6	O	1.753289	-0.445472	0.570723
O7	O	1.582843	-0.575788	0.271315
O8	O	1.453931	-0.273647	0.441679
O9	O	1.753213	-0.575734	0.441650
O10	O	1.583018	-0.273605	0.570739
O11	O	1.453831	-0.445568	0.271327
O12	O	1.283559	-0.445496	0.441636
O13	O	1.453928	-0.575607	0.740998
O14	O	1.283557	-0.575662	0.570663
O15	O	1.583016	-0.445400	0.741031
O16	O	1.582841	-0.747583	0.441607
O17	O	1.453828	-0.747529	0.570647
C18	C	1.245437	-0.510578	0.506147
C19	C	1.128661	-0.510598	0.506163
C20	C	1.073825	-0.578479	0.573242
C21	C	0.964101	-0.578483	0.573263
C22	C	0.964057	-0.442722	0.439117
C23	C	1.073779	-0.442714	0.439102
C24	C	0.814207	-0.616521	0.697123
C25	C	0.759368	-0.684418	0.764192
C26	C	0.794969	-0.787874	0.780139
C27	C	0.885408	-0.823454	0.729001
C28	C	0.940241	-0.755562	0.661924
C29	C	0.904641	-0.652092	0.645997
C30	C	1.223676	-0.404686	0.315241
C31	C	1.278511	-0.336799	0.248157
C32	C	1.242912	-0.233341	0.232200
C33	C	1.152470	-0.197766	0.283319
C34	C	1.097635	-0.265653	0.350403
C35	C	1.133242	-0.369109	0.366362
C36	C	1.518352	-0.786021	0.506143
C37	C	1.518426	-0.903851	0.506168
C38	C	1.599457	-1.071405	0.424824
C39	C	1.599721	-0.948844	0.425023
C40	C	1.548455	-0.948224	0.616912
C41	C	1.549098	-1.070822	0.616481
C42	C	1.407332	-1.071183	0.477858
C43	C	1.407865	-0.948579	0.475374
C44	C	1.792438	-0.510605	0.506189
C45	C	1.909215	-0.510610	0.506199
C46	C	1.518483	-0.510489	0.780201
C47	C	1.518517	-0.510446	0.896978
C48	C	1.518486	-0.234086	0.506216
C49	C	1.518521	-0.116255	0.506236
C50	C	1.518387	-0.510616	0.233200
C51	C	1.518557	-0.510360	0.116424
C52	C	1.585738	-0.442636	0.951859
C53	C	1.585756	-0.442590	1.061583
C54	C	1.451328	-0.578173	1.061536
C55	C	1.451306	-0.578213	0.951814
C56	C	1.623363	-0.317515	1.211562
C57	C	1.690601	-0.249715	1.266447
C58	C	1.793113	-0.233459	1.230856
C59	C	1.828409	-0.285019	1.140382
C60	C	1.761177	-0.352827	1.085503
C61	C	1.658650	-0.369063	1.121093
C62	C	1.413709	-0.703289	0.801832
C63	C	1.346481	-0.771104	0.746952
C64	C	1.243967	-0.787370	0.782541
C65	C	1.208676	-0.735829	0.873018
C66	C	1.275903	-0.668014	0.927899
C67	C	1.378416	-0.651746	0.892302
H68	H	1.287564	-0.178072	0.177565
H69	H	1.628811	-0.917432	0.641351
C70	C	1.197194	-0.721092	0.587583
C71	C	1.134151	-0.653088	0.646962
H72	H	1.234428	-0.767156	0.633100
H73	H	1.245555	-0.680667	0.547641
H74	H	1.154349	-0.761588	0.541748
H75	H	1.176997	-0.612587	0.692792
H76	H	1.085784	-0.693518	0.686922
H77	H	1.630372	-1.099331	0.640519
H78	H	1.252676	-0.488927	0.328237
H79	H	1.681369	-1.102131	0.443384
H80	H	0.685733	-0.655439	0.805830
H81	H	1.539887	-0.330737	1.240544
H82	H	0.785218	-0.532276	0.684156
H83	H	1.352154	-0.365774	0.206532
H84	H	0.919360	-0.387455	0.384517
C85	C	1.558813	-0.994516	0.246974
C86	C	1.574377	-0.908341	0.314167
H87	H	1.543180	-0.969512	0.178532
H88	H	1.502106	-1.036123	0.271961
H89	H	1.620609	-1.036344	0.244849
H90	H	1.512579	-0.866517	0.316299
H91	H	1.631089	-0.866716	0.289174
C92	C	1.098683	-0.796149	1.013449
C93	C	1.095989	-0.753706	0.912147
H94	H	1.029114	-0.807195	1.037600
H95	H	1.133663	-0.748387	1.059073
H96	H	1.135087	-0.861661	1.012370
H97	H	1.059593	-0.688190	0.913227
H98	H	1.060995	-0.801471	0.866511
C99	C	1.391678	-0.638321	1.229713
C100	C	1.377461	-0.652669	1.121816
H101	H	1.346079	-0.684319	1.266922
H102	H	1.376326	-0.567095	1.247700
H103	H	1.462271	-0.653836	1.247690
H104	H	1.306869	-0.637146	1.103836
H105	H	1.392806	-0.723911	1.103820
C106	C	1.727044	-0.427951	0.828494
C107	C	1.659604	-0.368137	0.891581
H108	H	1.772647	-0.381953	0.791288
H109	H	1.687009	-0.468333	0.780108
H110	H	1.767227	-0.474119	0.871306
H111	H	1.619415	-0.321974	0.848768
H112	H	1.699644	-0.327737	0.939972
H113	H	1.344307	-0.917962	0.530323
C114	C	1.362400	-0.996455	0.299008
C115	C	1.377364	-0.909483	0.365321
H116	H	1.343602	-0.972323	0.231055
H117	H	1.308008	-1.039842	0.326079
H118	H	1.425451	-1.036173	0.294907
H119	H	1.314311	-0.869769	0.369429
H120	H	1.431760	-0.866078	0.338243
C121	C	1.580036	-0.782005	0.761212
C122	C	1.526412	-0.685418	0.762740
H123	H	1.649619	-0.770975	0.737092
H124	H	1.545063	-0.829753	0.715569
H125	H	1.581808	-0.810780	0.829947
H126	H	1.524633	-0.656647	0.694003
H127	H	1.561394	-0.637653	0.808384
H128	H	1.247160	-0.626047	1.001571
H129	H	1.491300	-0.919075	0.679196
C130	C	1.059303	-0.899817	0.633850
C131	C	1.039638	-0.794663	0.605702
H132	H	1.120670	-0.923954	0.599144
H133	H	1.001424	-0.942621	0.613978
H134	H	1.069168	-0.904183	0.707518
H135	H	1.029765	-0.790298	0.532034
H136	H	1.097530	-0.751847	0.625567
C137	C	1.180565	-0.031965	0.196116
C138	C	1.113333	-0.084040	0.265786
H139	H	1.156406	0.038246	0.185294
H140	H	1.181577	-0.068632	0.131136
H141	H	1.249307	-0.030178	0.224679
H142	H	1.044592	-0.085834	0.237219
H143	H	1.112310	-0.047364	0.330778
H144	H	1.347028	-1.100188	0.537154
C145	C	1.378992	-0.937338	0.661958
C146	C	1.385267	-0.827761	0.647494
H147	H	1.402940	-0.972311	0.600557
H148	H	1.308325	-0.956724	0.675304
H149	H	1.421473	-0.957292	0.719814
H150	H	1.342780	-0.807806	0.589642
H151	H	1.455946	-0.808367	0.634134
H152	H	1.023997	-0.236675	0.392034
H153	H	1.789915	-0.394811	1.011844
C154	C	1.992657	-0.196747	1.168537
C155	C	1.941100	-0.267155	1.101265
H156	H	2.062225	-0.185713	1.144380
H157	H	1.994462	-0.225536	1.237254
H158	H	1.956254	-0.131234	1.169585
H159	H	1.977498	-0.332670	1.100223
H160	H	1.939299	-0.238368	1.032530
H161	H	1.580903	-1.100964	0.342468
C162	C	1.814408	-0.117138	1.378125
C163	C	1.867029	-0.158948	1.291195
H164	H	1.860038	-0.071137	1.415376
H165	H	1.792844	-0.173115	1.422801
H166	H	1.754662	-0.078791	1.355147
H167	H	1.926771	-0.197302	1.314173
H168	H	1.888608	-0.102962	1.246511
H169	H	1.661854	-0.207734	1.340111
C170	C	1.748006	-0.847697	0.366989
C171	C	1.710894	-0.909134	0.450367
H172	H	1.816645	-0.823190	0.382638
H173	H	1.702804	-0.788928	0.356774
H174	H	1.749753	-0.889315	0.305011
H175	H	1.709139	-0.867513	0.512344
H176	H	1.756108	-0.967911	0.460595
H177	H	1.380025	-1.102199	0.398510
H178	H	1.492730	-1.100486	0.679229
H179	H	1.189235	-0.842600	0.737852
H180	H	0.914381	-0.907702	0.741982
H181	H	0.750312	-0.843156	0.834750
