data_functionalizedCrystal
_audit_creation_method	'MofGen! by Chris Wilmer'
_symmetry_space_group_name_H-M	'P1'
_symmetry_Int_Tables_number	1
_symmetry_cell_setting	triclinic
loop_
_symmetry_equiv_pos_as_xyz
  x,y,z
_cell_length_a	10.654565
_cell_length_b	10.654551
_cell_length_c	9.130313
_cell_angle_alpha	90.001552
_cell_angle_beta	90.005936
_cell_angle_gamma	95.511660
loop_
_atom_site_label
_atom_site_type_symbol
_atom_site_fract_x
_atom_site_fract_y
_atom_site_fract_z
O1	O	-1.667823	0.176487	-0.121983
O2	O	-1.302347	0.193272	-0.121943
O3	O	-1.493488	0.002141	-0.121965
O4	O	-1.476683	0.367618	-0.121961
O5	O	-1.493485	0.002146	0.121634
O6	O	-1.302345	0.193277	0.121656
O7	O	-1.667821	0.176492	0.121616
Cu8	Cu	-1.485083	0.184885	0.143878
Cu9	Cu	-1.485086	0.184879	-0.144205
O10	O	-1.476681	0.367623	0.121638
C11	C	-1.255549	0.192038	-0.000138
C12	C	-1.116106	0.188339	-0.000123
C13	C	-1.050574	0.186616	0.132655
C14	C	-0.919552	0.183149	0.132638
C15	C	-0.919605	0.183134	-0.132947
C16	C	-1.050626	0.186592	-0.132928
C17	C	-1.116055	0.188363	0.265460
C18	C	-1.050523	0.186641	0.398249
C19	C	-0.919501	0.183175	0.398232
C20	C	-0.854011	0.181430	0.265427
C21	C	-1.492252	-0.044655	-0.000168
C22	C	-1.488560	-0.184098	-0.000178
C23	C	-1.486829	-0.249613	-0.132961
C24	C	-1.483349	-0.380633	-0.132954
C25	C	-1.483336	-0.380613	0.132631
C26	C	-1.486807	-0.249594	0.132623
C27	C	-1.488582	-0.184117	-0.265761
C28	C	-1.486852	-0.249632	-0.398555
C29	C	-1.483372	-0.380653	-0.398548
C30	C	-1.481621	-0.446158	-0.265747
C31	C	-0.714620	0.177723	-0.000177
C32	C	-0.854063	0.181415	-0.000158
C33	C	-1.477916	0.414419	-0.000162
C34	C	-1.481608	0.553862	-0.000162
N35	N	-1.485090	0.184889	0.346501
N36	N	-1.485088	0.184866	-0.346828
C37	C	-1.569749	0.100285	0.423143
C38	C	-1.569745	0.100270	0.576480
C39	C	-1.400420	0.269474	0.576519
C40	C	-1.400419	0.269482	0.423185
C41	C	-1.654420	0.015692	0.346460
C42	C	-1.739087	-0.068918	0.423102
C43	C	-1.739083	-0.068933	0.576439
C44	C	-1.654413	0.015662	0.653133
H45	H	-0.866149	0.181763	0.506355
C46	C	-1.832202	-0.161983	0.338735
N47	N	-1.902335	-0.232086	0.275192
H48	H	-1.481911	-0.433958	0.240751
C49	C	-1.488777	-0.177574	-0.544627
N50	N	-1.490230	-0.123301	-0.654652
C51	C	-1.654429	0.015698	0.177786
N52	N	-1.654434	0.015704	0.050741
C53	C	-1.477793	-0.590285	-0.265747
N54	N	-1.474918	-0.698842	-0.265749
C55	C	-1.122561	0.188587	0.544327
N56	N	-1.176817	0.190065	0.654356
H57	H	-1.488190	-0.196247	0.240746
C58	C	-1.481508	-0.452720	-0.544621
N59	N	-1.480128	-0.507002	-0.654649
H60	H	-1.808013	-0.137834	0.638839
H61	H	-1.331480	0.338373	0.360782
H62	H	-1.654409	0.015634	0.777990
C63	C	-0.709882	0.177611	0.265416
N64	N	-0.601326	0.174741	0.265410
C65	C	-1.307291	0.362523	0.660889
N66	N	-1.237147	0.432611	0.724436
C67	C	-0.847559	0.181226	-0.279022
N68	N	-0.793294	0.179794	-0.389049
H69	H	-1.103982	0.188001	-0.241048
C70	C	-1.260182	0.192172	0.265491
N71	N	-1.368739	0.195041	0.265512
C72	C	-1.492290	-0.039977	-0.265781
N73	N	-1.495042	0.068594	-0.265794
