data_functionalizedCrystal
_audit_creation_method	'MofGen! by Chris Wilmer'
_symmetry_space_group_name_H-M	'P1'
_symmetry_Int_Tables_number	1
_symmetry_cell_setting	triclinic
loop_
_symmetry_equiv_pos_as_xyz
  x,y,z
_cell_length_a	10.686220
_cell_length_b	10.686285
_cell_length_c	10.686551
_cell_angle_alpha	80.915481
_cell_angle_beta	90.308082
_cell_angle_gamma	90.345431
loop_
_atom_site_label
_atom_site_type_symbol
_atom_site_fract_x
_atom_site_fract_y
_atom_site_fract_z
Zn1	Zn	1.994012	-0.307898	-0.537149
Zn2	Zn	2.494012	0.192102	-0.037149
Zn3	Zn	1.993911	-0.536485	-0.308653
Zn4	Zn	2.493911	-0.036485	0.191347
Zn5	Zn	1.770410	-0.340205	-0.340818
Zn6	Zn	2.270410	0.159795	0.159182
Zn7	Zn	1.800161	-0.533926	-0.534641
Zn8	Zn	2.300161	-0.033926	-0.034641
O9	O	1.889623	-0.429629	-0.430315
O10	O	2.389623	0.070371	0.069685
O11	O	2.168662	-0.325771	-0.494427
O12	O	2.668662	0.174229	0.005573
O13	O	1.951770	-0.525040	-0.136178
O14	O	2.451770	-0.025040	0.363822
O15	O	1.787663	-0.159182	-0.381372
O16	O	2.287663	0.340818	0.118628
O17	O	2.168588	-0.493713	-0.326552
O18	O	2.668588	0.006287	0.173448
O19	O	1.951942	-0.135446	-0.525615
O20	O	2.451942	0.364554	-0.025615
O21	O	1.787565	-0.380834	-0.159810
O22	O	2.287565	0.119166	0.340190
O23	O	1.599693	-0.378352	-0.378940
O24	O	2.099693	0.121648	0.121060
O25	O	1.838368	-0.489351	-0.711715
O26	O	2.338368	0.010649	-0.211715
O27	O	1.621551	-0.520678	-0.521341
O28	O	2.121551	-0.020678	-0.021341
O29	O	1.980790	-0.323289	-0.713557
O30	O	2.480790	0.176711	-0.213557
O31	O	1.980618	-0.712883	-0.324121
O32	O	2.480618	-0.212883	0.175879
O33	O	1.838270	-0.711003	-0.490153
O34	O	2.338270	-0.211003	0.009847
C35	C	1.565334	-0.452744	-0.453360
C36	C	2.065334	0.047256	0.046640
C37	C	1.426605	-0.462661	-0.463246
C38	C	1.926605	0.037339	0.036754
C39	C	1.912697	-0.757764	-0.403399
C40	C	2.412697	-0.257764	0.096601
C41	C	1.922686	-0.898130	-0.391919
C42	C	2.422686	-0.398130	0.108081
C43	C	2.215179	-0.406424	-0.407181
C44	C	2.715179	0.093576	0.092819
C45	C	2.353912	-0.396535	-0.397323
C46	C	2.853912	0.103465	0.102677
C47	C	1.912909	-0.402431	-0.759745
C48	C	2.412909	0.097569	-0.259745
C49	C	1.922832	-0.390841	-0.900128
C50	C	2.422832	0.109159	-0.400128
C51	C	1.866495	-0.100207	-0.457361
C52	C	2.366495	0.399793	0.042639
C53	C	1.856639	0.040173	-0.468887
C54	C	2.356639	0.540173	0.031113
C55	C	1.866493	-0.456624	-0.102170
C56	C	2.366493	0.043376	0.397830
C57	C	1.856787	-0.467841	0.038201
C58	C	2.356787	0.032159	0.538201
H59	H	1.382704	-0.526872	-0.527245
H60	H	1.882704	-0.026872	-0.027245
C61	C	1.710901	-0.970972	-0.638609
C62	C	2.210901	-0.470972	-0.138609
C63	C	1.769995	-0.886178	-0.569716
C64	C	2.269995	-0.386178	-0.069716
H65	H	1.657406	-0.925496	-0.700853
H66	H	2.157406	-0.425496	-0.200853
H67	H	1.772274	-1.014485	-0.678944
H68	H	2.272274	-0.514485	-0.178944
H69	H	1.662929	-1.030428	-0.582753
H70	H	2.162929	-0.530428	-0.082753
H71	H	1.817975	-0.826727	-0.625571
H72	H	2.317975	-0.326727	-0.125571
H73	H	1.708613	-0.842643	-0.529380
H74	H	2.208613	-0.342643	-0.029380
H75	H	1.986977	-0.316051	-0.954732
H76	H	2.486977	0.183949	-0.454732
H77	H	1.986867	-0.952701	-0.317226
H78	H	2.486867	-0.452701	0.182774
C79	C	1.841006	-0.651073	-0.800583
C80	C	2.341006	-0.151073	-0.300583
C81	C	1.770206	-0.568807	-0.888095
C82	C	2.270206	-0.068807	-0.388095
H83	H	1.787551	-0.713400	-0.755070
H84	H	2.287551	-0.213400	-0.255070
H85	H	1.902359	-0.691307	-0.844218
H86	H	2.402359	-0.191307	-0.344218
H87	H	1.881108	-0.604302	-0.743097
H88	H	2.381108	-0.104302	-0.243097
H89	H	1.730111	-0.615577	-0.945587
H90	H	2.230111	-0.115577	-0.445587
H91	H	1.708830	-0.528570	-0.844457
H92	H	2.208830	-0.028570	-0.344457
H93	H	1.397808	-0.332337	-0.333320
H94	H	1.897808	0.167663	0.166680
