data_functionalizedCrystal
_audit_creation_method	'MofGen! by Chris Wilmer'
_symmetry_space_group_name_H-M	'P1'
_symmetry_Int_Tables_number	1
_symmetry_cell_setting	triclinic
loop_
_symmetry_equiv_pos_as_xyz
  x,y,z
_cell_length_a	27.732048
_cell_length_b	10.654550
_cell_length_c	9.730223
_cell_angle_alpha	90.004025
_cell_angle_beta	90.001748
_cell_angle_gamma	96.436207
loop_
_atom_site_label
_atom_site_type_symbol
_atom_site_fract_x
_atom_site_fract_y
_atom_site_fract_z
O1	O	0.641857	-0.149416	-0.114113
O2	O	0.501205	-0.172134	-0.114154
O3	O	0.574765	0.022100	-0.114124
O4	O	0.568297	-0.343650	-0.114143
O5	O	0.574760	0.022104	0.114456
O6	O	0.501200	-0.172130	0.114426
O7	O	0.641852	-0.149411	0.114467
Zn8	Zn	0.571525	-0.160770	0.150738
Zn9	Zn	0.571532	-0.160776	-0.150425
O10	O	0.568292	-0.343646	0.114437
C11	C	0.483193	-0.171655	0.000130
C12	C	0.429529	-0.170219	0.000115
C13	C	0.574287	0.068880	0.000165
C14	C	0.572867	0.208264	0.000163
N15	N	0.571523	-0.160766	0.356275
C16	C	0.091372	-0.275959	0.000169
C17	C	-0.110321	-0.270631	0.000181
O18	O	-0.140974	-0.367322	0.000236
N19	N	-0.130162	-0.155458	0.000185
C20	C	-0.099576	-0.041609	0.000194
O21	O	-0.121080	0.056475	0.000212
C22	C	0.102116	-0.046938	0.000192
C23	C	0.121954	-0.162118	0.000174
C24	C	0.111211	-0.391130	0.000153
C25	C	0.161631	-0.392461	0.000142
C26	C	0.192213	-0.278620	0.000148
C27	C	0.172374	-0.163449	0.000164
C28	C	0.132701	0.066910	0.000211
C29	C	0.183126	0.065567	0.000214
C30	C	0.202964	-0.049613	0.000196
C31	C	0.253376	-0.050940	0.000158
N32	N	0.273217	-0.166113	0.000155
C33	C	0.242635	-0.279953	0.000149
C34	C	-0.205467	-0.038819	0.000193
C35	C	-0.255890	-0.037486	0.000191
C36	C	-0.266631	-0.266509	0.000181
C37	C	-0.216208	-0.267840	0.000173
C38	C	-0.185626	-0.153992	0.000190
C39	C	0.348522	-0.282739	0.000126
C40	C	0.398947	-0.284060	0.000109
C41	C	0.409684	-0.055038	0.000127
C42	C	0.359263	-0.053716	0.000136
C43	C	0.328683	-0.167577	0.000140
O44	O	0.284058	0.045700	0.000119
O45	O	0.264149	-0.378023	0.000162
C46	C	0.040952	-0.274628	0.000179
C47	C	0.021113	-0.159457	0.000195
C48	C	0.051695	-0.045616	0.000201
C49	C	-0.029309	-0.158124	0.000194
C50	C	-0.059891	-0.271965	0.000188
C51	C	-0.040050	-0.387138	0.000185
C52	C	0.010370	-0.388469	0.000174
C53	C	0.031854	0.069557	0.000204
C54	C	-0.018567	0.070878	0.000213
C55	C	-0.049148	-0.042962	0.000208
C56	C	0.659864	-0.149890	0.000179
C57	C	0.713528	-0.151326	0.000186
C58	C	0.568769	-0.390426	0.000145
C59	C	0.570190	-0.529810	0.000138
C60	C	0.616177	0.289570	0.000175
C61	C	0.614840	0.420535	0.000158
C62	C	0.526876	0.388874	0.000122
C63	C	0.528215	0.257912	0.000129
C64	C	0.604107	-0.074795	0.428214
C65	C	0.604111	-0.074795	0.572097
C66	C	0.538947	-0.246750	0.572089
C67	C	0.538941	-0.246742	0.428208
N68	N	0.571534	-0.160775	0.644038
H69	H	0.415096	-0.377858	0.000094
C70	C	0.503641	-0.340154	0.349919
C71	C	0.529639	-0.416538	0.267271
C72	C	0.497139	-0.502585	0.195118
H73	H	0.484227	-0.391487	0.413208
H74	H	0.483377	-0.295369	0.293724
H75	H	0.549895	-0.461320	0.323460
H76	H	0.549052	-0.365239	0.203956
H77	H	0.476874	-0.457800	0.138923
H78	H	0.477726	-0.553909	0.258417
H79	H	0.514773	-0.554414	0.139024
H80	H	0.630643	-0.004789	0.630666
C81	C	-0.277359	0.087661	-0.000021
C82	C	-0.261840	0.156431	-0.117596
C83	C	-0.281600	0.271734	-0.117821
H84	H	-0.311768	0.072344	-0.000093
H85	H	-0.266871	0.134558	0.079653
H86	H	-0.272331	0.109545	-0.197250
H87	H	-0.227434	0.171783	-0.117549
H88	H	-0.271112	0.318630	-0.038147
H89	H	-0.316008	0.256404	-0.117890
H90	H	-0.271070	0.318413	-0.197588
H91	H	0.434592	0.037648	0.000126
H92	H	0.086316	-0.483838	0.000153
H93	H	0.177778	-0.486253	0.000127
H94	H	0.630637	-0.004786	0.369649
C95	C	-0.194646	-0.392857	-0.000123
C96	C	-0.166023	-0.400336	-0.117738
C97	C	-0.146161	-0.515496	-0.118066
H98	H	-0.175166	-0.398272	0.079495
H99	H	-0.220072	-0.460495	-0.000206
H100	H	-0.140600	-0.332717	-0.117643
H101	H	-0.185492	-0.394944	-0.197376
H102	H	-0.171587	-0.583133	-0.118149
H103	H	-0.126684	-0.520900	-0.038443
H104	H	-0.126742	-0.520590	-0.197872
C105	C	0.478385	0.442712	-0.000187
C106	C	0.452186	0.401324	-0.117813
C107	C	0.407516	0.450906	-0.118150
H108	H	0.460472	0.414786	0.079424
H109	H	0.483771	0.532358	-0.000260
H110	H	0.446799	0.311697	-0.117727
H111	H	0.470085	0.429249	-0.197443
H112	H	0.412902	0.540552	-0.118224
H113	H	0.389607	0.422976	-0.038535
H114	H	0.389736	0.422841	-0.197964
C115	C	0.503553	-0.339898	0.650372
C116	C	0.473759	-0.273536	0.733023
C117	C	0.441153	-0.359305	0.805168
H118	H	0.484098	-0.391136	0.587078
H119	H	0.521104	-0.391847	0.706564
H120	H	0.456210	-0.221609	0.676836
H121	H	0.493200	-0.222303	0.796342
H122	H	0.458703	-0.411254	0.861360
H123	H	0.421701	-0.410539	0.741865
H124	H	0.420936	-0.314292	0.861265
H125	H	0.056749	0.162261	0.000212
H126	H	0.026517	-0.482260	0.000162
C127	C	0.337657	0.071245	0.000359
C128	C	0.309022	0.078691	0.117955
C129	C	0.289110	0.193782	0.118213
H130	H	0.363044	0.138958	0.000427
H131	H	0.318178	0.076541	-0.079301
H132	H	0.328500	0.073408	0.197595
H133	H	0.283627	0.011006	0.117913
H134	H	0.269631	0.199078	0.038553
H135	H	0.314501	0.261485	0.118276
H136	H	0.269675	0.198845	0.197993
C137	C	0.315406	-0.406493	0.000048
C138	C	0.343581	-0.507627	-0.000008
C139	C	0.313093	-0.621645	-0.000110
H140	H	0.295504	-0.410930	0.079737
H141	H	0.295519	-0.410805	-0.079695
H142	H	0.363460	-0.503317	0.079727
H143	H	0.363483	-0.503232	-0.079691
H144	H	0.293206	-0.625957	-0.079853
H145	H	0.293191	-0.626069	0.079581
H146	H	0.332205	-0.690278	-0.000160
H147	H	0.650108	0.486730	0.000165
H148	H	-0.291540	-0.359202	0.000177
H149	H	0.492943	0.191708	0.000115
C150	C	-0.172244	0.084758	0.000477
C151	C	-0.142988	0.090724	0.118092
C152	C	-0.112384	0.204550	0.118400
H153	H	-0.152307	0.089120	-0.079142
H154	H	-0.191269	0.153570	0.000548
H155	H	-0.123965	0.021931	0.118008
H156	H	-0.162912	0.086384	0.197730
H157	H	-0.131409	0.273362	0.118471
H158	H	-0.092450	0.208902	0.038776
H159	H	-0.092533	0.208618	0.198206
C160	C	0.111146	0.191932	-0.000047
C161	C	0.082521	0.199432	-0.117658
C162	C	0.062664	0.314600	-0.117950
H163	H	0.091668	0.197343	0.079574
H164	H	0.136575	0.259563	-0.000111
H165	H	0.057095	0.131821	-0.117581
H166	H	0.101987	0.194044	-0.197298
H167	H	0.088093	0.382231	-0.118014
H168	H	0.043189	0.320001	-0.038324
H169	H	0.043244	0.319709	-0.197753
H170	H	0.208024	0.158279	0.000228
H171	H	-0.064959	-0.479831	0.000175
H172	H	-0.034713	0.164679	0.000217
H173	H	0.652536	0.249152	0.000199
