data_functionalizedCrystal
_audit_creation_method	'MofGen! by Chris Wilmer'
_symmetry_space_group_name_H-M	'P1'
_symmetry_Int_Tables_number	1
_symmetry_cell_setting	triclinic
loop_
_symmetry_equiv_pos_as_xyz
  x,y,z
_cell_length_a	16.625546
_cell_length_b	19.077142
_cell_length_c	19.077271
_cell_angle_alpha	90.085571
_cell_angle_beta	87.715040
_cell_angle_gamma	92.282081
loop_
_atom_site_label
_atom_site_type_symbol
_atom_site_fract_x
_atom_site_fract_y
_atom_site_fract_z
Zn1	Zn	-0.390225	-1.058199	0.440438
Zn2	Zn	-0.140225	-0.808199	0.690438
Zn3	Zn	0.109775	-0.558199	0.940438
Zn4	Zn	0.359775	-0.308199	1.190438
Zn5	Zn	-0.519834	-1.062865	0.322929
Zn6	Zn	-0.269834	-0.812865	0.572929
Zn7	Zn	-0.019834	-0.562865	0.822929
Zn8	Zn	0.230166	-0.312865	1.072929
Zn9	Zn	-0.379386	-0.945440	0.318229
Zn10	Zn	-0.129386	-0.695440	0.568229
Zn11	Zn	0.120614	-0.445440	0.818229
Zn12	Zn	0.370614	-0.195440	1.068229
Zn13	Zn	-0.519379	-0.940666	0.435677
Zn14	Zn	-0.269379	-0.690666	0.685677
Zn15	Zn	-0.019379	-0.440666	0.935677
Zn16	Zn	0.230621	-0.190666	1.185677
O17	O	-0.452206	-1.001793	0.379318
O18	O	-0.202206	-0.751793	0.629318
O19	O	0.047794	-0.501793	0.879318
O20	O	0.297794	-0.251793	1.129318
O21	O	-0.412145	-1.157149	0.428810
O22	O	-0.162145	-0.907149	0.678810
O23	O	0.087855	-0.657149	0.928810
O24	O	0.337855	-0.407149	1.178810
O25	O	-0.496858	-1.051239	0.223975
O26	O	-0.246858	-0.801239	0.473975
O27	O	0.003142	-0.551239	0.723975
O28	O	0.253142	-0.301239	0.973975
O29	O	-0.267995	-0.960443	0.334467
O30	O	-0.017995	-0.710443	0.584467
O31	O	0.232005	-0.460443	0.834467
O32	O	0.482005	-0.210443	1.084467
O33	O	-0.507368	-1.160577	0.342476
O34	O	-0.257368	-0.910577	0.592476
O35	O	-0.007368	-0.660577	0.842476
O36	O	0.242632	-0.410577	1.092476
O37	O	-0.275958	-1.043287	0.424253
O38	O	-0.025958	-0.793287	0.674253
O39	O	0.224042	-0.543287	0.924253
O40	O	0.474042	-0.293287	1.174253
O41	O	-0.393671	-0.964967	0.220522
O42	O	-0.143671	-0.714967	0.470522
O43	O	0.106329	-0.464967	0.720522
O44	O	0.356329	-0.214967	0.970522
O45	O	-0.393229	-0.846475	0.329849
O46	O	-0.143229	-0.596475	0.579849
O47	O	0.106771	-0.346475	0.829849
O48	O	0.356771	-0.096475	1.079849
O49	O	-0.506592	-0.952307	0.534639
O50	O	-0.256592	-0.702307	0.784639
O51	O	-0.006592	-0.452307	1.034639
O52	O	0.243408	-0.202307	1.284639
O53	O	-0.496081	-0.842968	0.416137
O54	O	-0.246081	-0.592968	0.666137
O55	O	0.003919	-0.342968	0.916137
O56	O	0.253919	-0.092968	1.166137
O57	O	-0.411703	-1.038658	0.538137
O58	O	-0.161703	-0.788658	0.788137
O59	O	0.088297	-0.538658	1.038137
O60	O	0.338297	-0.288658	1.288137
O61	O	-0.632603	-1.046610	0.337859
O62	O	-0.382603	-0.796610	0.587859
O63	O	-0.132603	-0.546610	0.837859
O64	O	0.117397	-0.296610	1.087859
O65	O	-0.632268	-0.956831	0.420694
O66	O	-0.382268	-0.706831	0.670694
O67	O	-0.132268	-0.456831	0.920694
O68	O	0.117732	-0.206831	1.170694
C69	C	-0.661692	-1.001727	0.379286
C70	C	-0.411692	-0.751727	0.629286
C71	C	-0.161692	-0.501727	0.879286
C72	C	0.088308	-0.251727	1.129286
C73	C	-0.751316	-1.001763	0.379299
C74	C	-0.501316	-0.751763	0.629299
C75	C	-0.251316	-0.501763	0.879299
C76	C	-0.001316	-0.251763	1.129299
C77	C	-0.443430	-0.819226	0.371967
C78	C	-0.193430	-0.569226	0.621967
C79	C	0.056570	-0.319226	0.871967
C80	C	0.306570	-0.069226	1.121967
C81	C	-0.439696	-0.741122	0.368839
C82	C	-0.189696	-0.491122	0.618839
C83	C	0.060304	-0.241122	0.868839
C84	C	0.310304	0.008878	1.118839
C85	C	-0.460306	-0.994429	0.562597
C86	C	-0.210306	-0.744429	0.812597
C87	C	0.039694	-0.494429	1.062597
C88	C	0.289694	-0.244429	1.312597
C89	C	-0.463758	-0.991292	0.640699
C90	C	-0.213758	-0.741292	0.890699
C91	C	0.036242	-0.491292	1.140699
C92	C	0.286242	-0.241292	1.390699
C93	C	-1.079500	-1.001882	0.379377
C94	C	-0.829500	-0.751882	0.629377
C95	C	-0.579500	-0.501882	0.879377
C96	C	-0.329500	-0.251882	1.129377
C97	C	-0.988189	-1.001847	0.379357
C98	C	-0.738189	-0.751847	0.629357
C99	C	-0.488189	-0.501847	0.879357
C100	C	-0.238189	-0.251847	1.129357
C101	C	-0.915411	-1.001822	0.379337
C102	C	-0.665411	-0.751822	0.629337
C103	C	-0.415411	-0.501822	0.879337
C104	C	-0.165411	-0.251822	1.129337
C105	C	-0.824094	-1.001787	0.379318
C106	C	-0.574094	-0.751787	0.629318
C107	C	-0.324094	-0.501787	0.879318
C108	C	-0.074094	-0.251787	1.129318
C109	C	-0.241903	-1.001877	0.379367
C110	C	0.008097	-0.751877	0.629367
C111	C	0.258097	-0.501877	0.879367
C112	C	0.508097	-0.251877	1.129367
C113	C	-0.152285	-1.001913	0.379387
C114	C	0.097715	-0.751913	0.629387
C115	C	0.347715	-0.501913	0.879387
C116	C	0.597715	-0.251913	1.129387
C117	C	-0.491566	-0.702624	0.412224
C118	C	-0.241566	-0.452624	0.662224
C119	C	0.008434	-0.202624	0.912224
C120	C	0.258434	0.047376	1.162224
C121	C	-0.488047	-0.629237	0.409288
C122	C	-0.238047	-0.379237	0.659288
C123	C	0.011953	-0.129237	0.909288
C124	C	0.261953	0.120763	1.159288
C125	C	-0.432662	-0.594350	0.362963
C126	C	-0.182662	-0.344350	0.612963
C127	C	0.067338	-0.094350	0.862963
C128	C	0.317338	0.155650	1.112963
C129	C	-0.380786	-0.632853	0.319576
C130	C	-0.130786	-0.382853	0.569576
C131	C	0.119214	-0.132853	0.819576
C132	C	0.369214	0.117147	1.069576
C133	C	-0.384302	-0.706239	0.322516
C134	C	-0.134302	-0.456239	0.572516
C135	C	0.115698	-0.206239	0.822516
C136	C	0.365698	0.043761	1.072516
C137	C	-0.416393	-0.375065	0.349364
C138	C	-0.166393	-0.125065	0.599364
C139	C	0.083607	0.124935	0.849364
C140	C	0.333607	0.374935	1.099364
C141	C	-0.412883	-0.301675	0.346425
C142	C	-0.162883	-0.051675	0.596425
C143	C	0.087117	0.198325	0.846425
C144	C	0.337117	0.448325	1.096425
C145	C	-0.520143	-0.298064	0.436139
C146	C	-0.270143	-0.048064	0.686139
C147	C	-0.020143	0.201936	0.936139
C148	C	0.229857	0.451936	1.186139
C149	C	-0.523657	-0.371451	0.439072
C150	C	-0.273657	-0.121451	0.689072
C151	C	-0.023657	0.128549	0.939072
C152	C	0.226343	0.378549	1.189072
C153	C	-0.471779	-0.409947	0.395687
C154	C	-0.221779	-0.159947	0.645687
C155	C	0.028221	0.090053	0.895687
C156	C	0.278221	0.340053	1.145687
N157	N	-0.429065	-0.519337	0.359959
N158	N	-0.179065	-0.269337	0.609959
N159	N	0.070935	-0.019337	0.859959
N160	N	0.320935	0.230663	1.109959
N161	N	-0.475372	-0.484959	0.398695
N162	N	-0.225372	-0.234959	0.648695
N163	N	0.024628	0.015041	0.898695
N164	N	0.274628	0.265041	1.148695
C165	C	-0.461012	-0.185073	0.386690
C166	C	-0.211012	0.064927	0.636690
C167	C	0.038988	0.314927	0.886690
C168	C	0.288988	0.564927	1.136690
C169	C	-0.464753	-0.263177	0.389811
C170	C	-0.214753	-0.013177	0.639811
C171	C	0.035247	0.236823	0.889811
C172	C	0.285247	0.486823	1.139811
C173	C	-0.415978	-1.034774	0.679214
C174	C	-0.165978	-0.784774	0.929214
C175	C	0.084022	-0.534774	1.179214
C176	C	0.334022	-0.284774	1.429214
C177	C	-0.419218	-1.031817	0.752599
C178	C	-0.169218	-0.781817	1.002599
C179	C	0.080782	-0.531817	1.252599
C180	C	0.330782	-0.281817	1.502599
C181	C	-0.470242	-0.985381	0.787468
C182	C	-0.220242	-0.735381	1.037468
C183	C	0.029758	-0.485381	1.287468
C184	C	0.279758	-0.235381	1.537468
C185	C	-0.518023	-0.941894	0.748947
C186	C	-0.268023	-0.691894	0.998947
C187	C	-0.018023	-0.441894	1.248947
C188	C	0.231977	-0.191894	1.498947
C189	C	-0.514779	-0.944848	0.675563
C190	C	-0.264779	-0.694848	0.925563
C191	C	-0.014779	-0.444848	1.175563
C192	C	0.235221	-0.194848	1.425563
C193	C	-0.485239	-0.971723	1.006746
C194	C	-0.235239	-0.721723	1.256746
C195	C	0.014761	-0.471723	1.506746
C196	C	0.264761	-0.221723	1.756746
C197	C	-0.488482	-0.968774	1.080135
C198	C	-0.238482	-0.718774	1.330135
C199	C	0.011518	-0.468774	1.580135
C200	C	0.261518	-0.218774	1.830135
C201	C	-0.389675	-1.058696	1.083782
C202	C	-0.139675	-0.808696	1.333782
C203	C	0.110325	-0.558696	1.583782
C204	C	0.360325	-0.308696	1.833782
C205	C	-0.386438	-1.061649	1.010397
C206	C	-0.136438	-0.811649	1.260397
C207	C	0.113562	-0.561649	1.510397
C208	C	0.363562	-0.311649	1.760397
C209	C	-0.434216	-1.018159	0.971882
C210	C	-0.184216	-0.768159	1.221882
C211	C	0.065784	-0.518159	1.471882
C212	C	0.315784	-0.268159	1.721882
N213	N	-0.473556	-0.982359	0.862479
N214	N	-0.223556	-0.732359	1.112479
N215	N	0.026444	-0.482359	1.362479
N216	N	0.276444	-0.232359	1.612479
N217	N	-0.430897	-1.021178	0.896872
N218	N	-0.180897	-0.771178	1.146872
N219	N	0.069103	-0.521178	1.396872
N220	N	0.319103	-0.271178	1.646872
C221	C	-0.444155	-1.009121	1.196753
C222	C	-0.194155	-0.759121	1.446753
C223	C	0.055845	-0.509121	1.696753
C224	C	0.305845	-0.259121	1.946753
C225	C	-0.440702	-1.012256	1.118650
C226	C	-0.190702	-0.762256	1.368650
C227	C	0.059298	-0.512256	1.618650
C228	C	0.309298	-0.262256	1.868650
H229	H	-0.536670	-0.731024	0.449945
H230	H	-0.286670	-0.481024	0.699945
H231	H	-0.036670	-0.231024	0.949945
H232	H	0.213330	0.018976	1.199945
F233	F	-0.565630	-0.898567	0.634573
F234	F	-0.315630	-0.648567	0.884573
F235	F	-0.065630	-0.398567	1.134573
F236	F	0.184370	-0.148567	1.384573
H237	H	-0.530286	-0.597895	0.444616
H238	H	-0.280286	-0.347895	0.694616
H239	H	-0.030286	-0.097895	0.944616
H240	H	0.219714	0.152105	1.194616
H241	H	-0.568760	-0.399851	0.476793
H242	H	-0.318760	-0.149851	0.726793
H243	H	-0.068760	0.100149	0.976793
H244	H	0.181240	0.350149	1.226793
H245	H	-0.562378	-0.266712	0.471461
H246	H	-0.312378	-0.016712	0.721461
H247	H	-0.062378	0.233288	0.971461
H248	H	0.187622	0.483288	1.221461
F249	F	-0.353936	-0.264547	0.297113
F250	F	-0.103936	-0.014547	0.547113
F251	F	0.146064	0.235453	0.797113
F252	F	0.396064	0.485453	1.047113
F253	F	-0.361177	-0.416027	0.303191
F254	F	-0.111177	-0.166027	0.553191
F255	F	0.138823	0.083973	0.803191
F256	F	0.388823	0.333973	1.053191
H257	H	-0.335687	-0.604442	0.281860
H258	H	-0.085687	-0.354442	0.531860
H259	H	0.164313	-0.104442	0.781860
H260	H	0.414313	0.145558	1.031860
F261	F	-0.332132	-1.111072	0.973292
F262	F	-0.082132	-0.861072	1.223292
F263	F	0.167868	-0.611072	1.473292
F264	F	0.417868	-0.361072	1.723292
F265	F	-0.329093	-0.747211	0.276341
F266	F	-0.079093	-0.497211	0.526341
F267	F	0.170907	-0.247211	0.776341
F268	F	0.420907	0.002789	1.026341
H269	H	-0.350776	-1.094102	1.115148
H270	H	-0.100776	-0.844102	1.365148
H271	H	0.149224	-0.594102	1.615148
H272	H	0.399224	-0.344102	1.865148
F273	F	-0.361675	-1.084201	0.642111
F274	F	-0.111675	-0.834201	0.892111
F275	F	0.138325	-0.584201	1.142111
F276	F	0.388325	-0.334201	1.392111
H277	H	-0.380313	-1.067226	0.783955
H278	H	-0.130313	-0.817226	1.033955
H279	H	0.119687	-0.567226	1.283955
H280	H	0.369687	-0.317226	1.533955
H281	H	-0.530033	-0.930958	1.108523
H282	H	-0.280033	-0.680958	1.358523
H283	H	-0.030033	-0.430958	1.608523
H284	H	0.219967	-0.180958	1.858523
F285	F	-0.536089	-0.925437	0.965766
F286	F	-0.286089	-0.675437	1.215766
F287	F	-0.036089	-0.425437	1.465766
F288	F	0.213911	-0.175437	1.715766
H289	H	-0.559565	-0.904083	0.777343
H290	H	-0.309565	-0.654083	1.027343
H291	H	-0.059565	-0.404083	1.277343
H292	H	0.190435	-0.154083	1.527343
