data_functionalizedCrystal
_audit_creation_method	'MofGen! by Chris Wilmer'
_symmetry_space_group_name_H-M	'P1'
_symmetry_Int_Tables_number	1
_symmetry_cell_setting	triclinic
loop_
_symmetry_equiv_pos_as_xyz
  x,y,z
_cell_length_a	15.297979
_cell_length_b	15.297327
_cell_length_c	12.759387
_cell_angle_alpha	99.642565
_cell_angle_beta	80.287621
_cell_angle_gamma	110.796881
loop_
_atom_site_label
_atom_site_type_symbol
_atom_site_fract_x
_atom_site_fract_y
_atom_site_fract_z
Zn1	Zn	1.357873	-0.124380	-0.893286
Zn2	Zn	1.857873	0.375620	-0.393286
Zn3	Zn	1.330825	-0.279941	-0.743469
Zn4	Zn	1.830825	0.220059	-0.243469
Zn5	Zn	1.202317	-0.151315	-0.691631
Zn6	Zn	1.702317	0.348685	-0.191631
Zn7	Zn	1.175379	-0.306745	-0.893112
Zn8	Zn	1.675379	0.193255	-0.393112
O9	O	1.266599	-0.215595	-0.805375
O10	O	1.766599	0.284405	-0.305375
O11	O	1.484440	-0.122525	-0.895179
O12	O	1.984440	0.377475	-0.395179
O13	O	1.313732	-0.262934	-0.589574
O14	O	1.813732	0.237066	-0.089574
O15	O	1.245546	-0.017591	-0.696759
O16	O	1.745546	0.482409	-0.196759
O17	O	1.464568	-0.236816	-0.785110
O18	O	1.964568	0.263184	-0.285110
O19	O	1.359832	0.002198	-0.844914
O20	O	1.859832	0.502198	-0.344914
O21	O	1.219318	-0.168433	-0.551488
O22	O	1.719318	0.331567	-0.051488
O23	O	1.068589	-0.194423	-0.696591
O24	O	1.568589	0.305577	-0.196591
O25	O	1.199634	-0.282498	-1.040155
O26	O	1.699634	0.217502	-0.540155
O27	O	1.048798	-0.308617	-0.844618
O28	O	1.548798	0.191383	-0.344618
O29	O	1.333711	-0.148515	-1.040282
O30	O	1.833711	0.351485	-0.540282
O31	O	1.287611	-0.413648	-0.784942
O32	O	1.787611	0.086352	-0.284942
O33	O	1.173406	-0.433340	-0.894884
O34	O	1.673406	0.066660	-0.394884
C35	C	1.024945	-0.257352	-0.764961
C36	C	1.524945	0.242648	-0.264961
C37	C	0.921561	-0.275238	-0.747701
C38	C	1.421561	0.224762	-0.247701
C39	C	0.862660	-0.343052	-0.682162
C40	C	1.362660	0.156948	-0.182162
C41	C	0.765525	-0.359859	-0.665950
C42	C	1.265525	0.140141	-0.165950
C43	C	0.727283	-0.308849	-0.715270
C44	C	1.227283	0.191151	-0.215270
C45	C	0.786185	-0.241029	-0.780804
C46	C	1.286185	0.258971	-0.280804
C47	C	0.883329	-0.224225	-0.797024
C48	C	1.383329	0.275775	-0.297024
C49	C	0.747952	-0.190022	-0.830132
C50	C	1.247952	0.309978	-0.330132
C51	C	0.806854	-0.122202	-0.895667
C52	C	1.306854	0.377798	-0.395667
C53	C	0.903988	-0.105401	-0.911883
C54	C	1.403988	0.394599	-0.411883
C55	C	0.942230	-0.156411	-0.862563
C56	C	1.442230	0.343589	-0.362563
C57	C	0.650808	-0.206825	-0.813913
C58	C	1.150808	0.293175	-0.313913
C59	C	0.671477	-0.087999	-0.928775
C60	C	1.171477	0.412001	-0.428775
C61	C	0.768612	-0.071192	-0.944986
C62	C	1.268612	0.428808	-0.444986
C63	C	1.224675	-0.457236	-0.845546
C64	C	1.724675	0.042764	-0.345546
C65	C	1.206825	-0.560596	-0.862781
C66	C	1.706825	-0.060596	-0.362781
C67	C	1.394558	-0.810780	-0.682616
C68	C	1.894558	-0.310780	-0.182616
C69	C	1.411328	-0.713668	-0.666417
C70	C	1.911328	-0.213668	-0.166417
C71	C	1.360204	-0.675395	-0.715507
C72	C	1.860204	-0.175395	-0.215507
C73	C	1.292306	-0.734244	-0.780798
C74	C	1.792306	-0.234244	-0.280798
C75	C	1.275529	-0.831367	-0.796991
C76	C	1.775529	-0.331367	-0.296991
C77	C	1.241176	-0.695982	-0.829883
C78	C	1.741176	-0.195982	-0.329883
C79	C	1.173278	-0.754831	-0.895173
C80	C	1.673278	-0.254831	-0.395173
C81	C	1.156504	-0.851943	-0.911364
C82	C	1.656504	-0.351943	-0.411364
C83	C	1.207628	-0.890216	-0.862275
C84	C	1.707628	-0.390216	-0.362275
C85	C	1.257953	-0.598859	-0.813689
C86	C	1.757953	-0.098859	-0.313689
C87	C	1.138924	-0.619446	-0.928065
C88	C	1.638924	-0.119446	-0.428065
C89	C	1.122154	-0.716558	-0.944263
C90	C	1.622154	-0.216558	-0.444263
C91	C	1.509195	-0.173676	-0.845946
C92	C	2.009195	0.326324	-0.345946
C93	C	1.612576	-0.155813	-0.863236
C94	C	2.112576	0.344187	-0.363236
C95	C	1.266685	-0.215492	-1.079405
C96	C	1.766685	0.284508	-0.579405
C97	C	1.266721	-0.215448	-1.196180
C98	C	1.766721	0.284552	-0.696180
C99	C	1.308711	0.026994	-0.765073
C100	C	1.808711	0.526994	-0.265073
C101	C	1.326657	0.130371	-0.747899
C102	C	1.826657	0.630371	-0.247899
C103	C	1.406343	-0.075938	-1.196335
C104	C	1.906343	0.424062	-0.696335
C105	C	1.476169	-0.006167	-1.251273
C106	C	1.976169	0.493833	-0.751273
C107	C	1.476198	-0.006129	-1.360993
C108	C	1.976198	0.493871	-0.860993
C109	C	1.406391	-0.075868	-1.415777
C110	C	1.906391	0.424132	-0.915777
C111	C	1.336565	-0.145639	-1.360838
C112	C	1.836565	0.354361	-0.860838
C113	C	1.336545	-0.145671	-1.251117
C114	C	1.836545	0.354329	-0.751117
C115	C	1.196941	-0.285144	-1.360682
C116	C	1.696941	0.214856	-0.860682
C117	C	1.196914	-0.285187	-1.250964
C118	C	1.696914	0.214813	-0.750964
C119	C	1.127134	-0.354883	-1.415465
C120	C	1.627134	0.145117	-0.915465
C121	C	1.057310	-0.424660	-1.360529
C122	C	1.557310	0.075340	-0.860529
C123	C	1.057285	-0.424695	-1.250802
C124	C	1.557285	0.075305	-0.750802
C125	C	1.127088	-0.354958	-1.196025
C126	C	1.627088	0.145042	-0.696025
C127	C	1.266578	-0.215622	-0.532408
C128	C	1.766578	0.284378	-0.032408
C129	C	1.266767	-0.215373	-0.415620
C130	C	1.766767	0.284627	0.084380
H131	H	0.816584	-0.015972	-0.998346
H132	H	1.316584	0.484028	-0.498346
H133	H	1.000475	-0.481431	-1.405140
H134	H	1.500475	0.018569	-0.905140
H135	H	0.602859	-0.262046	-0.760555
H136	H	1.102859	0.237954	-0.260555
H137	H	0.717573	-0.415078	-0.612592
H138	H	1.217573	0.084922	-0.112592
H139	H	0.951943	-0.050186	-0.965257
H140	H	1.451943	0.449814	-0.465257
Cl141	Cl	0.910740	-0.407178	-0.620178
Cl142	Cl	1.410740	0.092822	-0.120178
H143	H	1.066871	-0.764486	-0.997423
H144	H	1.566871	-0.264486	-0.497423
Cl145	Cl	1.071143	-0.925924	-0.993439
Cl146	Cl	1.571143	-0.425924	-0.493439
Cl147	Cl	1.074644	-0.571340	-0.989773
Cl148	Cl	1.574644	-0.071340	-0.489773
Cl149	Cl	1.343308	-0.524890	-0.731613
Cl150	Cl	1.843308	-0.024890	-0.231613
Cl151	Cl	0.623408	-0.023870	-0.990784
Cl152	Cl	1.123408	0.476130	-0.490784
H153	H	1.000415	-0.481503	-1.206075
H154	H	1.500415	0.018497	-0.706075
H155	H	1.127078	-0.354984	-1.106687
H156	H	1.627078	0.145016	-0.606687
Cl157	Cl	1.406323	-0.075991	-1.058405
Cl158	Cl	1.906323	0.424009	-0.558405
H159	H	0.648191	-0.322537	-0.702066
H160	H	1.148191	0.177463	-0.202066
Cl161	Cl	1.563903	0.081519	-1.182391
Cl162	Cl	2.063903	0.581519	-0.682391
H163	H	1.373862	-0.596322	-0.702313
H164	H	1.873862	-0.096322	-0.202313
Cl165	Cl	1.064346	-0.135291	-0.882948
Cl166	Cl	1.564346	0.364709	-0.382948
H167	H	1.533051	0.050689	-1.405722
H168	H	2.033051	0.550689	-0.905722
H169	H	1.406414	-0.075825	-1.505114
H170	H	1.906414	0.424175	-1.005114
H171	H	1.466609	-0.665757	-0.613257
H172	H	1.966609	-0.165757	-0.113257
Cl173	Cl	1.458817	-0.858900	-0.620909
Cl174	Cl	1.958817	-0.358900	-0.120909
Cl175	Cl	1.186171	-1.012369	-0.882146
Cl176	Cl	1.686171	-0.512369	-0.382146
Cl177	Cl	1.127170	-0.354836	-1.553400
Cl178	Cl	1.627170	0.145164	-1.053400
