data_functionalizedCrystal
_audit_creation_method	'MofGen! by Chris Wilmer'
_symmetry_space_group_name_H-M	'P1'
_symmetry_Int_Tables_number	1
_symmetry_cell_setting	triclinic
loop_
_symmetry_equiv_pos_as_xyz
  x,y,z
_cell_length_a	18.215407
_cell_length_b	13.034595
_cell_length_c	18.215399
_cell_angle_alpha	97.162109
_cell_angle_beta	89.982187
_cell_angle_gamma	82.834538
loop_
_atom_site_label
_atom_site_type_symbol
_atom_site_fract_x
_atom_site_fract_y
_atom_site_fract_z
Zn1	Zn	1.162325	-0.416121	-0.453356
Zn2	Zn	1.177876	-0.590849	-0.345943
Zn3	Zn	1.039259	-0.416137	-0.330309
Zn4	Zn	1.054859	-0.590772	-0.468965
O5	O	1.108580	-0.503470	-0.399643
O6	O	1.267374	-0.439324	-0.439117
O7	O	1.159467	-0.567711	-0.240888
O8	O	1.042547	-0.269926	-0.333556
O9	O	1.278799	-0.567696	-0.360202
O10	O	1.132963	-0.269914	-0.423958
O11	O	1.057626	-0.439352	-0.229402
O12	O	0.938342	-0.439278	-0.348692
O13	O	1.069135	-0.567566	-0.569875
O14	O	0.949803	-0.567582	-0.450562
O15	O	1.148090	-0.439250	-0.558407
O16	O	1.174594	-0.737048	-0.375338
O17	O	1.084214	-0.736992	-0.465722
C18	C	0.917369	-0.503424	-0.399625
C19	C	0.835571	-0.503429	-0.399636
C20	C	1.132804	-0.774931	-0.423936
C21	C	1.143235	-0.891063	-0.434353
C22	C	0.564574	-0.436756	-0.440821
C23	C	0.641431	-0.436739	-0.440817
C24	C	0.653330	-0.570218	-0.358484
C25	C	0.576474	-0.570239	-0.358493
C26	C	0.532098	-0.503502	-0.399660
C27	C	0.685810	-0.503464	-0.399647
C28	C	0.769142	-0.503446	-0.399643
C29	C	0.448760	-0.503521	-0.399665
C30	C	1.103193	-0.942927	-0.394239
C31	C	1.113973	-1.062955	-0.405005
C32	C	1.300537	-0.503517	-0.399662
C33	C	1.382337	-0.503537	-0.399670
C34	C	1.108618	-0.503398	-0.591590
C35	C	1.108634	-0.503367	-0.673386
C36	C	1.084280	-0.230949	-0.375271
C37	C	1.073926	-0.114817	-0.364886
C38	C	1.149757	-0.436491	-0.855604
C39	C	1.149764	-0.436460	-0.932460
C40	C	1.067549	-0.570082	-0.944391
C41	C	1.067539	-0.570106	-0.867536
C42	C	1.108648	-0.503312	-0.823145
C43	C	1.108664	-0.503257	-0.976856
C44	C	1.108670	-0.503225	-1.060187
C45	C	1.108641	-0.503343	-0.739808
C46	C	1.108577	-0.503466	-0.208437
C47	C	1.108677	-0.503203	-0.126614
H48	H	0.528444	-0.382414	-0.474342
C49	C	1.171071	-1.122999	-0.462173
C50	C	1.163682	-1.108027	-0.544496
C51	C	1.220779	-1.168072	-0.601662
C52	C	1.285265	-1.243088	-0.576505
C53	C	1.292657	-1.258063	-0.494178
C54	C	1.235560	-1.198019	-0.437012
H55	H	1.115944	-1.052493	-0.563122
H56	H	1.215307	-1.156986	-0.662606
H57	H	1.327532	-1.287536	-0.618823
H58	H	1.340395	-1.313598	-0.475552
H59	H	1.241032	-1.209105	-0.376068
H60	H	1.183228	-0.382100	-0.819462
C61	C	0.702145	-0.643615	-0.313194
C62	C	0.666420	-0.717037	-0.267917
C63	C	0.715233	-0.790432	-0.222622
C64	C	0.799770	-0.790406	-0.222605
C65	C	0.835500	-0.716982	-0.267884
C66	C	0.786687	-0.643587	-0.313179
H67	H	0.603836	-0.717058	-0.267928
H68	H	0.688783	-0.844785	-0.189104
H69	H	0.835904	-0.844738	-0.189076
H70	H	0.898084	-0.716961	-0.267873
H71	H	0.813137	-0.589234	-0.346697
C72	C	1.022312	-0.643607	-0.831821
C73	C	1.061505	-0.725652	-0.786315
C74	C	1.016276	-0.799141	-0.750597
C75	C	0.931853	-0.790586	-0.760385
C76	C	0.892655	-0.708539	-0.805894
C77	C	0.937885	-0.635049	-0.841612
H78	H	1.124004	-0.731988	-0.779067
H79	H	1.045294	-0.859879	-0.716908
H80	H	0.898372	-0.844988	-0.733945
H81	H	0.830156	-0.702203	-0.813142
H82	H	0.908867	-0.574312	-0.875300
C83	C	0.677154	-0.363312	-0.486093
C84	C	0.628339	-0.289909	-0.531373
C85	C	0.664062	-0.216480	-0.576652
C86	C	0.748599	-0.216455	-0.576651
C87	C	0.797420	-0.289862	-0.531369
C88	C	0.761697	-0.363291	-0.486090
H89	H	0.565754	-0.289924	-0.531376
H90	H	0.627921	-0.162140	-0.610173
H91	H	0.775043	-0.162099	-0.610169
H92	H	0.860004	-0.289846	-0.531366
H93	H	0.797837	-0.417631	-0.452569
C94	C	1.022345	-0.643576	-0.993220
C95	C	0.937921	-0.635058	-0.981881
C96	C	0.892721	-0.708565	-1.030706
C97	C	0.931947	-0.790589	-1.090869
C98	C	1.016376	-0.799111	-1.102210
C99	C	1.061575	-0.725605	-1.053386
H100	H	0.908879	-0.574335	-0.937342
H101	H	0.830221	-0.702256	-1.022310
H102	H	0.898488	-0.845003	-1.127012
H103	H	1.045417	-0.859834	-1.146749
H104	H	1.124075	-0.731913	-1.061782
H105	H	1.060934	-0.898472	-0.351923
C106	C	0.540744	-0.643664	-0.313211
C107	C	0.495262	-0.725761	-0.352365
C108	C	0.459531	-0.799185	-0.307089
C109	C	0.469283	-0.790512	-0.222659
C110	C	0.514767	-0.708412	-0.183500
C111	C	0.550498	-0.634988	-0.228776
H112	H	0.488041	-0.732185	-0.414870
H113	H	0.425860	-0.859961	-0.336077
H114	H	0.442833	-0.844865	-0.189143
H115	H	0.521988	-0.701988	-0.120996
H116	H	0.584169	-0.574212	-0.199788
H117	H	1.031664	-1.070365	-0.322567
H118	H	1.185499	-0.935520	-0.476664
C119	C	1.194986	-0.362957	-0.968165
C120	C	1.240200	-0.289487	-0.919333
C121	C	1.285424	-0.215978	-0.955038
C122	C	1.285433	-0.215939	-1.039575
C123	C	1.240217	-0.289411	-1.088412
C124	C	1.194994	-0.362920	-1.052707
H125	H	1.240195	-0.289514	-0.856750
H126	H	1.318895	-0.161590	-0.918885
H127	H	1.318910	-0.161523	-1.066005
H128	H	1.240223	-0.289384	-1.150995
H129	H	1.161522	-0.417309	-1.088860
