data_functionalizedCrystal
_audit_creation_method	'MofGen! by Chris Wilmer'
_symmetry_space_group_name_H-M	'P1'
_symmetry_Int_Tables_number	1
_symmetry_cell_setting	triclinic
loop_
_symmetry_equiv_pos_as_xyz
  x,y,z
_cell_length_a	11.169417
_cell_length_b	12.645330
_cell_length_c	11.169409
_cell_angle_alpha	89.967722
_cell_angle_beta	89.980176
_cell_angle_gamma	90.018570
loop_
_atom_site_label
_atom_site_type_symbol
_atom_site_fract_x
_atom_site_fract_y
_atom_site_fract_z
Zn1	Zn	1.834901	-0.421929	-0.678543
Zn2	Zn	1.834765	-0.599240	-0.477860
Zn3	Zn	1.634187	-0.421993	-0.477878
Zn4	Zn	1.634169	-0.599153	-0.678505
O5	O	1.734505	-0.510579	-0.578197
O6	O	2.002833	-0.445458	-0.651931
O7	O	1.808108	-0.575791	-0.309913
O8	O	1.660877	-0.273637	-0.504519
O9	O	2.002732	-0.575728	-0.504490
O10	O	1.808341	-0.273590	-0.651948
O11	O	1.660745	-0.445569	-0.309925
O12	O	1.466235	-0.445485	-0.504483
O13	O	1.660846	-0.575581	-0.846460
O14	O	1.466221	-0.575644	-0.651883
O15	O	1.808323	-0.445375	-0.846488
O16	O	1.808090	-0.747575	-0.504453
O17	O	1.660713	-0.747512	-0.651866
C18	C	1.422681	-0.510563	-0.578181
C19	C	1.289281	-0.510581	-0.578203
C20	C	1.734418	-0.786008	-0.578180
C21	C	1.734490	-0.903838	-0.578213
C22	C	1.642158	-1.071407	-0.671236
C23	C	1.641685	-0.948847	-0.670937
C24	C	1.700247	-0.948447	-0.451730
C25	C	1.699683	-1.071046	-0.452295
C26	C	1.861631	-1.070922	-0.610646
C27	C	1.860852	-0.948315	-0.613412
C28	C	2.047548	-0.510596	-0.578213
C29	C	2.180948	-0.510603	-0.578220
C30	C	1.734597	-0.510461	-0.891239
C31	C	1.734637	-0.510411	-1.024639
C32	C	1.734626	-0.234073	-0.578240
C33	C	1.734677	-0.116243	-0.578258
C34	C	1.734483	-0.510619	-0.266372
C35	C	1.734676	-0.510371	-0.132972
H36	H	1.663386	-1.100807	-0.765330
H37	H	1.764146	-1.100710	-0.380657
H38	H	1.765497	-0.919296	-0.380561
H39	H	1.548628	-1.102311	-0.650053
C40	C	1.514542	-0.909347	-0.641945
C41	C	1.413124	-0.989357	-0.618986
C42	C	1.285975	-0.949857	-0.589990
C43	C	1.260245	-0.830347	-0.583954
C44	C	1.361666	-0.750329	-0.606914
C45	C	1.488815	-0.789829	-0.635910
H46	H	1.432168	-1.077833	-0.623453
H47	H	1.210896	-1.009093	-0.572993
H48	H	1.166122	-0.801107	-0.562490
H49	H	1.342622	-0.661854	-0.602447
H50	H	1.563894	-0.730594	-0.652907
H51	H	1.930560	-1.099917	-0.542926
H52	H	1.608410	-0.917841	-0.423796
H53	H	1.886676	-0.919154	-0.706497
C54	C	1.958886	-0.906926	-0.528588
C55	C	2.090036	-0.940782	-0.546930
C56	C	2.188067	-0.899395	-0.462093
C57	C	2.154948	-0.824153	-0.358916
C58	C	2.023792	-0.790293	-0.340570
C59	C	1.925761	-0.831680	-0.425406
H60	H	2.114559	-0.996484	-0.623312
H61	H	2.285158	-0.924461	-0.475675
H62	H	2.227517	-0.793516	-0.296115
H63	H	1.999270	-0.734590	-0.264188
H64	H	1.828671	-0.806614	-0.411825
C65	C	1.574312	-1.109822	-0.415237
C66	C	1.500291	-1.178688	-0.501505
C67	C	1.374916	-1.217459	-0.464449
C68	C	1.323563	-1.187363	-0.341126
C69	C	1.397585	-1.118493	-0.254850
C70	C	1.522960	-1.079723	-0.291905
H71	H	1.538305	-1.200970	-0.592803
H72	H	1.320120	-1.268441	-0.528317
H73	H	1.230753	-1.216063	-0.313695
H74	H	1.359571	-1.096211	-0.163551
H75	H	1.577755	-1.028741	-0.228038
C76	C	1.670551	-0.908087	-0.797651
C77	C	1.694201	-0.987091	-0.899822
C78	C	1.723028	-0.946338	-1.026550
C79	C	1.728206	-0.826580	-1.051108
C80	C	1.704555	-0.747568	-0.948935
C81	C	1.675728	-0.788322	-0.822207
H82	H	1.690369	-1.075750	-0.881645
H83	H	1.740535	-1.004828	-1.102185
H84	H	1.749545	-0.796411	-1.144920
H85	H	1.708387	-0.658910	-0.967112
H86	H	1.658220	-0.729832	-0.746571
C87	C	1.903834	-1.112568	-0.733128
C88	C	1.823549	-1.188275	-0.805305
C89	C	1.865737	-1.229922	-0.927791
C90	C	1.988211	-1.195862	-0.978099
C91	C	2.068504	-1.120150	-0.905921
C92	C	2.026316	-1.078503	-0.783436
H93	H	1.732879	-1.213492	-0.768064
H94	H	1.806298	-1.285968	-0.981221
H95	H	2.019441	-1.226691	-1.068771
H96	H	2.159173	-1.094933	-0.943162
H97	H	2.085755	-1.022457	-0.730005
