data_functionalizedCrystal
_audit_creation_method	'MofGen! by Chris Wilmer'
_symmetry_space_group_name_H-M	'P1'
_symmetry_Int_Tables_number	1
_symmetry_cell_setting	triclinic
loop_
_symmetry_equiv_pos_as_xyz
  x,y,z
_cell_length_a	21.883469
_cell_length_b	21.882911
_cell_length_c	21.879399
_cell_angle_alpha	60.006540
_cell_angle_beta	60.013207
_cell_angle_gamma	59.992231
loop_
_atom_site_label
_atom_site_type_symbol
_atom_site_fract_x
_atom_site_fract_y
_atom_site_fract_z
O1	O	0.084645	-0.892842	0.746620
O2	O	0.584645	-0.392842	1.246620
O3	O	0.031867	-0.695139	0.601571
O4	O	0.531867	-0.195139	1.101571
O5	O	0.157054	-0.820237	0.601476
O6	O	0.657054	-0.320237	1.101476
O7	O	-0.040542	-0.767744	0.746716
O8	O	0.459458	-0.267744	1.246716
O9	O	0.198586	-0.778715	0.642912
O10	O	0.698586	-0.278715	1.142912
O11	O	0.073399	-0.653617	0.643007
O12	O	0.573399	-0.153617	1.143007
O13	O	0.126177	-0.851320	0.788056
O14	O	0.626177	-0.351320	1.288056
Cu15	Cu	0.103580	-0.748677	0.719315
Cu16	Cu	0.603580	-0.248677	1.219315
Cu17	Cu	0.054464	-0.797782	0.670313
Cu18	Cu	0.554464	-0.297782	1.170313
O19	O	0.000990	-0.726222	0.788151
O20	O	0.500990	-0.226222	1.288151
N21	N	0.138128	-0.714145	0.753785
N22	N	0.638128	-0.214145	1.253785
N23	N	0.019923	-0.832320	0.635843
N24	N	0.519923	-0.332320	1.135843
C25	C	0.190018	-0.547369	0.805644
C26	C	0.690018	-0.047369	1.305644
C27	C	0.190029	-0.662289	0.805630
C28	C	0.690029	-0.162289	1.305630
C29	C	0.218780	-0.633565	0.834353
C30	C	0.718780	-0.133565	1.334353
C31	C	0.344122	-0.611968	0.768360
C32	C	0.844122	-0.111968	1.268360
C33	C	0.422474	-0.638085	0.742222
C34	C	0.922474	-0.138085	1.242222
C35	C	0.422504	-0.764859	0.790561
C36	C	0.922504	-0.264859	1.290561
C37	C	0.344154	-0.738739	0.816702
C38	C	0.844154	-0.238739	1.316702
C39	C	0.208899	-0.508180	0.728617
C40	C	0.708899	-0.008180	1.228617
C41	C	0.182748	-0.429822	0.702522
C42	C	0.682748	0.070178	1.202522
C43	C	0.118843	-0.429847	0.830485
C44	C	0.618843	0.070153	1.330485
C45	C	0.144993	-0.508205	0.856580
C46	C	0.644993	-0.008205	1.356580
C47	C	0.112994	-0.643364	0.824587
C48	C	0.612994	-0.143364	1.324587
C49	C	0.086865	-0.669476	0.798467
C50	C	0.586865	-0.169476	1.298467
C51	C	0.214799	-0.733437	0.734451
C52	C	0.714799	-0.233437	1.234451
C53	C	0.240932	-0.707325	0.760562
C54	C	0.740932	-0.207325	1.260562
C55	C	0.113084	-0.643389	0.959747
C56	C	0.613084	-0.143389	1.459747
C57	C	0.087018	-0.669524	1.038102
C58	C	0.587018	-0.169524	1.538102
C59	C	0.214996	-0.733501	1.038048
C60	C	0.714996	-0.233501	1.538048
C61	C	0.241061	-0.707367	0.959690
C62	C	0.741061	-0.207367	1.459690
C63	C	0.190103	-0.662308	0.920542
C64	C	0.690103	-0.162308	1.420542
C65	C	0.304966	-0.662293	0.805598
C66	C	0.804966	-0.162293	1.305598
C67	C	-0.117460	-0.854702	0.612901
C68	C	0.382540	-0.354702	1.112901
C69	C	-0.002405	-0.854864	0.498145
C70	C	0.497595	-0.354864	0.998145
C71	C	-0.002621	-0.969735	0.613108
C72	C	0.497379	-0.469735	1.113108
C73	C	-0.002603	-0.854858	0.613180
C74	C	0.497397	-0.354858	1.113180
C75	C	-0.031272	-0.883541	0.584334
C76	C	0.468728	-0.383541	1.084334
N77	N	0.460550	-0.714150	0.753681
N78	N	0.960550	-0.214150	1.253681
O79	O	0.699805	-0.721060	0.574973
O80	O	1.199805	-0.221060	1.074973
O81	O	0.700047	-0.866553	0.772482
O82	O	1.200047	-0.366553	1.272482
O83	O	0.699952	-0.866219	0.647213
O84	O	1.199952	-0.366219	1.147213
O85	O	0.699900	-0.721394	0.700242
O86	O	1.199900	-0.221394	1.200242
O87	O	0.575478	-0.824800	0.688791
O88	O	1.075478	-0.324800	1.188791
O89	O	0.575573	-0.825134	0.814060
O90	O	1.075573	-0.325134	1.314060
O91	O	0.575331	-0.679641	0.616551
O92	O	1.075331	-0.179641	1.116551
Cu93	Cu	0.564087	-0.748606	0.719102
Cu94	Cu	1.064087	-0.248606	1.219102
Cu95	Cu	0.711292	-0.797588	0.669931
Cu96	Cu	1.211292	-0.297588	1.169931
O97	O	0.575426	-0.679975	0.741820
O98	O	1.075426	-0.179975	1.241820
N99	N	0.814828	-0.832044	0.635345
N100	N	1.314828	-0.332044	1.135345
N101	N	0.138106	-0.391772	0.753815
N102	N	0.638106	0.108228	1.253815
O103	O	-0.040520	-0.152377	0.746758
O104	O	0.459480	0.347623	1.246758
O105	O	0.156993	-0.152371	0.601281
O106	O	0.656993	0.347629	1.101281
O107	O	0.031698	-0.152390	0.601639
O108	O	0.531698	0.347610	1.101639
O109	O	0.084775	-0.152358	0.746401
O110	O	0.584775	0.347642	1.246401
O111	O	0.073234	-0.276876	0.643130
O112	O	0.573234	0.223124	1.143130
O113	O	0.198529	-0.276856	0.642772
O114	O	0.698529	0.223144	1.142772
O115	O	0.001015	-0.276863	0.788249
O116	O	0.501015	0.223137	1.288249
Cu117	Cu	0.103564	-0.288226	0.719299
Cu118	Cu	0.603564	0.211774	1.219299
Cu119	Cu	0.054444	-0.141007	0.670231
Cu120	Cu	0.554444	0.358993	1.170231
O121	O	0.126310	-0.276844	0.787892
O122	O	0.626310	0.223156	1.287892
N123	N	0.019892	-0.037461	0.635717
N124	N	0.519892	0.462539	1.135717
N125	N	0.138332	-0.714192	1.076133
N126	N	0.638332	-0.214192	1.576133
O127	O	0.131293	-0.892804	1.315506
O128	O	0.631293	-0.392804	1.815506
O129	O	-0.014162	-0.695219	1.315533
O130	O	0.485838	-0.195219	1.815533
O131	O	-0.013826	-0.820490	1.315480
O132	O	0.486174	-0.320490	1.815480
O133	O	0.130957	-0.767533	1.315559
O134	O	0.630957	-0.267533	1.815559
O135	O	0.027651	-0.778981	1.191001
O136	O	0.527651	-0.278981	1.691001
O137	O	0.027314	-0.653710	1.191054
O138	O	0.527314	-0.153710	1.691054
O139	O	0.172770	-0.851295	1.191026
O140	O	0.672770	-0.351295	1.691026
Cu141	Cu	0.103829	-0.748713	1.179674
Cu142	Cu	0.603829	-0.248713	1.679674
Cu143	Cu	0.054778	-0.797802	1.326885
Cu144	Cu	0.554778	-0.297802	1.826885
O145	O	0.172434	-0.726024	1.191079
O146	O	0.672434	-0.226024	1.691079
N147	N	0.020275	-0.832331	1.430426
N148	N	0.520275	-0.332331	1.930426
C149	C	0.047687	-0.649466	0.602306
C150	C	0.547687	-0.149466	1.102306
C151	C	0.202716	-0.804385	0.602188
C152	C	0.702716	-0.304385	1.102188
C153	C	0.110357	-0.896993	0.787321
C154	C	0.610357	-0.396993	1.287321
C155	C	-0.044672	-0.742074	0.787439
C156	C	0.455328	-0.242074	1.287439
C157	C	0.637839	-0.865879	0.818154
C158	C	1.137839	-0.365879	1.318154
C159	C	0.637724	-0.865466	0.663023
C160	C	1.137724	-0.365466	1.163023
C161	C	0.637536	-0.680313	0.570880
C162	C	1.137536	-0.180313	1.070880
C163	C	0.637655	-0.680728	0.726010
C164	C	1.137655	-0.180728	1.226010
C165	C	0.202592	-0.214459	0.601942
C166	C	0.702592	0.285541	1.101942
C167	C	0.047481	-0.214636	0.602435
C168	C	0.547481	0.285364	1.102435
C169	C	-0.044635	-0.214620	0.787537
C170	C	0.455365	0.285380	1.287537
C171	C	0.110528	-0.214598	0.787096
C172	C	0.610528	0.285402	1.287096
C173	C	-0.013455	-0.649572	1.253296
C174	C	0.486545	-0.149572	1.753296
C175	C	-0.013030	-0.804697	1.253206
C176	C	0.486970	-0.304697	1.753206
C177	C	0.172063	-0.896942	1.253263
C178	C	0.672063	-0.396942	1.753263
C179	C	0.171648	-0.741808	1.253325
C180	C	0.671648	-0.241808	1.753325
H181	H	0.024299	-0.654107	1.070013
H182	H	0.524299	-0.154107	1.570013
C183	C	-0.138608	-0.756166	1.253088
C184	C	0.361392	-0.256166	1.753088
C185	C	-0.074413	-0.819957	1.253106
C186	C	0.425587	-0.319957	1.753106
H187	H	-0.176503	-0.765590	1.253032
H188	H	0.323497	-0.265590	1.753032
H189	H	-0.126945	-0.715346	1.209706
H190	H	0.373055	-0.215346	1.709706
H191	H	-0.155919	-0.744306	1.296524
H192	H	0.344081	-0.244306	1.796524
H193	H	-0.057099	-0.831814	1.209668
H194	H	0.442901	-0.331814	1.709668
H195	H	-0.086076	-0.860789	1.296493
H196	H	0.413924	-0.360789	1.796493
C197	C	0.207070	-1.019883	1.253221
C198	C	0.707070	-0.519883	1.753221
C199	C	0.233715	-0.973546	1.253251
C200	C	0.733715	-0.473546	1.753251
H201	H	0.245132	-1.067176	1.253217
H202	H	0.745132	-0.567176	1.753217
H203	H	0.193472	-0.997480	1.209808
H204	H	0.693472	-0.497480	1.709808
H205	H	0.164542	-1.026429	1.296625
H206	H	0.664542	-0.526429	1.796625
H207	H	0.276241	-0.966995	1.209844
H208	H	0.776241	-0.466995	1.709844
H209	H	0.247324	-0.995954	1.296669
H210	H	0.747324	-0.495954	1.796669
H211	H	-0.059121	-0.592825	1.253304
H212	H	0.440879	-0.092825	1.753304
C213	C	0.186056	-0.278596	0.865649
C214	C	0.686056	0.221404	1.365649
C215	C	0.125860	-0.214602	0.848503
C216	C	0.625860	0.285398	1.348503
H217	H	0.195517	-0.278602	0.903564
H218	H	0.695517	0.221398	1.403564
H219	H	0.229293	-0.278586	0.822089
H220	H	0.729293	0.221414	1.322089
H221	H	0.174176	-0.322002	0.882932
H222	H	0.674176	0.177998	1.382932
H223	H	0.137742	-0.171196	0.831214
H224	H	0.637742	0.328804	1.331214
H225	H	0.082614	-0.214605	0.892071
H226	H	0.582614	0.285395	1.392071
H227	H	0.637644	-0.635235	0.737357
H228	H	1.137644	-0.135235	1.237357
C229	C	0.198597	-1.019863	0.821965
C230	C	0.698597	-0.519863	1.321965
C231	C	0.125567	-0.973660	0.848822
C232	C	0.625567	-0.473660	1.348822
H233	H	0.207984	-1.067195	0.859932
H234	H	0.707984	-0.567195	1.359932
H235	H	0.233148	-0.997396	0.808333
H236	H	0.733148	-0.497396	1.308333
H237	H	0.204181	-1.026341	0.779421
H238	H	0.704181	-0.526341	1.279421
H239	H	0.119985	-0.967177	0.891363
H240	H	0.619985	-0.467177	1.391363
H241	H	0.091006	-0.996132	0.862464
H242	H	0.591006	-0.496132	1.362464
C243	C	0.292729	-0.879633	0.523365
C244	C	0.792729	-0.379633	1.023365
C245	C	0.279328	-0.819486	0.540613
C246	C	0.779328	-0.319486	1.040613
H247	H	0.340029	-0.888957	0.485355
H248	H	0.840029	-0.388957	0.985355
H249	H	0.254662	-0.867783	0.506178
H250	H	0.754662	-0.367783	1.006178
H251	H	0.292596	-0.922952	0.566864
H252	H	0.792596	-0.422952	1.066864
H253	H	0.279456	-0.776165	0.497115
H254	H	0.779456	-0.276165	0.997115
H255	H	0.317405	-0.831332	0.557797
H256	H	0.817405	-0.331332	1.057797
H257	H	0.217133	-0.730478	1.253340
H258	H	0.717133	-0.230478	1.753340
H259	H	-0.101428	-0.730886	0.833046
H260	H	0.398572	-0.230886	1.333046
C261	C	0.637947	-0.900891	0.941080
C262	C	1.137947	-0.400891	1.441080
C263	C	0.637930	-0.927545	0.894729
C264	C	1.137930	-0.427545	1.394729
H265	H	0.638008	-0.938963	0.988352
H266	H	1.138008	-0.438963	1.488352
H267	H	0.594519	-0.858379	0.947662
H268	H	1.094519	-0.358379	1.447662
H269	H	0.681334	-0.887265	0.918664
H270	H	1.181334	-0.387265	1.418664
H271	H	0.594540	-0.941166	0.917143
H272	H	1.094540	-0.441166	1.417143
H273	H	0.681362	-0.970070	0.888149
H274	H	1.181362	-0.470070	1.388149
C275	C	0.279034	-0.213883	0.476062
C276	C	0.779034	0.286117	0.976062
C277	C	0.279012	-0.214006	0.540132
C278	C	0.779012	0.285994	1.040132
H279	H	0.326217	-0.213613	0.437908
H280	H	0.826217	0.286387	0.937908
H281	H	0.240776	-0.170570	0.459102
H282	H	0.740776	0.329430	0.959102
H283	H	0.270135	-0.257391	0.487724
H284	H	0.770135	0.242609	0.987724
H285	H	0.287906	-0.170495	0.528472
H286	H	0.787906	0.329505	1.028472
H287	H	0.317281	-0.257324	0.557095
H288	H	0.817281	0.242676	1.057095
H289	H	0.071582	-0.606692	0.927876
H290	H	0.571582	-0.106692	1.427876
H291	H	0.637745	-0.910963	0.651673
H292	H	1.137745	-0.410963	1.151673
H293	H	0.637457	-0.634634	0.514159
H294	H	1.137457	-0.134634	1.014159
H295	H	0.256495	-0.770176	1.069914
H296	H	0.756495	-0.270176	1.569914
C297	C	0.256030	-0.517237	0.825561
C298	C	0.756030	-0.017237	1.325561
C299	C	0.301048	-0.527937	0.756157
C300	C	0.801048	-0.027937	1.256157
H301	H	0.229434	-0.465360	0.818024
H302	H	0.729434	0.034640	1.318024
H303	H	0.286620	-0.535615	0.854248
H304	H	0.786620	-0.035615	1.354248
H305	H	0.221496	-0.543473	0.851474
H306	H	0.721496	-0.043473	1.351474
H307	H	0.335586	-0.501706	0.730246
H308	H	0.835586	-0.001706	1.230246
H309	H	0.270456	-0.509550	0.727458
H310	H	0.770456	-0.009550	1.227458
C311	C	-0.040886	-0.214696	0.568028
C312	C	0.459114	0.285304	1.068028
C313	C	0.032156	-0.214676	0.541047
C314	C	0.532156	0.285324	1.041047
H315	H	-0.050341	-0.214734	0.530132
H316	H	0.449659	0.285266	1.030132
H317	H	-0.075412	-0.171278	0.581635
H318	H	0.424588	0.328722	1.081635
H319	H	-0.046437	-0.258100	0.610608
H320	H	0.453563	0.241900	1.110608
H321	H	0.037705	-0.171270	0.498470
H322	H	0.537705	0.328730	0.998470
H323	H	0.066692	-0.258100	0.527430
H324	H	0.566692	0.241900	1.027430
C325	C	-0.177346	-0.150613	0.823891
C326	C	0.322654	0.349387	1.323891
C327	C	-0.121210	-0.214607	0.849197
C328	C	0.378790	0.285393	1.349197
H329	H	-0.224619	-0.150601	0.861960
H330	H	0.275381	0.349399	1.361960
H331	H	-0.177294	-0.150631	0.780463
H332	H	0.322706	0.349369	1.280463
H333	H	-0.168199	-0.107207	0.812100
H334	H	0.331801	0.392793	1.312100
H335	H	-0.130354	-0.258013	0.860983
H336	H	0.369646	0.241987	1.360983
H337	H	-0.121264	-0.214595	0.892639
H338	H	0.378736	0.285405	1.392639
C339	C	0.358174	-0.806101	0.935520
C340	C	0.858174	-0.306101	1.435520
C341	C	0.325727	-0.728169	0.916599
C342	C	0.825727	-0.228169	1.416599
H343	H	0.410443	-0.818941	0.908921
H344	H	0.910443	-0.318941	1.408921
H345	H	0.336160	-0.824110	0.922681
H346	H	0.836160	-0.324110	1.422681
H347	H	0.349935	-0.828102	0.987789
H348	H	0.849935	-0.328102	1.487789
H349	H	0.333962	-0.706167	0.864331
H350	H	0.833962	-0.206167	1.364331
H351	H	0.347749	-0.710152	0.929433
H352	H	0.847749	-0.210152	1.429433
C353	C	-0.036977	-0.603651	0.864389
C354	C	0.463023	-0.103651	1.364389
C355	C	0.002186	-0.648687	0.819308
C356	C	0.502186	-0.148687	1.319308
H357	H	-0.089253	-0.590823	0.877260
H358	H	0.410747	-0.090823	1.377260
H359	H	-0.024161	-0.559343	0.837811
H360	H	0.475839	-0.059343	1.337811
H361	H	-0.024084	-0.630250	0.908675
H362	H	0.475916	-0.130250	1.408675
H363	H	-0.010702	-0.622085	0.775019
H364	H	0.489298	-0.122085	1.275019
H365	H	-0.010635	-0.693002	0.845886
H366	H	0.489365	-0.193002	1.345886
H367	H	0.256252	-0.770113	0.697763
H368	H	0.756252	-0.270113	1.197763
C369	C	0.364773	-0.773135	0.694625
C370	C	0.864773	-0.273135	1.194625
C371	C	0.325610	-0.728101	0.739707
C372	C	0.825610	-0.228101	1.239707
H373	H	0.417049	-0.785958	0.681748
H374	H	0.917049	-0.285958	1.181748
H375	H	0.351875	-0.746544	0.650349
H376	H	0.851875	-0.246544	1.150349
H377	H	0.351963	-0.817454	0.721211
H378	H	0.851963	-0.317454	1.221211
H379	H	0.338416	-0.683779	0.713118
H380	H	0.838416	-0.183779	1.213118
H381	H	0.338514	-0.754692	0.783990
H382	H	0.838514	-0.254692	1.283990
H383	H	0.312274	-0.779724	0.847024
H384	H	0.812274	-0.279724	1.347024
C385	C	0.414671	-0.887550	0.840962
C386	C	0.914671	-0.387550	1.340962
C387	C	0.465586	-0.848891	0.802756
C388	C	0.965586	-0.348891	1.302756
H389	H	0.441269	-0.939427	0.848494
H390	H	0.941269	-0.439427	1.348494
H391	H	0.384088	-0.869167	0.812266
H392	H	0.884088	-0.369167	1.312266
H393	H	0.384134	-0.880282	0.888044
H394	H	0.884134	-0.380282	1.388044
H395	H	0.496120	-0.856153	0.755672
H396	H	0.996120	-0.356153	1.255672
H397	H	0.496182	-0.867279	0.831452
H398	H	0.996182	-0.367279	1.331452
H399	H	0.071542	-0.606694	0.861281
H400	H	0.571542	-0.106694	1.361281
H401	H	0.245557	-0.540066	0.687141
H402	H	0.745557	-0.040066	1.187141
C403	C	0.414574	-0.510151	0.697055
C404	C	0.914574	-0.010151	1.197055
C405	C	0.465518	-0.582767	0.701285
C406	C	0.965518	-0.082767	1.201285
H407	H	0.441151	-0.476000	0.671777
H408	H	0.941151	0.024000	1.171777
H409	H	0.384040	-0.508153	0.746140
H410	H	0.884040	-0.008153	1.246140
H411	H	0.383991	-0.497048	0.670367
H412	H	0.883991	0.002952	1.170367
H413	H	0.496097	-0.595872	0.727978
H414	H	0.996097	-0.095872	1.227978
H415	H	0.496065	-0.584767	0.652191
H416	H	0.996065	-0.084767	1.152191
H417	H	0.036413	-0.592673	0.556752
H418	H	0.536413	-0.092673	1.056752
H419	H	0.082193	-0.397958	0.871963
H420	H	0.582193	0.102042	1.371963
C421	C	0.248542	-0.437662	0.578651
C422	C	0.748542	0.062338	1.078651
C423	C	0.203499	-0.386739	0.617847
C424	C	0.703499	0.113261	1.117847
H425	H	0.261356	-0.411064	0.526377
H426	H	0.761356	0.088936	1.026377
H427	H	0.221965	-0.468223	0.591499
H428	H	0.721965	0.031777	1.091499
H429	H	0.292860	-0.468227	0.591485
H430	H	0.792860	0.031773	1.091485
H431	H	0.159178	-0.356178	0.605017
H432	H	0.659178	0.143822	1.105017
H433	H	0.230075	-0.356165	0.604993
H434	H	0.730075	0.143835	1.104993
H435	H	0.129609	-0.540114	0.919306
H436	H	0.629609	-0.040114	1.419306
