data_functionalizedCrystal
_audit_creation_method	'MofGen! by Chris Wilmer'
_symmetry_space_group_name_H-M	'P1'
_symmetry_Int_Tables_number	1
_symmetry_cell_setting	triclinic
loop_
_symmetry_equiv_pos_as_xyz
  x,y,z
_cell_length_a	10.723024
_cell_length_b	10.723024
_cell_length_c	9.798715
_cell_angle_alpha	90.001978
_cell_angle_beta	90.003391
_cell_angle_gamma	84.467869
loop_
_atom_site_label
_atom_site_type_symbol
_atom_site_fract_x
_atom_site_fract_y
_atom_site_fract_z
O1	O	-1.657187	-0.175024	-0.113478
O2	O	-1.157187	0.324976	0.386522
O3	O	-1.294035	-0.191778	-0.113483
O4	O	-0.794035	0.308222	0.386517
O5	O	-1.483988	-0.001825	-0.113475
O6	O	-0.983988	0.498175	0.386525
O7	O	-1.467234	-0.364977	-0.113486
O8	O	-0.967234	0.135023	0.386514
O9	O	-1.483974	-0.001824	0.113507
O10	O	-0.983974	0.498176	0.613507
O11	O	-1.294021	-0.191777	0.113499
O12	O	-0.794021	0.308223	0.613499
O13	O	-1.657173	-0.175024	0.113504
O14	O	-1.157173	0.324976	0.613504
Zn15	Zn	-1.475595	-0.183401	0.149540
Zn16	Zn	-0.975595	0.316599	0.649540
Zn17	Zn	-1.475613	-0.183401	-0.149519
Zn18	Zn	-0.975613	0.316599	0.350481
O19	O	-1.467220	-0.364977	0.113496
O20	O	-0.967220	0.135023	0.613496
C21	C	-1.247528	-0.190558	0.000008
C22	C	-0.747528	0.309442	0.500008
C23	C	-1.108974	-0.186911	0.000006
C24	C	-0.608974	0.313089	0.500006
C25	C	-1.482762	0.044675	0.000014
C26	C	-0.982762	0.544675	0.500014
C27	C	-1.479114	0.183229	0.000009
C28	C	-0.979114	0.683229	0.500009
C29	C	-1.468447	-0.411477	0.000004
C30	C	-0.968447	0.088523	0.500004
C31	C	-1.472094	-0.550031	-0.000000
C32	C	-0.972094	-0.050031	0.500000
C33	C	-1.703680	-0.176243	0.000010
C34	C	-1.203680	0.323757	0.500010
C35	C	-1.842234	-0.179891	0.000003
C36	C	-1.342234	0.320109	0.500003
C37	C	-1.033991	-0.293198	0.000002
C38	C	-0.533991	0.206802	0.500002
C39	C	-0.890788	-0.289431	0.000001
C40	C	-0.390788	0.210569	0.500001
N41	N	-1.475591	-0.183399	0.353640
N42	N	-0.975591	0.316601	0.853640
C43	C	-1.585401	0.258212	0.000009
C44	C	-1.085401	0.758212	0.500009
C45	C	-1.581634	0.401415	0.000004
C46	C	-1.081634	0.901415	0.500004
N47	N	-1.475627	-0.183393	-0.353619
N48	N	-0.975627	0.316607	0.146381
C49	C	-1.555347	-0.103292	0.421420
C50	C	-1.055347	0.396708	0.921420
C51	C	-1.555367	-0.103288	0.578582
C52	C	-1.055367	0.396712	1.078582
H53	H	-1.075814	-0.386984	0.000007
H54	H	-0.575814	0.113016	0.500007
H55	H	-1.623611	-0.034707	0.363100
H56	H	-1.123611	0.465293	0.863100
H57	H	-0.826355	-0.380421	-0.000008
H58	H	-0.326355	0.119579	0.499992
H59	H	-1.672624	0.465848	0.000009
H60	H	-1.172624	0.965848	0.500009
Cl61	Cl	-1.730207	0.193653	0.000002
Cl62	Cl	-1.230207	0.693653	0.500002
Cl63	Cl	-1.331599	0.350504	0.000011
Cl64	Cl	-0.831599	0.850504	0.500011
Cl65	Cl	-1.044415	-0.042105	0.000020
Cl66	Cl	-0.544415	0.457895	0.500020
Cl67	Cl	-1.660802	0.002598	0.668569
Cl68	Cl	-1.160802	0.502598	1.168569
Cl69	Cl	-1.370202	-0.289295	0.556404
Cl70	Cl	-0.870202	0.210705	1.056404
Cl71	Cl	-1.334308	0.247788	-0.000006
Cl72	Cl	-0.834308	0.747788	0.499994
Cl73	Cl	-1.370179	-0.289280	0.443674
Cl74	Cl	-0.870179	0.210720	0.943674
Cl75	Cl	-0.941699	-0.039396	-0.000003
Cl76	Cl	-0.441699	0.460604	0.499997
