data_functionalizedCrystal
_audit_creation_method	'MofGen! by Chris Wilmer'
_symmetry_space_group_name_H-M	'P1'
_symmetry_Int_Tables_number	1
_symmetry_cell_setting	triclinic
loop_
_symmetry_equiv_pos_as_xyz
  x,y,z
_cell_length_a	16.109302
_cell_length_b	16.109301
_cell_length_c	14.586319
_cell_angle_alpha	90.005770
_cell_angle_beta	90.006080
_cell_angle_gamma	83.461631
loop_
_atom_site_label
_atom_site_type_symbol
_atom_site_fract_x
_atom_site_fract_y
_atom_site_fract_z
O1	O	1.103131	0.106870	0.076284
O2	O	0.861069	0.120168	0.076278
O3	O	0.988750	-0.007512	0.076272
O4	O	0.975451	0.234550	0.076290
O5	O	0.988740	-0.007515	-0.076209
O6	O	0.861059	0.120165	-0.076203
O7	O	1.103121	0.106867	-0.076196
Cu8	Cu	0.982089	0.113516	-0.090122
Cu9	Cu	0.982101	0.113519	0.090204
O10	O	0.975440	0.234547	-0.076191
C11	C	0.830089	0.119628	0.000036
C12	C	0.737794	0.118013	0.000033
C13	C	0.525447	0.114276	-0.083075
C14	C	0.438727	0.112749	-0.083072
C15	C	0.438749	0.112757	0.083171
C16	C	0.525468	0.114277	0.083167
C17	C	0.568815	0.115041	0.000041
C18	C	0.395375	0.111994	0.000048
C19	C	0.301350	0.110338	0.000052
C20	C	0.662847	0.116695	0.000037
C21	C	0.988206	-0.038488	0.000031
C22	C	0.986591	-0.130784	0.000030
C23	C	1.058599	-0.353056	0.000046
C24	C	1.057074	-0.439776	0.000054
C25	C	0.905586	-0.419902	0.000046
C26	C	0.907111	-0.333184	0.000045
C27	C	0.983620	-0.299763	0.000040
C28	C	0.980571	-0.473202	0.000049
C29	C	0.978918	-0.567228	0.000057
C30	C	0.985273	-0.205731	0.000034
C31	C	1.134101	0.107407	0.000047
C32	C	1.226396	0.109022	0.000056
C33	C	0.975984	0.265523	0.000052
C34	C	0.977599	0.357819	0.000060
N35	N	0.982087	0.113513	-0.216954
C36	C	1.038646	0.056994	-0.547951
C37	C	1.038643	0.056995	-0.451969
C38	C	0.925548	0.170040	-0.451975
C39	C	0.925555	0.170043	-0.547954
C40	C	0.982103	0.113515	-0.595940
C41	C	0.982094	0.113513	-0.403979
C42	C	0.982091	0.113514	-0.299912
C43	C	0.982107	0.113515	-0.700014
N44	N	0.982110	0.113516	0.217035
H45	H	0.560779	0.114898	0.150854
H46	H	1.084687	0.010971	-0.412899
O47	O	1.093462	0.002009	-0.594608
C48	C	1.048957	-0.049281	-0.650160
H49	H	0.983392	-0.050704	-0.621248
H50	H	1.082895	-0.115355	-0.651253
H51	H	1.044596	-0.023259	-0.722897
H52	H	0.843295	-0.447124	0.000048
H53	H	0.846050	-0.289790	0.000043
H54	H	0.560738	0.114898	-0.150762
H55	H	0.879508	0.216062	-0.412896
H56	H	1.120897	-0.325848	0.000044
H57	H	0.879511	0.216073	-0.587030
O58	O	1.129965	-0.491459	0.000179
C59	C	1.176411	-0.476315	0.079161
H60	H	1.155980	-0.410524	0.105485
H61	H	1.245753	-0.482438	0.061401
H62	H	1.165059	-0.523738	0.134462
H63	H	0.403446	0.112136	0.150849
O64	O	0.396724	0.112048	-0.163893
C65	C	0.453585	0.113025	-0.237257
H66	H	0.511953	0.140418	-0.212889
H67	H	0.423231	0.152924	-0.295388
H68	H	0.471550	0.046526	-0.262820
