data_functionalizedCrystal
_audit_creation_method	'MofGen! by Chris Wilmer'
_symmetry_space_group_name_H-M	'P1'
_symmetry_Int_Tables_number	1
_symmetry_cell_setting	triclinic
loop_
_symmetry_equiv_pos_as_xyz
  x,y,z
_cell_length_a	19.288859
_cell_length_b	14.519709
_cell_length_c	18.366186
_cell_angle_alpha	90.002495
_cell_angle_beta	90.007237
_cell_angle_gamma	83.406935
loop_
_atom_site_label
_atom_site_type_symbol
_atom_site_fract_x
_atom_site_fract_y
_atom_site_fract_z
O1	O	0.921767	0.115012	0.060566
O2	O	1.421767	0.615012	0.560566
O3	O	0.719562	0.130537	0.060564
O4	O	1.219562	0.630537	0.560564
O5	O	0.826026	-0.011498	0.060558
O6	O	1.326026	0.488502	0.560558
O7	O	0.815303	0.257047	0.060571
O8	O	1.315303	0.757047	0.560571
O9	O	0.826012	-0.011493	-0.060541
O10	O	1.326012	0.488507	0.439459
O11	O	0.719548	0.130542	-0.060535
O12	O	1.219548	0.630542	0.439465
O13	O	0.921753	0.115017	-0.060534
O14	O	1.421753	0.615017	0.439466
Zn15	Zn	0.820649	0.122780	-0.079762
Zn16	Zn	1.320649	0.622780	0.420238
Zn17	Zn	0.820667	0.122774	0.079792
Zn18	Zn	1.320667	0.622774	0.579792
O19	O	0.815290	0.257052	-0.060528
O20	O	1.315290	0.757052	0.439472
C21	C	0.693677	0.130041	0.000014
C22	C	1.193677	0.630041	0.500014
C23	C	0.616567	0.128544	0.000013
C24	C	1.116567	0.628544	0.500013
C25	C	0.052790	0.201759	0.000018
C26	C	0.552790	0.701759	0.500018
C27	C	0.125242	0.203173	0.000022
C28	C	0.625242	0.703173	0.500022
C29	C	0.169649	0.119834	0.000016
C30	C	0.669649	0.619834	0.500016
C31	C	0.141599	0.035073	0.000026
C32	C	0.641599	0.535073	0.500026
C33	C	0.069148	0.033661	0.000029
C34	C	0.569148	0.533661	0.500029
C35	C	0.290690	0.057681	-0.042416
C36	C	0.790690	0.557681	0.457584
C37	C	0.363139	0.059096	-0.042424
C38	C	0.863139	0.559096	0.457576
C39	C	0.393110	0.124185	0.000009
C40	C	0.893110	0.624185	0.500009
C41	C	0.350622	0.187874	0.042441
C42	C	0.850622	0.687874	0.542441
C43	C	0.278172	0.186462	0.042444
C44	C	0.778172	0.686462	0.542444
C45	C	0.248210	0.121355	0.000013
C46	C	0.748210	0.621355	0.500013
C47	C	0.499712	0.210474	0.000009
C48	C	0.999712	0.710474	0.500009
C49	C	0.572165	0.211885	0.000018
C50	C	1.072165	0.711885	0.500018
C51	C	0.588521	0.043782	0.000014
C52	C	1.088521	0.543782	0.500014
C53	C	0.516069	0.042374	0.000013
C54	C	1.016069	0.542374	0.500013
C55	C	0.471669	0.125722	0.000007
C56	C	0.971669	0.625722	0.500007
C57	C	0.825519	-0.045852	0.000008
C58	C	1.325519	0.454148	0.500008
C59	C	0.824022	-0.148224	0.000008
C60	C	1.324022	0.351776	0.500008
C61	C	0.818509	-0.523085	0.000027
C62	C	1.318509	-0.023085	0.500027
C63	C	0.820040	-0.418786	0.000021
C64	C	1.320040	0.081214	0.500021
C65	C	0.821265	-0.335658	0.000017
C66	C	1.321265	0.164342	0.500017
C67	C	0.822796	-0.231353	0.000013
C68	C	1.322796	0.268647	0.500013
C69	C	0.947639	0.115513	0.000018
C70	C	1.447639	0.615513	0.500018
C71	C	1.024748	0.117010	0.000023
C72	C	1.524748	0.617010	0.500023
C73	C	0.815796	0.291406	0.000023
C74	C	1.315796	0.791406	0.500023
C75	C	0.817294	0.393778	0.000029
C76	C	1.317294	0.893778	0.500029
N77	N	0.820641	0.122784	-0.188653
N78	N	1.320641	0.622784	0.311347
C79	C	0.862873	0.178544	-0.773199
C80	C	1.362873	0.678544	-0.273199
C81	C	0.862866	0.178553	-0.696971
C82	C	1.362866	0.678553	-0.196971
C83	C	0.820673	0.122764	-0.658864
C84	C	1.320673	0.622764	-0.158864
C85	C	0.778471	0.066979	-0.696991
C86	C	1.278471	0.566979	-0.196991
C87	C	0.778474	0.066978	-0.773217
C88	C	1.278474	0.566978	-0.273217
C89	C	0.818647	0.039616	-0.538102
C90	C	1.318647	0.539616	-0.038102
C91	C	0.818649	0.039615	-0.461877
C92	C	1.318649	0.539615	0.038123
C93	C	0.820659	0.122766	-0.423757
C94	C	1.320659	0.622766	0.076243
C95	C	0.822683	0.205920	-0.461871
C96	C	1.322683	0.705920	0.038129
C97	C	0.822686	0.205920	-0.538097
C98	C	1.322686	0.705920	-0.038097
C99	C	0.820665	0.122758	-0.576210
C100	C	1.320665	0.622758	-0.076210
C101	C	0.862847	0.178562	-0.302984
C102	C	1.362847	0.678562	0.197016
C103	C	0.862835	0.178573	-0.226755
C104	C	1.362835	0.678573	0.273245
C105	C	0.778444	0.066990	-0.226776
C106	C	1.278444	0.566990	0.273224
C107	C	0.778453	0.066988	-0.303004
C108	C	1.278453	0.566988	0.196996
C109	C	0.820658	0.122772	-0.341103
C110	C	1.320658	0.622772	0.158897
N111	N	0.820679	0.122763	0.188683
N112	N	1.320679	0.622763	0.688683
H113	H	0.493237	-0.026639	0.000013
H114	H	0.993237	0.473361	0.500013
H115	H	0.624677	-0.024075	0.000015
H116	H	1.124677	0.475925	0.500015
Br117	Br	0.721206	-0.008730	-0.824952
Br118	Br	1.221206	0.491270	-0.324952
H119	H	0.397727	0.007242	-0.076978
H120	H	0.897727	0.507242	0.423022
H121	H	0.148078	0.272189	0.000011
H122	H	0.648078	0.772189	0.500011
H123	H	0.744116	0.021556	-0.665959
H124	H	1.244116	0.521556	-0.165959
Br125	Br	0.391285	0.276228	0.100021
Br126	Br	0.891285	0.776228	0.600021
H127	H	0.046318	-0.035354	0.000034
H128	H	0.546318	0.464646	0.500034
Br129	Br	0.250029	-0.030715	-0.099959
Br130	Br	0.750029	0.469285	0.400041
Br131	Br	0.815918	-0.073242	-0.589829
Br132	Br	1.315918	0.426758	-0.089829
H133	H	0.463559	0.278341	0.000006
H134	H	0.963559	0.778341	0.500006
H135	H	0.744086	0.021571	-0.195750
H136	H	1.244086	0.521571	0.304250
Br137	Br	-0.007464	0.314874	0.000018
Br138	Br	0.492536	0.814874	0.500018
H139	H	0.177759	-0.032783	0.000023
H140	H	0.677759	0.467217	0.500023
Br141	Br	0.920146	0.254257	-0.824903
Br142	Br	1.420146	0.754257	-0.324903
H143	H	0.243581	0.238318	0.076994
H144	H	0.743581	0.738318	0.576994
Br145	Br	0.610224	0.326913	0.000021
Br146	Br	1.110224	0.826913	0.500021
Br147	Br	0.920143	0.254247	-0.645229
Br148	Br	1.420143	0.754247	-0.145229
H149	H	0.824331	0.273627	-0.569126
H150	H	1.324331	0.773627	-0.069126
Br151	Br	0.825418	0.318776	-0.410146
Br152	Br	1.325418	0.818776	0.089854
H153	H	0.744097	0.021560	-0.334039
H154	H	1.244097	0.521560	0.165961
Br155	Br	0.815899	-0.073234	-0.410159
Br156	Br	1.315899	0.426766	0.089841
H157	H	0.897210	0.223989	-0.334006
H158	H	1.397210	0.723989	0.165994
Br159	Br	0.920084	0.254309	-0.175022
Br160	Br	1.420084	0.754309	0.324978
