data_functionalizedCrystal
_audit_creation_method	'MofGen! by Chris Wilmer'
_symmetry_space_group_name_H-M	'P1'
_symmetry_Int_Tables_number	1
_symmetry_cell_setting	triclinic
loop_
_symmetry_equiv_pos_as_xyz
  x,y,z
_cell_length_a	6.394989
_cell_length_b	10.654550
_cell_length_c	9.130313
_cell_angle_alpha	90.000276
_cell_angle_beta	90.001550
_cell_angle_gamma	85.491321
loop_
_atom_site_label
_atom_site_type_symbol
_atom_site_fract_x
_atom_site_fract_y
_atom_site_fract_z
O1	O	-0.293442	-1.670947	-0.121679
O2	O	-0.321399	-1.305765	-0.121705
O3	O	-0.003431	-1.493540	-0.121693
O4	O	-0.611409	-1.483173	-0.121692
O5	O	-0.003422	-1.493526	0.121906
O6	O	-0.321389	-1.305752	0.121893
O7	O	-0.293432	-1.670934	0.121919
Cu8	Cu	-0.307410	-1.488342	0.144149
Cu9	Cu	-0.307421	-1.488357	-0.143935
O10	O	-0.611400	-1.483159	0.121907
C11	C	-0.319341	-1.258939	0.000091
C12	C	-0.313200	-1.119430	0.000080
C13	C	-0.295490	-1.717760	0.000120
C14	C	-0.301631	-1.857269	0.000121
N15	N	-0.307401	-1.488340	0.346772
C16	C	0.074425	-1.491483	0.000101
C17	C	0.310750	-1.485219	0.000099
N18	N	-0.307414	-1.488369	-0.346558
C19	C	-0.500414	-1.041927	0.000085
C20	C	-0.494631	-0.910845	0.000110
C21	C	-0.114403	-0.934782	0.000121
C22	C	-0.120188	-1.065861	0.000106
C23	C	-0.166665	-1.571516	0.423429
C24	C	-0.166665	-1.571528	0.576766
C25	C	-0.448157	-1.405184	0.576774
C26	C	-0.448145	-1.405167	0.423440
H27	H	-0.657577	-1.085539	0.000075
H28	H	-0.562750	-1.337429	0.361022
C29	C	-0.011835	-1.662994	0.339092
C30	C	0.148714	-1.611381	0.233696
C31	C	0.303554	-1.702859	0.149365
C32	C	0.297845	-1.845949	0.170430
C33	C	0.137289	-1.897570	0.275831
C34	C	-0.017551	-1.806092	0.360162
H35	H	0.152946	-1.505450	0.218098
H36	H	0.422408	-1.664645	0.071340
H37	H	0.412466	-1.913667	0.108003
H38	H	0.133057	-2.003501	0.291429
H39	H	-0.136405	-1.844306	0.438187
C40	C	0.085763	-1.151124	0.000098
C41	C	0.243400	-1.142986	0.126596
C42	C	0.449340	-1.228248	0.126595
C43	C	0.497643	-1.321649	0.000095
C44	C	0.340002	-1.329791	-0.126412
C45	C	0.134062	-1.244529	-0.126411
H46	H	0.207647	-1.073841	0.220247
H47	H	0.566036	-1.222220	0.220245
H48	H	0.650092	-1.384765	0.000094
H49	H	0.375755	-1.398936	-0.220063
H50	H	0.017366	-1.250557	-0.220061
H51	H	-0.647080	-0.847747	0.000117
H52	H	-0.052063	-1.639256	0.639176
H53	H	-0.562750	-1.337468	0.639213
H54	H	0.042741	-0.891149	0.000150
