data_functionalizedCrystal
_audit_creation_method	'MofGen! by Chris Wilmer'
_symmetry_space_group_name_H-M	'P1'
_symmetry_Int_Tables_number	1
_symmetry_cell_setting	triclinic
loop_
_symmetry_equiv_pos_as_xyz
  x,y,z
_cell_length_a	14.971491
_cell_length_b	12.996460
_cell_length_c	14.971486
_cell_angle_alpha	90.006353
_cell_angle_beta	83.615182
_cell_angle_gamma	90.007431
loop_
_atom_site_label
_atom_site_type_symbol
_atom_site_fract_x
_atom_site_fract_y
_atom_site_fract_z
O1	O	1.186943	0.085611	0.116586
O2	O	1.520276	0.418945	0.449920
O3	O	1.853610	0.752278	0.783253
O4	O	0.926544	0.085604	0.130540
O5	O	1.259877	0.418937	0.463874
O6	O	1.593210	0.752271	0.797207
O7	O	1.063723	0.085601	-0.006637
O8	O	1.397056	0.418934	0.326697
O9	O	1.730389	0.752267	0.660030
O10	O	1.049764	0.085615	0.253763
O11	O	1.383097	0.418948	0.587097
O12	O	1.716431	0.752281	0.920430
O13	O	1.063708	-0.085533	-0.006644
O14	O	1.397042	0.247800	0.326689
O15	O	1.730375	0.581133	0.660022
O16	O	0.926529	-0.085530	0.130533
O17	O	1.259863	0.247803	0.463866
O18	O	1.593196	0.581137	0.797199
O19	O	1.186929	-0.085522	0.116579
O20	O	1.520262	0.247811	0.449912
O21	O	1.853595	0.581144	0.783245
Cu22	Cu	1.056728	-0.101152	0.123555
Cu23	Cu	1.390061	0.232181	0.456888
Cu24	Cu	1.723394	0.565515	0.790222
Cu25	Cu	1.056745	0.101234	0.123564
Cu26	Cu	1.390078	0.434567	0.456897
Cu27	Cu	1.723411	0.767900	0.790231
O28	O	1.049750	-0.085519	0.253756
O29	O	1.383083	0.247814	0.587089
O30	O	1.716416	0.581148	0.920422
C31	C	0.893212	0.000036	0.129912
C32	C	1.226545	0.333369	0.463245
C33	C	1.559878	0.666703	0.796578
C34	C	0.793915	0.000033	0.128039
C35	C	1.127248	0.333366	0.461372
C36	C	1.460582	0.666700	0.794706
C37	C	0.366217	0.093341	0.119963
C38	C	0.699550	0.426675	0.453296
C39	C	1.032884	0.760008	0.786630
C40	C	0.459517	0.093338	0.121720
C41	C	0.792851	0.426671	0.455053
C42	C	1.126184	0.760004	0.788386
C43	C	0.506155	0.000049	0.122600
C44	C	0.839489	0.333382	0.455933
C45	C	1.172822	0.666716	0.789266
C46	C	0.459489	-0.093242	0.121714
C47	C	0.792823	0.240091	0.455047
C48	C	1.126156	0.573425	0.788381
C49	C	0.366192	-0.093237	0.119951
C50	C	0.699525	0.240096	0.453284
C51	C	1.032858	0.573430	0.786617
C52	C	0.653951	-0.093246	0.125391
C53	C	0.987284	0.240088	0.458724
C54	C	1.320618	0.573421	0.792058
C55	C	0.747255	-0.093251	0.127156
C56	C	1.080588	0.240083	0.460489
C57	C	1.413922	0.573416	0.793823
C58	C	0.747277	0.093329	0.127160
C59	C	1.080610	0.426662	0.460493
C60	C	1.413944	0.759996	0.793827
C61	C	0.653979	0.093334	0.125397
C62	C	0.987312	0.426667	0.458730
C63	C	1.320646	0.760001	0.792064
C64	C	0.607319	0.000043	0.124513
C65	C	0.940653	0.333376	0.457846
C66	C	1.273986	0.666709	0.791179
N67	N	1.056722	-0.243499	0.123548
N68	N	1.390056	0.089834	0.456881
N69	N	1.723389	0.423168	0.790215
C70	C	1.056743	-0.663313	0.123565
C71	C	1.390077	-0.329980	0.456898
C72	C	1.723410	0.003353	0.790232
C73	C	1.056735	-0.546508	0.123563
C74	C	1.390068	-0.213175	0.456897
C75	C	1.723402	0.120158	0.790230
C76	C	1.056733	-0.453410	0.123557
C77	C	1.390067	-0.120077	0.456891
C78	C	1.723400	0.213257	0.790224
C79	C	1.056724	-0.336597	0.123554
C80	C	1.390057	-0.003264	0.456888
C81	C	1.723391	0.330069	0.790221
C82	C	1.220261	0.000048	0.117207
C83	C	1.553594	0.333381	0.450541
C84	C	1.886927	0.666714	0.783874
C85	C	1.319557	0.000058	0.119080
C86	C	1.652891	0.333391	0.452413
C87	C	1.986224	0.666724	0.785747
C88	C	1.063091	0.000034	-0.039965
C89	C	1.396425	0.333367	0.293368
C90	C	1.729758	0.666701	0.626702
C91	C	1.061221	0.000035	-0.139262
C92	C	1.394554	0.333368	0.194071
C93	C	1.727887	0.666701	0.527404
N94	N	1.056757	0.243581	0.123564
N95	N	1.390090	0.576914	0.456897
N96	N	1.723424	0.910247	0.790230
C97	C	1.141810	0.000036	-0.196486
C98	C	1.475143	0.333370	0.136847
C99	C	1.808476	0.666703	0.470181
C100	C	1.140046	0.000047	-0.289786
C101	C	1.473380	0.333380	0.043548
C102	C	1.806713	0.666713	0.376881
C103	C	1.057693	0.000048	-0.325859
C104	C	1.391027	0.333381	0.007474
C105	C	1.724360	0.666715	0.340807
C106	C	0.977098	0.000050	-0.268628
C107	C	1.310432	0.333383	0.064705
C108	C	1.643765	0.666716	0.398038
C109	C	0.978862	0.000047	-0.175331
C110	C	1.312196	0.333380	0.158003
C111	C	1.645529	0.666713	0.491336
C112	C	0.973427	0.000053	-0.463091
C113	C	1.306761	0.333386	-0.129757
C114	C	1.640094	0.666720	0.203576
C115	C	0.971663	0.000054	-0.556395
C116	C	1.304996	0.333387	-0.223062
C117	C	1.638329	0.666721	0.110272
C118	C	1.134611	0.000053	-0.577546
C119	C	1.467945	0.333387	-0.244212
C120	C	1.801278	0.666720	0.089121
C121	C	1.136375	0.000050	-0.484248
C122	C	1.469709	0.333384	-0.150915
C123	C	1.803042	0.666717	0.182419
C124	C	1.055780	0.000050	-0.427023
C125	C	1.389113	0.333383	-0.093690
C126	C	1.722446	0.666717	0.239643
C127	C	1.050381	0.000050	0.287084
C128	C	1.383714	0.333383	0.620418
C129	C	1.717048	0.666717	0.953751
C130	C	1.052252	0.000056	0.386381
C131	C	1.385585	0.333389	0.719715
C132	C	1.718918	0.666722	1.053048
H133	H	0.497470	-0.169199	0.122425
H134	H	0.830804	0.164134	0.455758
H135	H	1.164137	0.497468	0.789092
Cl136	Cl	1.235932	0.000059	-0.649485
Cl137	Cl	1.569265	0.333393	-0.316151
Cl138	Cl	1.902598	0.666726	0.017182
Cl139	Cl	0.868132	0.000055	-0.601744
Cl140	Cl	1.201465	0.333388	-0.268410
Cl141	Cl	1.534798	0.666722	0.064923
Cl142	Cl	0.307534	-0.210513	0.118832
Cl143	Cl	0.640868	0.122820	0.452166
Cl144	Cl	0.974201	0.456154	0.785499
Cl145	Cl	1.241363	0.000046	-0.361721
Cl146	Cl	1.574697	0.333379	-0.028388
Cl147	Cl	1.908030	0.666712	0.304946
H148	H	0.497504	0.169298	0.122433
H149	H	0.830838	0.502632	0.455767
H150	H	1.164171	0.835965	0.789100
H151	H	0.907797	0.000055	-0.416500
H152	H	1.241131	0.333389	-0.083167
H153	H	1.574464	0.666722	0.250167
H154	H	1.208871	0.000029	-0.167123
H155	H	1.542204	0.333362	0.166211
H156	H	1.875538	0.666696	0.499544
Cl157	Cl	0.595296	-0.210528	0.124269
Cl158	Cl	0.928629	0.122805	0.457603
Cl159	Cl	1.261963	0.456139	0.790936
Cl160	Cl	0.805933	0.210610	0.128282
Cl161	Cl	1.139266	0.543943	0.461616
Cl162	Cl	1.472599	0.877276	0.794949
Cl163	Cl	1.239907	0.000054	-0.438899
Cl164	Cl	1.573240	0.333387	-0.105566
Cl165	Cl	1.906573	0.666720	0.227767
H166	H	0.785225	-0.169215	0.127877
H167	H	1.118558	0.164119	0.461211
H168	H	1.451891	0.497452	0.794544
Cl169	Cl	0.873568	0.000064	-0.313978
Cl170	Cl	1.206901	0.333397	0.019355
Cl171	Cl	1.540234	0.666731	0.352688
Cl172	Cl	0.877546	0.000048	-0.103391
Cl173	Cl	1.210879	0.333382	0.229942
Cl174	Cl	1.544213	0.666715	0.563275
H175	H	0.328250	0.169308	0.119253
H176	H	0.661584	0.502641	0.452586
H177	H	0.994917	0.835975	0.785919
H178	H	0.616008	0.169298	0.124686
H179	H	0.949342	0.502631	0.458020
H180	H	1.282675	0.835964	0.791353
