data_functionalizedCrystal
_audit_creation_method	'MofGen! by Chris Wilmer'
_symmetry_space_group_name_H-M	'P1'
_symmetry_Int_Tables_number	1
_symmetry_cell_setting	triclinic
loop_
_symmetry_equiv_pos_as_xyz
  x,y,z
_cell_length_a	18.215407
_cell_length_b	12.759393
_cell_length_c	18.215399
_cell_angle_alpha	89.978444
_cell_angle_beta	90.017368
_cell_angle_gamma	89.987730
loop_
_atom_site_label
_atom_site_type_symbol
_atom_site_fract_x
_atom_site_fract_y
_atom_site_fract_z
Zn1	Zn	1.125123	0.418349	0.416100
Zn2	Zn	1.625123	0.918349	0.916100
Zn3	Zn	1.125053	0.594046	0.293048
Zn4	Zn	1.625053	1.094046	0.793048
Zn5	Zn	1.002056	0.418374	0.293053
Zn6	Zn	1.502056	0.918374	0.793053
Zn7	Zn	1.002043	0.593979	0.416078
Zn8	Zn	1.502043	1.093979	0.916078
O9	O	1.063569	0.506187	0.354570
O10	O	1.563569	1.006187	0.854570
O11	O	1.228098	0.441673	0.399784
O12	O	1.728098	0.941673	0.899784
O13	O	1.108713	0.570782	0.190064
O14	O	1.608713	1.070782	0.690064
O15	O	1.018416	0.271350	0.309387
O16	O	1.518416	0.771350	0.809387
O17	O	1.228047	0.570758	0.309378
O18	O	1.728047	1.070758	0.809378
O19	O	1.108833	0.271331	0.399789
O20	O	1.608833	0.771331	0.899789
O21	O	1.018348	0.441716	0.190068
O22	O	1.518348	0.941716	0.690068
O23	O	0.899070	0.441651	0.309365
O24	O	1.399070	0.941651	0.809365
O25	O	1.018394	0.570642	0.519065
O26	O	1.518394	1.070642	1.019065
O27	O	0.899061	0.570667	0.399751
O28	O	1.399061	1.070667	0.899751
O29	O	1.108821	0.441608	0.519082
O30	O	1.608821	0.941608	1.019082
O31	O	1.108701	0.741059	0.309356
O32	O	1.608701	1.241059	0.809356
O33	O	1.018326	0.741009	0.399746
O34	O	1.518326	1.241009	0.899746
C35	C	0.872363	0.506155	0.354557
C36	C	1.372363	1.006155	0.854557
C37	C	0.790564	0.506166	0.354569
C38	C	1.290564	1.006166	0.854569
C39	C	0.602396	0.439090	0.401718
C40	C	1.102396	0.939090	0.901718
C41	C	0.525537	0.439099	0.401720
C42	C	1.025537	0.939099	0.901720
C43	C	0.525494	0.573313	0.307435
C44	C	1.025494	1.073313	0.807435
C45	C	0.602352	0.573298	0.307429
C46	C	1.102352	1.073298	0.807429
C47	C	0.640800	0.506188	0.354575
C48	C	1.140800	1.006188	0.854575
C49	C	0.487084	0.506212	0.354583
C50	C	0.987084	1.006212	0.854583
C51	C	0.403751	0.506223	0.354585
C52	C	0.903751	1.006223	0.854585
C53	C	0.724139	0.506176	0.354572
C54	C	1.224139	1.006176	0.854572
C55	C	1.063525	0.779155	0.354564
C56	C	1.563525	1.279155	0.854564
C57	C	1.063573	0.895931	0.354587
C58	C	1.563573	1.395931	0.854587
C59	C	1.157751	0.895930	0.260534
C60	C	1.657751	1.395930	0.760534
C61	C	1.204860	0.950790	0.213519
C62	C	1.704860	1.450790	0.713519
C63	C	1.204903	1.060511	0.213544
C64	C	1.704903	1.560511	0.713544
C65	C	1.157834	1.115375	0.260591
C66	C	1.657834	1.615375	0.760591
C67	C	1.110726	1.060515	0.307606
C68	C	1.610726	1.560515	0.807606
C69	C	1.110686	0.950791	0.307574
C70	C	1.610686	1.450791	0.807574
C71	C	1.016553	1.060517	0.401661
C72	C	1.516553	1.560517	0.901661
C73	C	1.016505	0.950795	0.401633
C74	C	1.516505	1.450795	0.901633
C75	C	0.969484	1.115381	0.448707
C76	C	1.469484	1.615381	0.948707
C77	C	0.922371	1.060521	0.495720
C78	C	1.422371	1.560521	0.995720
C79	C	0.922329	0.950793	0.495692
C80	C	1.422329	1.450793	0.995692
C81	C	0.969397	0.895935	0.448648
C82	C	1.469397	1.395935	0.948648
C83	C	1.255522	0.506220	0.354583
C84	C	1.755522	1.006220	0.854583
C85	C	1.337321	0.506234	0.354589
C86	C	1.837321	1.006234	0.854589
C87	C	1.063614	0.506115	0.546523
C88	C	1.563614	1.006115	1.046523
C89	C	1.063633	0.506084	0.628322
C90	C	1.563633	1.006084	1.128322
C91	C	1.063633	1.232154	0.354603
C92	C	1.563633	1.732154	0.854603
C93	C	1.063661	1.115377	0.354646
C94	C	1.563661	1.615377	0.854646
C95	C	1.063567	0.506183	0.163363
C96	C	1.563567	1.006183	0.663363
C97	C	1.063690	0.505918	0.081565
C98	C	1.563690	1.005918	0.581565
C99	C	1.110735	0.438833	0.816525
C100	C	1.610735	0.938833	1.316525
C101	C	1.110744	0.438802	0.893384
C102	C	1.610744	0.938802	1.393384
C103	C	1.016583	0.573172	0.893356
C104	C	1.516583	1.073172	1.393356
C105	C	1.016571	0.573197	0.816498
C106	C	1.516571	1.073197	1.316498
C107	C	1.063651	0.506029	0.778085
C108	C	1.563651	1.006029	1.278085
C109	C	1.063672	0.505973	0.931801
C110	C	1.563672	1.005973	1.431801
C111	C	1.063681	0.505941	1.015135
C112	C	1.563681	1.005941	1.515135
C113	C	1.063641	0.506060	0.694746
C114	C	1.563641	1.006060	1.194746
H115	H	1.157711	0.806589	0.260500
H116	H	1.657711	1.306589	0.760500
O117	O	0.871610	1.119704	0.546453
O118	O	1.371610	1.619704	1.046453
H119	H	0.884195	1.098578	0.604218
H120	H	1.384195	1.598578	1.104218
O121	O	0.871512	0.891622	0.546394
O122	O	1.371512	1.391622	1.046394
H123	H	0.838787	0.948209	0.579103
H124	H	1.338787	1.448209	1.079103
O125	O	0.643778	0.645673	0.256577
O126	O	1.143778	1.145673	0.756577
H127	H	0.678775	0.598567	0.219185
H128	H	1.178775	1.098567	0.719185
O129	O	0.484118	0.366729	0.452570
O130	O	0.984118	0.866729	0.952570
H131	H	0.449101	0.313214	0.419694
H132	H	0.949101	0.813214	0.919694
O133	O	0.969338	0.777593	0.448623
O134	O	1.469338	1.277593	0.948623
H135	H	1.024824	0.748577	0.463538
H136	H	1.524824	1.248577	0.963538
H137	H	0.494180	0.627952	0.269051
H138	H	0.994180	1.127952	0.769051
O139	O	1.161505	0.366383	0.775090
O140	O	1.661505	0.866383	1.275090
H141	H	1.194242	0.319646	0.814736
H142	H	1.694242	0.819646	1.314736
O143	O	1.161530	0.366333	0.934848
O144	O	1.661530	0.866333	1.434848
H145	H	1.194268	0.319641	0.895222
H146	H	1.694268	0.819641	1.395222
H147	H	0.978225	0.627915	0.785199
H148	H	1.478225	1.127915	1.285199
O149	O	1.255636	0.891607	0.162793
O150	O	1.755636	1.391607	0.662793
H151	H	1.222706	0.841688	0.125307
H152	H	1.722706	1.341688	0.625307
O153	O	0.643869	0.366698	0.452554
O154	O	1.143869	0.866698	0.952554
H155	H	0.604248	0.320033	0.485329
H156	H	1.104248	0.820033	0.985329
O157	O	1.255711	1.119704	0.162845
O158	O	1.755711	1.619704	0.662845
H159	H	1.243111	1.098739	0.105067
H160	H	1.743111	1.598739	0.605067
O161	O	1.157877	1.233718	0.260620
O162	O	1.657877	1.733718	0.760620
H163	H	1.198539	1.262648	0.220022
H164	H	1.698539	1.762648	0.720022
O165	O	0.969520	1.233724	0.448733
O166	O	1.469520	1.733724	0.948733
H167	H	1.010177	1.262657	0.408131
H168	H	1.510177	1.762657	0.908131
O169	O	0.965806	0.645618	0.934786
O170	O	1.465806	1.145618	1.434786
H171	H	0.973727	0.634320	0.994688
H172	H	1.473727	1.134320	1.494688
