data_functionalizedCrystal
_audit_creation_method	'MofGen! by Chris Wilmer'
_symmetry_space_group_name_H-M	'P1'
_symmetry_Int_Tables_number	1
_symmetry_cell_setting	triclinic
loop_
_symmetry_equiv_pos_as_xyz
  x,y,z
_cell_length_a	16.992695
_cell_length_b	16.109302
_cell_length_c	15.186229
_cell_angle_alpha	89.994701
_cell_angle_beta	89.995943
_cell_angle_gamma	87.065002
loop_
_atom_site_label
_atom_site_type_symbol
_atom_site_fract_x
_atom_site_fract_y
_atom_site_fract_z
O1	O	0.100786	1.109856	-0.073269
O2	O	0.350786	1.359856	0.176731
O3	O	0.600786	1.609856	0.426731
O4	O	0.850786	1.859856	0.676731
O5	O	0.113328	0.868631	-0.073263
O6	O	0.363328	1.118631	0.176737
O7	O	0.613328	1.368631	0.426737
O8	O	0.863328	1.618631	0.676737
O9	O	-0.007085	0.988276	-0.073259
O10	O	0.242915	1.238276	0.176741
O11	O	0.492915	1.488276	0.426741
O12	O	0.742915	1.738276	0.676741
O13	O	0.221200	0.990210	-0.073273
O14	O	0.471200	1.240210	0.176727
O15	O	0.721200	1.490210	0.426727
O16	O	0.971200	1.740210	0.676727
O17	O	-0.007087	0.988268	0.073198
O18	O	0.242913	1.238268	0.323198
O19	O	0.492913	1.488268	0.573198
O20	O	0.742913	1.738268	0.823198
O21	O	0.113327	0.868622	0.073195
O22	O	0.363327	1.118622	0.323195
O23	O	0.613327	1.368622	0.573195
O24	O	0.863327	1.618622	0.823195
O25	O	0.100785	1.109847	0.073188
O26	O	0.350785	1.359847	0.323188
O27	O	0.600785	1.609847	0.573188
O28	O	0.850785	1.859847	0.823188
Zn29	Zn	0.107055	0.989233	0.096445
Zn30	Zn	0.357055	1.239233	0.346445
Zn31	Zn	0.607055	1.489233	0.596445
Zn32	Zn	0.857055	1.739233	0.846445
Zn33	Zn	0.107058	0.989245	-0.096519
Zn34	Zn	0.357058	1.239245	0.153481
Zn35	Zn	0.607058	1.489245	0.403481
Zn36	Zn	0.857058	1.739245	0.653481
O37	O	0.221198	0.990202	0.073184
O38	O	0.471198	1.240202	0.323184
O39	O	0.721198	1.490202	0.573184
O40	O	0.971198	1.740202	0.823184
C41	C	0.112819	0.837618	-0.000033
C42	C	0.362819	1.087618	0.249967
C43	C	0.612819	1.337618	0.499967
C44	C	0.862819	1.587618	0.749967
C45	C	0.111296	0.745221	-0.000030
C46	C	0.361296	0.995221	0.249970
C47	C	0.611296	1.245221	0.499970
C48	C	0.861296	1.495221	0.749970
C49	C	0.107772	0.532640	0.079795
C50	C	0.357772	0.782640	0.329795
C51	C	0.607772	1.032640	0.579795
C52	C	0.857772	1.282640	0.829795
C53	C	0.106332	0.445824	0.079792
C54	C	0.356332	0.695824	0.329792
C55	C	0.606332	0.945824	0.579792
C56	C	0.856332	1.195824	0.829792
C57	C	0.106338	0.445844	-0.079884
C58	C	0.356338	0.695844	0.170116
C59	C	0.606338	0.945844	0.420116
C60	C	0.856338	1.195844	0.670116
C61	C	0.107773	0.532659	-0.079880
C62	C	0.357773	0.782659	0.170120
C63	C	0.607773	1.032659	0.420120
C64	C	0.857773	1.282659	0.670120
C65	C	0.108493	0.576054	-0.000038
C66	C	0.358493	0.826054	0.249962
C67	C	0.608493	1.076054	0.499962
C68	C	0.858493	1.326054	0.749962
C69	C	0.105619	0.402423	-0.000045
C70	C	0.355619	0.652423	0.249955
C71	C	0.605619	0.902423	0.499955
C72	C	0.855619	1.152423	0.749955
C73	C	0.104058	0.308293	-0.000048
C74	C	0.354058	0.558293	0.249952
C75	C	0.604058	0.808293	0.499952
C76	C	0.854058	1.058293	0.749952
C77	C	0.110053	0.670190	-0.000034
C78	C	0.360053	0.920190	0.249966
C79	C	0.610053	1.170190	0.499966
C80	C	0.860053	1.420190	0.749966
C81	C	-0.036298	0.985784	-0.000030
C82	C	0.213702	1.235784	0.249970
C83	C	0.463702	1.485784	0.499970
C84	C	0.713702	1.735784	0.749970
C85	C	-0.123340	0.978360	-0.000030
C86	C	0.126660	1.228360	0.249970
C87	C	0.376660	1.478360	0.499970
C88	C	0.626660	1.728360	0.749970
C89	C	-0.173599	1.049986	-0.000031
C90	C	0.076401	1.299986	0.249969
C91	C	0.326401	1.549986	0.499969
C92	C	0.576401	1.799986	0.749969
C93	C	-0.255384	1.043006	-0.000040
C94	C	-0.005384	1.293006	0.249960
C95	C	0.244616	1.543006	0.499960
C96	C	0.494616	1.793006	0.749960
C97	C	-0.286908	0.964400	-0.000040
C98	C	-0.036908	1.214400	0.249960
C99	C	0.213092	1.464400	0.499960
C100	C	0.463092	1.714400	0.749960
C101	C	-0.236643	0.892768	-0.000042
C102	C	0.013357	1.142768	0.249958
C103	C	0.263357	1.392768	0.499958
C104	C	0.513357	1.642768	0.749958
C105	C	-0.154860	0.899749	-0.000040
C106	C	0.095140	1.149749	0.249960
C107	C	0.345140	1.399749	0.499960
C108	C	0.595140	1.649749	0.749960
C109	C	-0.530499	0.935467	-0.000052
C110	C	-0.280499	1.185467	0.249948
C111	C	-0.030499	1.435467	0.499948
C112	C	0.219501	1.685467	0.749948
C113	C	-0.612288	0.928491	-0.000051
C114	C	-0.362288	1.178491	0.249949
C115	C	-0.112288	1.428491	0.499949
C116	C	0.137712	1.678491	0.749949
C117	C	-0.631023	1.078730	-0.000050
C118	C	-0.381023	1.328730	0.249950
C119	C	-0.131023	1.578730	0.499950
C120	C	0.118977	1.828730	0.749950
C121	C	-0.549237	1.085704	-0.000043
C122	C	-0.299237	1.335704	0.249957
C123	C	-0.049237	1.585704	0.499957
C124	C	0.200763	1.835704	0.749957
C125	C	-0.498980	1.014073	-0.000049
C126	C	-0.248980	1.264073	0.249951
C127	C	0.001020	1.514073	0.499951
C128	C	0.251020	1.764073	0.749951
N129	N	-0.370505	0.957263	-0.000046
N130	N	-0.120505	1.207263	0.249954
N131	N	0.129495	1.457263	0.499954
N132	N	0.379495	1.707263	0.749954
N133	N	-0.415384	1.021210	-0.000050
N134	N	-0.165384	1.271210	0.249950
N135	N	0.084616	1.521210	0.499950
N136	N	0.334616	1.771210	0.749950
C137	C	0.250411	0.992694	-0.000046
C138	C	0.500411	1.242694	0.249954
C139	C	0.750411	1.492694	0.499954
C140	C	1.000411	1.742694	0.749954
C141	C	0.337453	1.000117	-0.000052
C142	C	0.587453	1.250117	0.249948
C143	C	0.837453	1.500117	0.499948
C144	C	1.087453	1.750117	0.749948
C145	C	0.101294	1.140860	-0.000044
C146	C	0.351294	1.390860	0.249956
C147	C	0.601294	1.640860	0.499956
C148	C	0.851294	1.890860	0.749956
C149	C	0.102817	1.233257	-0.000052
C150	C	0.352817	1.483257	0.249948
C151	C	0.602817	1.733257	0.499948
C152	C	0.852817	1.983257	0.749948
N153	N	0.107053	0.989231	0.228137
N154	N	0.357053	1.239231	0.478137
N155	N	0.607053	1.489231	0.728137
N156	N	0.857053	1.739231	0.978137
N157	N	0.107053	0.989252	-0.228212
N158	N	0.357053	1.239252	0.021788
N159	N	0.607053	1.489252	0.271788
N160	N	0.857053	1.739252	0.521788
C161	C	0.053752	1.042231	0.453862
C162	C	0.303752	1.292231	0.703862
C163	C	0.553752	1.542231	0.953862
C164	C	0.803752	1.792231	1.203862
C165	C	0.053750	1.042233	0.546051
C166	C	0.303750	1.292233	0.796051
C167	C	0.553750	1.542233	1.046051
C168	C	0.803750	1.792233	1.296051
C169	C	0.160357	0.936247	0.546057
C170	C	0.410357	1.186247	0.796057
C171	C	0.660357	1.436247	1.046057
C172	C	0.910357	1.686247	1.296057
C173	C	0.160354	0.936241	0.453869
C174	C	0.410354	1.186241	0.703869
C175	C	0.660354	1.436241	0.953869
C176	C	0.910354	1.686241	1.203869
C177	C	0.107053	0.989238	0.407774
C178	C	0.357053	1.239238	0.657774
C179	C	0.607053	1.489238	0.907774
C180	C	0.857053	1.739238	1.157774
C181	C	0.107054	0.989246	0.592151
C182	C	0.357054	1.239246	0.842151
C183	C	0.607054	1.489246	1.092151
C184	C	0.857054	1.739246	1.342151
C185	C	0.107052	0.989249	0.692108
C186	C	0.357052	1.239249	0.942108
C187	C	0.607052	1.489249	1.192108
C188	C	0.857052	1.739249	1.442108
C189	C	0.107053	0.989234	0.307811
C190	C	0.357053	1.239234	0.557811
C191	C	0.607053	1.489234	0.807811
C192	C	0.857053	1.739234	1.057811
H193	H	-0.147938	1.113997	-0.000025
H194	H	0.102062	1.363997	0.249975
H195	H	0.352062	1.613997	0.499975
H196	H	0.602062	1.863997	0.749975
F197	F	-0.002978	1.098632	0.404807
F198	F	0.247022	1.348632	0.654807
F199	F	0.497022	1.598632	0.904807
F200	F	0.747022	1.848632	1.154807
H201	H	-0.296301	1.101332	-0.000039
H202	H	-0.046301	1.351332	0.249961
H203	H	0.203699	1.601332	0.499961
H204	H	0.453699	1.851332	0.749961
H205	H	-0.489588	0.877139	-0.000057
H206	H	-0.239588	1.127139	0.249943
H207	H	0.010412	1.377139	0.499943
H208	H	0.260412	1.627139	0.749943
F209	F	-0.515693	1.169368	-0.000065
F210	F	-0.265693	1.419368	0.249935
F211	F	-0.015693	1.669368	0.499935
F212	F	0.234307	1.919368	0.749935
H213	H	0.108358	0.568008	-0.144893
H214	H	0.358358	0.818008	0.105107
H215	H	0.608358	1.068008	0.355107
H216	H	0.858358	1.318008	0.605107
F217	F	-0.002981	1.098634	0.595098
F218	F	0.247019	1.348634	0.845098
F219	F	0.497019	1.598634	1.095098
F220	F	0.747019	1.848634	1.345098
F221	F	-0.684516	1.154960	-0.000045
F222	F	-0.434516	1.404960	0.249955
F223	F	-0.184516	1.654960	0.499955
F224	F	0.065484	1.904960	0.749955
F225	F	0.217084	0.879849	0.595121
F226	F	0.467084	1.129849	0.845121
F227	F	0.717084	1.379849	1.095121
F228	F	0.967084	1.629849	1.345121
H229	H	0.203759	0.893084	0.416342
H230	H	0.453759	1.143084	0.666342
H231	H	0.703759	1.393084	0.916342
H232	H	0.953759	1.643084	1.166342
F233	F	0.108536	0.578822	0.164770
F234	F	0.358536	0.828822	0.414770
F235	F	0.608536	1.078822	0.664770
F236	F	0.858536	1.328822	0.914770
F237	F	0.105566	0.399623	0.164761
F238	F	0.355566	0.649623	0.414761
F239	F	0.605566	0.899623	0.664761
F240	F	0.855566	1.149623	0.914761
F241	F	-0.270196	0.809108	-0.000053
F242	F	-0.020196	1.059108	0.249947
F243	F	0.229804	1.309108	0.499947
F244	F	0.479804	1.559108	0.749947
H245	H	-0.637952	0.864477	-0.000037
H246	H	-0.387952	1.114477	0.249963
H247	H	-0.137952	1.364477	0.499963
H248	H	0.112048	1.614477	0.749963
H249	H	0.105752	0.410501	-0.144888
H250	H	0.355752	0.660501	0.105112
H251	H	0.605752	0.910501	0.355112
H252	H	0.855752	1.160501	0.605112
H253	H	-0.113939	0.841423	-0.000039
H254	H	0.136061	1.091423	0.249961
H255	H	0.386061	1.341423	0.499961
H256	H	0.636061	1.591423	0.749961
