data_functionalizedCrystal
_audit_creation_method	'MofGen! by Chris Wilmer'
_symmetry_space_group_name_H-M	'P1'
_symmetry_Int_Tables_number	1
_symmetry_cell_setting	triclinic
loop_
_symmetry_equiv_pos_as_xyz
  x,y,z
_cell_length_a	13.185407
_cell_length_b	11.804365
_cell_length_c	14.971494
_cell_angle_alpha	78.152796
_cell_angle_beta	67.795521
_cell_angle_gamma	97.768809
loop_
_atom_site_label
_atom_site_type_symbol
_atom_site_fract_x
_atom_site_fract_y
_atom_site_fract_z
O1	O	1.468649	0.098999	-0.256293
O2	O	1.151275	0.099006	-0.165660
O3	O	1.318463	0.099000	-0.343229
O4	O	1.301461	0.099005	-0.078724
O5	O	1.274449	-0.099055	-0.296518
O6	O	1.107261	-0.099048	-0.118949
O7	O	1.424635	-0.099055	-0.209583
Cu8	Cu	1.261929	-0.117136	-0.160001
Cu9	Cu	1.313981	0.117087	-0.215242
O10	O	1.257447	-0.099049	-0.032013
C11	C	1.088652	-0.000020	-0.133116
C12	C	0.967629	-0.000017	-0.105748
C13	C	0.678021	-0.000028	-0.366939
C14	C	0.791727	-0.000038	-0.392653
C15	C	0.835708	-0.000033	-0.320930
C16	C	0.765972	-0.000017	-0.223487
C17	C	0.652253	-0.000017	-0.197768
C18	C	0.809940	-0.000021	-0.151758
C19	C	0.740204	-0.000006	-0.054315
C20	C	0.626496	-0.000004	-0.028601
C21	C	0.582515	-0.000010	-0.100325
C22	C	0.923659	-0.000022	-0.177477
C23	C	0.897891	-0.000011	-0.008305
C24	C	0.784185	-0.000000	0.017409
N25	N	1.225326	-0.281875	-0.121149
C26	C	1.438488	-0.655832	-0.347415
C27	C	1.466177	-0.531171	-0.376809
C28	C	1.405966	-0.468841	-0.312897
C29	C	1.318063	-0.531184	-0.219585
C30	C	1.290377	-0.655856	-0.190184
C31	C	1.257855	-0.468866	-0.155666
C32	C	1.169952	-0.531208	-0.062354
C33	C	1.142270	-0.655869	-0.032959
C34	C	1.202481	-0.718199	-0.096871
C35	C	1.285541	-0.344193	-0.185067
C36	C	1.137430	-0.344217	-0.027836
C37	C	1.109741	-0.468878	0.001558
C38	C	1.487259	-0.000026	-0.242127
C39	C	1.608283	-0.000021	-0.269496
C40	C	1.295694	-0.000026	-0.353015
C41	C	1.293412	-0.000020	-0.451761
N42	N	1.350592	0.281826	-0.254102
C43	C	1.316334	0.107941	-0.523610
C44	C	1.314182	0.107942	-0.616389
C45	C	1.289115	-0.000018	-0.637320
C46	C	1.266187	-0.107987	-0.565462
C47	C	1.268332	-0.107988	-0.472682
C48	C	1.261721	-0.107979	-0.758848
C49	C	1.259578	-0.107979	-0.851635
C50	C	1.307570	0.107951	-0.902555
C51	C	1.309715	0.107950	-0.809775
C52	C	1.286790	-0.000019	-0.737923
C53	C	1.280216	-0.000021	-0.022228
C54	C	1.282500	-0.000019	0.076517
H55	H	0.980428	-0.000033	-0.256816
Br56	Br	1.225563	-0.254499	-0.880044
H57	H	0.928294	-0.000041	-0.341872
H58	H	1.243029	-0.195900	-0.700339
Br59	Br	1.404835	-0.259600	-0.311699
Br60	Br	1.232149	-0.254508	-0.593861
Br61	Br	1.585470	-0.446564	-0.503438
Br62	Br	1.237216	-0.254512	-0.375169
Br63	Br	1.164893	-0.887389	-0.056980
Br64	Br	0.886359	-0.000068	-0.524889
Br65	Br	1.343750	0.254470	-0.781373
Br66	Br	0.618323	-0.000055	-0.464262
H67	H	0.569716	-0.000004	0.050747
H68	H	0.727390	0.000011	0.096748
Br69	Br	1.055718	-0.259636	0.058912
H70	H	0.489929	0.000004	-0.079395
Br71	Br	0.957566	-0.000019	0.089044
Br72	Br	1.520208	-0.740422	-0.434138
H73	H	1.070703	-0.706628	0.043026
H74	H	1.428514	-0.367336	-0.336834
Br75	Br	0.990445	-0.553498	0.128192
Br76	Br	1.350367	0.254467	-0.495218
Br77	Br	1.345290	0.254467	-0.713896
Br78	Br	1.338678	0.254481	-1.000064
