data_functionalizedCrystal
_audit_creation_method	'MofGen! by Chris Wilmer'
_symmetry_space_group_name_H-M	'P1'
_symmetry_Int_Tables_number	1
_symmetry_cell_setting	triclinic
loop_
_symmetry_equiv_pos_as_xyz
  x,y,z
_cell_length_a	29.839131
_cell_length_b	19.805407
_cell_length_c	19.805399
_cell_angle_alpha	89.980427
_cell_angle_beta	89.970435
_cell_angle_gamma	90.041420
loop_
_atom_site_label
_atom_site_type_symbol
_atom_site_fract_x
_atom_site_fract_y
_atom_site_fract_z
Zn1	Zn	-0.178864	1.034665	-0.382710
Zn2	Zn	0.321136	1.534665	0.117290
Zn3	Zn	-0.253991	1.034550	-0.269518
Zn4	Zn	0.246009	1.534550	0.230482
Zn5	Zn	-0.178876	0.921480	-0.269535
Zn6	Zn	0.321124	1.421480	0.230465
Zn7	Zn	-0.253967	0.921414	-0.382665
Zn8	Zn	0.246033	1.421414	0.117335
O9	O	-0.216425	0.978027	-0.326107
O10	O	0.283575	1.478027	0.173893
O11	O	-0.188834	1.129366	-0.367707
O12	O	0.311166	1.629366	0.132293
O13	O	-0.244042	1.019531	-0.174804
O14	O	0.255958	1.519531	0.325196
O15	O	-0.116007	0.936570	-0.284574
O16	O	0.383993	1.436570	0.215426
O17	O	-0.244030	1.129282	-0.284545
O18	O	0.255970	1.629282	0.215455
O19	O	-0.115998	1.019727	-0.367723
O20	O	0.384002	1.519727	0.132277
O21	O	-0.188856	0.936458	-0.174816
O22	O	0.311144	1.436458	0.325184
O23	O	-0.188832	0.826754	-0.284530
O24	O	0.311168	1.326754	0.215470
O25	O	-0.243990	0.936457	-0.477388
O26	O	0.256010	1.436457	0.022612
O27	O	-0.244002	0.826706	-0.367646
O28	O	0.255998	1.326706	0.132354
O29	O	-0.188811	1.019662	-0.477421
O30	O	0.311189	1.519662	0.022579
O31	O	-0.316855	1.019467	-0.284501
O32	O	0.183145	1.519467	0.215499
O33	O	-0.316838	0.936346	-0.367630
O34	O	0.183162	1.436346	0.132370
C35	C	-0.216416	0.802171	-0.326085
C36	C	0.283584	1.302171	0.173915
C37	C	-0.216423	0.726939	-0.326092
C38	C	0.283577	1.226939	0.173908
C39	C	-0.333147	0.977905	-0.326073
C40	C	0.166853	1.477905	0.173927
C41	C	-0.383082	0.977915	-0.326082
C42	C	0.116918	1.477915	0.173918
C43	C	-0.245193	0.691587	-0.369300
C44	C	0.254807	1.191587	0.130700
C45	C	-0.245194	0.620899	-0.369310
C46	C	0.254806	1.120899	0.130690
C47	C	-0.216427	0.585564	-0.326107
C48	C	0.283573	1.085564	0.173893
C49	C	-0.187654	0.620920	-0.282897
C50	C	0.312346	1.120920	0.217103
C51	C	-0.187651	0.691607	-0.282891
C52	C	0.312349	1.191607	0.217109
C53	C	-0.187664	0.335847	-0.282919
C54	C	0.312336	0.835847	0.217081
C55	C	-0.187669	0.265155	-0.282927
C56	C	0.312331	0.765155	0.217073
C57	C	-0.245207	0.265139	-0.369338
C58	C	0.254793	0.765139	0.130662
C59	C	-0.245204	0.335826	-0.369332
C60	C	0.254796	0.835826	0.130668
C61	C	-0.216429	0.371176	-0.326125
C62	C	0.283571	0.871176	0.173875
C63	C	-0.216428	0.447825	-0.326116
C64	C	0.283572	0.947825	0.173884
C65	C	-0.216430	0.508916	-0.326112
C66	C	0.283570	1.008916	0.173888
C67	C	-0.692722	1.021387	-0.282885
C68	C	-0.192722	1.521387	0.217115
C69	C	-0.880395	1.021471	-0.282912
C70	C	-0.380395	1.521471	0.217088
O71	O	-0.904656	1.058335	-0.246159
O72	O	-0.404656	1.558335	0.253841
N73	N	-0.903867	0.978168	-0.326158
N74	N	-0.403867	1.478168	0.173842
C75	C	-0.880418	0.934844	-0.369404
C76	C	-0.380418	1.434844	0.130596
O77	O	-0.904688	0.898019	-0.406194
O78	O	-0.404688	1.398019	0.093806
C79	C	-0.692746	0.934764	-0.369381
C80	C	-0.192746	1.434764	0.130619
C81	C	-0.669276	0.978065	-0.326127
C82	C	-0.169276	1.478065	0.173873
C83	C	-0.669252	1.064685	-0.239635
C84	C	-0.169252	1.564685	0.260365
C85	C	-0.622336	1.064661	-0.239626
C86	C	-0.122336	1.564661	0.260374
C87	C	-0.598891	1.021339	-0.282868
C88	C	-0.098891	1.521339	0.217132
C89	C	-0.622360	0.978041	-0.326118
C90	C	-0.122360	1.478041	0.173882
C91	C	-0.669297	0.891444	-0.412630
C92	C	-0.169297	1.391444	0.087370
C93	C	-0.622376	0.891429	-0.412621
C94	C	-0.122376	1.391429	0.087379
C95	C	-0.598907	0.934730	-0.369367
C96	C	-0.098907	1.434730	0.130633
C97	C	-0.551999	0.934695	-0.369351
C98	C	-0.051999	1.434695	0.130649
N99	N	-0.528527	0.977998	-0.326104
N100	N	-0.028527	1.477998	0.173896
C101	C	-0.551973	1.021320	-0.282863
C102	C	-0.051973	1.521320	0.217137
C103	C	-0.978948	0.934888	-0.369412
C104	C	-0.478948	1.434888	0.130588
C105	C	-1.025866	0.934907	-0.369418
C106	C	-0.525866	1.434907	0.130582
C107	C	-1.025840	1.021534	-0.282926
C108	C	-0.525840	1.521534	0.217074
C109	C	-0.978921	1.021512	-0.282918
C110	C	-0.478921	1.521512	0.217082
C111	C	-0.955476	0.978191	-0.326166
C112	C	-0.455476	1.478191	0.173834
C113	C	-0.453447	1.021266	-0.282847
C114	C	0.046553	1.521266	0.217153
C115	C	-0.406527	1.021237	-0.282840
C116	C	0.093473	1.521237	0.217160
C117	C	-0.406558	0.934611	-0.369334
C118	C	0.093442	1.434611	0.130666
C119	C	-0.453473	0.934638	-0.369339
C120	C	0.046527	1.434638	0.130661
C121	C	-0.476917	0.977971	-0.326093
C122	C	0.023083	1.477971	0.173907
O123	O	-0.527708	0.897855	-0.406090
O124	O	-0.027708	1.397855	0.093910
O125	O	-0.527694	1.058150	-0.246090
O126	O	-0.027694	1.558150	0.253910
C127	C	-0.739637	1.021411	-0.282894
C128	C	-0.239637	1.521411	0.217106
C129	C	-0.763107	0.978113	-0.326144
C130	C	-0.263107	1.478113	0.173856
C131	C	-0.739661	0.934791	-0.369386
C132	C	-0.239661	1.434791	0.130614
C133	C	-0.810025	0.978132	-0.326149
C134	C	-0.310025	1.478132	0.173851
C135	C	-0.833470	1.021454	-0.282908
C136	C	-0.333470	1.521454	0.217092
C137	C	-0.809998	1.064757	-0.239661
C138	C	-0.309998	1.564757	0.260339
C139	C	-0.763083	1.064733	-0.239653
C140	C	-0.263083	1.564733	0.260347
C141	C	-0.763133	0.891488	-0.412632
C142	C	-0.263133	1.391488	0.087368
C143	C	-0.810049	0.891515	-0.412637
C144	C	-0.310049	1.391515	0.087363
C145	C	-0.833494	0.934837	-0.369395
C146	C	-0.333494	1.434837	0.130605
C147	C	-0.099246	0.978168	-0.326156
C148	C	0.400754	1.478168	0.173844
C149	C	-0.049312	0.978228	-0.326176
C150	C	0.450688	1.478228	0.173824
C151	C	-0.216396	0.978065	-0.502650
C152	C	0.283604	1.478065	-0.002650
C153	C	-0.216384	0.978081	-0.577882
C154	C	0.283616	1.478081	-0.077882
C155	C	-0.216434	1.154570	-0.326129
C156	C	0.283566	1.654570	0.173871
C157	C	-0.216437	1.229802	-0.326139
C158	C	0.283563	1.729802	0.173861
C159	C	-0.187652	1.021407	-0.613244
C160	C	0.312348	1.521407	-0.113244
C161	C	-0.187638	1.021414	-0.683933
C162	C	0.312362	1.521414	-0.183933
C163	C	-0.216361	0.978098	-0.719258
C164	C	0.283639	1.478098	-0.219258
C165	C	-0.245095	0.934767	-0.683890
C166	C	0.254905	1.434767	-0.183890
C167	C	-0.245105	0.934757	-0.613203
C168	C	0.254895	1.434757	-0.113203
C169	C	-0.245053	0.934806	-0.968963
C170	C	0.254947	1.434806	-0.468963
C171	C	-0.245041	0.934820	-1.039656
C172	C	0.254959	1.434820	-0.539656
C173	C	-0.187586	1.021462	-1.039694
C174	C	0.312414	1.521462	-0.539694
C175	C	-0.187597	1.021453	-0.969006
C176	C	0.312403	1.521453	-0.469006
C177	C	-0.216329	0.978120	-0.933645
C178	C	0.283671	1.478120	-0.433645
C179	C	-0.216342	0.978112	-0.856997
C180	C	0.283658	1.478112	-0.356997
C181	C	-0.216350	0.978109	-0.795905
C182	C	0.283650	1.478109	-0.295905
C183	C	-0.216420	0.978028	-0.150251
C184	C	0.283580	1.478028	0.349749
C185	C	-0.216306	0.978143	-0.075019
C186	C	0.283694	1.478143	0.424981
H187	H	-0.268620	0.720352	-0.404479
H188	H	0.231380	1.220352	0.095521
H189	H	-0.603230	1.099922	-0.204407
H190	H	-0.103230	1.599922	0.295593
Cl191	Cl	-0.151535	1.075914	-0.728386
Cl192	Cl	0.348465	1.575914	-0.228386
Cl193	Cl	-0.698718	1.119155	-0.185267
Cl194	Cl	-0.198718	1.619155	0.314733
H195	H	-0.164209	1.056727	-0.940249
H196	H	0.335791	1.556727	-0.440249
Cl197	Cl	-0.281202	0.880310	-0.728298
Cl198	Cl	0.218798	1.380310	-0.228298
H199	H	-1.044971	0.899640	-0.404633
H200	H	-0.544971	1.399640	0.095367
Cl201	Cl	-0.281227	0.880286	-0.568747
Cl202	Cl	0.218773	1.380286	-0.068747
H203	H	-0.268634	0.236348	-0.404522
H204	H	0.231366	0.736348	0.095478
Cl205	Cl	-0.151489	0.380278	-0.228603
Cl206	Cl	0.348511	0.880278	0.271397
Cl207	Cl	-0.949481	0.880419	-0.423786
Cl208	Cl	-0.449481	1.380419	0.076214
H209	H	-0.959815	1.056771	-0.247697
H210	H	-0.459815	1.556771	0.252303
Cl211	Cl	-0.151501	0.220734	-0.228611
Cl212	Cl	0.348499	0.720734	0.271389
H213	H	-0.743977	1.099993	-0.204431
H214	H	-0.243977	1.599993	0.295569
H215	H	-0.688398	0.856180	-0.447849
H216	H	-0.188398	1.356180	0.052151
Cl217	Cl	-0.151486	0.576498	-0.228588
Cl218	Cl	0.348514	1.076498	0.271412
H219	H	-0.829096	1.100029	-0.204451
H220	H	-0.329096	1.600029	0.295549
H221	H	-0.472583	0.899381	-0.404562
H222	H	0.027417	1.399381	0.095438
H223	H	-0.387461	0.899337	-0.404539
H224	H	0.112539	1.399337	0.095461
H225	H	-0.472529	1.056554	-0.247634
H226	H	0.027471	1.556554	0.252366
H227	H	-0.164264	1.056683	-0.584488
H228	H	0.335736	1.556683	-0.084488
H229	H	-0.603290	0.856153	-0.447842
H230	H	-0.103290	1.356153	0.052158
Cl231	Cl	-0.839548	0.837073	-0.467019
Cl232	Cl	-0.339548	1.337073	0.032981
Cl233	Cl	-0.281363	0.576460	-0.423632
Cl234	Cl	0.218637	1.076460	0.076368
Cl235	Cl	-0.151463	1.075937	-1.084152
Cl236	Cl	0.348537	1.575937	-0.584152
Cl237	Cl	-0.281152	0.880361	-1.084063
Cl238	Cl	0.218848	1.380361	-0.584063
Cl239	Cl	-0.281371	0.380243	-0.423644
Cl240	Cl	0.218629	0.880243	0.076356
H241	H	-0.164221	0.720390	-0.247710
H242	H	0.335779	1.220390	0.252290
Cl243	Cl	-0.377026	1.075676	-0.228460
Cl244	Cl	0.122974	1.575676	0.271540
Cl245	Cl	-0.281174	0.880330	-0.924518
Cl246	Cl	0.218826	1.380330	-0.424518
H247	H	-1.044937	1.056809	-0.247717
H248	H	-0.544937	1.556809	0.252283
H249	H	-0.744047	0.856211	-0.447845
H250	H	-0.244047	1.356211	0.052155
