data_functionalizedCrystal
_audit_creation_method	'MofGen! by Chris Wilmer'
_symmetry_space_group_name_H-M	'P1'
_symmetry_Int_Tables_number	1
_symmetry_cell_setting	triclinic
loop_
_symmetry_equiv_pos_as_xyz
  x,y,z
_cell_length_a	19.121241
_cell_length_b	19.121449
_cell_length_c	19.120904
_cell_angle_alpha	89.923197
_cell_angle_beta	90.124528
_cell_angle_gamma	89.915403
loop_
_atom_site_label
_atom_site_type_symbol
_atom_site_fract_x
_atom_site_fract_y
_atom_site_fract_z
Zn1	Zn	1.066081	-0.252666	0.431900
Zn2	Zn	1.075963	-0.364500	0.310107
Zn3	Zn	0.953829	-0.252250	0.309687
Zn4	Zn	0.954212	-0.374414	0.421889
O5	O	1.012521	-0.310957	0.368396
O6	O	1.165323	-0.263525	0.420109
O7	O	1.063737	-0.345287	0.212123
O8	O	0.964423	-0.154377	0.329912
O9	O	1.172584	-0.345689	0.330628
O10	O	1.046894	-0.154682	0.419702
O11	O	0.974006	-0.262818	0.211814
O12	O	0.855949	-0.272431	0.320205
O13	O	0.965076	-0.362586	0.521146
O14	O	0.856230	-0.362184	0.402640
O15	O	1.047266	-0.273139	0.528500
O16	O	1.064109	-0.463744	0.320921
O17	O	0.974659	-0.471027	0.403048
C18	C	0.830697	-0.318339	0.360291
C19	C	0.752912	-0.321514	0.356840
C20	C	0.712589	-0.280301	0.401872
C21	C	0.639502	-0.283281	0.398623
C22	C	0.606738	-0.327478	0.350346
C23	C	0.647067	-0.368692	0.305309
C24	C	0.720153	-0.365708	0.308555
C25	C	0.386255	-0.338621	0.338208
C26	C	0.313164	-0.341603	0.334967
C27	C	0.305604	-0.256191	0.428281
C28	C	0.378691	-0.253214	0.431526
C29	C	0.419013	-0.294425	0.386487
C30	C	0.532032	-0.330526	0.347025
C31	C	0.493719	-0.291373	0.389804
C32	C	1.020516	-0.492777	0.360960
C33	C	1.024000	-0.570559	0.357805
C34	C	0.979035	-0.610918	0.399043
C35	C	0.982311	-0.684002	0.396076
C36	C	1.030556	-0.716725	0.351874
C37	C	1.075522	-0.676361	0.310632
C38	C	1.072242	-0.603278	0.313595
C39	C	1.042788	-0.937197	0.340785
C40	C	1.046066	-1.010285	0.337826
C41	C	0.952853	-1.017921	0.423271
C42	C	0.949581	-0.944837	0.426233
C43	C	0.994544	-0.904479	0.384988
C44	C	1.033907	-0.791429	0.348842
C45	C	0.991189	-0.829776	0.388017
C46	C	1.195056	-0.303548	0.376532
C47	C	1.272841	-0.300390	0.379999
C48	C	1.005111	-0.319015	0.550925
C49	C	1.001954	-0.322448	0.628708
C50	C	1.004514	-0.128427	0.375877
C51	C	1.001101	-0.050644	0.379065
C52	C	1.019940	-0.302879	0.186581
C53	C	1.023225	-0.299243	0.108812
C54	C	1.043260	-0.277493	0.669080
C55	C	1.040284	-0.280717	0.742165
C56	C	0.996006	-0.328900	0.774876
C57	C	0.954695	-0.373857	0.734498
C58	C	0.957667	-0.370630	0.661415
C59	C	0.984887	-0.340973	0.995350
C60	C	0.981919	-0.344198	1.068439
C61	C	1.067507	-0.251057	1.076102
C62	C	1.070479	-0.247836	1.003016
C63	C	1.029166	-0.292791	0.962644
C64	C	0.992965	-0.332198	0.849581
C65	C	1.032203	-0.289489	0.887941
H66	H	0.505348	-0.366511	0.307717
Br67	Br	1.099386	-0.835845	0.288862
H68	H	0.945860	-0.383437	1.095070
Br69	Br	0.538184	-0.231390	0.455318
H70	H	0.939752	-0.584280	0.435041
Br71	Br	1.140996	-0.720770	0.250641
Br72	Br	1.111546	-1.054694	0.277836
H73	H	1.073922	-0.244111	0.775034
Br74	Br	0.921292	-0.738774	0.452053
Br75	Br	0.884108	-0.900432	0.486229
H76	H	0.405362	-0.217227	0.470841
H77	H	1.079400	-0.904342	0.307203
H78	H	1.106537	-0.208602	0.976388
Br79	Br	1.123571	-0.190049	1.130895
Br80	Br	0.891834	-1.072697	0.479242
H81	H	0.739259	-0.244313	0.441187
H82	H	1.108856	-0.570418	0.280014
H83	H	0.951257	-0.377588	0.962488
Br84	Br	0.894598	-0.439246	0.778891
Br85	Br	1.103360	-0.212103	0.624694
Br86	Br	0.774878	-0.421640	0.247436
Br87	Br	0.901603	-0.431639	0.606622
Br88	Br	0.932876	-0.397589	0.893980
Br89	Br	0.250878	-0.200264	0.489402
Br90	Br	0.268700	-0.401609	0.269462
Br91	Br	0.440968	-0.394532	0.277066
H92	H	0.606674	-0.249723	0.435295
H93	H	0.951906	-0.803131	0.424003
H94	H	0.620385	-0.404674	0.265997
Br95	Br	1.092284	-0.224090	0.843547
