data_functionalizedCrystal
_audit_creation_method	'MofGen! by Chris Wilmer'
_symmetry_space_group_name_H-M	'P1'
_symmetry_Int_Tables_number	1
_symmetry_cell_setting	triclinic
loop_
_symmetry_equiv_pos_as_xyz
  x,y,z
_cell_length_a	6.817900
_cell_length_b	17.284796
_cell_length_c	17.078481
_cell_angle_alpha	92.841738
_cell_angle_beta	99.306161
_cell_angle_gamma	103.042616
loop_
_atom_site_label
_atom_site_type_symbol
_atom_site_fract_x
_atom_site_fract_y
_atom_site_fract_z
V1	V	-3.974058	-0.108879	-0.240615
O2	O	-3.968323	0.005421	-0.242989
O3	O	-3.920408	-0.216072	-0.232280
O4	O	-3.905194	-0.107122	-0.348607
O5	O	-3.983642	-0.104283	-0.125857
V6	V	-4.461018	-0.095218	-0.227701
O7	O	-4.227777	-0.138848	-0.268941
O8	O	-4.657497	-0.065249	-0.199375
O9	O	-4.291463	0.011975	-0.236035
O10	O	-4.584151	-0.209518	-0.225327
O11	O	-4.568832	-0.099814	-0.342458
O12	O	-4.306676	-0.096975	-0.119709
C13	C	-3.764793	-0.242206	-0.226759
C14	C	-3.802078	-0.329836	-0.220664
C15	C	-4.009028	-0.821887	-0.178565
C16	C	-3.974010	-0.739551	-0.184304
C17	C	-3.982351	-0.709596	-0.259134
C18	C	-4.025693	-0.761981	-0.328228
C19	C	-4.060696	-0.844315	-0.322488
C20	C	-3.880423	-0.464556	-0.284018
C21	C	-3.845422	-0.382215	-0.289754
C22	C	-3.793737	-0.359790	-0.145829
C23	C	-3.828755	-0.442127	-0.140095
C24	C	-3.872083	-0.494505	-0.209189
N25	N	-3.946564	-0.625436	-0.265003
N26	N	-3.907855	-0.578663	-0.203320
C27	C	-3.745386	-0.103228	-0.375143
C28	C	-3.770331	-0.102500	-0.463383
C29	C	-3.963189	-0.106093	-0.508636
C30	C	-3.986615	-0.105408	-0.591547
C31	C	-3.817183	-0.101136	-0.629203
C32	C	-3.624308	-0.097541	-0.583944
C33	C	-3.600882	-0.098220	-0.501034
C34	C	-3.867819	-0.098679	-0.876759
C35	C	-3.891263	-0.098003	-0.959675
C36	C	-4.253568	-0.105869	-0.967272
C37	C	-4.230127	-0.106552	-0.884361
C38	C	-4.037253	-0.102952	-0.839108
N39	N	-3.841125	-0.100439	-0.713951
N40	N	-4.013311	-0.103644	-0.754361
C41	C	-4.110419	0.038104	-0.241555
C42	C	-4.052372	0.125734	-0.247654
C43	C	-4.129827	-0.100872	-0.093168
C44	C	-4.084121	-0.101596	-0.004928
H45	H	-3.852259	-0.357831	-0.350693
Cl46	Cl	-4.176208	-0.111469	-0.461306
Cl47	Cl	-3.934714	-0.530388	-0.370877
H48	H	-3.710787	-0.095776	-0.839927
H49	H	-4.368100	-0.110030	-0.853707
H50	H	-4.095983	-0.886962	-0.378748
H51	H	-4.032470	-0.737585	-0.389156
H52	H	-4.143656	-0.108330	-0.628388
H53	H	-3.758452	-0.317136	-0.089576
H54	H	-4.410599	-0.108799	-1.004125
Cl55	Cl	-3.919518	-0.673706	-0.097444
Cl56	Cl	-3.818292	-0.479779	-0.046020
Cl57	Cl	-3.678244	-0.092632	-1.007013
Cl58	Cl	-3.411307	-0.092171	-0.631284
H59	H	-3.443829	-0.095274	-0.464188
H60	H	-4.002241	-0.846269	-0.117630
