data_functionalizedCrystal
_audit_creation_method	'MofGen! by Chris Wilmer'
_symmetry_space_group_name_H-M	'P1'
_symmetry_Int_Tables_number	1
_symmetry_cell_setting	triclinic
loop_
_symmetry_equiv_pos_as_xyz
  x,y,z
_cell_length_a	15.944545
_cell_length_b	11.792241
_cell_length_c	10.868271
_cell_angle_alpha	90.005281
_cell_angle_beta	90.001533
_cell_angle_gamma	83.844794
loop_
_atom_site_label
_atom_site_type_symbol
_atom_site_fract_x
_atom_site_fract_y
_atom_site_fract_z
O1	O	-1.115188	-0.146346	-0.102243
O2	O	-0.870719	-0.164401	-0.102263
O3	O	-0.998886	0.009846	-0.102244
O4	O	-0.987021	-0.320593	-0.102262
O5	O	-0.998875	0.009853	0.102401
O6	O	-0.870708	-0.164394	0.102382
O7	O	-1.115177	-0.146340	0.102402
Zn8	Zn	-0.992941	-0.155366	0.134883
Zn9	Zn	-0.992955	-0.155375	-0.134745
O10	O	-0.987010	-0.320587	0.102382
C11	C	-0.998135	0.052134	0.000078
C12	C	-0.995904	0.178129	0.000077
C13	C	-0.839416	-0.163649	0.000057
C14	C	-0.746159	-0.161406	0.000049
C15	C	-1.146480	-0.147091	0.000079
C16	C	-1.239736	-0.149335	0.000078
C17	C	-0.475009	-0.046697	0.000069
C18	C	-0.525835	-0.101997	0.100969
C19	C	-0.410480	-0.153406	0.000071
C20	C	-0.525826	-0.102032	-0.100794
C21	C	-0.575411	-0.157331	0.000058
C22	C	-0.460077	-0.208678	0.101055
C23	C	-0.460065	-0.208698	-0.100800
C24	C	-0.510858	-0.264076	0.000126
C25	C	-0.315467	-0.151142	0.000079
C26	C	-0.670420	-0.159603	0.000059
C27	C	-0.987761	-0.362875	0.000058
C28	C	-0.989991	-0.488870	0.000051
N29	N	-0.992937	-0.155359	0.318897
C30	C	-0.991802	0.408808	0.000056
C31	C	-0.994081	0.280441	0.000067
N32	N	-0.992965	-0.155373	-0.318759
C33	C	-0.992950	-0.155372	0.569903
C34	C	-0.992940	-0.155368	0.430226
H35	H	-0.554558	-0.056928	0.186277
H36	H	-0.431466	-0.253707	0.186450
H37	H	-0.458941	0.045202	0.000172
H38	H	-0.554545	-0.056951	-0.186093
H39	H	-0.526765	-0.356046	0.000179
C40	C	-0.333606	-0.267638	-0.214111
C41	C	-0.421259	-0.269491	-0.215960
H42	H	-0.309650	-0.305170	-0.285210
H43	H	-0.320723	-0.190846	-0.213396
H44	H	-0.311000	-0.305659	-0.142481
H45	H	-0.443866	-0.231462	-0.287586
H46	H	-0.434148	-0.346297	-0.216688
