data_functionalizedCrystal
_audit_creation_method	'MofGen! by Chris Wilmer'
_symmetry_space_group_name_H-M	'P1'
_symmetry_Int_Tables_number	1
_symmetry_cell_setting	triclinic
loop_
_symmetry_equiv_pos_as_xyz
  x,y,z
_cell_length_a	12.645323
_cell_length_b	10.686220
_cell_length_c	10.686285
_cell_angle_alpha	90.345431
_cell_angle_beta	94.392902
_cell_angle_gamma	85.651535
loop_
_atom_site_label
_atom_site_type_symbol
_atom_site_fract_x
_atom_site_fract_y
_atom_site_fract_z
Zn1	Zn	-0.450856	-1.956182	0.352075
Zn2	Zn	-0.259068	-1.972173	0.561870
Zn3	Zn	-0.286066	-1.746407	0.368235
Zn4	Zn	-0.448751	-1.762507	0.577897
O5	O	-0.361185	-1.859317	0.465019
O6	O	-0.414997	-2.133841	0.366435
O7	O	-0.114301	-1.942179	0.536240
O8	O	-0.320105	-1.760804	0.190548
O9	O	-0.274092	-2.145590	0.520570
O10	O	-0.441175	-1.914924	0.178675
O11	O	-0.134136	-1.776310	0.393977
O12	O	-0.318064	-1.573005	0.409517
O13	O	-0.597378	-1.788244	0.547885
O14	O	-0.437588	-1.584834	0.563555
O15	O	-0.598924	-1.930536	0.381975
O16	O	-0.272051	-1.957791	0.739540
O17	O	-0.411409	-1.803750	0.751314
C18	C	-0.380527	-1.533405	0.490030
C19	C	-0.388825	-1.393980	0.500759
C20	C	-0.637692	-1.859402	0.464915
C21	C	-0.755522	-1.859438	0.464871
C22	C	-0.338593	-1.884287	0.790941
C23	C	-0.328957	-1.895084	0.930363
C24	C	-0.922163	-1.769588	0.568811
C25	C	-0.799555	-1.769880	0.569269
C26	C	-0.789700	-1.994369	0.490594
C27	C	-0.912288	-1.993882	0.491240
C28	C	-0.933928	-1.815566	0.334572
C29	C	-0.811442	-1.812678	0.335595
C30	C	-0.085756	-1.859298	0.465027
C31	C	0.032064	-1.859478	0.464699
C32	C	-0.341768	-2.186503	0.439912
C33	C	-0.333493	-2.325930	0.429213
C34	C	-0.383886	-1.834284	0.137822
C35	C	-0.393560	-1.823617	-0.001610
H36	H	-0.776834	-1.670143	0.554348
Cl37	Cl	-0.471761	-1.319250	0.608026
Cl38	Cl	-0.979057	-1.615171	0.546139
Cl39	Cl	-0.490342	-1.716395	0.923635
Cl40	Cl	-0.232160	-2.002297	1.005123
H41	H	-0.762101	-1.799696	0.665948
Cl42	Cl	-0.957345	-1.815138	0.717142
H43	H	-0.932479	-2.029913	0.586063
Cl44	Cl	-0.958447	-2.101563	0.378334
H45	H	-0.279772	-1.374333	0.359751
H46	H	-0.750632	-2.030811	0.584363
Cl47	Cl	-0.745181	-2.101236	0.376534
Cl48	Cl	-0.993824	-1.665468	0.295316
H49	H	-0.782167	-1.872554	0.254742
Cl50	Cl	-0.778350	-1.659286	0.305361
H51	H	-0.963717	-1.880913	0.257129
