data_functionalizedCrystal
_audit_creation_method	'MofGen! by Chris Wilmer'
_symmetry_space_group_name_H-M	'P1'
_symmetry_Int_Tables_number	1
_symmetry_cell_setting	triclinic
loop_
_symmetry_equiv_pos_as_xyz
  x,y,z
_cell_length_a	12.645331
_cell_length_b	21.295417
_cell_length_c	12.645323
_cell_angle_alpha	90.032945
_cell_angle_beta	90.015738
_cell_angle_gamma	90.028938
loop_
_atom_site_label
_atom_site_type_symbol
_atom_site_fract_x
_atom_site_fract_y
_atom_site_fract_z
Zn1	Zn	1.620643	-0.250617	0.599191
Zn2	Zn	2.120643	0.249383	1.099191
Zn3	Zn	1.620487	-0.355892	0.421906
Zn4	Zn	2.120487	0.144108	0.921906
Zn5	Zn	1.443357	-0.250639	0.421956
Zn6	Zn	1.943357	0.249361	0.921956
Zn7	Zn	1.443302	-0.355851	0.599142
Zn8	Zn	1.943302	0.144149	1.099142
O9	O	1.531947	-0.303250	0.510549
O10	O	2.031947	0.196750	1.010549
O11	O	1.768969	-0.264590	0.575672
O12	O	2.268969	0.235410	1.075672
O13	O	1.596949	-0.341956	0.273565
O14	O	2.096949	0.158044	0.773565
O15	O	1.466963	-0.162547	0.445508
O16	O	1.966963	0.337453	0.945508
O17	O	1.768855	-0.341935	0.445422
O18	O	2.268855	0.158065	0.945422
O19	O	1.597214	-0.162531	0.575721
O20	O	2.097214	0.337469	1.075721
O21	O	1.466812	-0.264627	0.273602
O22	O	1.966812	0.235373	0.773602
O23	O	1.295003	-0.264588	0.445462
O24	O	1.795003	0.235412	0.945462
O25	O	1.466868	-0.341865	0.747496
O26	O	1.966868	0.158135	1.247496
O27	O	1.294962	-0.341886	0.575639
O28	O	1.794962	0.158114	1.075639
O29	O	1.597160	-0.264551	0.747532
O30	O	2.097160	0.235449	1.247532
O31	O	1.596895	-0.443976	0.445375
O32	O	2.096895	0.056024	0.945375
O33	O	1.466718	-0.443946	0.575590
O34	O	1.966718	0.056054	1.075590
C35	C	1.256518	-0.303235	0.510551
C36	C	1.756518	0.196765	1.010551
C37	C	1.138688	-0.303244	0.510578
C38	C	1.638688	0.196756	1.010578
C39	C	0.971133	-0.352140	0.592046
C40	C	1.471133	0.147860	1.092046
C41	C	1.093693	-0.351982	0.592386
C42	C	1.593693	0.148018	1.092386
C43	C	1.094233	-0.236943	0.541115
C44	C	1.594233	0.263057	1.041115
C45	C	0.971635	-0.237242	0.541689
C46	C	1.471635	0.262758	1.041689
C47	C	0.971436	-0.320116	0.398314
C48	C	1.471436	0.179884	0.898314
C49	C	1.094041	-0.321566	0.398920
C50	C	1.594041	0.178434	0.898920
C51	C	1.531812	-0.466801	0.510495
C52	C	2.031812	0.033199	1.010495
C53	C	1.531851	-0.536769	0.510508
C54	C	2.031851	-0.036769	1.010508
C55	C	1.599634	-0.569571	0.578358
C56	C	2.099634	-0.069571	1.078358
C57	C	1.599672	-0.635313	0.578384
C58	C	2.099672	-0.135313	1.078384
C59	C	1.531937	-0.668252	0.510541
C60	C	2.031937	-0.168252	1.010541
C61	C	1.464141	-0.635443	0.442686
C62	C	1.964141	-0.135443	0.942686
C63	C	1.464098	-0.569702	0.442669
C64	C	1.964098	-0.069702	0.942669
N65	N	1.523925	-0.771516	0.417766
N66	N	2.023925	-0.271516	0.917766
N67	N	1.523972	-0.833967	0.417784
N68	N	2.023972	-0.333967	0.917784
C69	C	1.532061	-0.866327	0.510589
C70	C	2.032061	-0.366327	1.010589
N71	N	1.540122	-0.833875	0.603376
N72	N	2.040122	-0.333875	1.103376
N73	N	1.540080	-0.771418	0.603356
N74	N	2.040080	-0.271418	1.103356
C75	C	1.531976	-0.739537	0.510552
C76	C	2.031976	-0.239537	1.010552
C77	C	1.599888	-0.970413	0.578473
C78	C	2.099888	-0.470413	1.078473
C79	C	1.599918	-1.036157	0.578501
C80	C	2.099918	-0.536157	1.078501
C81	C	1.464393	-1.036285	0.442793
C82	C	1.964393	-0.536285	0.942793
C83	C	1.464358	-0.970543	0.442775
C84	C	1.964358	-0.470543	0.942775
C85	C	1.532111	-0.937611	0.510613
C86	C	2.032111	-0.437611	1.010613
C87	C	1.808452	-0.303264	0.510547
C88	C	2.308452	0.196736	1.010547
C89	C	1.926282	-0.303271	0.510546
C90	C	2.426282	0.196729	1.010546
C91	C	1.532025	-0.303201	0.787054
C92	C	2.032025	0.196799	1.287054
C93	C	1.532059	-0.303180	0.904884
C94	C	2.032059	0.196820	1.404884
C95	C	1.532112	-0.139059	0.510626
C96	C	2.032112	0.360941	1.010626
C97	C	1.532182	-0.069091	0.510659
C98	C	2.032182	0.430909	1.010659
C99	C	1.531930	-0.303253	0.235119
C100	C	2.031930	0.196747	0.735119
C101	C	1.532103	-0.303096	0.117290
C102	C	2.032103	0.196904	0.617290
C103	C	1.449839	-0.351590	1.072426
C104	C	1.949839	0.148410	1.572426
C105	C	1.450055	-0.351830	0.949866
C106	C	1.950055	0.148170	1.449866
C107	C	1.643752	-0.321184	0.949386
C108	C	2.143752	0.178816	1.449386
C109	C	1.643301	-0.321488	1.071985
C110	C	2.143301	0.178512	1.571985
C111	C	1.503641	-0.236496	1.072101
C112	C	2.003641	0.263504	1.572101
C113	C	1.501149	-0.236895	0.949495
C114	C	2.001149	0.263105	1.449495
H115	H	0.940346	-0.341136	0.674721
H116	H	1.440346	0.158864	1.174721
H117	H	1.556690	-0.198855	0.918876
H118	H	2.056690	0.301145	1.418876
H119	H	1.423614	-0.220085	1.103019
H120	H	1.923614	0.279915	1.603019
H121	H	1.409167	-0.943834	0.387520
H122	H	1.909167	-0.443834	0.887520
Cl123	Cl	1.378983	-0.676851	0.357404
Cl124	Cl	1.878983	-0.176851	0.857404
Cl125	Cl	1.139020	-0.334769	0.720777
Cl126	Cl	1.639020	0.165231	1.220777
Cl127	Cl	0.925824	-0.179120	0.454043
Cl128	Cl	1.425824	0.320880	0.954043
H129	H	1.408900	-0.542994	0.387416
H130	H	1.908900	-0.042994	0.887416
Cl131	Cl	1.680549	-0.396656	1.116140
Cl132	Cl	2.180549	0.103344	1.616140
Cl133	Cl	1.741081	-0.269289	1.117812
Cl134	Cl	2.241081	0.230711	1.617812
H135	H	1.418952	-0.223318	0.920409
H136	H	1.918952	0.276682	1.420409
H137	H	1.655054	-0.943599	0.633715
H138	H	2.155054	-0.443599	1.133715
H139	H	1.655115	-1.062863	0.633758
H140	H	2.155115	-0.562863	1.133758
Cl141	Cl	0.926653	-0.265162	0.304559
Cl142	Cl	1.426653	0.234838	0.804559
Cl143	Cl	1.322180	-0.334432	0.903406
Cl144	Cl	1.822180	0.165568	1.403406
Cl145	Cl	1.140101	-0.427897	0.562881
Cl146	Cl	1.640101	0.072103	1.062881
H147	H	1.409236	-1.063104	0.387561
H148	H	1.909236	-0.563104	0.887561
Cl149	Cl	1.141671	-0.214479	0.666417
Cl150	Cl	1.641671	0.285521	1.166417
Cl151	Cl	1.321577	-0.334361	1.117940
Cl152	Cl	1.821577	0.165639	1.617940
Cl153	Cl	1.596146	-0.180714	1.116897
Cl154	Cl	2.096146	0.319286	1.616897
H155	H	0.943065	-0.222953	0.623735
H156	H	1.443065	0.277047	1.123735
Cl157	Cl	1.478498	-0.427335	1.120063
Cl158	Cl	1.978498	0.072665	1.620063
Cl159	Cl	0.923654	-0.393482	0.355456
Cl160	Cl	1.423654	0.106518	0.855456
H161	H	1.123379	-0.199543	0.483609
H162	H	1.623379	0.300457	0.983609
H163	H	1.654860	-0.662025	0.633649
H164	H	2.154860	-0.162025	1.133649
H165	H	1.468842	-0.401203	0.920538
H166	H	1.968842	0.098797	1.420538
H167	H	1.706686	-0.286981	0.920252
H168	H	2.206686	0.213019	1.420252
Cl169	Cl	1.681646	-0.395565	0.901988
Cl170	Cl	2.181646	0.104435	1.401988
Cl171	Cl	1.138898	-0.396897	0.363365
Cl172	Cl	1.638898	0.103103	0.863365
Cl173	Cl	1.141319	-0.270595	0.300132
Cl174	Cl	1.641319	0.229405	0.800132
Cl175	Cl	0.925566	-0.428302	0.562832
Cl176	Cl	1.425566	0.071698	1.062832
H177	H	1.654800	-0.542759	0.633599
H178	H	2.154800	-0.042759	1.133599
