data_functionalizedCrystal
_audit_creation_method	'MofGen! by Chris Wilmer'
_symmetry_space_group_name_H-M	'P1'
_symmetry_Int_Tables_number	1
_symmetry_cell_setting	triclinic
loop_
_symmetry_equiv_pos_as_xyz
  x,y,z
_cell_length_a	17.077402
_cell_length_b	17.077404
_cell_length_c	12.759393
_cell_angle_alpha	90.024093
_cell_angle_beta	89.965312
_cell_angle_gamma	89.983638
loop_
_atom_site_label
_atom_site_type_symbol
_atom_site_fract_x
_atom_site_fract_y
_atom_site_fract_z
Zn1	Zn	-0.312607	-1.200079	-0.594078
Zn2	Zn	-0.443893	-1.199979	-0.418385
Zn3	Zn	-0.312630	-1.068804	-0.418403
Zn4	Zn	-0.443820	-1.068779	-0.594013
O5	O	-0.378237	-1.134410	-0.506220
O6	O	-0.330043	-1.309913	-0.570791
O7	O	-0.426521	-1.182547	-0.271366
O8	O	-0.202780	-1.086270	-0.441742
O9	O	-0.426498	-1.309839	-0.441711
O10	O	-0.202763	-1.182717	-0.570809
O11	O	-0.330083	-1.086173	-0.271380
O12	O	-0.330012	-0.958953	-0.441679
O13	O	-0.426373	-1.086228	-0.741042
O14	O	-0.426396	-0.958935	-0.570698
O15	O	-0.329972	-1.182693	-0.741090
O16	O	-0.553730	-1.182523	-0.441648
O17	O	-0.553676	-1.086130	-0.570680
C18	C	-0.378199	-0.930462	-0.506184
C19	C	-0.378202	-0.843212	-0.506193
C20	C	-0.428515	-0.467409	-0.573306
C21	C	-0.428507	-0.549390	-0.573293
C22	C	-0.378240	-0.590364	-0.506222
C23	C	-0.327983	-0.549353	-0.439152
C24	C	-0.327995	-0.467374	-0.439162
C25	C	-0.327960	-0.720223	-0.439140
C26	C	-0.327946	-0.802207	-0.439132
C27	C	-0.428472	-0.802239	-0.573271
C28	C	-0.428484	-0.720260	-0.573280
C29	C	-0.378226	-0.679255	-0.506212
C30	C	-0.582185	-1.134334	-0.506178
C31	C	-0.669435	-1.134374	-0.506195
C32	C	-0.710427	-1.184616	-0.439080
C33	C	-0.792407	-1.184655	-0.439107
C34	C	-0.833394	-1.134446	-0.506244
C35	C	-0.792396	-1.084201	-0.573367
C36	C	-0.710418	-1.084167	-0.573344
C37	C	-0.963266	-1.084274	-0.573407
C38	C	-1.045251	-1.084306	-0.573428
C39	C	-1.045256	-1.184761	-0.439169
C40	C	-0.963277	-1.184727	-0.439146
C41	C	-0.922285	-1.134481	-0.506268
C42	C	-0.173493	-1.134508	-0.506285
C43	C	-0.086243	-1.134549	-0.506313
C44	C	-0.378162	-1.134469	-0.780253
C45	C	-0.378130	-1.134494	-0.897030
C46	C	-0.378268	-0.339154	-0.506249
C47	C	-0.378260	-0.426404	-0.506245
C48	C	-0.327926	-1.184727	-0.951919
C49	C	-0.327892	-1.184741	-1.061643
C50	C	-0.428273	-1.084285	-1.061580
C51	C	-0.428302	-1.084268	-0.951858
C52	C	-0.378256	-1.134397	-0.233252
C53	C	-0.378067	-1.134524	-0.116476
H54	H	-0.287058	-0.582720	-0.384537
N55	N	-0.482396	-1.030118	-1.120702
H56	H	-0.470194	-0.974037	-1.101590
H57	H	-0.474745	-1.037810	-1.198524
N58	N	-0.482438	-1.030069	-0.892647
H59	H	-0.514217	-0.998254	-0.944027
H60	H	-0.518787	-1.061984	-0.847108
H61	H	-0.825774	-1.043324	-0.628036
H62	H	-0.469432	-0.582772	-0.627899
N63	N	-0.273750	-1.238922	-1.120854
H64	H	-0.237353	-1.207045	-1.166376
H65	H	-0.242022	-1.270727	-1.069409
N66	N	-1.089462	-1.238963	-0.366779
H67	H	-1.075251	-1.226791	-0.291693
H68	H	-1.147600	-1.231347	-0.377070
H69	H	-0.929906	-1.225607	-0.384473
H70	H	-0.469444	-0.434054	-0.627929
N71	N	-0.273815	-1.238897	-0.892778
H72	H	-0.217720	-1.226739	-0.911880
H73	H	-0.281524	-1.231240	-0.814961
H74	H	-0.469413	-0.686901	-0.627900
H75	H	-0.469393	-0.835629	-0.627883
H76	H	-0.287007	-0.835566	-0.384527
N77	N	-0.836621	-1.238845	-0.366718
H78	H	-0.798217	-1.270642	-0.324179
H79	H	-0.870688	-1.206923	-0.318071
H80	H	-0.287032	-0.686839	-0.384528
H81	H	-0.677061	-1.225499	-0.384404
N82	N	-0.273795	-0.423143	-0.366827
H83	H	-0.241948	-0.461538	-0.324336
H84	H	-0.237512	-0.389148	-0.409682
N85	N	-1.089461	-1.030160	-0.645846
H86	H	-1.123523	-0.993811	-0.603115
H87	H	-1.051005	-0.998382	-0.688355
N88	N	-0.919045	-1.030083	-0.645796
H89	H	-0.933256	-1.042247	-0.720884
H90	H	-0.933376	-0.974031	-0.629319
N91	N	-0.666200	-1.029980	-0.645736
H92	H	-0.704603	-0.998177	-0.688270
H93	H	-0.632236	-0.993656	-0.602917
