data_functionalizedCrystal
_audit_creation_method	'MofGen! by Chris Wilmer'
_symmetry_space_group_name_H-M	'P1'
_symmetry_Int_Tables_number	1
_symmetry_cell_setting	triclinic
loop_
_symmetry_equiv_pos_as_xyz
  x,y,z
_cell_length_a	17.019282
_cell_length_b	17.038278
_cell_length_c	9.130307
_cell_angle_alpha	89.989381
_cell_angle_beta	93.879705
_cell_angle_gamma	87.241329
loop_
_atom_site_label
_atom_site_type_symbol
_atom_site_fract_x
_atom_site_fract_y
_atom_site_fract_z
O1	O	1.053361	0.099546	0.011084
O2	O	0.824547	0.112258	-0.017793
O3	O	0.937595	-0.007912	-0.003489
O4	O	0.940313	0.219716	-0.003220
O5	O	0.937591	-0.007913	0.240110
O6	O	0.824543	0.112257	0.225806
O7	O	1.053357	0.099545	0.254682
Cu8	Cu	0.938950	0.105901	0.262486
Cu9	Cu	0.938954	0.105902	-0.025597
O10	O	0.940309	0.219715	0.240378
C11	C	0.795124	0.111778	0.100294
C12	C	0.707457	0.110338	0.089232
C13	C	0.666273	0.109659	0.216824
C14	C	0.583901	0.108293	0.206434
C15	C	0.542714	0.107613	0.068451
C16	C	0.583904	0.108289	-0.059150
C17	C	0.666275	0.109649	-0.048759
C18	C	0.294008	0.103502	0.030434
C19	C	0.211631	0.102144	0.020052
C20	C	0.211634	0.102147	0.285638
C21	C	0.294006	0.103511	0.296017
C22	C	0.335189	0.104184	0.168416
C23	C	0.458517	0.106219	0.057828
C24	C	0.419385	0.105572	0.179040
C25	C	0.935120	-0.037039	0.118005
C26	C	0.927740	-0.123825	0.117093
C27	C	0.882404	-0.614195	0.111237
C28	C	0.889344	-0.532651	0.112127
C29	C	0.964045	-0.501286	0.121575
C30	C	1.031809	-0.551469	0.130117
C31	C	1.024869	-0.633011	0.129217
C32	C	0.988564	-0.255551	0.124735
C33	C	0.995500	-0.174002	0.125639
C34	C	0.853034	-0.155189	0.107646
C35	C	0.846100	-0.236734	0.106755
C36	C	0.913865	-0.286911	0.115290
C37	C	0.971140	-0.417935	0.122489
C38	C	0.906768	-0.370260	0.114365
C39	C	1.082780	0.100025	0.136592
C40	C	1.170447	0.101465	0.147644
C41	C	0.942784	0.248842	0.118881
C42	C	0.950164	0.335628	0.119784
N43	N	0.938952	0.105899	0.465109
N44	N	0.938958	0.105897	-0.228219
C45	C	1.039101	-0.000481	0.477771
C46	C	1.089181	-0.053669	0.560770
C47	C	1.089189	-0.053669	0.714104
C48	C	1.039110	-0.000478	0.784443
C49	C	0.989030	0.052710	0.701444
C50	C	0.989029	0.052706	0.548107
C51	C	0.888878	0.159085	0.688782
C52	C	0.888873	0.159091	0.535448
C53	C	0.838799	0.212277	0.759121
C54	C	0.788721	0.265470	0.676123
C55	C	0.788716	0.265469	0.522780
C56	C	0.838793	0.212279	0.452450
H57	H	0.550363	0.107730	-0.171499
H58	H	0.834166	-0.491800	0.105163
Br59	Br	0.781020	-0.656754	0.098432
Br60	Br	0.838800	0.212274	0.967218
Br61	Br	0.155740	0.101233	0.458802
H62	H	0.747947	0.308771	0.733402
Br63	Br	0.349889	0.104413	-0.142741
Br64	Br	1.039106	-0.000491	0.992539
H65	H	1.031962	-0.392388	0.130230
H66	H	0.785271	-0.262266	0.099046
H67	H	0.178099	0.101592	-0.092316
Br68	Br	1.157149	-0.125860	0.826748
H69	H	0.699805	0.110204	-0.152658
Br70	Br	0.475283	0.106490	0.366297
Br71	Br	1.039109	-0.000473	0.269675
Br72	Br	0.720739	0.337651	0.410151
Br73	Br	0.761072	-0.087090	0.096057
Br74	Br	1.096886	-0.131435	0.138511
H75	H	0.838796	0.212276	0.327598
Br76	Br	0.722161	0.110591	0.404096
Br77	Br	1.116832	-0.701110	0.140800
Br78	Br	0.349897	0.104444	0.483287
H79	H	0.424973	0.105665	-0.054518
Br80	Br	1.157139	-0.125860	0.465309
Br81	Br	1.080532	-0.323637	0.136330
H82	H	0.550374	0.107727	0.310334
Br83	Br	1.133190	-0.508903	0.142922
Br84	Br	0.805392	-0.412829	0.101529
