data_functionalizedCrystal
_audit_creation_method	'MofGen! by Chris Wilmer'
_symmetry_space_group_name_H-M	'P1'
_symmetry_Int_Tables_number	1
_symmetry_cell_setting	triclinic
loop_
_symmetry_equiv_pos_as_xyz
  x,y,z
_cell_length_a	17.699077
_cell_length_b	10.723024
_cell_length_c	16.776229
_cell_angle_alpha	90.006254
_cell_angle_beta	90.000648
_cell_angle_gamma	83.874223
loop_
_atom_site_label
_atom_site_type_symbol
_atom_site_fract_x
_atom_site_fract_y
_atom_site_fract_z
O1	O	1.005070	0.157764	0.066276
O2	O	1.338403	0.491098	0.399609
O3	O	1.671736	0.824431	0.732942
O4	O	0.784820	0.178302	0.066279
O5	O	1.118154	0.511635	0.399613
O6	O	1.451487	0.844968	0.732946
O7	O	0.900025	-0.013630	0.066274
O8	O	1.233359	0.319703	0.399608
O9	O	1.566692	0.653036	0.732941
O10	O	0.889865	0.349696	0.066280
O11	O	1.223198	0.683030	0.399614
O12	O	1.556531	1.016363	0.732947
O13	O	0.900023	-0.013647	-0.066302
O14	O	1.233357	0.319686	0.267031
O15	O	1.566690	0.653019	0.600365
O16	O	0.784818	0.178285	-0.066297
O17	O	1.118151	0.511618	0.267036
O18	O	1.451485	0.844951	0.600369
O19	O	1.005068	0.157747	-0.066301
O20	O	1.338401	0.491081	0.267032
O21	O	1.671734	0.824414	0.600366
Zn22	Zn	0.894943	0.168013	-0.087348
Zn23	Zn	1.228276	0.501347	0.245985
Zn24	Zn	1.561609	0.834680	0.579318
Zn25	Zn	0.894945	0.168036	0.087327
Zn26	Zn	1.228279	0.501369	0.420660
Zn27	Zn	1.561612	0.834702	0.753993
O28	O	0.889863	0.349679	-0.066296
O29	O	1.223196	0.683013	0.267037
O30	O	1.556529	1.016346	0.600371
C31	C	0.756618	0.177559	-0.000009
C32	C	1.089951	0.510892	0.333325
C33	C	1.423284	0.844225	0.666658
C34	C	0.672585	0.175355	-0.000007
C35	C	1.005919	0.508688	0.333326
C36	C	1.339252	0.842021	0.666660
C37	C	0.633110	0.174307	-0.072275
C38	C	0.966444	0.507640	0.261058
C39	C	1.299777	0.840974	0.594391
C40	C	0.554154	0.172216	-0.072276
C41	C	0.887488	0.505550	0.261057
C42	C	1.220821	0.838883	0.594390
C43	C	0.514675	0.171182	-0.000008
C44	C	0.848008	0.504516	0.333325
C45	C	1.181341	0.837849	0.666659
C46	C	0.554156	0.172226	0.072266
C47	C	0.887489	0.505560	0.405599
C48	C	1.220822	0.838893	0.738933
C49	C	0.633110	0.174308	0.072266
C50	C	0.966444	0.507641	0.405599
C51	C	1.299777	0.840975	0.738933
C52	C	0.235739	0.163829	0.072267
C53	C	0.569073	0.497162	0.405601
C54	C	0.902406	0.830496	0.738934
C55	C	0.156779	0.161751	0.072262
C56	C	0.490112	0.495084	0.405595
C57	C	0.823445	0.828418	0.738928
C58	C	0.156783	0.161737	-0.072275
C59	C	0.490117	0.495071	0.261058
C60	C	0.823450	0.828404	0.594392
C61	C	0.235738	0.163819	-0.072275
C62	C	0.569072	0.497152	0.261058
C63	C	0.902405	0.830486	0.594392
C64	C	0.275213	0.164856	-0.000002
C65	C	0.608546	0.498190	0.333332
C66	C	0.941879	0.831523	0.666665
C67	C	0.360826	0.167121	-0.000001
C68	C	0.694159	0.500454	0.333332
C69	C	1.027492	0.833788	0.666665
C70	C	0.429062	0.168927	-0.000007
C71	C	0.762396	0.502260	0.333326
C72	C	1.095729	0.835593	0.666659
C73	C	0.899285	-0.060126	-0.000013
C74	C	1.232618	0.273207	0.333320
C75	C	1.565952	0.606541	0.666654
C76	C	0.897073	-0.198642	-0.000010
C77	C	1.230406	0.134691	0.333323
C78	C	1.563739	0.468025	0.666657
C79	C	0.961535	-0.274732	-0.000010
C80	C	1.294869	0.058601	0.333323
C81	C	1.628202	0.391934	0.666657
C82	C	0.959250	-0.417896	-0.000007
C83	C	1.292584	-0.084563	0.333326
C84	C	1.625917	0.248770	0.666660
C85	C	1.033270	0.158490	-0.000011
C86	C	1.366604	0.491824	0.333322
C87	C	1.699937	0.825157	0.666655
C88	C	1.117303	0.160694	-0.000008
C89	C	1.450636	0.494028	0.333326
C90	C	1.783969	0.827361	0.666659
C91	C	0.890603	0.396175	-0.000007
C92	C	1.223936	0.729508	0.333326
C93	C	1.557270	1.062842	0.666660
C94	C	0.892815	0.534691	-0.000005
C95	C	1.226149	0.868024	0.333329
C96	C	1.559482	1.201358	0.666662
N97	N	0.894948	0.168042	0.206538
N98	N	1.228281	0.501375	0.539871
N99	N	1.561614	0.834709	0.873205
N100	N	0.894946	0.167997	-0.206560
N101	N	1.228280	0.501331	0.126774
N102	N	1.561613	0.834664	0.460107
C103	C	0.946057	0.083221	0.248253
C104	C	1.279390	0.416554	0.581586
C105	C	1.612724	0.749888	0.914920
C106	C	0.946060	0.083218	0.331705
C107	C	1.279393	0.416551	0.665039
C108	C	1.612727	0.749885	0.998372
C109	C	0.894949	0.168030	0.373441
C110	C	1.228283	0.501364	0.706774
C111	C	1.561616	0.834697	1.040108
C112	C	0.843837	0.252860	0.331720
C113	C	1.177171	0.586194	0.665053
C114	C	1.510504	0.919527	0.998387
C115	C	0.843839	0.252868	0.248269
C116	C	1.177172	0.586202	0.581603
C117	C	1.510505	0.919535	0.914936
C118	C	0.843831	0.252830	0.668267
C119	C	1.177165	0.586164	1.001601
C120	C	1.510498	0.919497	1.334934
C121	C	0.843833	0.252813	0.751724
C122	C	1.177166	0.586146	1.085057
C123	C	1.510499	0.919480	1.418391
C124	C	0.946053	0.083180	0.751703
C125	C	1.279386	0.416513	1.085036
C126	C	1.612719	0.749846	1.418370
C127	C	0.946054	0.083188	0.668252
C128	C	1.279387	0.416521	1.001586
C129	C	1.612721	0.749855	1.334919
C130	C	0.894945	0.168021	0.626539
C131	C	1.228279	0.501355	0.959872
C132	C	1.561612	0.834688	1.293206
C133	C	0.894944	0.168025	0.536051
C134	C	1.228277	0.501359	0.869384
C135	C	1.561610	0.834692	1.202717
C136	C	0.894947	0.168021	0.463928
C137	C	1.228280	0.501355	0.797261
C138	C	1.561613	0.834688	1.130594
H139	H	0.522019	0.171342	-0.131124
H140	H	0.855352	0.504676	0.202209
H141	H	1.188686	0.838009	0.535542
H142	H	0.802216	0.321902	0.634311
H143	H	1.135549	0.655236	0.967644
H144	H	1.468882	0.988569	1.300977
H145	H	0.267870	0.164670	0.131117
H146	H	0.601204	0.498003	0.464450
H147	H	0.934537	0.831337	0.797783
H148	H	0.987671	0.014107	0.785675
H149	H	1.321004	0.347440	1.119008
H150	H	1.654337	0.680774	1.452342
H151	H	0.124634	0.160887	-0.131124
H152	H	0.457967	0.494220	0.202210
H153	H	0.791301	0.827553	0.535543
C154	C	1.033806	-0.506220	-0.000008
C155	C	1.367139	-0.172886	0.333326
C156	C	1.700473	0.160447	0.666659
N157	N	1.089964	-0.572749	-0.000007
N158	N	1.423297	-0.239415	0.333327
N159	N	1.756630	0.093918	0.666660
C160	C	0.510725	0.171085	0.151762
C161	C	0.844058	0.504419	0.485095
C162	C	1.177392	0.837752	0.818429
N163	N	0.478014	0.170230	0.211640
N164	N	0.811347	0.503563	0.544973
N165	N	1.144680	0.836897	0.878307
C166	C	0.787613	0.346175	0.202383
C167	C	1.120946	0.679508	0.535717
C168	C	1.454279	1.012842	0.869050
N169	N	0.745263	0.416459	0.167823
N170	N	1.078596	0.749792	0.501157
N171	N	1.411929	1.083125	0.834490
C172	C	0.818256	-0.376993	-0.000004
C173	C	1.151590	-0.043660	0.333330
C174	C	1.484923	0.289674	0.666663
N175	N	0.762099	-0.310464	-0.000001
N176	N	1.095432	0.022869	0.333332
N177	N	1.428765	0.356203	0.666665
C178	C	1.038381	-0.219559	-0.000017
C179	C	1.371715	0.113774	0.333316
C180	C	1.705048	0.447107	0.666650
N181	N	1.096264	-0.178005	-0.000025
N182	N	1.429597	0.155328	0.333308
N183	N	1.762931	0.488661	0.666641
H184	H	0.665248	0.175159	-0.131125
H185	H	0.998582	0.508493	0.202209
H186	H	1.331915	0.841826	0.535542
H187	H	0.840192	-0.239487	-0.000004
H188	H	1.173525	0.093846	0.333329
H189	H	1.506859	0.427180	0.666663
H190	H	0.802211	0.321882	0.785704
H191	H	1.135544	0.655216	1.119037
H192	H	1.468877	0.988549	1.452370
H193	H	0.987674	0.014152	0.214277
H194	H	1.321007	0.347485	0.547611
H195	H	1.654341	0.680819	0.880944
C196	C	1.002281	-0.010098	0.377588
C197	C	1.335614	0.323236	0.710921
C198	C	1.668947	0.656569	1.044255
N199	N	1.044628	-0.080389	0.412146
N200	N	1.377961	0.252945	0.745479
N201	N	1.711295	0.586278	1.078813
C202	C	0.676532	0.175463	0.151767
C203	C	1.009866	0.508797	0.485100
C204	C	1.343199	0.842130	0.818433
N205	N	0.709237	0.176330	0.211649
N206	N	1.042570	0.509664	0.544983
N207	N	1.375904	0.842997	0.878316
H208	H	0.267878	0.164667	-0.131123
H209	H	0.601212	0.498001	0.202210
H210	H	0.934545	0.831334	0.535543
C211	C	0.113353	0.160600	0.151766
C212	C	0.446687	0.493933	0.485100
C213	C	0.780020	0.827266	0.818433
N214	N	0.080646	0.159730	0.211646
N215	N	0.413979	0.493063	0.544979
N216	N	0.747312	0.826397	0.878313
H217	H	0.987671	0.014122	0.634274
H218	H	1.321004	0.347455	0.967607
H219	H	1.654337	0.680788	1.300940
C220	C	0.787615	0.346155	0.377632
C221	C	1.120948	0.679488	0.710966
C222	C	1.454281	1.012821	1.044299
N223	N	0.745264	0.416422	0.412213
N224	N	1.078597	0.749756	0.745546
N225	N	1.411931	1.083089	1.078880
