data_functionalizedCrystal
_audit_creation_method	'MofGen! by Chris Wilmer'
_symmetry_space_group_name_H-M	'P1'
_symmetry_Int_Tables_number	1
_symmetry_cell_setting	triclinic
loop_
_symmetry_equiv_pos_as_xyz
  x,y,z
_cell_length_a	10.540535
_cell_length_b	14.044220
_cell_length_c	13.101039
_cell_angle_alpha	93.667477
_cell_angle_beta	93.389140
_cell_angle_gamma	91.143740
loop_
_atom_site_label
_atom_site_type_symbol
_atom_site_fract_x
_atom_site_fract_y
_atom_site_fract_z
O1	O	1.705795	-0.128478	0.085161
O2	O	2.039128	0.204856	0.418494
O3	O	2.372462	0.538189	0.751828
O4	O	1.337656	-0.141077	0.085176
O5	O	1.670990	0.192256	0.418509
O6	O	2.004323	0.525590	0.751842
O7	O	1.516199	0.003244	0.085158
O8	O	1.849533	0.336577	0.418492
O9	O	2.182866	0.669911	0.751825
O10	O	1.527252	-0.272799	0.085178
O11	O	1.860586	0.060535	0.418512
O12	O	2.193919	0.393868	0.751845
O13	O	1.503391	-0.007128	-0.085270
O14	O	1.836724	0.326205	0.248063
O15	O	2.170058	0.659539	0.581396
O16	O	1.324848	-0.151449	-0.085253
O17	O	1.658181	0.181884	0.248080
O18	O	1.991515	0.515218	0.581414
O19	O	1.692987	-0.138850	-0.085268
O20	O	2.026320	0.194483	0.248066
O21	O	2.359653	0.527817	0.581399
Zn22	Zn	1.506884	-0.146796	-0.112320
Zn23	Zn	1.840217	0.186537	0.221014
Zn24	Zn	2.173550	0.519870	0.554347
Zn25	Zn	1.523759	-0.133130	0.112228
Zn26	Zn	1.857093	0.200203	0.445561
Zn27	Zn	2.190426	0.533536	0.778894
O28	O	1.514444	-0.283171	-0.085250
O29	O	1.847777	0.050163	0.248083
O30	O	2.181111	0.383496	0.581416
C31	C	1.283854	-0.145319	-0.000037
C32	C	1.617187	0.188015	0.333296
C33	C	1.950520	0.521348	0.666630
C34	C	1.142620	-0.142494	-0.000032
C35	C	1.475954	0.190839	0.333302
C36	C	1.809287	0.524172	0.666635
C37	C	1.095296	-0.037122	-0.000043
C38	C	1.428629	0.296211	0.333290
C39	C	1.761963	0.629544	0.666623
C40	C	0.948365	-0.034174	-0.000440
C41	C	1.281698	0.299159	0.332893
C42	C	1.615032	0.632492	0.666226
C43	C	0.930847	-0.196507	-0.097174
C44	C	1.264180	0.136826	0.236159
C45	C	1.597513	0.470160	0.569493
C46	C	1.077833	-0.198753	-0.097245
C47	C	1.411167	0.134580	0.236088
C48	C	1.744500	0.467913	0.569421
C49	C	1.092438	-0.188491	0.096571
C50	C	1.425772	0.144842	0.429904
C51	C	1.759105	0.478176	0.763237
C52	C	0.945694	-0.183541	0.097837
C53	C	1.279028	0.149793	0.431170
C54	C	1.612361	0.483126	0.764504
C55	C	1.504957	0.033405	-0.000056
C56	C	1.838291	0.366738	0.333277
C57	C	2.171624	0.700072	0.666611
C58	C	1.490528	0.138728	-0.000057
C59	C	1.823861	0.472062	0.333276
C60	C	2.157194	0.805395	0.666610
C61	C	1.746790	-0.134608	-0.000053
C62	C	2.080123	0.198726	0.333281
C63	C	2.413456	0.532059	0.666614
C64	C	1.888023	-0.137432	-0.000051
C65	C	2.221357	0.195901	0.333282
C66	C	2.554690	0.529235	0.666615
C67	C	1.525686	-0.313332	-0.000034
C68	C	1.859019	0.020002	0.333300
C69	C	2.192353	0.353335	0.666633
C70	C	1.540116	-0.418655	-0.000026
C71	C	1.873450	-0.085321	0.333307
C72	C	2.206783	0.248012	0.666640
N73	N	1.495376	-0.156122	-0.265567
N74	N	1.828709	0.177211	0.067766
N75	N	2.162043	0.510544	0.401100
C76	C	1.464148	0.331569	-0.000041
C77	C	1.797481	0.664902	0.333292
C78	C	2.130815	0.998236	0.666626
C79	C	1.566490	0.388511	-0.000042
C80	C	1.899824	0.721844	0.333291
C81	C	2.233157	1.055177	0.666625
C82	C	1.551812	0.495814	-0.000033
C83	C	1.885146	0.829147	0.333300
C84	C	2.218479	1.162480	0.666633
C85	C	1.478824	0.224256	-0.000050
C86	C	1.812157	0.557589	0.333283
C87	C	2.145491	0.890922	0.666617
C88	C	1.479720	-0.168819	-0.474608
C89	C	1.813053	0.164514	-0.141275
C90	C	2.146387	0.497847	0.192059
C91	C	1.550928	-0.111103	-0.525491
C92	C	1.884262	0.222230	-0.192157
C93	C	2.217595	0.555564	0.141176
C94	C	1.542217	-0.118168	-0.641808
C95	C	1.875551	0.215165	-0.308475
C96	C	2.208884	0.548499	0.024858
C97	C	1.488430	-0.161756	-0.358280
C98	C	1.821763	0.171578	-0.024947
C99	C	2.155096	0.504911	0.308387
N100	N	1.535276	-0.123797	0.265475
N101	N	1.868610	0.209536	0.598808
N102	N	2.201943	0.542870	0.932142
H103	H	1.138408	0.007580	0.069595
H104	H	1.471741	0.340913	0.402929
H105	H	1.805074	0.674247	0.736262
H106	H	0.904730	-0.258543	0.104009
H107	H	1.238064	0.074791	0.437342
H108	H	1.571397	0.408124	0.770676
O109	O	1.333493	0.373738	-0.000039
O110	O	1.666826	0.707071	0.333294
O111	O	2.000159	1.040404	0.666627
H112	H	1.260778	0.315475	-0.000037
H113	H	1.594111	0.648808	0.333297
H114	H	1.927444	0.982141	0.666630
O115	O	1.140589	0.009982	-0.092174
O116	O	1.473922	0.343315	0.241160
O117	O	1.807256	0.676648	0.574493
H118	H	1.196657	-0.041330	-0.137958
H119	H	1.529990	0.292003	0.195376
H120	H	1.863324	0.625336	0.528709
O121	O	1.640354	-0.038620	-0.467491
O122	O	1.973687	0.294713	-0.134158
O123	O	2.307021	0.628047	0.199175
H124	H	1.633260	-0.044377	-0.383908
H125	H	1.966593	0.288956	-0.050575
H126	H	2.299926	0.622290	0.282758
O127	O	1.697161	0.346354	-0.000057
O128	O	2.030494	0.679687	0.333276
O129	O	2.363828	1.013020	0.666610
H130	H	1.703498	0.297545	-0.069532
H131	H	2.036831	0.630879	0.263802
H132	H	2.370164	0.964212	0.597135
O133	O	1.390317	-0.241309	-0.532607
O134	O	1.723651	0.092025	-0.199273
O135	O	2.056984	0.425358	0.134060
H136	H	1.397436	-0.235558	-0.616188
H137	H	1.730769	0.097775	-0.282855
H138	H	2.064102	0.431108	0.050478
H139	H	0.910466	0.002937	-0.070479
H140	H	1.243799	0.336270	0.262854
H141	H	1.577133	0.669604	0.596187
O142	O	0.910848	0.026534	0.091742
O143	O	1.244182	0.359867	0.425075
O144	O	1.577515	0.693200	0.758408
H145	H	0.997730	0.054047	0.137007
H146	H	1.331063	0.387381	0.470340
H147	H	1.664397	0.720714	0.803673
H148	H	1.108362	-0.276252	-0.101390
H149	H	1.441695	0.057081	0.231943
H150	H	1.775029	0.390415	0.565277
O151	O	1.118998	-0.157076	-0.193788
O152	O	1.452331	0.176258	0.139546
O153	O	1.785665	0.509591	0.472879
H154	H	1.033941	-0.135504	-0.239981
H155	H	1.367274	0.197830	0.093353
H156	H	1.700607	0.531163	0.426686
H157	H	0.890804	-0.164448	-0.169737
H158	H	1.224137	0.168885	0.163596
H159	H	1.557470	0.502219	0.496930
O160	O	0.877945	-0.297499	-0.101619
O161	O	1.211278	0.035834	0.231714
O162	O	1.544611	0.369168	0.565047
H163	H	0.820430	-0.306680	-0.034492
H164	H	1.153764	0.026654	0.298841
H165	H	1.487097	0.359987	0.632175
O166	O	1.151581	-0.138994	0.194124
O167	O	1.484915	0.194339	0.527457
O168	O	1.818248	0.527673	0.860790
H169	H	1.256431	-0.145524	0.195551
H170	H	1.589764	0.187810	0.528885
H171	H	1.923097	0.521143	0.862218
O172	O	0.909771	-0.126518	0.193024
O173	O	1.243105	0.206815	0.526358
O174	O	1.576438	0.540148	0.859691
H175	H	0.851760	-0.065243	0.170710
H176	H	1.185093	0.268090	0.504043
H177	H	1.518427	0.601423	0.837376
H178	H	1.122532	-0.265962	0.097516
H179	H	1.455865	0.067372	0.430849
H180	H	1.789199	0.400705	0.764182
