data_functionalizedCrystal
_audit_creation_method	'MofGen! by Chris Wilmer'
_symmetry_space_group_name_H-M	'P1'
_symmetry_Int_Tables_number	1
_symmetry_cell_setting	triclinic
loop_
_symmetry_equiv_pos_as_xyz
  x,y,z
_cell_length_a	14.908783
_cell_length_b	14.908506
_cell_length_c	14.908308
_cell_angle_alpha	83.637915
_cell_angle_beta	90.211273
_cell_angle_gamma	96.790846
loop_
_atom_site_label
_atom_site_type_symbol
_atom_site_fract_x
_atom_site_fract_y
_atom_site_fract_z
Zn1	Zn	1.325984	-0.317645	0.605038
Zn2	Zn	1.325883	-0.460296	0.462406
Zn3	Zn	1.184357	-0.316663	0.445956
Zn4	Zn	1.165851	-0.477687	0.604970
O5	O	1.250519	-0.393073	0.529592
O6	O	1.452216	-0.329702	0.593030
O7	O	1.314812	-0.433554	0.333984
O8	O	1.210931	-0.189704	0.460203
O9	O	1.452142	-0.434507	0.488239
O10	O	1.314984	-0.190426	0.577079
O11	O	1.210834	-0.328027	0.321898
O12	O	1.055656	-0.344889	0.460136
O13	O	1.179390	-0.464146	0.731218
O14	O	1.042060	-0.463193	0.576963
O15	O	1.297039	-0.346564	0.731268
O16	O	1.296868	-0.589693	0.488173
O17	O	1.179292	-0.602469	0.592914
C18	C	1.016124	-0.405822	0.516758
C19	C	0.915846	-0.411300	0.511290
C20	C	0.727468	-0.312629	0.610319
C21	C	0.633248	-0.317773	0.605184
C22	C	0.633186	-0.426725	0.495881
C23	C	0.727405	-0.421582	0.501016
C24	C	0.774543	-0.364533	0.558238
C25	C	0.868764	-0.359394	0.563377
C26	C	0.868700	-0.468342	0.454070
C27	C	0.774480	-0.473486	0.448935
C28	C	1.236084	-0.629034	0.542342
C29	C	1.229989	-0.729976	0.547831
C30	C	1.160143	-0.878933	0.610044
C31	C	1.165867	-0.784090	0.604893
C32	C	1.288394	-0.770712	0.495919
C33	C	1.282670	-0.865556	0.501071
C34	C	1.218541	-0.919664	0.558134
C35	C	1.212814	-1.014509	0.563280
C36	C	1.335345	-1.001130	0.454312
C37	C	1.341069	-0.906286	0.449161
C38	C	1.485829	-0.380274	0.542477
C39	C	1.586104	-0.374820	0.547968
C40	C	1.236161	-0.407405	0.764891
C41	C	1.230043	-0.413512	0.865162
C42	C	1.265033	-0.156191	0.516814
C43	C	1.271218	-0.055245	0.511368
C44	C	1.264876	-0.378728	0.295208
C45	C	1.271185	-0.372355	0.194934
C46	C	1.341053	-0.302530	1.053633
C47	C	1.335307	-0.308265	1.147846
C48	C	1.212802	-0.430713	1.147802
C49	C	1.218548	-0.424978	1.053589
C50	C	1.282676	-0.360885	1.006508
C51	C	1.288426	-0.355155	0.912294
C52	C	1.165917	-0.477598	0.912251
C53	C	1.160171	-0.483333	1.006464
H54	H	0.907143	-0.312943	0.609971
H55	H	1.340612	-0.726646	0.449467
H56	H	1.118314	-0.750930	0.647164
H57	H	0.907038	-0.510613	0.411669
O58	O	0.773127	-0.257147	0.665925
C59	C	0.711369	-0.212461	0.710818
H60	H	0.646647	-0.210668	0.670038
H61	H	0.695147	-0.250549	0.780532
C62	C	0.832741	-0.116824	0.770856
C63	C	0.753252	-0.114615	0.720766
H64	H	0.858577	-0.056469	0.776997
H65	H	0.874349	-0.146931	0.740614
H66	H	0.819212	-0.148568	0.828947
H67	H	0.766784	-0.082882	0.662674
H68	H	0.711647	-0.084500	0.750999
O69	O	0.587409	-0.267491	0.655824
C70	C	0.526226	-0.325805	0.713855
H71	H	0.509849	-0.393409	0.684877
H72	H	0.557862	-0.337973	0.783216
C73	C	0.458895	-0.198716	0.758286
C74	C	0.438775	-0.281745	0.722690
H75	H	0.404952	-0.171537	0.763739
H76	H	0.500118	-0.159428	0.719192
H77	H	0.485260	-0.208867	0.816083
H78	H	0.412421	-0.271592	0.664890
H79	H	0.397546	-0.321031	0.761774
O80	O	1.403372	-0.240199	1.008030
C81	C	1.453686	-0.189942	1.069830
H82	H	1.412833	-0.192892	1.134797
H83	H	1.519554	-0.220085	1.085394
C84	C	1.525033	-0.086714	0.948759
C85	C	1.474853	-0.090332	1.028550
H86	H	1.538095	-0.025271	0.923295
H87	H	1.491139	-0.120575	0.907123
H88	H	1.579917	-0.111838	0.961740
H89	H	1.419966	-0.065219	1.015566
H90	H	1.508740	-0.056465	1.070184
O91	O	0.587331	-0.482238	0.440428
C92	C	0.526101	-0.547050	0.491895
H93	H	0.549829	-0.555554	0.564793
H94	H	0.456223	-0.523052	0.489641
C95	C	0.492416	-0.628334	0.363149
C96	C	0.521563	-0.638784	0.452683
H97	H	0.489612	-0.684919	0.338961
H98	H	0.533664	-0.584668	0.328474
H99	H	0.434187	-0.608333	0.361284
H100	H	0.579795	-0.658774	0.454547
H101	H	0.480324	-0.682456	0.487358
O102	O	1.391919	-0.251622	1.193760
C103	C	1.373114	-0.270439	1.287013
H104	H	1.300887	-0.304761	1.297677
H105	H	1.422038	-0.317513	1.319289
C106	C	1.472763	-0.138887	1.317776
C107	C	1.384049	-0.181035	1.330873
H108	H	1.479512	-0.083740	1.344833
H109	H	1.485435	-0.126211	1.254950
H110	H	1.513522	-0.178124	1.344673
H111	H	1.343292	-0.141802	1.303967
H112	H	1.371370	-0.193702	1.393696
H113	H	1.382897	-1.034302	0.412043
H114	H	1.160599	-1.058562	0.609747
H115	H	1.107928	-0.922989	0.656509
H116	H	1.160592	-0.482894	1.186151
O117	O	1.403236	-0.853682	0.393625
C118	C	1.358782	-0.798111	0.329551
H119	H	1.286346	-0.830285	0.321590
H120	H	1.358289	-0.728095	0.353368
C121	C	1.497702	-0.749010	0.247917
C122	C	1.408737	-0.788531	0.238134
H123	H	1.528518	-0.743096	0.191528
H124	H	1.527653	-0.786447	0.291087
H125	H	1.497279	-0.690667	0.267767
H126	H	1.409161	-0.846877	0.218295
H127	H	1.378787	-0.751104	0.194959
H128	H	0.736088	-0.519930	0.402344
H129	H	1.340643	-0.302968	0.873962
H130	H	1.107958	-0.535513	1.044810
O131	O	1.109331	-0.534320	0.866386
C132	C	1.160424	-0.586885	0.817889
H133	H	1.231614	-0.550273	0.805783
H134	H	1.164003	-0.655855	0.858379
C135	C	1.027798	-0.645560	0.741440
C136	C	1.115233	-0.600589	0.726564
H137	H	0.999921	-0.654018	0.685108
H138	H	0.993374	-0.610150	0.774115
H139	H	1.030793	-0.703031	0.775184
H140	H	1.112236	-0.543116	0.692830
H141	H	1.149655	-0.635991	0.693880
