data_functionalizedCrystal
_audit_creation_method	'MofGen! by Chris Wilmer'
_symmetry_space_group_name_H-M	'P1'
_symmetry_Int_Tables_number	1
_symmetry_cell_setting	triclinic
loop_
_symmetry_equiv_pos_as_xyz
  x,y,z
_cell_length_a	8.965430
_cell_length_b	19.288864
_cell_length_c	19.288865
_cell_angle_alpha	83.136245
_cell_angle_beta	89.995194
_cell_angle_gamma	89.982363
loop_
_atom_site_label
_atom_site_type_symbol
_atom_site_fract_x
_atom_site_fract_y
_atom_site_fract_z
O1	O	0.124535	-0.921348	-0.086642
O2	O	0.457868	-0.588015	0.246691
O3	O	0.791201	-0.254682	0.580024
O4	O	0.124435	-0.719088	-0.098331
O5	O	0.457768	-0.385754	0.235002
O6	O	0.791102	-0.052421	0.568335
O7	O	0.124458	-0.826062	0.008643
O8	O	0.457791	-0.492729	0.341977
O9	O	0.791125	-0.159396	0.675310
O10	O	0.124511	-0.814374	-0.193617
O11	O	0.457845	-0.481040	0.139716
O12	O	0.791178	-0.147707	0.473050
O13	O	-0.123621	-0.826053	0.008636
O14	O	0.209713	-0.492720	0.341970
O15	O	0.543046	-0.159387	0.675303
O16	O	-0.123644	-0.719079	-0.098338
O17	O	0.209689	-0.385745	0.234995
O18	O	0.543023	-0.052412	0.568328
O19	O	-0.123544	-0.921339	-0.086650
O20	O	0.209789	-0.588006	0.246684
O21	O	0.543122	-0.254673	0.580017
Cu22	Cu	-0.146246	-0.820208	-0.092495
Cu23	Cu	0.187088	-0.486875	0.240839
Cu24	Cu	0.520421	-0.153541	0.574172
Cu25	Cu	0.147136	-0.820219	-0.092486
Cu26	Cu	0.480470	-0.486885	0.240847
Cu27	Cu	0.813803	-0.153552	0.574180
O28	O	-0.123567	-0.814364	-0.193624
O29	O	0.209766	-0.481031	0.139709
O30	O	0.543099	-0.147698	0.473042
C31	C	0.000382	-0.693207	-0.097959
C32	C	0.333716	-0.359873	0.235375
C33	C	0.667049	-0.026540	0.568708
C34	C	0.000343	-0.616103	-0.096830
C35	C	0.333676	-0.282770	0.236504
C36	C	0.667010	0.050564	0.569837
N37	N	-0.352595	-0.820206	-0.092500
N38	N	-0.019261	-0.486872	0.240833
N39	N	0.314072	-0.153539	0.574167
C40	C	0.000414	-0.825682	0.034516
C41	C	0.333747	-0.492348	0.367850
C42	C	0.667081	-0.159015	0.701183
C43	C	0.000400	-0.824553	0.111620
C44	C	0.333734	-0.491219	0.444953
C45	C	0.667067	-0.157886	0.778287
C46	C	-0.449911	-0.770718	-0.141956
C47	C	-0.116578	-0.437385	0.191377
C48	C	0.216755	-0.104052	0.524710
C49	C	-0.549289	-0.833443	-0.155238
C50	C	-0.215956	-0.500110	0.178096
C51	C	0.117377	-0.166776	0.511429
C52	C	-0.549344	-0.757508	-0.079224
C53	C	-0.216011	-0.424174	0.254109
C54	C	0.117322	-0.090841	0.587442
C55	C	-0.449784	-0.882962	-0.105813
C56	C	-0.116450	-0.549628	0.227520
C57	C	0.216883	-0.216295	0.560854
C58	C	-0.449830	-0.806985	-0.029772
C59	C	-0.116497	-0.473652	0.303561
C60	C	0.216837	-0.140318	0.636895
C61	C	-0.549163	-0.869755	-0.043027
C62	C	-0.215830	-0.536422	0.290306
C63	C	0.117504	-0.203088	0.623640
N64	N	0.353485	-0.820227	-0.092475
N65	N	0.686819	-0.486893	0.240858
N66	N	1.020152	-0.153560	0.574191
C67	C	0.000512	-0.947220	-0.087022
C68	C	0.333845	-0.613887	0.246311
C69	C	0.667178	-0.280553	0.579645
C70	C	0.000561	-1.024324	-0.088151
C71	C	0.333894	-0.690990	0.245182
C72	C	0.667227	-0.357657	0.578516
C73	C	0.000383	-0.571407	-0.159598
C74	C	0.333716	-0.238073	0.173736
C75	C	0.667050	0.095260	0.507069
C76	C	0.000399	-0.498960	-0.158537
C77	C	0.333733	-0.165626	0.174796
C78	C	0.667066	0.167707	0.508130
C79	C	0.000405	-0.471212	-0.094705
C80	C	0.333739	-0.137879	0.238629
C81	C	0.667072	0.195455	0.571962
C82	C	0.000357	-0.515918	-0.031929
C83	C	0.333690	-0.182585	0.301405
C84	C	0.667024	0.150748	0.634738
C85	C	0.000326	-0.588364	-0.032991
C86	C	0.333659	-0.255030	0.300342
C87	C	0.666992	0.078303	0.633676
C88	C	0.087355	-0.362953	-0.044523
C89	C	0.420689	-0.029620	0.288810
C90	C	0.754022	0.303713	0.622144
C91	C	0.087396	-0.290509	-0.043463
C92	C	0.420729	0.042825	0.289870
C93	C	0.754062	0.376158	0.623203
C94	C	0.000495	-0.247767	-0.091425
C95	C	0.333828	0.085567	0.241908
C96	C	0.667161	0.418900	0.575242
C97	C	-0.086427	-0.277476	-0.140459
C98	C	0.246906	0.055857	0.192875
C99	C	0.580239	0.389191	0.526208
C100	C	-0.086458	-0.349922	-0.141521
C101	C	0.246875	-0.016588	0.191812
C102	C	0.580208	0.316745	0.525146
C103	C	0.000438	-0.392658	-0.093546
C104	C	0.333772	-0.059325	0.239788
C105	C	0.667105	0.274009	0.573121
C106	C	0.000550	-0.124514	-0.153047
C107	C	0.333884	0.208819	0.180286
C108	C	0.667217	0.542152	0.513619
C109	C	0.000557	-0.052066	-0.151984
C110	C	0.333891	0.281267	0.181349
C111	C	0.667224	0.614600	0.514683
C112	C	0.000530	-0.069026	-0.025374
C113	C	0.333863	0.264307	0.307960
C114	C	0.667197	0.597640	0.641293
C115	C	0.000508	-0.141473	-0.026439
C116	C	0.333841	0.191860	0.306894
C117	C	0.667175	0.525194	0.640228
C118	C	0.000525	-0.169212	-0.090278
C119	C	0.333858	0.164121	0.243056
C120	C	0.667192	0.497454	0.576389
C121	C	0.000480	-0.814745	-0.219497
C122	C	0.333813	-0.481412	0.113836
C123	C	0.667147	-0.148078	0.447170
C124	C	0.000503	-0.815874	-0.296601
C125	C	0.333837	-0.482541	0.036733
C126	C	0.667170	-0.149207	0.370066
C127	C	0.000424	-0.887321	0.156316
C128	C	0.333757	-0.553987	0.489650
C129	C	0.667091	-0.220654	0.822983
C130	C	0.000447	-0.886260	0.228763
C131	C	0.333780	-0.552927	0.562097
C132	C	0.667114	-0.219593	0.895430
C133	C	0.000417	-0.822428	0.256511
C134	C	0.333750	-0.489094	0.589844
C135	C	0.667083	-0.155761	0.923178
C136	C	0.000401	-0.759652	0.211805
C137	C	0.333735	-0.426318	0.545138
C138	C	0.667068	-0.092985	0.878471
C139	C	0.000393	-0.760714	0.139359
C140	C	0.333727	-0.427381	0.472693
C141	C	0.667060	-0.094047	0.806026
C142	C	-0.086505	-0.772245	0.364796
C143	C	0.246829	-0.438912	0.698129
C144	C	0.580162	-0.105578	1.031462
C145	C	-0.086506	-0.771185	0.437240
C146	C	0.246827	-0.437852	0.770574
C147	C	0.580161	-0.104519	1.103907
C148	C	0.000448	-0.819148	0.479956
C149	C	0.333782	-0.485815	0.813290
C150	C	0.667115	-0.152481	1.146623
C151	C	0.087384	-0.868183	0.450221
C152	C	0.420718	-0.534849	0.783554
C153	C	0.754051	-0.201516	1.116888
C154	C	0.087376	-0.869245	0.377775
C155	C	0.420710	-0.535912	0.711109
C156	C	0.754043	-0.202578	1.044442
C157	C	0.000426	-0.821269	0.335065
C158	C	0.333760	-0.487935	0.668398
C159	C	0.667093	-0.154602	1.001732
C160	C	0.000499	-0.880770	0.603209
C161	C	0.333832	-0.547437	0.936542
C162	C	0.667166	-0.214104	1.269875
C163	C	0.000531	-0.879707	0.675657
C164	C	0.333865	-0.546374	1.008990
C165	C	0.667198	-0.213040	1.342323
C166	C	0.000471	-0.753097	0.658697
C167	C	0.333804	-0.419763	0.992030
C168	C	0.667137	-0.086430	1.325363
C169	C	0.000453	-0.754162	0.586250
C170	C	0.333787	-0.420829	0.919583
C171	C	0.667120	-0.087495	1.252917
C172	C	0.000461	-0.818000	0.558511
C173	C	0.333794	-0.484667	0.891844
C174	C	0.667127	-0.151334	1.225177
H175	H	-0.406332	-0.728907	-0.183817
H176	H	-0.072998	-0.395573	0.149516
H177	H	0.260335	-0.062240	0.482849
H178	H	-0.593079	-0.704476	-0.068006
H179	H	-0.259746	-0.371143	0.265327
H180	H	0.073587	-0.037810	0.598660
Cl181	Cl	0.000446	-0.442760	-0.237451
Cl182	Cl	0.333779	-0.109426	0.095882
Cl183	Cl	0.667113	0.223907	0.429216
Cl184	Cl	-0.616743	-0.850731	-0.237121
Cl185	Cl	-0.283409	-0.517398	0.096212
Cl186	Cl	0.049924	-0.184064	0.429546
Cl187	Cl	0.000600	0.004125	-0.230900
Cl188	Cl	0.333933	0.337459	0.102434
Cl189	Cl	0.667267	0.670792	0.435767
Cl190	Cl	0.000478	-0.965174	0.284963
Cl191	Cl	0.333811	-0.631841	0.618297
Cl192	Cl	0.667145	-0.298507	0.951630
H193	H	0.000627	-0.046435	0.026600
H194	H	0.333961	0.286898	0.359933
H195	H	0.667294	0.620231	0.693266
Cl196	Cl	0.000398	-0.606275	-0.239852
Cl197	Cl	0.333731	-0.272942	0.093482
Cl198	Cl	0.667064	0.060391	0.426815
H199	H	0.158179	-0.266325	-0.003540
H200	H	0.491512	0.067008	0.329793
H201	H	0.824845	0.400342	0.663127
H202	H	-0.406108	-0.795769	0.023248
H203	H	-0.072775	-0.462436	0.356581
H204	H	0.260559	-0.129102	0.689914
H205	H	0.000380	-0.707679	0.234401
H206	H	0.333713	-0.374346	0.567735
H207	H	0.667046	-0.041012	0.901068
Cl208	Cl	0.000467	-0.197666	0.052474
Cl209	Cl	0.333800	0.135668	0.385807
Cl210	Cl	0.667133	0.469001	0.719141
Cl211	Cl	-0.382559	-0.964857	-0.123229
Cl212	Cl	-0.049226	-0.631524	0.210104
Cl213	Cl	0.284107	-0.298191	0.543437
H214	H	-0.592469	-0.911659	-0.001190
H215	H	-0.259136	-0.578326	0.332143
H216	H	0.074198	-0.244993	0.665477
H217	H	0.000382	-0.493322	0.020044
H218	H	0.333716	-0.159988	0.353377
H219	H	0.667049	0.173345	0.686711
H220	H	-0.157238	-0.374108	-0.181444
H221	H	0.176095	-0.040775	0.151890
H222	H	0.509429	0.292558	0.485223
H223	H	-0.157192	-0.242676	-0.179513
H224	H	0.176142	0.090657	0.153820
H225	H	0.509475	0.423990	0.487153
H226	H	0.000542	-0.147101	-0.205028
H227	H	0.333876	0.186233	0.128305
H228	H	0.667209	0.519566	0.461638
H229	H	-0.157286	-0.731255	0.461445
H230	H	0.176048	-0.397922	0.794778
H231	H	0.509381	-0.064589	1.128111
H232	H	0.000426	-0.703049	0.549857
H233	H	0.333759	-0.369716	0.883190
H234	H	0.667092	-0.036383	1.216524
H235	H	0.158129	-0.397749	-0.005465
H236	H	0.491463	-0.064416	0.327868
H237	H	0.824796	0.268918	0.661201
H238	H	0.000294	-0.624756	0.018124
H239	H	0.333627	-0.291423	0.351457
H240	H	0.666961	0.041910	0.684790
H241	H	0.000512	-0.932751	0.580622
H242	H	0.333845	-0.599418	0.913956
H243	H	0.667178	-0.266085	1.247289
H244	H	0.000435	-0.939303	0.133736
H245	H	0.333768	-0.605970	0.467069
H246	H	0.667102	-0.272636	0.800403
Cl247	Cl	0.196672	-0.930881	0.340395
Cl248	Cl	0.530005	-0.597548	0.673728
Cl249	Cl	0.863339	-0.264214	1.007061
H250	H	0.158192	-0.907238	0.484999
H251	H	0.491525	-0.573905	0.818333
H252	H	0.824858	-0.240572	1.151666
Cl253	Cl	-0.195834	-0.711944	0.311102
Cl254	Cl	0.137499	-0.378611	0.644436
Cl255	Cl	0.470833	-0.045278	0.977769
Cl256	Cl	0.000441	-0.672850	0.693572
Cl257	Cl	0.333774	-0.339516	1.026906
Cl258	Cl	0.667108	-0.006183	1.360239
Cl259	Cl	0.000363	-0.681799	0.083166
Cl260	Cl	0.333696	-0.348466	0.416500
Cl261	Cl	0.667029	-0.015132	0.749833
H262	H	0.000559	-0.930822	0.712049
H263	H	0.333892	-0.597489	1.045382
H264	H	0.667226	-0.264156	1.378715
