data_functionalizedCrystal
_audit_creation_method	'MofGen! by Chris Wilmer'
_symmetry_space_group_name_H-M	'P1'
_symmetry_Int_Tables_number	1
_symmetry_cell_setting	triclinic
loop_
_symmetry_equiv_pos_as_xyz
  x,y,z
_cell_length_a	18.050582
_cell_length_b	13.032831
_cell_length_c	13.032721
_cell_angle_alpha	89.097115
_cell_angle_beta	97.158902
_cell_angle_gamma	97.186361
loop_
_atom_site_label
_atom_site_type_symbol
_atom_site_fract_x
_atom_site_fract_y
_atom_site_fract_z
Zn1	Zn	-0.611866	-1.520186	-0.609483
Zn2	Zn	-0.501217	-1.498238	-0.781442
Zn3	Zn	-0.470225	-1.348217	-0.587626
Zn4	Zn	-0.607901	-1.326334	-0.759530
O5	O	-0.547802	-1.423244	-0.684521
O6	O	-0.611818	-1.661186	-0.650612
O7	O	-0.393181	-1.478310	-0.755755
O8	O	-0.477703	-1.389372	-0.446618
O9	O	-0.530524	-1.645061	-0.776949
O10	O	-0.581766	-1.515717	-0.462677
O11	O	-0.370411	-1.368090	-0.613360
O12	O	-0.473859	-1.201402	-0.592112
O13	O	-0.712352	-1.352076	-0.739603
O14	O	-0.575009	-1.185325	-0.718409
O15	O	-0.715265	-1.494498	-0.629364
O16	O	-0.526679	-1.457091	-0.922443
O17	O	-0.605060	-1.330794	-0.906344
C18	C	-0.520641	-1.156049	-0.650512
C19	C	-0.509041	-1.041739	-0.635987
C20	C	-0.568821	-1.389215	-0.951711
C21	C	-0.577848	-1.374751	-1.066028
C22	C	-0.741509	-1.423294	-0.684477
C23	C	-0.824055	-1.423316	-0.684459
C24	C	-1.071294	-1.345945	-0.744303
C25	C	-1.011962	-1.332728	-0.647302
C26	C	-1.121172	-1.423422	-0.684319
C27	C	-1.033419	-1.436540	-0.781377
C28	C	-0.975189	-1.423367	-0.684392
C29	C	-1.062918	-1.410163	-0.587262
C30	C	-1.084389	-1.514010	-0.721405
C31	C	-1.025078	-1.500836	-0.624345
C32	C	-1.205269	-1.423451	-0.684277
C33	C	-0.891092	-1.423339	-0.684423
C34	C	-0.354850	-1.423262	-0.684497
C35	C	-0.272301	-1.423476	-0.684251
C36	C	-0.575070	-1.691482	-0.718663
C37	C	-0.586690	-1.805789	-0.733212
C38	C	-0.553856	-0.982836	-0.692101
C39	C	-0.541868	-0.864690	-0.677091
C40	C	-0.543130	-1.430847	-1.124932
C41	C	-0.552459	-1.415900	-1.243085
C42	C	-0.526720	-1.457434	-0.416291
C43	C	-0.517736	-1.472003	-0.301987
H44	H	-1.091625	-1.280414	-0.794919
O45	O	-0.616445	-1.031876	-0.770457
H46	H	-0.671299	-1.013572	-0.750322
O47	O	-0.626365	-1.296472	-1.115090
H48	H	-0.684835	-1.316647	-1.096716
H49	H	-0.980527	-1.256097	-0.615961
O50	O	-0.479270	-0.815648	-0.598744
H51	H	-0.479668	-0.730546	-0.599263
H52	H	-1.076107	-1.398956	-0.505178
H53	H	-0.481108	-1.531104	-1.264951
H54	H	-1.004869	-1.566341	-0.573583
O55	O	-0.649280	-0.854827	-0.811573
H56	H	-0.648874	-0.939927	-0.811071
H57	H	-0.461800	-1.004701	-0.576829
O58	O	-1.126086	-1.615458	-0.762963
H59	H	-1.114590	-1.626182	-0.843554
H60	H	-0.506504	-1.489944	-1.087893
O61	O	-0.600974	-1.337609	-1.292137
H62	H	-0.647289	-1.377460	-1.346876
O63	O	-1.015814	-1.451283	-0.890058
H64	H	-1.034261	-1.386898	-0.939657
