data_functionalizedCrystal
_audit_creation_method	'MofGen! by Chris Wilmer'
_symmetry_space_group_name_H-M	'P1'
_symmetry_Int_Tables_number	1
_symmetry_cell_setting	triclinic
loop_
_symmetry_equiv_pos_as_xyz
  x,y,z
_cell_length_a	15.455379
_cell_length_b	16.992694
_cell_length_c	16.992695
_cell_angle_alpha	89.331777
_cell_angle_beta	87.182553
_cell_angle_gamma	92.824304
loop_
_atom_site_label
_atom_site_type_symbol
_atom_site_fract_x
_atom_site_fract_y
_atom_site_fract_z
O1	O	0.072022	-1.047586	0.163653
O2	O	0.572022	-0.547586	0.663653
O3	O	0.072048	-0.819185	0.161821
O4	O	0.572048	-0.319185	0.661821
O5	O	0.072028	-0.932470	0.048537
O6	O	0.572028	-0.432470	0.548537
O7	O	0.072042	-0.934301	0.276936
O8	O	0.572042	-0.434301	0.776936
O9	O	-0.072232	-0.938998	0.055070
O10	O	0.427768	-0.438998	0.555070
O11	O	-0.072213	-0.825713	0.168353
O12	O	0.427787	-0.325713	0.668353
O13	O	-0.072238	-1.054114	0.170186
O14	O	0.427762	-0.554114	0.670186
Cu15	Cu	-0.085398	-0.940510	0.169866
Cu16	Cu	0.414602	-0.440510	0.669866
Cu17	Cu	0.085207	-0.932789	0.162140
Cu18	Cu	0.585207	-0.432789	0.662140
O19	O	-0.072219	-0.940829	0.283469
O20	O	0.427781	-0.440829	0.783469
C21	C	-0.000079	-0.793089	0.162731
C22	C	0.499921	-0.293089	0.662731
C23	C	-0.000070	-0.705604	0.155702
C24	C	0.499930	-0.205604	0.655702
N25	N	-0.205392	-0.945945	0.175300
N26	N	0.294608	-0.445945	0.675300
N27	N	0.205202	-0.927360	0.156701
N28	N	0.705202	-0.427360	0.656701
C29	C	-0.000102	-0.933378	0.022443
C30	C	0.499898	-0.433378	0.522443
C31	C	-0.000101	-0.926350	-0.065041
C32	C	0.499899	-0.426350	0.434959
C33	C	0.749203	-0.897358	0.126509
C34	C	1.249203	-0.397358	0.626509
C35	C	0.658396	-0.901457	0.130642
C36	C	1.158396	-0.401457	0.630642
C37	C	0.612996	-0.954147	0.183561
C38	C	1.112996	-0.454147	0.683561
C39	C	0.658406	-1.002736	0.232357
C40	C	1.158406	-0.502736	0.732357
C41	C	0.749212	-0.998633	0.228228
C42	C	1.249212	-0.498633	0.728228
C43	C	0.341418	-0.971846	0.201367
C44	C	0.841418	-0.471846	0.701367
C45	C	0.250606	-0.975947	0.205491
C46	C	0.750606	-0.475947	0.705491
C47	C	0.250602	-0.874666	0.103776
C48	C	0.750602	-0.374666	0.603776
C49	C	0.341410	-0.870570	0.099648
C50	C	0.841410	-0.370570	0.599648
C51	C	0.386812	-0.919157	0.148447
C52	C	0.886812	-0.419157	0.648447
N53	N	0.520176	-0.958340	0.187785
N54	N	1.020176	-0.458340	0.687785
N55	N	0.479630	-0.914960	0.144227
N56	N	0.979630	-0.414960	0.644227
C57	C	-0.000109	-1.080210	0.169275
C58	C	0.499891	-0.580210	0.669275
C59	C	-0.000113	-1.167695	0.176304
C60	C	0.499887	-0.667695	0.676304
C61	C	-0.000066	-0.659613	0.223520
C62	C	0.499934	-0.159613	0.723520
C63	C	-0.000079	-0.577412	0.216911
C64	C	0.499921	-0.077412	0.716911
C65	C	-0.000088	-0.541205	0.142484
C66	C	0.499912	-0.041205	0.642484
C67	C	-0.000094	-0.587202	0.074661
C68	C	0.499906	-0.087202	0.574661
C69	C	-0.000088	-0.669401	0.081271
C70	C	0.499912	-0.169401	0.581271
C71	C	-0.000113	-0.295891	0.115091
C72	C	0.499887	0.204109	0.615091
C73	C	-0.000116	-0.213686	0.108486
C74	C	0.499884	0.286314	0.608486
C75	C	-0.000103	-0.203903	0.250737
C76	C	0.499897	0.296097	0.750737
C77	C	-0.000091	-0.286103	0.257340
C78	C	0.499909	0.213897	0.757340
C79	C	-0.000102	-0.332093	0.189517
C80	C	0.499898	0.167907	0.689517
N81	N	-0.000098	-0.457183	0.135727
N82	N	0.499902	0.042817	0.635727
N83	N	-0.000098	-0.416114	0.196275
N84	N	0.499902	0.083886	0.696275
C85	C	-0.000109	-0.994168	-0.111032
C86	C	0.499891	-0.494168	0.388968
C87	C	-0.000100	-0.987559	-0.193233
C88	C	0.499900	-0.487559	0.306767
C89	C	-0.000089	-0.913131	-0.229442
C90	C	0.499911	-0.413131	0.270558
C91	C	-0.000078	-0.845307	-0.183445
C92	C	0.499922	-0.345307	0.316555
C93	C	-0.000081	-0.851917	-0.101246
C94	C	0.499919	-0.351917	0.398754
C95	C	-0.000074	-0.885735	-0.474757
C96	C	0.499926	-0.385735	0.025243
C97	C	-0.000074	-0.879131	-0.556962
C98	C	0.499926	-0.379131	-0.056962
C99	C	-0.000094	-1.021383	-0.566744
C100	C	0.499906	-0.521383	-0.066744
C101	C	-0.000102	-1.027987	-0.484543
C102	C	0.499898	-0.527987	0.015457
C103	C	-0.000087	-0.960163	-0.438554
C104	C	0.499913	-0.460163	0.061446
N105	N	-0.000082	-0.906373	-0.313464
N106	N	0.499918	-0.406373	0.186536
N107	N	-0.000087	-0.966921	-0.354533
N108	N	0.499913	-0.466921	0.145467
C109	C	-0.000087	-0.939921	0.309563
C110	C	0.499913	-0.439921	0.809563
C111	C	-0.000082	-0.946949	0.397047
C112	C	0.499918	-0.446949	0.897047
H113	H	0.786162	-0.854454	0.083414
H114	H	1.286162	-0.354454	0.583414
H115	H	-0.000074	-0.315577	0.317946
H116	H	0.499926	0.184423	0.817946
Br117	Br	-0.000148	-0.164548	0.007472
Br118	Br	0.499852	0.335452	0.507472
Br119	Br	0.810834	-1.064576	0.294447
Br120	Br	1.310834	-0.564576	0.794447
Br121	Br	-0.000044	-0.708743	0.324533
Br122	Br	0.499956	-0.208743	0.824533
H123	H	-0.000106	-1.076601	-0.604197
H124	H	0.499894	-0.576601	-0.104197
Br125	Br	-0.000129	-0.358297	0.023045
Br126	Br	0.499871	0.141703	0.523045
H127	H	-0.000075	-0.539970	0.272136
H128	H	0.499925	-0.039970	0.772136
H129	H	-0.000090	-0.706846	0.026046
H130	H	0.499910	-0.206846	0.526046
Br131	Br	-0.000089	-0.141484	0.342777
Br132	Br	0.499911	0.358516	0.842777
Br133	Br	-0.000048	-0.744295	-0.232586
Br134	Br	0.499952	-0.244295	0.267414
Br135	Br	-0.000137	-1.095183	-0.061899
Br136	Br	0.499863	-0.595183	0.438101
H137	H	-0.000114	-0.557715	0.014061
H138	H	0.499886	-0.057715	0.514061
H139	H	-0.000061	-0.830508	-0.437322
H140	H	0.499939	-0.330508	0.062678
H141	H	0.621434	-1.045635	0.275449
H142	H	1.121434	-0.545635	0.775449
Br143	Br	-0.000111	-1.079602	-0.255646
Br144	Br	0.499889	-0.579602	0.244354
H145	H	-0.000112	-1.088594	-0.455068
H146	H	0.499888	-0.588594	0.044932
H147	H	-0.000073	-0.796692	-0.063801
H148	H	0.499927	-0.296692	0.436199
Br149	Br	-0.000067	-0.778115	-0.606102
Br150	Br	0.499933	-0.278115	-0.106102
Br151	Br	0.403019	-0.799029	0.027856
Br152	Br	0.903019	-0.299029	0.527856
Br153	Br	0.596779	-0.835508	0.064428
Br154	Br	1.096779	-0.335508	0.564428
H155	H	0.213643	-1.018855	0.248588
H156	H	0.713643	-0.518855	0.748588
Br157	Br	0.403025	-1.037757	0.267622
Br158	Br	0.903025	-0.537757	0.767622
Br159	Br	0.188980	-0.808728	0.037556
Br160	Br	0.688980	-0.308728	0.537556
