data_functionalizedCrystal
_audit_creation_method	'MofGen! by Chris Wilmer'
_symmetry_space_group_name_H-M	'P1'
_symmetry_Int_Tables_number	1
_symmetry_cell_setting	triclinic
loop_
_symmetry_equiv_pos_as_xyz
  x,y,z
_cell_length_a	12.759401
_cell_length_b	12.759399
_cell_length_c	18.215399
_cell_angle_alpha	90.024962
_cell_angle_beta	90.017510
_cell_angle_gamma	90.013324
loop_
_atom_site_label
_atom_site_type_symbol
_atom_site_fract_x
_atom_site_fract_y
_atom_site_fract_z
Zn1	Zn	-1.606232	0.418327	-0.416086
Zn2	Zn	-1.272898	0.751661	-0.082752
Zn3	Zn	-0.939565	1.084994	0.250581
Zn4	Zn	-1.606131	0.594025	-0.293026
Zn5	Zn	-1.272797	0.927358	0.040308
Zn6	Zn	-0.939464	1.260691	0.373641
Zn7	Zn	-1.430540	0.418355	-0.293038
Zn8	Zn	-1.097206	0.751688	0.040295
Zn9	Zn	-0.763873	1.085021	0.373629
Zn10	Zn	-1.430521	0.593959	-0.416056
Zn11	Zn	-1.097188	0.927293	-0.082722
Zn12	Zn	-0.763854	1.260626	0.250611
O13	O	-1.518356	0.506167	-0.354551
O14	O	-1.185022	0.839500	-0.021218
O15	O	-0.851689	1.172833	0.312116
O16	O	-1.753239	0.441650	-0.399769
O17	O	-1.419906	0.774983	-0.066435
O18	O	-1.086573	1.108316	0.266898
O19	O	-1.582804	0.570761	-0.190043
O20	O	-1.249471	0.904094	0.143290
O21	O	-0.916137	1.237427	0.476624
O22	O	-1.453896	0.271330	-0.309378
O23	O	-1.120562	0.604663	0.023955
O24	O	-0.787229	0.937997	0.357289
O25	O	-1.753165	0.570734	-0.309357
O26	O	-1.419832	0.904067	0.023976
O27	O	-1.086499	1.237401	0.357309
O28	O	-1.582976	0.271310	-0.399781
O29	O	-1.249642	0.604643	-0.066447
O30	O	-0.916309	0.937977	0.266886
O31	O	-1.453798	0.441697	-0.190052
O32	O	-1.120465	0.775030	0.143281
O33	O	-0.787131	1.108363	0.476615
O34	O	-1.283516	0.441633	-0.309349
O35	O	-0.950183	0.774967	0.023984
O36	O	-0.616850	1.108300	0.357318
O37	O	-1.453864	0.570622	-0.519044
O38	O	-1.120530	0.903956	-0.185711
O39	O	-0.787197	1.237289	0.147623
O40	O	-1.283502	0.570649	-0.399730
O41	O	-0.950169	0.903982	-0.066396
O42	O	-0.616836	1.237316	0.266937
O43	O	-1.582958	0.441586	-0.519066
O44	O	-1.249624	0.774920	-0.185733
O45	O	-0.916291	1.108253	0.147601
O46	O	-1.582786	0.741037	-0.309328
O47	O	-1.249452	1.074370	0.024005
O48	O	-0.916119	1.407704	0.357338
O49	O	-1.453766	0.740989	-0.399718
O50	O	-1.120433	1.074322	-0.066384
O51	O	-0.787099	1.407656	0.266949
C52	C	-1.245388	0.506138	-0.354538
C53	C	-0.912055	0.839471	-0.021204
C54	C	-0.578722	1.172805	0.312129
C55	C	-1.128612	0.506151	-0.354550
C56	C	-0.795278	0.839484	-0.021216
C57	C	-0.461945	1.172818	0.312117
C58	C	-1.073789	0.439056	-0.401699
C59	C	-0.740456	0.772390	-0.068365
C60	C	-0.407122	1.105723	0.264968
C61	C	-0.964065	0.439063	-0.401702
C62	C	-0.630732	0.772396	-0.068369
C63	C	-0.297398	1.105729	0.264964
C64	C	-0.963996	0.573268	-0.307406
C65	C	-0.630663	0.906601	0.025928
C66	C	-0.297329	1.239934	0.359261
C67	C	-1.073718	0.573255	-0.307399
C68	C	-0.740385	0.906588	0.025935
C69	C	-0.407051	1.239922	0.359268
C70	C	-1.518291	0.779134	-0.354534
C71	C	-1.184958	1.112467	-0.021201
C72	C	-0.851625	1.445801	0.312132
C73	C	-1.518360	0.895911	-0.354552
C74	C	-1.185027	1.229244	-0.021219
C75	C	-0.851693	1.562577	0.312115
C76	C	-1.518420	0.506094	-0.546504
C77	C	-1.185086	0.839427	-0.213171
C78	C	-0.851753	1.172761	0.120163
C79	C	-1.518447	0.506063	-0.628303
C80	C	-1.185114	0.839397	-0.294970
C81	C	-0.851780	1.172730	0.038364
C82	C	-0.792389	0.506186	-0.354562
C83	C	-0.459056	0.839520	-0.021229
C84	C	-0.125722	1.172853	0.312104
C85	C	-0.909166	0.506170	-0.354560
C86	C	-0.575832	0.839503	-0.021227
C87	C	-0.242499	1.172837	0.312107
C88	C	-1.518449	0.232133	-0.354584
C89	C	-1.185116	0.565467	-0.021251
C90	C	-0.851782	0.898800	0.312083
C91	C	-1.518489	0.115357	-0.354598
C92	C	-1.185155	0.448690	-0.021265
C93	C	-0.851822	0.782023	0.312069
C94	C	-1.585617	0.950763	-0.307540
C95	C	-1.252284	1.284096	0.025794
C96	C	-0.918951	1.617429	0.359127
C97	C	-1.585685	1.060487	-0.307564
C98	C	-1.252351	1.393820	0.025769
C99	C	-0.919018	1.727153	0.359102
C100	C	-1.451229	1.060497	-0.401616
C101	C	-1.117895	1.393830	-0.068282
C102	C	-0.784562	1.727164	0.265051
C103	C	-1.451167	0.950775	-0.401594
C104	C	-1.117834	1.284108	-0.068261
C105	C	-0.784500	1.617441	0.265073
C106	C	-1.585690	0.438811	-0.816510
C107	C	-1.252357	0.772145	-0.483176
C108	C	-0.919024	1.105478	-0.149843
C109	C	-1.585703	0.438781	-0.893369
C110	C	-1.252370	0.772114	-0.560035
C111	C	-0.919036	1.105447	-0.226702
C112	C	-1.451278	0.573153	-0.893334
C113	C	-1.117945	0.906486	-0.560001
C114	C	-0.784611	1.239819	-0.226668
C115	C	-1.451261	0.573177	-0.816477
C116	C	-1.117928	0.906511	-0.483144
C117	C	-0.784594	1.239844	-0.149810
C118	C	-1.518473	0.506008	-0.778067
C119	C	-1.185140	0.839341	-0.444733
C120	C	-0.851806	1.172675	-0.111400
C121	C	-1.518503	0.505953	-0.931783
C122	C	-1.185169	0.839286	-0.598450
C123	C	-0.851836	1.172620	-0.265116
C124	C	-1.518516	0.505920	-1.015117
C125	C	-1.185182	0.839254	-0.681783
C126	C	-0.851849	1.172587	-0.348450
C127	C	-1.518459	0.506039	-0.694728
C128	C	-1.185126	0.839372	-0.361394
C129	C	-0.851792	1.172706	-0.028061
C130	C	-1.518352	0.506163	-0.163345
C131	C	-1.185019	0.839496	0.169988
C132	C	-0.851686	1.172830	0.503322
C133	C	-1.518529	0.505898	-0.081546
C134	C	-1.185195	0.839231	0.251787
C135	C	-0.851862	1.172564	0.585120
H136	H	-1.118356	0.627893	-0.269000
H137	H	-0.785023	0.961226	0.064333
H138	H	-0.451689	1.294559	0.397667
H139	H	-0.919288	0.627902	-0.269018
H140	H	-0.585955	0.961236	0.064316
H141	H	-0.252622	1.294569	0.397649
H142	H	-1.640416	0.384115	-0.785238
H143	H	-1.307083	0.717448	-0.451905
H144	H	-0.973749	1.050782	-0.118572
C145	C	-1.659652	0.364878	-0.935656
C146	C	-1.326318	0.698211	-0.602323
C147	C	-0.992985	1.031545	-0.268990
H148	H	-1.650034	0.374475	-0.986931
H149	H	-1.316700	0.707809	-0.653598
H150	H	-0.983367	1.041142	-0.320265
H151	H	-1.730231	0.380273	-0.923064
H152	H	-1.396898	0.713606	-0.589730
H153	H	-1.063565	1.046940	-0.256397
H154	H	-1.644298	0.294284	-0.923070
H155	H	-1.310965	0.627617	-0.589737
H156	H	-0.977631	0.960951	-0.256403
C157	C	-1.377360	0.647042	-0.935588
C158	C	-1.044027	0.980375	-0.602255
C159	C	-0.710694	1.313708	-0.268921
H160	H	-1.387004	0.637412	-0.986868
H161	H	-1.053671	0.970746	-0.653534
H162	H	-0.720337	1.304079	-0.320201
H163	H	-1.306770	0.631669	-0.922989
H164	H	-0.973437	0.965003	-0.589656
H165	H	-0.640104	1.298336	-0.256322
H166	H	-1.392722	0.717640	-0.922981
H167	H	-1.059389	1.050973	-0.589648
H168	H	-0.726055	1.384307	-0.256315
C169	C	-1.377325	0.647104	-0.774187
C170	C	-1.043992	0.980437	-0.440853
C171	C	-0.710658	1.313771	-0.107520
H172	H	-1.337311	0.687116	-0.808069
H173	H	-1.003977	1.020449	-0.474735
H174	H	-0.670644	1.353783	-0.141402
H175	H	-1.331554	0.606925	-0.744203
H176	H	-0.998221	0.940258	-0.410870
H177	H	-0.664888	1.273591	-0.077537
H178	H	-1.417507	0.692894	-0.744205
H179	H	-1.084174	1.026227	-0.410871
H180	H	-0.750841	1.359560	-0.077538
H181	H	-1.640331	0.906095	-0.269236
H182	H	-1.306998	1.239428	0.064097
H183	H	-0.973665	1.572761	0.397431
H184	H	-1.118480	0.384412	-0.440090
H185	H	-0.785147	0.717746	-0.106756
H186	H	-0.451813	1.051079	0.226577
H187	H	-0.919433	0.384426	-0.440095
H188	H	-0.586100	0.717759	-0.106762
H189	H	-0.252766	1.051092	0.226572
C190	C	-1.659663	1.120820	-0.255847
C191	C	-1.326329	1.454153	0.077486
C192	C	-0.992996	1.787486	0.410819
H193	H	-1.699663	1.072426	-0.227826
H194	H	-1.366329	1.405760	0.105508
H195	H	-1.032996	1.739093	0.438841
H196	H	-1.705445	1.163557	-0.284032
H197	H	-1.372112	1.496890	0.049302
H198	H	-1.038778	1.830223	0.382635
H199	H	-1.619514	1.163686	-0.223765
H200	H	-1.286181	1.497019	0.109569
H201	H	-0.952847	1.830353	0.442902
H202	H	-1.396521	1.105181	-0.439915
H203	H	-1.063188	1.438514	-0.106581
H204	H	-0.729854	1.771847	0.226752
H205	H	-1.396398	0.906111	-0.439881
H206	H	-1.063065	1.239445	-0.106547
H207	H	-0.729731	1.572778	0.226786
