data_functionalizedCrystal
_audit_creation_method	'MofGen! by Chris Wilmer'
_symmetry_space_group_name_H-M	'P1'
_symmetry_Int_Tables_number	1
_symmetry_cell_setting	triclinic
loop_
_symmetry_equiv_pos_as_xyz
  x,y,z
_cell_length_a	35.288113
_cell_length_b	35.282844
_cell_length_c	35.277682
_cell_angle_alpha	120.000030
_cell_angle_beta	90.000425
_cell_angle_gamma	59.985448
loop_
_atom_site_label
_atom_site_type_symbol
_atom_site_fract_x
_atom_site_fract_y
_atom_site_fract_z
O1	O	-0.259855	-0.334376	-0.011290
O2	O	-0.204773	-0.256750	0.011214
O3	O	-0.204747	-0.334374	-0.066414
O4	O	-0.259881	-0.256752	0.066338
O5	O	-0.267796	-0.271323	-0.066407
O6	O	-0.267822	-0.193699	0.011221
O7	O	-0.322904	-0.271325	-0.011283
Cu8	Cu	-0.301120	-0.226755	-0.000030
Cu9	Cu	-0.226557	-0.301320	-0.000039
O10	O	-0.322930	-0.193701	0.066345
C11	C	-0.095943	0.006465	0.034094
C12	C	-0.118849	-0.016235	0.034417
C13	C	-0.027301	-0.062175	0.034097
C14	C	-0.050311	-0.084771	0.034420
C15	C	-0.095925	-0.062174	0.034099
C16	C	-0.050330	-0.016236	0.034415
C17	C	-0.137887	0.159560	0.021655
C18	C	-0.159497	0.202921	0.018138
C19	C	-0.204697	0.224672	0.016374
C20	C	-0.228128	0.271681	0.012552
C21	C	-0.228287	0.203062	0.018130
C22	C	-0.206678	0.159710	0.021653
C23	C	-0.161476	0.137959	0.023415
C24	C	-0.207065	-0.116515	0.021677
C25	C	-0.228810	-0.141634	0.018165
C26	C	-0.205351	-0.188603	0.016402
C27	C	-0.228920	-0.215846	0.012587
C28	C	-0.160145	-0.210451	0.018156
C29	C	-0.138404	-0.185328	0.021676
C30	C	-0.161869	-0.138359	0.023433
C31	C	0.138198	-0.116522	0.021668
C32	C	0.185071	-0.141646	0.018149
C33	C	0.208593	-0.188615	0.016388
C34	C	0.259415	-0.215860	0.012569
C35	C	0.185242	-0.210462	0.018142
C36	C	0.138371	-0.185338	0.021659
C37	C	0.114851	-0.138364	0.023426
C38	C	-0.138047	0.090946	0.027231
C39	C	-0.119372	0.053474	0.030274
C40	C	0.023519	-0.089416	0.030281
C41	C	0.064029	-0.111128	0.027240
C42	C	-0.119498	-0.089413	0.030284
C43	C	-0.138290	-0.111124	0.027245
C44	C	-0.364258	-0.456770	-0.023612
C45	C	-0.340857	-0.503556	-0.020399
C46	C	-0.409872	-0.434067	-0.023931
C47	C	-0.364282	-0.388121	-0.023604
C48	C	-0.340907	-0.361507	-0.020382
C49	C	-0.409896	-0.365522	-0.023922
C50	C	-0.432903	-0.388122	-0.023605
C51	C	-0.482899	-0.361511	-0.020383
C52	C	-0.341354	-0.434065	-0.023930
C53	C	-0.523291	-0.340011	-0.017779
C54	C	-0.321952	-0.541354	-0.017801
C55	C	-0.322022	-0.340006	-0.017777
C56	C	-0.573964	-0.313038	-0.014513
C57	C	-0.298234	-0.588774	-0.014544
C58	C	-0.298331	-0.313032	-0.014510
C59	C	-0.095801	-0.466212	-0.438584
C60	C	-0.050179	-0.512156	-0.461507
C61	C	-0.095801	-0.466212	-0.369941
C62	C	-0.050179	-0.512156	-0.392968
C63	C	-0.027156	-0.534859	-0.438590
C64	C	-0.118720	-0.443613	-0.392961
C65	C	-0.206997	-0.342589	-0.480488
C66	C	-0.228756	-0.317316	-0.502091
C67	C	-0.205301	-0.339009	-0.547300
C68	C	-0.228889	-0.311603	-0.570723
C69	C	-0.160085	-0.385979	-0.570907
C70	C	-0.138332	-0.411252	-0.549306
C71	C	-0.161789	-0.389555	-0.504094
C72	C	0.138377	-0.687972	-0.549793
C73	C	0.185255	-0.731338	-0.571555
C74	C	0.208773	-0.753091	-0.548104
C75	C	0.259601	-0.800105	-0.571692
C76	C	0.185407	-0.731478	-0.502888
C77	C	0.138530	-0.688121	-0.481130
C78	C	0.115018	-0.666368	-0.504588
C79	C	-0.206997	-0.342589	-0.204397
C80	C	-0.228755	-0.317311	-0.157516
C81	C	-0.205299	-0.339004	-0.134002
C82	C	-0.228887	-0.311598	-0.083170
C83	C	-0.160086	-0.385970	-0.157370
C84	C	-0.138330	-0.411243	-0.204250
C85	C	-0.161792	-0.389551	-0.227761
C86	C	-0.138195	-0.416961	-0.480674
C87	C	-0.119391	-0.438806	-0.462005
C88	C	-0.119391	-0.438806	-0.319111
C89	C	-0.138196	-0.416961	-0.278594
C90	C	0.023672	-0.581873	-0.462183
C91	C	0.064188	-0.619349	-0.480990
O92	O	0.408892	-0.271336	-0.011291
O93	O	0.276164	-0.193713	0.011202
O94	O	0.353787	-0.271346	-0.066421
O95	O	0.331268	-0.193702	0.066332
O96	O	0.353804	-0.334390	-0.066416
O97	O	0.276180	-0.256756	0.011207
O98	O	0.408908	-0.334379	-0.011287
Cu99	Cu	0.342546	-0.301324	-0.000040
Cu100	Cu	0.342526	-0.226768	-0.000045
O101	O	0.331285	-0.256745	0.066337
O102	O	-0.322789	0.397311	-0.011322
O103	O	-0.267651	0.287070	0.011181
O104	O	-0.267645	0.287053	-0.066446
O105	O	-0.322795	0.397328	0.066305
O106	O	-0.204616	0.287052	-0.066448
O107	O	-0.204623	0.287069	0.011179
O108	O	-0.259760	0.397310	-0.011323
Cu109	Cu	-0.226437	0.342189	-0.000072
Cu110	Cu	-0.300975	0.342190	-0.000070
O111	O	-0.259767	0.397327	0.066304
O112	O	0.409101	-0.925752	-0.602685
O113	O	0.276361	-0.815495	-0.547552
O114	O	0.353955	-0.815494	-0.547549
O115	O	0.331506	-0.925753	-0.602687
O116	O	0.353957	-0.815495	-0.610597
O117	O	0.276362	-0.815497	-0.610599
O118	O	0.409103	-0.925753	-0.665732
Cu119	Cu	0.342733	-0.870625	-0.643922
Cu120	Cu	0.342731	-0.870623	-0.569362
O121	O	0.331508	-0.925755	-0.665734
O122	O	-0.259884	-0.256748	-0.665371
O123	O	-0.204748	-0.334374	-0.610256
O124	O	-0.204775	-0.256748	-0.610246
O125	O	-0.259857	-0.334373	-0.665381
O126	O	-0.267823	-0.193698	-0.547193
O127	O	-0.267795	-0.271324	-0.547203
O128	O	-0.322932	-0.193698	-0.602318
Cu129	Cu	-0.301121	-0.226754	-0.569003
Cu130	Cu	-0.226559	-0.301318	-0.643571
O131	O	-0.322905	-0.271324	-0.602328
C132	C	-0.433013	-0.071311	0.293214
C133	C	-0.483015	-0.024525	0.316610
C134	C	-0.409990	-0.094014	0.316131
C135	C	-0.364367	-0.139958	0.224565
C136	C	-0.340974	-0.166571	0.174561
C137	C	-0.341449	-0.162557	0.247586
C138	C	-0.364368	-0.139958	0.293208
C139	C	-0.340975	-0.166569	0.316598
C140	C	-0.409989	-0.094015	0.247592
C141	C	-0.322076	-0.188069	0.335493
C142	C	-0.523412	0.013272	0.335510
C143	C	-0.322074	-0.188072	0.134162
C144	C	-0.298367	-0.215042	0.359199
C145	C	-0.574092	0.060691	0.359223
C146	C	-0.298364	-0.215045	0.083480
C147	C	0.318955	-0.139933	0.293205
C148	C	0.322181	-0.166539	0.316599
C149	C	0.318623	-0.093991	0.316121
C150	C	0.318954	-0.139943	0.224557
C151	C	0.322178	-0.166559	0.174553
C152	C	0.318622	-0.094001	0.247578
C153	C	0.318938	-0.071294	0.293200
C154	C	0.322144	-0.024511	0.316589
C155	C	0.318639	-0.162536	0.247583
C156	C	0.324736	0.013285	0.335484
C157	C	0.324788	-0.188034	0.335499
C158	C	0.324784	-0.188064	0.134154
C159	C	0.327987	0.060702	0.359190
C160	C	0.328058	-0.215001	0.359211
C161	C	0.328052	-0.215041	0.083473
C162	C	-0.364296	0.611920	0.293175
C163	C	-0.340922	0.638535	0.316568
C164	C	-0.409912	0.634522	0.316095
C165	C	-0.364270	0.543265	0.224529
C166	C	-0.340868	0.496473	0.174524
C167	C	-0.409885	0.565971	0.247553
C168	C	-0.432919	0.611920	0.293175
C169	C	-0.482915	0.638534	0.316567
C170	C	-0.341367	0.565971	0.247553
C171	C	-0.523308	0.660036	0.335466
C172	C	-0.322038	0.660038	0.335466
C173	C	-0.321961	0.458671	0.134125
C174	C	-0.573982	0.687011	0.359175
C175	C	-0.298347	0.687014	0.359175
C176	C	-0.298242	0.411245	0.083443
C177	C	0.376736	-0.534611	-0.438590
C178	C	0.377050	-0.511914	-0.461511
C179	C	0.376720	-0.465962	-0.369947
C180	C	0.377034	-0.443369	-0.392973
C181	C	0.376718	-0.465972	-0.438594
C182	C	0.377052	-0.511904	-0.392968
C183	C	0.364351	-0.687713	-0.480496
C184	C	0.360850	-0.731076	-0.502099
C185	C	0.359091	-0.752833	-0.547308
C186	C	0.355285	-0.799845	-0.570731
C187	C	0.360838	-0.731227	-0.570913
C188	C	0.364346	-0.687871	-0.549312
C189	C	0.366103	-0.666114	-0.504101
C190	C	0.364277	-0.411646	-0.549793
C191	C	0.360757	-0.386531	-0.571554
C192	C	0.358979	-0.339558	-0.548101
C193	C	0.355156	-0.312319	-0.571688
C194	C	0.360728	-0.317705	-0.502887
C195	C	0.364256	-0.342824	-0.481130
C196	C	0.366027	-0.389797	-0.504588
C197	C	0.364285	-0.411596	-0.204405
C198	C	0.360761	-0.386467	-0.157524
C199	C	0.358986	-0.339495	-0.134010
C200	C	0.355162	-0.312245	-0.083178
C201	C	0.360731	-0.317651	-0.157377
C202	C	0.364253	-0.342780	-0.204256
C203	C	0.366034	-0.389757	-0.227768
C204	C	0.369902	-0.619098	-0.480680
C205	C	0.372933	-0.581623	-0.462011
C206	C	0.372898	-0.438716	-0.319117
C207	C	0.369854	-0.416999	-0.278600
C208	C	0.372895	-0.438736	-0.462185
C209	C	0.369849	-0.417028	-0.480991
O210	O	0.353784	-0.271260	0.452826
O211	O	0.331275	-0.193654	0.397692
O212	O	0.408895	-0.271275	0.397688
O213	O	0.276165	-0.193638	0.452830
O214	O	0.408910	-0.334328	0.334642
O215	O	0.331290	-0.256707	0.334646
O216	O	0.353799	-0.334313	0.389780
Cu217	Cu	0.342546	-0.301267	0.356456
Cu218	Cu	0.342528	-0.226699	0.431015
O219	O	0.276180	-0.256692	0.389784
C220	C	-0.027256	-0.062279	-0.438625
C221	C	-0.050263	-0.084881	-0.461544
C222	C	-0.095904	0.006376	-0.369978
C223	C	-0.118807	-0.016330	-0.393002
C224	C	-0.095878	-0.062279	-0.438624
C225	C	-0.050289	-0.016330	-0.393002
C226	C	0.138246	-0.116629	-0.480543
C227	C	0.185118	-0.141752	-0.502150
C228	C	0.208644	-0.188731	-0.547359
C229	C	0.259468	-0.215979	-0.570786
C230	C	0.185294	-0.210584	-0.570962
C231	C	0.138424	-0.185457	-0.549358
C232	C	0.114900	-0.138478	-0.504146
C233	C	-0.137737	-0.185914	-0.549816
C234	C	-0.159327	-0.211189	-0.571575
C235	C	-0.204527	-0.189497	-0.548119
C236	C	-0.227938	-0.216902	-0.571704
C237	C	-0.228139	-0.142522	-0.502904
C238	C	-0.206553	-0.117243	-0.481150
C239	C	-0.161347	-0.138947	-0.504611
C240	C	-0.137866	0.159511	-0.204438
C241	C	-0.159479	0.202879	-0.157556
C242	C	-0.204681	0.224635	-0.134039
C243	C	-0.228118	0.271656	-0.083207
C244	C	-0.228266	0.203019	-0.157403
C245	C	-0.206650	0.159651	-0.204283
C246	C	-0.161450	0.137903	-0.227798
C247	C	0.064077	-0.111238	-0.480721
C248	C	0.023567	-0.089523	-0.462049
C249	C	-0.119338	0.053397	-0.319148
C250	C	-0.138018	0.090879	-0.278631
C251	C	-0.119285	-0.089687	-0.462213
C252	C	-0.137943	-0.111534	-0.481016
H253	H	0.204395	-0.248707	0.016709
N254	N	0.317974	-0.211507	0.223091
H255	H	0.346447	-0.241879	0.221393
H256	H	0.289190	-0.202966	0.240850
N257	N	-0.434407	0.683494	0.365749
H258	H	-0.412902	0.694436	0.376839
H259	H	-0.463088	0.713826	0.367613
H260	H	0.318102	-0.075008	0.229089
N261	N	-0.434435	-0.316538	-0.024580
H262	H	-0.463112	-0.286202	0.003898
H263	H	-0.412929	-0.305600	-0.024737
N264	N	-0.434355	0.540803	0.223071
H265	H	-0.412833	0.508191	0.190613
H266	H	-0.443591	0.529807	0.240851
H267	H	0.365681	-0.325029	-0.444317
H268	H	0.204452	-0.248833	-0.607772
N269	N	-0.291723	0.540798	0.223065
H270	H	-0.280645	0.562168	0.244582
H271	H	-0.271477	0.502780	0.213826
H272	H	-0.428474	-0.075005	0.353619
H273	H	-0.303877	-0.453065	-0.024445
H274	H	0.377537	-0.406398	-0.374487
N275	N	0.317931	-0.068808	0.365774
H276	H	0.289162	-0.057772	0.386056
H277	H	0.346420	-0.095604	0.367635
N278	N	0.377746	-0.537088	-0.511165
H279	H	0.377905	-0.569694	-0.522254
H280	H	0.349279	-0.510273	-0.513030
H281	H	0.377571	-0.530900	-0.374482
N282	N	-0.291806	-0.211546	0.223078
H283	H	-0.289918	-0.241905	0.221389
H284	H	-0.280765	-0.222432	0.190634
H285	H	-0.428342	-0.453070	-0.024449
H286	H	-0.428475	-0.075011	0.229112
N287	N	0.113239	-0.209022	-0.574808
H288	H	0.086230	-0.182077	-0.577871
H289	H	0.135283	-0.242600	-0.606711
H290	H	0.359337	-0.404254	-0.138501
N291	N	-0.232302	-0.319174	-0.431723
H292	H	-0.261584	-0.317821	-0.430931
H293	H	-0.211629	-0.342318	-0.421640
N294	N	-0.025669	-0.537283	-0.368468
H295	H	-0.047178	-0.515901	-0.336002
H296	H	-0.016387	-0.575315	-0.386217
N297	N	-0.134840	-0.261105	0.016262
H298	H	-0.155470	-0.273706	0.013767
H299	H	-0.105550	-0.289801	-0.011677
N300	N	0.366206	-0.462262	-0.229766
H301	H	0.364563	-0.472285	-0.207851
H302	H	0.339122	-0.456129	-0.241655
N303	N	-0.277520	-0.266659	-0.132318
H304	H	-0.298557	-0.272704	-0.120437
H305	H	-0.277556	-0.236606	-0.105326
N306	N	-0.277561	-0.118072	0.016267
H307	H	-0.277611	-0.145026	-0.013743
H308	H	-0.298585	-0.108894	0.043380
H309	H	0.365783	-0.670003	-0.443684
H310	H	0.359419	-0.748659	-0.482874
H311	H	0.359409	-0.748947	-0.607723
N312	N	0.366233	-0.664570	-0.574769
H313	H	0.364586	-0.684930	-0.606686
H314	H	0.339138	-0.625593	-0.556808
N315	N	0.113335	-0.664802	-0.432362
H316	H	0.080072	-0.634029	-0.422136
H317	H	0.114003	-0.693392	-0.431657
H318	H	-0.031696	-0.531156	-0.498992
H319	H	0.365722	-0.449893	-0.568897
N320	N	0.358868	-0.410096	-0.620315
H321	H	0.360524	-0.443662	-0.631871
H322	H	0.328858	-0.383110	-0.620336
N323	N	-0.168369	-0.394639	-0.368468
H324	H	-0.179458	-0.383697	-0.389983
H325	H	-0.188604	-0.403172	-0.359227
N326	N	-0.232301	-0.319193	-0.229757
H327	H	-0.214320	-0.310095	-0.241650
H328	H	-0.235284	-0.346230	-0.256752
H329	H	-0.265569	-0.279073	-0.482867
N330	N	-0.134789	-0.409378	-0.619666
H331	H	-0.155431	-0.386241	-0.629770
H332	H	-0.105509	-0.410730	-0.620421
N333	N	0.358820	-0.267049	-0.477591
H334	H	0.356321	-0.254451	-0.498233
H335	H	0.330883	-0.238352	-0.448298
N336	N	0.366135	-0.319222	-0.229458
H337	H	0.364477	-0.285654	-0.207450
H338	H	0.396143	-0.346210	-0.256472
N339	N	-0.089135	0.136106	0.023557
H340	H	-0.088358	0.164611	0.051498
H341	H	-0.079050	0.105354	0.026033
N342	N	-0.089570	-0.461910	-0.574765
H343	H	-0.078011	-0.471818	-0.606682
H344	H	-0.068564	-0.455832	-0.556804
H345	H	0.119236	-0.670266	-0.568897
N346	N	-0.134039	0.226190	-0.132364
H347	H	-0.151972	0.265163	-0.120483
H348	H	-0.130978	0.223161	-0.105372
H349	H	0.119361	-0.203128	0.023090
N350	N	-0.133859	-0.261851	-0.620337
H351	H	-0.104567	-0.290514	-0.621064
H352	H	-0.154427	-0.274525	-0.630532
H353	H	0.204275	-0.748930	-0.608368
N354	N	0.210254	-0.118083	0.016255
H355	H	0.222130	-0.108914	0.043346
H356	H	0.237243	-0.145054	-0.013773
H357	H	0.359283	-0.279401	-0.138228
H358	H	-0.100931	-0.203587	-0.568923
H359	H	-0.156289	0.002680	-0.374517
H360	H	-0.031767	-0.121859	-0.499027
H361	H	-0.031815	0.002671	-0.374519
H362	H	0.204125	-0.123956	-0.482930
N363	N	-0.134051	0.226217	0.016236
H364	H	-0.130989	0.223208	-0.013776
H365	H	-0.151995	0.265184	0.043346
N366	N	0.210765	-0.754942	-0.477593
H367	H	0.244006	-0.785689	-0.498236
H368	H	0.210158	-0.726405	-0.448301
N369	N	-0.089114	0.136051	-0.229801
H370	H	-0.077451	0.156321	-0.207887
H371	H	-0.068154	0.097070	-0.241691
N372	N	0.112875	-0.065960	-0.431783
H373	H	0.134777	-0.055928	-0.420111
H374	H	0.085858	-0.035983	-0.431815
N375	N	-0.276894	-0.119114	-0.477605
H376	H	-0.286989	-0.142253	-0.498246
H377	H	-0.277654	-0.117754	-0.448313
N378	N	-0.089571	-0.461906	-0.229456
H379	H	-0.078014	-0.471817	-0.207450
H380	H	-0.089544	-0.491937	-0.256466
H381	H	-0.225782	-0.078995	-0.444337
H382	H	-0.225857	0.142055	-0.223303
H383	H	-0.265074	0.220738	-0.138254
H384	H	-0.140985	-0.403631	-0.138221
H385	H	-0.156329	0.002771	0.034939
N386	N	-0.025823	-0.133737	0.035104
H387	H	-0.016583	-0.125237	0.063879
H388	H	-0.047358	-0.144643	0.035244
N389	N	-0.025855	0.008922	0.035092
H390	H	-0.043602	0.046948	0.063864
H391	H	0.006592	-0.012485	0.035230
N392	N	0.112826	-0.065860	0.023573
H393	H	0.113378	-0.037128	0.051512
H394	H	0.128524	-0.073295	-0.005609
N395	N	-0.277036	0.226527	0.016231
H396	H	-0.277038	0.223528	-0.013780
H397	H	-0.288674	0.206250	0.017899
N398	N	-0.232119	0.136406	0.023550
H399	H	-0.264031	0.156762	0.021898
H400	H	-0.214152	0.097428	-0.003542
H401	H	-0.101599	-0.203118	0.023107
N402	N	-0.232372	-0.065857	0.023575
H403	H	-0.264307	-0.055828	0.021932
H404	H	-0.235344	-0.035873	0.053585
