data_functionalizedCrystal
_audit_creation_method	'MofGen! by Chris Wilmer'
_symmetry_space_group_name_H-M	'P1'
_symmetry_Int_Tables_number	1
_symmetry_cell_setting	triclinic
loop_
_symmetry_equiv_pos_as_xyz
  x,y,z
_cell_length_a	14.628931
_cell_length_b	23.196402
_cell_length_c	23.196401
_cell_angle_alpha	60.007332
_cell_angle_beta	90.013145
_cell_angle_gamma	60.004323
loop_
_atom_site_label
_atom_site_type_symbol
_atom_site_fract_x
_atom_site_fract_y
_atom_site_fract_z
Zr1	Zr	0.880690	0.630978	-0.075632
O2	O	0.734714	0.751240	-0.167679
O3	O	0.925426	0.510716	-0.047418
O4	O	0.925400	0.630979	-0.167684
O5	O	0.734776	0.630976	0.047458
O6	O	1.075832	0.630979	-0.167684
O7	O	0.734740	0.630977	-0.047413
O8	O	1.075879	0.415850	0.047450
O9	O	0.734729	0.846104	-0.167675
O10	O	1.056788	0.560181	-0.035381
O11	O	0.944549	0.560180	0.035420
O12	O	0.944518	0.701774	-0.106177
O13	O	0.832279	0.701773	-0.035376
Zr14	Zr	1.120669	0.630975	0.075677
Zr15	Zr	1.120612	0.630978	-0.075632
Zr16	Zr	0.880747	0.630975	0.075677
Zr17	Zr	0.880714	0.782275	-0.075626
Zr18	Zr	1.120645	0.479678	0.075671
O19	O	1.075933	0.751237	0.047462
O20	O	1.075851	0.751240	-0.167679
O21	O	0.734795	0.751237	0.047463
O22	O	1.266645	0.510713	0.167724
O23	O	1.266564	0.510716	-0.047418
O24	O	0.925508	0.510713	0.167724
O25	O	1.266583	0.630977	-0.047414
O26	O	1.075959	0.630974	0.167728
O27	O	0.925527	0.630974	0.167729
O28	O	1.266619	0.630976	0.047458
O29	O	0.925434	0.846104	-0.167676
O30	O	1.075925	0.415849	0.167720
O31	O	1.266630	0.415849	0.167720
O32	O	1.266585	0.415850	0.047450
O33	O	0.734774	0.846102	-0.047405
O34	O	0.925480	0.846102	-0.047405
O35	O	1.056841	0.560179	0.106222
O36	O	1.169080	0.560180	0.035420
O37	O	1.056810	0.701773	-0.035376
O38	O	0.944571	0.701772	0.035426
C39	C	1.000649	0.441727	0.000015
C40	C	1.000639	0.377497	0.000013
C41	C	1.083534	0.295068	0.052273
C42	C	1.083541	0.234707	0.052280
C43	C	1.000663	0.256781	0.000015
C44	C	0.917753	0.339224	-0.052250
C45	C	0.917741	0.399582	-0.052251
C46	C	0.974834	0.201195	-0.063777
C47	C	0.974854	0.140836	-0.063776
C48	C	1.000693	0.070619	0.000018
C49	C	1.026536	0.060760	0.063816
C50	C	1.026524	0.121117	0.063815
C51	C	1.000666	0.191339	0.000010
C52	C	1.083601	-0.077263	0.052290
C53	C	1.083601	-0.137623	0.052297
C54	C	0.917817	-0.033103	-0.052239
C55	C	0.917812	0.027254	-0.052240
C56	C	1.000710	0.005169	0.000024
C57	C	0.700574	0.630976	0.000023
C58	C	0.598721	0.630976	0.000023
C59	C	0.553293	0.630977	-0.049648
C60	C	0.448023	0.630977	-0.049649
C61	C	1.300785	0.630976	0.000022
C62	C	1.402638	0.630976	0.000022
C63	C	1.000608	0.630979	-0.189242
C64	C	1.000583	0.630980	-0.253477
C65	C	1.000710	0.820226	0.000029
C66	C	1.000720	0.884456	0.000032
C67	C	0.941985	0.704888	-0.320604
C68	C	0.942014	0.704889	-0.380960
C69	C	1.000625	0.630978	-0.374183
C70	C	1.059236	0.557061	-0.307043
C71	C	1.059215	0.557062	-0.246690
C72	C	0.992292	0.574352	-0.441502
C73	C	0.992304	0.574354	-0.501856
C74	C	1.000696	0.630972	-0.560331
C75	C	1.009052	0.687601	-0.558451
C76	C	1.009031	0.687602	-0.498098
C77	C	1.000655	0.630969	-0.439622
C78	C	0.942126	0.704886	-0.692905
C79	C	0.942162	0.704884	-0.753260
C80	C	1.059377	0.557053	-0.679341
C81	C	1.059348	0.557058	-0.618988
C82	C	1.000716	0.630976	-0.625775
C83	C	1.000751	0.630973	0.189287
C84	C	1.000776	0.630972	0.253521
C85	C	1.300754	0.441727	0.000015
C86	C	1.402597	0.377497	0.000012
C87	C	1.000721	0.441724	0.189280
C88	C	1.000735	0.377493	0.253512
C89	C	1.300826	0.441724	0.189279
C90	C	1.402693	0.377493	0.253511
C91	C	0.700533	0.820229	-0.189235
C92	C	0.598666	0.884460	-0.253467
C93	C	0.700605	0.820226	0.000030
C94	C	0.598762	0.884456	0.000032
C95	C	1.000638	0.820229	-0.189235
C96	C	1.000624	0.884460	-0.253467
C97	C	1.391808	0.347334	-0.036953
C98	C	1.487491	0.286992	-0.036969
C99	C	1.593962	0.256809	-0.000016
C100	C	1.604749	0.286978	0.036950
C101	C	1.509067	0.347323	0.036962
C102	C	1.059357	0.347329	0.320640
C103	C	1.059366	0.286986	0.380999
C104	C	1.000759	0.256804	0.374228
C105	C	0.942130	0.286974	0.307093
C106	C	0.942115	0.347320	0.246735
C107	C	1.509129	0.347330	0.246718
C108	C	1.604853	0.286987	0.307065
C109	C	1.594139	0.256804	0.374205
C110	C	1.487692	0.286972	0.380997
C111	C	1.391971	0.347319	0.320651
C112	C	0.492230	0.914630	-0.246673
C113	C	0.396506	0.974992	-0.307020
C114	C	0.407220	1.005178	-0.374160
C115	C	0.513667	0.975006	-0.380952
C116	C	0.609388	0.914649	-0.320606
C117	C	0.609551	0.914624	0.036991
C118	C	0.513868	0.974983	0.036991
C119	C	0.407397	1.005168	0.000036
C120	C	0.396610	0.974997	-0.036928
C121	C	0.492292	0.914644	-0.036931
C122	C	1.059243	0.914623	-0.246674
C123	C	1.059251	0.974966	-0.307021
C124	C	1.000634	1.005150	-0.374161
C125	C	0.942014	0.974981	-0.380953
C126	C	0.942012	0.914634	-0.320606
H127	H	1.151103	-0.204744	0.094858
H128	H	0.559684	0.630971	0.042549
O129	O	0.878901	0.784606	-0.700213
H130	H	0.912779	0.820044	-0.729492
H131	H	0.850334	-0.015128	-0.094794
H132	H	0.592337	0.630973	-0.092170
O133	O	0.878832	1.007520	-0.453373
H134	H	0.838084	0.976399	-0.447967
H135	H	1.672091	0.207666	0.423337
H136	H	1.691450	0.262394	0.067036
H137	H	0.309842	0.999548	-0.301476
O138	O	0.480648	0.882086	-0.174265
H139	H	0.521424	0.815516	-0.145004
O140	O	0.525525	1.007504	0.076872
H141	H	0.441111	1.054549	0.070665
O142	O	0.724187	0.882099	-0.327937
H143	H	0.715544	0.913227	-0.384763
H144	H	0.441694	0.630980	0.042547
H145	H	0.894273	0.890082	-0.326148
H146	H	1.478686	0.262437	-0.067071
O147	O	1.000623	1.070248	-0.439248
H148	H	1.051223	1.086155	-0.423237
O149	O	1.122541	0.477347	-0.546577
H150	H	1.088678	0.441903	-0.540447
O151	O	0.724382	0.882086	0.076840
H152	H	0.715791	0.913222	0.102527
O153	O	0.304200	1.070242	0.000065
H154	H	0.329601	1.086131	0.031988
H155	H	1.047564	0.113087	0.115761
H156	H	0.894293	0.765076	-0.435625
O157	O	1.476142	0.254404	0.453414
H158	H	1.560591	0.207365	0.494229
O159	O	0.281771	1.007557	-0.076786
H160	H	0.217061	1.054586	-0.070564
H161	H	1.671863	0.207672	-0.000031
O162	O	0.878749	0.784612	-0.327924
H163	H	0.912617	0.820056	-0.357210
O164	O	1.172931	0.271251	0.108646
H165	H	1.230570	0.203788	0.144991
H166	H	1.305310	0.371869	0.326192
O167	O	1.172962	0.145788	0.108642
H168	H	1.230608	0.140572	0.144980
O169	O	0.303973	1.070286	-0.439247
H170	H	0.228166	1.086188	-0.423236
H171	H	0.522377	0.999591	-0.435625
O172	O	0.828422	0.116166	-0.108618
H173	H	0.770798	0.121378	-0.144967
O174	O	0.396281	0.630985	-0.105986
H175	H	0.321719	0.630982	-0.097145
H176	H	1.517867	0.371873	0.067067
O177	O	0.480650	0.882098	-0.076788
H178	H	0.390537	0.913226	-0.102476
H179	H	1.015838	0.733711	-0.496571
O180	O	1.054400	-0.014965	0.132630
H181	H	1.050051	-0.055275	0.121915
O182	O	1.018114	0.748670	-0.621511
H183	H	1.016742	0.739151	-0.663791
O184	O	1.122484	0.882065	-0.174262
H185	H	1.163255	0.913176	-0.179688
O186	O	0.878957	0.784603	-0.825669
H187	H	0.838178	0.835999	-0.820244
O188	O	1.122578	0.379872	0.327954
H189	H	1.063417	0.446448	0.302219
O190	O	1.122625	0.254438	0.453404
H191	H	1.163394	0.285554	0.447965
O192	O	1.000800	0.191702	0.439330
H193	H	1.051428	0.175793	0.487144
H194	H	1.107101	0.496874	-0.673822
O195	O	0.983497	0.513184	-0.503836
H196	H	0.977757	0.473768	-0.453014
O197	O	0.878955	0.254395	0.299793
H198	H	0.888845	0.207352	0.353045
H199	H	0.985450	0.528248	-0.393894
O200	O	1.122463	0.477335	-0.299720
H201	H	1.063315	0.473785	-0.325454
O202	O	1.172993	-0.101073	0.108663
H203	H	1.230627	-0.168536	0.145013
O204	O	1.122408	0.477344	-0.174281
H205	H	1.163167	0.425946	-0.179704
H206	H	1.305123	0.371909	-0.067053
O207	O	0.946978	0.151469	-0.132582
H208	H	0.928985	0.210442	-0.176944
H209	H	0.894381	0.371871	0.192079
O210	O	1.122480	1.007498	-0.299686
H211	H	1.088612	1.035000	-0.270386
O212	O	0.946976	0.276925	-0.132587
H213	H	0.929030	0.273634	-0.176946
O214	O	0.828373	0.363033	-0.108627
H215	H	0.780613	0.338021	-0.083496
O216	O	0.828343	0.488496	-0.108627
H217	H	0.770715	0.493710	-0.144975
H218	H	1.517873	0.371897	0.192054
O219	O	1.719655	0.254445	0.299732
H220	H	1.711014	0.285563	0.242905
