data_functionalizedCrystal
_audit_creation_method	'MofGen! by Chris Wilmer'
_symmetry_space_group_name_H-M	'P1'
_symmetry_Int_Tables_number	1
_symmetry_cell_setting	triclinic
loop_
_symmetry_equiv_pos_as_xyz
  x,y,z
_cell_length_a	16.120530
_cell_length_b	19.121063
_cell_length_c	16.120256
_cell_angle_alpha	95.181175
_cell_angle_beta	90.128265
_cell_angle_gamma	89.687057
loop_
_atom_site_label
_atom_site_type_symbol
_atom_site_fract_x
_atom_site_fract_y
_atom_site_fract_z
Zn1	Zn	1.228531	-0.355763	-0.551590
Zn2	Zn	1.229541	-0.467542	-0.417880
Zn3	Zn	1.097152	-0.343893	-0.404939
Zn4	Zn	1.083531	-0.466899	-0.549819
O5	O	1.159689	-0.408524	-0.481057
O6	O	1.344753	-0.375827	-0.540010
O7	O	1.218102	-0.446442	-0.299573
O8	O	1.119858	-0.247209	-0.419718
O9	O	1.345495	-0.457951	-0.441774
O10	O	1.216381	-0.255929	-0.527461
O11	O	1.120837	-0.355597	-0.290065
O12	O	0.979258	-0.354973	-0.418001
O13	O	1.096643	-0.456855	-0.666645
O14	O	0.969250	-0.445346	-0.524444
O15	O	1.203174	-0.375203	-0.667945
O16	O	1.204894	-0.565716	-0.440057
O17	O	1.097622	-0.565243	-0.536992
C18	C	0.944154	-0.398802	-0.469626
C19	C	0.851945	-0.394661	-0.464757
C20	C	0.683118	-0.387084	-0.455873
C21	C	0.637095	-0.430019	-0.506304
C22	C	0.543153	-0.425803	-0.501361
C23	C	0.777068	-0.391299	-0.460815
C24	C	1.149911	-0.590959	-0.489756
C25	C	1.145803	-0.669010	-0.493509
C26	C	1.199763	-0.705904	-0.444850
C27	C	1.195903	-0.779242	-0.448385
C28	C	1.138079	-0.815683	-0.500575
C29	C	1.084117	-0.778783	-0.549240
C30	C	1.087981	-0.705447	-0.545709
C31	C	1.123620	-1.037098	-0.513764
C32	C	1.119759	-1.110439	-0.517290
C33	C	1.231546	-1.110893	-0.416435
C34	C	1.235402	-1.037555	-0.412905
C35	C	1.181443	-1.000662	-0.461573
C36	C	1.134131	-0.890645	-0.504188
C37	C	1.185395	-0.925701	-0.457964
C38	C	1.376066	-0.418285	-0.492533
C39	C	1.468273	-0.422444	-0.497423
C40	C	1.148276	-0.417281	-0.698371
C41	C	1.143413	-0.421013	-0.790977
C42	C	1.169526	-0.225379	-0.472344
C43	C	1.173719	-0.147334	-0.468630
C44	C	1.185051	-0.389046	-1.002432
C45	C	1.134507	-0.427796	-0.960522
C46	C	1.139464	-0.424021	-0.866178
C47	C	1.180095	-0.392820	-1.096784
C48	C	1.171108	-0.399753	-0.264588
C49	C	1.176142	-0.395831	-0.171982
H50	H	0.651969	-0.347162	-0.408988
H51	H	1.087050	-0.920323	-0.546680
O52	O	1.063503	-1.145859	-0.567872
C53	C	1.010225	-1.184019	-0.519601
H54	H	1.009760	-1.159070	-0.452647
H55	H	1.033097	-1.240623	-0.520782
C56	C	0.922330	-1.213585	-0.637955
C57	C	0.921754	-1.182938	-0.555722
H58	H	0.867758	-1.212922	-0.660238
H59	H	0.958226	-1.187878	-0.670478
H60	H	0.941395	-1.260752	-0.638928
H61	H	0.902700	-1.135770	-0.554752
H62	H	0.885853	-1.208637	-0.523201
O63	O	1.241032	-0.345990	-0.960743
C64	C	1.225596	-0.276018	-0.977629
H65	H	1.158281	-0.270414	-0.997926
H66	H	1.268467	-0.261648	-1.029545
C67	C	1.324434	-0.233449	-0.873599
C68	C	1.241755	-0.226564	-0.898521
H69	H	1.334405	-0.202942	-0.824803
H70	H	1.334836	-0.280590	-0.862224
H71	H	1.360150	-0.221475	-0.916869
H72	H	1.206041	-0.238546	-0.855255
H73	H	1.231347	-0.179423	-0.909886
H74	H	0.668245	-0.469943	-0.553193
H75	H	1.246845	-0.676239	-0.402347
O76	O	1.035482	-0.669712	-0.593007
C77	C	0.983631	-0.717600	-0.639846
H78	H	0.979816	-0.768386	-0.608081
H79	H	1.010233	-0.729277	-0.705126
C80	C	0.900897	-0.623160	-0.684751
C81	C	0.896206	-0.685533	-0.645734
H82	H	0.846970	-0.603379	-0.688387
H83	H	0.935832	-0.590896	-0.653198
H84	H	0.923069	-0.632899	-0.739148
H85	H	0.874044	-0.675792	-0.591335
H86	H	0.861265	-0.717795	-0.677279
H87	H	1.232478	-0.896029	-0.415474
H88	H	1.239842	-0.809278	-0.408761
H89	H	1.079683	-1.007065	-0.553390
O90	O	1.291653	-1.002271	-0.362197
C91	C	1.338442	-1.050561	-0.319993
H92	H	1.336737	-1.104327	-0.356785
H93	H	1.311031	-1.054484	-0.255457
C94	C	1.430976	-0.959344	-0.266180
C95	C	1.428888	-1.025379	-0.311372
H96	H	1.486766	-0.943810	-0.260858
H97	H	1.399452	-0.926809	-0.294611
H98	H	1.408130	-0.962622	-0.212404
H99	H	1.451724	-1.022098	-0.365150
H100	H	1.460418	-1.057913	-0.282950
O101	O	1.283932	-1.146843	-0.369256
C102	C	1.268115	-1.219384	-0.383548
H103	H	1.236982	-1.230759	-0.446857
H104	H	1.225487	-1.236267	-0.332750
C105	C	1.388718	-1.246481	-0.304500
C106	C	1.350485	-1.260452	-0.382262
H107	H	1.439526	-1.271815	-0.303703
H108	H	1.399373	-1.197608	-0.294868
H109	H	1.353186	-1.260550	-0.262178
H110	H	1.386013	-1.246375	-0.424582
H111	H	1.339838	-1.309323	-0.391901
O112	O	1.078526	-0.470754	-1.002372
C113	C	1.085976	-0.465008	-1.088618
H114	H	1.150619	-0.445346	-1.102700
H115	H	1.037495	-0.426379	-1.108919
C116	C	0.992885	-0.561623	-1.119085
C117	C	1.072283	-0.537479	-1.136382
H118	H	0.984435	-0.606326	-1.148549
H119	H	0.987863	-0.565493	-1.060979
H120	H	0.952493	-0.529426	-1.136003
H121	H	1.112673	-0.569672	-1.119454
H122	H	1.077312	-0.533616	-1.194486
H123	H	1.037039	-0.808459	-0.591739
