data_functionalizedCrystal
_audit_creation_method	'MofGen! by Chris Wilmer'
_symmetry_space_group_name_H-M	'P1'
_symmetry_Int_Tables_number	1
_symmetry_cell_setting	triclinic
loop_
_symmetry_equiv_pos_as_xyz
  x,y,z
_cell_length_a	12.759401
_cell_length_b	12.645330
_cell_length_c	12.759393
_cell_angle_alpha	90.030048
_cell_angle_beta	90.018567
_cell_angle_gamma	90.016736
loop_
_atom_site_label
_atom_site_type_symbol
_atom_site_fract_x
_atom_site_fract_y
_atom_site_fract_z
Zn1	Zn	1.606234	-0.422004	0.593994
Zn2	Zn	1.606119	-0.599308	0.418319
Zn3	Zn	1.430536	-0.422056	0.418334
Zn4	Zn	1.430515	-0.599223	0.593960
O5	O	1.518351	-0.510648	0.506152
O6	O	1.753239	-0.445537	0.570699
O7	O	1.582788	-0.575852	0.271300
O8	O	1.453899	-0.273702	0.441656
O9	O	1.753155	-0.575802	0.441631
O10	O	1.582983	-0.273664	0.570713
O11	O	1.453788	-0.445626	0.271311
O12	O	1.283512	-0.445544	0.441623
O13	O	1.453864	-0.575657	0.740986
O14	O	1.283497	-0.575707	0.570655
O15	O	1.582964	-0.445455	0.741011
O16	O	1.582768	-0.747644	0.441598
O17	O	1.453753	-0.747581	0.570641
C18	C	1.245383	-0.510623	0.506137
C19	C	1.128607	-0.510638	0.506156
C20	C	1.073782	-0.442937	0.573466
C21	C	0.964058	-0.442957	0.573472
C22	C	0.963993	-0.578388	0.438856
C23	C	1.073715	-0.578362	0.438845
C24	C	1.073818	-0.364750	0.651188
C25	C	0.964094	-0.364770	0.651195
C26	C	1.518274	-0.786077	0.506137
C27	C	1.518337	-0.903907	0.506166
C28	C	1.437509	-1.071476	0.587597
C29	C	1.437095	-0.948917	0.587335
C30	C	1.488364	-0.948511	0.395445
C31	C	1.487871	-1.071109	0.395939
C32	C	1.629634	-1.070996	0.534558
C33	C	1.628952	-0.948389	0.536979
C34	C	1.792384	-0.510673	0.506167
C35	C	1.909161	-0.510684	0.506174
C36	C	1.518424	-0.510541	0.780185
C37	C	1.518456	-0.510495	0.896962
C38	C	1.518456	-0.234142	0.506190
C39	C	1.518501	-0.116312	0.506206
C40	C	1.518338	-0.510678	0.233185
C41	C	1.518510	-0.510425	0.116408
C42	C	1.585687	-0.442692	0.951839
C43	C	1.585712	-0.442654	1.061563
C44	C	1.451271	-0.578230	1.061524
C45	C	1.451242	-0.578262	0.951802
C46	C	1.663309	-0.364422	0.951862
C47	C	1.663334	-0.364383	1.061586
H48	H	1.118350	-0.633480	0.384025
N49	N	0.904794	-0.651440	0.366266
H50	H	0.923863	-0.634880	0.291227
H51	H	0.826984	-0.641154	0.376570
N52	N	1.327969	-0.910177	0.562444
H53	H	1.277446	-0.937019	0.617244
H54	H	1.306192	-0.937259	0.491211
H55	H	1.396492	-0.633470	0.907125
H56	H	1.641544	-0.282323	0.922104
N57	N	1.380266	-1.109127	0.364120
H58	H	1.333598	-1.046245	0.349907
H59	H	1.349235	-1.152961	0.422533
H60	H	1.355635	-1.102377	0.569054
N61	N	1.378789	-0.651316	1.120689
H62	H	1.395066	-0.727070	1.101586
H63	H	1.303753	-0.634757	1.101572
N64	N	1.624811	-0.261047	1.106693
H65	H	1.626241	-0.264792	1.185749
H66	H	1.550732	-0.247597	1.082195
N67	N	1.658895	-0.909758	0.644912
H68	H	1.661352	-0.829925	0.645185
H69	H	1.730089	-0.938690	0.664241
H70	H	1.744703	-0.386374	1.091365
H71	H	1.740579	-0.393855	0.917827
H72	H	1.544302	-1.100773	0.333228
N73	N	1.113266	-0.255957	0.622505
H74	H	1.051729	-0.207426	0.609705
H75	H	1.157242	-0.260669	0.556869
N76	N	1.118952	-0.403822	0.753492
H77	H	1.060057	-0.422718	0.802932
H78	H	1.163547	-0.346448	0.785862
N79	N	1.564008	-0.909894	0.312907
H80	H	1.599555	-0.972443	0.278854
H81	H	1.618507	-0.862985	0.346645
H82	H	0.930056	-0.286745	0.622193
H83	H	0.934348	-0.386863	0.732532
N84	N	1.381876	-0.907966	0.363053
H85	H	1.327673	-0.931462	0.415810
H86	H	1.363378	-0.937115	0.291695
H87	H	1.456089	-1.100881	0.669966
N88	N	1.461927	-0.908954	0.696083
H89	H	1.473241	-0.970978	0.744623
H90	H	1.401577	-0.864741	0.722576
H91	H	1.656976	-1.101833	0.613924
N92	N	1.713103	-0.907797	0.464183
H93	H	1.680569	-0.859787	0.409953
H94	H	1.748117	-0.969470	0.428076
H95	H	1.689976	-1.099990	0.475278
