data_functionalizedCrystal
_audit_creation_method	'MofGen! by Chris Wilmer'
_symmetry_space_group_name_H-M	'P1'
_symmetry_Int_Tables_number	1
_symmetry_cell_setting	triclinic
loop_
_symmetry_equiv_pos_as_xyz
  x,y,z
_cell_length_a	11.792241
_cell_length_b	11.792241
_cell_length_c	10.268362
_cell_angle_alpha	89.999703
_cell_angle_beta	90.000374
_cell_angle_gamma	95.806585
loop_
_atom_site_label
_atom_site_type_symbol
_atom_site_fract_x
_atom_site_fract_y
_atom_site_fract_z
O1	O	-1.506909	0.155569	-0.108158
O2	O	-1.173575	0.488902	0.225175
O3	O	-0.840242	0.822235	0.558508
O4	O	-1.176568	0.171602	-0.108187
O5	O	-0.843234	0.504935	0.225146
O6	O	-0.509901	0.838268	0.558480
O7	O	-1.349755	-0.001585	-0.108180
O8	O	-1.016421	0.331748	0.225154
O9	O	-0.683088	0.665081	0.558487
O10	O	-1.333722	0.328756	-0.108166
O11	O	-1.000388	0.662089	0.225168
O12	O	-0.667055	0.995422	0.558501
O13	O	-1.349740	-0.001593	0.108421
O14	O	-1.016406	0.331741	0.441754
O15	O	-0.683073	0.665074	0.775088
O16	O	-1.176553	0.171594	0.108414
O17	O	-0.843219	0.504928	0.441747
O18	O	-0.509886	0.838261	0.775080
O19	O	-1.506894	0.155561	0.108442
O20	O	-1.173560	0.488895	0.441776
O21	O	-0.840227	0.822228	0.775109
Cu22	Cu	-1.341722	0.163577	0.128205
Cu23	Cu	-1.008388	0.496911	0.461539
Cu24	Cu	-0.675055	0.830244	0.794872
Cu25	Cu	-1.341740	0.163586	-0.127950
Cu26	Cu	-1.008406	0.496919	0.205383
Cu27	Cu	-0.675073	0.830252	0.538717
O28	O	-1.333707	0.328748	0.108435
O29	O	-1.000373	0.662082	0.441768
O30	O	-0.667040	0.995415	0.775102
C31	C	-1.134269	0.170591	0.000109
C32	C	-0.800936	0.503924	0.333443
C33	C	-0.467603	0.837258	0.666776
C34	C	-1.008255	0.167576	0.000098
C35	C	-0.674922	0.500910	0.333431
C36	C	-0.341589	0.834243	0.666764
C37	C	-1.348740	-0.043880	0.000116
C38	C	-1.015407	0.289453	0.333449
C39	C	-0.682073	0.622787	0.666782
C40	C	-1.345726	-0.169894	0.000101
C41	C	-1.012392	0.163440	0.333434
C42	C	-0.679059	0.496773	0.666768
N43	N	-1.341717	0.163571	0.308371
N44	N	-1.008384	0.496904	0.641705
N45	N	-0.675051	0.830237	0.975038
C46	C	-1.549192	0.156572	0.000143
C47	C	-1.215859	0.489905	0.333476
C48	C	-0.882525	0.823239	0.666810
C49	C	-1.675206	0.159587	0.000146
C50	C	-1.341873	0.492920	0.333480
C51	C	-1.008539	0.826253	0.666813
C52	C	-0.777543	0.162034	0.000135
C53	C	-0.444210	0.495367	0.333468
C54	C	-0.110877	0.828700	0.666801
C55	C	-0.905928	0.165113	0.000114
C56	C	-0.572595	0.498447	0.333448
C57	C	-0.239262	0.831780	0.666781
C58	C	-1.334721	0.371043	0.000137
C59	C	-1.001388	0.704376	0.333470
C60	C	-0.668055	1.037710	0.666803
C61	C	-1.337736	0.497057	0.000143
C62	C	-1.004402	0.830390	0.333476
C63	C	-0.671069	1.163723	0.666809
C64	C	-1.343279	0.727769	0.000110
C65	C	-1.009945	1.061102	0.333444
C66	C	-0.676612	1.394436	0.666777
C67	C	-1.340199	0.599384	0.000128
C68	C	-1.006866	0.932717	0.333461
C69	C	-0.673532	1.266050	0.666795
N70	N	-1.341753	0.163584	-0.308116
N71	N	-1.008420	0.496917	0.025217
N72	N	-0.675086	0.830250	0.358551
C73	C	-1.341734	0.163583	0.574042
C74	C	-1.008401	0.496917	0.907375
C75	C	-0.675067	0.830250	1.240708
C76	C	-1.341721	0.163580	0.426204
C77	C	-1.008388	0.496913	0.759537
C78	C	-0.675054	0.830246	1.092871
