data_functionalizedCrystal
_audit_creation_method	'MofGen! by Chris Wilmer'
_symmetry_space_group_name_H-M	'P1'
_symmetry_Int_Tables_number	1
_symmetry_cell_setting	triclinic
loop_
_symmetry_equiv_pos_as_xyz
  x,y,z
_cell_length_a	23.532407
_cell_length_b	23.532407
_cell_length_c	9.130313
_cell_angle_alpha	89.996739
_cell_angle_beta	90.003577
_cell_angle_gamma	82.848712
loop_
_atom_site_label
_atom_site_type_symbol
_atom_site_fract_x
_atom_site_fract_y
_atom_site_fract_z
O1	O	0.069131	0.755256	0.121722
O2	O	0.079134	0.589392	0.121747
O3	O	-0.008799	0.677326	0.121707
O4	O	0.157064	0.667322	0.121762
O5	O	-0.008793	0.677325	-0.121892
O6	O	0.079140	0.589392	-0.121852
O7	O	0.069137	0.755256	-0.121877
Cu8	Cu	0.074139	0.672324	-0.144107
Cu9	Cu	0.074132	0.672324	0.143977
O10	O	0.157070	0.667322	-0.121837
C11	C	0.078882	0.568176	-0.000050
C12	C	0.078116	0.504959	-0.000041
C13	C	0.022921	0.238792	-0.000099
C14	C	0.023632	0.298192	-0.000099
O15	O	-0.020153	0.334937	-0.000164
N16	N	0.075909	0.320818	-0.000071
C17	C	0.127477	0.284041	-0.000060
O18	O	0.172007	0.308740	-0.000038
C19	C	0.126765	0.224642	-0.000071
C20	C	0.074485	0.202019	-0.000083
C21	C	-0.029354	0.216169	-0.000114
C22	C	-0.030066	0.156772	-0.000111
C23	C	0.021499	0.119999	-0.000095
C24	C	0.073774	0.142623	-0.000081
C25	C	0.178333	0.187865	-0.000069
C26	C	0.177616	0.128463	-0.000082
C27	C	0.125336	0.105840	-0.000094
C28	C	0.124627	0.046454	-0.000063
N29	N	0.072351	0.023828	-0.000090
C30	C	0.020787	0.060600	-0.000106
C31	C	0.128968	0.408783	-0.000039
C32	C	0.129681	0.468181	-0.000017
C33	C	0.025836	0.482328	-0.000059
C34	C	0.025124	0.422929	-0.000070
C35	C	0.076692	0.386157	-0.000066
C36	C	0.019297	-0.064136	-0.000101
C37	C	0.018590	-0.123538	-0.000092
C38	C	0.122435	-0.137680	-0.000058
C39	C	0.123142	-0.078284	-0.000059
C40	C	0.071568	-0.041512	-0.000085
O41	O	0.168390	0.009675	-0.000003
O42	O	-0.023737	0.035892	-0.000148
C43	C	-0.030012	0.677071	-0.000096
C44	C	-0.093229	0.676305	-0.000108
C45	C	-0.492332	0.723538	-0.000034
C46	C	-0.551733	0.722827	-0.000023
O47	O	-0.588477	0.766613	0.000024
N48	N	-0.574359	0.670551	-0.000016
C49	C	-0.537581	0.618982	-0.000006
O50	O	-0.562281	0.574452	0.000002
C51	C	-0.478182	0.619695	-0.000007
C52	C	-0.455559	0.671974	-0.000028
C53	C	-0.469709	0.775814	-0.000055
C54	C	-0.410313	0.776525	-0.000069
C55	C	-0.373540	0.724961	-0.000062
C56	C	-0.396163	0.672685	-0.000042
C57	C	-0.441406	0.568127	0.000014
C58	C	-0.382003	0.568843	0.000015
C59	C	-0.359381	0.621123	-0.000007
C60	C	-0.299994	0.621832	-0.000050
N61	N	-0.277368	0.674109	-0.000057
C62	C	-0.314141	0.725673	-0.000063
C63	C	-0.662324	0.617491	-0.000002
C64	C	-0.721722	0.616778	-0.000011
C65	C	-0.735869	0.720623	-0.000026
C66	C	-0.676470	0.721335	-0.000027
C67	C	-0.639698	0.669767	-0.000009
C68	C	-0.189404	0.727163	-0.000094
C69	C	-0.130002	0.727869	-0.000114
C70	C	-0.115860	0.624025	-0.000091
C71	C	-0.175257	0.623318	-0.000079
C72	C	-0.212028	0.674891	-0.000075
O73	O	-0.263215	0.578069	-0.000091
O74	O	-0.289433	0.770196	-0.000052
C75	C	0.178283	0.667577	-0.000031
C76	C	0.241500	0.668343	-0.000010
C77	C	0.069389	0.776472	-0.000077
C78	C	0.070155	0.839689	-0.000076
N79	N	0.074144	0.672328	-0.346730
C80	C	0.113052	0.633382	-0.576739
C81	C	0.113061	0.633382	-0.423403
C82	C	0.035210	0.711273	-0.423402
C83	C	0.035199	0.711270	-0.576736
C84	C	0.158000	0.588413	-0.576739
C85	C	0.158010	0.588413	-0.423402
N86	N	0.074123	0.672325	0.346599
H87	H	-0.017447	0.404515	-0.000082
O88	O	-0.024203	0.518137	-0.000148
C89	C	-0.012358	0.575413	-0.000103
H90	H	0.032364	0.577440	-0.046201
H91	H	-0.045241	0.602512	-0.070840
H92	H	-0.014620	0.592602	0.116763
O93	O	-0.030816	-0.028445	0.000145
C94	C	-0.062578	-0.038676	0.126284
H95	H	-0.032390	-0.059144	0.214465
H96	H	-0.085668	0.003591	0.168634
H97	H	-0.095361	-0.068749	0.097753
H98	H	-0.111587	0.770443	-0.000135
O99	O	-0.771677	0.770662	0.000051
C100	C	-0.828953	0.758817	0.000028
H101	H	-0.830976	0.714095	0.046143
H102	H	-0.856046	0.791700	0.070762
H103	H	-0.846153	0.761079	-0.116834
H104	H	0.201655	0.597510	-0.381804
O105	O	-0.346364	0.518696	-0.000033
C106	C	-0.379075	0.472406	0.000028
H107	H	-0.423492	0.487122	-0.046090
H108	H	-0.356970	0.436294	-0.070684
H109	H	-0.383213	0.456370	0.116902
O110	O	0.173891	-0.056240	-0.000242
C111	C	0.177417	-0.022322	-0.126437
H112	H	0.132444	-0.007277	-0.168504
H113	H	0.199898	0.016451	-0.098080
H114	H	0.202760	-0.048712	-0.214770
H115	H	0.003519	0.742980	-0.360965
O116	O	-0.388436	0.827360	-0.000013
C117	C	-0.433640	0.872713	-0.000050
H118	H	-0.473902	0.856976	0.046071
H119	H	-0.421430	0.909234	0.070670
H120	H	-0.442139	0.888603	-0.116917
O121	O	0.142102	0.539362	-0.366545
C122	C	0.092713	0.552625	-0.279620
H123	H	0.069028	0.595587	-0.315465
H124	H	0.063485	0.517827	-0.293383
H125	H	0.105687	0.555183	-0.159726
H126	H	-0.023984	-0.141954	-0.000099
O127	O	-0.743666	0.565979	0.000254
C128	C	-0.724824	0.534563	0.126400
H129	H	-0.712634	0.565141	0.214571
H130	H	-0.760672	0.510538	0.168761
H131	H	-0.685932	0.502606	0.097874
O132	O	-0.080901	0.134896	-0.000208
C133	C	-0.126253	0.180099	-0.000192
H134	H	-0.110514	0.220365	-0.046290
H135	H	-0.162770	0.167896	-0.070944
H136	H	-0.142150	0.188589	0.116666
O137	O	-0.080190	0.573901	0.000118
C138	C	-0.090383	0.542152	0.126316
H139	H	-0.135523	0.556394	0.168369
H140	H	-0.085935	0.494627	0.097969
H141	H	-0.057934	0.549762	0.214656
O142	O	-0.463438	0.517377	0.000246
C143	C	-0.497352	0.513852	0.126439
H144	H	-0.512402	0.558826	0.168473
H145	H	-0.536122	0.491364	0.098093
H146	H	-0.470957	0.488517	0.214793
O147	O	0.207054	0.604315	-0.633574
C148	C	0.193797	0.653718	-0.720471
H149	H	0.150834	0.677400	-0.684633
H150	H	0.228596	0.682940	-0.706667
H151	H	0.191240	0.640762	-0.840376
H152	H	-0.193677	0.580747	-0.000102
O153	O	-0.225037	0.777313	-0.000161
C154	C	-0.192321	0.823599	-0.000146
H155	H	-0.147909	0.808876	-0.046265
H156	H	-0.214429	0.859708	-0.070878
H157	H	-0.188172	0.839641	0.116715
H158	H	0.003495	0.742975	-0.639152
H159	H	0.148872	0.544781	-0.618331
H160	H	-0.071347	0.246104	-0.000131
O161	O	0.172560	-0.173349	-0.000239
C162	C	0.204315	-0.163147	-0.126414
H163	H	0.190072	-0.118005	-0.168472
H164	H	0.251838	-0.167594	-0.098033
H165	H	0.196712	-0.195592	-0.214762
H166	H	-0.499644	0.817806	-0.000054
H167	H	0.170964	0.378846	-0.000025
O168	O	0.180516	0.490058	-0.000053
C169	C	0.225871	0.444857	0.000002
H170	H	0.210138	0.404593	-0.046122
H171	H	0.262394	0.457068	-0.070707
H172	H	0.241755	0.436361	0.116876
H173	H	0.220904	0.206274	-0.000053
H174	H	-0.658055	0.763906	-0.000043
O175	O	0.227763	0.092824	-0.000006
C176	C	0.274053	0.125534	-0.000030
H177	H	0.259335	0.169949	0.046082
H178	H	0.310161	0.103425	0.070705
H179	H	0.290095	0.129679	-0.116893
O180	O	-0.626547	0.567432	-0.000200
C181	C	-0.591779	0.564727	-0.126382
H182	H	-0.589018	0.609913	-0.168447
H183	H	-0.547016	0.543246	-0.098009
H184	H	-0.611187	0.538834	-0.214722
