data_functionalizedCrystal
_audit_creation_method	'MofGen! by Chris Wilmer'
_symmetry_space_group_name_H-M	'P1'
_symmetry_Int_Tables_number	1
_symmetry_cell_setting	triclinic
loop_
_symmetry_equiv_pos_as_xyz
  x,y,z
_cell_length_a	10.540510
_cell_length_b	10.489716
_cell_length_c	9.616153
_cell_angle_alpha	90.001809
_cell_angle_beta	89.992871
_cell_angle_gamma	84.521223
loop_
_atom_site_label
_atom_site_type_symbol
_atom_site_fract_x
_atom_site_fract_y
_atom_site_fract_z
O1	O	1.685920	0.179581	-0.115641
O2	O	1.316503	0.196558	-0.115640
O3	O	1.509633	0.002467	-0.115645
O4	O	1.492789	0.373671	-0.115636
O5	O	1.509607	0.002472	0.115646
O6	O	1.316476	0.196562	0.115651
O7	O	1.685893	0.179585	0.115651
Zn8	Zn	1.501180	0.188074	0.152373
Zn9	Zn	1.501215	0.188069	-0.152363
O10	O	1.492762	0.373675	0.115656
C11	C	1.269186	0.195295	0.000005
C12	C	1.128236	0.191510	0.000005
C13	C	0.910784	0.326343	-0.000523
C14	C	1.057380	0.330381	0.000007
C15	C	1.083458	0.120423	0.132078
C16	C	0.936697	0.117369	0.132181
C17	C	0.936921	0.114473	-0.130841
C18	C	1.083263	0.121060	-0.132578
C19	C	1.508354	-0.045062	-0.000004
C20	C	1.504568	-0.186693	-0.000017
C21	C	1.623002	-0.284393	-0.000004
C22	C	1.560432	-0.361742	-0.114039
C23	C	1.560378	-0.361702	0.113996
C24	C	1.442047	-0.262175	-0.114146
C25	C	1.442011	-0.262130	0.113992
C26	C	1.379354	-0.339429	-0.000071
C27	C	1.733210	0.180848	0.000002
C28	C	1.874160	0.184633	-0.000007
C29	C	1.494041	0.421205	0.000011
C30	C	1.497828	0.562835	0.000015
N31	N	1.501166	0.188077	0.360348
N32	N	1.501240	0.188056	-0.360338
C33	C	1.397538	0.291554	0.580721
C34	C	1.397766	0.291942	0.419553
C35	C	1.633892	0.218342	0.418798
C36	C	1.633327	0.219075	0.580016
C37	C	1.473389	0.053995	0.580256
C38	C	1.470342	0.054864	0.419029
H39	H	0.913698	0.013503	0.138177
N40	N	1.759456	-0.251736	-0.000139
H41	H	1.804060	-0.288162	-0.086363
H42	H	1.760985	-0.155617	0.000791
N43	N	1.146228	-0.014995	0.138604
H44	H	1.204434	-0.031605	0.055810
H45	H	1.197546	-0.026896	0.227126
H46	H	1.392048	-0.218599	0.210406
H47	H	1.299147	0.273733	0.380038
H48	H	1.114303	0.169795	0.230371
N49	N	1.738625	0.121236	0.367995
H50	H	1.782131	0.075946	0.450246
H51	H	1.700864	0.056609	0.306430
N52	N	0.880724	0.172598	-0.263452
H53	H	0.814001	0.245007	-0.240055
H54	H	0.950401	0.206574	-0.320761
H55	H	1.276259	-0.363836	-0.000133
N56	N	0.853159	0.397597	0.124241
H57	H	0.923264	0.428678	0.183221
H58	H	0.794164	0.473312	0.091890
N59	N	1.666891	0.346428	0.365305
H60	H	1.596062	0.385026	0.303224
H61	H	1.677823	0.405554	0.446421
N62	N	1.738707	0.123123	0.631668
H63	H	1.739164	0.122854	0.736697
H64	H	1.724074	0.035003	0.596465
N65	N	1.626596	-0.419282	0.241716
H66	H	1.622797	-0.515126	0.241259
H67	H	1.718531	-0.399577	0.241538
N68	N	1.266491	0.267821	0.632126
H69	H	1.273068	0.189752	0.694126
H70	H	1.228911	0.344746	0.686472
N71	N	1.420975	0.422571	0.634296
H72	H	1.498470	0.415172	0.696589
H73	H	1.435802	0.480522	0.553215
N74	N	1.347877	0.015846	0.634169
H75	H	1.307797	0.085089	0.697658
H76	H	1.288969	0.004022	0.553331
H77	H	1.657685	0.316881	0.617607
H78	H	1.086739	0.385993	-0.094672
N79	N	1.421235	0.423803	0.368599
H80	H	1.506383	0.446603	0.404068
H81	H	1.421356	0.424681	0.263576
H82	H	1.372702	0.031924	0.380828
N83	N	0.855095	0.397915	-0.125983
H84	H	0.759174	0.399241	-0.124045
H85	H	0.879720	0.488618	-0.124353
N86	N	1.121208	0.189543	-0.262012
H87	H	1.167337	0.265887	-0.234895
H88	H	1.179241	0.129038	-0.320587
H89	H	1.540867	-0.025853	0.378732
H90	H	1.548999	-0.023039	0.618370
H91	H	1.085775	0.386335	0.094844
N92	N	1.148246	-0.013242	-0.143159
H93	H	1.208023	-0.030399	-0.061790
H94	H	1.081915	-0.076642	-0.142033
H95	H	0.896471	0.165953	0.230910
H96	H	0.914764	0.010208	-0.131737
N97	N	1.626657	-0.419388	-0.241744
H98	H	1.660055	-0.349292	-0.299281
H99	H	1.699967	-0.482771	-0.212535
H100	H	1.392090	-0.218862	-0.210661
