data_functionalizedCrystal
_audit_creation_method	'MofGen! by Chris Wilmer'
_symmetry_space_group_name_H-M	'P1'
_symmetry_Int_Tables_number	1
_symmetry_cell_setting	triclinic
loop_
_symmetry_equiv_pos_as_xyz
  x,y,z
_cell_length_a	10.489763
_cell_length_b	11.792241
_cell_length_c	10.268362
_cell_angle_alpha	90.005428
_cell_angle_beta	90.002673
_cell_angle_gamma	84.370888
loop_
_atom_site_label
_atom_site_type_symbol
_atom_site_fract_x
_atom_site_fract_y
_atom_site_fract_z
O1	O	-1.693491	-0.160259	-0.108244
O2	O	-1.322248	-0.175264	-0.108259
O3	O	-1.516879	-0.002616	-0.108242
O4	O	-1.498860	-0.332907	-0.108261
O5	O	-1.516862	-0.002608	0.108358
O6	O	-1.322231	-0.175256	0.108341
O7	O	-1.693474	-0.160252	0.108356
Cu8	Cu	-1.507851	-0.167753	0.128126
Cu9	Cu	-1.507871	-0.167762	-0.128029
O10	O	-1.498843	-0.332900	0.108339
C11	C	-1.274712	-0.174121	0.000039
C12	C	-1.133096	-0.170715	0.000034
C13	C	-1.515738	0.039682	0.000058
C14	C	-1.512351	0.165705	0.000056
C15	C	-1.065331	-0.060850	0.000053
C16	C	-0.973036	-0.112744	-0.106741
C17	C	-0.973053	-0.112763	0.106810
C18	C	-1.042666	-0.222654	-0.106849
C19	C	-1.042693	-0.222657	0.106798
C20	C	-0.950426	-0.274631	-0.000022
C21	C	-0.741012	-0.161376	0.000059
C22	C	-0.882636	-0.164729	0.000066
C23	C	-1.499984	-0.375197	0.000037
C24	C	-1.503371	-0.501220	0.000030
N25	N	-1.507846	-0.167747	0.308292
C26	C	-1.506121	0.396435	0.000034
C27	C	-1.509582	0.268040	0.000046
N28	N	-1.507886	-0.167760	-0.308195
C29	C	-1.507865	-0.167760	0.573963
C30	C	-1.507850	-0.167756	0.426125
H31	H	-0.942188	-0.066260	-0.197025
C32	C	-0.884269	-0.395230	0.000102
C33	C	-0.921213	-0.452922	0.110944
C34	C	-0.860304	-0.564021	0.111087
H35	H	-0.794061	-0.392564	0.000894
H36	H	-0.908122	-0.434133	-0.075779
H37	H	-0.897351	-0.414029	0.186805
H38	H	-1.011411	-0.455619	0.110176
H39	H	-0.884157	-0.602925	0.035206
H40	H	-0.770099	-0.561344	0.111875
H41	H	-0.885371	-0.603183	0.186285
C42	C	-1.083820	-0.284503	-0.227335
C43	C	-1.216996	-0.286909	-0.225989
C44	C	-1.254957	-0.343856	-0.336966
H45	H	-1.043575	-0.360258	-0.227759
H46	H	-1.059494	-0.245727	-0.303111
H47	H	-1.241310	-0.325686	-0.150233
H48	H	-1.257273	-0.211169	-0.225584
H49	H	-1.230631	-0.305081	-0.412743
H50	H	-1.214704	-0.419608	-0.337381
H51	H	-1.345321	-0.345487	-0.336074
C52	C	-0.931750	-0.050937	0.227251
C53	C	-0.847956	-0.125004	0.301127
C54	C	-0.809874	-0.068078	0.412070
H55	H	-1.004939	-0.026200	0.278014
H56	H	-0.889543	0.013178	0.201626
H57	H	-0.890164	-0.189098	0.326754
H58	H	-0.774748	-0.149744	0.250403
H59	H	-0.767667	-0.003962	0.386445
H60	H	-0.883070	-0.043343	0.462822
H61	H	-0.753007	-0.118319	0.462202
H62	H	-1.073573	-0.269103	0.197086
H63	H	-1.115327	0.029458	-0.000076
