data_functionalizedCrystal
_audit_creation_method	'MofGen! by Chris Wilmer'
_symmetry_space_group_name_H-M	'P1'
_symmetry_Int_Tables_number	1
_symmetry_cell_setting	triclinic
loop_
_symmetry_equiv_pos_as_xyz
  x,y,z
_cell_length_a	12.759401
_cell_length_b	18.050589
_cell_length_c	12.759393
_cell_angle_alpha	89.970454
_cell_angle_beta	89.979062
_cell_angle_gamma	90.029746
loop_
_atom_site_label
_atom_site_type_symbol
_atom_site_fract_x
_atom_site_fract_y
_atom_site_fract_z
Zn1	Zn	1.606168	-0.295593	-0.594027
Zn2	Zn	1.606017	-0.419801	-0.418350
Zn3	Zn	1.430466	-0.295633	-0.418362
Zn4	Zn	1.430417	-0.419749	-0.593987
O5	O	1.518267	-0.357694	-0.506182
O6	O	1.753169	-0.312075	-0.570735
O7	O	1.582688	-0.403368	-0.271331
O8	O	1.453857	-0.191703	-0.441686
O9	O	1.753058	-0.403330	-0.441666
O10	O	1.582944	-0.191674	-0.570746
O11	O	1.453711	-0.312142	-0.271339
O12	O	1.283439	-0.312092	-0.441648
O13	O	1.453773	-0.403241	-0.741014
O14	O	1.283402	-0.403280	-0.570679
O15	O	1.582896	-0.312025	-0.741043
O16	O	1.582640	-0.523719	-0.441627
O17	O	1.453627	-0.523681	-0.570667
C18	C	1.245300	-0.357685	-0.506161
C19	C	1.128523	-0.357699	-0.506177
C20	C	1.073670	-0.405253	-0.573257
C21	C	0.963946	-0.405256	-0.573278
C22	C	0.963938	-0.310149	-0.439129
C23	C	1.073660	-0.310143	-0.439114
C24	C	1.518140	-0.550646	-0.506164
C25	C	1.518182	-0.633192	-0.506192
C26	C	1.448094	-0.832649	-0.576339
C27	C	1.422478	-0.882097	-0.480470
C28	C	1.518285	-0.784322	-0.506206
C29	C	1.543953	-0.881956	-0.602085
C30	C	1.518383	-0.930307	-0.506227
C31	C	1.492619	-0.832683	-0.410286
C32	C	1.614139	-0.832538	-0.531966
C33	C	1.588559	-0.881964	-0.436031
C34	C	1.518226	-0.700224	-0.506194
C35	C	1.518442	-1.014404	-0.506228
C36	C	1.792300	-0.357704	-0.506203
C37	C	1.909077	-0.357708	-0.506212
C38	C	1.518346	-0.357623	-0.780215
C39	C	1.518379	-0.357592	-0.896992
C40	C	1.518423	-0.163989	-0.506222
C41	C	1.518489	-0.081443	-0.506239
C42	C	1.585619	-0.310088	-0.951871
C43	C	1.585637	-0.310056	-1.061595
C44	C	1.451172	-0.405039	-1.061552
C45	C	1.451150	-0.405067	-0.951829
C46	C	1.518249	-0.357712	-0.233214
C47	C	1.518419	-0.357533	-0.116438
H48	H	0.919289	-0.443978	-0.627904
H49	H	1.388648	-0.810995	-0.635565
O50	O	1.650852	-0.263933	-1.115066
C51	C	1.636474	-0.274094	-1.223670
H52	H	1.555377	-0.298411	-1.238636
H53	H	1.698766	-0.313634	-1.254816
C54	C	1.745772	-0.169070	-1.261630
C55	C	1.646164	-0.198930	-1.280013
H56	H	1.751754	-0.122706	-1.296387
H57	H	1.755463	-0.162225	-1.188462
H58	H	1.797671	-0.202026	-1.287585
H59	H	1.594268	-0.165977	-1.254046
H60	H	1.636465	-0.205767	-1.353178
H61	H	1.118336	-0.443974	-0.627867
H62	H	1.341464	-0.903882	-0.458702
O63	O	1.126999	-0.263869	-0.374096
C64	C	1.190545	-0.215964	-0.434022
H65	H	1.157520	-0.211448	-0.516782
H66	H	1.273688	-0.238927	-0.437578
C67	C	1.232823	-0.144263	-0.281234
C68	C	1.192255	-0.138712	-0.382880
H69	H	1.233883	-0.096611	-0.249686
H70	H	1.190014	-0.176539	-0.240860
H71	H	1.302105	-0.163402	-0.284212
H72	H	1.122971	-0.119582	-0.379900
H73	H	1.235053	-0.106431	-0.423253
O74	O	1.385973	-0.451133	-1.114985
C75	C	1.400392	-0.440911	-1.223598
H76	H	1.481496	-0.416590	-1.238602
H77	H	1.338115	-0.401351	-1.254734
C78	C	1.291099	-0.545910	-1.261482
C79	C	1.390715	-0.516044	-1.279911
H80	H	1.285125	-0.592254	-1.296221
H81	H	1.281381	-0.552795	-1.188308
H82	H	1.239212	-0.512936	-1.287429
H83	H	1.442599	-0.549013	-1.253952
H84	H	1.400442	-0.509166	-1.353083
O85	O	1.569938	-0.907866	-0.698724
C86	C	1.662000	-0.950738	-0.691587
H87	H	1.671367	-0.972063	-0.608002
H88	H	1.732609	-0.915145	-0.713227
C89	C	1.643027	-0.990652	-0.870127
C90	C	1.654526	-1.016848	-0.767469
H91	H	1.638420	-1.031430	-0.916937
H92	H	1.581005	-0.961766	-0.874938
H93	H	1.701869	-0.960991	-0.888146
H94	H	1.595678	-1.046500	-0.749447
H95	H	1.716538	-1.045740	-0.762657
H96	H	1.640358	-0.271430	-0.907225
O97	O	1.385798	-0.451287	-0.898676
C98	C	1.326453	-0.493175	-0.970602
H99	H	1.369497	-0.495732	-1.048824
H100	H	1.246685	-0.465972	-0.982263
C101	C	1.258369	-0.569083	-0.831680
C102	C	1.311241	-0.572229	-0.927751
H103	H	1.248981	-0.617846	-0.805247
H104	H	1.298348	-0.540861	-0.783221
H105	H	1.191902	-0.546411	-0.841411
H106	H	1.377712	-0.594892	-0.918016
H107	H	1.271273	-0.600457	-0.976208
H108	H	0.919255	-0.271432	-0.384527
H109	H	1.647959	-0.903481	-0.376662
O110	O	1.466621	-0.806851	-0.313609
C111	C	1.466865	-0.728745	-0.314770
H112	H	1.455123	-0.708272	-0.398479
H113	H	1.545063	-0.707558	-0.283631
C114	C	1.391780	-0.724847	-0.142210
C115	C	1.377350	-0.699702	-0.245022
H116	H	1.336567	-0.706931	-0.099184
H117	H	1.391619	-0.777469	-0.141426
H118	H	1.456949	-0.707189	-0.116276
H119	H	1.312189	-0.717367	-0.270959
H120	H	1.377498	-0.647082	-0.245809
H121	H	1.695134	-0.810755	-0.553780
