data_functionalizedCrystal
_audit_creation_method	'MofGen! by Chris Wilmer'
_symmetry_space_group_name_H-M	'P1'
_symmetry_Int_Tables_number	1
_symmetry_cell_setting	triclinic
loop_
_symmetry_equiv_pos_as_xyz
  x,y,z
_cell_length_a	10.654550
_cell_length_b	11.792254
_cell_length_c	9.130313
_cell_angle_alpha	89.998555
_cell_angle_beta	89.996220
_cell_angle_gamma	84.341750
loop_
_atom_site_label
_atom_site_type_symbol
_atom_site_fract_x
_atom_site_fract_y
_atom_site_fract_z
O1	O	1.667391	0.159414	-0.121921
O2	O	1.301870	0.174602	-0.121897
O3	O	1.493493	0.001859	-0.121899
O4	O	1.475769	0.332157	-0.121919
O5	O	1.493490	0.001864	0.121700
O6	O	1.301868	0.174607	0.121702
O7	O	1.667389	0.159418	0.121678
Cu8	Cu	1.484628	0.167013	0.143932
Cu9	Cu	1.484631	0.167008	-0.144151
O10	O	1.475767	0.332162	0.121680
C11	C	1.255074	0.173489	-0.000095
C12	C	1.115640	0.170153	-0.000086
C13	C	1.035872	0.271861	-0.000113
C14	C	0.904860	0.268719	-0.000138
C15	C	0.933397	0.062152	-0.000114
C16	C	1.064407	0.065295	-0.000079
C17	C	1.087106	0.376719	-0.000120
C18	C	1.007336	0.478436	-0.000149
C19	C	0.876324	0.475294	-0.000174
C20	C	0.825082	0.370436	-0.000170
C21	C	1.492375	-0.040432	-0.000100
C22	C	1.489033	-0.166453	-0.000101
C23	C	1.486318	-0.268796	-0.000106
C24	C	1.482923	-0.397190	-0.000119
C25	C	1.714185	0.160531	-0.000127
C26	C	1.853619	0.163868	-0.000146
C27	C	1.476884	0.374453	-0.000122
C28	C	1.480226	0.500473	-0.000131
N29	N	1.484635	0.167016	0.346555
N30	N	1.484634	0.166995	-0.346774
C31	C	1.569508	0.090552	0.423206
C32	C	1.569504	0.090538	0.576543
C33	C	1.399752	0.243464	0.576564
C34	C	1.399751	0.243471	0.423230
C35	C	1.654392	0.014097	0.346531
C36	C	1.739272	-0.062373	0.423183
C37	C	1.739269	-0.062386	0.576519
C38	C	1.654385	0.014070	0.653205
H39	H	1.049067	0.563808	-0.000139
N40	N	1.830792	-0.144844	0.340462
H41	H	1.886692	-0.101005	0.276838
H42	H	1.884472	-0.193281	0.412370
H43	H	1.808373	-0.124658	0.638927
N44	N	1.150456	-0.044400	-0.000059
H45	H	1.205420	-0.047693	0.090262
H46	H	1.098036	-0.111242	-0.000126
H47	H	0.811378	0.558117	-0.000183
N48	N	0.683776	0.367043	-0.000177
H49	H	0.641015	0.447387	-0.000187
H50	H	0.657943	0.325683	-0.090484
H51	H	0.891665	-0.023220	-0.000135
N52	N	1.654387	0.014118	0.181149
H53	H	1.739820	0.031358	0.144210
H54	H	1.635548	-0.063166	0.144320
H55	H	1.654381	0.014045	0.778062
N56	N	1.308210	0.325921	0.659276
H57	H	1.356542	0.376578	0.722891
H58	H	1.254460	0.374286	0.587359
N59	N	1.228409	0.380107	-0.000092
H60	H	1.248765	0.461965	-0.000099
H61	H	1.265453	0.340267	0.090229
N62	N	1.308209	0.325937	0.340543
H63	H	1.254441	0.374375	0.412381
H64	H	1.356625	0.376523	0.276919
