data_functionalizedCrystal
_audit_creation_method	'MofGen! by Chris Wilmer'
_symmetry_space_group_name_H-M	'P1'
_symmetry_Int_Tables_number	1
_symmetry_cell_setting	triclinic
loop_
_symmetry_equiv_pos_as_xyz
  x,y,z
_cell_length_a	14.472310
_cell_length_b	11.792241
_cell_length_c	11.792241
_cell_angle_alpha	84.193416
_cell_angle_beta	89.998842
_cell_angle_gamma	89.991153
loop_
_atom_site_label
_atom_site_type_symbol
_atom_site_fract_x
_atom_site_fract_y
_atom_site_fract_z
O1	O	0.076752	-1.506924	-0.155560
O2	O	0.076773	-1.176583	-0.171593
O3	O	0.076755	-1.349770	0.001594
O4	O	0.076769	-1.333737	-0.328747
O5	O	-0.076927	-1.349725	0.001584
O6	O	-0.076909	-1.176538	-0.171603
O7	O	-0.076930	-1.506879	-0.155570
Cu8	Cu	-0.090952	-1.341704	-0.163587
Cu9	Cu	0.090795	-1.341757	-0.163576
O10	O	-0.076913	-1.333692	-0.328757
C11	C	-0.000065	-1.134269	-0.170591
C12	C	-0.000057	-1.008255	-0.167576
N13	N	-0.218783	-1.341675	-0.163595
C14	C	-0.000085	-1.348740	0.043880
C15	C	-0.000084	-1.345726	0.169894
C16	C	-0.592874	-1.341756	-0.163571
C17	C	-0.553699	-1.248772	-0.255925
C18	C	-0.446611	-1.248990	-0.256266
C19	C	-0.407283	-1.341715	-0.163583
C20	C	-0.446127	-1.460302	-0.190178
C21	C	-0.553248	-1.459780	-0.190836
C22	C	-0.553407	-1.317207	-0.044353
C23	C	-0.446279	-1.314496	-0.045130
C24	C	-0.302395	-1.341699	-0.163587
C25	C	-0.697762	-1.341779	-0.163569
N26	N	0.218626	-1.341795	-0.163559
C27	C	-0.000090	-1.549192	-0.156572
C28	C	-0.000092	-1.675206	-0.159587
C29	C	-0.000084	-0.777543	-0.162034
C30	C	-0.000069	-0.905928	-0.165113
C31	C	-0.000070	-1.334721	-0.371043
C32	C	-0.000065	-1.337736	-0.497057
C33	C	-0.000068	-1.340183	0.400606
C34	C	-0.000077	-1.343262	0.272221
H35	H	-0.420350	-1.160865	-0.240313
N36	N	-0.587460	-1.268270	-0.366261
N37	N	-0.640247	-1.350349	-0.377173
H38	H	-0.664092	-1.364125	-0.455096
H39	H	-0.419512	-1.377765	0.026872
H40	H	-0.420974	-1.264742	-0.344720
N41	N	-0.585205	-1.402236	0.041887
N42	N	-0.632273	-1.374026	0.123367
H43	H	-0.654737	-1.434079	0.184268
H44	H	-0.578222	-1.481302	-0.277803
H45	H	-0.580470	-1.232571	-0.018960
N46	N	-0.414154	-1.549226	-0.108099
N47	N	-0.367391	-1.629516	-0.139514
H48	H	-0.344809	-1.692319	-0.081545
N49	N	-0.585748	-1.549233	-0.109704
N50	N	-0.529314	-1.611853	-0.052782
H51	H	-0.552262	-1.675033	0.004513
H52	H	-0.579482	-1.160364	-0.240224
H53	H	-0.420892	-1.227258	-0.024964
N54	N	-0.412450	-1.487916	-0.298038
N55	N	-0.359854	-1.420458	-0.355499
H56	H	-0.336069	-1.439954	-0.431678
