data_functionalizedCrystal
_audit_creation_method	'MofGen! by Chris Wilmer'
_symmetry_space_group_name_H-M	'P1'
_symmetry_Int_Tables_number	1
_symmetry_cell_setting	triclinic
loop_
_symmetry_equiv_pos_as_xyz
  x,y,z
_cell_length_a	19.077236
_cell_length_b	19.077068
_cell_length_c	19.076919
_cell_angle_alpha	85.529249
_cell_angle_beta	90.112677
_cell_angle_gamma	94.708605
loop_
_atom_site_label
_atom_site_type_symbol
_atom_site_fract_x
_atom_site_fract_y
_atom_site_fract_z
Zn1	Zn	1.047584	-0.256314	0.450390
Zn2	Zn	1.547584	0.243686	0.950390
Zn3	Zn	1.047497	-0.369471	0.337231
Zn4	Zn	1.547497	0.130529	0.837231
Zn5	Zn	0.934815	-0.255944	0.328156
Zn6	Zn	1.434815	0.244056	0.828156
Zn7	Zn	0.924923	-0.378891	0.450332
Zn8	Zn	1.424923	0.121109	0.950332
O9	O	0.988705	-0.315155	0.391527
O10	O	1.488705	0.184845	0.891527
O11	O	1.146064	-0.267537	0.439202
O12	O	1.646064	0.232463	0.939202
O13	O	1.036653	-0.350314	0.237539
O14	O	1.536653	0.149686	0.737539
O15	O	0.953950	-0.157183	0.340597
O16	O	1.453950	0.342817	0.840597
O17	O	1.146000	-0.350673	0.356065
O18	O	1.646000	0.149327	0.856065
O19	O	1.036801	-0.157455	0.430402
O20	O	1.536801	0.342545	0.930402
O21	O	0.953866	-0.266906	0.230872
O22	O	1.453866	0.233094	0.730872
O23	O	0.835011	-0.276041	0.340540
O24	O	1.335011	0.223959	0.840540
O25	O	0.937090	-0.366728	0.548828
O26	O	1.437090	0.133272	1.048828
O27	O	0.827743	-0.366369	0.430302
O28	O	1.327743	0.133631	0.930302
O29	O	1.027209	-0.276672	0.548871
O30	O	1.527209	0.223328	1.048871
O31	O	1.027061	-0.469531	0.356008
O32	O	1.527061	0.030469	0.856008
O33	O	0.937006	-0.476452	0.439102
O34	O	1.437006	0.023548	0.939102
C35	C	0.805839	-0.322188	0.384430
C36	C	1.305839	0.177812	0.884430
C37	C	0.727607	-0.325214	0.381412
C38	C	1.227607	0.174786	0.881412
C39	C	0.690881	-0.283426	0.423350
C40	C	1.190881	0.216574	0.923350
C41	C	0.617374	-0.286266	0.420507
C42	C	1.117374	0.213734	0.920507
C43	C	0.580594	-0.330898	0.375730
C44	C	1.080594	0.169102	0.875730
C45	C	0.617325	-0.372687	0.333787
C46	C	1.117325	0.127313	0.833787
C47	C	0.690831	-0.369843	0.336626
C48	C	1.190831	0.130157	0.836626
C49	C	0.360752	-0.344033	0.362585
C50	C	0.860752	0.155967	0.862585
C51	C	0.287240	-0.346876	0.359750
C52	C	0.787240	0.153124	0.859750
C53	C	0.287295	-0.260453	0.446471
C54	C	0.787295	0.239547	0.946471
C55	C	0.360802	-0.257616	0.449309
C56	C	0.860802	0.242384	0.949309
C57	C	0.397527	-0.299403	0.407363
C58	C	0.897527	0.200597	0.907363
N59	N	0.505458	-0.333803	0.372825
N60	N	1.005458	0.166197	0.872825
N61	N	0.472662	-0.296493	0.410265
N62	N	0.972662	0.203507	0.910265
C63	C	0.980969	-0.498612	0.398550
C64	C	1.480969	0.001388	0.898550
C65	C	0.977723	-0.577094	0.401580
C66	C	1.477723	-0.077094	0.901580
C67	C	1.023118	-0.610338	0.359779
C68	C	1.523118	-0.110338	0.859779
C69	C	1.020069	-0.684080	0.362634
C70	C	1.520069	-0.184080	0.862634
C71	C	0.971621	-0.724577	0.407285
C72	C	1.471621	-0.224577	0.907285
C73	C	0.926224	-0.691328	0.449090
C74	C	1.426224	-0.191328	0.949090
C75	C	0.929277	-0.617587	0.446239
C76	C	1.429277	-0.117587	0.946239
C77	C	0.957462	-0.945508	0.420451
C78	C	1.457462	-0.445508	0.920451
C79	C	0.954411	-1.019254	0.423297
C80	C	1.454411	-0.519254	0.923297
C81	C	1.048258	-1.012002	0.336841
C82	C	1.548258	-0.512002	0.836841
C83	C	1.051303	-0.938260	0.333991
C84	C	1.551303	-0.438260	0.833991
C85	C	1.005909	-0.905017	0.375798
C86	C	1.505909	-0.405017	0.875798
N87	N	0.968502	-0.799954	0.410202
N88	N	1.468502	-0.299954	0.910202
N89	N	1.009032	-0.829642	0.372885
N90	N	1.509032	-0.329642	0.872885
C91	C	1.172284	-0.308096	0.398652
C92	C	1.672284	0.191904	0.898652
C93	C	1.250515	-0.305088	0.401689
C94	C	1.750515	0.194912	0.901689
C95	C	0.981056	-0.322792	0.575100
C96	C	1.481056	0.177208	1.075100
C97	C	0.977797	-0.326047	0.653328
C98	C	1.477797	0.173953	1.153328
C99	C	0.996489	-0.130982	0.384494
C100	C	1.496489	0.369018	0.884494
C101	C	0.999806	-0.052499	0.381497
C102	C	1.499806	0.447501	0.881497
C103	C	0.996366	-0.307495	0.208668
C104	C	1.496366	0.192505	0.708668
C105	C	0.999770	-0.304037	0.130439
C106	C	1.499770	0.195963	0.630439
C107	C	1.023183	-0.280690	0.690103
C108	C	1.523183	0.219310	1.190103
C109	C	1.020112	-0.283745	0.763606
C110	C	1.520112	0.216255	1.263606
C111	C	0.971657	-0.332161	0.800332
C112	C	1.471657	0.167839	1.300332
C113	C	0.926266	-0.377520	0.763552
C114	C	1.426266	0.122480	1.263552
C115	C	0.929334	-0.374461	0.690050
C116	C	1.429334	0.125539	1.190050
C117	C	0.957447	-0.346336	1.020156
C118	C	1.457447	0.153664	1.520156
C119	C	0.954384	-0.349393	1.093664
C120	C	1.454384	0.150607	1.593664
C121	C	1.048229	-0.255618	1.093712
C122	C	1.548229	0.244382	1.593712
C123	C	1.051296	-0.252565	1.020209
C124	C	1.551296	0.247435	1.520209
C125	C	1.005902	-0.297921	0.983435
C126	C	1.505902	0.202079	1.483435
N127	N	0.968519	-0.335287	0.875464
N128	N	1.468519	0.164713	1.375464
N129	N	1.009038	-0.294792	0.908304
N130	N	1.509038	0.205208	1.408304
H131	H	0.720732	-0.403871	0.302475
H132	H	1.220732	0.096129	0.802475
C133	C	0.879407	-0.424358	0.649598
C134	C	1.379407	0.075642	1.149598
N135	N	0.841799	-0.461941	0.619130
N136	N	1.341799	0.038059	1.119130
C137	C	0.246893	-0.214478	0.492595
C138	C	0.746893	0.285522	0.992595
N139	N	0.216463	-0.179842	0.527333
N140	N	0.716463	0.320158	1.027333
H141	H	0.886811	-0.416939	0.793461
H142	H	1.386811	0.083061	1.293461
H143	H	0.257296	-0.383224	0.323286
H144	H	0.757296	0.116776	0.823286
C145	C	0.401139	-0.390004	0.316446
C146	C	0.901139	0.109996	0.816446
N147	N	0.431561	-0.424632	0.281693
N148	N	0.931561	0.075368	0.781693
H149	H	0.587372	-0.409024	0.297324
H150	H	1.087372	0.090976	0.797324
H151	H	0.720822	-0.247083	0.459815
H152	H	1.220822	0.252917	0.959815
H153	H	0.920499	-0.918448	0.454491
H154	H	1.420499	-0.418448	0.954491
H155	H	1.085216	-1.039077	0.302805
H156	H	1.585216	-0.539077	0.802805
H157	H	0.587475	-0.252239	0.454660
H158	H	1.087475	0.247761	0.954660
C159	C	0.901117	-1.063799	0.472424
C160	C	1.401117	-0.563799	0.972424
N161	N	0.860978	-1.097351	0.509425
N162	N	1.360978	-0.597351	1.009425
C163	C	1.070042	-0.233850	0.804055
C164	C	1.570042	0.266150	1.304055
N165	N	1.107652	-0.196267	0.834521
N166	N	1.607652	0.303733	1.334521
H167	H	0.390744	-0.221274	0.485775
H168	H	0.890744	0.278726	0.985775
C169	C	1.076414	-0.565798	0.310657
C170	C	1.576414	-0.065798	0.810657
N171	N	1.116559	-0.532253	0.273658
N172	N	1.616559	-0.032253	0.773658
C173	C	0.901076	-0.402655	1.134061
C174	C	1.401076	0.097345	1.634061
N175	N	0.860926	-0.442770	1.164489
N176	N	1.360926	0.057230	1.664489
C177	C	0.879339	-0.581018	0.492223
C178	C	1.379339	-0.081018	0.992223
N179	N	0.841726	-0.553476	0.526862
N180	N	1.341726	-0.053476	1.026862
C181	C	1.070003	-0.720646	0.316645
C182	C	1.570003	-0.220646	0.816645
N183	N	1.107615	-0.748186	0.282003
N184	N	1.607615	-0.248186	0.782003
C185	C	0.872928	-0.735877	0.498205
C186	C	1.372928	-0.235877	0.998205
N187	N	0.832782	-0.769430	0.535196
N188	N	1.332782	-0.269430	1.035196
C189	C	1.104583	-0.893719	0.284852
C190	C	1.604583	-0.393719	0.784852
N191	N	1.144705	-0.860170	0.247831
N192	N	1.644705	-0.360170	0.747831
C193	C	1.076486	-0.227427	0.649710
C194	C	1.576486	0.272573	1.149710
N195	N	1.116634	-0.187306	0.619288
N196	N	1.616634	0.312694	1.119288
C197	C	1.104592	-0.199297	0.979815
C198	C	1.604592	0.300703	1.479815
N199	N	1.144736	-0.159174	0.949390
N200	N	1.644736	0.340826	1.449390
C201	C	0.907510	-0.396227	0.979714
C202	C	1.407510	0.103773	1.479714
N203	N	0.869894	-0.433807	0.949251
N204	N	1.369894	0.066193	1.449251
H205	H	1.085185	-0.218691	1.123662
H206	H	1.585185	0.281309	1.623662
