data_functionalizedCrystal
_audit_creation_method	'MofGen! by Chris Wilmer'
_symmetry_space_group_name_H-M	'P1'
_symmetry_Int_Tables_number	1
_symmetry_cell_setting	triclinic
loop_
_symmetry_equiv_pos_as_xyz
  x,y,z
_cell_length_a	10.686220
_cell_length_b	10.685194
_cell_length_c	10.686551
_cell_angle_alpha	98.415440
_cell_angle_beta	89.691918
_cell_angle_gamma	99.069756
loop_
_atom_site_label
_atom_site_type_symbol
_atom_site_fract_x
_atom_site_fract_y
_atom_site_fract_z
Zn1	Zn	1.946781	-0.311311	0.540461
Zn2	Zn	2.446781	0.188689	1.040461
Zn3	Zn	1.911615	-0.542431	0.314426
Zn4	Zn	2.411615	-0.042431	0.814426
Zn5	Zn	1.718223	-0.343976	0.344478
Zn6	Zn	2.218223	0.156024	0.844478
Zn7	Zn	1.718258	-0.539843	0.540385
Zn8	Zn	2.218258	-0.039843	1.040385
O9	O	1.823719	-0.434390	0.434938
O10	O	2.323719	0.065610	0.934938
O11	O	2.118689	-0.329382	0.497932
O12	O	2.618689	0.170618	0.997932
O13	O	1.871230	-0.530859	0.141828
O14	O	2.371230	-0.030859	0.641828
O15	O	1.763244	-0.160946	0.383085
O16	O	2.263244	0.339054	0.883085
O17	O	2.092853	-0.499185	0.331864
O18	O	2.592853	0.000815	0.831864
O19	O	1.931165	-0.136948	0.527073
O20	O	2.431165	0.363052	1.027073
O21	O	1.729146	-0.385055	0.163907
O22	O	2.229146	0.114945	0.663907
O23	O	1.541655	-0.382545	0.383011
O24	O	2.041655	0.117455	0.883011
O25	O	1.763303	-0.494775	0.716980
O26	O	2.263303	0.005225	1.216980
O27	O	1.541680	-0.526449	0.526943
O28	O	2.041680	-0.026449	1.026943
O29	O	1.931198	-0.326873	0.717036
O30	O	2.431198	0.173127	1.217036
O31	O	1.871264	-0.720784	0.331791
O32	O	2.371264	-0.220784	0.831791
O33	O	1.729204	-0.718883	0.497802
O34	O	2.229204	-0.218883	0.997802
C35	C	1.495884	-0.457762	0.458231
C36	C	1.995884	0.042238	0.958231
C37	C	1.355634	-0.467788	0.468224
C38	C	1.855634	0.032212	0.968224
C39	C	1.796458	-0.766163	0.411552
C40	C	2.296458	-0.266163	0.911552
C41	C	1.784915	-0.908084	0.401582
C42	C	2.284915	-0.408084	0.901582
C43	C	2.152835	-0.410928	0.411554
C44	C	2.652835	0.089072	0.911554
C45	C	2.293085	-0.400930	0.401589
C46	C	2.793085	0.099070	0.901589
C47	C	1.851177	-0.406891	0.764075
C48	C	2.351177	0.093109	1.264075
C49	C	1.862878	-0.395173	0.904333
C50	C	2.362878	0.104827	1.404333
C51	C	1.851123	-0.101318	0.458440
C52	C	2.351123	0.398682	0.958440
C53	C	1.862801	0.040618	0.468455
C54	C	2.362801	0.540618	0.968455
C55	C	1.796448	-0.461685	0.107083
C56	C	2.296448	0.038315	0.607083
C57	C	1.785022	-0.473026	-0.033167
C58	C	2.285022	0.026974	0.466833
H59	H	1.346828	-0.336021	0.336895
H60	H	1.846828	0.163979	0.836895
C61	C	1.741133	-0.658289	0.807588
C62	C	2.241133	-0.158289	1.307588
C63	C	1.682952	-0.575111	0.894215
C64	C	2.182952	-0.075111	1.394215
H65	H	1.678117	-0.721307	0.762746
H66	H	2.178117	-0.221307	1.262746
H67	H	1.796315	-0.698969	0.851656
H68	H	2.296315	-0.198969	1.351656
H69	H	1.788410	-0.610999	0.749599
H70	H	2.288410	-0.110999	1.249599
H71	H	1.635683	-0.622400	0.952210
H72	H	2.135683	-0.122400	1.452210
H73	H	1.627749	-0.534428	0.850144
H74	H	2.127749	-0.034428	1.350144
H75	H	1.938496	-0.319554	0.958132
H76	H	2.438496	0.180446	1.458132
H77	H	1.938317	-0.894726	0.533341
H78	H	2.438317	-0.394726	1.033341
C79	C	1.153530	-0.548737	0.548893
C80	C	1.653530	-0.048737	1.048893
C81	C	1.283085	-0.555426	0.555564
C82	C	1.783085	-0.055426	1.055564
H83	H	1.108745	-0.602834	0.602819
H84	H	1.608745	-0.102834	1.102819
H85	H	1.123387	-0.575907	0.464296
H86	H	1.623387	-0.075907	0.964296
H87	H	1.140595	-0.462932	0.575060
H88	H	1.640595	0.037068	1.075060
H89	H	1.296021	-0.641230	0.529387
H90	H	1.796021	-0.141230	1.029387
H91	H	1.313238	-0.528263	0.640178
H92	H	1.813238	-0.028263	1.140178
H93	H	1.709385	-0.972749	0.336703
H94	H	2.209385	-0.472749	0.836703
