data_functionalizedCrystal
_audit_creation_method	'MofGen! by Chris Wilmer'
_symmetry_space_group_name_H-M	'P1'
_symmetry_Int_Tables_number	1
_symmetry_cell_setting	triclinic
loop_
_symmetry_equiv_pos_as_xyz
  x,y,z
_cell_length_a	15.944499
_cell_length_b	19.188930
_cell_length_c	15.021413
_cell_angle_alpha	89.998889
_cell_angle_beta	89.990095
_cell_angle_gamma	83.311195
loop_
_atom_site_label
_atom_site_type_symbol
_atom_site_fract_x
_atom_site_fract_y
_atom_site_fract_z
O1	O	1.114220	0.089867	-0.074096
O2	O	0.869622	0.101006	-0.074087
O3	O	0.998980	-0.006202	-0.074074
O4	O	0.984862	0.197075	-0.074108
O5	O	0.998959	-0.006187	0.073990
O6	O	0.869602	0.101022	0.073977
O7	O	1.114199	0.089882	0.073969
Zn8	Zn	0.991897	0.095454	0.097481
Zn9	Zn	0.991924	0.095434	-0.097600
O10	O	0.984842	0.197090	0.073956
C11	C	0.838319	0.100558	-0.000054
C12	C	0.745076	0.099191	-0.000049
C13	C	0.453307	0.161476	-0.000073
C14	C	0.514467	0.129091	-0.073073
C15	C	0.409458	0.094223	-0.000069
C16	C	0.514433	0.129088	0.072907
C17	C	0.574358	0.096667	-0.000058
C18	C	0.469390	0.061819	-0.073129
C19	C	0.469350	0.061826	0.072916
C20	C	0.530493	0.029392	-0.000101
C21	C	0.314463	0.092817	-0.000076
C22	C	0.669351	0.098068	-0.000057
C23	C	0.998512	-0.032206	-0.000039
C24	C	0.997140	-0.109714	-0.000032
C25	C	1.073042	-0.154454	-0.000030
C26	C	1.071753	-0.227281	-0.000044
C27	C	0.994557	-0.255365	-0.000042
C28	C	0.918644	-0.210616	-0.000049
C29	C	0.919936	-0.137790	-0.000044
N30	N	0.935543	-0.363508	0.050349
N31	N	0.934321	-0.432690	0.050346
C32	C	0.990661	-0.474783	-0.000060
N33	N	1.048282	-0.445083	-0.050452
N34	N	1.049506	-0.375895	-0.050445
C35	C	0.993148	-0.334331	-0.000049
C36	C	1.065171	-0.598490	-0.000075
C37	C	1.063879	-0.671318	-0.000095
C38	C	0.910768	-0.654652	-0.000091
C39	C	0.912062	-0.581825	-0.000080
C40	C	0.989266	-0.553749	-0.000068
C41	C	1.145502	0.090330	-0.000067
C42	C	1.238746	0.091698	-0.000077
C43	C	0.985309	0.223095	-0.000081
C44	C	0.986682	0.300603	-0.000094
N45	N	0.991885	0.095468	0.230619
N46	N	0.991943	0.095415	-0.230737
C47	C	0.932061	0.145017	0.470296
C48	C	1.007913	0.158561	0.529625
C49	C	0.991906	0.095450	0.412226
C50	C	0.916075	0.081923	0.529639
C51	C	0.991920	0.095435	0.587650
C52	C	1.067796	0.109025	0.470248
C53	C	0.975909	0.032359	0.470256
C54	C	1.051816	0.045876	0.529559
C55	C	0.991897	0.095461	0.311168
C56	C	0.991938	0.095424	0.688705
H57	H	0.449331	0.033410	0.134643
O58	O	0.445552	0.027955	-0.146813
C59	C	0.357260	0.027062	-0.145937
H60	H	0.326872	0.071881	-0.102675
H61	H	0.341720	-0.025073	-0.117709
C62	C	0.360178	-0.019080	-0.294685
C63	C	0.322854	0.035972	-0.241557
H64	H	0.338954	-0.013587	-0.353668
H65	H	0.419662	-0.018481	-0.295275
H66	H	0.347225	-0.062520	-0.271151
H67	H	0.335816	0.079410	-0.265085
H68	H	0.263370	0.035380	-0.240974
H69	H	0.851941	0.070488	0.555728
O70	O	0.570469	-0.037202	-0.000097
C71	C	0.658575	-0.035163	0.000609
H72	H	0.673146	0.017176	0.029048
H73	H	0.683989	-0.041226	-0.070254
C74	C	0.682908	-0.159732	0.023759
C75	C	0.700804	-0.095450	0.058696
H76	H	0.708959	-0.196922	0.059586
H77	H	0.623550	-0.161107	0.023280
H78	H	0.704088	-0.164775	-0.035293
H79	H	0.679616	-0.090405	0.117742
H80	H	0.760160	-0.094076	0.059186
H81	H	0.534393	0.157551	0.134620
O82	O	1.144387	0.122724	0.439415
C83	C	1.197962	0.132310	0.511958
H84	H	1.175068	0.105045	0.573269
H85	H	1.197037	0.190771	0.526061
C86	C	1.316783	0.134130	0.414021
C87	C	1.288667	0.100637	0.489323
H88	H	1.372735	0.114596	0.400059
H89	H	1.280688	0.127674	0.365147
H90	H	1.316004	0.182846	0.425784
H91	H	1.289436	0.051924	0.477556
H92	H	1.324765	0.107084	0.538195
O93	O	0.871645	0.195022	0.439350
C94	C	0.791906	0.181304	0.470887
H95	H	0.800320	0.147995	0.533796
H96	H	0.759080	0.151848	0.417748
C97	C	0.727447	0.292017	0.414875
C98	C	0.737780	0.251111	0.492145
H99	H	0.694057	0.335077	0.427984
H100	H	0.781168	0.301259	0.393624
H101	H	0.700095	0.267462	0.370599
H102	H	0.765141	0.275663	0.536415
H103	H	0.684063	0.241876	0.513404
H104	H	1.135908	-0.131599	-0.000024
O105	O	1.140089	-0.571096	-0.000035
C106	C	1.124954	-0.497224	-0.000046
H107	H	1.059337	-0.480119	0.027992
H108	H	1.128957	-0.476946	-0.071077
C109	C	1.272245	-0.488036	0.023585
C110	C	1.191655	-0.467028	0.058028
H111	H	1.313391	-0.469408	0.059404
H112	H	1.282443	-0.537805	0.023589
H113	H	1.275568	-0.471136	-0.035607
H114	H	1.188329	-0.483935	0.117214
H115	H	1.181458	-0.417261	0.058035
O116	O	1.137692	-0.714681	-0.000055
C117	C	1.206106	-0.674280	-0.000064
H118	H	1.184577	-0.619927	0.027973
H119	H	1.229799	-0.669091	-0.071095
C120	C	1.304355	-0.777336	0.023568
C121	C	1.277915	-0.710580	0.058011
H122	H	1.348652	-0.799728	0.059387
H123	H	1.258264	-0.804556	0.023571
H124	H	1.324093	-0.773002	-0.035624
H125	H	1.258167	-0.714915	0.117197
H126	H	1.324004	-0.683362	0.058019
O127	O	1.145542	-0.270681	-0.000157
C128	C	1.192442	-0.257970	-0.076846
H129	H	1.171626	-0.202724	-0.102414
H130	H	1.181112	-0.297801	-0.130545
C131	C	1.312664	-0.332764	-0.022140
C132	C	1.287102	-0.264907	-0.053538
H133	H	1.371055	-0.337046	-0.007765
H134	H	1.281067	-0.341330	0.029526
H135	H	1.303216	-0.365948	-0.066895
H136	H	1.296541	-0.231725	-0.008780
H137	H	1.318703	-0.256336	-0.105196
H138	H	0.855791	-0.233486	-0.000049
H139	H	0.419768	0.217289	-0.000153
H140	H	1.021456	0.211908	0.555703
H141	H	0.858125	-0.101363	-0.000045
H142	H	0.962342	-0.020971	0.444158
H143	H	1.102486	0.003949	0.555416
H144	H	0.534468	0.157532	-0.134794
H145	H	0.847913	-0.677517	-0.000093
H146	H	0.850254	-0.545397	-0.000076
