data_functionalizedCrystal
_audit_creation_method	'MofGen! by Chris Wilmer'
_symmetry_space_group_name_H-M	'P1'
_symmetry_Int_Tables_number	1
_symmetry_cell_setting	triclinic
loop_
_symmetry_equiv_pos_as_xyz
  x,y,z
_cell_length_a	18.050590
_cell_length_b	11.169416
_cell_length_c	11.169409
_cell_angle_alpha	90.028030
_cell_angle_beta	89.992504
_cell_angle_gamma	89.997748
loop_
_atom_site_label
_atom_site_type_symbol
_atom_site_fract_x
_atom_site_fract_y
_atom_site_fract_z
Zn1	Zn	1.135431	0.478057	-0.678184
Zn2	Zn	1.635431	0.978057	-0.178184
Zn3	Zn	1.135357	0.678798	-0.477516
Zn4	Zn	1.635357	1.178798	0.022484
Zn5	Zn	1.011232	0.478089	-0.477561
Zn6	Zn	1.511232	0.978089	0.022439
Zn7	Zn	1.011231	0.678659	-0.678204
Zn8	Zn	1.511231	1.178659	-0.178204
O9	O	1.073313	0.578401	-0.577866
O10	O	1.573313	1.078401	-0.077866
O11	O	1.239346	0.504730	-0.651537
O12	O	1.739346	1.004730	-0.151537
O13	O	1.118861	0.652245	-0.309572
O14	O	1.618861	1.152245	0.190428
O15	O	1.027739	0.310135	-0.504185
O16	O	1.527739	0.810135	-0.004185
O17	O	1.239291	0.652214	-0.504107
O18	O	1.739291	1.152214	-0.004107
O19	O	1.118988	0.310112	-0.651581
O20	O	1.618988	0.810112	-0.151581
O21	O	1.027667	0.504785	-0.309605
O22	O	1.527667	1.004785	0.190395
O23	O	0.907308	0.504651	-0.504204
O24	O	1.407308	1.004651	-0.004204
O25	O	1.027737	0.651977	-0.846151
O26	O	1.527737	1.151977	-0.346151
O27	O	0.907307	0.652008	-0.651616
O28	O	1.407307	1.152008	-0.151616
O29	O	1.118986	0.504596	-0.846136
O30	O	1.618986	1.004596	-0.346136
O31	O	1.118859	0.846729	-0.504127
O32	O	1.618859	1.346729	-0.004127
O33	O	1.027665	0.846627	-0.651571
O34	O	1.527665	1.346627	-0.151571
C35	C	0.880361	0.578319	-0.577918
C36	C	1.380361	1.078319	-0.077918
C37	C	0.797815	0.578313	-0.577968
C38	C	1.297815	1.078313	-0.077968
C39	C	0.598385	0.658675	-0.657940
C40	C	1.098385	1.158675	-0.157940
C41	C	0.548977	0.549235	-0.687457
C42	C	1.048977	1.049235	-0.187457
C43	C	0.646685	0.578380	-0.577910
C44	C	1.146685	1.078380	-0.077910
C45	C	0.549011	0.687882	-0.548392
C46	C	1.049011	1.187882	-0.048392
C47	C	0.500699	0.578454	-0.577855
C48	C	1.000699	1.078454	-0.077855
C49	C	0.598363	0.468882	-0.607483
C50	C	1.098363	0.968882	-0.107483
C51	C	0.598402	0.607602	-0.468368
C52	C	1.098402	1.107602	0.031632
C53	C	0.549016	0.498087	-0.497843
C54	C	1.049016	0.998087	0.002157
C55	C	0.730783	0.578338	-0.577944
C56	C	1.230783	1.078338	-0.077944
C57	C	0.416603	0.578483	-0.577821
C58	C	0.916603	1.078483	-0.077821
C59	C	1.073274	0.890225	-0.577872
C60	C	1.573274	1.390225	-0.077872
C61	C	1.073326	1.023625	-0.577915
C62	C	1.573326	1.523625	-0.077915
C63	C	1.073370	0.578268	-0.890909
C64	C	1.573370	1.078268	-0.390909
C65	C	1.073394	0.578211	-1.024309
C66	C	1.573394	1.078211	-0.524309
C67	C	1.267018	0.578484	-0.577815
C68	C	1.767018	1.078484	-0.077815
C69	C	1.349564	0.578519	-0.577793
C70	C	1.849564	1.078519	-0.077793
C71	C	1.073364	1.265358	-0.577898
C72	C	1.573364	1.765358	-0.077898
C73	C	1.073367	1.131958	-0.577944
C74	C	1.573367	1.631958	-0.077944
C75	C	1.073299	0.578447	-0.266041
C76	C	1.573299	1.078447	0.233959
C77	C	1.073418	0.578166	-0.132642
C78	C	1.573418	1.078166	0.367358
H79	H	0.619952	0.376281	-0.632531
H80	H	1.119952	0.876281	-0.132531
C81	C	0.545764	0.844208	-0.400842
C82	C	1.045764	1.344208	0.099158
C83	C	0.519744	0.812851	-0.514713
C84	C	1.019744	1.312851	-0.014713
H85	H	0.527693	0.921357	-0.380059
H86	H	1.027693	1.421357	0.119941
H87	H	0.598379	0.845259	-0.401344
H88	H	1.098379	1.345259	0.098656
H89	H	0.528855	0.787282	-0.343893
H90	H	1.028855	1.287282	0.156107
H91	H	0.536658	0.869772	-0.571663
H92	H	1.036658	1.369772	-0.071663
H93	H	0.467118	0.811809	-0.514219
H94	H	0.967118	1.311809	-0.014219
C95	C	0.602709	0.719317	-0.864028
C96	C	1.102709	1.219317	-0.364028
C97	C	0.627660	0.750180	-0.749399
C98	C	1.127660	1.250180	-0.249399
H99	H	0.620788	0.775800	-0.920490
H100	H	1.120788	1.275800	-0.420490
H101	H	0.550094	0.719476	-0.865139
H102	H	1.050094	1.219476	-0.365139
H103	H	0.620335	0.641749	-0.884199
H104	H	1.120335	1.141749	-0.384199
H105	H	0.610029	0.827745	-0.729224
H106	H	1.110029	1.327745	-0.229224
H107	H	0.680286	0.750034	-0.748285
H108	H	1.180286	1.250034	-0.248285
H109	H	0.527267	0.524543	-0.780071
H110	H	1.027267	1.024543	-0.280071
H111	H	0.527476	0.430137	-0.430141
H112	H	1.027476	0.930137	0.069859
C113	C	0.705305	0.641666	-0.345085
C114	C	1.205305	1.141666	0.154915
C115	C	0.627740	0.640973	-0.343379
C116	C	1.127740	1.140973	0.156621
H117	H	0.723416	0.662270	-0.267920
H118	H	1.223416	1.162270	0.232080
H119	H	0.722171	0.698738	-0.401904
H120	H	1.222171	1.198738	0.098096
H121	H	0.722930	0.564450	-0.366572
H122	H	1.222930	1.064450	0.133428
H123	H	0.610115	0.718192	-0.321902
H124	H	1.110115	1.218192	0.178098
H125	H	0.610867	0.583898	-0.286543
H126	H	1.110867	1.083898	0.213457
