data_functionalizedCrystal
_audit_creation_method	'MofGen! by Chris Wilmer'
_symmetry_space_group_name_H-M	'P1'
_symmetry_Int_Tables_number	1
_symmetry_cell_setting	triclinic
loop_
_symmetry_equiv_pos_as_xyz
  x,y,z
_cell_length_a	27.440280
_cell_length_b	20.875641
_cell_length_c	20.875662
_cell_angle_alpha	92.966745
_cell_angle_beta	61.749305
_cell_angle_gamma	57.588783
loop_
_atom_site_label
_atom_site_type_symbol
_atom_site_fract_x
_atom_site_fract_y
_atom_site_fract_z
Zr1	Zr	0.536410	-0.054197	0.616039
O2	O	0.644319	-0.166255	0.509521
O3	O	0.432833	-0.019846	0.648680
O4	O	0.542255	-0.159036	0.643589
O5	O	0.528776	0.082732	0.518642
O6	O	0.541937	-0.153340	0.749357
O7	O	0.534897	-0.027065	0.514612
O8	O	0.346201	0.095645	0.758464
O9	O	0.724512	-0.166253	0.509535
O10	O	0.473593	-0.000943	0.741549
O11	O	0.469262	0.076746	0.665623
O12	O	0.598092	-0.087132	0.659629
O13	O	0.593761	-0.009443	0.583702
Zr14	Zr	0.526139	0.130003	0.791154
Zr15	Zr	0.535903	-0.045111	0.784727
Zr16	Zr	0.526646	0.120918	0.622465
Zr17	Zr	0.664307	-0.054193	0.616060
Zr18	Zr	0.398242	0.130000	0.791132
O19	O	0.629716	0.095653	0.758513
O20	O	0.643598	-0.153337	0.749374
O21	O	0.630437	0.082734	0.518659
O22	O	0.418230	0.242061	0.897671
O23	O	0.432112	-0.006928	0.888533
O24	O	0.418951	0.229143	0.657818
O25	O	0.533773	-0.006926	0.888550
O26	O	0.520294	0.234842	0.763604
O27	O	0.520612	0.229146	0.657835
O28	O	0.527652	0.102872	0.892580
O29	O	0.724109	-0.159032	0.643620
O30	O	0.338440	0.234838	0.763573
O31	O	0.338037	0.242059	0.897658
O32	O	0.345798	0.102867	0.892549
O33	O	0.716751	-0.027061	0.514643
O34	O	0.716348	-0.019839	0.648728
O35	O	0.464456	0.162938	0.747564
O36	O	0.468788	0.085249	0.823490
O37	O	0.593287	-0.000940	0.741570
O38	O	0.588955	0.076749	0.665643
C39	C	0.371294	0.037899	0.703569
C40	C	0.316998	0.037898	0.703560
C41	C	0.531909	0.026539	0.492593
C42	C	0.532124	0.022682	0.420980
C43	C	0.519062	0.256944	0.711635
C44	C	0.514917	0.331285	0.714364
C45	C	-0.017484	-0.002642	0.743251
C46	C	-0.068508	-0.002639	0.743258
O47	O	-0.092992	-0.037101	0.776990
N48	N	-0.096285	0.037912	0.703625
C49	C	-0.073040	0.078471	0.663988
O50	O	-0.101352	0.112964	0.630278
C51	C	-0.022021	0.078473	0.663986
C52	C	0.005759	0.037912	0.703616
C53	C	0.010296	-0.043199	0.782878
C54	C	0.061317	-0.043202	0.782869
C55	C	0.084559	-0.002649	0.743234
C56	C	0.056780	0.037908	0.703607
C57	C	0.001219	0.119036	0.624355
C58	C	0.052241	0.119035	0.624357
C59	C	0.080021	0.078474	0.663986
C60	C	0.131044	0.078457	0.663963
N61	N	0.158821	0.037906	0.703596
C62	C	0.135579	-0.002647	0.743232
C63	C	-0.180185	0.078465	0.663997
C64	C	-0.231200	0.078458	0.663993
C65	C	-0.226665	-0.002650	0.743265
C66	C	-0.175645	-0.002648	0.743263
C67	C	-0.152408	0.037914	0.703630
C68	C	0.242728	-0.002653	0.743210
C69	C	0.293756	-0.002656	0.743195
C70	C	0.289213	0.078456	0.663927
C71	C	0.238193	0.078456	0.663939
C72	C	0.214950	0.037900	0.703586
O73	O	0.155560	0.112905	0.630252
O74	O	0.163890	-0.037125	0.776945
C75	C	0.691255	0.037907	0.703624
C76	C	0.745551	0.037908	0.703633
C77	C	0.543487	-0.181138	0.695557
C78	C	0.547632	-0.255479	0.692829
C79	C	0.577955	0.321223	0.672885
C80	C	0.574057	0.391076	0.675446
C81	C	0.507119	0.470991	0.719489
C82	C	0.444076	0.481052	0.760969
C83	C	0.447975	0.411199	0.758404
C84	C	0.488488	0.684729	0.731743
C85	C	0.484593	0.754584	0.734307
C86	C	0.614575	0.664603	0.648782
C87	C	0.618468	0.594753	0.646225
C88	C	0.555425	0.604819	0.687701
N89	N	0.503132	0.542394	0.722110
N90	N	0.559413	0.533417	0.685076
C91	C	0.528851	0.081357	0.389555
C92	C	0.529057	0.077724	0.322264
C93	C	0.532531	0.015419	0.286404
C94	C	0.535807	-0.043262	0.317833
C95	C	0.535606	-0.039632	0.385118
C96	C	0.533499	-0.001927	0.084927
C97	C	0.533698	-0.005551	0.017638
C98	C	0.526949	0.115435	0.022073
C99	C	0.526744	0.119063	0.089363
C100	C	0.530024	0.060379	0.120783
N101	N	0.532740	0.011706	0.217624
N102	N	0.529820	0.064089	0.189559
C103	C	0.530640	0.049267	0.914600
C104	C	0.530425	0.053124	0.986212
C105	C	0.370660	0.049263	0.914572
C106	C	0.316149	0.053119	0.986176
C107	C	0.359082	0.256940	0.711608
C108	C	0.300641	0.331279	0.714327
C109	C	0.358447	0.268304	0.922612
C110	C	0.299792	0.346500	0.996943
C111	C	0.704101	-0.192498	0.484581
C112	C	0.762757	-0.270694	0.410249
C113	C	0.691889	0.026543	0.492620
C114	C	0.746400	0.022687	0.421017
C115	C	0.703467	-0.181134	0.695584
C116	C	0.761908	-0.255473	0.692865
C117	C	0.293059	0.009931	0.977029
C118	C	0.241848	0.013537	1.044301
C119	C	0.213724	0.060336	1.120719
C120	C	0.236819	0.103525	1.129865
C121	C	0.288033	0.099914	1.062593
C122	C	0.270688	0.411188	0.758377
C123	C	0.215783	0.481044	0.760929
C124	C	0.190830	0.470990	0.719436
C125	C	0.220789	0.391072	0.675381
C126	C	0.275695	0.321218	0.672824
C127	C	0.274507	0.342670	1.071490
C128	C	0.219401	0.416137	1.141339
C129	C	0.189577	0.493434	1.136639
C130	C	0.214867	0.497263	1.062084
C131	C	0.269975	0.423797	0.992237
C132	C	0.788048	-0.266863	0.335702
C133	C	0.843170	-0.340331	0.265853
C134	C	0.872996	-0.417628	0.270553
C135	C	0.847703	-0.421457	0.345108
C136	C	0.792586	-0.347990	0.414955
C137	C	0.769496	0.065868	0.430163
C138	C	0.820722	0.062243	0.362891
C139	C	0.848848	0.015441	0.286472
C140	C	0.825750	-0.027745	0.277327
C141	C	0.774529	-0.024124	0.344599
C142	C	0.786844	-0.245392	0.734368
C143	C	0.841748	-0.315234	0.731828
C144	C	0.871718	-0.395157	0.687782
C145	C	0.846777	-0.405236	0.646278
C146	C	0.791871	-0.335395	0.648822
H147	H	0.316374	-0.035688	0.775466
H148	H	0.172022	0.063270	1.175489
H149	H	0.746599	0.103984	0.492381
O150	O	0.131601	0.546344	0.722211
H151	H	0.151360	0.543014	0.660863
H152	H	0.290998	0.419391	0.792166
O153	O	0.537034	-0.065220	0.118810
H154	H	0.488516	-0.032825	0.181336
H155	H	0.213913	0.141628	1.192093
O156	O	0.183465	0.567236	0.808461
H157	H	0.210033	0.562485	0.836897
H158	H	-0.253806	0.111476	0.631713
H159	H	0.848658	-0.065850	0.215098
H160	H	0.871188	-0.470319	0.610416
O161	O	0.749619	-0.070698	0.334726
H162	H	0.690849	-0.025974	0.364982
O163	O	0.297226	0.427941	0.911836
H164	H	0.318588	0.461501	0.906241
O165	O	0.765300	-0.352126	0.495360
H166	H	0.795298	-0.418220	0.486885
O167	O	0.845619	0.108834	0.372769
H168	H	0.833285	0.154558	0.345810
H169	H	0.762450	-0.180321	0.770235
O170	O	0.312925	0.146510	1.072468
H171	H	0.300579	0.192242	1.045521
O172	O	0.539142	-0.102922	0.419013
H173	H	0.490626	-0.070527	0.481541
H174	H	0.200463	0.382898	0.641598
H175	H	0.315958	-0.028188	0.914811
O176	O	0.307905	0.235036	0.625438
H177	H	0.281286	0.239792	0.597069
H178	H	0.763766	-0.203931	0.331860
O179	O	0.930943	-0.470480	0.685039
H180	H	0.947597	-0.527753	0.647442
O181	O	0.306677	0.259303	1.076569
H182	H	0.279837	0.268996	1.140146
O183	O	0.650153	0.235029	0.625379
H184	H	0.693332	0.239770	0.596960
O185	O	0.642047	0.380226	0.630705
H186	H	0.689248	0.312922	0.599655
H187	H	0.526017	0.132096	0.418751
H188	H	0.672976	0.529686	0.610361
H189	H	0.223050	-0.021633	1.036839
H190	H	0.198816	0.413004	1.202038
H191	H	-0.161264	0.111490	0.631714
H192	H	0.144705	0.553249	1.193520
H193	H	0.190576	0.560208	1.058270
O194	O	0.868645	-0.304354	0.776592
H195	H	0.838585	-0.237045	0.807634
O196	O	0.870432	-0.336192	0.185446
H197	H	0.840417	-0.270098	0.193920
H198	H	0.524281	0.163212	-0.003516
O199	O	0.764986	-0.346273	0.604045
H200	H	0.795060	-0.413583	0.572985
H201	H	0.917876	-0.477443	0.213673
H202	H	0.871995	-0.484401	0.348925
H203	H	0.223808	-0.035676	0.775496
O204	O	-0.028699	0.162757	0.581572
H205	H	-0.055672	0.229778	0.607776
O206	O	0.091273	-0.086944	0.825618
H207	H	0.066527	-0.115133	0.853183
O208	O	0.904073	0.011565	0.213917
H209	H	0.915392	0.049472	0.233125
H210	H	0.430082	0.819656	0.770172
O211	O	-0.014762	-0.086951	0.825622
H212	H	0.013138	-0.115154	0.853166
O213	O	0.539566	-0.110474	0.279152
H214	H	0.539152	-0.103139	0.227087
O215	O	0.077275	0.162821	0.581640
H216	H	0.117408	0.156028	0.588307
H217	H	0.526392	0.125502	0.296678
O218	O	-0.145684	-0.046393	0.786007
H219	H	-0.190074	-0.018262	0.850236
O220	O	-0.251742	-0.046387	0.786023
H221	H	-0.291891	-0.039562	0.779371
H222	H	0.215582	0.111473	0.631658
H223	H	0.308149	0.111471	0.631654
H224	H	0.665901	0.656417	0.615013
H225	H	0.437154	0.692936	0.765519
H226	H	0.536527	-0.056291	-0.011556
H227	H	0.389574	0.546125	0.796827
H228	H	0.523915	0.169797	0.118559
O229	O	0.379985	0.422046	0.803157
H230	H	0.332783	0.489351	0.834227
