data_functionalizedCrystal
_audit_creation_method	'MofGen! by Chris Wilmer'
_symmetry_space_group_name_H-M	'P1'
_symmetry_Int_Tables_number	1
_symmetry_cell_setting	triclinic
loop_
_symmetry_equiv_pos_as_xyz
  x,y,z
_cell_length_a	10.489741
_cell_length_b	27.732048
_cell_length_c	8.965430
_cell_angle_alpha	89.995481
_cell_angle_beta	89.998843
_cell_angle_gamma	83.590915
loop_
_atom_site_label
_atom_site_type_symbol
_atom_site_fract_x
_atom_site_fract_y
_atom_site_fract_z
O1	O	1.691056	0.068187	-0.123965
O2	O	1.319579	0.074588	-0.123990
O3	O	1.516855	0.001064	-0.123949
O4	O	1.493781	0.141711	-0.124007
O5	O	1.516839	0.001068	0.124130
O6	O	1.319563	0.074593	0.124089
O7	O	1.691040	0.068192	0.124113
Cu8	Cu	1.505300	0.071393	0.146753
Cu9	Cu	1.505319	0.071387	-0.146629
O10	O	1.493764	0.141716	0.124072
C11	C	1.272061	0.074107	0.000046
C12	C	1.130495	0.072661	0.000038
C13	C	1.064411	0.025879	0.000072
C14	C	0.971321	0.047976	-0.122250
C15	C	0.971338	0.047992	0.122336
C16	C	1.039269	0.094776	-0.122385
C17	C	1.039296	0.094786	0.122311
C18	C	0.946232	0.116916	-0.000040
C19	C	1.516363	-0.016944	0.000095
C20	C	1.514904	-0.070608	0.000107
C21	C	1.622299	-0.408745	0.000038
C22	C	1.616888	-0.610439	0.000016
O23	O	1.715093	-0.641075	-0.000042
N24	N	1.499911	-0.630301	0.000010
C25	C	1.384279	-0.599736	-0.000001
O26	O	1.284660	-0.621258	-0.000022
C27	C	1.389692	-0.398044	0.000010
C28	C	1.506676	-0.378184	0.000031
C29	C	1.739274	-0.388886	0.000058
C30	C	1.740625	-0.338465	0.000071
C31	C	1.625002	-0.307904	0.000064
C32	C	1.508028	-0.327764	0.000045
C33	C	1.274062	-0.367480	-0.000012
C34	C	1.275425	-0.317054	-0.000013
C35	C	1.392409	-0.297195	0.000008
C36	C	1.393757	-0.246783	0.000052
N37	N	1.510733	-0.226920	0.000058
C38	C	1.626356	-0.257481	0.000064
C39	C	1.381446	-0.705628	-0.000003
C40	C	1.380092	-0.756051	-0.000003
C41	C	1.612701	-0.766751	0.000011
C42	C	1.614053	-0.716327	0.000022
C43	C	1.498422	-0.685766	0.000003
C44	C	1.629186	-0.151594	0.000094
C45	C	1.630527	-0.101169	0.000113
C46	C	1.397919	-0.090474	0.000091
C47	C	1.396577	-0.140895	0.000079
C48	C	1.512221	-0.171454	0.000076
O49	O	1.295604	-0.216118	0.000093
O50	O	1.725961	-0.235950	0.000053
C51	C	1.620947	-0.459166	0.000024
C52	C	1.503973	-0.479025	0.000004
C53	C	1.388350	-0.448464	-0.000002
C54	C	1.502619	-0.529448	0.000004
C55	C	1.618242	-0.560009	0.000011
C56	C	1.735219	-0.540147	0.000017
C57	C	1.736570	-0.489727	0.000031
C58	C	1.271374	-0.468327	-0.000009
C59	C	1.270032	-0.518748	-0.000020
C60	C	1.385654	-0.549308	-0.000014
C61	C	1.738559	0.068673	0.000074
C62	C	1.880124	0.070119	0.000072
C63	C	1.494257	0.159724	0.000025
C64	C	1.495715	0.213388	0.000003
N65	N	1.505295	0.071397	0.353102
N66	N	1.505334	0.071379	-0.352979
C67	C	1.414034	0.105388	0.450388
C68	C	1.529101	0.115168	0.549805
C69	C	1.390277	0.061621	0.549812
C70	C	1.620420	0.081198	0.450330
C71	C	1.481520	0.027633	0.450328
C72	C	1.596671	0.037394	0.549700
H73	H	1.069235	0.114553	-0.225916
H74	H	1.292992	0.053360	0.593515
H75	H	1.549237	0.152170	0.593500
H76	H	1.829363	-0.565039	0.000029
N77	N	0.931462	0.021769	0.259334
H78	H	0.870196	0.044441	0.320624
H79	H	0.887760	-0.007272	0.228033
H80	H	1.069466	0.114566	0.225716
H81	H	1.831831	-0.473562	0.000048
N82	N	1.753919	-0.184546	0.000109
H83	H	1.758538	-0.205707	0.092071
H84	H	1.758498	-0.205671	-0.091916
N85	N	1.311908	0.143500	0.392618
H86	H	1.312072	0.143032	0.279973
H87	H	1.225223	0.136442	0.430468
H88	H	1.174762	-0.534912	-0.000025
H89	H	1.461348	-0.009359	0.406599
H90	H	1.725793	-0.085003	0.000135
N91	N	1.749318	0.092197	0.392708
H92	H	1.748496	0.092150	0.280058
H93	H	1.767428	0.125129	0.429880
H94	H	1.835885	-0.322301	0.000082
H95	H	1.673947	0.008640	0.593031
H96	H	1.115791	-0.012578	-0.000065
H97	H	1.301319	-0.157065	0.000103
H98	H	0.895116	0.155414	-0.000123
N99	N	1.863992	-0.421843	0.000066
H100	H	1.938288	-0.401603	0.000080
H101	H	1.868493	-0.442997	0.092038
N102	N	1.740226	-0.694909	0.000046
H103	H	1.813261	-0.721925	0.000055
H104	H	1.745870	-0.674220	-0.091921
N105	N	1.150704	-0.284094	0.000008
H106	H	1.169301	-0.249137	0.000026
H107	H	1.099676	-0.290564	-0.091958
H108	H	1.706846	-0.791642	0.000017
N109	N	0.931393	0.021758	-0.259218
H110	H	0.974837	-0.012630	-0.259118
H111	H	0.835261	0.021287	-0.258608
N112	N	1.253918	-0.777468	0.000014
H113	H	1.180883	-0.750452	0.000010
H114	H	1.248284	-0.798154	-0.091950
N115	N	1.273216	-0.057507	0.000124
H116	H	1.291834	-0.022552	0.000140
H117	H	1.222183	-0.063974	-0.091841
H118	H	1.177217	-0.443448	-0.000017
N119	N	1.256725	-0.672668	-0.000012
H120	H	1.205648	-0.679104	-0.091974
H121	H	1.205749	-0.679124	0.092012
N122	N	1.147885	-0.388891	-0.000016
H123	H	1.074856	-0.361873	-0.000023
H124	H	1.142251	-0.409576	-0.091982
