data_functionalizedCrystal
_audit_creation_method	'MofGen! by Chris Wilmer'
_symmetry_space_group_name_H-M	'P1'
_symmetry_Int_Tables_number	1
_symmetry_cell_setting	triclinic
loop_
_symmetry_equiv_pos_as_xyz
  x,y,z
_cell_length_a	15.944499
_cell_length_b	15.944493
_cell_length_c	14.421503
_cell_angle_alpha	89.991648
_cell_angle_beta	90.010077
_cell_angle_gamma	83.476327
loop_
_atom_site_label
_atom_site_type_symbol
_atom_site_fract_x
_atom_site_fract_y
_atom_site_fract_z
O1	O	1.114533	0.108119	0.077155
O2	O	0.869975	0.121521	0.077143
O3	O	0.998958	-0.007460	0.077157
O4	O	0.985551	0.237099	0.077141
O5	O	0.998937	-0.007445	-0.077066
O6	O	0.869955	0.121535	-0.077080
O7	O	1.114513	0.108134	-0.077068
Cu8	Cu	0.992232	0.114836	-0.091156
Cu9	Cu	0.992256	0.114818	0.091231
O10	O	0.985530	0.237114	-0.077082
C11	C	0.838670	0.120979	0.000030
C12	C	0.745422	0.119334	0.000026
C13	C	0.453871	0.194269	0.000035
C14	C	0.514918	0.155309	0.076080
C15	C	0.409787	0.113358	0.000048
C16	C	0.514884	0.155301	-0.075973
C17	C	0.574695	0.116299	0.000036
C18	C	0.469606	0.074376	0.076155
C19	C	0.469565	0.074380	-0.075965
C20	C	0.530595	0.035361	0.000098
C21	C	0.314787	0.111666	0.000056
C22	C	0.669694	0.117984	0.000035
C23	C	0.998400	-0.038747	0.000049
C24	C	0.996757	-0.131995	0.000061
C25	C	1.072679	-0.367769	0.000047
C26	C	1.031747	-0.418337	0.076085
C27	C	0.993713	-0.302716	0.000050
C28	C	1.031709	-0.418299	-0.075967
C29	C	0.990778	-0.467625	0.000034
C30	C	0.952802	-0.352055	0.076150
C31	C	0.952775	-0.352013	-0.075971
C32	C	0.911785	-0.402548	0.000086
C33	C	0.995405	-0.207716	0.000059
C34	C	0.989079	-0.562622	0.000031
C35	C	1.145818	0.108675	0.000047
C36	C	1.239066	0.110320	0.000057
C37	C	0.986088	0.268401	0.000027
C38	C	0.987731	0.361650	0.000022
N39	N	0.992221	0.114848	-0.219437
C40	C	0.933071	0.174955	-0.530897
C41	C	0.916091	0.099287	-0.469065
C42	C	0.992256	0.114814	-0.591326
C43	C	1.009180	0.190497	-0.469065
C44	C	0.992236	0.114835	-0.408605
C45	C	0.975237	0.039108	-0.530855
C46	C	1.068359	0.130367	-0.530860
C47	C	1.051410	0.054644	-0.469056
C48	C	0.992265	0.114804	-0.696588
C49	C	0.992228	0.114837	-0.303346
N50	N	0.992274	0.114800	0.219512
H51	H	0.449447	0.040192	-0.140252
H52	H	1.065065	-0.447230	-0.140247
N53	N	0.821627	-0.423050	0.000162
H54	H	0.781977	-0.368943	0.000744
H55	H	0.811530	-0.457425	0.057078
H56	H	1.101455	0.003739	-0.442075
N57	N	0.541463	0.200652	-0.161127
H58	H	0.513264	0.260667	-0.161060
H59	H	0.524161	0.170639	-0.218512
N60	N	1.075923	-0.456705	0.161241
H61	H	1.097597	-0.410747	0.199605
H62	H	1.124821	-0.498885	0.141768
H63	H	0.420527	0.261416	0.000104
H64	H	0.919446	-0.323040	-0.140261
N65	N	1.162777	-0.347083	0.000141
H66	H	1.192515	-0.371344	0.057636
H67	H	1.163203	-0.283793	-0.000482
N68	N	0.541550	0.200632	0.161224
H69	H	0.581636	0.160860	0.199315
H70	H	0.490093	0.220563	0.199513
H71	H	1.023514	0.254494	-0.441940
H72	H	0.960839	-0.024900	-0.557884
N73	N	0.443174	0.029071	0.161408
H74	H	0.379931	0.028241	0.160901
H75	H	0.460107	0.059422	0.218722
H76	H	0.851724	0.086138	-0.441915
N77	N	0.574558	-0.053663	0.000142
H78	H	0.558105	-0.084113	0.057602
H79	H	0.637687	-0.051997	-0.000442
H80	H	0.919481	-0.323235	0.140503
N81	N	0.866749	0.242239	-0.566870
H82	H	0.809274	0.230383	-0.544390
H83	H	0.867661	0.242079	-0.636894
N84	N	1.153593	0.147817	-0.566854
H85	H	1.166333	0.205024	-0.544420
H86	H	1.153060	0.147080	-0.636877
