data_functionalizedCrystal
_audit_creation_method	'MofGen! by Chris Wilmer'
_symmetry_space_group_name_H-M	'P1'
_symmetry_Int_Tables_number	1
_symmetry_cell_setting	triclinic
loop_
_symmetry_equiv_pos_as_xyz
  x,y,z
_cell_length_a	13.897449
_cell_length_b	25.639239
_cell_length_c	25.639233
_cell_angle_alpha	89.981253
_cell_angle_beta	89.987757
_cell_angle_gamma	90.039966
loop_
_atom_site_label
_atom_site_type_symbol
_atom_site_fract_x
_atom_site_fract_y
_atom_site_fract_z
Zn1	Zn	1.474481	-0.208197	-0.295604
Zn2	Zn	1.474340	-0.295615	-0.208168
Zn3	Zn	1.313194	-0.208198	-0.208183
Zn4	Zn	1.313093	-0.295605	-0.295573
O5	O	1.393777	-0.251904	-0.251882
O6	O	1.609444	-0.219797	-0.284012
O7	O	1.452947	-0.284024	-0.135005
O8	O	1.334691	-0.135032	-0.219799
O9	O	1.609340	-0.284023	-0.219773
O10	O	1.453187	-0.135032	-0.284026
O11	O	1.334554	-0.219799	-0.135016
O12	O	1.178199	-0.219788	-0.219769
O13	O	1.334518	-0.284005	-0.368743
O14	O	1.178125	-0.284006	-0.283974
O15	O	1.453089	-0.219787	-0.368765
O16	O	1.452849	-0.368779	-0.219744
O17	O	1.334381	-0.368771	-0.283960
C18	C	1.143163	-0.251897	-0.251870
C19	C	1.035949	-0.251906	-0.251877
C20	C	0.839654	-0.251908	-0.251891
C21	C	0.948886	-0.251905	-0.251882
C22	C	1.393615	-0.387746	-0.251858
C23	C	1.393634	-0.445860	-0.251865
C24	C	1.455624	-0.806215	-0.218502
C25	C	1.455661	-0.860819	-0.218509
O26	O	1.508199	-0.889049	-0.190115
N27	N	1.393946	-0.888143	-0.251917
C28	C	1.332197	-0.860859	-0.285324
O29	O	1.279708	-0.889114	-0.313741
C30	C	1.332165	-0.806256	-0.285319
C31	C	1.393877	-0.778935	-0.251905
C32	C	1.517332	-0.778894	-0.185091
C33	C	1.517293	-0.724293	-0.185083
C34	C	1.455546	-0.697014	-0.218487
C35	C	1.393838	-0.724334	-0.251897
C36	C	1.270422	-0.778973	-0.318728
C37	C	1.270396	-0.724366	-0.318721
C38	C	1.332108	-0.697045	-0.285307
C39	C	1.332053	-0.642454	-0.285293
N40	N	1.393768	-0.615131	-0.251885
C41	C	1.455514	-0.642410	-0.218482
C42	C	1.332270	-0.975530	-0.285332
C43	C	1.332296	-1.030132	-0.285334
C44	C	1.455762	-1.030088	-0.218520
C45	C	1.455730	-0.975485	-0.218515
C46	C	1.393985	-0.948206	-0.251924
C47	C	1.455427	-0.527745	-0.218468
C48	C	1.455380	-0.473140	-0.218462
C49	C	1.331918	-0.473189	-0.285278
C50	C	1.331962	-0.527789	-0.285283
C51	C	1.393724	-0.555066	-0.251876
O52	O	1.279544	-0.614190	-0.313673
O53	O	1.508004	-0.614149	-0.190074
C54	C	1.645370	-0.251911	-0.251894
C55	C	1.752584	-0.251914	-0.251900
C56	C	1.393808	-0.251894	-0.388255
C57	C	1.393821	-0.251891	-0.446369
C58	C	1.393966	-0.115531	-0.251918
C59	C	1.394047	-0.057416	-0.251933
C60	C	1.455640	-0.218353	-0.806750
C61	C	1.455652	-0.218338	-0.861354
O62	O	1.508134	-0.189885	-0.889606
N63	N	1.393928	-0.251768	-0.888652
C64	C	1.332181	-0.285211	-0.861342
O65	O	1.279680	-0.313644	-0.889575
C66	C	1.332165	-0.285222	-0.806739
C67	C	1.393900	-0.251794	-0.779444
C68	C	1.517369	-0.184927	-0.779455
C69	C	1.517358	-0.184942	-0.724854
C70	C	1.455618	-0.218383	-0.697549
C71	C	1.393889	-0.251809	-0.724844
C72	C	1.270414	-0.318662	-0.779431
C73	C	1.270403	-0.318670	-0.724824
C74	C	1.332138	-0.285242	-0.697529
C75	C	1.332138	-0.285266	-0.642937
N76	N	1.393862	-0.251836	-0.615640
C77	C	1.455602	-0.218395	-0.642945
C78	C	1.332218	-0.285183	-0.976013
C79	C	1.332238	-0.285175	-1.030616
C80	C	1.455708	-0.218302	-1.030623
C81	C	1.455692	-0.218313	-0.976020
C82	C	1.393942	-0.251754	-0.948715
C83	C	1.455575	-0.218430	-0.528280
C84	C	1.455561	-0.218449	-0.473675
C85	C	1.332088	-0.285320	-0.473672
C86	C	1.332105	-0.285303	-0.528272
C87	C	1.393852	-0.251853	-0.555575
O88	O	1.279680	-0.313703	-0.614651
O89	O	1.508085	-0.189962	-0.614706
C90	C	1.393801	-0.251875	-0.116040
C91	C	1.393975	-0.251732	-0.057926
H92	H	1.505722	-0.549948	-0.191266
H93	H	1.567627	-0.157720	-0.702635
O94	O	1.577346	-0.805307	-0.152590
C95	C	1.631813	-0.769474	-0.123114
H96	H	1.592274	-0.730575	-0.121291
H97	H	1.642160	-0.785253	-0.081923
H98	H	1.705046	-0.763617	-0.142293
O99	O	1.272311	-1.056587	-0.317838
C100	C	1.217790	-1.020794	-0.347306
H101	H	1.257275	-0.981848	-0.349127
H102	H	1.207455	-1.036553	-0.388499
H103	H	1.144553	-1.015037	-0.328122
H104	H	1.281824	-0.312549	-0.451430
H105	H	1.281981	-0.953322	-0.312536
H106	H	1.281978	-0.312401	-1.052834
O107	O	1.515562	-0.185925	-0.447242
C108	C	1.570070	-0.156415	-0.483056
H109	H	1.530568	-0.154595	-0.521976
H110	H	1.580414	-0.115224	-0.467284
H111	H	1.643303	-0.175562	-0.488867
O112	O	1.210583	-0.351194	-0.805956
C113	C	1.265449	-0.384957	-0.837547
H114	H	1.341418	-0.388187	-0.821102
H115	H	1.230508	-0.425193	-0.838146
H116	H	1.268787	-0.368793	-0.878936
O117	O	1.577441	-0.152424	-0.805893
C118	C	1.631894	-0.122919	-0.770083
H119	H	1.635175	-0.144348	-0.731159
H120	H	1.707912	-0.117342	-0.785853
H121	H	1.596629	-0.083209	-0.764278
O122	O	1.272191	-0.317849	-0.554734
C123	C	1.293211	-0.369965	-0.541406
H124	H	1.330285	-0.371066	-0.501763
H125	H	1.223561	-0.393407	-0.539533
H126	H	1.342780	-0.387566	-0.572142
H127	H	1.505981	-0.953243	-0.191307
O128	O	1.515783	-1.056674	-0.186158
C129	C	1.502592	-1.110725	-0.193342
H130	H	1.470861	-1.118165	-0.233659
H131	H	1.574887	-1.131423	-0.189899
H132	H	1.451364	-1.126295	-0.162279
H133	H	1.505633	-0.450897	-0.191251
O134	O	1.210398	-0.351211	-0.698382
C135	C	1.155907	-0.380703	-0.734187
H136	H	1.195420	-0.382495	-0.773113
H137	H	1.145569	-0.421904	-0.718412
H138	H	1.082671	-0.361558	-0.739987
H139	H	1.220164	-0.801208	-0.345935
O140	O	1.577294	-0.697699	-0.152702
C141	C	1.639556	-0.666078	-0.182497
H142	H	1.605476	-0.657895	-0.222100
H143	H	1.652497	-0.627685	-0.161201
H144	H	1.711038	-0.687083	-0.188283
H145	H	1.281933	-0.312417	-0.953785
O146	O	1.210326	-0.697949	-0.351193
C147	C	1.155891	-0.733777	-0.380694
H148	H	1.152602	-0.772710	-0.359278
H149	H	1.079875	-0.718043	-0.386239
H150	H	1.191178	-0.739549	-0.420417
O151	O	1.515686	-0.185789	-0.949589
C152	C	1.570198	-0.156284	-0.985405
H153	H	1.530699	-0.154469	-1.024327
H154	H	1.580542	-0.115092	-0.969639
H155	H	1.643431	-0.175433	-0.991212
O156	O	1.271982	-0.554251	-0.317788
C157	C	1.217456	-0.518461	-0.347257
H158	H	1.256931	-0.479512	-0.349075
H159	H	1.207132	-0.534220	-0.388451
H160	H	1.144214	-0.512710	-0.328076
H161	H	1.505851	-0.191190	-0.550504
O162	O	1.515582	-0.185826	-1.057234
C163	C	1.502362	-0.192994	-1.111280
H164	H	1.427904	-0.210121	-1.118726
H165	H	1.508945	-0.153826	-1.132038
H166	H	1.559547	-0.220830	-1.126780
H167	H	1.281642	-0.450969	-0.312473
