data_functionalizedCrystal
_audit_creation_method	'MofGen! by Chris Wilmer'
_symmetry_space_group_name_H-M	'P1'
_symmetry_Int_Tables_number	1
_symmetry_cell_setting	triclinic
loop_
_symmetry_equiv_pos_as_xyz
  x,y,z
_cell_length_a	10.540514
_cell_length_b	10.540539
_cell_length_c	13.596369
_cell_angle_alpha	89.996161
_cell_angle_beta	89.994172
_cell_angle_gamma	84.520326
loop_
_atom_site_label
_atom_site_type_symbol
_atom_site_fract_x
_atom_site_fract_y
_atom_site_fract_z
O1	O	1.685907	0.178750	-0.081799
O2	O	1.316490	0.195639	-0.081797
O3	O	1.509627	0.002487	-0.081797
O4	O	1.492771	0.371902	-0.081799
O5	O	1.509607	0.002477	0.081786
O6	O	1.316471	0.195629	0.081785
O7	O	1.685888	0.178739	0.081784
Zn8	Zn	1.501176	0.187182	0.107757
Zn9	Zn	1.501202	0.187196	-0.107770
O10	O	1.492751	0.371891	0.081784
C11	C	1.269177	0.194374	-0.000006
C12	C	1.128227	0.190605	-0.000006
C13	C	1.057522	0.328745	-0.000008
C14	C	0.910908	0.324871	-0.000385
C15	C	0.935901	0.115484	-0.093243
C16	C	1.082440	0.120338	-0.093316
C17	C	1.082821	0.118282	0.092715
C18	C	0.935842	0.116949	0.093935
C19	C	1.508353	-0.044821	-0.000007
C20	C	1.504571	-0.185769	-0.000013
C21	C	1.359652	-0.369182	-0.000379
C22	C	1.363486	-0.222564	-0.000011
C23	C	1.572456	-0.247438	0.093401
C24	C	1.567641	-0.393982	0.093480
C25	C	1.570533	-0.394489	-0.092544
C26	C	1.571832	-0.247507	-0.093780
C27	C	1.733201	0.180004	-0.000010
C28	C	1.874151	0.183774	-0.000016
C29	C	1.494025	0.419199	-0.000008
C30	C	1.497807	0.560147	-0.000009
N31	N	1.501168	0.187172	0.254849
N32	N	1.501220	0.187196	-0.254862
C33	C	1.501200	0.187198	0.656140
C34	C	1.501187	0.187195	0.544489
C35	C	1.501185	0.187186	0.455498
C36	C	1.501171	0.187181	0.343840
H37	H	0.869185	0.378363	-0.067608
F38	F	1.510852	-0.435705	-0.185088
H39	H	1.303928	-0.397773	-0.067368
H40	H	1.522161	-0.206640	-0.162884
F41	F	1.095441	0.402265	0.087022
H42	H	1.525283	-0.204839	0.162917
H43	H	1.669107	-0.441960	0.097717
H44	H	0.868237	0.378584	0.066428
H45	H	1.087757	0.383967	-0.066765
F46	F	1.119346	0.185540	-0.184753
H47	H	1.674694	-0.223295	-0.099421
H48	H	1.130446	0.018865	-0.097296
H49	H	0.913587	0.011852	-0.096446
F50	F	1.703729	-0.456229	-0.093368
H51	H	1.309679	-0.180808	0.067064
F52	F	0.880323	0.176764	-0.184276
F53	F	0.882248	0.182176	0.184087
F54	F	1.502039	-0.430844	0.184749
F55	F	1.123974	0.178378	0.185106
F56	F	1.707881	-0.218235	0.097944
H57	H	1.130077	0.016388	0.093615
F58	F	0.904223	-0.017478	0.101664
F59	F	1.293667	-0.166863	-0.087536
F60	F	1.286902	-0.409092	0.086450
