data_functionalizedCrystal
_audit_creation_method	'MofGen! by Chris Wilmer'
_symmetry_space_group_name_H-M	'P1'
_symmetry_Int_Tables_number	1
_symmetry_cell_setting	triclinic
loop_
_symmetry_equiv_pos_as_xyz
  x,y,z
_cell_length_a	23.532407
_cell_length_b	22.610064
_cell_length_c	23.532407
_cell_angle_alpha	89.999397
_cell_angle_beta	97.151288
_cell_angle_gamma	90.005499
loop_
_atom_site_label
_atom_site_type_symbol
_atom_site_fract_x
_atom_site_fract_y
_atom_site_fract_z
O1	O	0.755263	0.049153	-0.069127
O2	O	1.088597	0.382487	0.264206
O3	O	1.421930	0.715820	0.597539
O4	O	0.589400	0.049163	-0.079131
O5	O	0.922733	0.382497	0.254203
O6	O	1.256067	0.715830	0.587536
O7	O	0.677333	0.049147	0.008803
O8	O	1.010667	0.382480	0.342136
O9	O	1.344000	0.715814	0.675469
O10	O	0.667330	0.049169	-0.157061
O11	O	1.000663	0.382503	0.176273
O12	O	1.333997	0.715836	0.509606
O13	O	0.677318	-0.049222	0.008790
O14	O	1.010651	0.284111	0.342123
O15	O	1.343984	0.617445	0.675456
O16	O	0.589385	-0.049206	-0.079143
O17	O	0.922718	0.284128	0.254190
O18	O	1.256051	0.617461	0.587523
O19	O	0.755248	-0.049216	-0.069140
O20	O	1.088581	0.284117	0.264193
O21	O	1.421915	0.617451	0.597526
Zn22	Zn	0.672314	-0.064829	-0.074144
Zn23	Zn	1.005647	0.268504	0.259189
Zn24	Zn	1.338980	0.601838	0.592523
Zn25	Zn	0.672334	0.064777	-0.074127
Zn26	Zn	1.005668	0.398110	0.259206
Zn27	Zn	1.339001	0.731443	0.592540
O28	O	0.667315	-0.049200	-0.157074
O29	O	1.000648	0.284134	0.176260
O30	O	1.333981	0.617467	0.509593
C31	C	0.568176	-0.000020	-0.078882
C32	C	0.901510	0.333313	0.254451
C33	C	1.234843	0.666647	0.587784
C34	C	0.504959	-0.000017	-0.078116
C35	C	0.838293	0.333317	0.255217
C36	C	1.171626	0.666650	0.588550
C37	C	0.238792	-0.000040	-0.022921
C38	C	0.572125	0.333293	0.310412
C39	C	0.905458	0.666627	0.643746
C40	C	0.298192	-0.000040	-0.023632
C41	C	0.631525	0.333293	0.309701
C42	C	0.964859	0.666627	0.643034
O43	O	0.334937	-0.000066	0.020153
O44	O	0.668270	0.333267	0.353487
O45	O	1.001603	0.666600	0.686820
N46	N	0.320818	-0.000029	-0.075909
N47	N	0.654152	0.333304	0.257425
N48	N	0.987485	0.666638	0.590758
C49	C	0.284041	-0.000024	-0.127477
C50	C	0.617374	0.333309	0.205856
C51	C	0.950707	0.666643	0.539190
O52	O	0.308740	-0.000015	-0.172007
O53	O	0.642074	0.333318	0.161326
O54	O	0.975407	0.666651	0.494659
C55	C	0.224642	-0.000029	-0.126765
C56	C	0.557975	0.333305	0.206568
C57	C	0.891308	0.666638	0.539902
C58	C	0.202019	-0.000034	-0.074485
C59	C	0.535352	0.333300	0.258848
C60	C	0.868686	0.666633	0.592181
C61	C	0.216168	-0.000046	0.029354
C62	C	0.549502	0.333287	0.362688
C63	C	0.882835	0.666621	0.696021
C64	C	0.156772	-0.000045	0.030066
C65	C	0.490106	0.333288	0.363399
C66	C	0.823439	0.666622	0.696732
C67	C	0.119999	-0.000038	-0.021499
C68	C	0.453333	0.333295	0.311835
C69	C	0.786666	0.666628	0.645168
C70	C	0.142623	-0.000033	-0.073774
C71	C	0.475956	0.333301	0.259559
C72	C	0.809289	0.666634	0.592893
C73	C	0.187865	-0.000028	-0.178333
C74	C	0.521199	0.333305	0.155001
C75	C	0.854532	0.666639	0.488334
C76	C	0.128463	-0.000033	-0.177616
C77	C	0.461796	0.333300	0.155717
C78	C	0.795129	0.666634	0.489051
C79	C	0.105840	-0.000038	-0.125336
C80	C	0.439173	0.333295	0.207997
C81	C	0.772507	0.666629	0.541330
C82	C	0.046454	-0.000025	-0.124627
C83	C	0.379787	0.333308	0.208706
C84	C	0.713120	0.666641	0.542040
N85	N	0.023828	-0.000036	-0.072351
N86	N	0.357161	0.333297	0.260983
N87	N	0.690494	0.666630	0.594316
C88	C	0.060600	-0.000043	-0.020787
C89	C	0.393934	0.333290	0.312547
C90	C	0.727267	0.666624	0.645880
C91	C	0.408783	-0.000016	-0.128968
C92	C	0.742117	0.333318	0.204365
C93	C	1.075450	0.666651	0.537698
C94	C	0.468181	-0.000007	-0.129681
C95	C	0.801514	0.333326	0.203652
C96	C	1.134848	0.666660	0.536986
C97	C	0.482328	-0.000024	-0.025836
C98	C	0.815662	0.333309	0.307497
C99	C	1.148995	0.666643	0.640830
C100	C	0.422929	-0.000028	-0.025124
C101	C	0.756263	0.333305	0.308209
C102	C	1.089596	0.666638	0.641543
C103	C	0.386157	-0.000027	-0.076692
C104	C	0.719490	0.333307	0.256641
C105	C	1.052824	0.666640	0.589975
C106	C	-0.064136	-0.000041	-0.019297
C107	C	0.269197	0.333293	0.314036
C108	C	0.602530	0.666626	0.647370
C109	C	-0.123538	-0.000037	-0.018590
C110	C	0.209795	0.333296	0.314743
C111	C	0.543128	0.666629	0.648076
C112	C	-0.137680	-0.000024	-0.122435
C113	C	0.195653	0.333310	0.210899
C114	C	0.528986	0.666643	0.544232
C115	C	-0.078284	-0.000024	-0.123142
C116	C	0.255050	0.333310	0.210192
C117	C	0.588383	0.666643	0.543525
C118	C	-0.041512	-0.000034	-0.071568
C119	C	0.291821	0.333299	0.261765
C120	C	0.625154	0.666632	0.595099
O121	O	0.009675	-0.000001	-0.168390
O122	O	0.343008	0.333332	0.164943
O123	O	0.676341	0.666665	0.498277
O124	O	0.035892	-0.000060	0.023737
O125	O	0.369226	0.333274	0.357070
O126	O	0.702559	0.666607	0.690403
N127	N	0.672304	-0.153282	-0.074155
N128	N	1.005637	0.180052	0.259178
N129	N	1.338971	0.513385	0.592512
C130	C	0.711273	-0.561930	-0.035196
C131	C	1.044606	-0.228597	0.298137
C132	C	1.377939	0.104736	0.631471
C133	C	0.711276	-0.623850	-0.035192
C134	C	1.044609	-0.290517	0.298141
C135	C	1.377942	0.042817	0.631475
O136	O	0.744384	-0.655875	-0.002076
O137	O	1.077717	-0.322542	0.331257
O138	O	1.411051	0.010792	0.664590
N139	N	0.672334	-0.654819	-0.074115
N140	N	1.005667	-0.321485	0.259218
N141	N	1.339000	0.011848	0.592551
C142	C	0.633383	-0.623864	-0.113041
C143	C	0.966716	-0.290531	0.220292
C144	C	1.300049	0.042802	0.553625
O145	O	0.600259	-0.655891	-0.146148
O146	O	0.933593	-0.322558	0.187186
O147	O	1.266926	0.010775	0.520519
C148	C	0.633377	-0.561945	-0.113042
C149	C	0.966711	-0.228612	0.220291
C150	C	1.300044	0.104721	0.553624
C151	C	0.672326	-0.530980	-0.074120
C152	C	1.005659	-0.197647	0.259213
C153	C	1.338992	0.135687	0.592546
C154	C	0.750217	-0.530965	0.003723
C155	C	1.083551	-0.197631	0.337056
C156	C	1.416884	0.135702	0.670390
C157	C	0.750215	-0.469049	0.003718
C158	C	1.083548	-0.135716	0.337051
C159	C	1.416882	0.197618	0.670385
C160	C	0.711268	-0.438099	-0.035206
C161	C	1.044601	-0.104766	0.298127
C162	C	1.377935	0.228568	0.631461
C163	C	0.672323	-0.469064	-0.074125
C164	C	1.005657	-0.135731	0.259208
C165	C	1.338990	0.197602	0.592541
C166	C	0.594424	-0.530992	-0.151965
C167	C	0.927757	-0.197659	0.181368
C168	C	1.261091	0.135675	0.514702
C169	C	0.594422	-0.469069	-0.151963
C170	C	0.927755	-0.135736	0.181371
C171	C	1.261089	0.197598	0.514704
C172	C	0.633370	-0.438104	-0.113041
C173	C	0.966703	-0.104770	0.220293
C174	C	1.300037	0.228563	0.553626
C175	C	0.633374	-0.376199	-0.113055
C176	C	0.966707	-0.042865	0.220279
C177	C	1.300041	0.290468	0.553612
N178	N	0.672316	-0.345230	-0.074131
N179	N	1.005649	-0.011897	0.259202
N180	N	1.338982	0.321437	0.592535
C181	C	0.711263	-0.376180	-0.035207
C182	C	1.044596	-0.042847	0.298126
C183	C	1.377930	0.290487	0.631460
C184	C	0.633396	-0.753898	-0.113036
C185	C	0.966729	-0.420565	0.220298
C186	C	1.300062	-0.087231	0.553631
C187	C	0.633403	-0.815816	-0.113038
C188	C	0.966737	-0.482482	0.220296
C189	C	1.300070	-0.149149	0.553629
C190	C	0.711296	-0.815797	-0.035188
C191	C	1.044629	-0.482464	0.298146
C192	C	1.377962	-0.149130	0.631479
C193	C	0.711291	-0.753878	-0.035189
C194	C	1.044624	-0.420545	0.298145
C195	C	1.377957	-0.087212	0.631478
C196	C	0.672338	-0.722929	-0.074112
C197	C	1.005671	-0.389596	0.259221
C198	C	1.339004	-0.056263	0.592554
C199	C	0.711255	-0.246153	-0.035221
C200	C	1.044589	0.087181	0.298112
C201	C	1.377922	0.420514	0.631446
C202	C	0.711251	-0.184232	-0.035231
C203	C	1.044584	0.149102	0.298102
C204	C	1.377918	0.482435	0.631436
C205	C	0.633357	-0.184256	-0.113079
C206	C	0.966690	0.149078	0.220255
C207	C	1.300023	0.482411	0.553588
C208	C	0.633363	-0.246171	-0.113071
C209	C	0.966696	0.087162	0.220262
C210	C	1.300029	0.420495	0.553596
C211	C	0.672314	-0.277118	-0.074137
C212	C	1.005648	0.056215	0.259196
C213	C	1.338981	0.389548	0.592529
O214	O	0.600281	-0.344134	-0.146152
O215	O	0.933614	-0.010801	0.187181
O216	O	1.266948	0.322532	0.520515
O217	O	0.744376	-0.344146	-0.002101
O218	O	1.077709	-0.010812	0.331232
O219	O	1.411042	0.322521	0.664566
C220	C	0.776472	-0.000031	-0.069389
C221	C	1.109805	0.333302	0.263945
C222	C	1.443138	0.666635	0.597278
C223	C	0.839689	-0.000031	-0.070155
C224	C	1.173022	0.333303	0.263179
C225	C	1.506355	0.666636	0.596512
C226	C	0.677071	-0.000039	0.030012
C227	C	1.010404	0.333294	0.363346
C228	C	1.343738	0.666628	0.696679
C229	C	0.676305	-0.000043	0.093229
C230	C	1.009638	0.333290	0.426563
C231	C	1.342972	0.666623	0.759896
N232	N	0.672349	0.153229	-0.074111
N233	N	1.005682	0.486562	0.259222
N234	N	1.339015	0.819896	0.592555
C235	C	0.667577	-0.000012	-0.178283
C236	C	1.000910	0.333321	0.155050
C237	C	1.334244	0.666654	0.488383
C238	C	0.668343	-0.000004	-0.241500
C239	C	1.001676	0.333329	0.091833
C240	C	1.335010	0.666663	0.425166
C241	C	0.723538	-0.000014	0.492332
C242	C	1.056872	0.333319	0.825666
C243	C	1.390205	0.666653	1.158999
C244	C	0.722827	-0.000009	0.551733
C245	C	1.056160	0.333324	0.885066
C246	C	1.389494	0.666657	1.218399
O247	O	0.766613	0.000010	0.588477
O248	O	1.099946	0.333343	0.921810
O249	O	1.433280	0.666676	1.255144
N250	N	0.670551	-0.000007	0.574359
N251	N	1.003884	0.333327	0.907692
N252	N	1.337217	0.666660	1.241025
C253	C	0.618982	-0.000002	0.537581
C254	C	0.952316	0.333331	0.870915
C255	C	1.285649	0.666664	1.204248
O256	O	0.574452	0.000001	0.562281
O257	O	0.907785	0.333334	0.895614
O258	O	1.241119	0.666668	1.228948
C259	C	0.619695	-0.000003	0.478182
C260	C	0.953028	0.333331	0.811515
C261	C	1.286361	0.666664	1.144849
C262	C	0.671974	-0.000011	0.455559
C263	C	1.005308	0.333322	0.788893
C264	C	1.338641	0.666655	1.122226
C265	C	0.775814	-0.000022	0.469709
C266	C	1.109147	0.333311	0.803042
C267	C	1.442481	0.666645	1.136376
C268	C	0.776525	-0.000028	0.410313
C269	C	1.109858	0.333306	0.743646
C270	C	1.443192	0.666639	1.076980
C271	C	0.724961	-0.000025	0.373540
C272	C	1.058294	0.333308	0.706873
C273	C	1.391628	0.666641	1.040207
C274	C	0.672685	-0.000017	0.396163
C275	C	1.006019	0.333316	0.729497
C276	C	1.339352	0.666650	1.062830
C277	C	0.568127	0.000006	0.441406
C278	C	0.901460	0.333339	0.774739
C279	C	1.234794	0.666673	1.108072
C280	C	0.568843	0.000006	0.382003
C281	C	0.902177	0.333339	0.715337
C282	C	1.235510	0.666673	1.048670
C283	C	0.621123	-0.000003	0.359381
C284	C	0.954457	0.333331	0.692714
C285	C	1.287790	0.666664	1.026047
C286	C	0.621832	-0.000020	0.299994
C287	C	0.955166	0.333313	0.633328
C288	C	1.288499	0.666646	0.966661
N289	N	0.674109	-0.000023	0.277368
N290	N	1.007442	0.333310	0.610701
N291	N	1.340775	0.666644	0.944035
C292	C	0.725673	-0.000025	0.314141
C293	C	1.059006	0.333308	0.647474
C294	C	1.392340	0.666641	0.980808
C295	C	0.617491	-0.000001	0.662324
C296	C	0.950824	0.333333	0.995657
C297	C	1.284158	0.666666	1.328990
C298	C	0.616778	-0.000005	0.721722
C299	C	0.950112	0.333329	1.055055
C300	C	1.283445	0.666662	1.388388
C301	C	0.720623	-0.000011	0.735869
C302	C	1.053957	0.333323	1.069202
C303	C	1.387290	0.666656	1.402536
C304	C	0.721335	-0.000011	0.676470
C305	C	1.054669	0.333322	1.009803
C306	C	1.388002	0.666656	1.343137
C307	C	0.669767	-0.000003	0.639698
C308	C	1.003101	0.333330	0.973031
C309	C	1.336434	0.666663	1.306364
C310	C	0.727163	-0.000038	0.189404
C311	C	1.060496	0.333295	0.522738
C312	C	1.393829	0.666629	0.856071
C313	C	0.727869	-0.000046	0.130002
C314	C	1.061203	0.333287	0.463335
C315	C	1.394536	0.666621	0.796669
C316	C	0.624025	-0.000037	0.115860
C317	C	0.957358	0.333296	0.449193
C318	C	1.290691	0.666630	0.782527
C319	C	0.623318	-0.000032	0.175257
C320	C	0.956651	0.333301	0.508590
C321	C	1.289984	0.666635	0.841924
C322	C	0.674891	-0.000030	0.212028
C323	C	1.008225	0.333303	0.545361
C324	C	1.341558	0.666636	0.878695
O325	O	0.578069	-0.000037	0.263215
O326	O	0.911403	0.333296	0.596548
O327	O	1.244736	0.666630	0.929882
O328	O	0.770196	-0.000021	0.289433
O329	O	1.103529	0.333312	0.622766
O330	O	1.436863	0.666646	0.956100
H331	H	-0.141954	-0.000040	0.023984
H332	H	0.191379	0.333293	0.357317
H333	H	0.524713	0.666627	0.690651
H334	H	0.486595	0.000005	-0.172252
H335	H	0.819928	0.333339	0.161081
H336	H	1.153261	0.666672	0.494414
H337	H	0.601694	-0.841023	-0.144738
H338	H	0.935027	-0.507690	0.188596
H339	H	1.268361	-0.174357	0.521929
Cl340	Cl	-0.049843	-0.000010	-0.188865
Cl341	Cl	0.283491	0.333324	0.144468
Cl342	Cl	0.616824	0.666657	0.477801
H343	H	0.819097	-0.000032	0.391900
H344	H	1.152430	0.333301	0.725233
H345	H	1.485763	0.666634	1.058566
H346	H	0.574207	-0.000008	0.740135
H347	H	0.907540	0.333326	1.073469
H348	H	1.240874	0.666659	1.406802
H349	H	0.098525	-0.000034	-0.219610
H350	H	0.431858	0.333299	0.113723
H351	H	0.765191	0.666632	0.447057
Cl352	Cl	0.760255	-0.714957	0.013745
Cl353	Cl	1.093588	-0.381624	0.347078
Cl354	Cl	1.426921	-0.048290	0.680412
Cl355	Cl	0.394496	-0.000038	0.040601
Cl356	Cl	0.727829	0.333296	0.373934
Cl357	Cl	1.061163	0.666629	0.707268
H358	H	0.575496	0.000000	0.632386
H359	H	0.908829	0.333334	0.965719
H360	H	1.242162	0.666667	1.299053
H361	H	0.525555	0.000017	0.459814
H362	H	0.858889	0.333350	0.793147
H363	H	1.192222	0.666683	1.126481
Cl364	Cl	0.216290	-0.000022	-0.244060
Cl365	Cl	0.549623	0.333311	0.089273
Cl366	Cl	0.882957	0.666645	0.422607
Cl367	Cl	-0.183920	-0.000013	-0.187255
Cl368	Cl	0.149414	0.333321	0.146079
Cl369	Cl	0.482747	0.666654	0.479412
H370	H	0.512280	-0.000029	0.016150
H371	H	0.845613	0.333304	0.349484
H372	H	1.178947	0.666637	0.682817
Cl373	Cl	0.584404	-0.285098	-0.162009
Cl374	Cl	0.917737	0.048236	0.171324
Cl375	Cl	1.251070	0.381569	0.504658
Cl376	Cl	0.760225	-0.285048	0.013724
Cl377	Cl	1.093558	0.048286	0.347058
Cl378	Cl	1.426891	0.381619	0.680391
H379	H	0.781929	-0.443841	0.035413
H380	H	1.115262	-0.110507	0.368747
H381	H	1.448595	0.222826	0.702080
Cl382	Cl	-0.017919	-0.000052	0.045539
Cl383	Cl	0.315415	0.333281	0.378873
Cl384	Cl	0.648748	0.666614	0.712206
H385	H	0.601677	-0.728702	-0.144737
H386	H	0.935010	-0.395369	0.188597
H387	H	1.268344	-0.062035	0.521930
H388	H	0.763906	-0.000018	0.658055
H389	H	1.097239	0.333316	0.991388
H390	H	1.430573	0.666649	1.324722
H391	H	0.769159	-0.000034	0.219337
H392	H	1.102492	0.333299	0.552670
H393	H	1.435825	0.666632	0.886004
H394	H	0.601648	-0.159046	-0.144772
H395	H	0.934981	0.174287	0.188561
H396	H	1.268315	0.507620	0.521894
Cl397	Cl	0.760219	-0.145307	0.013702
Cl398	Cl	1.093552	0.188026	0.347035
Cl399	Cl	1.426886	0.521360	0.680369
Cl400	Cl	0.545457	-0.569908	-0.200896
Cl401	Cl	0.878790	-0.236574	0.132437
Cl402	Cl	1.212123	0.096759	0.465770
Cl403	Cl	0.840647	-0.000026	0.515928
Cl404	Cl	1.173980	0.333307	0.849262
Cl405	Cl	1.507314	0.666640	1.182595
H406	H	0.580747	-0.000041	0.193677
H407	H	0.914081	0.333292	0.527010
H408	H	1.247414	0.666625	0.860344
Cl409	Cl	0.793597	-0.000056	0.101567
Cl410	Cl	1.126931	0.333278	0.434900
Cl411	Cl	1.460264	0.666611	0.768233
Cl412	Cl	0.504011	0.000016	0.335778
Cl413	Cl	0.837344	0.333349	0.669112
Cl414	Cl	1.170678	0.666683	1.002445
H415	H	0.743008	-0.841008	-0.003493
H416	H	1.076341	-0.507675	0.329841
H417	H	1.409675	-0.174341	0.663174
Cl418	Cl	0.559205	-0.000032	0.069621
Cl419	Cl	0.892538	0.333301	0.402954
Cl420	Cl	1.225871	0.666634	0.736287
Cl421	Cl	0.799186	-0.569863	0.052663
Cl422	Cl	1.132520	-0.236530	0.385996
Cl423	Cl	1.465853	0.096803	0.719329
H424	H	0.138359	-0.000052	0.072637
H425	H	0.471692	0.333282	0.405970
H426	H	0.805026	0.666615	0.739304
H427	H	0.246104	-0.000053	0.071347
H428	H	0.579437	0.333280	0.404680
H429	H	0.912771	0.666614	0.738013
H430	H	0.378846	-0.000010	-0.170964
H431	H	0.712179	0.333323	0.162370
H432	H	1.045512	0.666657	0.495703
Cl433	Cl	0.545448	-0.430166	-0.200898
Cl434	Cl	0.878781	-0.096833	0.132435
Cl435	Cl	1.212115	0.236500	0.465769
H436	H	0.762610	-0.000010	0.765821
H437	H	1.095943	0.333323	1.099154
H438	H	1.429276	0.666656	1.432487
