data_functionalizedCrystal
_audit_creation_method	'MofGen! by Chris Wilmer'
_symmetry_space_group_name_H-M	'P1'
_symmetry_Int_Tables_number	1
_symmetry_cell_setting	triclinic
loop_
_symmetry_equiv_pos_as_xyz
  x,y,z
_cell_length_a	25.639239
_cell_length_b	19.805407
_cell_length_c	19.805399
_cell_angle_alpha	89.980427
_cell_angle_beta	89.971274
_cell_angle_gamma	90.038686
loop_
_atom_site_label
_atom_site_type_symbol
_atom_site_fract_x
_atom_site_fract_y
_atom_site_fract_z
Zn1	Zn	-0.208163	1.034678	-0.382714
Zn2	Zn	-0.295597	1.034569	-0.269524
Zn3	Zn	-0.208177	0.921493	-0.269539
Zn4	Zn	-0.295569	0.921432	-0.382670
O5	O	-0.251877	0.978043	-0.326112
O6	O	-0.219767	1.129380	-0.367711
O7	O	-0.284018	1.019548	-0.174809
O8	O	-0.135010	0.936578	-0.284576
O9	O	-0.284004	1.129300	-0.284551
O10	O	-0.135000	1.019735	-0.367726
O11	O	-0.219791	0.936472	-0.174820
O12	O	-0.219764	0.826768	-0.284534
O13	O	-0.283957	0.936475	-0.477393
O14	O	-0.283971	0.826723	-0.367651
O15	O	-0.219740	1.019676	-0.477425
O16	O	-0.368758	1.019489	-0.284508
O17	O	-0.368738	0.936368	-0.367637
C18	C	-0.251867	0.802187	-0.326090
C19	C	-0.251875	0.726955	-0.326097
C20	C	-0.285357	0.691605	-0.369306
C21	C	-0.285358	0.620917	-0.369315
C22	C	-0.251879	0.585579	-0.326112
C23	C	-0.218393	0.620934	-0.282901
C24	C	-0.218390	0.691621	-0.282895
C25	C	-0.218404	0.335860	-0.282923
C26	C	-0.218411	0.265168	-0.282931
C27	C	-0.285373	0.265156	-0.369343
C28	C	-0.285370	0.335843	-0.369338
C29	C	-0.251882	0.371192	-0.326129
C30	C	-0.251881	0.447840	-0.326121
C31	C	-0.251883	0.508932	-0.326117
C32	C	-0.387719	0.977929	-0.326081
C33	C	-0.445833	0.977942	-0.326090
C34	C	-0.806194	1.021437	-0.282901
C35	C	-0.860799	1.021463	-0.282910
O36	O	-0.889034	1.058326	-0.246154
N37	N	-0.888116	0.978162	-0.326157
C38	C	-0.860825	0.934836	-0.369402
O39	O	-0.889075	0.898008	-0.406189
C40	C	-0.806222	0.934814	-0.369396
C41	C	-0.778908	0.978113	-0.326141
C42	C	-0.778880	1.064733	-0.239650
C43	C	-0.724279	1.064706	-0.239640
C44	C	-0.696993	1.021382	-0.282881
C45	C	-0.724307	0.978086	-0.326132
C46	C	-0.778933	0.891492	-0.412645
C47	C	-0.724326	0.891474	-0.412635
C48	C	-0.697012	0.934773	-0.369381
C49	C	-0.642421	0.934735	-0.369363
N50	N	-0.615104	0.978036	-0.326116
C51	C	-0.642390	1.021360	-0.282875
C52	C	-0.975496	0.934887	-0.369413
C53	C	-1.030098	0.934906	-0.369416
C54	C	-1.030068	1.021533	-0.282924
C55	C	-0.975464	1.021511	-0.282918
C56	C	-0.948179	0.978188	-0.326166
C57	C	-0.527725	1.021299	-0.282857
C58	C	-0.473119	1.021266	-0.282849
C59	C	-0.473155	0.934641	-0.369343
C60	C	-0.527756	0.934671	-0.369349
C61	C	-0.555039	0.978006	-0.326104
O62	O	-0.614151	0.897893	-0.406101
O63	O	-0.614134	1.058188	-0.246101
C64	C	-0.115504	0.978175	-0.326158
C65	C	-0.057389	0.978232	-0.326177
C66	C	-0.251844	0.978081	-0.502655
C67	C	-0.251830	0.978097	-0.577887
C68	C	-0.251887	1.154585	-0.326134
C69	C	-0.251891	1.229817	-0.326144
C70	C	-0.218390	1.021421	-0.613249
C71	C	-0.218375	1.021428	-0.683937
C72	C	-0.251802	0.978114	-0.719262
C73	C	-0.285243	0.934785	-0.683895
C74	C	-0.285255	0.934775	-0.613208
C75	C	-0.285194	0.934823	-0.968969
C76	C	-0.285181	0.934838	-1.039661
C77	C	-0.218314	1.021476	-1.039698
C78	C	-0.218326	1.021466	-0.969011
C79	C	-0.251765	0.978135	-0.933650
C80	C	-0.251780	0.978127	-0.857001
C81	C	-0.251790	0.978125	-0.795909
C82	C	-0.251872	0.978044	-0.150256
C83	C	-0.251738	0.978159	-0.075024
H84	H	-0.191145	0.236399	-0.247749
H85	H	-0.312458	0.899515	-0.712663
Br86	Br	-0.330636	0.875972	-0.565216
Br87	Br	-0.172962	1.080255	-0.921073
Br88	Br	-0.687299	0.832678	-0.471335
H89	H	-0.450930	0.899365	-0.404548
H90	H	-0.191171	1.056694	-0.584492
H91	H	-0.312402	0.899563	-1.068421
Br92	Br	-0.173015	1.080259	-0.731926
H93	H	-0.801163	0.856230	-0.447864
H94	H	-0.549996	0.899415	-0.404573
Br95	Br	-0.330811	0.383798	-0.427969
Br96	Br	-0.172953	0.383825	-0.224287
Br97	Br	-0.436053	1.080032	-0.224141
Br98	Br	-0.172931	1.080283	-1.087691
H99	H	-0.312622	0.720372	-0.404485
Br100	Br	-0.330800	0.572944	-0.427961
H101	H	-0.191131	0.592156	-0.247727
Br102	Br	-0.330823	0.217180	-0.427983
Br103	Br	-0.564744	1.080111	-0.224167
H104	H	-0.953228	1.056769	-0.247697
Br105	Br	-0.172944	0.739597	-0.224256
Br106	Br	-0.687219	1.123482	-0.180944
Br107	Br	-1.067110	1.080328	-0.224236
H108	H	-0.801091	1.100016	-0.204438
H109	H	-1.052333	0.899641	-0.404632
Br110	Br	-0.938471	0.876082	-0.428108
Br111	Br	-0.330575	0.876016	-0.920988
