data_functionalizedCrystal
_audit_creation_method	'MofGen! by Chris Wilmer'
_symmetry_space_group_name_H-M	'P1'
_symmetry_Int_Tables_number	1
_symmetry_cell_setting	triclinic
loop_
_symmetry_equiv_pos_as_xyz
  x,y,z
_cell_length_a	8.559649
_cell_length_b	16.992695
_cell_length_c	7.088899
_cell_angle_alpha	96.570673
_cell_angle_beta	97.649441
_cell_angle_gamma	80.223444
loop_
_atom_site_label
_atom_site_type_symbol
_atom_site_fract_x
_atom_site_fract_y
_atom_site_fract_z
O1	O	-2.101340	0.032672	0.158954
O2	O	-1.641266	-0.007513	0.158966
O3	O	-1.869460	0.126611	0.158945
O4	O	-1.873146	-0.101451	0.158975
O5	O	-1.900280	0.114061	-0.159029
O6	O	-1.672086	-0.020063	-0.159008
O7	O	-2.132160	0.020122	-0.159020
Cu8	Cu	-1.904937	-0.001116	-0.188048
Cu9	Cu	-1.868489	0.013726	0.187994
O10	O	-1.903966	-0.114001	-0.158999
C11	C	-1.597535	-0.016833	-0.000020
C12	C	-1.421312	-0.025897	-0.000016
C13	C	-1.880125	0.149263	-0.000042
C14	C	-1.865966	0.235454	-0.000041
C15	C	-2.175890	0.029443	-0.000030
C16	C	-2.352112	0.038508	-0.000022
C17	C	-1.893301	-0.136653	-0.000008
C18	C	-1.907458	-0.222844	0.000004
N19	N	-1.930584	-0.011554	-0.452535
C20	C	-2.002575	0.293921	-0.000046
C21	C	-1.989260	0.374906	-0.000028
C22	C	-1.839338	0.397423	-0.000018
C23	C	-1.702719	0.338950	-0.000007
C24	C	-1.716033	0.257967	-0.000011
C25	C	-1.784153	0.637699	0.000010
C26	C	-1.770850	0.718690	0.000009
C27	C	-2.057392	0.754640	-0.000009
C28	C	-2.070695	0.673653	-0.000025
C29	C	-1.934075	0.615188	-0.000004
N30	N	-1.825725	0.480203	-0.000005
N31	N	-1.947687	0.532410	-0.000003
N32	N	-1.842853	0.024170	0.452481
H33	H	-1.427682	0.100583	-0.000020
C34	C	-1.320592	-0.108680	0.000395
C35	C	-1.338934	-0.143626	0.164013
C36	C	-1.246160	-0.219878	0.164471
H37	H	-1.354255	-0.141369	-0.110357
H38	H	-1.211538	-0.104009	0.000504
H39	H	-1.447964	-0.148301	0.163887
H40	H	-1.305261	-0.110961	0.274792
H41	H	-1.137106	-0.215207	0.164579
H42	H	-1.279831	-0.252559	0.053712
H43	H	-1.258580	-0.243595	0.275492
C44	C	-1.635651	0.574344	-0.000094
C45	C	-1.501518	0.611398	-0.000149
C46	C	-1.364687	0.553055	-0.000279
H47	H	-1.623907	0.546343	0.110757
H48	H	-1.645555	0.537637	-0.111027
H49	H	-1.491614	0.648090	0.110772
H50	H	-1.513209	0.639394	-0.110992
H51	H	-1.374592	0.516348	-0.111212
H52	H	-1.352959	0.525058	0.110574
H53	H	-1.273664	0.578187	-0.000334
H54	H	-1.751938	0.061197	0.534136
H55	H	-2.021478	-0.048587	0.465819
C56	C	-1.540015	0.363521	0.000303
C57	C	-1.508166	0.415434	0.163868
C58	C	-1.358307	0.438092	0.164199
H59	H	-1.460403	0.317177	0.000407
H60	H	-1.539588	0.390037	-0.110526
H61	H	-1.508580	0.388919	0.274667
H62	H	-1.587739	0.461790	0.163798
H63	H	-1.357880	0.464607	0.053370
H64	H	-1.278708	0.391744	0.164297
H65	H	-1.336684	0.473323	0.275165
H66	H	-2.100502	0.422508	-0.000037
C67	C	-2.165222	0.269375	0.000243
C68	C	-2.165364	0.230366	0.163806
C69	C	-2.315162	0.207736	0.164132
H70	H	-2.244811	0.315728	0.000345
H71	H	-2.187137	0.234117	-0.110587
H72	H	-2.143468	0.265622	0.274607
H73	H	-2.085807	0.184004	0.163738
H74	H	-2.337077	0.172479	0.053303
H75	H	-2.394740	0.254093	0.164229
H76	H	-2.315274	0.181260	0.275098
H77	H	-2.168620	0.802251	-0.000023
H78	H	-2.192777	0.655327	-0.000034
H79	H	-1.648762	0.737016	-0.000014
H80	H	-1.604792	0.210363	-0.000006
