data_functionalizedCrystal
_audit_creation_method	'MofGen! by Chris Wilmer'
_symmetry_space_group_name_H-M	'P1'
_symmetry_Int_Tables_number	1
_symmetry_cell_setting	triclinic
loop_
_symmetry_equiv_pos_as_xyz
  x,y,z
_cell_length_a	10.723024
_cell_length_b	10.723024
_cell_length_c	9.798715
_cell_angle_alpha	89.998022
_cell_angle_beta	89.996609
_cell_angle_gamma	84.467869
loop_
_atom_site_label
_atom_site_type_symbol
_atom_site_fract_x
_atom_site_fract_y
_atom_site_fract_z
O1	O	1.657187	0.175024	-0.113478
O2	O	1.294035	0.191778	-0.113483
O3	O	1.483988	0.001825	-0.113475
O4	O	1.467234	0.364977	-0.113486
O5	O	1.483974	0.001824	0.113507
O6	O	1.294021	0.191777	0.113499
O7	O	1.657173	0.175024	0.113504
Zn8	Zn	1.475595	0.183401	0.149540
Zn9	Zn	1.475613	0.183401	-0.149519
O10	O	1.467220	0.364977	0.113496
C11	C	1.247528	0.190558	0.000008
C12	C	1.108974	0.186911	0.000006
C13	C	1.033991	0.293198	0.000002
C14	C	0.890788	0.289431	0.000001
C15	C	1.482762	-0.044675	0.000014
C16	C	1.479114	-0.183229	0.000009
C17	C	1.585401	-0.258212	0.000009
C18	C	1.581634	-0.401415	0.000004
C19	C	1.703680	0.176243	0.000010
C20	C	1.842234	0.179891	0.000003
C21	C	1.468447	0.411477	0.000004
C22	C	1.472094	0.550031	-0.000000
N23	N	1.475591	0.183399	0.353640
N24	N	1.475627	0.183393	-0.353619
C25	C	1.555347	0.103292	0.421420
C26	C	1.555367	0.103288	0.578582
H27	H	0.906659	0.088896	-0.000002
O28	O	1.636774	0.021291	0.647961
C29	C	1.707367	-0.195139	0.692005
C30	C	1.615121	-0.102412	0.613321
H31	H	1.689875	-0.295173	0.664049
H32	H	1.807575	-0.178383	0.663945
H33	H	1.692884	-0.180499	0.806360
H34	H	1.629489	-0.116997	0.498948
H35	H	1.514946	-0.119191	0.641494
O36	O	1.394113	0.265340	0.577075
C37	C	1.227576	0.432522	0.591874
C38	C	1.319841	0.339804	0.670545
H39	H	1.167485	0.492732	0.667410
H40	H	1.282157	0.495219	0.525002
H41	H	1.164717	0.378184	0.524951
H42	H	1.382722	0.394041	0.737543
H43	H	1.265182	0.277108	0.737331
H44	H	1.067152	0.093125	-0.000026
O45	O	1.363565	-0.373067	-0.000243
C46	C	1.235862	-0.209748	-0.117792
C47	C	1.358802	-0.296798	-0.117702
H48	H	1.231982	-0.148043	-0.212733
H49	H	1.152754	-0.268523	-0.117885
H50	H	1.231874	-0.148169	-0.022754
H51	H	1.362912	-0.358393	-0.212724
H52	H	1.441852	-0.237948	-0.117538
O53	O	1.636989	0.021525	0.352034
C54	C	1.853185	-0.050078	0.308032
C55	C	1.760845	0.042576	0.386695
H56	H	1.953343	-0.033074	0.336004
H57	H	1.835934	-0.150156	0.336092
H58	H	1.838629	-0.035541	0.193673
H59	H	1.775348	0.028153	0.501071
H60	H	1.778120	0.142620	0.358521
O61	O	1.697186	-0.208125	0.000072
C62	C	1.802864	-0.019730	-0.000005
C63	C	1.676178	-0.076282	-0.000045
H64	H	1.785923	0.086872	-0.000129
H65	H	1.858237	-0.052026	0.095010
H66	H	1.858228	-0.052185	-0.094973
H67	H	1.620712	-0.043853	0.094859
H68	H	1.620900	-0.043991	-0.095123
H69	H	1.407319	0.251975	0.411961
H70	H	1.672624	-0.465848	0.000009
H71	H	1.075814	0.386984	0.000007
O72	O	0.813982	0.398023	-0.000246
C73	C	0.750213	0.591068	-0.117805
C74	C	0.837249	0.468118	-0.117710
H75	H	0.769012	0.647787	-0.212749
H76	H	0.648390	0.568762	-0.117895
H77	H	0.768864	0.647718	-0.022770
H78	H	0.818710	0.411409	-0.212728
H79	H	0.939043	0.490512	-0.117549
H80	H	1.385328	-0.225051	-0.000001
