data_functionalizedCrystal
_audit_creation_method	'MofGen! by Chris Wilmer'
_symmetry_space_group_name_H-M	'P1'
_symmetry_Int_Tables_number	1
_symmetry_cell_setting	triclinic
loop_
_symmetry_equiv_pos_as_xyz
  x,y,z
_cell_length_a	14.908558
_cell_length_b	14.908178
_cell_length_c	14.908308
_cell_angle_alpha	90.221621
_cell_angle_beta	89.824401
_cell_angle_gamma	89.819838
loop_
_atom_site_label
_atom_site_type_symbol
_atom_site_fract_x
_atom_site_fract_y
_atom_site_fract_z
Zn1	Zn	1.319972	-0.467750	0.559094
Zn2	Zn	1.320876	-0.609515	0.400104
Zn3	Zn	1.179219	-0.450532	0.401141
Zn4	Zn	1.161961	-0.608447	0.541822
O5	O	1.245507	-0.534061	0.475540
O6	O	1.445503	-0.494207	0.544798
O7	O	1.309686	-0.581666	0.274828
O8	O	1.204734	-0.327399	0.429757
O9	O	1.446168	-0.598361	0.427989
O10	O	1.308144	-0.340049	0.545804
O11	O	1.205611	-0.464863	0.275591
O12	O	1.051518	-0.463828	0.413009
O13	O	1.175321	-0.596542	0.669526
O14	O	1.038839	-0.579847	0.516366
O15	O	1.291410	-0.493172	0.682216
O16	O	1.292952	-0.734790	0.411240
O17	O	1.176198	-0.734006	0.515360
C18	C	1.012660	-0.519854	0.462926
C19	C	0.913045	-0.513799	0.457550
C20	C	0.779215	-0.444781	0.396258
C21	C	0.872813	-0.450466	0.401307
C22	C	0.859671	-0.571451	0.508750
C23	C	0.766073	-0.565766	0.503702
C24	C	0.725849	-0.502430	0.447453
C25	C	0.632249	-0.496750	0.442401
C26	C	0.619109	-0.617731	0.549848
C27	C	0.712707	-0.623415	0.554897
C28	C	1.232823	-0.766920	0.461334
C29	C	1.227478	-0.866544	0.455291
C30	C	1.325019	-1.066772	0.564894
C31	C	1.319999	-1.160379	0.559219
C32	C	1.212413	-1.147365	0.438272
C33	C	1.217433	-1.053759	0.443947
C34	C	1.273739	-1.013466	0.507259
C35	C	1.278763	-0.919858	0.512929
C36	C	1.171173	-0.906846	0.391986
C37	C	1.166153	-1.000452	0.386312
C38	C	1.479263	-0.548324	0.488204
C39	C	1.578876	-0.554402	0.493601
C40	C	1.231340	-0.546659	0.709299
C41	C	1.225302	-0.552027	0.808913
C42	C	1.258263	-0.300296	0.489823
C43	C	1.263699	-0.200679	0.495909
C44	C	1.259674	-0.521451	0.242698
C45	C	1.265899	-0.515840	0.143109
C46	C	1.334840	-0.454455	1.009315
C47	C	1.329171	-0.459496	1.102911
C48	C	1.208290	-0.567145	1.089704
C49	C	1.213960	-0.562104	0.996108
C50	C	1.277238	-0.505758	0.955916
C51	C	1.282911	-0.500722	0.862318
C52	C	1.162027	-0.608366	0.849113
C53	C	1.156357	-0.613407	0.942709
H54	H	0.599500	-0.445178	0.396601
H55	H	1.370872	-1.033966	0.616439
H56	H	0.746464	-0.393212	0.350457
F57	F	0.562305	-0.679084	0.604342
F58	F	1.350259	-0.440757	0.819545
F59	F	1.140945	-0.627101	1.132494
H60	H	1.376075	-0.417717	1.146385
H61	H	1.386368	-0.408580	0.976591
H62	H	0.892439	-0.623011	0.554550
H63	H	1.166568	-1.180188	0.386730
H64	H	0.745471	-0.674979	0.600695
F65	F	1.089014	-0.673370	0.985494
F66	F	1.338691	-0.876976	0.580308
F67	F	1.374576	-1.217109	0.620564
H68	H	1.120309	-1.033272	0.334767
H69	H	1.115125	-0.650143	0.805625
H70	H	0.916261	-0.403519	0.359622
F71	F	1.116600	-0.850106	0.330638
