data_functionalizedCrystal
_audit_creation_method	'MofGen! by Chris Wilmer'
_symmetry_space_group_name_H-M	'P1'
_symmetry_Int_Tables_number	1
_symmetry_cell_setting	triclinic
loop_
_symmetry_equiv_pos_as_xyz
  x,y,z
_cell_length_a	18.215407
_cell_length_b	16.959454
_cell_length_c	18.215399
_cell_angle_alpha	89.976304
_cell_angle_beta	89.980167
_cell_angle_gamma	90.020523
loop_
_atom_site_label
_atom_site_type_symbol
_atom_site_fract_x
_atom_site_fract_y
_atom_site_fract_z
Zn1	Zn	1.125097	-0.314680	-0.416138
Zn2	Zn	1.625097	0.185320	0.083862
Zn3	Zn	1.125015	-0.446866	-0.293080
Zn4	Zn	1.625015	0.053134	0.206920
Zn5	Zn	1.002029	-0.314706	-0.293085
Zn6	Zn	1.502029	0.185294	0.206915
Zn7	Zn	1.002005	-0.446822	-0.416105
Zn8	Zn	1.502005	0.053178	0.083895
O9	O	1.063537	-0.380768	-0.354602
O10	O	1.563537	0.119232	0.145398
O11	O	1.228070	-0.332222	-0.399825
O12	O	1.728070	0.167778	0.100175
O13	O	1.108677	-0.429364	-0.190097
O14	O	1.608677	0.070636	0.309903
O15	O	1.018398	-0.204092	-0.309424
O16	O	1.518398	0.295908	0.190576
O17	O	1.228010	-0.429339	-0.309416
O18	O	1.728010	0.070661	0.190584
O19	O	1.108815	-0.204073	-0.399830
O20	O	1.608815	0.295927	0.100170
O21	O	1.018319	-0.332267	-0.190100
O22	O	1.518319	0.167733	0.309900
O23	O	0.899042	-0.332224	-0.309392
O24	O	1.399042	0.167776	0.190608
O25	O	1.018358	-0.429264	-0.519094
O26	O	1.518358	0.070736	-0.019094
O27	O	0.899024	-0.429289	-0.399775
O28	O	1.399024	0.070711	0.100225
O29	O	1.108792	-0.332180	-0.519118
O30	O	1.608792	0.167820	-0.019118
O31	O	1.108654	-0.557471	-0.309385
O32	O	1.608654	-0.057471	0.190615
O33	O	1.018279	-0.557438	-0.399770
O34	O	1.518279	-0.057438	0.100230
C35	C	0.872330	-0.380755	-0.354581
C36	C	1.372330	0.119245	0.145419
C37	C	0.790531	-0.380768	-0.354589
C38	C	1.290531	0.119232	0.145411
C39	C	0.602348	-0.431389	-0.401593
C40	C	1.102348	0.068611	0.098407
C41	C	0.525489	-0.431392	-0.401602
C42	C	1.025489	0.068608	0.098398
C43	C	0.525478	-0.330162	-0.307628
C44	C	1.025478	0.169838	0.192372
C45	C	0.602335	-0.330156	-0.307623
C46	C	1.102335	0.169844	0.192377
C47	C	0.640768	-0.380774	-0.354604
C48	C	1.140768	0.119226	0.145396
C49	C	0.487052	-0.380782	-0.354618
C50	C	0.987052	0.119218	0.145382
C51	C	0.403718	-0.380785	-0.354628
C52	C	0.903718	0.119215	0.145372
C53	C	0.724107	-0.380771	-0.354596
C54	C	1.224107	0.119229	0.145404
C55	C	1.063475	-0.586135	-0.354590
C56	C	1.563475	-0.086135	0.145410
C57	C	1.063516	-0.673991	-0.354609
C58	C	1.563516	-0.173991	0.145391
C59	C	1.016547	-1.045480	-0.401661
C60	C	1.516547	-0.545480	0.098339
C61	C	1.110731	-1.045454	-0.307618
C62	C	1.610731	-0.545454	0.192382
C63	C	1.110706	-0.962908	-0.307611
C64	C	1.610706	-0.462908	0.192389
C65	C	1.063599	-0.921644	-0.354629
C66	C	1.563599	-0.421644	0.145371
C67	C	1.016518	-0.962926	-0.401654
C68	C	1.516518	-0.462926	0.098346
C69	C	1.157781	-0.921619	-0.260582
C70	C	1.657781	-0.421619	0.239418
C71	C	1.157756	-0.839068	-0.260573
C72	C	1.657756	-0.339068	0.239427
C73	C	1.110653	-0.797803	-0.307595
C74	C	1.610653	-0.297803	0.192405
C75	C	1.063570	-0.839091	-0.354622
C76	C	1.563570	-0.339091	0.145378
C77	C	1.016464	-0.797827	-0.401640
C78	C	1.516464	-0.297827	0.098360
C79	C	0.969384	-0.839113	-0.448672
C80	C	1.469384	-0.339113	0.051328
C81	C	0.969414	-0.921661	-0.448676
C82	C	1.469414	-0.421661	0.051324
C83	C	1.110623	-0.715255	-0.307591
C84	C	1.610623	-0.215255	0.192409
C85	C	1.016435	-0.715273	-0.401634
C86	C	1.516435	-0.215273	0.098366
C87	C	1.255489	-0.380783	-0.354624
C88	C	1.755489	0.119217	0.145376
C89	C	1.337288	-0.380789	-0.354633
C90	C	1.837288	0.119211	0.145367
C91	C	1.063581	-0.380714	-0.546555
C92	C	1.563581	0.119286	-0.046555
C93	C	1.063601	-0.380691	-0.628354
C94	C	1.563601	0.119309	-0.128354
C95	C	1.063619	-0.174600	-0.354631
C96	C	1.563619	0.325400	0.145369
C97	C	1.063653	-0.086744	-0.354643
C98	C	1.563653	0.413256	0.145357
C99	C	1.110707	-0.330092	-0.816562
C100	C	1.610707	0.169908	-0.316562
C101	C	1.110716	-0.330069	-0.893420
C102	C	1.610716	0.169931	-0.393420
C103	C	1.016546	-0.431167	-0.893384
C104	C	1.516546	0.068833	-0.393384
C105	C	1.016534	-0.431186	-0.816527
C106	C	1.516534	0.068814	-0.316527
C107	C	1.063619	-0.380649	-0.778118
C108	C	1.563619	0.119351	-0.278118
C109	C	1.063639	-0.380608	-0.931834
C110	C	1.563639	0.119392	-0.431834
C111	C	1.063649	-0.380583	-1.015168
C112	C	1.563649	0.119417	-0.515168
C113	C	1.063609	-0.380672	-0.694779
C114	C	1.563609	0.119328	-0.194779
C115	C	1.063534	-0.380766	-0.163396
C116	C	1.563534	0.119234	0.336604
C117	C	1.063658	-0.380566	-0.081597
C118	C	1.563658	0.119434	0.418403
H119	H	0.494211	-0.472606	-0.439866
H120	H	0.994211	0.027394	0.060134
H121	H	1.149079	-1.079055	-0.269334
H122	H	1.649079	-0.579055	0.230666
H123	H	1.196091	-0.805459	-0.222279
H124	H	1.696091	-0.305459	0.277721
C125	C	0.964729	-0.486803	-0.774236
C126	C	1.464729	0.013197	-0.274236
N127	N	0.925709	-0.528690	-0.742383
N128	N	1.425709	-0.028690	-0.242383
C129	C	1.162518	-0.274454	-0.935705
C130	C	1.662518	0.225546	-0.435705
N131	N	1.201538	-0.232562	-0.967554
N132	N	1.701538	0.267438	-0.467554
H133	H	0.633638	-0.472604	-0.439850
H134	H	1.133638	0.027396	0.060150
C135	C	0.483194	-0.274489	-0.255947
C136	C	0.983194	0.225511	0.244053
N137	N	0.451347	-0.232557	-0.217018
N138	N	0.951347	0.267443	0.282982
H139	H	0.633617	-0.288934	-0.269359
H140	H	1.133617	0.211066	0.230641
H141	H	0.978077	-0.681682	-0.439924
H142	H	1.478077	-0.181682	0.060076
C143	C	0.917568	-0.793712	-0.500390
C144	C	1.417568	-0.293712	-0.000390
N145	N	0.878542	-0.759513	-0.539343
N146	N	1.378542	-0.259513	-0.039343
C147	C	1.162407	-0.669844	-0.255861
C148	C	1.662407	-0.169844	0.244139
N149	N	1.201417	-0.635642	-0.216896
N150	N	1.701417	-0.135642	0.283104
H151	H	0.931084	-0.955284	-0.486966
H152	H	1.431084	-0.455284	0.013034
C153	C	0.964759	-1.090894	-0.453390
C154	C	1.464759	-0.590894	0.046610
N155	N	0.925750	-1.125101	-0.492351
N156	N	1.425750	-0.625101	0.007649
H157	H	1.196127	-0.955222	-0.222297
H158	H	1.696127	-0.455222	0.277703
H159	H	1.149044	-0.288940	-0.785291
H160	H	1.649044	0.211060	-0.285291
H161	H	0.978214	-0.472314	-0.924667
H162	H	1.478214	0.027686	-0.424667
