data_functionalizedCrystal
_audit_creation_method	'MofGen! by Chris Wilmer'
_symmetry_space_group_name_H-M	'P1'
_symmetry_Int_Tables_number	1
_symmetry_cell_setting	triclinic
loop_
_symmetry_equiv_pos_as_xyz
  x,y,z
_cell_length_a	14.519731
_cell_length_b	27.732048
_cell_length_c	26.210047
_cell_angle_alpha	89.988763
_cell_angle_beta	89.975456
_cell_angle_gamma	83.165754
loop_
_atom_site_label
_atom_site_type_symbol
_atom_site_fract_x
_atom_site_fract_y
_atom_site_fract_z
O1	O	1.222779	0.063410	-0.042436
O2	O	0.954175	0.070861	-0.042437
O3	O	1.096819	-0.003221	-0.042427
O4	O	1.080135	0.137492	-0.042446
O5	O	1.096754	-0.003222	0.042431
O6	O	0.954109	0.070859	0.042421
O7	O	1.222713	0.063409	0.042422
Cu8	Cu	1.088405	0.067134	0.050170
Cu9	Cu	1.088483	0.067135	-0.050185
O10	O	1.080069	0.137491	0.042412
C11	C	0.919789	0.070511	-0.000008
C12	C	0.817427	0.069465	-0.000008
C13	C	0.734297	0.068615	-0.000010
C14	C	0.630007	0.067553	-0.000010
C15	C	0.546883	0.066710	-0.000010
C16	C	0.442586	0.065647	-0.000011
C17	C	1.096436	-0.021231	0.000004
C18	C	1.095382	-0.074890	0.000008
C19	C	1.257099	0.063758	-0.000008
C20	C	1.359462	0.064804	-0.000011
C21	C	1.173036	-0.413331	-0.000018
C22	C	1.169123	-0.615010	-0.000025
O23	O	1.240132	-0.645923	-0.000047
N24	N	1.084541	-0.634541	-0.000025
C25	C	1.000931	-0.603649	-0.000027
O26	O	0.928899	-0.624890	-0.000032
C27	C	1.004845	-0.401972	-0.000023
C28	C	1.089432	-0.382444	-0.000018
C29	C	1.257616	-0.393802	-0.000013
C30	C	1.258594	-0.343386	-0.000009
C31	C	1.174990	-0.312498	-0.000009
C32	C	1.090410	-0.332027	-0.000013
C33	C	0.921236	-0.371081	-0.000028
C34	C	0.922222	-0.320659	-0.000029
C35	C	1.006809	-0.301131	-0.000024
C36	C	1.007784	-0.250723	-0.000009
N37	N	1.092366	-0.231191	-0.000009
C38	C	1.175969	-0.262079	-0.000009
C39	C	0.998882	-0.709533	-0.000027
C40	C	0.997903	-0.759953	-0.000027
C41	C	1.166096	-0.771309	-0.000027
C42	C	1.167073	-0.720889	-0.000023
C43	C	1.083464	-0.690002	-0.000027
C44	C	1.178015	-0.156200	0.000001
C45	C	1.178985	-0.105778	0.000008
C46	C	1.010793	-0.094426	0.000005
C47	C	1.009823	-0.144843	0.000001
C48	C	1.093441	-0.175729	-0.000003
O49	O	0.936812	-0.219781	0.000007
O50	O	1.247991	-0.240829	-0.000015
C51	C	1.172058	-0.463748	-0.000023
C52	C	1.087478	-0.483277	-0.000027
C53	C	1.003874	-0.452389	-0.000027
C54	C	1.086499	-0.533696	-0.000027
C55	C	1.170102	-0.564584	-0.000027
C56	C	1.254685	-0.545052	-0.000027
C57	C	1.255662	-0.494636	-0.000023
C58	C	0.919292	-0.471921	-0.000027
C59	C	0.918322	-0.522338	-0.000031
C60	C	1.001925	-0.553225	-0.000031
C61	C	1.080452	0.155500	-0.000020
C62	C	1.081507	0.209160	-0.000027
N63	N	1.088357	0.067133	0.120754
N64	N	1.088538	0.067133	-0.120769
C65	C	1.025260	0.099923	0.526716
C66	C	1.025216	0.099923	0.313058
O67	O	0.971458	0.127797	0.285435
N68	N	1.088387	0.067131	0.286337
C69	C	1.151569	0.034335	0.313035
O70	O	1.205293	0.006440	0.285405
C71	C	1.151609	0.034333	0.526692
C72	C	1.088440	0.067130	0.553410
C73	C	0.962095	0.132717	0.553434
C74	C	0.962111	0.132718	0.606846
C75	C	1.025290	0.099926	0.633539
C76	C	1.088455	0.067132	0.606822
C77	C	1.214786	0.001535	0.553389
C78	C	1.214789	0.001536	0.606807
C79	C	1.151620	0.034334	0.633524
C80	C	1.151649	0.034340	0.686927
N81	N	1.088478	0.067132	0.713647
C82	C	1.025299	0.099925	0.686953
C83	C	1.151545	0.034339	0.200862
C84	C	1.151537	0.034340	0.147447
C85	C	1.025182	0.099927	0.147474
C86	C	1.025195	0.099928	0.200889
C87	C	1.088374	0.067131	0.227582
C88	C	1.025336	0.099926	0.799121
C89	C	1.025359	0.099925	0.852538
C90	C	1.151710	0.034336	0.852506
C91	C	1.151691	0.034338	0.799095
C92	C	1.088496	0.067134	0.772404
O93	O	1.205372	0.006477	0.714582
O94	O	0.971570	0.127808	0.714593
C95	C	1.025245	0.099921	0.473305
C96	C	1.088409	0.067127	0.446587
C97	C	1.151589	0.034335	0.473281
C98	C	1.088401	0.067128	0.393173
C99	C	1.025221	0.099921	0.366479
C100	C	0.962050	0.132713	0.393200
C101	C	0.962065	0.132714	0.446611
C102	C	1.214760	0.001543	0.446561
C103	C	1.214741	0.001545	0.393149
C104	C	1.151561	0.034337	0.366455
H105	H	1.246105	-0.181342	-0.000004
H106	H	1.266188	-0.025162	0.371399
H107	H	1.266208	-0.025162	0.468290
O108	O	0.963895	0.131849	0.121563
C109	C	0.908597	0.215827	0.105231
C110	C	0.978071	0.179736	0.134600
H111	H	0.920021	0.254552	0.115769
H112	H	0.919445	0.210234	0.062460
H113	H	0.834840	0.209410	0.115748
H114	H	1.051855	0.186131	0.124126
H115	H	0.967142	0.185338	0.177364
O116	O	1.338920	-0.423733	0.000011
C117	C	1.505845	-0.429659	-0.000009
C118	C	1.413830	-0.395712	-0.000030
H119	H	1.566433	-0.407018	-0.000053
H120	H	1.509632	-0.453542	0.035514
H121	H	1.509585	-0.453556	-0.035512
H122	H	1.410028	-0.371785	0.035449
H123	H	1.410081	-0.371862	-0.035577
H124	H	0.910627	0.159421	0.468361
H125	H	1.247869	-0.089881	0.000013
O126	O	1.335814	-0.575131	-0.000051
C127	C	1.408823	-0.657843	-0.000030
C128	C	1.316884	-0.623833	-0.000011
H129	H	1.393551	-0.697226	0.000013
H130	H	1.450523	-0.650763	-0.035552
H131	H	1.450466	-0.650714	0.035474
H132	H	1.275167	-0.630942	-0.035491
H133	H	1.275254	-0.630920	0.035534
O134	O	1.247286	-0.801338	-0.000121
C135	C	1.343772	-0.864872	-0.044081
C136	C	1.251808	-0.830883	-0.044038
H137	H	1.347449	-0.888774	-0.079578
H138	H	1.404437	-0.842281	-0.044117
H139	H	1.347485	-0.888746	-0.008554
H140	H	1.248004	-0.807001	-0.079559
H141	H	1.191186	-0.853502	-0.043975
H142	H	0.851211	-0.446776	-0.000028
H143	H	1.324542	-0.478741	-0.000018
O144	O	0.836065	-0.541224	-0.000058
C145	C	0.669347	-0.524624	-0.000038
C146	C	0.762431	-0.503173	-0.000014
H147	H	0.609789	-0.493871	0.000008
H148	H	0.664649	-0.547918	-0.035564
H149	H	0.664694	-0.547971	0.035462
H150	H	0.767146	-0.479805	-0.035490
H151	H	0.767089	-0.479908	0.035535
O152	O	0.915654	-0.778839	-0.000049
C153	C	0.748935	-0.762240	-0.000023
C154	C	0.842020	-0.740789	-0.000006
H155	H	0.689378	-0.731486	0.000023
H156	H	0.744232	-0.785537	-0.035545
H157	H	0.744288	-0.785582	0.035481
H158	H	0.846729	-0.717424	-0.035486
H159	H	0.846682	-0.717520	0.035539
O160	O	0.917681	-0.679514	-0.000119
C161	C	0.821206	-0.615978	-0.044063
C162	C	0.913190	-0.649952	-0.044032
H163	H	0.817553	-0.592062	-0.079558
H164	H	0.760559	-0.638581	-0.044095
H165	H	0.817438	-0.592117	-0.008534
H166	H	0.917048	-0.673820	-0.079556
H167	H	0.973793	-0.627320	-0.043974
H168	H	1.235952	-0.704993	-0.000019
H169	H	0.973919	0.126634	0.874289
H170	H	1.327474	-0.327491	-0.000007
O171	O	0.841085	-0.290587	-0.000054
C172	C	0.768039	-0.207881	-0.000019
C173	C	0.859991	-0.241881	-0.000005
H174	H	0.783291	-0.168495	0.000031
H175	H	0.726396	-0.214951	-0.035543
H176	H	0.726347	-0.215032	0.035483
H177	H	0.901756	-0.234750	-0.035483
H178	H	0.901563	-0.234804	0.035542
H179	H	0.910671	0.159423	0.628596
O180	O	0.838985	-0.389963	-0.000058
C181	C	0.672267	-0.373355	-0.000040
C182	C	0.765357	-0.351909	-0.000017
H183	H	0.612715	-0.342599	0.000004
H184	H	0.667567	-0.396651	-0.035564
H185	H	0.667610	-0.396699	0.035462
H186	H	0.770077	-0.328544	-0.035496
H187	H	0.770018	-0.328642	0.035530
O188	O	0.929610	-0.064396	-0.000087
C189	C	0.833191	-0.000845	-0.044041
C190	C	0.925154	-0.034836	-0.044001
H191	H	0.829567	0.023070	-0.079536
H192	H	0.772524	-0.023434	-0.044078
H193	H	0.829429	0.023017	-0.008512
H194	H	0.929006	-0.058704	-0.079524
H195	H	0.985777	-0.012217	-0.043937
H196	H	0.973875	0.126631	0.777395
H197	H	0.910643	0.159421	0.531705
H198	H	0.973757	0.126634	0.222640
H199	H	1.202984	0.007639	0.125698
O200	O	1.213018	0.002463	0.226708
C201	C	1.338317	-0.062603	0.221030
C202	C	1.268759	-0.026525	0.191699
H203	H	1.383389	-0.086057	0.192739
H204	H	1.384157	-0.041704	0.246004
H205	H	1.298849	-0.086782	0.246069
H206	H	1.308152	-0.002338	0.166633
H207	H	1.222920	-0.047455	0.166758
O208	O	1.276180	-0.030374	0.527523
C209	C	1.401525	-0.095417	0.533157
C210	C	1.332030	-0.059310	0.562512
H211	H	1.446710	-0.118815	0.561433
H212	H	1.362097	-0.119646	0.508184
H213	H	1.447260	-0.074493	0.508116
H214	H	1.286277	-0.080195	0.587581
H215	H	1.371515	-0.035082	0.587453
H216	H	1.266236	-0.025173	0.628537
H217	H	0.940945	-0.160744	0.000011
O218	O	1.213092	0.002436	0.773217
C219	C	1.338455	-0.062599	0.778835
C220	C	1.268961	-0.026499	0.808199
H221	H	1.383656	-0.085996	0.807105
H222	H	1.299026	-0.086829	0.753864
H223	H	1.384174	-0.041669	0.753790
H224	H	1.223224	-0.047390	0.833271
H225	H	1.308447	-0.002269	0.833138
O226	O	0.900713	0.164522	0.367185
C227	C	0.844748	0.193597	0.284902
C228	C	0.914246	0.157545	0.314302
H229	H	0.855678	0.187976	0.242140
H230	H	0.770958	0.187211	0.295386
H231	H	0.856199	0.232324	0.295417
H232	H	0.902880	0.118805	0.303802
H233	H	0.988011	0.163974	0.303815
H234	H	1.203153	0.007638	0.874249
