data_functionalizedCrystal
_audit_creation_method	'MofGen! by Chris Wilmer'
_symmetry_space_group_name_H-M	'P1'
_symmetry_Int_Tables_number	1
_symmetry_cell_setting	triclinic
loop_
_symmetry_equiv_pos_as_xyz
  x,y,z
_cell_length_a	14.519710
_cell_length_b	14.971486
_cell_length_c	13.448316
_cell_angle_alpha	90.006811
_cell_angle_beta	89.994186
_cell_angle_gamma	96.352863
loop_
_atom_site_label
_atom_site_type_symbol
_atom_site_fract_x
_atom_site_fract_y
_atom_site_fract_z
O1	O	1.223800	-0.117253	-0.082671
O2	O	0.955315	-0.131061	-0.082677
O3	O	1.096754	0.006039	-0.082667
O4	O	1.082362	-0.254353	-0.082681
O5	O	1.096736	0.006048	0.082717
O6	O	0.955297	-0.131052	0.082706
O7	O	1.223782	-0.117244	0.082713
Cu8	Cu	1.089538	-0.124147	0.097811
Cu9	Cu	1.089559	-0.124158	-0.097775
O10	O	1.082344	-0.254344	0.082703
C11	C	1.096101	0.039369	0.000025
C12	C	1.094172	0.138667	0.000024
C13	C	0.920947	-0.130413	0.000014
C14	C	0.818567	-0.128485	0.000011
C15	C	1.258151	-0.117892	0.000020
C16	C	1.360531	-0.119820	0.000016
C17	C	1.735422	-0.126919	0.000015
C18	C	1.631116	-0.124948	0.000015
C19	C	1.547980	-0.123370	0.000014
C20	C	1.443667	-0.121398	0.000016
C21	C	1.082996	-0.287674	0.000009
C22	C	1.084925	-0.386972	0.000003
N23	N	1.089530	-0.124140	0.235375
C24	C	1.177264	0.195845	0.000027
C25	C	1.175446	0.289146	0.000017
C26	C	1.090536	0.325266	0.000011
C27	C	1.007438	0.268080	0.000005
C28	C	1.009257	0.174781	0.000008
C29	C	1.003653	0.462545	0.000001
C30	C	1.001834	0.555850	0.000000
C31	C	1.169842	0.576909	0.000010
C32	C	1.171661	0.483610	0.000013
C33	C	1.088563	0.426431	0.000009
N34	N	1.089575	-0.124158	-0.235339
C35	C	1.152179	-0.063457	0.287420
C36	C	1.152184	-0.063456	0.391523
C37	C	1.089545	-0.124143	0.443580
C38	C	1.026890	-0.184829	0.391527
C39	C	1.026881	-0.184825	0.287426
C40	C	1.026916	-0.184835	0.608507
C41	C	1.026926	-0.184841	0.712616
C42	C	1.152219	-0.063467	0.712605
C43	C	1.152210	-0.063462	0.608503
C44	C	1.089556	-0.124149	0.556458
H45	H	1.243107	0.335698	0.000021
C46	C	0.924458	0.689523	-0.000000
C47	C	0.908501	0.595557	-0.000009
H48	H	0.866836	0.714034	0.000001
H49	H	0.958680	0.709128	-0.057665
H50	H	0.958667	0.709132	0.057681
H51	H	0.874297	0.575947	-0.057694
H52	H	0.874264	0.575943	0.057662
C53	C	0.837397	0.451095	-0.000001
C54	C	0.912310	0.399691	-0.000001
H55	H	0.781009	0.412289	0.000006
H56	H	0.840186	0.487913	-0.057671
H57	H	0.840183	0.487932	0.057675
H58	H	0.909528	0.362857	-0.057681
H59	H	0.909519	0.362857	0.057675
C60	C	0.903032	-0.304791	0.381074
C61	C	0.958028	-0.251533	0.448744
H62	H	0.860515	-0.345967	0.416398
H63	H	0.941445	-0.337051	0.340460
H64	H	0.869826	-0.267470	0.340482
H65	H	0.991240	-0.288853	0.489331
H66	H	0.919610	-0.219271	0.489375
H67	H	0.941595	0.128227	0.000006
C68	C	1.277667	-0.044339	0.508580
C69	C	1.221050	0.003241	0.448741
H70	H	1.320179	-0.003160	0.543909
H71	H	1.310871	-0.081635	0.467955
H72	H	1.240347	-0.080478	0.554471
H73	H	1.258371	0.039375	0.402844
H74	H	1.187844	0.040553	0.489369
C75	C	1.276018	0.056522	0.297876
C76	C	1.221033	0.003255	0.230205
H77	H	1.318521	0.097712	0.262554
H78	H	1.309232	0.019215	0.338462
H79	H	1.237590	0.088773	0.338497
H80	H	1.259461	-0.029002	0.189589
H81	H	1.187817	0.040566	0.189602
C82	C	1.271157	0.390914	0.085041
C83	C	1.264994	0.443904	0.000021
H84	H	1.328780	0.366406	0.085045
H85	H	1.221932	0.343515	0.085033
H86	H	1.266952	0.426890	0.142706
H87	H	1.269192	0.407926	-0.057644
H88	H	1.314232	0.491309	0.000020
C89	C	1.206238	0.091268	0.744652
C90	C	1.221094	0.003245	0.769802
H91	H	1.248765	0.132447	0.779961
H92	H	1.144695	0.101119	0.761736
H93	H	1.215196	0.099939	0.675200
H94	H	1.212130	-0.005427	0.839253
H95	H	1.282652	-0.006609	0.752724
H96	H	0.938303	0.297496	-0.000006
C97	C	1.241664	0.729277	-0.000019
C98	C	1.261187	0.639758	-0.000002
H99	H	1.298055	0.768077	-0.000031
H100	H	1.206854	0.740249	0.057649
H101	H	1.206854	0.740218	-0.057697
H102	H	1.295990	0.628815	0.057681
H103	H	1.296011	0.628782	-0.057675
C104	C	0.903047	-0.304785	0.702176
C105	C	0.958056	-0.251532	0.769839
H106	H	0.860522	-0.345950	0.737505
H107	H	0.941450	-0.337059	0.661566
H108	H	0.869849	-0.267461	0.661580
H109	H	0.991259	-0.288855	0.810430
H110	H	0.919647	-0.219256	0.810466
H111	H	1.246407	0.166444	0.000038
H112	H	1.203220	-0.014051	0.566119
H113	H	0.975893	-0.234250	0.566135
H114	H	0.975865	-0.234238	0.245052
