data_functionalizedCrystal
_audit_creation_method	'MofGen! by Chris Wilmer'
_symmetry_space_group_name_H-M	'P1'
_symmetry_Int_Tables_number	1
_symmetry_cell_setting	triclinic
loop_
_symmetry_equiv_pos_as_xyz
  x,y,z
_cell_length_a	12.837943
_cell_length_b	23.532407
_cell_length_c	11.892095
_cell_angle_alpha	93.859970
_cell_angle_beta	85.689438
_cell_angle_gamma	88.838809
loop_
_atom_site_label
_atom_site_type_symbol
_atom_site_fract_x
_atom_site_fract_y
_atom_site_fract_z
O1	O	1.380592	0.144688	-0.094007
O2	O	1.078862	0.137379	-0.094012
O3	O	1.238824	0.058625	-0.093989
O4	O	1.220630	0.223442	-0.094030
O5	O	1.225487	0.065180	0.094017
O6	O	1.065525	0.143934	0.093993
O7	O	1.367255	0.151243	0.093999
Zn8	Zn	1.214272	0.148629	0.123846
Zn9	Zn	1.231845	0.139993	-0.123859
O10	O	1.207293	0.229998	0.093975
C11	C	1.033599	0.138187	-0.000010
C12	C	0.918597	0.130823	-0.000011
C13	C	0.676728	0.219356	-0.000017
C14	C	0.568673	0.212439	-0.000017
C15	C	0.594431	0.110073	-0.000004
C16	C	0.702485	0.116990	-0.000003
C17	C	0.743630	0.171633	-0.000012
C18	C	0.851687	0.178549	-0.000020
C19	C	0.877442	0.076184	0.000002
C20	C	0.769387	0.069267	0.000002
C21	C	1.231692	0.040660	0.000017
C22	C	1.230298	-0.022637	0.000026
C23	C	1.316227	-0.416812	-0.000035
C24	C	1.314934	-0.476287	-0.000043
O25	O	1.394590	-0.508463	-0.000084
N26	N	1.219835	-0.504370	-0.000044
C27	C	1.126025	-0.472975	-0.000048
O28	O	1.045018	-0.502322	-0.000051
C29	C	1.127321	-0.413501	-0.000047
C30	C	1.222424	-0.385421	-0.000035
C31	C	1.411324	-0.388732	-0.000024
C32	C	1.412617	-0.329261	-0.000013
C33	C	1.318813	-0.297871	-0.000013
C34	C	1.223717	-0.325951	-0.000024
C35	C	1.033512	-0.382108	-0.000059
C36	C	1.034816	-0.322631	-0.000060
C37	C	1.129920	-0.294551	-0.000047
C38	C	1.131207	-0.235089	-0.000014
N39	N	1.226306	-0.207006	-0.000013
C40	C	1.320109	-0.238397	-0.000013
C41	C	1.123312	-0.597873	-0.000051
C42	C	1.122015	-0.657345	-0.000043
C43	C	1.310925	-0.660653	-0.000041
C44	C	1.312220	-0.601180	-0.000040
C45	C	1.218411	-0.569790	-0.000050
C46	C	1.322817	-0.113504	0.000011
C47	C	1.324101	-0.054028	0.000026
C48	C	1.135193	-0.050725	0.000018
C49	C	1.133908	-0.110196	0.000008
C50	C	1.227729	-0.141584	0.000001
O51	O	1.051594	-0.202877	0.000022
O52	O	1.401104	-0.209042	-0.000025
C53	C	1.412519	0.150435	-0.000006
C54	C	1.527521	0.157799	-0.000012
C55	C	1.214425	0.247962	-0.000033
C56	C	1.215820	0.311259	-0.000049
N57	N	1.202287	0.154524	0.292898
N58	N	1.243838	0.134094	-0.292912
C59	C	1.327236	0.093046	0.529565
C60	C	1.318866	0.097171	0.647905
C61	C	1.177173	0.166894	0.647922
C62	C	1.185543	0.162770	0.529582
C63	C	1.260578	0.125845	0.470407
C64	C	1.268952	0.121724	0.352064
C65	C	1.127255	0.191444	0.352084
C66	C	1.118885	0.195569	0.470424
H67	H	0.560905	0.065588	0.000097
H68	H	1.401549	-0.031168	0.000039
H69	H	1.058821	-0.025156	0.000021
O70	O	0.716527	0.272474	0.000017
C71	C	0.634307	0.313113	-0.000026
H72	H	0.558531	0.294421	0.035573
H73	H	0.625255	0.324968	-0.090227
C74	C	0.752154	0.389697	0.029962
C75	C	0.659087	0.366741	0.073695
H76	H	0.767440	0.422779	0.075432
H77	H	0.807548	0.362319	0.029987
H78	H	0.744598	0.399572	-0.045205
H79	H	0.666648	0.356861	0.148854
H80	H	0.603694	0.394119	0.073684
O81	O	0.943588	-0.292224	-0.000019
C82	C	0.859382	-0.329768	-0.000061
H83	H	0.883627	-0.371410	0.035530
H84	H	0.836609	-0.338722	-0.090261
C85	C	0.735632	-0.251288	0.029946
C86	C	0.765408	-0.302431	0.073669
H87	H	0.677662	-0.234425	0.075421
H88	H	0.792362	-0.225994	0.029970
H89	H	0.716662	-0.258757	-0.045220
H90	H	0.784390	-0.294961	0.148828
H91	H	0.708678	-0.327724	0.073659
H92	H	0.514204	0.251300	-0.000019
O93	O	0.729453	0.016184	0.000205
C94	C	0.756811	-0.009880	0.097558
H95	H	0.774151	0.024336	0.165616
H96	H	0.829125	-0.038544	0.075542
C97	C	0.644288	-0.087878	0.058117
C98	C	0.665577	-0.045853	0.141711
H99	H	0.588014	-0.110070	0.085350
H100	H	0.625859	-0.070320	-0.007474
H101	H	0.704557	-0.111759	0.039778
H102	H	0.605313	-0.021969	0.160038
H103	H	0.683994	-0.063408	0.207306
O104	O	1.413874	-0.144045	0.000160
C105	C	1.411887	-0.175149	0.097540
H106	H	1.327384	-0.181500	0.129993
H107	H	1.454147	-0.150669	0.165729
C108	C	1.570565	-0.225811	0.028102
C109	C	1.466777	-0.233617	0.067956
H110	H	1.604428	-0.261876	0.009857
H111	H	1.571907	-0.204855	-0.037503
H112	H	1.605768	-0.205409	0.084934
H113	H	1.431572	-0.254012	0.011120
H114	H	1.465430	-0.254578	0.133552
H115	H	0.931927	0.037324	-0.000001
H116	H	1.490060	-0.306404	-0.000007
H117	H	1.330052	0.091659	0.303885
O118	O	1.400250	0.057272	0.472038
C119	C	1.468666	0.088868	0.403561
H120	H	1.467391	0.135095	0.439216
H121	H	1.442577	0.086949	0.313871
C122	C	1.581935	0.006752	0.357961
C123	C	1.580374	0.063528	0.401759
H124	H	1.650841	-0.008880	0.356844
H125	H	1.535840	-0.014536	0.404091
H126	H	1.560188	0.005161	0.283223
H127	H	1.602108	0.065118	0.476499
H128	H	1.626476	0.084816	0.355640
H129	H	1.373145	0.070462	0.696068
O130	O	1.104375	0.202749	0.705590
C131	C	1.111264	0.199340	0.822725
H132	H	1.192708	0.183123	0.838868
H133	H	1.050545	0.168761	0.856321
C134	C	0.990766	0.278749	0.863660
C135	C	1.090799	0.258835	0.883488
H136	H	0.978138	0.315447	0.901144
H137	H	0.986121	0.281045	0.784745
H138	H	0.940178	0.253262	0.891657
H139	H	1.141385	0.284318	0.855479
H140	H	1.095452	0.256545	0.962401
O141	O	1.502543	-0.419131	0.000031
C142	C	1.586743	-0.381583	0.000010
H143	H	1.557431	-0.337466	0.035596
H144	H	1.622327	-0.378905	-0.090182
C145	C	1.706249	-0.457964	0.030047
C146	C	1.670248	-0.403780	0.073763
H147	H	1.757761	-0.471657	0.075536
H148	H	1.649523	-0.483262	0.030056
H149	H	1.735895	-0.455725	-0.045113
H150	H	1.640592	-0.406021	0.148915
H151	H	1.726972	-0.378483	0.073767
O152	O	1.045951	0.231360	0.528038
C153	C	0.977490	0.199775	0.596489
H154	H	1.017952	0.158103	0.614213
H155	H	0.904186	0.190145	0.550900
C156	C	0.897375	0.285757	0.687134
C157	C	0.947074	0.234577	0.708910
H158	H	0.878608	0.307225	0.756479
H159	H	0.943495	0.307037	0.641015
H160	H	0.836294	0.277725	0.649141
H161	H	1.008160	0.242610	0.746890
H162	H	0.900963	0.213299	0.755039
H163	H	1.389662	-0.578321	-0.000031
H164	H	1.072980	0.218153	0.303904
H165	H	1.387304	-0.686223	-0.000045
O166	O	1.032236	-0.567316	0.000106
C167	C	1.020406	-0.529438	0.097492
H168	H	1.100304	-0.520830	0.129953
H169	H	0.968468	-0.549173	0.165673
C170	C	0.871586	-0.483603	0.028049
C171	C	0.969718	-0.473026	0.067913
H172	H	0.840315	-0.448806	0.009806
H173	H	0.879552	-0.509123	-0.037560
H174	H	0.828317	-0.500050	0.084874
H175	H	1.012990	-0.456586	0.011084
H176	H	0.961758	-0.447502	0.133512
O177	O	1.041439	-0.137388	-0.000050
C178	C	0.958922	-0.096924	-0.000015
H179	H	0.990064	-0.056249	-0.035586
H180	H	0.923612	-0.086960	0.090180
C181	C	0.836168	-0.171085	-0.030076
C182	C	0.874415	-0.121130	-0.073774
H183	H	0.784037	-0.186017	-0.075569
H184	H	0.891759	-0.198347	-0.030095
H185	H	0.806750	-0.162775	0.045086
H186	H	0.903843	-0.129442	-0.148929
H187	H	0.818826	-0.093870	-0.073769
H188	H	0.885184	0.223042	-0.000025
H189	H	1.044571	-0.680202	-0.000034
H190	H	0.956069	-0.404960	-0.000076
