data_functionalizedCrystal
_audit_creation_method	'MofGen! by Chris Wilmer'
_symmetry_space_group_name_H-M	'P1'
_symmetry_Int_Tables_number	1
_symmetry_cell_setting	triclinic
loop_
_symmetry_equiv_pos_as_xyz
  x,y,z
_cell_length_a	14.044220
_cell_length_b	23.532407
_cell_length_c	12.503572
_cell_angle_alpha	93.496478
_cell_angle_beta	86.164750
_cell_angle_gamma	88.018778
loop_
_atom_site_label
_atom_site_type_symbol
_atom_site_fract_x
_atom_site_fract_y
_atom_site_fract_z
O1	O	1.261903	0.134222	-0.089227
O2	O	0.985982	0.129269	-0.089253
O3	O	1.132262	0.049265	-0.089219
O4	O	1.115623	0.214225	-0.089260
O5	O	1.121261	0.055293	0.089420
O6	O	0.974981	0.135296	0.089386
O7	O	1.250902	0.140249	0.089413
Cu8	Cu	1.111937	0.138323	0.105711
Cu9	Cu	1.124947	0.131195	-0.105551
O10	O	1.104622	0.220253	0.089379
C11	C	0.945188	0.130115	0.000063
C12	C	0.840023	0.123648	0.000054
C13	C	0.647472	0.111828	0.000078
C14	C	0.589407	0.157687	0.000072
C15	C	0.482265	0.151110	0.000085
C16	C	0.754624	0.118404	0.000065
C17	C	1.126337	0.031040	0.000103
C18	C	1.125063	-0.032246	0.000111
C19	C	1.203641	-0.427092	0.000060
C20	C	1.202458	-0.486556	0.000051
O21	O	1.275300	-0.519354	0.000019
N22	N	1.115494	-0.513896	0.000044
C23	C	1.029708	-0.481769	0.000034
O24	O	0.955630	-0.510484	0.000026
C25	C	1.030893	-0.422305	0.000034
C26	C	1.117862	-0.394968	0.000053
C27	C	1.290603	-0.399754	0.000077
C28	C	1.291786	-0.340294	0.000087
C29	C	1.206006	-0.308170	0.000080
C30	C	1.119044	-0.335508	0.000063
C31	C	0.945109	-0.390179	0.000016
C32	C	0.946301	-0.330712	0.000016
C33	C	1.033270	-0.303375	0.000035
C34	C	1.034447	-0.243924	0.000066
N35	N	1.121411	-0.216584	0.000074
C36	C	1.207191	-0.248707	0.000081
C37	C	1.027228	-0.606646	0.000031
C38	C	1.026042	-0.666108	0.000038
C39	C	1.198792	-0.670891	0.000053
C40	C	1.199976	-0.611428	0.000054
C41	C	1.114192	-0.579306	0.000038
C42	C	1.209668	-0.123835	0.000103
C43	C	1.210842	-0.064369	0.000118
C44	C	1.038093	-0.059591	0.000097
C45	C	1.036917	-0.119052	0.000088
C46	C	1.122713	-0.151173	0.000087
O47	O	0.961644	-0.211090	0.000095
O48	O	1.281258	-0.219985	0.000075
C49	C	1.291696	0.139403	0.000094
C50	C	1.396861	0.145869	0.000096
C51	C	1.110547	0.238478	0.000054
C52	C	1.111822	0.301763	0.000039
N53	N	1.102793	0.143337	0.254301
N54	N	1.134098	0.126177	-0.254141
C55	C	1.089342	0.150717	0.473413
C56	C	1.147546	0.118799	0.526753
C57	C	1.140062	0.122905	0.648675
C58	C	1.096825	0.146611	0.351480
H59	H	0.616718	0.067631	0.000095
H60	H	1.281666	-0.042114	0.000136
C61	C	0.630598	0.216574	-0.000037
C62	C	0.730224	0.211475	-0.000087
C63	C	0.768207	0.265705	-0.000217
H64	H	0.605903	0.238831	0.062227
H65	H	0.613489	0.234559	-0.062372
H66	H	0.747324	0.193498	0.062242
H67	H	0.754945	0.189228	-0.062346
H68	H	0.751099	0.283691	-0.062552
H69	H	0.743505	0.287958	0.062048
H70	H	0.835807	0.262253	-0.000261
C71	C	1.302914	-0.158602	0.000163
C72	C	1.379313	-0.121923	0.000210
C73	C	1.465223	-0.153928	0.000287
H74	H	1.310025	-0.183999	-0.062117
H75	H	1.302260	-0.179790	0.062482
H76	H	1.379968	-0.100744	-0.062103
H77	H	1.372234	-0.096525	0.062485
H78	H	1.464569	-0.175116	0.062605
H79	H	1.472324	-0.179324	-0.061995
H80	H	1.517069	-0.129045	0.000328
C81	C	1.221237	0.078089	0.465555
C82	C	1.174736	0.038589	0.401134
C83	C	1.242538	0.001030	0.344788
H84	H	1.256693	0.058551	0.515042
H85	H	1.263311	0.098945	0.421526
H86	H	1.132679	0.017735	0.445159
H87	H	1.139285	0.058110	0.351628
H88	H	1.284612	0.021887	0.300759
H89	H	1.277991	-0.018503	0.394282
H90	H	1.210998	-0.025771	0.301064
H91	H	1.362605	-0.318041	0.000098
H92	H	1.033896	0.181126	0.519308
C93	C	1.383843	-0.434523	0.000145
C94	C	1.460240	-0.397842	0.000186
C95	C	1.546151	-0.429845	0.000273
H96	H	1.390957	-0.459924	-0.062131
H97	H	1.383188	-0.455707	0.062469
H98	H	1.460896	-0.376667	-0.062131
H99	H	1.453157	-0.372441	0.062457
H100	H	1.545496	-0.451029	0.062597
H101	H	1.553256	-0.455244	-0.062003
H102	H	1.597996	-0.404961	0.000311
H103	H	1.270794	-0.589174	0.000068
C104	C	1.291914	-0.705811	-0.000174
C105	C	1.301938	-0.743169	-0.092101
C106	C	1.387710	-0.775341	-0.092355
H107	H	1.291304	-0.727065	0.062044
H108	H	1.343912	-0.681037	-0.000227
H109	H	1.249953	-0.767940	-0.092038
H110	H	1.302564	-0.721930	-0.154333
H111	H	1.439708	-0.750567	-0.092408
H112	H	1.387092	-0.796592	-0.030134
H113	H	1.394527	-0.800689	-0.154731
C114	C	0.931710	-0.695887	0.000081
C115	C	0.949018	-0.754839	0.000101
C116	C	0.862140	-0.782288	0.000148
H117	H	0.900181	-0.687317	-0.062200
H118	H	0.892569	-0.683093	0.062399
H119	H	0.988143	-0.767629	-0.062211
H120	H	0.980533	-0.763426	0.062377
H121	H	0.822999	-0.769494	0.062466
H122	H	0.830618	-0.773713	-0.062135
H123	H	0.873870	-0.822288	0.000171
C124	C	0.933976	-0.571870	0.000085
C125	C	0.857570	-0.608546	0.000107
C126	C	0.771654	-0.576534	0.000170
H127	H	0.934538	-0.550664	-0.062192
H128	H	0.926955	-0.546488	0.062407
H129	H	0.864590	-0.633918	-0.062209
H130	H	0.856977	-0.629752	0.062380
H131	H	0.764632	-0.551152	0.062493
H132	H	0.772225	-0.555329	-0.062107
H133	H	0.719802	-0.601413	0.000196
C134	C	0.850666	-0.419824	-0.000234
C135	C	0.804535	-0.407011	-0.092165
C136	C	0.717533	-0.434314	-0.092442
H137	H	0.811421	-0.407019	0.061980
H138	H	0.862191	-0.459847	-0.000294
H139	H	0.793007	-0.366997	-0.092095
H140	H	0.843753	-0.419817	-0.154394
H141	H	0.729058	-0.474337	-0.092503
H142	H	0.678296	-0.421507	-0.030224
H143	H	0.686226	-0.425628	-0.154821
C144	C	0.853202	-0.295815	-0.000219
C145	C	0.854485	-0.264640	-0.092135
C146	C	0.768736	-0.232494	-0.092392
H147	H	0.846143	-0.270377	0.062006
H148	H	0.801219	-0.320599	-0.000288
H149	H	0.906453	-0.239859	-0.092055
H150	H	0.861528	-0.290065	-0.154375
H151	H	0.716753	-0.257278	-0.092462
H152	H	0.761685	-0.207059	-0.030163
H153	H	0.769591	-0.211342	-0.154760
H154	H	0.966098	-0.141310	0.000102
H155	H	0.968253	-0.033425	0.000095
