data_functionalizedCrystal
_audit_creation_method	'MofGen! by Chris Wilmer'
_symmetry_space_group_name_H-M	'P1'
_symmetry_Int_Tables_number	1
_symmetry_cell_setting	triclinic
loop_
_symmetry_equiv_pos_as_xyz
  x,y,z
_cell_length_a	27.354012
_cell_length_b	27.353283
_cell_length_c	27.349551
_cell_angle_alpha	60.005606
_cell_angle_beta	60.011434
_cell_angle_gamma	59.993282
loop_
_atom_site_label
_atom_site_type_symbol
_atom_site_fract_x
_atom_site_fract_y
_atom_site_fract_z
O1	O	0.067635	-0.714267	0.597330
O2	O	0.025429	-0.556105	0.481282
O3	O	0.125575	-0.656186	0.481214
O4	O	-0.032512	-0.614186	0.597397
O5	O	0.158797	-0.622968	0.514367
O6	O	0.058650	-0.522887	0.514434
O7	O	0.100856	-0.681048	0.630482
Zn8	Zn	0.085028	-0.596693	0.577722
Zn9	Zn	0.041257	-0.640460	0.534042
O10	O	0.000709	-0.580967	0.630549
N11	N	0.114901	-0.566828	0.607534
N12	N	0.011389	-0.670331	0.504229
C13	C	0.179404	-0.338196	0.672015
C14	C	0.179501	-0.502386	0.836160
C15	C	0.179415	-0.502363	0.671996
C16	C	0.343611	-0.502373	0.671960
C17	C	0.197478	-0.392371	0.690061
C18	C	0.197534	-0.484321	0.781984
C19	C	0.289434	-0.484312	0.690032
C20	C	0.197486	-0.484308	0.690051
C21	C	0.156398	-0.269238	0.649045
C22	C	0.156418	-0.525342	0.649015
C23	C	0.220484	-0.461329	0.713032
C24	C	0.443889	-0.485097	0.619172
C25	C	0.506571	-0.505993	0.598266
C26	C	0.506589	-0.607412	0.636940
C27	C	0.443909	-0.586515	0.657848
C28	C	0.171510	-0.237888	0.587422
C29	C	0.150593	-0.175201	0.566543
C30	C	0.099458	-0.175218	0.668913
C31	C	0.120375	-0.237905	0.689792
C32	C	0.094789	-0.510201	0.664176
C33	C	0.073888	-0.531091	0.643278
C34	C	0.176239	-0.582263	0.592072
C35	C	0.197142	-0.561373	0.612963
C36	C	0.094933	-0.510244	0.936476
C37	C	0.074073	-0.531151	0.999161
C38	C	0.176453	-0.582335	0.999126
C39	C	0.197312	-0.561429	0.936439
C40	C	0.156551	-0.525382	0.905116
C41	C	0.412561	-0.525357	0.648961
C42	C	-0.098513	-0.688235	0.485867
C43	C	-0.006461	-0.688368	0.394066
C44	C	-0.006645	-0.780264	0.486040
C45	C	-0.006630	-0.688361	0.486097
C46	C	-0.029562	-0.711308	0.463018
N47	N	0.537030	-0.566846	0.607436
O48	O	0.741877	-0.576849	0.459995
O49	O	0.742050	-0.693241	0.618010
O50	O	0.741986	-0.692977	0.517791
O51	O	0.741941	-0.577114	0.560214
O52	O	0.642405	-0.659839	0.551046
O53	O	0.642469	-0.660104	0.651265
O54	O	0.642296	-0.543712	0.493251
Zn55	Zn	0.626572	-0.596646	0.577538
Zn56	Zn	0.757774	-0.640307	0.533723
O57	O	0.642360	-0.543976	0.593469
N58	N	0.847316	-0.670107	0.503818
N59	N	0.114877	-0.144758	0.607577
O60	O	-0.032498	0.060193	0.597441
O61	O	0.125523	0.060193	0.481067
O62	O	0.025289	0.060179	0.481345
O63	O	0.067736	0.060207	0.597163
O64	O	0.058511	-0.039410	0.514543
O65	O	0.158745	-0.039397	0.514265
O66	O	0.000724	-0.039396	0.630638
Zn67	Zn	0.085009	-0.055208	0.577722
Zn68	Zn	0.041238	0.076005	0.533983
O69	O	0.100958	-0.039382	0.630360
N70	N	0.011362	0.165555	0.504130
N71	N	0.115121	-0.566884	1.029592
O72	O	0.104990	-0.714248	1.234528
O73	O	-0.011371	-0.556177	1.234539
O74	O	-0.011103	-0.656395	1.234497
O75	O	0.104722	-0.614030	1.234569
O76	O	0.022090	-0.623190	1.134913
O77	O	0.021822	-0.522972	1.134954
O78	O	0.138182	-0.681044	1.134943
Zn79	Zn	0.085272	-0.596736	1.119137
Zn80	Zn	0.041539	-0.640484	1.250344
O81	O	0.137914	-0.580826	1.134984
N82	N	0.011689	-0.670343	1.339890
C83	C	0.038085	-0.519567	0.481870
C84	C	0.162104	-0.643505	0.481786
C85	C	0.088200	-0.717587	0.629893
C86	C	-0.035819	-0.593649	0.629977
C87	C	0.692280	-0.692701	0.654545
C88	C	0.692203	-0.692374	0.530435
C89	C	0.692063	-0.544251	0.456717
C90	C	0.692144	-0.544580	0.580825
C91	C	0.162000	0.010521	0.481600
C92	C	0.037914	0.010381	0.481984
C93	C	-0.035795	0.010399	0.630065
C94	C	0.088333	0.010415	0.629722
C95	C	-0.010799	-0.519660	1.184747
C96	C	-0.010461	-0.643761	1.184677
C97	C	0.137610	-0.717561	1.184734
C98	C	0.137280	-0.593452	1.184783
H99	H	0.023897	-0.518815	1.024687
O100	O	0.099232	0.010309	0.673152
C101	C	0.160045	-0.041271	0.736081
C102	C	0.147759	-0.041229	0.686902
H103	H	0.199287	-0.082928	0.747203
H104	H	0.118552	-0.041312	0.777933
H105	H	0.171415	0.000426	0.719482
H106	H	0.136404	-0.082918	0.703444
H107	H	0.189262	-0.041157	0.645060
H108	H	0.692134	-0.508185	0.589902
O109	O	-0.054326	-0.465477	1.184776
C110	C	-0.082149	-0.366823	1.184766
C111	C	-0.032806	-0.428162	1.184748
H112	H	-0.064764	-0.336632	1.184730
H113	H	-0.122988	-0.373070	1.226443
H114	H	-0.095213	-0.345342	1.143091
H115	H	-0.019691	-0.449676	1.226395
H116	H	0.008001	-0.421876	1.143043
O117	O	-0.089980	0.010438	0.673576
C118	C	-0.188615	0.010416	0.701425
C119	C	-0.127281	0.010380	0.652094
H120	H	-0.218786	0.010357	0.684079
H121	H	-0.210149	0.052113	0.714463
H122	H	-0.182298	-0.031243	0.742273
H123	H	-0.133545	0.052011	0.611214
H124	H	-0.105767	-0.031344	0.639106
H125	H	0.174144	-0.762957	1.184724
H126	H	0.097215	-0.763020	0.666340
O127	O	-0.090013	-0.583036	0.673488
C128	C	-0.177943	-0.612086	0.738962
C129	C	-0.116587	-0.624162	0.689678
H130	H	-0.199440	-0.645337	0.752075
H131	H	-0.208128	-0.564541	0.721550
H132	H	-0.171662	-0.617463	0.779779
H133	H	-0.122812	-0.618817	0.648844
H134	H	-0.086423	-0.671702	0.707138
O135	O	0.692077	-0.500634	0.402578
C136	C	0.743583	-0.435137	0.314679
C137	C	0.743635	-0.484521	0.375985
H138	H	0.785270	-0.422103	0.293156
H139	H	0.701915	-0.394285	0.320971
H140	H	0.743544	-0.452495	0.284505
H141	H	0.743695	-0.467219	0.406192
H142	H	0.785300	-0.525363	0.369648
H143	H	-0.046832	-0.652809	1.184615
H144	H	0.173667	-0.584388	1.184797
H145	H	0.692323	-0.729239	0.699929
O146	O	0.692115	-0.735744	0.519616
C147	C	0.640541	-0.764332	0.493243
C148	C	0.640560	-0.715170	0.505494
H149	H	0.598870	-0.747711	0.481809
H150	H	0.640554	-0.806167	0.534761
H151	H	0.682217	-0.775500	0.454044
H152	H	0.598891	-0.703950	0.544673
H153	H	0.640578	-0.673365	0.463945
O154	O	0.055254	-0.475253	0.906144
C155	C	-0.048496	-0.426660	0.912800
C156	C	-0.003627	-0.466299	0.947226
H157	H	-0.096111	-0.419398	0.946000
H158	H	-0.041336	-0.449612	0.883466
H159	H	-0.041254	-0.381584	0.883442
H160	H	-0.010842	-0.511382	0.976616
H161	H	-0.010798	-0.443300	0.976522
H162	H	0.029071	-0.474132	0.445424
H163	H	0.207290	0.010797	0.444973
H164	H	0.207509	-0.652460	0.445301
H165	H	0.028825	0.010378	0.445599
H166	H	0.209648	-0.611676	1.024626
H167	H	0.023705	-0.518748	0.655609
H168	H	0.061625	-0.480862	0.693528
O169	O	0.257185	-0.576240	0.906044
C170	C	0.351071	-0.655709	0.886806
C171	C	0.283277	-0.639021	0.921273
H172	H	0.372184	-0.706467	0.899096
H173	H	0.372242	-0.638456	0.899140
H174	H	0.358967	-0.634549	0.836626
H175	H	0.275327	-0.660176	0.971461
H176	H	0.262140	-0.656263	0.908889
O177	O	0.215830	-0.617177	0.556967
C178	C	0.296921	-0.625183	0.464708
C179	C	0.252109	-0.585579	0.504400
H180	H	0.326272	-0.599656	0.422205
H181	H	0.271432	-0.637503	0.452322
H182	H	0.326261	-0.667732	0.490239
H183	H	0.222757	-0.543005	0.478906
H184	H	0.277634	-0.573307	0.516789
O185	O	0.256989	-0.576003	0.598274
C186	C	0.334554	-0.566531	0.607800
C187	C	0.266763	-0.549904	0.624468
H188	H	0.342478	-0.545449	0.628981
H189	H	0.355684	-0.549203	0.557047
H190	H	0.355687	-0.617294	0.625068
H191	H	0.245578	-0.499148	0.607239
H192	H	0.245677	-0.567276	0.675224
O193	O	0.413510	-0.625639	0.686686
C194	C	0.394375	-0.699356	0.681103
C195	C	0.428824	-0.655056	0.648372
H196	H	0.406753	-0.723161	0.650145
H197	H	0.344180	-0.673951	0.694506
H198	H	0.406719	-0.733784	0.722912
H199	H	0.416530	-0.620617	0.606542
H200	H	0.479010	-0.680501	0.635014
O201	O	0.536916	-0.466801	0.569314
C202	C	0.530290	-0.364007	0.533182
C203	C	0.495849	-0.408324	0.565971
H204	H	0.497102	-0.316721	0.530479
H205	H	0.559598	-0.365881	0.486033
H206	H	0.559672	-0.376625	0.558799
H207	H	0.466434	-0.395737	0.540404
H208	H	0.466578	-0.406443	0.613122
H209	H	0.532110	-0.657210	0.644171
H210	H	0.418366	-0.435297	0.611936
H211	H	0.200842	-0.263395	0.554238
H212	H	0.162897	-0.149674	0.516363
H213	H	0.108067	-0.263426	0.739970
O214	O	0.064454	-0.144871	0.708574
C215	C	0.015986	-0.151505	0.812317
C216	C	0.055621	-0.185944	0.767466
H217	H	0.008843	-0.184697	0.859941
H218	H	-0.029140	-0.122175	0.805159
H219	H	0.038951	-0.122138	0.805050
H220	H	0.032709	-0.215343	0.774706
H221	H	0.100746	-0.215235	0.774635
