data_functionalizedCrystal
_audit_creation_method	'MofGen! by Chris Wilmer'
_symmetry_space_group_name_H-M	'P1'
_symmetry_Int_Tables_number	1
_symmetry_cell_setting	triclinic
loop_
_symmetry_equiv_pos_as_xyz
  x,y,z
_cell_length_a	19.121241
_cell_length_b	19.120786
_cell_length_c	19.120904
_cell_angle_alpha	89.866497
_cell_angle_beta	89.875472
_cell_angle_gamma	94.790376
loop_
_atom_site_label
_atom_site_type_symbol
_atom_site_fract_x
_atom_site_fract_y
_atom_site_fract_z
Zn1	Zn	1.044531	-0.253560	-0.430924
Zn2	Zn	1.294531	-0.003560	-0.180924
Zn3	Zn	1.544531	0.246440	0.069076
Zn4	Zn	1.794531	0.496440	0.319076
Zn5	Zn	1.044875	-0.365791	-0.308698
Zn6	Zn	1.294875	-0.115791	-0.058698
Zn7	Zn	1.544875	0.134209	0.191302
Zn8	Zn	1.794875	0.384209	0.441302
Zn9	Zn	0.932315	-0.253144	-0.308712
Zn10	Zn	1.182315	-0.003144	-0.058712
Zn11	Zn	1.432315	0.246856	0.191288
Zn12	Zn	1.682315	0.496856	0.441288
Zn13	Zn	0.922279	-0.375740	-0.420443
Zn14	Zn	1.172279	-0.125740	-0.170443
Zn15	Zn	1.422279	0.124260	0.079557
Zn16	Zn	1.672279	0.374260	0.329557
O17	O	0.986000	-0.312059	-0.367194
O18	O	1.236000	-0.062059	-0.117194
O19	O	1.486000	0.187941	0.132806
O20	O	1.736000	0.437941	0.382806
O21	O	1.142847	-0.264459	-0.419091
O22	O	1.392847	-0.014459	-0.169091
O23	O	1.642847	0.235541	0.080909
O24	O	1.892847	0.485541	0.330909
O25	O	1.034288	-0.346510	-0.210788
O26	O	1.284288	-0.096510	0.039212
O27	O	1.534288	0.153490	0.289212
O28	O	1.784288	0.403490	0.539212
O29	O	0.951257	-0.154923	-0.329315
O30	O	1.201257	0.095077	-0.079315
O31	O	1.451257	0.345077	0.170685
O32	O	1.701257	0.595077	0.420685
O33	O	1.143100	-0.346914	-0.329292
O34	O	1.393100	-0.096914	-0.079292
O35	O	1.643100	0.153086	0.170708
O36	O	1.893100	0.403086	0.420708
O37	O	1.033702	-0.155230	-0.419104
O38	O	1.283702	0.094770	-0.169104
O39	O	1.533702	0.344770	0.080896
O40	O	1.783702	0.594770	0.330896
O41	O	0.951590	-0.263748	-0.210798
O42	O	1.201590	-0.013748	0.039202
O43	O	1.451590	0.236252	0.289202
O44	O	1.701590	0.486252	0.539202
O45	O	0.832713	-0.273396	-0.319152
O46	O	1.082713	-0.023396	-0.069152
O47	O	1.332713	0.226604	0.180848
O48	O	1.582713	0.476604	0.430848
O49	O	0.934152	-0.363870	-0.519745
O50	O	1.184152	-0.113870	-0.269745
O51	O	1.434152	0.136130	-0.019745
O52	O	1.684152	0.386130	0.230255
O53	O	0.825340	-0.363466	-0.401241
O54	O	1.075340	-0.113466	-0.151241
O55	O	1.325340	0.136534	0.098759
O56	O	1.575340	0.386534	0.348759
O57	O	1.023970	-0.274106	-0.527445
O58	O	1.273970	-0.024106	-0.277445
O59	O	1.523970	0.225894	-0.027445
O60	O	1.773970	0.475894	0.222555
O61	O	1.024557	-0.465386	-0.319129
O62	O	1.274557	-0.215386	-0.069129
O63	O	1.524557	0.034614	0.180871
O64	O	1.774557	0.284614	0.430871
O65	O	0.934485	-0.472695	-0.401228
O66	O	1.184485	-0.222695	-0.151228
O67	O	1.434485	0.027305	0.098772
O68	O	1.684485	0.277305	0.348772
C69	C	0.803546	-0.319466	-0.359061
C70	C	1.053546	-0.069466	-0.109061
C71	C	1.303546	0.180534	0.140939
C72	C	1.553546	0.430534	0.390939
C73	C	0.725490	-0.322652	-0.355598
C74	C	0.975490	-0.072652	-0.105598
C75	C	1.225490	0.177348	0.144402
C76	C	1.475490	0.427348	0.394402
C77	C	0.688682	-0.281294	-0.400789
C78	C	0.938682	-0.031294	-0.150789
C79	C	1.188682	0.218706	0.099211
C80	C	1.438682	0.468706	0.349211
C81	C	0.615341	-0.284284	-0.397529
C82	C	0.865341	-0.034284	-0.147529
C83	C	1.115341	0.215716	0.102471
C84	C	1.365341	0.465716	0.352471
C85	C	0.578808	-0.328637	-0.349080
C86	C	0.828808	-0.078637	-0.099080
C87	C	1.078808	0.171363	0.150920
C88	C	1.328808	0.421363	0.400920
C89	C	0.615621	-0.369997	-0.303884
C90	C	0.865621	-0.119997	-0.053884
C91	C	1.115621	0.130003	0.196116
C92	C	1.365621	0.380003	0.446116
C93	C	0.688962	-0.367003	-0.307141
C94	C	0.938962	-0.117003	-0.057141
C95	C	1.188962	0.132997	0.192859
C96	C	1.438962	0.382997	0.442859
C97	C	0.357374	-0.339820	-0.336900
C98	C	0.607374	-0.089820	-0.086900
C99	C	0.857374	0.160180	0.163100
C100	C	1.107374	0.410180	0.413100
C101	C	0.284029	-0.342813	-0.333647
C102	C	0.534029	-0.092813	-0.083647
C103	C	0.784029	0.157187	0.166353
C104	C	1.034029	0.407187	0.416353
C105	C	0.283753	-0.257098	-0.427291
C106	C	0.533753	-0.007098	-0.177291
C107	C	0.783753	0.242902	0.072709
C108	C	1.033753	0.492902	0.322709
C109	C	0.357095	-0.254111	-0.430547
C110	C	0.607095	-0.004111	-0.180547
C111	C	0.857095	0.245889	0.069453
C112	C	1.107095	0.495889	0.319453
C113	C	0.393902	-0.295468	-0.385349
C114	C	0.643902	-0.045468	-0.135349
C115	C	0.893902	0.204532	0.114651
C116	C	1.143902	0.454532	0.364651
C117	C	0.503841	-0.331697	-0.345748
C118	C	0.753841	-0.081697	-0.095748
C119	C	1.003841	0.168303	0.154252
C120	C	1.253841	0.418303	0.404252
C121	C	0.468868	-0.292404	-0.388678
C122	C	0.718868	-0.042404	-0.138678
C123	C	0.968868	0.207596	0.111322
C124	C	1.218868	0.457596	0.361322
C125	C	0.978488	-0.494522	-0.359056
C126	C	1.228488	-0.244522	-0.109056
C127	C	1.478488	0.005478	0.140944
C128	C	1.728488	0.255478	0.390944
C129	C	0.975337	-0.572579	-0.355600
C130	C	1.225337	-0.322579	-0.105600
C131	C	1.475337	-0.072579	0.144400
C132	C	1.725337	0.177421	0.394400
C133	C	1.016747	-0.609353	-0.400760
C134	C	1.266747	-0.359353	-0.150760
C135	C	1.516747	-0.109353	0.099240
C136	C	1.766747	0.140647	0.349240
C137	C	1.013783	-0.682696	-0.397514
C138	C	1.263783	-0.432696	-0.147514
C139	C	1.513783	-0.182696	0.102486
C140	C	1.763783	0.067304	0.352486
C141	C	0.969414	-0.719264	-0.349105
C142	C	1.219414	-0.469264	-0.099105
C143	C	1.469414	-0.219264	0.150895
C144	C	1.719414	0.030736	0.400895
C145	C	0.928000	-0.682486	-0.303944
C146	C	1.178000	-0.432486	-0.053944
C147	C	1.428000	-0.182486	0.196056
C148	C	1.678000	0.067514	0.446056
C149	C	0.930960	-0.609144	-0.307193
C150	C	1.180960	-0.359144	-0.057193
C151	C	1.430960	-0.109144	0.192807
C152	C	1.680960	0.140856	0.442807
C153	C	0.958328	-0.940703	-0.336957
C154	C	1.208328	-0.690703	-0.086957
C155	C	1.458328	-0.440703	0.163043
C156	C	1.708328	-0.190703	0.413043
C157	C	0.955372	-1.014050	-0.333709
C158	C	1.205372	-0.764050	-0.083709
C159	C	1.455372	-0.514050	0.166291
C160	C	1.705372	-0.264050	0.416291
C161	C	1.041155	-1.014255	-0.427281
C162	C	1.291155	-0.764255	-0.177281
C163	C	1.541155	-0.514255	0.072719
C164	C	1.791155	-0.264255	0.322719
C165	C	1.044114	-0.940912	-0.430523
C166	C	1.294114	-0.690912	-0.180523
C167	C	1.544114	-0.440912	0.069477
C168	C	1.794114	-0.190912	0.319477
C169	C	1.002698	-0.904140	-0.385364
C170	C	1.252698	-0.654140	-0.135364
C171	C	1.502698	-0.404140	0.114636
C172	C	1.752698	-0.154140	0.364636
C173	C	0.966386	-0.794233	-0.345785
C174	C	1.216386	-0.544233	-0.095785
C175	C	1.466386	-0.294233	0.154215
C176	C	1.716386	-0.044233	0.404215
C177	C	1.005723	-0.829174	-0.388688
C178	C	1.255723	-0.579174	-0.138688
C179	C	1.505723	-0.329174	0.111312
C180	C	1.755723	-0.079174	0.361312
C181	C	1.169166	-0.304623	-0.375359
C182	C	1.419166	-0.054623	-0.125359
C183	C	1.669166	0.195377	0.124641
C184	C	1.919166	0.445377	0.374641
C185	C	1.247221	-0.301454	-0.378839
C186	C	1.497221	-0.051454	-0.128839
C187	C	1.747221	0.198546	0.121161
C188	C	1.997221	0.448546	0.371161
C189	C	0.977903	-0.320145	-0.549692
C190	C	1.227903	-0.070145	-0.299692
C191	C	1.477903	0.179855	-0.049692
C192	C	1.727903	0.429855	0.200308
C193	C	0.974452	-0.323590	-0.627462
C194	C	1.224452	-0.073590	-0.377462
C195	C	1.474452	0.176410	-0.127462
C196	C	1.724452	0.426410	0.122538
C197	C	0.993560	-0.128882	-0.375380
C198	C	1.243560	0.121118	-0.125380
C199	C	1.493560	0.371118	0.124620
C200	C	1.743560	0.621118	0.374620
C201	C	0.996782	-0.050823	-0.378869
C202	C	1.246782	0.199177	-0.128869
C203	C	1.496782	0.449177	0.121131
C204	C	1.746782	0.699177	0.371131
C205	C	1.019593	-0.278476	-0.668008
C206	C	1.269593	-0.028476	-0.418008
C207	C	1.519593	0.221524	-0.168008
C208	C	1.769593	0.471524	0.081992
C209	C	1.016342	-0.281711	-0.741081
C210	C	1.266342	-0.031711	-0.491081
C211	C	1.516342	0.218289	-0.241081
C212	C	1.766342	0.468289	0.008919
C213	C	0.967954	-0.330065	-0.773605
C214	C	1.217954	-0.080065	-0.523605
C215	C	1.467954	0.169935	-0.273605
C216	C	1.717954	0.419935	-0.023605
C217	C	0.922809	-0.375181	-0.733054
C218	C	1.172809	-0.125181	-0.483054
C219	C	1.422809	0.124819	-0.233054
C220	C	1.672809	0.374819	0.016946
C221	C	0.926057	-0.371942	-0.659982
C222	C	1.176057	-0.121942	-0.409982
C223	C	1.426057	0.128058	-0.159982
C224	C	1.676057	0.378058	0.090018
C225	C	0.955806	-0.342180	-0.994033
C226	C	1.205806	-0.092180	-0.744033
C227	C	1.455806	0.157820	-0.494033
C228	C	1.705806	0.407820	-0.244033
C229	C	0.952563	-0.345417	-1.067109
C230	C	1.202563	-0.095417	-0.817109
C231	C	1.452563	0.154583	-0.567109
C232	C	1.702563	0.404583	-0.317109
C233	C	1.046095	-0.251946	-1.075131
C234	C	1.296095	-0.001946	-0.825131
C235	C	1.546095	0.248054	-0.575131
C236	C	1.796095	0.498054	-0.325131
C237	C	1.049341	-0.248714	-1.002058
C238	C	1.299341	0.001286	-0.752058
C239	C	1.549341	0.251286	-0.502058
C240	C	1.799341	0.501286	-0.252058
C241	C	1.004194	-0.293828	-0.961513
C242	C	1.254194	-0.043828	-0.711513
C243	C	1.504194	0.206172	-0.461513
C244	C	1.754194	0.456172	-0.211513
C245	C	0.964632	-0.333374	-0.848297
C246	C	1.214632	-0.083374	-0.598297
C247	C	1.464632	0.166626	-0.348297
C248	C	1.714632	0.416626	-0.098297
C249	C	1.007513	-0.290514	-0.886822
C250	C	1.257513	-0.040514	-0.636822
C251	C	1.507513	0.209486	-0.386822
C252	C	1.757513	0.459486	-0.136822
C253	C	0.994108	-0.303952	-0.185410
C254	C	1.244108	-0.053952	0.064590
C255	C	1.494108	0.196048	0.314590
C256	C	1.744108	0.446048	0.564590
C257	C	0.997703	-0.300303	-0.107656
C258	C	1.247703	-0.050303	0.142344
C259	C	1.497703	0.199697	0.392344
C260	C	1.747703	0.449697	0.642344
H261	H	0.718930	-0.400681	-0.270341
H262	H	0.968930	-0.150681	-0.020341
H263	H	1.218930	0.099319	0.229659
H264	H	1.468930	0.349319	0.479659
F265	F	0.913137	-0.384837	-0.882919
F266	F	1.163137	-0.134837	-0.632919
F267	F	1.413137	0.115163	-0.382919
F268	F	1.663137	0.365163	-0.132919
H269	H	1.047509	-0.712633	-0.434283
H270	H	1.297509	-0.462633	-0.184283
H271	H	1.547509	-0.212633	0.065717
H272	H	1.797509	0.037367	0.315717
F273	F	1.064410	-0.233717	-0.784230
F274	F	1.314410	0.016283	-0.534230
F275	F	1.564410	0.266283	-0.284230
F276	F	1.814410	0.516283	-0.034230
F277	F	0.245148	-0.390035	-0.282092
F278	F	0.495148	-0.140035	-0.032092
F279	F	0.745148	0.109965	0.217908
F280	F	0.995148	0.359965	0.467908
F281	F	1.100843	-0.197249	-0.967449
F282	F	1.350843	0.052751	-0.717449
F283	F	1.600843	0.302751	-0.467449
F284	F	1.850843	0.552751	-0.217449
F285	F	0.244576	-0.213085	-0.475391
F286	F	0.494576	0.036915	-0.225391
F287	F	0.744576	0.286915	0.024609
F288	F	0.994576	0.536915	0.274609
H289	H	1.074874	-1.044203	-0.464048
H290	H	1.324874	-0.794203	-0.214048
H291	H	1.574874	-0.544203	0.035952
H292	H	1.824874	-0.294203	0.285952
H293	H	0.718422	-0.245179	-0.440243
H294	H	0.968422	0.004821	-0.190243
H295	H	1.218422	0.254821	0.059757
H296	H	1.468422	0.504821	0.309757
F297	F	0.871308	-0.426641	-0.767671
F298	F	1.121308	-0.176641	-0.517671
F299	F	1.371308	0.073359	-0.267671
F300	F	1.621308	0.323359	-0.017671
F301	F	0.576170	-0.240266	-0.445629
F302	F	0.826170	0.009734	-0.195629
F303	F	1.076170	0.259734	0.054371
F304	F	1.326170	0.509734	0.304371
F305	F	1.094139	-0.203934	-1.118288
F306	F	1.344139	0.046066	-0.868288
F307	F	1.594139	0.296066	-0.618288
F308	F	1.844139	0.546066	-0.368288
F309	F	0.901057	-0.396882	-1.101723
F310	F	1.151057	-0.146882	-0.851723
F311	F	1.401057	0.103118	-0.601723
F312	F	1.651057	0.353118	-0.351723
H313	H	0.919238	-1.043822	-0.294288
H314	H	1.169238	-0.793822	-0.044288
H315	H	1.419238	-0.543822	0.205712
H316	H	1.669238	-0.293822	0.455712
H317	H	0.386835	-0.217996	-0.470002
H318	H	0.636835	0.032004	-0.220002
H319	H	0.886835	0.282004	0.029998
H320	H	1.136835	0.532004	0.279998
H321	H	0.919053	-0.378925	-0.961029
H322	H	1.169053	-0.128925	-0.711029
H323	H	1.419053	0.121075	-0.461029
H324	H	1.669053	0.371075	-0.211029
F325	F	0.919162	-0.833158	-0.294269
F326	F	1.169162	-0.583158	-0.044269
F327	F	1.419162	-0.333158	0.205731
F328	F	1.669162	-0.083158	0.455731
H329	H	0.897239	-0.579204	-0.270420
H330	H	1.147239	-0.329204	-0.020420
H331	H	1.397239	-0.079204	0.229580
H332	H	1.647239	0.170796	0.479580
H333	H	0.889292	-0.408673	-0.626970
H334	H	1.139292	-0.158673	-0.376970
H335	H	1.389292	0.091327	-0.126970
H336	H	1.639292	0.341327	0.123030
F337	F	1.059003	-0.239048	-0.852206
F338	F	1.309003	0.010952	-0.602206
F339	F	1.559003	0.260952	-0.352206
F340	F	1.809003	0.510952	-0.102206
H341	H	1.058997	-0.239103	-0.641532
H342	H	1.308997	0.010897	-0.391532
H343	H	1.558997	0.260897	-0.141532
H344	H	1.808997	0.510897	0.108468
H345	H	0.924606	-0.910769	-0.300185
H346	H	1.174606	-0.660769	-0.050185
H347	H	1.424606	-0.410769	0.199815
H348	H	1.674606	-0.160769	0.449815
F349	F	0.576739	-0.417198	-0.252318
F350	F	0.826739	-0.167198	-0.002318
F351	F	1.076739	0.082802	0.247682
F352	F	1.326739	0.332802	0.497682
F353	F	0.396539	-0.383824	-0.288784
F354	F	0.646539	-0.133824	-0.038784
F355	F	0.896539	0.116176	0.211216
F356	F	1.146539	0.366176	0.461216
H357	H	0.474088	-0.367809	-0.306301
H358	H	0.724088	-0.117809	-0.056301
H359	H	0.974088	0.132191	0.193699
H360	H	1.224088	0.382191	0.443699
F361	F	0.507750	-0.245200	-0.440237
F362	F	0.757750	0.004800	-0.190237
F363	F	1.007750	0.254800	0.059763
F364	F	1.257750	0.504800	0.309763
H365	H	1.052880	-0.579584	-0.440177
H366	H	1.302880	-0.329584	-0.190177
H367	H	1.552880	-0.079584	0.059823
H368	H	1.802880	0.170416	0.309823
H369	H	1.080243	-0.911140	-0.469942
H370	H	1.330243	-0.661140	-0.219942
H371	H	1.580243	-0.411140	0.030058
H372	H	1.830243	-0.161140	0.280058
H373	H	0.891870	-0.712266	-0.264531
H374	H	1.141870	-0.462266	-0.014531
H375	H	1.391870	-0.212266	0.235469
H376	H	1.641870	0.037734	0.485469
H377	H	1.041846	-0.799398	-0.428106
H378	H	1.291846	-0.549398	-0.178106
H379	H	1.541846	-0.299398	0.071894
H380	H	1.791846	-0.049398	0.321894
