data_functionalizedCrystal
_audit_creation_method	'MofGen! by Chris Wilmer'
_symmetry_space_group_name_H-M	'P1'
_symmetry_Int_Tables_number	1
_symmetry_cell_setting	triclinic
loop_
_symmetry_equiv_pos_as_xyz
  x,y,z
_cell_length_a	12.759395
_cell_length_b	25.639240
_cell_length_c	12.759387
_cell_angle_alpha	90.043601
_cell_angle_beta	90.021028
_cell_angle_gamma	90.033519
loop_
_atom_site_label
_atom_site_type_symbol
_atom_site_fract_x
_atom_site_fract_y
_atom_site_fract_z
Zn1	Zn	1.606137	-0.208113	0.593926
Zn2	Zn	1.605972	-0.295558	0.418207
Zn3	Zn	1.430435	-0.208140	0.418261
Zn4	Zn	1.430372	-0.295520	0.593845
O5	O	1.518229	-0.251833	0.506060
O6	O	1.753136	-0.219717	0.570628
O7	O	1.582644	-0.283990	0.271193
O8	O	1.453838	-0.134971	0.441620
O9	O	1.753015	-0.283963	0.441528
O10	O	1.582925	-0.134951	0.570681
O11	O	1.453678	-0.219764	0.271233
O12	O	1.283406	-0.219726	0.441542
O13	O	1.453730	-0.283898	0.740877
O14	O	1.283359	-0.283924	0.570542
O15	O	1.582864	-0.219680	0.740937
O16	O	1.582583	-0.368719	0.441449
O17	O	1.453570	-0.368690	0.570489
C18	C	1.245262	-0.251825	0.506039
C19	C	1.128485	-0.251834	0.506056
C20	C	0.909176	-0.185054	0.640739
C21	C	0.964105	-0.151653	0.708051
C22	C	1.073827	-0.151644	0.708033
C23	C	1.128622	-0.185041	0.640698
C24	C	1.073692	-0.218442	0.573386
C25	C	0.963968	-0.218446	0.573409
C26	C	1.073556	-0.285235	0.438744
C27	C	0.963834	-0.285242	0.438755
C28	C	1.128350	-0.318631	0.371408
C29	C	1.073421	-0.352031	0.304090
C30	C	0.963693	-0.352038	0.304110
C31	C	0.908905	-0.318643	0.371443
C32	C	1.518081	-0.387675	0.505978
C33	C	1.518113	-0.445789	0.505978
C34	C	1.585478	-0.806103	0.573383
C35	C	1.585509	-0.860708	0.573404
O36	O	1.642609	-0.888903	0.630630
N37	N	1.518375	-0.888072	0.506161
C38	C	1.451197	-0.860829	0.438901
O39	O	1.394097	-0.889118	0.381708
C40	C	1.451162	-0.806225	0.438885
C41	C	1.518308	-0.778864	0.506125
C42	C	1.652618	-0.778742	0.640618
C43	C	1.652588	-0.724142	0.640595
C44	C	1.585418	-0.696902	0.573337
C45	C	1.518278	-0.724264	0.506102
C46	C	1.383980	-0.778983	0.371631
C47	C	1.383950	-0.724376	0.371622
C48	C	1.451096	-0.697015	0.438861
C49	C	1.451079	-0.642424	0.438821
N50	N	1.518213	-0.615060	0.506064
C51	C	1.585383	-0.642299	0.573322
C52	C	1.451276	-0.975499	0.438939
C53	C	1.451316	-1.030102	0.438948
C54	C	1.585626	-1.029977	0.573453
C55	C	1.585591	-0.975374	0.573438
C56	C	1.518410	-0.948135	0.506182
C57	C	1.585316	-0.527634	0.573267
C58	C	1.585283	-0.473029	0.573235
C59	C	1.450969	-0.473158	0.438735
C60	C	1.451005	-0.527759	0.438762
C61	C	1.518182	-0.554995	0.506037
O62	O	1.394005	-0.614194	0.381627
O63	O	1.642464	-0.614003	0.630514
C64	C	1.792262	-0.251841	0.506081
C65	C	1.909039	-0.251845	0.506090
C66	C	1.518308	-0.251781	0.780094
C67	C	1.518342	-0.251760	0.896870
C68	C	1.518407	-0.115460	0.506166
C69	C	1.518482	-0.057346	0.506211
C70	C	1.518210	-0.251846	0.233092
C71	C	1.518380	-0.251721	0.116316
C72	C	1.652818	-0.184894	0.896952
C73	C	1.720071	-0.151453	0.951854
C74	C	1.720096	-0.151434	1.061576
C75	C	1.652860	-0.184858	1.116398
C76	C	1.585607	-0.218299	1.061496
C77	C	1.585591	-0.218316	0.951772
C78	C	1.451128	-0.285161	1.061414
C79	C	1.451106	-0.285184	0.951693
C80	C	1.383891	-0.318585	1.116237
C81	C	1.316642	-0.352029	1.061335
C82	C	1.316620	-0.352048	0.951607
C83	C	1.383853	-0.318624	0.896791
H84	H	1.118044	-0.379222	0.249276
N85	N	1.788776	-0.117276	1.117681
N86	N	1.751866	-0.083951	1.178935
H87	H	1.800369	-0.059826	1.218562
N88	N	1.652883	-0.184825	1.228476
N89	N	1.712925	-0.154960	1.277482
H90	H	1.712940	-0.154936	1.356638
H91	H	1.261843	-0.379273	0.906912
N92	N	1.382341	-0.445336	0.370041
N93	N	1.322388	-0.469767	0.310014
H94	H	1.273912	-0.450118	0.261503
N95	N	1.315341	-0.696554	0.302901
N96	N	1.352320	-0.666103	0.235967
H97	H	1.303868	-0.646454	0.187430
H98	H	1.640010	-0.549804	0.628056
H99	H	0.918976	-0.379239	0.249301
H100	H	1.640318	-1.052165	0.628220
N101	N	1.721183	-0.696205	0.709287
N102	N	1.781143	-0.720542	0.769330
H103	H	1.829590	-0.700815	0.817851
N104	N	1.653868	-0.445076	0.641921
N105	N	1.616867	-0.414585	0.708824
H106	H	1.665305	-0.394842	0.757326
N107	N	1.383834	-0.318631	0.784714
N108	N	1.361931	-0.277849	0.735782
H109	H	1.361918	-0.277850	0.656626
N110	N	1.240699	-0.185045	0.640675
N111	N	1.289640	-0.225843	0.662459
H112	H	1.368796	-0.225849	0.662440
N113	N	1.129926	-0.117518	0.776785
N114	N	1.117711	-0.069270	0.770007
H115	H	1.157331	-0.045168	0.818561
N116	N	1.383918	-0.318556	1.228314
N117	N	1.443968	-0.288697	1.277324
H118	H	1.443988	-0.288677	1.356480
H119	H	0.919479	-0.124463	0.762876
N120	N	1.240428	-0.318625	0.371363
N121	N	1.289335	-0.348441	0.311235
H122	H	1.368492	-0.348436	0.311196
H123	H	1.396650	-1.052374	0.384184
N124	N	1.721238	-0.806553	0.709338
N125	N	1.781171	-0.782106	0.769360
H126	H	1.829643	-0.801744	0.817895
H127	H	0.819564	-0.318639	0.371453
H128	H	1.261898	-0.379238	1.105980
H129	H	0.819835	-0.185046	0.640738
H130	H	1.640267	-0.953099	0.628191
H131	H	1.396572	-0.953324	0.384162
N132	N	1.652817	-0.184912	0.784875
N133	N	1.712854	-0.155071	0.735940
H134	H	1.712855	-0.155082	0.656783
H135	H	1.329303	-0.801251	0.316876
N136	N	1.382457	-0.555703	0.370029
N137	N	1.322516	-0.531372	0.309956
H138	H	1.274109	-0.551104	0.261404
H139	H	1.774812	-0.124239	0.907206
