data_functionalizedCrystal
_audit_creation_method	'MofGen! by Chris Wilmer'
_symmetry_space_group_name_H-M	'P1'
_symmetry_Int_Tables_number	1
_symmetry_cell_setting	triclinic
loop_
_symmetry_equiv_pos_as_xyz
  x,y,z
_cell_length_a	13.032831
_cell_length_b	16.625545
_cell_length_c	13.033109
_cell_angle_alpha	97.153577
_cell_angle_beta	76.665514
_cell_angle_gamma	82.830132
loop_
_atom_site_label
_atom_site_type_symbol
_atom_site_fract_x
_atom_site_fract_y
_atom_site_fract_z
Zn1	Zn	1.700010	-0.566823	-0.806381
Zn2	Zn	1.677320	-0.682040	-0.628758
Zn3	Zn	1.499841	-0.527606	-0.606276
Zn4	Zn	1.522335	-0.681969	-0.783802
O5	O	1.599877	-0.614609	-0.706304
O6	O	1.845633	-0.598549	-0.801677
O7	O	1.634868	-0.645171	-0.477145
O8	O	1.526475	-0.419987	-0.632860
O9	O	1.828963	-0.683198	-0.671178
O10	O	1.673538	-0.448800	-0.779877
O11	O	1.504475	-0.531709	-0.460627
O12	O	1.354192	-0.531640	-0.610967
O13	O	1.564814	-0.683077	-0.935428
O14	O	1.370718	-0.645050	-0.741395
O15	O	1.695350	-0.598480	-0.952016
O16	O	1.656680	-0.794851	-0.649285
O17	O	1.542813	-0.794799	-0.763195
C18	C	1.323916	-0.584083	-0.671292
C19	C	1.205862	-0.571045	-0.656338
C20	C	1.161423	-0.621414	-0.714108
C21	C	1.039408	-0.607940	-0.698655
C22	C	1.599757	-0.824084	-0.706256
C23	C	1.599807	-0.913713	-0.706283
C24	C	1.599851	-0.986502	-0.706310
C25	C	1.599916	-1.077820	-0.706341
C26	C	1.599973	-1.150604	-0.706361
C27	C	1.600037	-1.241927	-0.706391
C28	C	1.876915	-0.645256	-0.741454
C29	C	1.994972	-0.658316	-0.756433
C30	C	1.635122	-0.645145	-0.983338
C31	C	1.650142	-0.658158	-1.101394
C32	C	1.600029	-0.404323	-0.706379
C33	C	1.600093	-0.314711	-0.706411
C34	C	1.592322	-0.607820	-1.145854
C35	C	1.607844	-0.621268	-1.267870
C36	C	1.564829	-0.584141	-0.430355
C37	C	1.550016	-0.570924	-0.312327
H38	H	1.047252	-0.711413	-0.817343
C39	C	1.690157	-0.693004	-1.338462
N40	N	1.752122	-0.747055	-1.391629
H41	H	1.153579	-0.517945	-0.595443
C42	C	1.509929	-0.536142	-1.075248
N43	N	1.447874	-0.482149	-1.022069
C44	C	1.732451	-0.729890	-1.171989
N45	N	1.794416	-0.783941	-1.225156
C46	C	1.232051	-0.693149	-0.796381
N47	N	1.285248	-0.747184	-0.858348
C48	C	0.968782	-0.536202	-0.616376
N49	N	0.915585	-0.482170	-0.554405
C50	C	1.467608	-0.499248	-1.241725
N51	N	1.405540	-0.445263	-1.188547
