data_functionalizedCrystal
_audit_creation_method	'MofGen! by Chris Wilmer'
_symmetry_space_group_name_H-M	'P1'
_symmetry_Int_Tables_number	1
_symmetry_cell_setting	triclinic
loop_
_symmetry_equiv_pos_as_xyz
  x,y,z
_cell_length_a	19.188925
_cell_length_b	18.266242
_cell_length_c	12.837942
_cell_angle_alpha	89.999157
_cell_angle_beta	91.014256
_cell_angle_gamma	90.007294
loop_
_atom_site_label
_atom_site_type_symbol
_atom_site_fract_x
_atom_site_fract_y
_atom_site_fract_z
O1	O	0.935021	0.060897	-0.129346
O2	O	1.435021	0.560897	0.370654
O3	O	0.732904	0.060895	-0.146769
O4	O	1.232904	0.560895	0.353231
O5	O	0.829481	0.060891	0.012825
O6	O	1.329481	0.560891	0.512825
O7	O	0.838444	0.060900	-0.288940
O8	O	1.338444	0.560900	0.211060
O9	O	0.829468	-0.060871	0.012820
O10	O	1.329468	0.439129	0.512820
O11	O	0.732891	-0.060867	-0.146774
O12	O	1.232891	0.439133	0.353226
O13	O	0.935008	-0.060865	-0.129351
O14	O	1.435008	0.439135	0.370649
Zn15	Zn	0.833947	-0.080199	-0.138064
Zn16	Zn	1.333947	0.419801	0.361936
Zn17	Zn	0.833965	0.080228	-0.138057
Zn18	Zn	1.333965	0.580228	0.361943
O19	O	0.838431	-0.060862	-0.288945
O20	O	1.338431	0.439138	0.211055
C21	C	0.706848	0.000013	-0.146208
C22	C	1.206848	0.500013	0.353792
C23	C	0.629227	0.000012	-0.144517
C24	C	1.129227	0.500012	0.355483
N25	N	0.833940	-0.189686	-0.138068
N26	N	1.333940	0.310314	0.361932
C27	C	0.073103	0.000017	-0.226840
C28	C	0.573103	0.500017	0.273160
C29	C	0.146036	0.000021	-0.228437
C30	C	0.646036	0.500021	0.271563
C31	C	0.184548	0.000016	-0.134793
C32	C	0.684548	0.500016	0.365207
C33	C	0.150121	0.000027	-0.039544
C34	C	0.650121	0.500027	0.460456
C35	C	0.077189	0.000030	-0.037949
C36	C	0.577189	0.500030	0.462051
N37	N	0.300570	-0.041434	-0.067000
N38	N	0.800570	0.458566	0.433000
N39	N	0.369852	-0.041439	-0.068522
N40	N	0.869852	0.458561	0.431478
C41	C	0.404286	0.000008	-0.139593
C42	C	0.904286	0.500008	0.360407
N43	N	0.366821	0.041451	-0.209101
N44	N	0.866821	0.541451	0.290899
N45	N	0.297533	0.041452	-0.207583
N46	N	0.797533	0.541452	0.292417
C47	C	0.263630	0.000013	-0.136512
C48	C	0.763630	0.500013	0.363488
C49	C	0.517787	0.000007	-0.236569
C50	C	1.017787	0.500007	0.263431
C51	C	0.590721	0.000015	-0.238163
C52	C	1.090721	0.500015	0.261837
C53	C	0.594804	0.000014	-0.049266
C54	C	1.094804	0.500014	0.450734
C55	C	0.521871	0.000013	-0.047675
C56	C	1.021871	0.500013	0.452325
C57	C	0.483367	0.000006	-0.141329
C58	C	0.983367	0.500006	0.358671
C59	C	0.880491	-0.771960	-0.200731
C60	C	1.380491	-0.271960	0.299269
C61	C	0.880484	-0.695315	-0.200742
C62	C	1.380484	-0.195315	0.299258
C63	C	0.833971	-0.656998	-0.138046
C64	C	1.333971	-0.156998	0.361954
C65	C	0.787448	-0.695333	-0.075355
C66	C	1.287448	-0.195333	0.424645
C67	C	0.787451	-0.771976	-0.075355
C68	C	1.287451	-0.271976	0.424645
N69	N	0.826053	-0.536663	-0.047269
N70	N	1.326053	-0.036663	0.452731
N71	N	0.826054	-0.463855	-0.047272
N72	N	1.326054	0.036145	0.452728
C73	C	0.833957	-0.426076	-0.138046
C74	C	1.333957	0.073924	0.361954
N75	N	0.841873	-0.463855	-0.228818
N76	N	1.341873	0.036145	0.271182
N77	N	0.841875	-0.536670	-0.228813
N78	N	1.341875	-0.036670	0.271187
C79	C	0.833962	-0.573891	-0.138040
C80	C	1.333962	-0.073891	0.361960
C81	C	0.880466	-0.304643	-0.200750
C82	C	1.380466	0.195357	0.299250
C83	C	0.880455	-0.227997	-0.200763
C84	C	1.380455	0.272003	0.299237
C85	C	0.787422	-0.228017	-0.075366
C86	C	1.287422	0.271983	0.424634
C87	C	0.787430	-0.304661	-0.075363
C88	C	1.287430	0.195339	0.424637
C89	C	0.833956	-0.342970	-0.138053
C90	C	1.333956	0.157030	0.361947
C91	C	0.961064	0.000017	-0.129912
C92	C	1.461064	0.500017	0.370088
C93	C	1.038685	0.000023	-0.131603
C94	C	1.538685	0.500023	0.368397
C95	C	0.826446	0.000010	0.051429
C96	C	1.326446	0.500010	0.551429
C97	C	0.817415	0.000011	0.166465
C98	C	1.317415	0.500011	0.666465
N99	N	0.833977	0.189715	-0.138045
N100	N	1.333977	0.689715	0.361955
C101	C	0.841466	0.000020	-0.327549
C102	C	1.341466	0.500020	0.172451
C103	C	0.850497	0.000024	-0.442585
C104	C	1.350497	0.500024	0.057415
C105	C	0.925983	0.000028	0.407919
C106	C	1.425983	0.500028	0.907919
C107	C	0.917501	0.000029	0.516006
C108	C	1.417501	0.500029	1.016006
C109	C	0.791970	0.000020	0.490728
C110	C	1.291970	0.500020	0.990728
C111	C	0.800452	0.000019	0.382641
C112	C	1.300452	0.500019	0.882641
C113	C	0.867461	0.000022	0.341241
C114	C	1.367461	0.500022	0.841241
C115	C	0.875942	0.000015	0.233151
C116	C	1.375942	0.500015	0.733151
C117	C	0.750411	0.000012	0.207876
C118	C	1.250411	0.500012	0.707876
C119	C	0.741929	0.000013	0.315963
C120	C	1.241929	0.500013	0.815963
H121	H	0.041758	0.000014	-0.303100
H122	H	0.541758	0.500014	0.196900
F123	F	0.947258	0.000014	0.189091
F124	F	1.447258	0.500014	0.689091
H125	H	0.980544	0.000023	0.374210
H126	H	1.480544	0.500023	0.874210
H127	H	0.918348	-0.335836	-0.251801
H128	H	1.418348	0.164164	0.248199
F129	F	0.635786	0.000019	0.050398
F130	F	1.135786	0.500019	0.550398
F131	F	0.979789	0.000038	0.586967
F132	F	1.479789	0.500038	1.086967
F133	F	0.720660	0.000035	0.534808
F134	F	1.220660	0.500035	1.034808
H135	H	0.174065	0.000008	-0.305993
H136	H	0.674065	0.500008	0.194007
H137	H	0.687373	0.000013	0.349687
H138	H	1.187373	0.500013	0.849687
H139	H	0.702758	0.000001	0.153574
H140	H	1.202758	0.500001	0.653574
H141	H	0.618743	0.000016	-0.315719
H142	H	1.118743	0.500016	0.184281
F143	F	0.040557	0.000039	0.063420
F144	F	0.540557	0.500039	0.563420
F145	F	0.476805	0.000001	-0.336242
F146	F	0.976805	0.500001	0.163758
F147	F	0.191108	0.000025	0.060119
F148	F	0.691108	0.500025	0.560119
H149	H	0.918331	-0.196794	-0.251816
H150	H	1.418331	0.303206	0.248184
F151	F	0.485239	0.000022	0.053690
F152	F	0.985239	0.500022	0.553690
H153	H	0.918375	-0.803146	-0.251781
H154	H	1.418375	-0.303146	0.248219
F155	F	0.930000	-0.654518	-0.267452
F156	F	1.430000	-0.154518	0.232548
H157	H	0.749546	-0.196820	-0.024324
H158	H	1.249546	0.303180	0.475676
H159	H	0.749575	-0.664131	-0.024310
H160	H	1.249575	-0.164131	0.475690
H161	H	0.749556	-0.335866	-0.024312
H162	H	1.249556	0.164134	0.475688
F163	F	0.737942	-0.812766	-0.008632
F164	F	1.237942	-0.312766	0.491368
