data_functionalizedCrystal
_audit_creation_method	'MofGen! by Chris Wilmer'
_symmetry_space_group_name_H-M	'P1'
_symmetry_Int_Tables_number	1
_symmetry_cell_setting	triclinic
loop_
_symmetry_equiv_pos_as_xyz
  x,y,z
_cell_length_a	10.540539
_cell_length_b	17.666332
_cell_length_c	10.540539
_cell_angle_alpha	90.004288
_cell_angle_beta	84.525492
_cell_angle_gamma	90.007277
loop_
_atom_site_label
_atom_site_type_symbol
_atom_site_fract_x
_atom_site_fract_y
_atom_site_fract_z
O1	O	1.685896	0.062909	0.178903
O2	O	1.316483	0.062918	0.195759
O3	O	1.509617	0.062912	0.002624
O4	O	1.492762	0.062914	0.372037
O5	O	1.509583	-0.062985	0.002613
O6	O	1.316449	-0.062979	0.195748
O7	O	1.685862	-0.062988	0.178892
Cu8	Cu	1.501152	-0.074479	0.187319
Cu9	Cu	1.501193	0.074409	0.187332
O10	O	1.492727	-0.062982	0.372026
C11	C	1.269163	-0.000029	0.194489
C12	C	1.128215	-0.000026	0.190707
N13	N	1.501133	-0.179198	0.187309
C14	C	0.944788	-0.000321	0.045790
C15	C	1.091406	-0.000029	0.049624
C16	C	1.066562	0.071865	0.258609
C17	C	0.920017	0.071917	0.253794
C18	C	0.919490	-0.071251	0.256652
C19	C	1.066472	-0.072193	0.257951
C20	C	1.586681	-0.218811	0.101832
C21	C	1.586688	-0.298058	0.101826
C22	C	1.501160	-0.337690	0.187319
C23	C	1.415595	-0.298069	0.272803
C24	C	1.415582	-0.218823	0.272798
N25	N	1.486019	-0.462108	0.299501
N26	N	1.486039	-0.537389	0.299501
C27	C	1.501193	-0.576454	0.187337
N28	N	1.516351	-0.537396	0.075169
N29	N	1.516338	-0.462109	0.075169
C30	C	1.501164	-0.423620	0.187334
C31	C	1.586754	-0.701996	0.101846
C32	C	1.586753	-0.781245	0.101838
C33	C	1.415666	-0.781254	0.272827
C34	C	1.415661	-0.702007	0.272824
C35	C	1.501212	-0.662382	0.187335
C36	C	1.733182	-0.000039	0.180161
C37	C	1.874130	-0.000038	0.183943
C38	C	1.508336	-0.000035	-0.044684
C39	C	1.504554	-0.000031	-0.185632
N40	N	1.501222	0.179128	0.187331
C41	C	1.359637	0.000255	-0.369059
C42	C	1.363471	-0.000028	-0.222441
C43	C	1.572430	-0.071926	-0.247296
C44	C	1.567615	-0.071986	-0.393841
C45	C	1.570524	0.071182	-0.394347
C46	C	1.571823	0.072133	-0.247365
C47	C	1.494008	-0.000034	0.419335
C48	C	1.497790	-0.000033	0.560283
H49	H	1.134006	-0.051564	-0.003803
H50	H	1.524877	0.125674	-0.425895
H51	H	1.346022	-0.813522	0.342432
H52	H	1.517423	-0.125726	-0.422045
H53	H	1.107419	-0.125378	0.208347
H54	H	1.674685	0.076471	-0.223143
N55	N	0.879934	-0.139614	0.199349
N56	N	0.961240	-0.186656	0.155608
H57	H	0.933305	-0.234934	0.115125
H58	H	1.310061	0.051509	-0.179833
N59	N	1.674163	-0.178385	0.014538
N60	N	1.671491	-0.187251	-0.102831
H61	H	1.733315	-0.158714	-0.164466
H62	H	1.669080	-0.075250	-0.441809
H63	H	1.133166	0.051594	-0.004171
N64	N	1.289753	0.064940	-0.404928
N65	N	1.340944	0.111583	-0.482990
H66	H	1.291590	0.157271	-0.508328
N67	N	1.674124	-0.661556	0.014455
N68	N	1.753351	-0.617324	0.055365
H69	H	1.815056	-0.588783	-0.006384
N70	N	1.674082	-0.338521	0.014496
N71	N	1.750453	-0.303133	-0.061828
H72	H	1.812176	-0.331707	-0.123505
H73	H	1.346005	-0.669752	0.342432
N74	N	1.702404	-0.075275	-0.219254
N75	N	1.746563	-0.024591	-0.153349
H76	H	1.838358	-0.026954	-0.133542
H77	H	1.304119	-0.051010	-0.399271
N78	N	1.513238	-0.139036	-0.193857
N79	N	1.421078	-0.134102	-0.110376
H80	H	1.379265	-0.181497	-0.072635
N81	N	1.328213	-0.338549	0.360115
N82	N	1.249066	-0.382782	0.319071
H83	H	1.187343	-0.411372	0.380732
N84	N	1.295963	-0.064788	-0.170073
N85	N	1.245876	-0.109920	-0.241826
H86	H	1.198197	-0.155661	-0.204843
H87	H	1.656413	-0.813498	0.032226
N88	N	1.509659	0.138875	-0.196015
N89	N	1.460739	0.184308	-0.268103
H90	H	1.416848	0.231448	-0.231826
H91	H	1.345916	-0.186570	0.342405
N92	N	0.906880	0.063983	-0.023842
N93	N	0.792411	0.072811	-0.042242
H94	H	0.765630	0.118226	-0.091414
N95	N	1.698364	0.071772	-0.453579
N96	N	1.735893	0.020027	-0.528896
H97	H	1.826179	0.020435	-0.570730
H98	H	0.916189	-0.051878	-0.009950
H99	H	0.872049	0.075181	0.355259
N100	N	0.884661	0.139327	0.190826
N101	N	0.928706	0.152085	0.078535
H102	H	0.903744	0.199694	0.034058
N103	N	1.094605	0.075215	0.388583
N104	N	1.160502	0.024534	0.432724
H105	H	1.180310	0.026898	0.524520
H106	H	1.090697	-0.076533	0.360810
H107	H	1.109165	0.125367	0.211449
H108	H	0.872263	-0.071736	0.358555
