data_functionalizedCrystal
_audit_creation_method	'MofGen! by Chris Wilmer'
_symmetry_space_group_name_H-M	'P1'
_symmetry_Int_Tables_number	1
_symmetry_cell_setting	triclinic
loop_
_symmetry_equiv_pos_as_xyz
  x,y,z
_cell_length_a	16.625547
_cell_length_b	17.640112
_cell_length_c	17.640968
_cell_angle_alpha	87.860920
_cell_angle_beta	78.773606
_cell_angle_gamma	78.772301
loop_
_atom_site_label
_atom_site_type_symbol
_atom_site_fract_x
_atom_site_fract_y
_atom_site_fract_z
Zn1	Zn	-0.023165	-1.247786	-0.195082
Zn2	Zn	-0.189504	-1.222072	-0.068114
Zn3	Zn	-0.075610	-1.095136	-0.093732
Zn4	Zn	-0.178891	-1.120809	-0.220695
O5	O	-0.116792	-1.171451	-0.144406
O6	O	-0.027723	-1.350638	-0.156799
O7	O	-0.200785	-1.183727	0.034759
O8	O	0.044183	-1.115402	-0.107179
O9	O	-0.149931	-1.331746	-0.063516
O10	O	0.082714	-1.227554	-0.181640
O11	O	-0.117108	-1.090468	0.015937
O12	O	-0.106818	-0.992278	-0.132015
O13	O	-0.131844	-1.159159	-0.323568
O14	O	-0.182697	-1.011140	-0.225293
O15	O	-0.017433	-1.252448	-0.304750
O16	O	-0.300932	-1.208622	-0.088351
O17	O	-0.293135	-1.134225	-0.200452
C18	C	-0.149297	-0.974156	-0.184214
C19	C	-0.163218	-0.889756	-0.201262
C20	C	-0.326283	-1.171443	-0.144413
C21	C	-0.415887	-1.171514	-0.144428
C22	C	0.093524	-1.171482	-0.144410
C23	C	0.183148	-1.171496	-0.144412
C24	C	0.255934	-1.171506	-0.144417
C25	C	0.347244	-1.171511	-0.144422
C26	C	0.420021	-1.171510	-0.144423
C27	C	0.511337	-1.171515	-0.144427
C28	C	-0.067604	-1.211536	-0.342484
C29	C	-0.046643	-1.228618	-0.426894
C30	C	-0.084161	-1.369516	-0.104442
C31	C	-0.070256	-1.453919	-0.087412
C32	C	-0.011023	-0.563043	-0.014899
C33	C	-0.024117	-0.483738	-0.030929
C34	C	-0.103314	-0.503400	-0.127892
C35	C	-0.090223	-0.582708	-0.111873
C36	C	-0.044077	-0.612523	-0.055375
C37	C	-0.123278	-0.632188	-0.152350
C38	C	-0.110191	-0.711489	-0.136329
C39	C	-0.064050	-0.741310	-0.079832
C40	C	-0.030991	-0.691824	-0.039355
C41	C	-0.169428	-0.602372	-0.208843
C42	C	-0.202483	-0.651852	-0.249320
C43	C	-0.189391	-0.731155	-0.233303
C44	C	-0.143250	-0.760975	-0.176806
C45	C	-0.222450	-0.780641	-0.273781
C46	C	-0.209364	-0.859942	-0.257760
C47	C	-0.130163	-0.840276	-0.160786
C48	C	-0.275545	-1.041973	-0.753486
C49	C	-0.255836	-1.058040	-0.832798
C50	C	-0.136710	-1.155174	-0.813195
C51	C	-0.156407	-1.139112	-0.733880
C52	C	-0.225826	-1.082511	-0.704032
C53	C	-0.106687	-1.179651	-0.684426
C54	C	-0.126385	-1.163593	-0.605117
C55	C	-0.195803	-1.106997	-0.575263
C56	C	-0.245524	-1.066454	-0.624724
C57	C	-0.037272	-1.236255	-0.714274
C58	C	0.012447	-1.276794	-0.664820
C59	C	-0.007247	-1.260733	-0.585511
C60	C	-0.076664	-1.204136	-0.555656
C61	C	0.042474	-1.301276	-0.536050
C62	C	0.022776	-1.285218	-0.456742
C63	C	-0.096362	-1.188079	-0.476348
C64	C	-0.165724	-1.131565	0.052911
C65	C	-0.186434	-1.114630	0.137350
H66	H	-0.092572	-0.864555	-0.114791
H67	H	-0.332057	-0.995864	-0.729186
H68	H	0.098990	-1.347365	-0.560364
O69	O	0.070961	-1.324673	-0.408649
C70	C	0.021731	-1.364408	-0.352865
H71	H	-0.035066	-1.373925	-0.375822
H72	H	0.000156	-1.328762	-0.297497
C73	C	0.143581	-1.431419	-0.307517
C74	C	0.073826	-1.443114	-0.335716
H75	H	0.175716	-1.479968	-0.296935
H76	H	0.176749	-1.404647	-0.345097
H77	H	0.125591	-1.401712	-0.261380
H78	H	0.091816	-1.472813	-0.381857
H79	H	0.040662	-1.469893	-0.298142
O80	O	-0.051486	-0.818341	-0.064259
C81	C	-0.129228	-0.840867	-0.039265
H82	H	-0.180028	-0.797793	-0.061406
H83	H	-0.144165	-0.842161	0.026589
C84	C	-0.062960	-0.974812	-0.043818
C85	C	-0.125351	-0.921912	-0.071018
H86	H	-0.060568	-1.024806	-0.063402
H87	H	-0.010582	-0.959636	-0.060655
H88	H	-0.075414	-0.975881	0.011059
H89	H	-0.112891	-0.920837	-0.125893
H90	H	-0.177727	-0.937090	-0.054192
O91	O	-0.163706	-1.133007	-0.447339
C92	C	-0.137286	-1.074686	-0.411344
H93	H	-0.068615	-1.074840	-0.436183
H94	H	-0.145578	-1.085993	-0.346497
C95	C	-0.274330	-0.995308	-0.395560
C96	C	-0.189989	-0.995493	-0.426073
H97	H	-0.306842	-0.946458	-0.404642
H98	H	-0.292132	-1.034601	-0.419808
H99	H	-0.281228	-1.004734	-0.341523
H100	H	-0.183090	-0.986078	-0.480110
H101	H	-0.172187	-0.956197	-0.401835
H102	H	-0.211842	-1.093927	-0.510684
O103	O	-0.304260	-1.018676	-0.880751
C104	C	-0.386699	-1.031352	-0.858037
H105	H	-0.397867	-1.048882	-0.794560
H106	H	-0.396336	-1.079428	-0.894791
C107	C	-0.434930	-0.935047	-0.947283
C108	C	-0.448649	-0.956571	-0.869318
H109	H	-0.473144	-0.888920	-0.954245
H110	H	-0.379389	-0.926508	-0.962589
H111	H	-0.442960	-0.975116	-0.977903
H112	H	-0.440608	-0.916507	-0.838701
H113	H	-0.504190	-0.965101	-0.854007
H114	H	-0.080191	-1.201260	-0.837508
O115	O	0.007947	-0.435729	0.008507
C116	C	-0.025170	-0.439743	0.088133
H117	H	-0.047061	-0.496997	0.101397
H118	H	-0.080317	-0.389922	0.104752
C119	C	0.069605	-0.363767	0.118454
C120	C	0.042725	-0.434090	0.134746
H121	H	0.111484	-0.360277	0.147209
H122	H	0.091915	-0.361060	0.064808
H123	H	0.023643	-0.322258	0.132304
H124	H	0.088684	-0.475598	0.120888
H125	H	0.020424	-0.436804	0.188391
H126	H	-0.240057	-0.627565	-0.295318
O127	O	-0.313058	-1.011570	-0.595729
C128	C	-0.385868	-1.032079	-0.611772
H129	H	-0.374513	-1.097154	-0.621350
H130	H	-0.402237	-1.000671	-0.666013
C131	C	-0.472574	-0.929080	-0.531326
C132	C	-0.458630	-1.009007	-0.543083
H133	H	-0.517459	-0.914845	-0.488958
H134	H	-0.423521	-0.915260	-0.520519
H135	H	-0.486211	-0.902917	-0.576531
H136	H	-0.444983	-1.035169	-0.497882
H137	H	-0.507683	-1.022831	-0.553881
O138	O	-0.148086	-0.474313	-0.182772
C139	C	-0.152570	-0.393706	-0.188220
H140	H	-0.098250	-0.377844	-0.165628
H141	H	-0.214107	-0.363003	-0.152256
C142	C	-0.214432	-0.388041	-0.301015
C143	C	-0.147712	-0.368559	-0.273274
H144	H	-0.211440	-0.372528	-0.353479
H145	H	-0.211415	-0.442347	-0.297344
H146	H	-0.265707	-0.362454	-0.271038
H147	H	-0.096439	-0.394154	-0.303244
H148	H	-0.150721	-0.314257	-0.276952
H149	H	0.026568	-0.587321	0.031096
H150	H	-0.021238	-1.249329	-0.778853
H151	H	-0.180082	-0.537799	-0.221885
H152	H	-0.260029	-0.756352	-0.319776
O153	O	0.079869	-1.331725	-0.693950
C154	C	0.086582	-1.337223	-0.774552
H155	H	0.053207	-1.280813	-0.797214
H156	H	0.056654	-1.386817	-0.787962
C157	C	0.220417	-1.421718	-0.786033
C158	C	0.179431	-1.352431	-0.813868
H159	H	0.277690	-1.431102	-0.810286
H160	H	0.215894	-1.418017	-0.731730
H161	H	0.195469	-1.463038	-0.797210
H162	H	0.204373	-1.311111	-0.802682
H163	H	0.183961	-1.356126	-0.868171
H164	H	0.006600	-0.716102	0.006640
H165	H	-0.236279	-0.900230	-0.290721
