data_functionalizedCrystal
_audit_creation_method	'MofGen! by Chris Wilmer'
_symmetry_space_group_name_H-M	'P1'
_symmetry_Int_Tables_number	1
_symmetry_cell_setting	triclinic
loop_
_symmetry_equiv_pos_as_xyz
  x,y,z
_cell_length_a	10.723024
_cell_length_b	10.723024
_cell_length_c	9.798715
_cell_angle_alpha	89.997773
_cell_angle_beta	89.996597
_cell_angle_gamma	84.467869
loop_
_atom_site_label
_atom_site_type_symbol
_atom_site_fract_x
_atom_site_fract_y
_atom_site_fract_z
O1	O	-1.657187	-0.175025	0.113478
O2	O	-1.323854	0.158308	0.446812
O3	O	-0.990521	0.491642	0.780145
O4	O	-1.294035	-0.191778	0.113483
O5	O	-0.960702	0.141555	0.446816
O6	O	-0.627368	0.474888	0.780149
O7	O	-1.483988	-0.001825	0.113475
O8	O	-1.150654	0.331508	0.446809
O9	O	-0.817321	0.664841	0.780142
O10	O	-1.467234	-0.364978	0.113486
O11	O	-1.133901	-0.031644	0.446819
O12	O	-0.800568	0.301689	0.780152
O13	O	-1.483974	-0.001824	-0.113507
O14	O	-1.150640	0.331509	0.219827
O15	O	-0.817307	0.664843	0.553160
O16	O	-1.294021	-0.191777	-0.113499
O17	O	-0.960687	0.141557	0.219834
O18	O	-0.627354	0.474890	0.553167
O19	O	-1.657173	-0.175024	-0.113504
O20	O	-1.323840	0.158310	0.219830
O21	O	-0.990506	0.491643	0.553163
Zn22	Zn	-1.475595	-0.183400	-0.149540
Zn23	Zn	-1.142261	0.149933	0.183793
Zn24	Zn	-0.808928	0.483267	0.517127
Zn25	Zn	-1.475613	-0.183402	0.149519
Zn26	Zn	-1.142280	0.149932	0.482852
Zn27	Zn	-0.808947	0.483265	0.816186
O28	O	-1.467220	-0.364976	-0.113496
O29	O	-1.133887	-0.031643	0.219837
O30	O	-0.800554	0.301690	0.553170
C31	C	-1.247528	-0.190558	-0.000008
C32	C	-0.914195	0.142775	0.333326
C33	C	-0.580862	0.476108	0.666659
C34	C	-1.108974	-0.186911	-0.000006
C35	C	-0.775641	0.146423	0.333327
C36	C	-0.442307	0.479756	0.666661
C37	C	-1.482762	0.044675	-0.000014
C38	C	-1.149428	0.378008	0.333319
C39	C	-0.816095	0.711342	0.666653
C40	C	-1.479114	0.183229	-0.000009
C41	C	-1.145780	0.516563	0.333324
C42	C	-0.812447	0.849896	0.666657
C43	C	-1.703680	-0.176243	-0.000010
C44	C	-1.370346	0.157090	0.333323
C45	C	-1.037013	0.490423	0.666656
C46	C	-1.842234	-0.179891	-0.000003
C47	C	-1.508901	0.153442	0.333330
C48	C	-1.175567	0.486776	0.666664
C49	C	-1.033991	-0.293198	-0.000002
C50	C	-0.700658	0.040135	0.333331
C51	C	-0.367325	0.373468	0.666664
C52	C	-0.890788	-0.289431	-0.000001
C53	C	-0.557455	0.043903	0.333333
C54	C	-0.224121	0.377236	0.666666
C55	C	-1.468447	-0.411477	-0.000004
C56	C	-1.135113	-0.078143	0.333329
C57	C	-0.801780	0.255190	0.666663
C58	C	-1.472094	-0.550031	0.000000
C59	C	-1.138761	-0.216698	0.333333
C60	C	-0.805428	0.116636	0.666667
N61	N	-1.475591	-0.183398	-0.353640
N62	N	-1.142258	0.149935	-0.020306
N63	N	-0.808924	0.483269	0.313027
C64	C	-1.585401	0.258212	-0.000009
C65	C	-1.252068	0.591545	0.333325
C66	C	-0.918735	0.924878	0.666658
C67	C	-1.581634	0.401415	-0.000004
C68	C	-1.248301	0.734749	0.333330
C69	C	-0.914967	1.068082	0.666663
C70	C	-1.548356	-0.255759	-0.421416
C71	C	-1.215023	0.077574	-0.088083
C72	C	-0.881689	0.410907	0.245251
C73	C	-1.548376	-0.255758	-0.578579
C74	C	-1.215043	0.077576	-0.245246
C75	C	-0.881709	0.410909	0.088088
N76	N	-1.475627	-0.183394	0.353619
N77	N	-1.142294	0.149939	0.686952
N78	N	-0.808960	0.483273	1.020285
H79	H	-1.075814	-0.386984	-0.000007
H80	H	-0.742480	-0.053651	0.333326
H81	H	-0.409147	0.279682	0.666659
H82	H	-0.826355	-0.380421	0.000008
H83	H	-0.493022	-0.047088	0.333342
H84	H	-0.159689	0.286246	0.666675
H85	H	-1.610666	-0.317716	-0.636865
H86	H	-1.277333	0.015618	-0.303532
H87	H	-0.943999	0.348951	0.029802
F88	F	-1.394187	-0.102420	-0.570211
F89	F	-1.060854	0.230914	-0.236878
F90	F	-0.727521	0.564247	0.096456
H91	H	-1.679187	0.216390	-0.000018
H92	H	-1.345854	0.549723	0.333315
H93	H	-1.012521	0.883056	0.666649
H94	H	-1.672624	0.465848	-0.000009
H95	H	-1.339291	0.799181	0.333324
H96	H	-1.005958	1.132514	0.666658
H97	H	-1.610643	-0.317706	-0.363090
H98	H	-1.277310	0.015627	-0.029757
H99	H	-0.943977	0.348961	0.303577
H100	H	-1.413312	-0.121443	-0.411966
H101	H	-1.079979	0.211891	-0.078632
H102	H	-0.746646	0.545224	0.254701
H103	H	-1.381099	0.385544	-0.000010
H104	H	-1.047765	0.718877	0.333324
H105	H	-0.714432	1.052211	0.666657
H106	H	-0.906659	-0.088896	0.000002
H107	H	-0.573326	0.244438	0.333336
H108	H	-0.239993	0.577771	0.666669
F109	F	-1.356524	0.237887	0.000005
F110	F	-1.023191	0.571220	0.333338
F111	F	-0.689858	0.904553	0.666671
F112	F	-1.054316	-0.064321	-0.000019
F113	F	-0.720983	0.269012	0.333315
F114	F	-0.387650	0.602346	0.666648
