data_functionalizedCrystal
_audit_creation_method	'MofGen! by Chris Wilmer'
_symmetry_space_group_name_H-M	'P1'
_symmetry_Int_Tables_number	1
_symmetry_cell_setting	triclinic
loop_
_symmetry_equiv_pos_as_xyz
  x,y,z
_cell_length_a	12.837932
_cell_length_b	15.944545
_cell_length_c	11.892095
_cell_angle_alpha	93.887265
_cell_angle_beta	85.688545
_cell_angle_gamma	89.162938
loop_
_atom_site_label
_atom_site_type_symbol
_atom_site_fract_x
_atom_site_fract_y
_atom_site_fract_z
O1	O	1.382093	0.213530	-0.094017
O2	O	1.080287	0.202742	-0.094018
O3	O	1.239434	0.086521	-0.094004
O4	O	1.222945	0.329751	-0.094031
O5	O	1.226164	0.096195	0.094002
O6	O	1.067017	0.212415	0.093988
O7	O	1.368823	0.223204	0.093990
Zn8	Zn	1.215813	0.219345	0.123839
Zn9	Zn	1.233296	0.206600	-0.123867
O10	O	1.209676	0.339424	0.093975
C11	C	1.035031	0.203934	-0.000015
C12	C	0.919953	0.193066	-0.000015
C13	C	0.770106	0.102226	-0.000002
C14	C	0.878233	0.112432	-0.000004
C15	C	0.853539	0.263498	-0.000020
C16	C	0.745412	0.253292	-0.000019
C17	C	0.703700	0.172653	-0.000012
C18	C	0.595572	0.162446	-0.000018
C19	C	0.570879	0.313512	-0.000026
C20	C	0.679006	0.323719	-0.000028
C21	C	1.232116	0.060009	0.000000
C22	C	1.230066	-0.033401	0.000003
C23	C	1.125298	-0.312417	-0.000020
C24	C	1.182352	-0.262560	-0.092717
C25	C	1.222762	-0.369631	-0.000029
C26	C	1.169296	-0.253047	0.092642
C27	C	1.226345	-0.204430	-0.000011
C28	C	1.279795	-0.321009	-0.092802
C29	C	1.266719	-0.311496	0.092640
C30	C	1.323846	-0.261668	-0.000080
C31	C	1.220695	-0.464799	-0.000040
C32	C	1.228421	-0.109264	-0.000008
C33	C	1.414079	0.222011	-0.000016
C34	C	1.529157	0.232879	-0.000024
C35	C	1.216994	0.365936	-0.000031
C36	C	1.219044	0.459346	-0.000042
N37	N	1.203889	0.228044	0.292892
N38	N	1.245229	0.197895	-0.292920
C39	C	1.328202	0.137318	0.529551
C40	C	1.319875	0.143405	0.647892
C41	C	1.178903	0.246300	0.647918
C42	C	1.187230	0.240213	0.529577
C43	C	1.261883	0.185721	0.470397
C44	C	1.270215	0.179639	0.352054
C45	C	1.129239	0.282529	0.352082
C46	C	1.120912	0.288616	0.470423
H47	H	0.712983	0.389373	-0.000029
O48	O	0.554880	0.084175	-0.000058
C49	C	0.445203	0.090265	-0.000032
H50	H	0.422334	0.151951	-0.035637
H51	H	0.415848	0.035337	-0.054606
H52	H	0.408738	0.088432	0.090165
H53	H	1.302312	-0.333123	0.171013
O54	O	0.942769	0.044055	0.000199
C55	C	0.999203	0.050456	0.097552
H56	H	0.954811	0.093744	0.165607
H57	H	1.009043	-0.014551	0.130240
H58	H	1.079387	0.077351	0.075533
H59	H	1.122587	-0.223395	0.171008
H60	H	1.373877	0.103990	0.696052
H61	H	1.331004	0.135272	0.303871
O62	O	1.064663	0.329511	0.294740
C63	C	0.960012	0.309076	0.323652
H64	H	0.954082	0.281127	0.409577
H65	H	0.908685	0.368318	0.327706
H66	H	0.932643	0.261263	0.257055
H67	H	1.041368	-0.334789	-0.000111
O68	O	1.400746	0.084324	0.472233
C69	C	1.457520	0.042926	0.549821
H70	H	1.409087	0.042892	0.634191
H71	H	1.475745	-0.024639	0.515628
H72	H	1.533637	0.077050	0.562385
H73	H	1.146722	-0.240951	-0.171086
O74	O	1.424027	-0.235114	0.000064
C75	C	1.435057	-0.181873	0.097869
H76	H	1.371552	-0.195772	0.165946
H77	H	1.515101	-0.193290	0.130134
H78	H	1.427439	-0.113505	0.076616
H79	H	0.516799	0.370859	-0.000034
O80	O	1.335543	-0.356119	-0.186439
C81	C	1.376444	-0.292053	-0.251936
H82	H	1.381824	-0.231646	-0.195818
H83	H	1.457639	-0.311853	-0.290988
H84	H	1.322946	-0.280856	-0.321965
O85	O	1.048348	0.341434	0.528041
C86	C	0.979560	0.294823	0.596491
H87	H	1.019591	0.233325	0.614210
H88	H	0.957310	0.332842	0.679712
H89	H	0.906156	0.280611	0.550902
O90	O	0.729749	0.023841	0.000045
C91	C	0.811552	-0.036136	0.000013
H92	H	0.882498	-0.004891	0.035609
H93	H	0.785092	-0.089108	0.054592
H94	H	0.833213	-0.062907	-0.090185
O95	O	0.894242	0.341764	-0.000047
C96	C	1.003913	0.335667	0.000004
H97	H	1.031806	0.270323	-0.035607
H98	H	1.040988	0.384990	-0.054552
H99	H	1.027630	0.346760	0.090210
O100	O	1.106476	0.299212	0.705590
C101	C	1.113330	0.294181	0.822724
H102	H	1.194606	0.270249	0.838864
H103	H	1.098635	0.359175	0.867708
H104	H	1.052294	0.249054	0.856318
