data_functionalizedCrystal
_audit_creation_method	'MofGen! by Chris Wilmer'
_symmetry_space_group_name_H-M	'P1'
_symmetry_Int_Tables_number	1
_symmetry_cell_setting	triclinic
loop_
_symmetry_equiv_pos_as_xyz
  x,y,z
_cell_length_a	14.908783
_cell_length_b	14.908178
_cell_length_c	14.908694
_cell_angle_alpha	90.159098
_cell_angle_beta	83.203601
_cell_angle_gamma	96.402596
loop_
_atom_site_label
_atom_site_type_symbol
_atom_site_fract_x
_atom_site_fract_y
_atom_site_fract_z
Zn1	Zn	1.394306	-0.311861	-0.572659
Zn2	Zn	1.894306	0.188139	-0.072659
Zn3	Zn	1.376743	-0.454522	-0.412548
Zn4	Zn	1.876743	0.045478	0.087452
Zn5	Zn	1.234201	-0.311885	-0.412562
Zn6	Zn	1.734201	0.188115	0.087438
Zn7	Zn	1.233167	-0.470907	-0.554115
Zn8	Zn	1.733167	0.029093	-0.054115
O9	O	1.309604	-0.387294	-0.487971
O10	O	1.809604	0.112706	0.012029
O11	O	1.519068	-0.323918	-0.559174
O12	O	2.019068	0.176082	-0.059174
O13	O	1.350917	-0.428754	-0.286302
O14	O	1.850917	0.071246	0.213698
O15	O	1.263222	-0.185627	-0.441566
O16	O	1.763222	0.314373	0.058434
O17	O	1.506164	-0.428730	-0.441541
O18	O	2.006164	0.071270	0.058459
O19	O	1.380850	-0.185609	-0.559188
O20	O	1.880850	0.314391	-0.059188
O21	O	1.246192	-0.323960	-0.286313
O22	O	1.746192	0.176040	0.213687
O23	O	1.106972	-0.339847	-0.423585
O24	O	1.606972	0.160153	0.076415
O25	O	1.261460	-0.456656	-0.682822
O26	O	1.761460	0.043344	-0.182822
O27	O	1.106212	-0.456680	-0.527583
O28	O	1.606212	0.043320	-0.027583
O29	O	1.379848	-0.339806	-0.696446
O30	O	1.879848	0.160194	-0.196446
O31	O	1.349915	-0.582951	-0.423560
O32	O	1.849915	-0.082951	0.076440
O33	O	1.244430	-0.594989	-0.527569
O34	O	1.744430	-0.094989	-0.027569
C35	C	1.073639	-0.400045	-0.473574
C36	C	1.573639	0.099955	0.026426
C37	C	0.972691	-0.405523	-0.467435
C38	C	1.472691	0.094477	0.032565
C39	C	0.796435	-0.306843	-0.578556
C40	C	1.296435	0.193157	-0.078556
C41	C	0.701587	-0.311987	-0.572791
C42	C	1.201587	0.188013	-0.072791
C43	C	0.688144	-0.420949	-0.450136
C44	C	1.188144	0.079051	0.049864
C45	C	0.782993	-0.415805	-0.455901
C46	C	1.282993	0.084195	0.044099
C47	C	0.837135	-0.358751	-0.520114
C48	C	1.337135	0.141249	-0.020114
C49	C	0.931985	-0.353612	-0.525883
C50	C	1.431985	0.146388	-0.025883
C51	C	0.918541	-0.462570	-0.403224
C52	C	1.418541	0.037430	0.096776
C53	C	0.823693	-0.467714	-0.397459
C54	C	1.323693	0.032286	0.102541
C55	C	1.295180	-0.621706	-0.473572
C56	C	1.795180	-0.121706	0.026428
C57	C	1.289094	-0.721986	-0.467447
C58	C	1.789094	-0.221986	0.032553
C59	C	1.400063	-0.910265	-0.578536
C60	C	1.900063	-0.410265	-0.078536
C61	C	1.394348	-1.004486	-0.572785
C62	C	1.894348	-0.504486	-0.072785
C63	C	1.271945	-1.004653	-0.450197
C64	C	1.771945	-0.504653	0.049803
C65	C	1.277660	-0.910431	-0.455949
C66	C	1.777660	-0.410431	0.044051
C67	C	1.341722	-0.863240	-0.520120
C68	C	1.841722	-0.363240	-0.020120
C69	C	1.347441	-0.769016	-0.525866
C70	C	1.847441	-0.269016	-0.025866
C71	C	1.225034	-0.769185	-0.403284
C72	C	1.725034	-0.269185	0.096716
C73	C	1.219319	-0.863407	-0.397532
C74	C	1.719319	-0.363407	0.102468
C75	C	1.546491	-0.374494	-0.502425
C76	C	2.046491	0.125506	-0.002425
C77	C	1.647438	-0.369039	-0.508584
C78	C	2.147438	0.130961	-0.008584
C79	C	1.322498	-0.400056	-0.723284
C80	C	1.822498	0.099944	-0.223284
C81	C	1.327992	-0.405494	-0.823560
C82	C	1.827992	0.094506	-0.323560
C83	C	1.324110	-0.151966	-0.502447
C84	C	1.824110	0.348034	-0.002447
C85	C	1.330292	-0.051683	-0.508616
C86	C	1.830292	0.448317	-0.008616
C87	C	1.229245	-0.306595	-1.012001
C88	C	1.729245	0.193405	-0.512001
C89	C	1.234405	-0.311702	-1.106220
C90	C	1.734405	0.188298	-0.606220
C91	C	1.343465	-0.420820	-1.106217
C92	C	1.843465	0.079180	-0.606217
C93	C	1.338306	-0.415713	-1.011998
C94	C	1.838306	0.084287	-0.511998
C95	C	1.281195	-0.358597	-0.964894
C96	C	1.781195	0.141403	-0.464894
C97	C	1.276041	-0.353486	-0.870674
C98	C	1.776041	0.146514	-0.370674
C99	C	1.385096	-0.462608	-0.870672
C100	C	1.885096	0.037392	-0.370672
C101	C	1.390256	-0.467715	-0.964891
C102	C	1.890256	0.032285	-0.464891
C103	C	1.296817	-0.374513	-0.253581
C104	C	1.796817	0.125487	0.246419
C105	C	1.291514	-0.368811	-0.153331
C106	C	1.791514	0.131189	0.346669
H107	H	0.951689	-0.504845	-0.355642
H108	H	1.451689	-0.004845	0.144358
H109	H	0.779597	-0.514163	-0.345175
H110	H	1.279597	-0.014163	0.154825
H111	H	1.441851	-1.042770	-0.620358
H112	H	1.941851	-0.542770	-0.120358
C113	C	1.467843	-0.778321	-0.646472
C114	C	1.967843	-0.278321	-0.146472
C115	C	1.417849	-0.717142	-0.596408
C116	C	1.917849	-0.217142	-0.096408
H117	H	1.511304	-0.746296	-0.690028
H118	H	2.011304	-0.246296	-0.190028
H119	H	1.498242	-0.811040	-0.607079
H120	H	1.998242	-0.311040	-0.107079
H121	H	1.427886	-0.819108	-0.676276
H122	H	1.927886	-0.319108	-0.176276
H123	H	1.457805	-0.676359	-0.566599
H124	H	1.957805	-0.176359	-0.066599
H125	H	1.387449	-0.684408	-0.635807
H126	H	1.887449	-0.184408	-0.135807
C127	C	1.450745	-0.528173	-1.096761
C128	C	1.950745	-0.028173	-0.596761
C129	C	1.406233	-0.483602	-1.158003
C130	C	1.906233	0.016398	-0.658003
H131	H	1.489490	-0.566936	-1.128733
H132	H	1.989490	-0.066936	-0.628733
H133	H	1.485898	-0.484994	-1.064557
H134	H	1.985898	0.015006	-0.564557
H135	H	1.407030	-0.562830	-1.055468
H136	H	1.907030	-0.062830	-0.555468
H137	H	1.449948	-0.448940	-1.199293
H138	H	1.949948	0.051060	-0.699293
H139	H	1.371078	-0.526787	-1.190222
H140	H	1.871078	-0.026787	-0.690222
H141	H	0.668453	-0.269715	-0.620379
H142	H	1.168453	0.230285	-0.120379
H143	H	1.452231	-0.871840	-0.630781
H144	H	1.952231	-0.371840	-0.130781
C145	C	0.536775	-0.477197	-0.386833
C146	C	1.036775	0.022803	0.113167
C147	C	0.628620	-0.483652	-0.379551
C148	C	1.128620	0.016348	0.120449
H149	H	0.500030	-0.515911	-0.343259
H150	H	1.000030	-0.015911	0.156741
H151	H	0.524251	-0.416693	-0.376509
H152	H	1.024251	0.083307	0.123491
H153	H	0.523755	-0.494624	-0.445670
H154	H	1.023755	0.005376	0.054330
H155	H	0.641642	-0.466218	-0.320717
H156	H	1.141642	0.033782	0.179283
H157	H	0.641150	-0.544169	-0.389869
H158	H	1.141150	-0.044169	0.110131
H159	H	1.229542	-0.306976	-0.832324
H160	H	1.729542	0.193024	-0.332324
H161	H	1.219785	-1.043092	-0.397957
H162	H	1.719785	-0.543092	0.102043
H163	H	1.167160	-0.901843	-0.345288
H164	H	1.667160	-0.401843	0.154712
H165	H	1.177532	-0.730887	-0.355714
H166	H	1.677532	-0.230887	0.144286
H167	H	1.182752	-0.260081	-0.973649
H168	H	1.682752	0.239919	-0.473649
C169	C	1.126092	-0.203326	-1.096755
C170	C	1.626092	0.296674	-0.596755
C171	C	1.177305	-0.254535	-1.158002
C172	C	1.677305	0.245465	-0.658002
H173	H	1.090843	-0.168029	-1.128726
H174	H	1.590843	0.331971	-0.628726
H175	H	1.086919	-0.242523	-1.055473
H176	H	1.586919	0.257477	-0.555473
H177	H	1.165784	-0.164685	-1.064542
H178	H	1.665784	0.335315	-0.564542
H179	H	1.137611	-0.293181	-1.190211
H180	H	1.637611	0.206819	-0.690211
H181	H	1.216481	-0.215333	-1.199300
H182	H	1.716481	0.284667	-0.699300
H183	H	1.436750	-0.514220	-1.003256
H184	H	1.936750	-0.014220	-0.503256
C185	C	1.425615	-0.503236	-0.726243
C186	C	1.925615	-0.003236	-0.226243
C187	C	1.442201	-0.519778	-0.818889
C188	C	1.942201	-0.019778	-0.318889
H189	H	1.460867	-0.538533	-0.694276
H190	H	1.960867	-0.038533	-0.194276
H191	H	1.441797	-0.441068	-0.715347
H192	H	1.941797	0.058932	-0.215347
H193	H	1.362932	-0.518906	-0.706271
H194	H	1.862932	-0.018906	-0.206271
H195	H	1.504883	-0.504102	-0.838862
H196	H	2.004883	-0.004102	-0.338862
H197	H	1.426025	-0.581960	-0.829791
H198	H	1.926025	-0.081960	-0.329791
H199	H	0.840519	-0.260391	-0.630845
H200	H	1.340519	0.239609	-0.130845
H201	H	0.976067	-0.307157	-0.578170
H202	H	1.476067	0.192843	-0.078170
