data_functionalizedCrystal
_audit_creation_method	'MofGen! by Chris Wilmer'
_symmetry_space_group_name_H-M	'P1'
_symmetry_Int_Tables_number	1
_symmetry_cell_setting	triclinic
loop_
_symmetry_equiv_pos_as_xyz
  x,y,z
_cell_length_a	12.784890
_cell_length_b	19.188930
_cell_length_c	11.892095
_cell_angle_alpha	93.870839
_cell_angle_beta	86.513306
_cell_angle_gamma	78.125670
loop_
_atom_site_label
_atom_site_type_symbol
_atom_site_fract_x
_atom_site_fract_y
_atom_site_fract_z
O1	O	1.417114	-0.000507	-0.093968
O2	O	1.107521	0.029403	-0.093983
O3	O	1.271250	-0.087731	-0.093953
O4	O	1.253385	0.116627	-0.093998
O5	O	1.257599	-0.077978	0.094052
O6	O	1.093869	0.039156	0.094022
O7	O	1.403463	0.009246	0.094037
Zn8	Zn	1.246499	0.025749	0.123879
Zn9	Zn	1.264485	0.012900	-0.123825
O10	O	1.239733	0.126380	0.094007
C11	C	1.061086	0.036225	0.000018
C12	C	0.943066	0.042013	0.000014
C13	C	1.263845	-0.108831	0.000053
C14	C	1.262108	-0.186233	0.000062
C15	C	0.763753	0.114555	-0.000004
C16	C	0.874644	0.109121	-0.000002
C17	C	0.900591	-0.019666	0.000026
C18	C	0.789701	-0.014232	0.000025
C19	C	0.721285	0.052881	0.000012
C20	C	0.610393	0.058315	0.000018
C21	C	0.636343	-0.070472	0.000038
C22	C	0.747233	-0.075906	0.000040
C23	C	1.358179	-0.236797	0.000072
C24	C	1.356549	-0.309526	0.000054
C25	C	1.258839	-0.331686	0.000049
C26	C	1.162756	-0.281112	0.000033
C27	C	1.164390	-0.208386	0.000039
N28	N	1.179507	-0.431988	0.064027
N29	N	1.177961	-0.501076	0.064023
C30	C	1.253910	-0.550807	0.000026
N31	N	1.331480	-0.528841	-0.063953
N32	N	1.333028	-0.459747	-0.063944
C33	C	1.257057	-0.410545	0.000041
C34	C	1.348221	-0.680233	0.000014
C35	C	1.346586	-0.752963	-0.000011
C36	C	1.152790	-0.724546	-0.000021
C37	C	1.154428	-0.651819	-0.000007
C38	C	1.252145	-0.629666	0.000016
C39	C	1.449897	0.002424	0.000033
C40	C	1.567918	-0.003364	0.000030
C41	C	1.247138	0.147480	-0.000001
C42	C	1.248876	0.224882	-0.000018
N43	N	1.234231	0.034518	0.292931
N44	N	1.276761	0.004125	-0.292877
C45	C	1.362123	-0.056930	0.529602
C46	C	1.353556	-0.050797	0.647943
C47	C	1.208525	0.052916	0.647954
C48	C	1.217093	0.046782	0.529614
C49	C	1.293895	-0.008142	0.470442
C50	C	1.302466	-0.014272	0.352100
C51	C	1.157432	0.089436	0.352114
C52	C	1.148864	0.095570	0.470454
H53	H	0.554689	0.112962	0.000014
Br54	Br	1.030150	-0.311185	0.000011
Br55	Br	1.024037	-0.583192	-0.000020
H56	H	1.424666	-0.101648	0.481424
H57	H	1.434785	-0.350703	0.000058
Br58	Br	1.476982	-0.821589	-0.000010
H59	H	1.086331	0.140287	0.518645
Br60	Br	1.020182	-0.754613	-0.000040
H61	H	0.708047	0.169201	-0.000000
H62	H	1.409113	-0.090525	0.696107
H63	H	1.086154	-0.167215	0.000032
Br64	Br	1.406701	-0.088808	0.271796
Br65	Br	1.480833	-0.650163	0.000057
Br66	Br	1.104285	0.127443	0.728270
H67	H	0.909215	0.159342	-0.000012
Br68	Br	0.993458	-0.110740	0.000036
H69	H	1.101879	0.129165	0.303932
H70	H	0.802952	-0.130547	0.000046
Br71	Br	1.490798	-0.206738	0.000072
Br72	Br	0.578703	-0.154177	0.000076
