data_functionalizedCrystal
_audit_creation_method	'MofGen! by Chris Wilmer'
_symmetry_space_group_name_H-M	'P1'
_symmetry_Int_Tables_number	1
_symmetry_cell_setting	triclinic
loop_
_symmetry_equiv_pos_as_xyz
  x,y,z
_cell_length_a	21.295417
_cell_length_b	19.121102
_cell_length_c	19.120904
_cell_angle_alpha	90.088173
_cell_angle_beta	92.409419
_cell_angle_gamma	87.583861
loop_
_atom_site_label
_atom_site_type_symbol
_atom_site_fract_x
_atom_site_fract_y
_atom_site_fract_z
Zn1	Zn	-0.307921	1.054819	-0.442038
Zn2	Zn	0.025412	1.388152	-0.108705
Zn3	Zn	0.358745	1.721486	0.224629
Zn4	Zn	-0.408895	1.059730	-0.324794
Zn5	Zn	-0.075562	1.393063	0.008540
Zn6	Zn	0.257771	1.726396	0.341873
Zn7	Zn	-0.298968	0.942589	-0.319823
Zn8	Zn	0.034366	1.275922	0.013511
Zn9	Zn	0.367699	1.609255	0.346844
Zn10	Zn	-0.408472	0.937541	-0.436996
Zn11	Zn	-0.075139	1.270874	-0.103663
Zn12	Zn	0.258194	1.604208	0.229671
O13	O	-0.356064	0.998670	-0.380912
O14	O	-0.022731	1.332003	-0.047579
O15	O	0.310603	1.665336	0.285754
O16	O	-0.325240	1.153575	-0.430676
O17	O	0.008094	1.486909	-0.097342
O18	O	0.341427	1.820242	0.235991
O19	O	-0.390743	1.048358	-0.226029
O20	O	-0.057410	1.381691	0.107304
O21	O	0.275923	1.715025	0.440637
O22	O	-0.212069	0.957533	-0.336065
O23	O	0.121264	1.290867	-0.002731
O24	O	0.454597	1.624200	0.330602
O25	O	-0.399425	1.157183	-0.344537
O26	O	-0.066092	1.490517	-0.011203
O27	O	0.267242	1.823850	0.322130
O28	O	-0.218647	1.039988	-0.425856
O29	O	0.114686	1.373322	-0.092522
O30	O	0.448019	1.706655	0.240811
O31	O	-0.309980	0.962295	-0.222377
O32	O	0.023353	1.295628	0.110956
O33	O	0.356687	1.628962	0.444289
O34	O	-0.309570	0.843814	-0.331175
O35	O	0.023764	1.177147	0.002158
O36	O	0.357097	1.510481	0.335491
O37	O	-0.398704	0.948931	-0.535769
O38	O	-0.065371	1.282264	-0.202436
O39	O	0.267963	1.615597	0.130897
O40	O	-0.390022	0.840106	-0.417262
O41	O	-0.056689	1.173439	-0.083929
O42	O	0.276645	1.506772	0.249405
O43	O	-0.324829	1.035094	-0.539474
O44	O	0.008504	1.368427	-0.206140
O45	O	0.341837	1.701761	0.127193
O46	O	-0.496925	1.043464	-0.339648
O47	O	-0.163592	1.376797	-0.006314
O48	O	0.169741	1.710131	0.327019
O49	O	-0.496614	0.953692	-0.422082
O50	O	-0.163281	1.287026	-0.088749
O51	O	0.170052	1.620359	0.244585
C52	C	-0.348779	0.816522	-0.373133
C53	C	-0.015446	1.149856	-0.039799
C54	C	0.317888	1.483189	0.293534
C55	C	-0.345678	0.738598	-0.369821
C56	C	-0.012345	1.071931	-0.036488
C57	C	0.320989	1.405265	0.296846
C58	C	-0.386167	0.700080	-0.413015
C59	C	-0.052833	1.033413	-0.079682
C60	C	0.280500	1.366746	0.253651
C61	C	-0.383245	0.626862	-0.409907
C62	C	-0.049911	0.960195	-0.076574
C63	C	0.283422	1.293528	0.256760
C64	C	-0.339837	0.592163	-0.363600
C65	C	-0.006504	0.925497	-0.030267
C66	C	0.326830	1.258830	0.303066
C67	C	-0.299344	0.630687	-0.320404
C68	C	0.033989	0.964020	0.012929
C69	C	0.367323	1.297353	0.346262
C70	C	-0.302263	0.703903	-0.323516
C71	C	0.031070	1.037237	0.009817
C72	C	0.364403	1.370570	0.343150
C73	C	-0.328921	0.371192	-0.351968
C74	C	0.004412	0.704525	-0.018634
C75	C	0.337745	1.037858	0.314699
C76	C	-0.326007	0.297970	-0.348857
C77	C	0.007327	0.631303	-0.015524
C78	C	0.340660	0.964636	0.317809
C79	C	-0.409907	0.294150	-0.438361
C80	C	-0.076574	0.627483	-0.105028
C81	C	0.256760	0.960816	0.228305
C82	C	-0.412825	0.367368	-0.441467
C83	C	-0.079492	0.700701	-0.108133
C84	C	0.253842	1.034035	0.225200
C85	C	-0.372330	0.405885	-0.398273
C86	C	-0.038996	0.739218	-0.064940
C87	C	0.294337	1.072552	0.268394
C88	C	-0.336851	0.517323	-0.360421
C89	C	-0.003517	0.850656	-0.027087
C90	C	0.329816	1.183989	0.306246
C91	C	-0.375313	0.480724	-0.401457
C92	C	-0.041980	0.814057	-0.068124
C93	C	0.291353	1.147391	0.265210
C94	C	-0.519611	0.998582	-0.380873
C95	C	-0.186278	1.331915	-0.047540
C96	C	0.147056	1.665248	0.285793
C97	C	-0.589580	0.998607	-0.380883
C98	C	-0.256247	1.331941	-0.047549
C99	C	0.077086	1.665274	0.285784
C100	C	-0.625815	1.041515	-0.427668
C101	C	-0.292482	1.374848	-0.094334
C102	C	0.040852	1.708181	0.238999
C103	C	-0.691559	1.041539	-0.427686
C104	C	-0.358226	1.374872	-0.094353
C105	C	-0.024893	1.708205	0.238981
C106	C	-0.721066	0.998663	-0.380907
C107	C	-0.387733	1.331997	-0.047574
C108	C	-0.054399	1.665330	0.285760
C109	C	-0.684823	0.955747	-0.334118
C110	C	-0.351489	1.289081	-0.000785
C111	C	-0.018156	1.622414	0.332548
C112	C	-0.619080	0.955719	-0.334106
C113	C	-0.285747	1.289053	-0.000773
C114	C	0.047587	1.622386	0.332561
N115	N	-0.821870	0.995988	-0.319328
N116	N	-0.488537	1.329322	0.014006
N117	N	-0.155204	1.662655	0.347339
N118	N	-0.884323	0.996019	-0.319341
N119	N	-0.550990	1.329352	0.013992
N120	N	-0.217657	1.662686	0.347325
C121	C	-0.919145	0.998744	-0.380942
C122	C	-0.585812	1.332077	-0.047609
C123	C	-0.252478	1.665410	0.285724
N124	N	-0.889155	1.001450	-0.442531
N125	N	-0.555821	1.334784	-0.109197
N126	N	-0.222488	1.668117	0.224136
N127	N	-0.826696	1.001423	-0.442516
N128	N	-0.493363	1.334757	-0.109183
N129	N	-0.160029	1.668090	0.224150
C130	C	-0.792353	0.998688	-0.380915
C131	C	-0.459019	1.332022	-0.047582
C132	C	-0.125686	1.665355	0.285751
C133	C	-1.026667	1.041679	-0.427751
C134	C	-0.693334	1.375013	-0.094418
C135	C	-0.360001	1.708346	0.238915
C136	C	-1.092413	1.041698	-0.427771
C137	C	-0.759079	1.375032	-0.094437
C138	C	-0.425746	1.708365	0.238896
C139	C	-1.085675	0.955911	-0.334197
C140	C	-0.752341	1.289244	-0.000863
C141	C	-0.419008	1.622578	0.332470
C142	C	-1.019931	0.955888	-0.334183
C143	C	-0.686597	1.289221	-0.000850
C144	C	-0.353264	1.622555	0.332483
C145	C	-0.990431	0.998776	-0.380960
C146	C	-0.657098	1.332109	-0.047627
C147	C	-0.323765	1.665443	0.285707
C148	C	-0.191880	0.998776	-0.380968
C149	C	0.141453	1.332109	-0.047635
C150	C	0.474787	1.665443	0.285699
C151	C	-0.121915	0.998822	-0.380992
C152	C	0.211419	1.332155	-0.047658
C153	C	0.544752	1.665488	0.285675
C154	C	-0.362718	0.990902	-0.563770
C155	C	-0.029385	1.324235	-0.230437
C156	C	0.303948	1.657568	0.102896
C157	C	-0.365554	0.987591	-0.641693
C158	C	-0.032220	1.320925	-0.308360
C159	C	0.301113	1.654258	0.024973
C160	C	-0.363378	1.181528	-0.388723
C161	C	-0.030045	1.514861	-0.055390
C162	C	0.303288	1.848195	0.277943
C163	C	-0.366495	1.259452	-0.392052
C164	C	-0.033162	1.592785	-0.058718
C165	C	0.300171	1.926118	0.274615
C166	C	-0.328425	1.030895	-0.680232
C167	C	0.004908	1.364228	-0.346898
C168	C	0.338241	1.697561	-0.013565
C169	C	-0.331087	1.027776	-0.753448
C170	C	0.002247	1.361109	-0.420115
C171	C	0.335580	1.694442	-0.086781
C172	C	-0.370881	0.981357	-0.788125
C173	C	-0.037547	1.314690	-0.454792
C174	C	0.295786	1.648023	-0.121459
C175	C	-0.408011	0.938049	-0.749582
C176	C	-0.074677	1.271382	-0.416249
C177	C	0.258656	1.604715	-0.082915
C178	C	-0.405345	0.941165	-0.676366
C179	C	-0.072012	1.274498	-0.343033
C180	C	0.261321	1.607831	-0.009700
C181	C	-0.380849	0.969701	-1.009092
C182	C	-0.047516	1.303035	-0.675759
C183	C	0.285817	1.636368	-0.342425
C184	C	-0.383513	0.966590	-1.082313
C185	C	-0.050180	1.299924	-0.748979
C186	C	0.283153	1.633257	-0.415646
C187	C	-0.306588	1.056317	-1.086174
C188	C	0.026745	1.389650	-0.752841
C189	C	0.360078	1.722984	-0.419507
C190	C	-0.303929	1.059432	-1.012957
C191	C	0.029404	1.392765	-0.679624
C192	C	0.362737	1.726098	-0.346290
C193	C	-0.341057	1.016121	-0.974420
C194	C	-0.007723	1.349454	-0.641087
C195	C	0.325610	1.682788	-0.307753
C196	C	-0.373604	0.978169	-0.862965
C197	C	-0.040270	1.311503	-0.529631
C198	C	0.293063	1.644836	-0.196298
C199	C	-0.338330	1.019305	-0.899582
C200	C	-0.004997	1.352639	-0.566249
C201	C	0.328337	1.685972	-0.232915
C202	C	-0.349392	1.006448	-0.198768
C203	C	-0.016059	1.339781	0.134565
C204	C	0.317275	1.673114	0.467899
C205	C	-0.346385	1.009894	-0.120851
C206	C	-0.013051	1.343227	0.212482
C207	C	0.320282	1.676560	0.545816
H208	H	-0.295952	0.402544	-0.316791
H209	H	0.037381	0.735877	0.016542
H210	H	0.370715	1.069210	0.349876
F211	F	-0.426338	0.585871	-0.455881
F212	F	-0.093005	0.919204	-0.122548
F213	F	0.240328	1.252537	0.210786
H214	H	-1.121914	1.076638	-0.465872
H215	H	-0.788581	1.409972	-0.132538
H216	H	-0.455248	1.743305	0.200795
H217	H	-0.305927	1.057097	-0.871344
H218	H	0.027406	1.390430	-0.538011
H219	H	0.360739	1.723763	-0.204678
H220	H	-0.721067	1.076473	-0.465792
H221	H	-0.387734	1.409806	-0.132459
H222	H	-0.054401	1.743139	0.200875
F223	F	-0.444861	0.895073	-0.635351
F224	F	-0.111528	1.228407	-0.302018
F225	F	0.221806	1.561740	0.031315
H226	H	-0.406007	0.940378	-0.891207
H227	H	-0.072674	1.273711	-0.557874
H228	H	0.260660	1.607045	-0.224540
F229	F	-0.716227	0.910113	-0.284336
F230	F	-0.382893	1.243446	0.048997
F231	F	-0.049560	1.576779	0.382331
H232	H	-0.300854	1.063040	-0.784823
H233	H	0.032479	1.396373	-0.451490
H234	H	0.365812	1.729706	-0.118156
H235	H	-0.589576	0.920778	-0.296007
H236	H	-0.256243	1.254112	0.037326
H237	H	0.077090	1.587445	0.370659
F238	F	-0.261575	1.108837	-0.976056
F239	F	0.071758	1.442171	-0.642723
F240	F	0.405091	1.775504	-0.309390
H241	H	-1.002648	1.076599	-0.465842
H242	H	-0.669315	1.409932	-0.132508
H243	H	-0.335981	1.743266	0.200825
H244	H	-0.421516	0.728326	-0.450721
H245	H	-0.088183	1.061659	-0.117388
H246	H	0.245151	1.394992	0.215946
F247	F	-0.459027	0.404291	-0.490751
F248	F	-0.125693	0.737625	-0.157418
F249	F	0.207640	1.070958	0.175915
H250	H	-0.410653	0.508979	-0.439163
H251	H	-0.077320	0.842312	-0.105829
H252	H	0.256013	1.175645	0.227504
H253	H	-0.301509	0.489063	-0.322716
H254	H	0.031824	0.822396	0.010617
H255	H	0.365158	1.155730	0.343951
H256	H	-0.296023	1.068696	-0.652003
H257	H	0.037311	1.402030	-0.318670
H258	H	0.370644	1.735363	0.014664
F259	F	-0.450360	0.888643	-0.786490
F260	F	-0.117027	1.221976	-0.453157
F261	F	0.216307	1.555310	-0.119823
H262	H	-0.990426	0.920952	-0.296084
H263	H	-0.657093	1.254285	0.037250
H264	H	-0.323760	1.587618	0.370583
F265	F	-0.453003	0.253152	-0.484327
F266	F	-0.119669	0.586486	-0.150993
F267	F	0.213664	0.919819	0.182340
F268	F	-1.117073	0.910277	-0.284412
F269	F	-0.783740	1.243611	0.048921
F270	F	-0.450407	1.576944	0.382254
H271	H	-0.263998	0.602429	-0.282703
H272	H	0.069336	0.935763	0.050630
H273	H	0.402669	1.269096	0.383963
H274	H	-0.290652	0.269721	-0.311153
H275	H	0.042682	0.603054	0.022180
H276	H	0.376015	0.936387	0.355514
H277	H	-0.269290	0.735264	-0.288347
H278	H	0.064044	1.068597	0.044987
H279	H	0.397377	1.401931	0.378320
F280	F	-0.425867	0.917180	-1.119217
F281	F	-0.092533	1.250513	-0.785884
F282	F	0.240800	1.583846	-0.452551
F283	F	-0.594423	1.087156	-0.477455
F284	F	-0.261090	1.420490	-0.144122
F285	F	0.072243	1.753823	0.189212
H286	H	-0.411091	0.934445	-0.977724
H287	H	-0.077757	1.267779	-0.644391
H288	H	0.255576	1.601112	-0.311057
F289	F	-0.267076	1.102406	-1.127193
F290	F	0.066257	1.435739	-0.793860
F291	F	0.399591	1.769073	-0.460526
