data_functionalizedCrystal
_audit_creation_method	'MofGen! by Chris Wilmer'
_symmetry_space_group_name_H-M	'P1'
_symmetry_Int_Tables_number	1
_symmetry_cell_setting	triclinic
loop_
_symmetry_equiv_pos_as_xyz
  x,y,z
_cell_length_a	12.837943
_cell_length_b	12.784905
_cell_length_c	11.892113
_cell_angle_alpha	94.701746
_cell_angle_beta	93.960051
_cell_angle_gamma	83.968130
loop_
_atom_site_label
_atom_site_type_symbol
_atom_site_fract_x
_atom_site_fract_y
_atom_site_fract_z
O1	O	1.356089	0.280414	0.093982
O2	O	1.856089	0.780414	0.593982
O3	O	1.055503	0.266889	0.093988
O4	O	1.555503	0.766889	0.593988
O5	O	1.227792	0.121152	0.093981
O6	O	1.727792	0.621152	0.593981
O7	O	1.183800	0.426151	0.093989
O8	O	1.683800	0.926151	0.593989
O9	O	1.217143	0.107944	-0.094026
O10	O	1.717143	0.607944	0.405974
O11	O	1.044855	0.253681	-0.094019
O12	O	1.544855	0.753681	0.405981
O13	O	1.345441	0.267207	-0.094025
O14	O	1.845441	0.767207	0.405975
Zn15	Zn	1.193457	0.258347	-0.123873
Zn16	Zn	1.693457	0.758347	0.376127
Zn17	Zn	1.207487	0.275749	0.123835
Zn18	Zn	1.707487	0.775749	0.623835
O19	O	1.173152	0.412944	-0.094019
O20	O	1.673152	0.912944	0.405981
C21	C	1.011970	0.255716	-0.000015
C22	C	1.511970	0.755716	0.499985
C23	C	0.898121	0.242088	-0.000013
C24	C	1.398121	0.742088	0.499987
C25	C	1.225329	0.075238	-0.000021
C26	C	1.725329	0.575238	0.499979
C27	C	1.233842	-0.041893	-0.000016
C28	C	1.733842	0.458107	0.499984
C29	C	1.388974	0.278380	-0.000020
C30	C	1.888974	0.778380	0.499980
C31	C	1.502823	0.292008	-0.000015
C32	C	2.002823	0.792008	0.499985
N33	N	1.183889	0.246471	-0.292927
N34	N	1.683889	0.746471	0.207073
C35	C	1.758548	0.128176	-0.000030
C36	C	2.258548	0.628176	0.499970
C37	C	1.865520	0.140976	-0.000025
C38	C	2.365520	0.640976	0.499975
C39	C	1.823741	0.330407	-0.000008
C40	C	2.323741	0.830407	0.499992
C41	C	1.716769	0.317607	-0.000013
C42	C	2.216769	0.817607	0.499987
C43	C	1.684177	0.216488	-0.000022
C44	C	2.184177	0.716488	0.499978
C45	C	1.577203	0.203690	-0.000019
C46	C	2.077203	0.703690	0.499981
C47	C	1.535426	0.393119	-0.000010
C48	C	2.035426	0.893119	0.499990
C49	C	1.642398	0.405919	-0.000005
C50	C	2.142398	0.905919	0.499995
C51	C	1.175615	0.458857	-0.000014
C52	C	1.675615	0.958857	0.499986
C53	C	1.167102	0.575989	-0.000011
C54	C	1.667102	1.075989	0.499989
C55	C	1.340544	0.789939	-0.000030
C56	C	1.840544	1.289939	0.499970
C57	C	1.332550	0.899994	-0.000028
C58	C	1.832550	1.399994	0.499972
C59	C	1.143121	0.906157	-0.000011
C60	C	1.643121	1.406157	0.499989
C61	C	1.151115	0.796102	-0.000014
C62	C	1.651115	1.296102	0.499986
C63	C	1.249830	0.737996	-0.000022
C64	C	1.749830	1.237996	0.499978
C65	C	1.257823	0.627939	-0.000016
C66	C	1.757823	1.127939	0.499984
C67	C	1.068395	0.634104	-0.000008
C68	C	1.568395	1.134104	0.499992
C69	C	1.060401	0.744159	-0.000005
C70	C	1.560401	1.244159	0.499995
C71	C	1.283622	0.370307	-0.529575
C72	C	1.783622	0.870307	-0.029575
C73	C	1.276943	0.361998	-0.647917
C74	C	1.776943	0.861998	-0.147917
C75	C	1.163860	0.221539	-0.647954
C76	C	1.663860	0.721539	-0.147954
C77	C	1.170539	0.229848	-0.529613
C78	C	1.670539	0.729848	-0.029613
C79	C	1.230420	0.304236	-0.470427
C80	C	1.730420	0.804236	0.029573
C81	C	1.237092	0.312550	-0.352083
C82	C	1.737092	0.812550	0.147917
C83	C	1.124016	0.172086	-0.352123
C84	C	1.624016	0.672086	0.147877
C85	C	1.117337	0.163776	-0.470465
C86	C	1.617337	0.663776	0.029535
N87	N	1.217063	0.287617	0.292889
N88	N	1.717063	0.787617	0.792889
H89	H	1.550669	0.121354	-0.000022
H90	H	2.050669	0.621354	0.499978
H91	H	1.926071	0.069062	-0.000032
H92	H	2.426071	0.569062	0.499968
H93	H	1.474860	0.465030	-0.000003
H94	H	1.974860	0.965030	0.499997
H95	H	1.338202	0.580632	-0.000016
H96	H	1.838202	1.080632	0.499984
F97	F	1.677098	0.513531	0.000005
F98	F	2.177098	1.013531	0.500005
H99	H	1.332369	0.430886	-0.481385
H100	H	1.832369	0.930886	0.018615
F101	F	1.429100	0.955271	-0.000039
F102	F	1.929100	1.455271	0.499961
F103	F	1.333570	0.432319	-0.710863
F104	F	1.833570	0.932319	-0.210863
H105	H	1.420922	0.742629	-0.000022
H106	H	1.920922	1.242629	0.499978
F107	F	1.100138	0.142374	-0.710963
F108	F	1.600138	0.642374	-0.210963
F109	F	1.038071	0.968013	-0.000011
F110	F	1.538071	1.468013	0.499989
F111	F	0.955348	0.806010	0.000001
F112	F	1.455348	1.306010	0.500001
H113	H	0.994529	0.591801	0.000003
H114	H	1.494529	1.091801	0.500003
F115	F	1.300823	0.391718	-0.289095
F116	F	1.800823	0.891718	0.210905
H117	H	1.850297	0.412732	-0.000011
H118	H	2.350297	0.912732	0.499989
F119	F	1.067386	0.101768	-0.289165
F120	F	1.567386	0.601768	0.210835
F121	F	1.723858	0.020560	-0.000034
F122	F	2.223858	0.520560	0.499966
F123	F	1.053611	0.084612	-0.533466
F124	F	1.553611	0.584612	-0.033466
