data_functionalizedCrystal
_audit_creation_method	'MofGen! by Chris Wilmer'
_symmetry_space_group_name_H-M	'P1'
_symmetry_Int_Tables_number	1
_symmetry_cell_setting	triclinic
loop_
_symmetry_equiv_pos_as_xyz
  x,y,z
_cell_length_a	10.540539
_cell_length_b	10.540539
_cell_length_c	9.016244
_cell_angle_alpha	90.000067
_cell_angle_beta	89.994699
_cell_angle_gamma	95.474508
loop_
_atom_site_label
_atom_site_type_symbol
_atom_site_fract_x
_atom_site_fract_y
_atom_site_fract_z
O1	O	1.685893	-0.178895	-0.123263
O2	O	1.316480	-0.195751	-0.123280
O3	O	1.509614	-0.002617	-0.123269
O4	O	1.492759	-0.372030	-0.123274
O5	O	1.509586	-0.002621	0.123411
O6	O	1.316452	-0.195755	0.123400
O7	O	1.685865	-0.178900	0.123418
Cu8	Cu	1.501156	-0.187328	0.145933
Cu9	Cu	1.501189	-0.187323	-0.145795
O10	O	1.492730	-0.372034	0.123407
C11	C	1.269163	-0.194489	0.000058
C12	C	1.128215	-0.190707	0.000051
C13	C	1.508336	0.044684	0.000068
C14	C	1.504554	0.185632	0.000060
C15	C	0.944788	-0.045790	0.000628
C16	C	1.091406	-0.049624	0.000057
C17	C	1.066558	-0.258600	-0.140811
C18	C	0.920014	-0.253785	-0.140914
C19	C	0.919493	-0.256660	0.139608
C20	C	1.066475	-0.257960	0.141455
C21	C	1.733182	-0.180161	0.000077
C22	C	1.874130	-0.183943	0.000074
C23	C	1.494008	-0.419335	0.000066
C24	C	1.497790	-0.560283	0.000064
N25	N	1.501141	-0.187331	0.351119
C26	C	1.359637	0.369059	-0.000500
C27	C	1.363471	0.222441	0.000055
C28	C	1.572434	0.247287	0.140930
C29	C	1.567619	0.393832	0.141049
C30	C	1.570520	0.394355	-0.139473
C31	C	1.571820	0.247373	-0.141336
N32	N	1.501213	-0.187310	-0.350982
C33	C	1.397510	-0.290298	0.586146
C34	C	1.397739	-0.290684	0.414255
C35	C	1.633864	-0.217464	0.413464
C36	C	1.633298	-0.218193	0.585409
C37	C	1.473367	-0.053892	0.585663
C38	C	1.470322	-0.054757	0.413709
H39	H	1.134008	0.003797	0.101034
H40	H	1.658762	-0.313702	0.370386
C41	C	1.508695	0.189746	0.282549
N42	N	1.460678	0.146409	0.389213
H43	H	1.299123	-0.272553	0.372106
H44	H	1.669083	0.441800	0.147444
H45	H	1.378630	-0.025213	0.629106
C46	C	1.291303	0.164884	-0.136360
N47	N	1.236936	0.121537	-0.239108
C48	C	1.740668	-0.118898	0.358208
N49	N	1.821112	-0.044656	0.316586
C50	C	1.508846	0.436978	-0.283716
N51	N	1.462378	0.469078	-0.392353
C52	C	1.096762	-0.398568	-0.147904
N53	N	1.119516	-0.503992	-0.153245
H54	H	1.372684	-0.031916	0.372962
C55	C	1.708185	0.458163	-0.140754
N56	N	1.811868	0.506230	-0.141709
C57	C	1.124099	-0.194875	-0.282437
N58	N	1.167435	-0.146868	-0.389107
C59	C	1.504787	0.192105	-0.282127
N60	N	1.454286	0.150480	-0.388169
C61	C	1.710787	0.214662	-0.152817
N62	N	1.815465	0.190030	-0.161451
C63	C	1.565621	0.053753	0.355688
N64	N	1.637419	0.135478	0.311999
C65	C	1.421928	-0.424406	0.358661
N66	N	1.440155	-0.525130	0.316789
H67	H	1.712941	-0.146204	0.626995
H68	H	1.298584	-0.272446	0.627535
C69	C	1.666175	-0.349700	0.639571
N70	N	1.690928	-0.448758	0.680358
H71	H	1.548979	0.022762	0.626319
H72	H	0.916191	0.009944	0.101649
H73	H	1.304121	0.399265	0.099949
H74	H	1.415177	-0.388722	0.629339
H75	H	0.872266	-0.358564	0.140559
C76	C	1.099222	-0.396912	0.152962
N77	N	1.123895	-0.501574	0.161626
C78	C	1.290780	0.166023	0.136702
N79	N	1.236029	0.123530	0.239631
H80	H	1.107425	-0.208362	0.245664
H81	H	1.133163	0.004177	-0.101092
C82	C	0.903977	0.029203	-0.135066
N83	N	0.873233	0.085686	-0.237271
H84	H	0.891816	-0.203602	-0.246209
H85	H	0.872045	-0.355250	-0.147309
H86	H	1.676041	0.224933	0.146173
H87	H	0.887935	-0.211004	0.246381
H88	H	1.303918	0.397661	-0.101521
H89	H	1.517429	0.422030	0.246347
