data_functionalizedCrystal
_audit_creation_method	'MofGen! by Chris Wilmer'
_symmetry_space_group_name_H-M	'P1'
_symmetry_Int_Tables_number	1
_symmetry_cell_setting	triclinic
loop_
_symmetry_equiv_pos_as_xyz
  x,y,z
_cell_length_a	17.640280
_cell_length_b	10.686220
_cell_length_c	10.686551
_cell_angle_alpha	89.691918
_cell_angle_beta	73.631970
_cell_angle_gamma	96.018024
loop_
_atom_site_label
_atom_site_type_symbol
_atom_site_fract_x
_atom_site_fract_y
_atom_site_fract_z
Zn1	Zn	-0.193149	-2.029519	-0.495722
Zn2	Zn	-0.336546	-2.055778	-0.236472
Zn3	Zn	-0.213416	-1.809642	-0.295045
Zn4	Zn	-0.334940	-1.861733	-0.462803
O5	O	-0.269513	-1.939168	-0.372511
O6	O	-0.204361	-2.206230	-0.450596
O7	O	-0.329366	-2.012318	-0.065537
O8	O	-0.099857	-1.806019	-0.359955
O9	O	-0.309714	-2.225523	-0.260125
O10	O	-0.084968	-1.967562	-0.507392
O11	O	-0.238903	-1.831482	-0.108570
O12	O	-0.237346	-1.643324	-0.328035
O13	O	-0.306978	-1.894800	-0.645875
O14	O	-0.326629	-1.681595	-0.451286
O15	O	-0.202805	-2.018072	-0.670060
O16	O	-0.447203	-2.062828	-0.228205
O17	O	-0.446023	-1.920263	-0.394490
C18	C	-0.284013	-1.617544	-0.392445
C19	C	-0.290234	-1.479959	-0.400997
C20	C	-0.475357	-2.000083	-0.301445
C21	C	-0.563411	-2.026258	-0.271079
C22	C	-0.252451	-1.959317	-0.705599
C23	C	-0.245181	-1.967904	-0.847542
C24	C	-0.850116	-1.740852	-0.603633
C25	C	-0.932858	-1.765448	-0.575058
C26	C	-0.934008	-1.914008	-0.402065
C27	C	-0.851264	-1.889430	-0.430629
C28	C	-0.809324	-1.802849	-0.531413
C29	C	-0.810472	-1.951427	-0.358409
C30	C	-0.727736	-1.926845	-0.386967
C31	C	-0.685791	-1.840266	-0.487744
C32	C	-0.726588	-1.778267	-0.559971
C33	C	-0.852414	-2.038000	-0.257619
C34	C	-0.811622	-2.099997	-0.185400
C35	C	-0.728884	-2.075422	-0.213963
C36	C	-0.686939	-1.988843	-0.314741
C37	C	-0.688087	-2.137421	-0.141737
C38	C	-0.605351	-2.112839	-0.170295
C39	C	-0.604203	-1.964261	-0.343299
C40	C	-0.062861	-1.878051	-0.443879
C41	C	0.025201	-1.852006	-0.474292
C42	C	-0.254956	-2.262048	-0.352499
C43	C	-0.248753	-2.399641	-0.343971
C44	C	-0.286447	-1.919151	-0.040733
C45	C	-0.293484	-1.910739	0.101147
H46	H	-0.618423	-1.820243	-0.510986
C47	C	-0.343633	-1.710075	-0.857225
C48	C	-0.356829	-1.835803	-0.811578
H49	H	-0.382746	-1.663819	-0.803343
H50	H	-0.292330	-1.674915	-0.854920
H51	H	-0.346888	-1.706225	-0.944365
H52	H	-0.353568	-1.839653	-0.724441
H53	H	-0.408144	-1.870972	-0.813870
H54	H	-0.198264	-2.023424	-0.912208
H55	H	-0.919783	-2.058015	-0.234374
H56	H	-0.570053	-1.893768	-0.425376
H57	H	-0.722247	-2.207905	-0.059670
H58	H	-0.692438	-1.707774	-0.642049
C59	C	-0.614789	-2.262172	0.003576
C60	C	-0.560506	-2.180984	-0.090912
H61	H	-0.587102	-2.304242	0.052582
H62	H	-0.652028	-2.214920	0.060277
H63	H	-0.642041	-2.322429	-0.038056
H64	H	-0.533258	-2.120720	-0.049279
H65	H	-0.523253	-2.228239	-0.147620
H66	H	-0.330515	-1.443463	-0.456356
H67	H	-0.815966	-1.670359	-0.685711
H68	H	-0.966065	-1.714971	-0.633890
C69	C	-1.061350	-2.017637	-0.281444
C70	C	-0.980114	-2.009159	-0.291270
H71	H	-1.089810	-2.076381	-0.213044
H72	H	-1.079653	-1.937387	-0.263154
H73	H	-1.069678	-2.044912	-0.361469
H74	H	-0.971784	-1.981874	-0.211248
H75	H	-0.961804	-2.089425	-0.309552
C76	C	-0.830728	-2.313447	-0.101614
C77	C	-0.857732	-2.195160	-0.074620
H78	H	-0.859192	-2.372193	-0.033217
H79	H	-0.839063	-2.340697	-0.181630
H80	H	-0.775615	-2.307673	-0.108280
H81	H	-0.912843	-2.200932	-0.067963
H82	H	-0.849403	-2.167904	0.005418
H83	H	-0.208480	-1.436133	-0.288605
