data_functionalizedCrystal
_audit_creation_method	'MofGen! by Chris Wilmer'
_symmetry_space_group_name_H-M	'P1'
_symmetry_Int_Tables_number	1
_symmetry_cell_setting	triclinic
loop_
_symmetry_equiv_pos_as_xyz
  x,y,z
_cell_length_a	15.944551
_cell_length_b	15.944493
_cell_length_c	15.021413
_cell_angle_alpha	90.007375
_cell_angle_beta	89.993715
_cell_angle_gamma	96.513109
loop_
_atom_site_label
_atom_site_type_symbol
_atom_site_fract_x
_atom_site_fract_y
_atom_site_fract_z
O1	O	-0.108094	1.114541	-0.074010
O2	O	-0.121501	0.869985	-0.074014
O3	O	0.007479	0.998942	-0.074017
O4	O	-0.237074	0.985585	-0.074007
O5	O	0.007471	0.998957	0.074047
O6	O	-0.121509	0.870000	0.074051
O7	O	-0.108102	1.114556	0.074054
Zn8	Zn	-0.114807	0.992281	0.097561
Zn9	Zn	-0.114796	0.992261	-0.097520
O10	O	-0.237082	0.985600	0.074057
C11	C	-0.120957	0.838698	0.000018
C12	C	-0.119314	0.745449	0.000016
C13	C	-0.195235	0.509689	0.000019
C14	C	-0.154298	0.459138	0.073024
C15	C	-0.116270	0.574728	0.000018
C16	C	-0.154271	0.459128	-0.072955
C17	C	-0.113336	0.409819	0.000015
C18	C	-0.075355	0.525406	0.073084
C19	C	-0.075340	0.525399	-0.072962
C20	C	-0.034345	0.474880	0.000062
C21	C	-0.117963	0.669728	0.000020
C22	C	-0.111637	0.314821	0.000020
C23	C	-0.268372	0.986147	0.000026
C24	C	-0.361617	0.987809	0.000030
C25	C	-0.576457	1.071716	0.000018
C26	C	-0.637485	1.032760	0.073022
C27	C	-0.532343	0.990817	0.000022
C28	C	-0.637463	1.032726	-0.072958
C29	C	-0.697255	0.993728	0.000011
C30	C	-0.592143	0.951838	0.073086
C31	C	-0.592114	0.951816	-0.072959
C32	C	-0.653125	0.912801	0.000063
C33	C	-0.437341	0.989142	0.000030
C34	C	-0.792256	0.995396	0.000010
C35	C	0.038768	0.998395	0.000012
C36	C	0.132014	0.996732	0.000002
C37	C	-0.108646	1.145844	0.000020
C38	C	-0.110289	1.239092	0.000016
N39	N	-0.114814	0.992300	0.230698
N40	N	-0.114783	0.992248	-0.230658
C41	C	-0.055160	1.051942	0.470356
C42	C	-0.038858	0.976040	0.529683
C43	C	-0.114803	0.992281	0.412305
C44	C	-0.131055	1.068164	0.529720
C45	C	-0.114791	0.992269	0.587729
C46	C	-0.098464	0.916341	0.470326
C47	C	-0.190694	1.008515	0.470357
C48	C	-0.174425	0.932558	0.529657
C49	C	-0.114808	0.992289	0.311248
C50	C	-0.114787	0.992252	0.688784
H51	H	-0.187632	0.430183	-0.134667
O52	O	0.046159	0.957843	0.564210
H53	H	0.060087	0.895327	0.539391
H54	H	-0.571989	0.917621	-0.134682
O55	O	-0.080121	0.831315	0.435926
H56	H	-0.080229	0.832002	0.362039
H57	H	-0.224861	0.882045	0.555531
H58	H	0.033726	0.459415	0.000101
O59	O	-0.149278	1.153175	0.564270
H60	H	-0.149697	1.152213	0.638153
O61	O	-0.532306	1.160658	0.000109
H62	H	-0.550350	1.194045	0.060804
H63	H	-0.004693	1.102342	0.444317
H64	H	-0.657588	1.066983	0.134742
O65	O	-0.285326	0.530407	0.000111
H66	H	-0.317918	0.503744	0.060809
H67	H	-0.254858	1.022281	0.444278
H68	H	-0.042014	0.554338	-0.134687
O69	O	-0.198467	0.420808	0.154783
H70	H	-0.265202	0.434441	0.154637
H71	H	-0.042030	0.554240	0.134865
H72	H	-0.572162	0.917654	0.134872
H73	H	-0.686297	0.845592	0.000102
O74	O	-0.664055	1.078049	-0.154718
H75	H	-0.633037	1.143987	-0.154558
