data_functionalizedCrystal
_audit_creation_method	'MofGen! by Chris Wilmer'
_symmetry_space_group_name_H-M	'P1'
_symmetry_Int_Tables_number	1
_symmetry_cell_setting	triclinic
loop_
_symmetry_equiv_pos_as_xyz
  x,y,z
_cell_length_a	19.805407
_cell_length_b	15.297327
_cell_length_c	19.805384
_cell_angle_alpha	99.587708
_cell_angle_beta	89.931692
_cell_angle_gamma	99.707092
loop_
_atom_site_label
_atom_site_type_symbol
_atom_site_fract_x
_atom_site_fract_y
_atom_site_fract_z
Zn1	Zn	0.988555	-0.358479	-0.429245
Zn2	Zn	1.321889	-0.025146	-0.095912
Zn3	Zn	1.655222	0.308187	0.237421
Zn4	Zn	0.968781	-0.509503	-0.335657
Zn5	Zn	1.302115	-0.176170	-0.002324
Zn6	Zn	1.635448	0.157163	0.331010
Zn7	Zn	0.875246	-0.358691	-0.316097
Zn8	Zn	1.208579	-0.025358	0.017236
Zn9	Zn	1.541913	0.307975	0.350570
Zn10	Zn	0.855771	-0.509268	-0.448774
Zn11	Zn	1.189105	-0.175935	-0.115440
Zn12	Zn	1.522438	0.157398	0.217893
O13	O	0.922088	-0.433986	-0.382443
O14	O	1.255422	-0.100652	-0.049110
O15	O	1.588755	0.232681	0.284223
O16	O	1.080648	-0.378523	-0.416844
O17	O	1.413981	-0.045189	-0.083510
O18	O	1.747314	0.288144	0.249823
O19	O	0.956248	-0.489685	-0.238370
O20	O	1.289582	-0.156352	0.094964
O21	O	1.622915	0.176982	0.428297
O22	O	0.906703	-0.232442	-0.314748
O23	O	1.240036	0.100891	0.018586
O24	O	1.573369	0.434224	0.351919
O25	O	1.066120	-0.489479	-0.348085
O26	O	1.399453	-0.156146	-0.014752
O27	O	1.732786	0.177187	0.318582
O28	O	0.989950	-0.232287	-0.397877
O29	O	1.323284	0.101047	-0.064544
O30	O	1.656617	0.434380	0.268789
O31	O	0.887528	-0.378884	-0.223999
O32	O	1.220862	-0.045551	0.109334
O33	O	1.554195	0.287783	0.442668
O34	O	0.777947	-0.378656	-0.333684
O35	O	1.111281	-0.045323	-0.000350
O36	O	1.444614	0.288011	0.332983
O37	O	0.873511	-0.489079	-0.540876
O38	O	1.206844	-0.155745	-0.207542
O39	O	1.540177	0.177588	0.125791
O40	O	0.763639	-0.489284	-0.431161
O41	O	1.096973	-0.155951	-0.097827
O42	O	1.430306	0.177382	0.235506
O43	O	0.971066	-0.378295	-0.526528
O44	O	1.304400	-0.044962	-0.193195
O45	O	1.637733	0.288372	0.140138
O46	O	0.937364	-0.635693	-0.367021
O47	O	1.270698	-0.302360	-0.033687
O48	O	1.604031	0.030973	0.299646
O49	O	0.854337	-0.635521	-0.450127
O50	O	1.187670	-0.302187	-0.116794
O51	O	1.521003	0.031146	0.216540
C52	C	0.746235	-0.433968	-0.382419
C53	C	1.079568	-0.100635	-0.049086
C54	C	1.412901	0.232698	0.284248
C55	C	0.671001	-0.433983	-0.382428
C56	C	1.004334	-0.100649	-0.049094
C57	C	1.337668	0.232684	0.284239
C58	C	0.628213	-0.491674	-0.433125
C59	C	0.961546	-0.158340	-0.099792
C60	C	1.294880	0.174993	0.233542
C61	C	0.557524	-0.491675	-0.433135
C62	C	0.890858	-0.158342	-0.099802
C63	C	1.224191	0.174991	0.233532
C64	C	0.529624	-0.433990	-0.382444
C65	C	0.862958	-0.100656	-0.049110
C66	C	1.196291	0.232677	0.284223
C67	C	0.572418	-0.376292	-0.331744
C68	C	0.905751	-0.042959	0.001590
C69	C	1.239085	0.290374	0.334923
C70	C	0.643106	-0.376287	-0.331737
C71	C	0.976439	-0.042954	0.001596
C72	C	1.309773	0.290380	0.334929
C73	C	0.287342	-0.376312	-0.331769
C74	C	0.620676	-0.042979	0.001565
C75	C	0.954009	0.290354	0.334898
C76	C	0.216649	-0.376324	-0.331778
C77	C	0.549982	-0.042991	0.001556
C78	C	0.883315	0.290343	0.334889
C79	C	0.201761	-0.491701	-0.433166
C80	C	0.535094	-0.158367	-0.099833
C81	C	0.868427	0.174966	0.233501
C82	C	0.272448	-0.491695	-0.433160
C83	C	0.605782	-0.158362	-0.099826
C84	C	0.939115	0.174971	0.233507
C85	C	0.315236	-0.433995	-0.382462
C86	C	0.648570	-0.100662	-0.049129
C87	C	0.981903	0.232672	0.284205
C88	C	0.391885	-0.433993	-0.382453
C89	C	0.725218	-0.100659	-0.049120
C90	C	1.058552	0.232674	0.284214
C91	C	0.452976	-0.433996	-0.382450
C92	C	0.786310	-0.100663	-0.049116
C93	C	1.119643	0.232671	0.284217
C94	C	0.891610	-0.668335	-0.412830
C95	C	1.224943	-0.335001	-0.079497
C96	C	1.558276	-0.001668	0.253836
C97	C	0.878633	-0.768590	-0.425853
C98	C	1.211966	-0.435257	-0.092519
C99	C	1.545300	-0.101923	0.240814
C100	C	1.015116	-1.051427	-0.289601
C101	C	1.348449	-0.718094	0.043732
C102	C	1.681783	-0.384761	0.377065
C103	C	1.027308	-0.957232	-0.277363
C104	C	1.360641	-0.623899	0.055970
C105	C	1.693975	-0.290566	0.389304
C106	C	0.990141	-0.910067	-0.314484
C107	C	1.323474	-0.576734	0.018849
C108	C	1.656807	-0.243400	0.352182
C109	C	0.940778	-0.957106	-0.363846
C110	C	1.274112	-0.623773	-0.030513
C111	C	1.607445	-0.290439	0.302820
C112	C	0.928581	-1.051310	-0.376082
C113	C	1.261915	-0.717977	-0.042749
C114	C	1.595248	-0.384644	0.290584
C115	C	0.903606	-0.909950	-0.400965
C116	C	1.236939	-0.576617	-0.067632
C117	C	1.570273	-0.243283	0.265701
C118	C	0.854244	-0.956989	-0.450327
C119	C	1.187577	-0.623656	-0.116994
C120	C	1.520910	-0.290322	0.216339
C121	C	0.842049	-1.051184	-0.462561
C122	C	1.175382	-0.717851	-0.129228
C123	C	1.508716	-0.384517	0.204105
C124	C	0.879217	-1.098349	-0.425440
C125	C	1.212550	-0.765016	-0.092107
C126	C	1.545883	-0.431682	0.241227
C127	C	0.915803	-0.815746	-0.388729
C128	C	1.249136	-0.482413	-0.055396
C129	C	1.582470	-0.149079	0.277937
C130	C	0.829268	-0.815629	-0.475210
C131	C	1.162602	-0.482296	-0.141877
C132	C	1.495935	-0.148962	0.191457
C133	C	0.817076	-0.909824	-0.487449
C134	C	1.150409	-0.576490	-0.154115
C135	C	1.483743	-0.243157	0.179218
C136	C	1.098629	-0.434004	-0.382468
C137	C	1.431962	-0.100670	-0.049135
C138	C	1.765296	0.232663	0.284199
C139	C	1.173860	-0.434011	-0.382478
C140	C	1.507193	-0.100678	-0.049145
C141	C	1.840527	0.232655	0.284188
C142	C	0.922322	-0.433637	-0.558941
C143	C	1.255655	-0.100304	-0.225608
C144	C	1.588989	0.233030	0.107725
C145	C	0.922421	-0.433488	-0.634154
C146	C	1.255755	-0.100155	-0.300821
C147	C	1.589088	0.233178	0.032512
C148	C	0.952705	-0.198722	-0.351952
C149	C	1.286038	0.134612	-0.018619
C150	C	1.619371	0.467945	0.314714
C151	C	0.965751	-0.098466	-0.338959
C152	C	1.299085	0.234867	-0.005626
C153	C	1.632418	0.568201	0.327708
C154	C	0.921903	-0.434268	-0.206623
C155	C	1.255237	-0.100935	0.126710
C156	C	1.588570	0.232399	0.460043
C157	C	0.921968	-0.434162	-0.131378
C158	C	1.255301	-0.100829	0.201955
C159	C	1.588635	0.232504	0.535289
C160	C	0.885852	-0.376849	-0.088632
C161	C	1.219186	-0.043516	0.244701
C162	C	1.552519	0.289818	0.578034
C163	C	0.885919	-0.376749	-0.017931
C164	C	1.219252	-0.043416	0.315402
C165	C	1.552586	0.289917	0.648736
C166	C	0.922098	-0.433968	0.010023
C167	C	1.255431	-0.100635	0.343356
C168	C	1.588765	0.232698	0.676689
C169	C	0.958218	-0.491284	-0.032728
C170	C	1.291551	-0.157951	0.300605
C171	C	1.624885	0.175383	0.633938
C172	C	0.958155	-0.491379	-0.103428
C173	C	1.291488	-0.158045	0.229906
C174	C	1.624822	0.175288	0.563239
C175	C	0.958475	-0.490904	0.252394
C176	C	1.291808	-0.157571	0.585727
C177	C	1.625141	0.175763	0.919060
C178	C	0.958534	-0.490807	0.323098
C179	C	1.291867	-0.157474	0.656431
C180	C	1.625200	0.175860	0.989765
C181	C	0.886239	-0.376275	0.337890
C182	C	1.219572	-0.042941	0.671224
C183	C	1.552906	0.290392	1.004557
C184	C	0.886176	-0.376369	0.267191
C185	C	1.219509	-0.043036	0.600524
C186	C	1.552842	0.290298	0.933858
C187	C	0.922298	-0.433681	0.224447
C188	C	1.255632	-0.100348	0.557780
C189	C	1.588965	0.232986	0.891113
C190	C	0.922227	-0.433787	0.147785
C191	C	1.255560	-0.100454	0.481118
C192	C	1.588893	0.232879	0.814451
C193	C	0.922166	-0.433867	0.086683
C194	C	1.255500	-0.100534	0.420016
C195	C	1.588833	0.232799	0.753349
H196	H	0.955994	-0.777455	-0.348538
H197	H	1.289327	-0.444122	-0.015205
H198	H	1.622661	-0.110788	0.318129
H199	H	0.856829	-0.329605	0.372702
H200	H	1.190162	0.003728	0.706035
H201	H	1.523496	0.337062	1.039369
H202	H	1.045368	-1.089838	-0.259378
H203	H	1.378702	-0.756504	0.073955
H204	H	1.712035	-0.423171	0.407288
O205	O	1.075304	-0.911681	-0.229418
O206	O	1.408638	-0.578348	0.103916
O207	O	1.741971	-0.245014	0.437249
C208	C	1.105484	-0.973506	-0.199267
C209	C	1.438818	-0.640173	0.134066
C210	C	1.772151	-0.306839	0.467400
H211	H	1.099149	-1.040583	-0.235705
H212	H	1.432483	-0.707250	0.097629
H213	H	1.765816	-0.373917	0.430962
H214	H	1.162340	-0.946250	-0.188558
H215	H	1.495674	-0.612916	0.144775
H216	H	1.829007	-0.279583	0.478109
H217	H	1.079369	-0.983677	-0.149158
H218	H	1.412703	-0.650344	0.184175
H219	H	1.746036	-0.317011	0.517508
H220	H	0.799002	-0.777228	-0.505436
H221	H	1.132335	-0.443894	-0.172103
H222	H	1.465669	-0.110561	0.161230
H223	H	0.869294	-1.175050	-0.435404
H224	H	1.202627	-0.841717	-0.102070
H225	H	1.535961	-0.508384	0.231263
O226	O	0.850696	-0.321181	-0.115668
O227	O	1.184029	0.012152	0.217666
O228	O	1.517362	0.345485	0.550999
C229	C	0.818821	-0.270590	-0.062777
C230	C	1.152154	0.062744	0.270557
C231	C	1.485487	0.396077	0.603890
H232	H	0.847014	-0.267135	-0.012001
H233	H	1.180347	0.066198	0.321333
H234	H	1.513680	0.399532	0.654666
H235	H	0.820434	-0.199621	-0.074120
H236	H	1.153767	0.133712	0.259214
H237	H	1.487101	0.467046	0.592547
H238	H	0.763241	-0.304101	-0.059441
H239	H	1.096574	0.029232	0.273893
H240	H	1.429908	0.362565	0.607226
H241	H	0.856713	-0.329779	0.244435
H242	H	1.190046	0.003555	0.577768
H243	H	1.523379	0.336888	0.911102
O244	O	0.160102	-0.547661	-0.482388
O245	O	0.493435	-0.214328	-0.149054
O246	O	0.826769	0.119006	0.184279
C247	C	0.091726	-0.535315	-0.471520
C248	C	0.425059	-0.201981	-0.138186
C249	C	0.758393	0.131352	0.195147
H250	H	0.091093	-0.465703	-0.440415
H251	H	0.424426	-0.132370	-0.107082
H252	H	0.757760	0.200964	0.226251
H253	H	0.064132	-0.541443	-0.523009
H254	H	0.397465	-0.208110	-0.189676
H255	H	0.730799	0.125223	0.143657
H256	H	0.064662	-0.588812	-0.442347
H257	H	0.397996	-0.255479	-0.109014
H258	H	0.731329	0.077854	0.224319
H259	H	0.801847	-1.089480	-0.502747
H260	H	1.135181	-0.756147	-0.169414
H261	H	1.468514	-0.422814	0.163919
H262	H	0.776885	-0.948136	-0.527640
H263	H	1.110218	-0.614803	-0.194306
H264	H	1.443551	-0.281470	0.139027
H265	H	0.650923	-0.538651	-0.474402
H266	H	0.984256	-0.205318	-0.141069
H267	H	1.317589	0.128015	0.192265
H268	H	0.677944	-0.329304	-0.290457
H269	H	1.011278	0.004029	0.042876
H270	H	1.344611	0.337363	0.376210
H271	H	0.856509	-0.330080	0.016870
H272	H	1.189842	0.003253	0.350203
H273	H	1.523176	0.336586	0.683537
O274	O	0.993743	-0.546418	0.350145
O275	O	1.327076	-0.213085	0.683478
O276	O	1.660409	0.120249	1.016812
C277	C	1.025599	-0.597039	0.297256
C278	C	1.358933	-0.263706	0.630590
C279	C	1.692266	0.069627	0.963923
H280	H	1.032510	-0.560142	0.251577
H281	H	1.365843	-0.226808	0.584910
H282	H	1.699177	0.106525	0.918243
H283	H	1.077811	-0.606117	0.316424
H284	H	1.411144	-0.272784	0.649757
H285	H	1.744477	0.060549	0.983091
H286	H	0.992239	-0.665792	0.281002
H287	H	1.325572	-0.332458	0.614335
H288	H	1.658906	0.000875	0.947668
O289	O	0.993659	-0.546442	0.210872
O290	O	1.326993	-0.213108	0.544205
O291	O	1.660326	0.120225	0.877539
C292	C	1.043789	-0.494717	0.176506
C293	C	1.377123	-0.161384	0.509840
C294	C	1.710456	0.171949	0.843173
H295	H	1.056833	-0.423608	0.206882
H296	H	1.390166	-0.090274	0.540216
H297	H	1.723500	0.243059	0.873549
H298	H	1.091882	-0.526825	0.171521
H299	H	1.425215	-0.193492	0.504854
H300	H	1.758548	0.139841	0.838188
H301	H	1.023191	-0.491894	0.123328
H302	H	1.356524	-0.158561	0.456661
H303	H	1.689858	0.174773	0.789994
O304	O	0.993252	-0.546964	-0.005557
O305	O	1.326586	-0.213631	0.327777
O306	O	1.659919	0.119703	0.661110
C307	C	0.947442	-0.605518	0.027935
C308	C	1.280776	-0.272185	0.361269
C309	C	1.614109	0.061148	0.694602
H310	H	0.893356	-0.611627	0.005951
H311	H	1.226690	-0.278294	0.339285
H312	H	1.560023	0.055039	0.672618
H313	H	0.963297	-0.674696	0.019855
H314	H	1.296631	-0.341363	0.353188
H315	H	1.629964	-0.008030	0.686522
H316	H	0.948630	-0.577581	0.085081
H317	H	1.281963	-0.244248	0.418415
H318	H	1.615297	0.089085	0.751748
O319	O	0.993248	-0.547139	-0.144860
O320	O	1.326581	-0.213805	0.188474
O321	O	1.659914	0.119528	0.521807
C322	C	1.025208	-0.597607	-0.105027
C323	C	1.358541	-0.264273	0.228307
C324	C	1.691874	0.069060	0.561640
H325	H	0.997105	-0.600931	-0.055011
H326	H	1.330438	-0.267598	0.278323
H327	H	1.663771	0.065735	0.611656
H328	H	1.023561	-0.668628	-0.134539
H329	H	1.356894	-0.335295	0.198795
H330	H	1.690227	-0.001961	0.532128
H331	H	1.080800	-0.564072	-0.093322
H332	H	1.414134	-0.230738	0.240012
H333	H	1.747467	0.102595	0.573345
H334	H	0.522689	-0.538654	-0.474417
H335	H	0.856022	-0.205321	-0.141084
H336	H	1.189355	0.128013	0.192249
H337	H	0.295160	-0.538672	-0.474436
H338	H	0.628493	-0.205339	-0.141103
H339	H	0.961826	0.127995	0.192231
O340	O	1.002092	-0.818567	-0.302537
O341	O	1.335425	-0.485234	0.030797
O342	O	1.668759	-0.151900	0.364130
C343	C	1.053618	-0.787162	-0.250998
C344	C	1.386952	-0.453829	0.082335
C345	C	1.720285	-0.120496	0.415668
H346	H	1.086133	-0.841430	-0.248600
H347	H	1.419466	-0.508097	0.084733
H348	H	1.752799	-0.174763	0.418067
H349	H	1.087481	-0.724067	-0.263251
H350	H	1.420814	-0.390733	0.070083
H351	H	1.754147	-0.057400	0.403416
H352	H	1.028909	-0.770596	-0.199470
H353	H	1.362242	-0.437262	0.133863
H354	H	1.695575	-0.103929	0.467197
H355	H	0.193936	-0.329344	-0.290498
H356	H	0.527269	0.003989	0.042835
H357	H	0.860603	0.337323	0.376169
H358	H	0.322171	-0.329336	-0.290483
H359	H	0.655505	0.003997	0.042850
H360	H	0.988838	0.337331	0.376184
H361	H	0.549697	-0.329320	-0.290472
H362	H	0.883030	0.004013	0.042861
H363	H	1.216364	0.337347	0.376194
