data_functionalizedCrystal
_audit_creation_method	'MofGen! by Chris Wilmer'
_symmetry_space_group_name_H-M	'P1'
_symmetry_Int_Tables_number	1
_symmetry_cell_setting	triclinic
loop_
_symmetry_equiv_pos_as_xyz
  x,y,z
_cell_length_a	14.853566
_cell_length_b	14.044190
_cell_length_c	13.330367
_cell_angle_alpha	89.990836
_cell_angle_beta	89.995295
_cell_angle_gamma	88.413096
loop_
_atom_site_label
_atom_site_type_symbol
_atom_site_fract_x
_atom_site_fract_y
_atom_site_fract_z
O1	O	1.206178	0.123761	-0.083368
O2	O	1.706178	0.623761	0.416632
O3	O	0.944887	0.138506	-0.083386
O4	O	1.444887	0.638506	0.416614
O5	O	1.071607	-0.006856	-0.083358
O6	O	1.571607	0.493144	0.416642
O7	O	1.079458	0.269124	-0.083397
O8	O	1.579458	0.769124	0.416603
O9	O	1.071587	-0.006859	0.083489
O10	O	1.571587	0.493141	0.583489
O11	O	0.944866	0.138503	0.083461
O12	O	1.444866	0.638503	0.583461
O13	O	1.206158	0.123758	0.083479
O14	O	1.706158	0.623758	0.583479
Cu15	Cu	1.075510	0.131130	0.098704
Cu16	Cu	1.575510	0.631130	0.598704
Cu17	Cu	1.075534	0.131134	-0.098612
Cu18	Cu	1.575534	0.631134	0.401388
O19	O	1.079437	0.269120	0.083450
O20	O	1.579437	0.769120	0.583450
C21	C	0.911235	0.137837	0.000035
C22	C	1.411235	0.637837	0.500035
C23	C	0.810993	0.135835	0.000029
C24	C	1.310993	0.635835	0.500029
C25	C	0.387148	0.127372	-0.090900
C26	C	0.887148	0.627372	0.409100
C27	C	0.387147	0.127369	0.091003
C28	C	0.887147	0.627369	0.591003
C29	C	0.481330	0.129248	0.091000
C30	C	0.981330	0.629248	0.591000
C31	C	0.528426	0.130191	0.000045
C32	C	1.028426	0.630191	0.500045
C33	C	0.481339	0.129254	-0.090906
C34	C	0.981339	0.629254	0.409094
C35	C	0.528424	0.130195	0.181949
C36	C	1.028424	0.630195	0.681949
C37	C	0.622612	0.132075	0.181950
C38	C	1.122612	0.632075	0.681950
C39	C	0.669711	0.133011	0.090994
C40	C	1.169711	0.633011	0.590994
C41	C	0.622618	0.132073	0.000039
C42	C	1.122618	0.632073	0.500039
C43	C	0.669714	0.133016	-0.090916
C44	C	1.169714	0.633016	0.409084
C45	C	0.622624	0.132071	-0.181872
C46	C	1.122624	0.632071	0.318128
C47	C	0.528438	0.130190	-0.181862
C48	C	1.028438	0.630190	0.318138
C49	C	0.763896	0.134893	0.090984
C50	C	1.263896	0.634893	0.590984
C51	C	0.763906	0.134899	-0.090922
C52	C	1.263906	0.634899	0.409078
C53	C	1.068162	-0.042177	0.000068
C54	C	1.568162	0.457823	0.500068
C55	C	1.057918	-0.147416	0.000076
C56	C	1.557918	0.352584	0.500076
C57	C	1.111844	-0.397632	0.000041
C58	C	1.611844	0.102368	0.500041
C59	C	1.039204	-0.340098	0.000043
C60	C	1.539204	0.159902	0.500043
C61	C	1.049619	-0.232880	0.000062
C62	C	1.549619	0.267120	0.500062
C63	C	1.101431	-0.504860	0.000022
C64	C	1.601431	-0.004860	0.500022
C65	C	1.239809	0.124428	0.000055
C66	C	1.739809	0.624428	0.500055
C67	C	1.340052	0.126429	0.000054
C68	C	1.840052	0.626429	0.500054
C69	C	1.082882	0.304441	0.000022
C70	C	1.582882	0.804441	0.500022
C71	C	1.093126	0.409680	0.000007
C72	C	1.593126	0.909680	0.500007
N73	N	1.075500	0.131127	0.237486
N74	N	1.575500	0.631127	0.737486
N75	N	1.075551	0.131130	-0.237393
N76	N	1.575551	0.631130	0.262607
C77	C	1.019418	0.195475	0.710096
C78	C	1.519418	0.695475	1.210096
C79	C	1.131674	0.066785	0.710089
C80	C	1.631674	0.566785	1.210089
C81	C	1.131664	0.066783	0.605071
C82	C	1.631664	0.566783	1.105071
C83	C	1.075530	0.131128	0.552560
C84	C	1.575530	0.631128	1.052560
C85	C	1.019408	0.195476	0.605068
C86	C	1.519408	0.695476	1.105068
C87	C	1.187792	0.002442	0.552555
C88	C	1.687792	0.502442	1.052555
C89	C	1.187785	0.002437	0.447531
C90	C	1.687785	0.502437	0.947531
C91	C	1.131646	0.066779	0.395018
C92	C	1.631646	0.566779	0.895018
C93	C	1.075520	0.131129	0.447532
C94	C	1.575520	0.631129	0.947532
C95	C	1.019387	0.195474	0.395022
C96	C	1.519387	0.695474	0.895022
C97	C	0.963256	0.259821	0.447534
C98	C	1.463256	0.759821	0.947534
C99	C	0.963269	0.259818	0.552556
C100	C	1.463269	0.759818	1.052556
C101	C	1.131633	0.066782	0.289996
C102	C	1.631633	0.566782	0.789996
C103	C	1.019377	0.195475	0.289993
C104	C	1.519377	0.695475	0.789993
H105	H	0.490088	0.129420	-0.255914
H106	H	0.990088	0.629420	0.244086
C107	C	1.196975	-0.126529	0.670679
C108	C	1.696975	0.373471	1.170679
C109	C	1.249484	-0.068283	0.610283
C110	C	1.749484	0.431717	1.110283
H111	H	1.235061	-0.170197	0.706319
H112	H	1.735061	0.329803	1.206319
H113	H	1.163554	-0.088204	0.716968
H114	H	1.663554	0.411796	1.216968
H115	H	1.156709	-0.160701	0.629705
H116	H	1.656709	0.339299	1.129705
H117	H	1.289745	-0.034107	0.651258
H118	H	1.789745	0.465893	1.151258
H119	H	1.282920	-0.106614	0.563989
H120	H	1.782920	0.393386	1.063989
C121	C	0.897780	-0.351722	0.085809
C122	C	1.397780	0.148278	0.585809
C123	C	0.944688	-0.382299	0.000036
C124	C	1.444688	0.117701	0.500036
H125	H	0.839431	-0.377774	0.085802
H126	H	1.339431	0.122226	0.585802
H127	H	0.929605	-0.372492	0.143977
H128	H	1.429605	0.127508	0.643977
H129	H	0.892479	-0.284159	0.085807
H130	H	1.392479	0.215841	0.585807
H131	H	0.949995	-0.449861	0.000042
H132	H	1.449995	0.050139	0.500042
H133	H	0.912855	-0.361534	-0.058148
H134	H	1.412855	0.138466	0.441852
H135	H	0.660981	0.132845	-0.255927
H136	H	1.160981	0.632845	0.244073
H137	H	0.802245	0.135663	-0.164989
H138	H	1.302245	0.635663	0.335011
C139	C	0.354564	0.208216	0.246036
C140	C	0.854564	0.708216	0.746036
C141	C	0.335383	0.126336	0.190978
C142	C	0.835383	0.626336	0.690978
H143	H	0.322599	0.207578	0.307757
H144	H	0.822599	0.707578	0.807757
H145	H	0.417389	0.209460	0.259047
H146	H	0.917389	0.709460	0.759047
H147	H	0.336695	0.263140	0.208649
H148	H	0.836695	0.763140	0.708649
H149	H	0.353258	0.071412	0.228362
H150	H	0.853258	0.571412	0.728362
H151	H	0.272543	0.125083	0.177970
H152	H	0.772543	0.625083	0.677970
C153	C	0.242774	0.124485	-0.171672
C154	C	0.742774	0.624485	0.328328
C155	C	0.335391	0.126338	-0.190876
C156	C	0.835391	0.626338	0.309124
H157	H	0.210823	0.123853	-0.233395
H158	H	0.710823	0.623853	0.266605
H159	H	0.229775	0.068941	-0.134302
H160	H	0.729775	0.568941	0.365698
H161	H	0.224911	0.179416	-0.134308
H162	H	0.724911	0.679416	0.365692
H163	H	0.353256	0.071403	-0.228234
H164	H	0.853256	0.571403	0.271766
H165	H	0.348396	0.181888	-0.228263
H166	H	0.848396	0.681888	0.271737
H167	H	1.181850	-0.366367	0.000056
H168	H	1.681850	0.133633	0.500056
C169	C	0.867804	0.250831	0.742447
C170	C	1.367804	0.750831	1.242447
C171	C	0.957718	0.266198	0.767815
C172	C	1.457718	0.766198	1.267815
H173	H	0.829714	0.294488	0.778087
H174	H	1.329714	0.794488	1.278087
H175	H	0.859775	0.260047	0.672393
H176	H	1.359775	0.760047	1.172393
H177	H	0.852943	0.187538	0.759672
H178	H	1.352943	0.687538	1.259672
H179	H	0.972581	0.329489	0.750583
H180	H	1.472581	0.829489	1.250583
H181	H	0.965751	0.256990	0.837884
H182	H	1.465751	0.756990	1.337884
C183	C	0.732106	0.052753	0.287482
C184	C	1.232106	0.552753	0.787482
C185	C	0.674371	0.133101	0.281925
C186	C	1.174371	0.633101	0.781925
H187	H	0.764064	0.053388	0.349200
H188	H	1.264064	0.553388	0.849200
H189	H	0.697789	-0.003205	0.283711
H190	H	1.197789	0.496795	0.783711
H191	H	0.773632	0.053593	0.233309
H192	H	1.273632	0.553593	0.733309
H193	H	0.632841	0.132257	0.336093
H194	H	1.132841	0.632257	0.836093
H195	H	0.708691	0.189073	0.285705
H196	H	1.208691	0.689073	0.785705
H197	H	0.973662	0.247870	0.247246
H198	H	1.473662	0.747870	0.747246
C199	C	1.308624	-0.018181	0.329130
C200	C	1.808624	0.481819	0.829130
C201	C	1.249267	-0.068404	0.389689
C202	C	1.749267	0.431596	0.889689
H203	H	1.346519	-0.061951	0.293389
H204	H	1.846519	0.438049	0.793389
H205	H	1.275188	0.020239	0.282931
H206	H	1.775188	0.520239	0.782931
H207	H	1.344430	0.021220	0.370006
H208	H	1.844430	0.521220	0.870006
H209	H	1.213457	-0.107799	0.348813
H210	H	1.713457	0.392201	0.848813
H211	H	1.282706	-0.106840	0.435894
H212	H	1.782706	0.393160	0.935894
H213	H	0.917556	0.312215	0.404768
H214	H	1.417556	0.812215	0.904768
H215	H	0.490071	0.129433	0.256000
H216	H	0.990071	0.629433	0.756000
H217	H	0.802233	0.135671	0.165039
H218	H	1.302233	0.635671	0.665039
C219	C	0.811658	0.315178	0.584932
C220	C	1.311658	0.815178	1.084932
C221	C	0.901576	0.330541	0.610284
C222	C	1.401576	0.830541	1.110284
H223	H	0.773575	0.358835	0.620581
H224	H	1.273575	0.858835	1.120581
H225	H	0.803618	0.324395	0.514881
H226	H	1.303618	0.824395	1.014881
H227	H	0.796798	0.251884	0.602160
H228	H	1.296798	0.751884	1.102160
H229	H	0.916439	0.393832	0.593049
H230	H	1.416439	0.893832	1.093049
H231	H	0.909621	0.321331	0.680351
H232	H	1.409621	0.821331	1.180351
H233	H	1.177381	0.014402	0.752847
H234	H	1.677381	0.514402	1.252847
H235	H	1.177339	0.014396	0.247246
H236	H	1.677339	0.514396	0.747246
