data_functionalizedCrystal
_audit_creation_method	'MofGen! by Chris Wilmer'
_symmetry_space_group_name_H-M	'P1'
_symmetry_Int_Tables_number	1
_symmetry_cell_setting	triclinic
loop_
_symmetry_equiv_pos_as_xyz
  x,y,z
_cell_length_a	10.654550
_cell_length_b	14.044220
_cell_length_c	9.130313
_cell_angle_alpha	89.994483
_cell_angle_beta	89.999724
_cell_angle_gamma	88.836904
loop_
_atom_site_label
_atom_site_type_symbol
_atom_site_fract_x
_atom_site_fract_y
_atom_site_fract_z
O1	O	1.681228	0.133232	-0.121694
O2	O	1.317025	0.145925	-0.121721
O3	O	1.493660	0.001558	-0.121693
O4	O	1.504593	0.277599	-0.121721
O5	O	1.493646	0.001554	0.121906
O6	O	1.317011	0.145921	0.121878
O7	O	1.681214	0.133227	0.121905
Cu8	Cu	1.499112	0.139574	0.144134
Cu9	Cu	1.499128	0.139579	-0.143950
O10	O	1.504580	0.277595	0.121877
C11	C	1.270127	0.144991	0.000075
C12	C	1.130403	0.142202	0.000065
C13	C	1.059459	0.227204	0.000061
C14	C	0.928175	0.224578	0.000086
C15	C	0.938790	0.051942	0.000115
C16	C	1.070072	0.054569	0.000100
C17	C	1.488867	-0.033790	0.000106
C18	C	1.474592	-0.139110	0.000107
C19	C	1.448493	-0.331943	0.000084
C20	C	1.549741	-0.388910	0.000087
C21	C	1.535219	-0.496209	0.000074
C22	C	1.463013	-0.224634	0.000097
C23	C	1.728113	0.134162	0.000106
C24	C	1.867836	0.136950	0.000106
C25	C	1.509372	0.312943	0.000075
C26	C	1.523648	0.418262	0.000064
N27	N	1.499109	0.139570	0.346757
N28	N	1.499139	0.139575	-0.346572
C29	C	1.577355	0.075671	0.423421
C30	C	1.577367	0.075671	0.576758
C31	C	1.420885	0.203477	0.576753
C32	C	1.420867	0.203472	0.423419
H33	H	0.870417	0.293795	0.000086
C34	C	1.316670	-0.374913	0.000086
H35	H	1.324082	-0.442439	0.000095
H36	H	1.272296	-0.354407	-0.084856
H37	H	1.272312	-0.354420	0.085051
H38	H	0.889652	-0.019406	0.000152
C39	C	1.681576	-0.345946	0.000115
H40	H	1.743192	-0.395801	0.000109
H41	H	1.691425	-0.307777	0.085069
H42	H	1.691447	-0.307760	-0.084838
H43	H	1.108577	0.298560	0.000044
H44	H	1.127837	-0.014653	0.000108
C45	C	1.663405	0.005374	0.339097
H46	H	1.709997	-0.032688	0.406722
H47	H	1.719534	0.039858	0.279261
H48	H	1.613759	-0.034436	0.279303
C49	C	1.334805	0.273768	0.339075
H50	H	1.345995	0.264606	0.236777
H51	H	1.355544	0.337174	0.364186
H52	H	1.249772	0.262876	0.364215
C53	C	1.663442	0.005386	0.661082
H54	H	1.710041	-0.032664	0.593459
H55	H	1.613826	-0.034421	0.720914
H56	H	1.719585	0.039888	0.720880
H57	H	1.357184	0.255506	0.639186
