data_functionalizedCrystal
_audit_creation_method	'MofGen! by Chris Wilmer'
_symmetry_space_group_name_H-M	'P1'
_symmetry_Int_Tables_number	1
_symmetry_cell_setting	triclinic
loop_
_symmetry_equiv_pos_as_xyz
  x,y,z
_cell_length_a	13.897447
_cell_length_b	12.759401
_cell_length_c	12.759393
_cell_angle_alpha	90.019559
_cell_angle_beta	89.967926
_cell_angle_gamma	89.982321
loop_
_atom_site_label
_atom_site_type_symbol
_atom_site_fract_x
_atom_site_fract_y
_atom_site_fract_z
Zn1	Zn	-0.384006	-1.606220	-0.594007
Zn2	Zn	-0.545335	-1.606100	-0.418326
Zn3	Zn	-0.384050	-1.430522	-0.418344
Zn4	Zn	-0.545255	-1.430496	-0.593964
O5	O	-0.464662	-1.518334	-0.506160
O6	O	-0.405421	-1.753225	-0.570714
O7	O	-0.523993	-1.582769	-0.271307
O8	O	-0.249063	-1.453890	-0.441671
O9	O	-0.523949	-1.753137	-0.441641
O10	O	-0.249030	-1.582975	-0.570731
O11	O	-0.405497	-1.453773	-0.271320
O12	O	-0.405420	-1.283498	-0.441629
O13	O	-0.523813	-1.453846	-0.740991
O14	O	-0.523856	-1.283478	-0.570657
O15	O	-0.405344	-1.582949	-0.741023
O16	O	-0.680306	-1.582744	-0.441599
O17	O	-0.680247	-1.453729	-0.570640
C18	C	-0.464635	-1.245367	-0.506141
C19	C	-0.464647	-1.128590	-0.506158
C20	C	-0.715276	-1.518249	-0.506136
C21	C	-0.822490	-1.518309	-0.506161
C22	C	-0.526414	-1.073746	-0.573230
C23	C	-0.526422	-0.964022	-0.573240
C24	C	-0.402895	-0.963997	-0.439095
C25	C	-0.402882	-1.073719	-0.439091
C26	C	-0.597734	-1.073760	-0.650675
C27	C	-0.597743	-0.964036	-0.650684
C28	C	-0.909560	-1.518359	-0.506185
C29	C	-1.018792	-1.518433	-0.506212
C30	C	-0.213069	-1.518449	-0.506208
C31	C	-0.105855	-1.518498	-0.506228
C32	C	-0.464564	-1.518408	-0.780194
C33	C	-0.464523	-1.518439	-0.896970
C34	C	-0.464681	-0.792368	-0.506176
C35	C	-0.464668	-0.909144	-0.506170
C36	C	-0.402830	-1.585673	-0.951851
C37	C	-0.402795	-1.585698	-1.061575
C38	C	-0.526154	-1.451253	-1.061529
C39	C	-0.526184	-1.451223	-0.951807
C40	C	-0.331612	-1.663297	-0.951878
C41	C	-0.331577	-1.663322	-1.061602
C42	C	-0.464689	-1.518322	-0.233193
C43	C	-0.464459	-1.518494	-0.116417
H44	H	-0.352579	-1.118369	-0.384481
O45	O	-0.592699	-1.378696	-0.892593
H46	H	-0.549502	-1.325267	-0.842627
H47	H	-0.352607	-0.919307	-0.384493
O48	O	-0.358082	-1.771098	-1.101062
H49	H	-0.424298	-1.765828	-1.149375
O50	O	-0.696667	-0.924552	-0.621614
H51	H	-0.725695	-0.876264	-0.686671
H52	H	-0.260598	-1.634215	-1.095650
H53	H	-0.256910	-1.641535	-0.922123
O54	O	-0.571332	-1.113257	-0.758499
H55	H	-0.624668	-1.084232	-0.816344
H56	H	-0.571076	-0.930040	-0.728035
H57	H	-0.576354	-1.396526	-1.106190
H58	H	-0.358395	-1.740566	-0.917843
O59	O	-0.691682	-1.118823	-0.611891
H60	H	-0.741502	-1.053980	-0.591338
