data_functionalizedCrystal
_audit_creation_method	'MofGen! by Chris Wilmer'
_symmetry_space_group_name_H-M	'P1'
_symmetry_Int_Tables_number	1
_symmetry_cell_setting	triclinic
loop_
_symmetry_equiv_pos_as_xyz
  x,y,z
_cell_length_a	14.853566
_cell_length_b	13.930277
_cell_length_c	16.992695
_cell_angle_alpha	90.004629
_cell_angle_beta	87.151319
_cell_angle_gamma	90.004369
loop_
_atom_site_label
_atom_site_type_symbol
_atom_site_fract_x
_atom_site_fract_y
_atom_site_fract_z
O1	O	1.203597	0.079768	0.102374
O2	O	1.703597	0.579768	0.602374
O3	O	0.941999	0.079784	0.114571
O4	O	1.441999	0.579784	0.614571
O5	O	1.071749	0.079769	-0.005671
O6	O	1.571749	0.579769	0.494329
O7	O	1.073847	0.079784	0.222616
O8	O	1.573847	0.579784	0.722616
O9	O	1.071730	-0.079893	-0.005674
O10	O	1.571730	0.420107	0.494326
O11	O	0.941980	-0.079878	0.114568
O12	O	1.441980	0.420122	0.614568
O13	O	1.203578	-0.079894	0.102371
O14	O	1.703578	0.420106	0.602371
Zn15	Zn	1.072776	-0.105235	0.108469
Zn16	Zn	1.572776	0.394765	0.608469
Zn17	Zn	1.072801	0.105126	0.108473
Zn18	Zn	1.572801	0.605126	0.608473
O19	O	1.073828	-0.079878	0.222614
O20	O	1.573828	0.420122	0.722614
C21	C	0.908362	-0.000045	0.114017
C22	C	1.408362	0.499955	0.614017
C23	C	0.808161	-0.000039	0.112361
C24	C	1.308161	0.499961	0.612361
C25	C	0.384492	0.086975	0.105360
C26	C	0.884492	0.586975	0.605360
C27	C	0.384492	-0.087094	0.105358
C28	C	0.884492	0.412906	0.605358
C29	C	0.478636	-0.087091	0.106913
C30	C	0.978636	0.412909	0.606913
C31	C	0.525712	-0.000053	0.107692
C32	C	1.025712	0.499947	0.607692
C33	C	0.478645	0.086981	0.106918
C34	C	0.978645	0.586981	0.606918
C35	C	0.525710	-0.174124	0.107696
C36	C	1.025710	0.325876	0.607696
C37	C	0.619860	-0.174124	0.109251
C38	C	1.119860	0.325876	0.609251
C39	C	0.666938	-0.087086	0.110026
C40	C	1.166938	0.412914	0.610026
C41	C	0.619865	-0.000048	0.109250
C42	C	1.119865	0.499952	0.609250
C43	C	0.666941	0.086990	0.110029
C44	C	1.166941	0.586990	0.610029
C45	C	0.619869	0.174029	0.109248
C46	C	1.119869	0.674029	0.609248
C47	C	0.525723	0.174020	0.107692
C48	C	1.025723	0.674020	0.607692
C49	C	0.761085	-0.087077	0.111582
C50	C	1.261085	0.412923	0.611582
C51	C	0.761093	0.086996	0.111587
C52	C	1.261093	0.586996	0.611587
N53	N	1.072765	-0.248802	0.108467
N54	N	1.572765	0.251198	0.608467
C55	C	1.015344	-0.701064	0.161695
C56	C	1.515344	-0.201064	0.661695
C57	C	1.130283	-0.701047	0.055244
C58	C	1.630283	-0.201047	0.555244
C59	C	1.130272	-0.600551	0.055242
C60	C	1.630272	-0.100551	0.555242
C61	C	1.072797	-0.550307	0.108468
C62	C	1.572797	-0.050307	0.608468
C63	C	1.015333	-0.600559	0.161696
C64	C	1.515333	-0.100559	0.661696
C65	C	1.187742	-0.550292	0.002020
C66	C	1.687742	-0.050292	0.502020
C67	C	1.187734	-0.449790	0.002016
C68	C	1.687734	0.050210	0.502016
C69	C	1.130254	-0.399544	0.055239
C70	C	1.630254	0.100456	0.555239
C71	C	1.072786	-0.449802	0.108468
C72	C	1.572786	0.050198	0.608468
C73	C	1.015312	-0.399558	0.161694
C74	C	1.515312	0.100442	0.661694
C75	C	0.957839	-0.449814	0.214921
C76	C	1.457839	0.050186	0.714921
C77	C	0.957853	-0.550313	0.214918
C78	C	1.457853	-0.050313	0.714918
C79	C	1.130240	-0.299046	0.055241
C80	C	1.630240	0.200954	0.555241
C81	C	1.015301	-0.299053	0.161695
C82	C	1.515301	0.200947	0.661695
C83	C	1.237215	-0.000063	0.102925
C84	C	1.737215	0.499937	0.602925
C85	C	1.337416	-0.000062	0.104581
C86	C	1.837416	0.499938	0.604581
C87	C	1.069042	-0.000062	-0.034888
C88	C	1.569042	0.499938	0.465112
C89	C	1.060991	-0.000061	-0.121941
C90	C	1.560991	0.499939	0.378059
N91	N	1.072819	0.248692	0.108469
N92	N	1.572819	0.748692	0.608469
C93	C	1.138667	-0.000067	-0.172097
C94	C	1.638667	0.499933	0.327903
C95	C	1.131097	-0.000058	-0.253892
C96	C	1.631097	0.499942	0.246108
C97	C	1.045851	-0.000049	-0.285529
C98	C	1.545851	0.499951	0.214471
C99	C	0.968170	-0.000040	-0.235367
C100	C	1.468170	0.499960	0.264633
C101	C	0.975740	-0.000043	-0.153573
C102	C	1.475740	0.499957	0.346427
C103	C	1.014475	-0.000034	-0.529161
C104	C	1.514475	0.499966	-0.029161
C105	C	1.006910	-0.000034	-0.610961
C106	C	1.506910	0.499966	-0.110961
C107	C	1.169838	-0.000049	-0.629481
C108	C	1.669838	0.499951	-0.129481
C109	C	1.177401	-0.000058	-0.547685
C110	C	1.677401	0.499942	-0.047685
C111	C	1.099720	-0.000044	-0.497529
C112	C	1.599720	0.499956	0.002471
N113	N	1.038112	-0.000042	-0.369136
N114	N	1.538112	0.499958	0.130864
N115	N	1.107460	-0.000044	-0.413924
N116	N	1.607460	0.499956	0.086076
C117	C	1.076535	-0.000045	0.251830
C118	C	1.576535	0.499955	0.751830
C119	C	1.084586	-0.000040	0.338883
C120	C	1.584586	0.499960	0.838883
H121	H	0.658178	-0.244997	0.109886
H122	H	1.158178	0.255003	0.609886
C123	C	0.812861	-0.182806	0.112422
C124	C	1.312861	0.317194	0.612422
H125	H	0.771341	-0.234643	0.111727
H126	H	1.271341	0.265357	0.611727
H127	H	0.846017	-0.186432	0.158713
H128	H	1.346017	0.313568	0.658713
H129	H	0.853160	-0.186413	0.067323
H130	H	1.353160	0.313587	0.567323
C131	C	0.473943	0.269751	0.106842
C132	C	0.973943	0.769751	0.606842
H133	H	0.411130	0.257280	0.105813
H134	H	0.911130	0.757280	0.605813
H135	H	0.492949	0.305516	0.061407
H136	H	0.992949	0.805516	0.561407
H137	H	0.485791	0.305511	0.152797
H138	H	0.985791	0.805511	0.652797
H139	H	1.194349	-0.000064	-0.294727
H140	H	1.694349	0.499936	0.205273
H141	H	0.968494	-0.258150	0.205035
H142	H	1.468494	0.241850	0.705035
H143	H	1.234530	-0.408878	-0.041324
H144	H	1.734530	0.091122	0.458676
H145	H	1.177082	-0.741959	0.011913
H146	H	1.677082	-0.241959	0.511913
H147	H	0.911062	-0.591238	0.258254
H148	H	1.411062	-0.091238	0.758254
H149	H	0.346163	0.157840	0.104721
H150	H	0.846163	0.657840	0.604721
C151	C	0.671659	0.269764	0.110106
C152	C	1.171659	0.769764	0.610106
H153	H	0.734470	0.257296	0.111144
H154	H	1.234470	0.757296	0.611144
H155	H	0.652647	0.305533	0.155541
H156	H	1.152647	0.805533	0.655541
H157	H	0.659823	0.305519	0.064152
H158	H	1.159823	0.805519	0.564152
H159	H	0.487374	-0.244985	0.107066
H160	H	0.987374	0.255015	0.607066
H161	H	0.346157	-0.157956	0.104729
H162	H	0.846157	0.342044	0.604729
C163	C	1.232438	-0.000076	-0.137304
C164	C	1.732438	0.499924	0.362696
H165	H	1.277613	-0.000069	-0.178893
H166	H	1.777613	0.499931	0.321107
H167	H	1.238774	-0.055754	-0.105785
H168	H	1.738774	0.444246	0.394215
H169	H	1.238783	0.055608	-0.105778
H170	H	1.738783	0.555608	0.394222
H171	H	0.951221	-0.000023	-0.488334
H172	H	1.451221	0.499977	0.011666
C173	C	1.193450	-0.243768	-0.003301
C174	C	1.693450	0.256232	0.496699
H175	H	1.227680	-0.288086	-0.035001
H176	H	1.727680	0.211914	0.464999
H177	H	1.233003	-0.204548	0.024968
H178	H	1.733003	0.295452	0.524968
H179	H	1.158659	-0.204578	-0.036001
H180	H	1.658659	0.295422	0.463999
H181	H	0.968548	-0.741985	0.205030
H182	H	1.468548	-0.241985	0.705030
C183	C	0.894622	-0.394539	0.273467
C184	C	1.394622	0.105461	0.773467
H185	H	0.902850	-0.327489	0.265839
H186	H	1.402850	0.172511	0.765839
H187	H	0.908177	-0.411002	0.325819
H188	H	1.408177	0.088998	0.825819
H189	H	0.833833	-0.411013	0.264848
H190	H	1.333833	0.088987	0.764848
C191	C	1.255282	-0.000054	-0.684649
C192	C	1.755282	0.499946	-0.184649
H193	H	1.307134	-0.000065	-0.654091
H194	H	1.807134	0.499935	-0.154091
H195	H	1.255723	0.055624	-0.716937
H196	H	1.755723	0.555624	-0.216937
H197	H	1.255711	-0.055738	-0.716944
H198	H	1.755711	0.444262	-0.216944
H199	H	1.234541	-0.591204	-0.041311
H200	H	1.734541	-0.091204	0.458689
C201	C	1.271171	-0.000055	-0.512890
C202	C	1.771171	0.499945	-0.012890
H203	H	1.316350	-0.000047	-0.554477
H204	H	1.816350	0.499953	-0.054477
H205	H	1.277508	-0.055731	-0.481369
H206	H	1.777508	0.444269	0.018631
H207	H	1.277512	0.055632	-0.481366
H208	H	1.777512	0.555632	0.018634
H209	H	0.799416	0.157873	0.112219
H210	H	1.299416	0.657873	0.612219
H211	H	0.937490	-0.000043	-0.636716
H212	H	1.437490	0.499957	-0.136716
H213	H	0.898761	-0.000028	-0.261132
H214	H	1.398761	0.499972	0.238868
H215	H	0.912489	-0.000038	-0.112736
H216	H	1.412489	0.499962	0.387264
