data_functionalizedCrystal
_audit_creation_method	'MofGen! by Chris Wilmer'
_symmetry_space_group_name_H-M	'P1'
_symmetry_Int_Tables_number	1
_symmetry_cell_setting	triclinic
loop_
_symmetry_equiv_pos_as_xyz
  x,y,z
_cell_length_a	23.532361
_cell_length_b	13.339070
_cell_length_c	11.804365
_cell_angle_alpha	74.887832
_cell_angle_beta	78.233867
_cell_angle_gamma	80.770519
loop_
_atom_site_label
_atom_site_type_symbol
_atom_site_fract_x
_atom_site_fract_y
_atom_site_fract_z
O1	O	0.783259	-0.101893	-0.098900
O2	O	0.620262	-0.119675	-0.098928
O3	O	0.683053	0.036286	-0.098913
O4	O	0.720467	-0.257854	-0.098914
O5	O	0.666516	-0.004732	0.099139
O6	O	0.603725	-0.160693	0.099125
O7	O	0.766722	-0.142910	0.099152
Cu8	Cu	0.683713	-0.155547	0.117222
Cu9	Cu	0.703270	-0.107039	-0.116998
O10	O	0.703930	-0.298871	0.099138
C11	C	0.590705	-0.139738	0.000095
C12	C	0.527272	-0.138396	0.000084
C13	C	0.262097	-0.110181	-0.107867
C14	C	0.321702	-0.111448	-0.107870
O15	O	0.360194	-0.093054	-0.199682
N16	N	0.342496	-0.134447	0.000089
C17	C	0.303682	-0.156171	0.108057
O18	O	0.326842	-0.175849	0.199884
C19	C	0.244078	-0.154896	0.108059
C20	C	0.223288	-0.131905	0.000093
C21	C	0.241306	-0.087191	-0.215824
C22	C	0.181706	-0.085926	-0.215821
C23	C	0.142897	-0.107651	-0.107860
C24	C	0.163688	-0.130640	0.000097
C25	C	0.205264	-0.176611	0.216027
C26	C	0.145657	-0.175334	0.216019
C27	C	0.124867	-0.152343	0.108053
C28	C	0.065278	-0.151100	0.108060
N29	N	0.044484	-0.128100	0.000102
C30	C	0.083293	-0.106376	-0.107859
C31	C	0.428854	-0.158844	0.108046
C32	C	0.488457	-0.160126	0.108045
C33	C	0.506473	-0.115402	-0.107883
C34	C	0.446869	-0.114127	-0.107881
C35	C	0.408060	-0.135845	0.000087
C36	C	-0.041872	-0.103722	-0.107843
C37	C	-0.101478	-0.102463	-0.107830
C38	C	-0.119489	-0.147181	0.108097
C39	C	-0.059888	-0.148446	0.108085
C40	C	-0.021080	-0.126711	0.000105
O41	O	0.026752	-0.169479	0.199826
O42	O	0.060123	-0.086688	-0.199670
C43	C	0.668465	0.053402	0.000110
C44	C	0.649627	0.165510	0.000102
C45	C	0.796279	-0.122847	0.000127
C46	C	0.859713	-0.124187	0.000130
C47	C	0.718519	-0.315987	0.000112
C48	C	0.737357	-0.428094	0.000112
N49	N	0.669962	-0.189664	0.281960
C50	C	0.796102	0.531813	0.000127
C51	C	0.813802	0.426481	0.000142
C52	C	0.772760	0.361233	0.000131
C53	C	0.714015	0.401328	0.000108
C54	C	0.696312	0.506669	0.000103
C55	C	0.672970	0.336089	0.000107
C56	C	0.614224	0.376184	0.000083
C57	C	0.596525	0.481515	0.000077
C58	C	0.637567	0.546762	0.000088
C59	C	0.690672	0.230748	0.000111
C60	C	0.590882	0.205603	0.000087
C61	C	0.573182	0.310936	0.000073
N62	N	0.717025	-0.072914	-0.281735
C63	C	0.750044	0.009034	0.655926
C64	C	0.760445	0.034848	0.531267
C65	C	0.737825	-0.021278	0.468934
C66	C	0.704802	-0.103222	0.531273
C67	C	0.694403	-0.129044	0.655944
C68	C	0.682185	-0.159355	0.468952
C69	C	0.649162	-0.241300	0.531291
C70	C	0.638764	-0.267117	0.655950
C71	C	0.661384	-0.210991	0.718283
C72	C	0.692583	-0.133534	0.344280
C73	C	0.636943	-0.271611	0.344298
C74	C	0.626541	-0.297425	0.468958
H75	H	-0.010281	-0.086024	-0.195771
N76	N	0.650168	-0.238842	0.852741
H77	H	0.606706	-0.230728	0.882778
H78	H	0.669542	-0.190833	0.882666
N79	N	0.796059	0.123223	0.464032
H80	H	0.836446	0.107470	0.485725
H81	H	0.776331	0.190314	0.485756
H82	H	0.719471	-0.066815	0.293535
H83	H	0.164785	-0.067201	-0.303738
H84	H	0.746295	-0.000256	0.367431
H85	H	0.599654	-0.364147	0.519729
H86	H	0.429947	-0.095406	-0.195796
N87	N	0.546612	0.135242	0.000063
H88	H	0.506711	0.176622	0.000056
H89	H	0.545652	0.075784	0.073483
N90	N	0.840363	0.602178	0.000159
H91	H	0.820232	0.674989	0.000159
H92	H	0.871380	0.604470	-0.073251
H93	H	0.768462	0.054719	0.706686
H94	H	0.397259	-0.176543	0.195972
H95	H	0.623158	0.632535	0.000072
H96	H	0.611881	-0.333848	0.706706
H97	H	0.538083	-0.097712	-0.195790
H98	H	-0.042958	-0.167187	0.195999
N99	N	0.103799	-0.198754	0.332475
H100	H	0.125960	-0.212820	0.400857
H101	H	0.084240	-0.262242	0.337540
H102	H	0.618525	-0.317316	0.293548
N103	N	0.533162	0.524756	0.000085
H104	H	0.509847	0.467442	0.000084
H105	H	0.529770	0.583120	-0.073332
H106	H	0.525350	0.343596	0.000054
H107	H	0.272900	-0.069496	-0.303743
N108	N	-0.123901	-0.077665	-0.224283
H109	H	-0.090268	-0.064091	-0.292673
H110	H	-0.153514	-0.013547	-0.228984
H111	H	0.505380	-0.178864	0.195962
H112	H	-0.151098	-0.164873	0.195995
N113	N	0.227671	-0.201410	0.332484
H114	H	0.208079	-0.148341	0.379670
H115	H	0.271320	-0.198943	0.316031
N116	N	0.754029	0.187512	0.000139
H117	H	0.778894	0.226543	-0.073273
H118	H	0.758966	0.110880	0.000189
N119	N	0.791847	0.247626	0.000133
H120	H	0.809567	0.211980	0.073556
H121	H	0.821812	0.242489	-0.073329
N122	N	0.877158	0.383235	0.000173
H123	H	0.900472	0.440550	0.000177
H124	H	0.892809	0.355279	-0.073242
