data_functionalizedCrystal
_audit_creation_method	'MofGen! by Chris Wilmer'
_symmetry_space_group_name_H-M	'P1'
_symmetry_Int_Tables_number	1
_symmetry_cell_setting	triclinic
loop_
_symmetry_equiv_pos_as_xyz
  x,y,z
_cell_length_a	14.908571
_cell_length_b	16.625545
_cell_length_c	14.908308
_cell_angle_alpha	86.733861
_cell_angle_beta	90.175053
_cell_angle_gamma	93.279815
loop_
_atom_site_label
_atom_site_type_symbol
_atom_site_fract_x
_atom_site_fract_y
_atom_site_fract_z
Zn1	Zn	1.345266	0.420778	-0.587574
Zn2	Zn	1.353838	0.548312	-0.437211
Zn3	Zn	1.203583	0.405291	-0.428572
Zn4	Zn	1.194866	0.547354	-0.578863
O5	O	1.274388	0.480434	-0.508055
O6	O	1.472229	0.444578	-0.574889
O7	O	1.341141	0.523260	-0.310241
O8	O	1.222438	0.294518	-0.449693
O9	O	1.478526	0.538277	-0.464418
O10	O	1.326533	0.305896	-0.566511
O11	O	1.230750	0.418183	-0.303893
O12	O	1.076601	0.417254	-0.441247
O13	O	1.207581	0.536644	-0.705843
O14	O	1.070196	0.521627	-0.551665
O15	O	1.318080	0.443649	-0.712243
O16	O	1.332689	0.661013	-0.455972
O17	O	1.215893	0.660309	-0.560043
C18	C	1.040773	0.467657	-0.494574
C19	C	0.940831	0.462211	-0.488828
C20	C	0.746416	0.560814	-0.592855
C21	C	0.652511	0.555700	-0.587460
C22	C	0.659113	0.446865	-0.472647
C23	C	0.753018	0.451979	-0.478042
C24	C	0.796667	0.508957	-0.538148
C25	C	0.890574	0.514074	-0.543538
C26	C	0.897174	0.405236	-0.428730
C27	C	0.803269	0.400122	-0.423334
C28	C	1.274298	0.689918	-0.508021
C29	C	1.274340	0.779543	-0.508041
C30	C	1.274481	1.107732	-0.508157
C31	C	1.274439	1.016419	-0.508127
C32	C	1.274410	0.943640	-0.508099
C33	C	1.274369	0.852322	-0.508070
C34	C	1.508915	0.493262	-0.521589
C35	C	1.608856	0.498728	-0.527356
C36	C	1.260902	0.491767	-0.742580
C37	C	1.255155	0.496597	-0.842521
C38	C	1.274493	1.270134	-0.508120
C39	C	1.274517	1.180517	-0.508174
C40	C	1.359416	0.408817	-1.036985
C41	C	1.354019	0.413353	-1.130888
C42	C	1.238961	0.510198	-1.124232
C43	C	1.244358	0.505663	-1.030329
C44	C	1.304588	0.454972	-0.986709
C45	C	1.309989	0.450441	-0.892804
C46	C	1.194927	0.547282	-0.886149
C47	C	1.189530	0.551817	-0.980052
C48	C	1.287873	0.469089	-0.274445
C49	C	1.293794	0.464042	-0.174515
H50	H	0.926111	0.560469	-0.592478
H51	H	0.938098	0.363011	-0.384181
C52	C	0.794438	0.623489	-0.658963
C53	C	0.781934	0.714073	-0.650701
C54	C	0.829954	0.776749	-0.716808
C55	C	0.890479	0.748842	-0.791177
C56	C	0.902986	0.658253	-0.799442
C57	C	0.854966	0.595577	-0.733335
H58	H	0.737127	0.734736	-0.595646
H59	H	0.820695	0.843809	-0.710690
H60	H	0.926027	0.795238	-0.840114
H61	H	0.947793	0.637590	-0.854497
H62	H	0.864224	0.528517	-0.739453
H63	H	1.359033	0.409167	-0.857290
C64	C	0.597235	0.612747	-0.647636
C65	C	0.645251	0.675417	-0.713747
C66	C	0.589974	0.732465	-0.773927
C67	C	0.486682	0.726843	-0.767997
C68	C	0.438661	0.664170	-0.701884
C69	C	0.493937	0.607122	-0.641703
H70	H	0.721719	0.679580	-0.718139
H71	H	0.625523	0.778859	-0.822868
H72	H	0.445763	0.769073	-0.812546
H73	H	0.362192	0.660006	-0.697491
H74	H	0.458388	0.560728	-0.592762
H75	H	0.623558	0.400472	-0.423717
H76	H	0.767717	0.353730	-0.374401
C77	C	1.425671	0.353066	-0.988995
C78	C	1.390456	0.284519	-0.922202
C79	C	1.456713	0.228768	-0.874213
C80	C	1.558185	0.241564	-0.893017
C81	C	1.593405	0.310115	-0.959813
C82	C	1.527148	0.365866	-1.007803
H83	H	1.315336	0.275043	-0.908279
H84	H	1.430640	0.178022	-0.824766
H85	H	1.607232	0.200294	-0.857493
H86	H	1.668525	0.319590	-0.973736
H87	H	1.553221	0.416611	-1.057250
C88	C	1.414333	0.362585	-1.186194
C89	C	1.480581	0.306829	-1.138209
C90	C	1.540897	0.256058	-1.193515
C91	C	1.534964	0.261043	-1.296805
C92	C	1.468713	0.316801	-1.344795
C93	C	1.408397	0.367572	-1.289489
H94	H	1.484976	0.303138	-1.061742
H95	H	1.589940	0.214783	-1.157988
H96	H	1.579613	0.223459	-1.337745
H97	H	1.464319	0.320492	-1.421262
H98	H	1.359354	0.408847	-1.325016
H99	H	1.189924	0.551468	-1.159764
H100	H	1.140490	0.593086	-1.015580
C101	C	1.134591	0.598046	-0.830853
C102	C	1.067719	0.556125	-0.762244
C103	C	1.007380	0.606886	-0.706953
C104	C	1.013913	0.699569	-0.720270
C105	C	1.080788	0.741496	-0.788882
C106	C	1.141127	0.690734	-0.844173
H107	H	1.062881	0.487510	-0.752384
H108	H	0.957875	0.575849	-0.656162
H109	H	0.969246	0.737146	-0.679340
H110	H	1.085626	0.810110	-0.798742
H111	H	1.190632	0.721772	-0.894964
