data_functionalizedCrystal
_audit_creation_method	'MofGen! by Chris Wilmer'
_symmetry_space_group_name_H-M	'P1'
_symmetry_Int_Tables_number	1
_symmetry_cell_setting	triclinic
loop_
_symmetry_equiv_pos_as_xyz
  x,y,z
_cell_length_a	19.121424
_cell_length_b	19.121073
_cell_length_c	12.759393
_cell_angle_alpha	87.599309
_cell_angle_beta	87.588001
_cell_angle_gamma	94.806271
loop_
_atom_site_label
_atom_site_type_symbol
_atom_site_fract_x
_atom_site_fract_y
_atom_site_fract_z
Zn1	Zn	1.063718	-0.234159	0.541304
Zn2	Zn	1.563718	0.265841	1.041304
Zn3	Zn	1.058598	-0.351846	0.373432
Zn4	Zn	1.558598	0.148154	0.873432
Zn5	Zn	0.946049	-0.239219	0.373439
Zn6	Zn	1.446049	0.260781	0.873439
Zn7	Zn	0.940995	-0.356812	0.556859
Zn8	Zn	1.440995	0.143188	1.056859
O9	O	1.002340	-0.295509	0.461258
O10	O	1.502340	0.204491	0.961258
O11	O	1.161501	-0.245574	0.512523
O12	O	1.661501	0.254426	1.012523
O13	O	1.043640	-0.336945	0.226416
O14	O	1.543640	0.163055	0.726416
O15	O	0.965916	-0.140082	0.389201
O16	O	1.465916	0.359918	0.889201
O17	O	1.157739	-0.332038	0.389188
O18	O	1.657739	0.167962	0.889188
O19	O	1.052367	-0.136364	0.512530
O20	O	1.552367	0.363636	1.012530
O21	O	0.960951	-0.254198	0.226421
O22	O	1.460951	0.245802	0.726421
O23	O	0.846916	-0.259014	0.404283
O24	O	1.346916	0.240986	0.904283
O25	O	0.957303	-0.340503	0.701812
O26	O	1.457303	0.159497	1.201812
O27	O	0.843203	-0.345409	0.539040
O28	O	1.343203	0.154591	1.039040
O29	O	1.047467	-0.250390	0.690384
O30	O	1.547467	0.249610	1.190384
O31	O	1.038739	-0.450970	0.404270
O32	O	1.538739	0.049030	0.904270
O33	O	0.952337	-0.454619	0.539033
O34	O	1.452337	0.045381	1.039033
C35	C	0.819530	-0.303300	0.473351
C36	C	1.319530	0.196700	0.973351
C37	C	0.741322	-0.306650	0.478550
C38	C	1.241322	0.193350	0.978550
C39	C	0.298899	-0.327834	0.511553
C40	C	0.798899	0.172166	1.011553
C41	C	0.372383	-0.324691	0.506648
C42	C	0.872383	0.175309	1.006648
C43	C	0.411039	-0.278066	0.434142
C44	C	0.911039	0.221934	0.934142
C45	C	0.376206	-0.234586	0.366528
C46	C	0.876206	0.265414	0.866528
C47	C	0.302723	-0.237732	0.371428
C48	C	0.802723	0.262268	0.871428
C49	C	0.633006	-0.266316	0.415837
C50	C	1.133006	0.233684	0.915837
C51	C	0.706494	-0.263171	0.410944
C52	C	1.206494	0.236829	0.910944
C53	C	0.702666	-0.353278	0.551063
C54	C	1.202666	0.146722	1.051063
C55	C	0.629182	-0.356417	0.555961
C56	C	1.129182	0.143583	1.055961
C57	C	0.594356	-0.312939	0.488344
C58	C	1.094356	0.187061	0.988344
C59	C	0.486152	-0.274852	0.429129
C60	C	0.986152	0.225148	0.929129
C61	C	0.519244	-0.316158	0.493352
C62	C	1.019244	0.183842	0.993352
C63	C	0.994454	-0.478325	0.473360
C64	C	1.494454	0.021675	0.973360
C65	C	0.991144	-0.556532	0.478568
C66	C	1.491144	-0.056532	0.978568
C67	C	0.970191	-0.998950	0.511623
C68	C	1.470191	-0.498950	1.011623
C69	C	0.973301	-0.925466	0.506718
C70	C	1.473301	-0.425466	1.006718
C71	C	1.019874	-0.886802	0.434147
C72	C	1.519874	-0.386802	0.934147
C73	C	1.063346	-0.921625	0.366485
C74	C	1.563346	-0.421625	0.866485
C75	C	1.060240	-0.995107	0.371396
C76	C	1.560240	-0.495107	0.871396
C77	C	1.031509	-0.664837	0.415816
C78	C	1.531509	-0.164837	0.915816
C79	C	1.034611	-0.591350	0.410909
C80	C	1.534611	-0.091350	0.910909
C81	C	0.944566	-0.595196	0.551144
C82	C	1.444566	-0.095196	1.051144
C83	C	0.941461	-0.668679	0.556044
C84	C	1.441461	-0.168679	1.056044
C85	C	0.984935	-0.703496	0.488385
C86	C	1.484935	-0.203496	0.988385
C87	C	1.023052	-0.811690	0.429130
C88	C	1.523052	-0.311690	0.929130
C89	C	0.981760	-0.778607	0.493409
C90	C	1.481760	-0.278607	0.993409
C91	C	1.185864	-0.287688	0.449119
C92	C	1.685864	0.212312	0.949119
C93	C	1.264071	-0.284355	0.443946
C94	C	1.764071	0.215645	0.943946
C95	C	1.002392	-0.295436	0.735284
C96	C	1.502392	0.204564	1.235284
C97	C	1.002415	-0.295405	0.852057
C98	C	1.502415	0.204595	1.352057
C99	C	1.010276	-0.111978	0.449131
C100	C	1.510276	0.388022	0.949131
C101	C	1.013658	-0.033768	0.443963
C102	C	1.513658	0.466232	0.943963
C103	C	1.002331	-0.295529	0.188293
C104	C	1.502331	0.204471	0.688293
C105	C	1.002453	-0.295356	0.071498
C106	C	1.502453	0.204644	0.571498
C107	C	1.049369	-0.248478	0.900970
C108	C	1.549369	0.251522	1.400970
C109	C	1.049387	-0.248452	1.010691
C110	C	1.549387	0.251548	1.510691
C111	C	0.955493	-0.342285	1.022578
C112	C	1.455493	0.157715	1.522578
C113	C	0.955472	-0.342307	0.912859
C114	C	1.455472	0.157693	1.412859
C115	C	1.096312	-0.201576	0.840168
C116	C	1.596312	0.298424	1.340168
C117	C	1.143271	-0.154646	0.889081
C118	C	1.643271	0.345354	1.389081
C119	C	1.143289	-0.154620	0.998802
C120	C	1.643289	0.345380	1.498802
C121	C	1.096347	-0.201523	1.059611
C122	C	1.596347	0.298477	1.559611
H123	H	0.731030	-0.388676	0.606112
H124	H	1.231030	0.111324	1.106112
Cl125	Cl	0.896488	-0.401248	1.099024
Cl126	Cl	1.396488	0.098752	1.599024
H127	H	1.066907	-0.693176	0.360720
H128	H	1.566907	-0.193176	0.860720
H129	H	0.604659	-0.230916	0.360774
H130	H	1.104659	0.269084	0.860774
H131	H	0.597714	-0.394386	0.615002
H132	H	1.097714	0.105614	1.115002
H133	H	1.096304	-0.201593	0.750827
H134	H	1.596304	0.298407	1.250827
Cl135	Cl	1.121900	-0.873019	0.275258
Cl136	Cl	1.621900	-0.373019	0.775258
Cl137	Cl	0.755089	-0.204555	0.319782
Cl138	Cl	1.255089	0.295445	0.819782
Cl139	Cl	1.202324	-0.095626	1.060289
Cl140	Cl	1.702324	0.404374	1.560289
H141	H	1.096358	-0.201491	1.148953
H142	H	1.596358	0.298509	1.648953
H143	H	0.267431	-0.365797	0.570601
H144	H	0.767431	0.134203	1.070601
Cl145	Cl	0.424801	-0.175973	0.275373
Cl146	Cl	0.924801	0.324027	0.775373
H147	H	1.072539	-0.559873	0.351808
H148	H	1.572539	-0.059873	0.851808
H149	H	0.937907	-0.897117	0.561812
H150	H	1.437907	-0.397117	1.061812
H151	H	1.095637	-1.023455	0.316302
H152	H	1.595637	-0.523455	0.816302
H153	H	0.932267	-1.030425	0.570719
H154	H	1.432267	-0.530425	1.070719
H155	H	0.903528	-0.700155	0.615127
H156	H	1.403528	-0.200155	1.115127
Cl157	Cl	0.258939	-0.183074	0.286429
Cl158	Cl	0.758939	0.316926	0.786429
H159	H	0.943843	-0.810090	0.552499
H160	H	1.443843	-0.310090	1.052499
Cl161	Cl	1.081599	-0.763078	0.337900
Cl162	Cl	1.581599	-0.263078	0.837900
H163	H	1.181484	-0.116455	0.839563
H164	H	1.681484	0.383545	1.339563
Cl165	Cl	0.889921	-0.551422	0.636201
Cl166	Cl	1.389921	-0.051422	1.136201
Cl167	Cl	0.416164	-0.379355	0.591641
Cl168	Cl	0.916164	0.120645	1.091641
Cl169	Cl	0.470647	-0.374775	0.584493
Cl170	Cl	0.970647	0.125225	1.084493
H171	H	0.917227	-0.380508	0.873034
H172	H	1.417227	0.119492	1.373034
H173	H	0.517633	-0.236888	0.370095
H174	H	1.017633	0.263112	0.870095
