data_functionalizedCrystal
_audit_creation_method	'MofGen! by Chris Wilmer'
_symmetry_space_group_name_H-M	'P1'
_symmetry_Int_Tables_number	1
_symmetry_cell_setting	triclinic
loop_
_symmetry_equiv_pos_as_xyz
  x,y,z
_cell_length_a	16.109301
_cell_length_b	16.109301
_cell_length_c	14.586319
_cell_angle_alpha	89.994786
_cell_angle_beta	89.999213
_cell_angle_gamma	83.461481
loop_
_atom_site_label
_atom_site_type_symbol
_atom_site_fract_x
_atom_site_fract_y
_atom_site_fract_z
O1	O	1.103131	0.106866	-0.076185
O2	O	1.353131	0.356866	0.173815
O3	O	1.603131	0.606866	0.423815
O4	O	1.853131	0.856866	0.673815
O5	O	0.861069	0.120165	-0.076200
O6	O	1.111069	0.370165	0.173800
O7	O	1.361069	0.620165	0.423800
O8	O	1.611069	0.870165	0.673800
O9	O	0.988749	-0.007515	-0.076183
O10	O	1.238749	0.242485	0.173817
O11	O	1.488749	0.492485	0.423817
O12	O	1.738749	0.742485	0.673817
O13	O	0.975450	0.234547	-0.076203
O14	O	1.225450	0.484547	0.173797
O15	O	1.475450	0.734547	0.423797
O16	O	1.725450	0.984547	0.673797
O17	O	0.988741	-0.007517	0.076298
O18	O	1.238741	0.242483	0.326298
O19	O	1.488741	0.492483	0.576298
O20	O	1.738741	0.742483	0.826298
O21	O	0.861060	0.120164	0.076281
O22	O	1.111060	0.370164	0.326281
O23	O	1.361060	0.620164	0.576281
O24	O	1.611060	0.870164	0.826281
O25	O	1.103122	0.106864	0.076295
O26	O	1.353122	0.356864	0.326295
O27	O	1.603122	0.606864	0.576295
O28	O	1.853122	0.856864	0.826295
Cu29	Cu	0.982090	0.113514	0.090211
Cu30	Cu	1.232090	0.363514	0.340211
Cu31	Cu	1.482090	0.613514	0.590211
Cu32	Cu	1.732090	0.863514	0.840211
Cu33	Cu	0.982101	0.113516	-0.090115
Cu34	Cu	1.232101	0.363516	0.159885
Cu35	Cu	1.482101	0.613516	0.409885
Cu36	Cu	1.732101	0.863516	0.659885
O37	O	0.975441	0.234545	0.076278
O38	O	1.225441	0.484545	0.326278
O39	O	1.475441	0.734545	0.576278
O40	O	1.725441	0.984545	0.826278
C41	C	0.830090	0.119626	0.000038
C42	C	1.080090	0.369626	0.250038
C43	C	1.330090	0.619626	0.500038
C44	C	1.580090	0.869626	0.750038
C45	C	0.737794	0.118011	0.000033
C46	C	0.987794	0.368011	0.250033
C47	C	1.237794	0.618011	0.500033
C48	C	1.487794	0.868011	0.750033
C49	C	0.515522	0.190018	0.000038
C50	C	0.765522	0.440018	0.250038
C51	C	1.015522	0.690018	0.500038
C52	C	1.265522	0.940018	0.750038
C53	C	0.428801	0.188494	0.000044
C54	C	0.678801	0.438494	0.250044
C55	C	0.928801	0.688494	0.500044
C56	C	1.178801	0.938494	0.750044
C57	C	0.448676	0.037006	0.000052
C58	C	0.698676	0.287006	0.250052
C59	C	0.948676	0.537006	0.500052
C60	C	1.198676	0.787006	0.750052
C61	C	0.535394	0.038530	0.000053
C62	C	0.785394	0.288530	0.250053
C63	C	1.035394	0.538530	0.500053
C64	C	1.285394	0.788530	0.750053
C65	C	0.568815	0.115039	0.000041
C66	C	0.818815	0.365039	0.250041
C67	C	1.068815	0.615039	0.500041
C68	C	1.318815	0.865039	0.750041
C69	C	0.395376	0.111990	0.000046
C70	C	0.645376	0.361990	0.250046
C71	C	0.895376	0.611990	0.500046
C72	C	1.145376	0.861990	0.750046
C73	C	0.301350	0.110337	0.000053
C74	C	0.551350	0.360337	0.250053
C75	C	0.801350	0.610337	0.500053
C76	C	1.051350	0.860337	0.750053
C77	C	0.662847	0.116693	0.000036
C78	C	0.912847	0.366693	0.250036
C79	C	1.162847	0.616693	0.500036
C80	C	1.412847	0.866693	0.750036
C81	C	0.988206	-0.038491	0.000058
C82	C	1.238206	0.211509	0.250058
C83	C	1.488206	0.461509	0.500058
C84	C	1.738206	0.711509	0.750058
C85	C	0.986591	-0.130786	0.000059
C86	C	1.236591	0.119214	0.250059
C87	C	1.486591	0.369214	0.500059
C88	C	1.736591	0.619214	0.750059
C89	C	1.058599	-0.353059	0.000049
C90	C	1.308599	-0.103059	0.250049
C91	C	1.558599	0.146941	0.500049
C92	C	1.808599	0.396941	0.750049
C93	C	1.057075	-0.439779	0.000041
C94	C	1.307075	-0.189779	0.250041
C95	C	1.557075	0.060221	0.500041
C96	C	1.807075	0.310221	0.750041
C97	C	0.905586	-0.419905	0.000036
C98	C	1.155586	-0.169905	0.250036
C99	C	1.405586	0.080095	0.500036
C100	C	1.655586	0.330095	0.750036
C101	C	0.907111	-0.333186	0.000037
C102	C	1.157111	-0.083186	0.250037
C103	C	1.407111	0.166814	0.500037
C104	C	1.657111	0.416814	0.750037
C105	C	0.983620	-0.299766	0.000048
C106	C	1.233620	-0.049766	0.250048
C107	C	1.483620	0.200234	0.500048
C108	C	1.733620	0.450234	0.750048
C109	C	0.980571	-0.473205	0.000039
C110	C	1.230571	-0.223205	0.250039
C111	C	1.480571	0.026795	0.500039
C112	C	1.730571	0.276795	0.750039
C113	C	0.978918	-0.567231	0.000031
C114	C	1.228918	-0.317231	0.250031
C115	C	1.478918	-0.067231	0.500031
C116	C	1.728918	0.182769	0.750031
C117	C	0.985273	-0.205734	0.000055
C118	C	1.235273	0.044266	0.250055
C119	C	1.485273	0.294266	0.500055
C120	C	1.735273	0.544266	0.750055
C121	C	1.134101	0.107404	0.000055
C122	C	1.384101	0.357404	0.250055
C123	C	1.634101	0.607404	0.500055
C124	C	1.884101	0.857404	0.750055
C125	C	1.226397	0.109019	0.000054
C126	C	1.476397	0.359019	0.250054
C127	C	1.726397	0.609019	0.500054
C128	C	1.976397	0.859019	0.750054
C129	C	0.975984	0.265521	0.000035
C130	C	1.225984	0.515521	0.250035
C131	C	1.475984	0.765521	0.500035
C132	C	1.725984	1.015521	0.750035
C133	C	0.977600	0.357816	0.000028
C134	C	1.227600	0.607816	0.250028
C135	C	1.477600	0.857816	0.500028
C136	C	1.727600	1.107816	0.750028
N137	N	0.982089	0.113512	0.217042
N138	N	1.232089	0.363512	0.467042
N139	N	1.482089	0.613512	0.717042
N140	N	1.732089	0.863512	0.967042
N141	N	0.982109	0.113511	-0.216947
N142	N	1.232109	0.363511	0.033053
N143	N	1.482109	0.613511	0.283053
N144	N	1.732109	0.863511	0.533053
C145	C	1.038644	0.056994	0.452057
C146	C	1.288644	0.306994	0.702057
C147	C	1.538644	0.556994	0.952057
C148	C	1.788644	0.806994	1.202057
C149	C	1.038647	0.056992	0.548038
C150	C	1.288647	0.306992	0.798038
C151	C	1.538647	0.556992	1.048038
C152	C	1.788647	0.806992	1.298038
C153	C	0.925547	0.170032	0.548032
C154	C	1.175547	0.420032	0.798032
C155	C	1.425547	0.670032	1.048032
C156	C	1.675547	0.920032	1.298032
C157	C	0.925541	0.170030	0.452052
C158	C	1.175541	0.420030	0.702052
C159	C	1.425541	0.670030	0.952052
C160	C	1.675541	0.920030	1.202052
C161	C	0.982095	0.113511	0.404067
C162	C	1.232095	0.363511	0.654067
C163	C	1.482095	0.613511	0.904067
C164	C	1.732095	0.863511	1.154067
C165	C	0.982103	0.113512	0.596028
C166	C	1.232103	0.363512	0.846028
C167	C	1.482103	0.613512	1.096028
C168	C	1.732103	0.863512	1.346028
C169	C	0.982105	0.113510	0.700095
C170	C	1.232105	0.363510	0.950095
C171	C	1.482105	0.613510	1.200095
C172	C	1.732105	0.863510	1.450095
C173	C	0.982092	0.113512	0.299993
C174	C	1.232092	0.363512	0.549993
C175	C	1.482092	0.613512	0.799993
C176	C	1.732092	0.863512	1.049993
H177	H	0.578788	-0.022530	0.000058
H178	H	0.828788	0.227470	0.250058
H179	H	1.078788	0.477470	0.500058
H180	H	1.328788	0.727470	0.750058
H181	H	1.084693	0.010972	0.412989
H182	H	1.334693	0.260972	0.662989
H183	H	1.584693	0.510972	0.912989
H184	H	1.834693	0.760972	1.162989
F185	F	0.865363	0.230182	0.599107
F186	F	1.115363	0.480182	0.849107
F187	F	1.365363	0.730182	1.099107
F188	F	1.615363	0.980182	1.349107
F189	F	1.098833	-0.003164	0.599108
F190	F	1.348833	0.246836	0.849108
F191	F	1.598833	0.496836	1.099108
F192	F	1.848833	0.746836	1.349108
F193	F	0.824164	-0.455481	0.000023
F194	F	1.074164	-0.205481	0.250023
F195	F	1.324164	0.044519	0.500023
F196	F	1.574164	0.294519	0.750023
F197	F	1.140026	-0.317493	0.000060
F198	F	1.390026	-0.067493	0.250060
F199	F	1.640026	0.182507	0.500060
F200	F	1.890026	0.432507	0.750060
F201	F	0.827304	-0.276464	0.000029
F202	F	1.077304	-0.026464	0.250029
F203	F	1.327304	0.223536	0.500029
F204	F	1.577304	0.473536	0.750029
F205	F	0.551087	0.271446	0.000029
F206	F	0.801087	0.521446	0.250029
F207	F	1.051087	0.771446	0.500029
F208	F	1.301087	1.021446	0.750029
F209	F	1.136878	-0.496495	0.000040
F210	F	1.386878	-0.246495	0.250040
F211	F	1.636878	0.003505	0.500040
F212	F	1.886878	0.253505	0.750040
F213	F	0.865347	0.230183	0.400975
F214	F	1.115347	0.480183	0.650975
F215	F	1.365347	0.730183	0.900975
F216	F	1.615347	0.980183	1.150975
H217	H	0.385413	0.249550	0.000043
H218	H	0.635413	0.499550	0.250043
H219	H	0.885413	0.749550	0.500043
H220	H	1.135413	0.999550	0.750043
H221	H	0.421454	-0.025285	0.000067
H222	H	0.671454	0.224715	0.250067
H223	H	0.921454	0.474715	0.500067
H224	H	1.171454	0.724715	0.750067
