data_functionalizedCrystal
_audit_creation_method	'MofGen! by Chris Wilmer'
_symmetry_space_group_name_H-M	'P1'
_symmetry_Int_Tables_number	1
_symmetry_cell_setting	triclinic
loop_
_symmetry_equiv_pos_as_xyz
  x,y,z
_cell_length_a	15.298114
_cell_length_b	16.959454
_cell_length_c	15.298259
_cell_angle_alpha	99.708728
_cell_angle_beta	107.353098
_cell_angle_gamma	99.639900
loop_
_atom_site_label
_atom_site_type_symbol
_atom_site_fract_x
_atom_site_fract_y
_atom_site_fract_z
Zn1	Zn	1.330674	0.473848	-0.279401
Zn2	Zn	1.357466	0.633682	-0.123908
Zn3	Zn	1.202068	0.473896	-0.150856
Zn4	Zn	1.175135	0.578344	-0.306334
O5	O	1.266336	0.539943	-0.215125
O6	O	1.464356	0.518190	-0.236226
O7	O	1.359336	0.635665	0.002661
O8	O	1.219187	0.363287	-0.167914
O9	O	1.484040	0.635619	-0.121985
O10	O	1.313673	0.363252	-0.262356
O11	O	1.245165	0.518271	-0.017138
O12	O	1.068367	0.464612	-0.194029
O13	O	1.173284	0.541304	-0.432904
O14	O	1.048580	0.541350	-0.308259
O15	O	1.287558	0.464531	-0.413117
O16	O	1.333220	0.736944	-0.148100
O17	O	1.199263	0.696288	-0.282128
C18	C	1.024733	0.496982	-0.256991
C19	C	0.921370	0.478618	-0.274924
C20	C	0.671062	0.671156	-0.087185
C21	C	0.768178	0.688409	-0.070329
C22	C	0.806481	0.635963	-0.121477
C23	C	0.747658	0.566260	-0.189482
C24	C	0.650534	0.549001	-0.206334
C25	C	0.785953	0.513809	-0.240626
C26	C	0.727131	0.444105	-0.308632
C27	C	0.630016	0.426850	-0.325481
C28	C	0.591713	0.479296	-0.274334
C29	C	0.883077	0.531068	-0.223774
C30	C	0.862549	0.408913	-0.342924
C31	C	0.765434	0.391659	-0.359779
C32	C	1.266248	0.745295	-0.215128
C33	C	1.266290	0.833155	-0.215146
C34	C	1.196630	1.183509	-0.284911
C35	C	1.336201	1.225784	-0.145427
C36	C	1.336176	1.143235	-0.145422
C37	C	1.266375	1.080819	-0.215161
C38	C	1.196601	1.100951	-0.284906
C39	C	1.405943	1.123096	-0.075673
C40	C	1.405919	1.040543	-0.075664
C41	C	1.336122	0.978125	-0.145408
C42	C	1.266346	0.998262	-0.215157
C43	C	1.196545	0.935845	-0.284896
C44	C	1.126772	0.955980	-0.354649
C45	C	1.126804	1.038533	-0.354651
C46	C	1.336090	0.895572	-0.145407
C47	C	1.196516	0.853288	-0.284891
C48	C	1.508882	0.583072	-0.173095
C49	C	1.612241	0.601450	-0.155184
C50	C	1.224428	0.496739	-0.457699
C51	C	1.206570	0.478328	-0.561069
C52	C	1.266430	1.333786	-0.215144
C53	C	1.266431	1.245925	-0.215172
C54	C	1.394003	0.670923	-0.811213
C55	C	1.410777	0.688225	-0.714092
C56	C	1.359727	0.635753	-0.675831
C57	C	1.291900	0.565975	-0.734702
C58	C	1.275119	0.548675	-0.831833
C59	C	1.240843	0.513504	-0.696451
C60	C	1.173015	0.443726	-0.755322
C61	C	1.156238	0.426429	-0.852443
C62	C	1.207288	0.478902	-0.890704
C63	C	1.257624	0.530804	-0.599320
C64	C	1.138739	0.408556	-0.619940
C65	C	1.121965	0.391254	-0.717061
C66	C	1.308134	0.582931	0.026515
C67	C	1.326172	0.601151	0.129916
H68	H	0.717527	0.334906	-0.415150
F69	F	1.084019	0.352186	-0.915100
H70	H	0.639867	0.713845	-0.045542
H71	H	1.435554	0.713644	-0.842376
H72	H	0.930961	0.587821	-0.168403
F73	F	0.903309	0.353090	-0.397358
F74	F	0.909840	0.654330	-0.103538
F75	F	1.049779	0.316994	-0.779726
F76	F	1.084394	0.352713	-0.579227
H77	H	0.816064	0.745161	-0.014958
H78	H	0.512634	0.465253	-0.288057
F79	F	1.410336	0.874145	-0.071169
H80	H	1.069997	1.054935	-0.411439
F81	F	1.329809	0.605064	-0.536677
H82	H	0.582126	0.370088	-0.380850
F83	F	1.122227	0.786864	-0.359124
F84	F	1.480182	1.019121	-0.001432
H85	H	1.393025	1.276608	-0.088644
F86	F	1.377584	0.654167	-0.572465
H87	H	1.069936	0.905151	-0.411429
H88	H	1.193636	0.464817	-0.969786
H89	H	1.139825	1.199907	-0.341705
F90	F	1.480227	1.189526	-0.001459
F91	F	1.482962	0.762484	-0.651445
