data_functionalizedCrystal
_audit_creation_method	'MofGen! by Chris Wilmer'
_symmetry_space_group_name_H-M	'P1'
_symmetry_Int_Tables_number	1
_symmetry_cell_setting	triclinic
loop_
_symmetry_equiv_pos_as_xyz
  x,y,z
_cell_length_a	13.032423
_cell_length_b	12.759395
_cell_length_c	13.032268
_cell_angle_alpha	97.162456
_cell_angle_beta	89.069225
_cell_angle_gamma	97.201953
loop_
_atom_site_label
_atom_site_type_symbol
_atom_site_fract_x
_atom_site_fract_y
_atom_site_fract_z
Zn1	Zn	0.483338	-1.476819	0.529445
Zn2	Zn	0.633524	-1.482274	0.335623
Zn3	Zn	0.461542	-1.325876	0.357490
Zn4	Zn	0.655286	-1.281924	0.507544
O5	O	0.558422	-1.391723	0.432526
O6	O	0.503275	-1.624560	0.503748
O7	O	0.592481	-1.482205	0.194609
O8	O	0.320497	-1.362010	0.398618
O9	O	0.613616	-1.628568	0.361348
O10	O	0.336511	-1.472907	0.524952
O11	O	0.466127	-1.367300	0.210675
O12	O	0.487228	-1.173028	0.377381
O13	O	0.650706	-1.287099	0.654363
O14	O	0.629571	-1.140737	0.487625
O15	O	0.524376	-1.430288	0.670454
O16	O	0.780347	-1.439586	0.340111
O17	O	0.796335	-1.292389	0.466421
C18	C	0.558396	-1.118762	0.432500
C19	C	0.558413	-1.001982	0.432510
C20	C	0.825665	-1.361836	0.398539
C21	C	0.939997	-1.349141	0.384034
C22	C	0.706843	-0.748972	0.547099
C23	C	0.781038	-0.787055	0.604376
C24	C	0.781026	-0.896779	0.604366
C25	C	0.706814	-0.968425	0.547072
C26	C	0.632619	-0.930341	0.489796
C27	C	0.632637	-0.820613	0.489814
C28	C	0.484218	-0.963899	0.375234
C29	C	0.484223	-0.854175	0.375248
C30	C	0.410006	-1.035544	0.317940
C31	C	0.335804	-0.997461	0.260668
C32	C	0.335818	-0.887730	0.260680
C33	C	0.410028	-0.816092	0.317971
C34	C	1.116990	-1.385173	0.425147
C35	C	0.998822	-1.398302	0.440141
C36	C	1.290140	-1.421697	0.466675
C37	C	1.175817	-1.434328	0.481247
C38	C	0.558443	-0.665751	0.432546
C39	C	0.558436	-0.782530	0.432542
C40	C	0.592400	-1.353182	0.700767
C41	C	0.606879	-1.336758	0.815076
C42	C	0.524503	-1.430183	0.165337
C43	C	0.509735	-1.446843	0.051066
C44	C	0.550829	-1.400283	0.874000
C45	C	0.565792	-1.383309	0.992144
H46	H	0.841462	-0.728710	0.651021
N47	N	0.706796	-1.086771	0.547052
H48	H	0.716645	-1.121219	0.474076
H49	H	0.765058	-1.099940	0.592072
H50	H	1.154109	-1.333366	0.366021
H51	H	0.275400	-0.856731	0.214038
N52	N	0.685115	-1.248074	0.864112
H53	H	0.756267	-1.258819	0.836125
H54	H	0.666699	-1.177496	0.847489
H55	H	0.410043	-0.726746	0.317992
N56	N	0.431497	-1.535542	1.002046
H57	H	0.396150	-1.575603	1.057602
H58	H	0.378286	-1.504466	0.963527
H59	H	0.624854	-1.316347	1.029159
N60	N	0.472611	-1.488993	0.824975
H61	H	0.473021	-1.488554	0.747524
H62	H	0.491014	-1.559547	0.841679
H63	H	0.977110	-1.297327	0.324906
H64	H	0.841444	-0.927785	0.651003
H65	H	0.410006	-1.124887	0.317931
H66	H	0.706851	-0.659626	0.547124
N67	N	0.949674	-1.466917	0.518482
H68	H	0.872227	-1.466567	0.518092
H69	H	0.966329	-1.542197	0.500194
H70	H	0.275391	-1.055802	0.214018
H71	H	1.138700	-1.486126	0.540381
