data_functionalizedCrystal
_audit_creation_method	'MofGen! by Chris Wilmer'
_symmetry_space_group_name_H-M	'P1'
_symmetry_Int_Tables_number	1
_symmetry_cell_setting	triclinic
loop_
_symmetry_equiv_pos_as_xyz
  x,y,z
_cell_length_a	16.625548
_cell_length_b	18.050589
_cell_length_c	18.050582
_cell_angle_alpha	89.981795
_cell_angle_beta	89.985107
_cell_angle_gamma	90.029289
loop_
_atom_site_label
_atom_site_type_symbol
_atom_site_fract_x
_atom_site_fract_y
_atom_site_fract_z
Zn1	Zn	1.232603	-0.295685	-0.419935
Zn2	Zn	1.732603	0.204315	0.080065
Zn3	Zn	1.232506	-0.419869	-0.295754
Zn4	Zn	1.732506	0.080131	0.204246
Zn5	Zn	1.097778	-0.295699	-0.295759
Zn6	Zn	1.597778	0.204301	0.204241
Zn7	Zn	1.097722	-0.419840	-0.419903
Zn8	Zn	1.597722	0.080160	0.080097
O9	O	1.165152	-0.357774	-0.357837
O10	O	1.665152	0.142226	0.142163
O11	O	1.345423	-0.312165	-0.403473
O12	O	1.845423	0.187835	0.096527
O13	O	1.214617	-0.403415	-0.191830
O14	O	1.714617	0.096585	0.308170
O15	O	1.115727	-0.191773	-0.312246
O16	O	1.615727	0.308227	0.187754
O17	O	1.345351	-0.403402	-0.312238
O18	O	1.845351	0.096598	0.187762
O19	O	1.214782	-0.191763	-0.403478
O20	O	1.714782	0.308237	0.096522
O21	O	1.115633	-0.312188	-0.191833
O22	O	1.615633	0.187812	0.308167
O23	O	0.984938	-0.312161	-0.312215
O24	O	1.484938	0.187839	0.187785
O25	O	1.115631	-0.403353	-0.523831
O26	O	1.615631	0.096647	-0.023831
O27	O	0.984897	-0.403367	-0.403423
O28	O	1.484897	0.096633	0.096577
O29	O	1.214728	-0.312137	-0.523855
O30	O	1.714728	0.187863	-0.023855
O31	O	1.214562	-0.523790	-0.312207
O32	O	1.714562	-0.023790	0.187793
O33	O	1.115537	-0.523769	-0.403419
O34	O	1.615537	-0.023769	0.096581
C35	C	0.955661	-0.357763	-0.357817
C36	C	1.455661	0.142237	0.142183
C37	C	0.866040	-0.357776	-0.357825
C38	C	1.366040	0.142224	0.142175
C39	C	0.537865	-0.357781	-0.357857
C40	C	1.037865	0.142219	0.142143
C41	C	0.629173	-0.357778	-0.357846
C42	C	1.129173	0.142222	0.142154
C43	C	0.701950	-0.357779	-0.357841
C44	C	1.201950	0.142221	0.142159
C45	C	0.793264	-0.357775	-0.357831
C46	C	1.293264	0.142225	0.142169
C47	C	1.165055	-0.550726	-0.357825
C48	C	1.665055	-0.050726	0.142175
C49	C	1.165087	-0.633271	-0.357845
C50	C	1.665087	-0.133271	0.142155
C51	C	1.111290	-0.832738	-0.407428
C52	C	1.611290	-0.332738	0.092572
C53	C	1.091641	-0.882172	-0.339661
C54	C	1.591641	-0.382172	0.160339
C55	C	1.165166	-0.784402	-0.357854
C56	C	1.665166	-0.284402	0.142146
C57	C	1.184855	-0.882049	-0.425629
C58	C	1.684855	-0.382049	0.074371
C59	C	1.165241	-0.930387	-0.357870
C60	C	1.665241	-0.430387	0.142130
C61	C	1.145479	-0.832749	-0.290051
C62	C	1.645479	-0.332749	0.209949
C63	C	1.238727	-0.832622	-0.376065
C64	C	1.738727	-0.332622	0.123935
C65	C	1.219106	-0.882034	-0.308251
C66	C	1.719106	-0.382034	0.191749
C67	C	1.165121	-0.700304	-0.357846
C68	C	1.665121	-0.200304	0.142154
C69	C	1.165287	-1.014483	-0.357870
C70	C	1.665287	-0.514483	0.142130
C71	C	1.375461	-0.357785	-0.357859
C72	C	1.875461	0.142215	0.142141
C73	C	1.465082	-0.357790	-0.357868
C74	C	1.965082	0.142210	0.142132
C75	C	1.165184	-0.357741	-0.551543
C76	C	1.665184	0.142259	-0.051543
C77	C	1.165197	-0.357727	-0.634089
C78	C	1.665197	0.142273	-0.134089
C79	C	1.165272	-0.164068	-0.357866
C80	C	1.665272	0.335932	0.142134
C81	C	1.165323	-0.081522	-0.357878
C82	C	1.665323	0.418478	0.142122
C83	C	1.111350	-0.407262	-0.833527
C84	C	1.611350	0.092738	-0.333527
C85	C	1.184913	-0.425414	-0.882920
C86	C	1.684913	0.074586	-0.382920
C87	C	1.165237	-0.357670	-0.785219
C88	C	1.665237	0.142330	-0.285219
C89	C	1.091715	-0.339497	-0.882908
C90	C	1.591715	0.160503	-0.382908
C91	C	1.165269	-0.357617	-0.931205
C92	C	1.665269	0.142383	-0.431205
C93	C	1.238839	-0.375858	-0.833525
C94	C	1.738839	0.124142	-0.333525
C95	C	1.145591	-0.289909	-0.833509
C96	C	1.645591	0.210091	-0.333509
C97	C	1.219205	-0.308035	-0.882880
C98	C	1.719205	0.191965	-0.382880
C99	C	1.165218	-0.357703	-0.701121
C100	C	1.665218	0.142297	-0.201121
C101	C	1.165297	-0.357584	-1.015301
C102	C	1.665297	0.142416	-0.515301
C103	C	1.165167	-0.357753	-0.164885
C104	C	1.665167	0.142247	0.335115
C105	C	1.165310	-0.357558	-0.082340
C106	C	1.665310	0.142442	0.417660
H107	H	1.065662	-0.811092	-0.449292
H108	H	1.565662	-0.311092	0.050708
H109	H	1.264842	-0.266074	-0.904413
H110	H	1.764842	0.233926	-0.404413
H111	H	1.201549	-0.482696	-0.904623
H112	H	1.701549	0.017304	-0.404623
H113	H	1.264699	-0.903543	-0.266287
H114	H	1.764699	-0.403543	0.233713
H115	H	1.300885	-0.810842	-0.391487
H116	H	1.800885	-0.310842	0.108513
H117	H	1.128933	-0.232644	-0.811790
H118	H	1.628933	0.267356	-0.311790
H119	H	1.029468	-0.903953	-0.324272
H120	H	1.529468	-0.403953	0.175728
H121	H	1.029524	-0.324149	-0.904601
H122	H	1.529524	0.175851	-0.404601
H123	H	1.201478	-0.903705	-0.482940
H124	H	1.701478	-0.403705	0.017060
H125	H	1.065822	-0.449256	-0.811858
H126	H	1.565822	0.050744	-0.311858
H127	H	1.301047	-0.391271	-0.811923
H128	H	1.801047	0.108729	-0.311923
H129	H	1.128784	-0.811183	-0.232725
H130	H	1.628784	-0.311183	0.267275
