data_functionalizedCrystal
_audit_creation_method	'MofGen! by Chris Wilmer'
_symmetry_space_group_name_H-M	'P1'
_symmetry_Int_Tables_number	1
_symmetry_cell_setting	triclinic
loop_
_symmetry_equiv_pos_as_xyz
  x,y,z
_cell_length_a	10.685904
_cell_length_b	17.637651
_cell_length_c	10.686551
_cell_angle_alpha	75.377812
_cell_angle_beta	81.591549
_cell_angle_gamma	104.582496
loop_
_atom_site_label
_atom_site_type_symbol
_atom_site_fract_x
_atom_site_fract_y
_atom_site_fract_z
Zn1	Zn	1.931697	-0.183376	-0.802533
Zn2	Zn	1.863458	-0.331592	-0.538396
Zn3	Zn	1.695161	-0.206147	-0.566027
Zn4	Zn	1.667608	-0.331513	-0.734334
O5	O	1.789481	-0.263157	-0.660323
O6	O	2.103600	-0.193540	-0.784473
O7	O	1.824106	-0.324515	-0.361083
O8	O	1.766627	-0.088631	-0.637505
O9	O	2.053465	-0.302434	-0.590413
O10	O	1.940409	-0.071901	-0.811265
O11	O	1.700459	-0.232351	-0.381383
O12	O	1.510551	-0.232275	-0.571375
O13	O	1.719667	-0.302299	-0.924360
O14	O	1.490308	-0.324380	-0.695029
O15	O	1.913692	-0.193463	-0.974465
O16	O	1.797389	-0.446077	-0.524283
O17	O	1.653498	-0.446019	-0.668237
C18	C	1.453510	-0.280790	-0.628800
C19	C	1.309776	-0.288352	-0.615339
C20	C	1.715087	-0.475732	-0.585893
C21	C	1.683383	-0.566664	-0.554105
C22	C	2.031209	-0.821876	-0.902292
C23	C	2.001376	-0.907324	-0.872397
C24	C	1.820512	-0.924855	-0.691311
C25	C	1.850334	-0.839407	-0.721187
C26	C	1.955684	-0.787924	-0.826680
C27	C	1.774809	-0.805455	-0.645575
C28	C	1.804625	-0.720014	-0.675454
C29	C	1.909967	-0.668526	-0.780944
C30	C	1.985500	-0.702483	-0.856559
C31	C	1.669454	-0.856940	-0.540089
C32	C	1.593928	-0.822988	-0.464477
C33	C	1.623750	-0.737546	-0.494349
C34	C	1.729092	-0.686057	-0.599839
C35	C	1.548217	-0.703588	-0.418734
C36	C	1.578034	-0.618147	-0.448612
C37	C	1.758909	-0.600616	-0.629717
C38	C	2.126764	-0.245456	-0.691968
C39	C	2.270494	-0.237912	-0.705454
C40	C	1.821218	-0.245332	-0.997650
C41	C	1.834742	-0.237736	-1.141399
C42	C	1.864203	-0.049749	-0.735075
C43	C	1.896046	0.041193	-0.766930
C44	C	1.757963	-0.280850	-0.324335
C45	C	1.744769	-0.288202	-0.180691
H46	H	1.233447	-0.337317	-0.527890
H47	H	1.922128	-0.188720	-1.217740
C48	C	1.432397	-0.760230	-0.302636
N49	N	1.345184	-0.802894	-0.215164
H50	H	1.346832	-0.188939	-0.792902
H51	H	1.844704	-0.558696	-0.715612
C52	C	1.626723	-0.354422	-1.077569
N53	N	1.537807	-0.404299	-0.999889
C54	C	1.942767	-0.574538	-0.813810
N55	N	1.967474	-0.503746	-0.838562
H56	H	2.071295	-0.660563	-0.942453
H57	H	2.117004	-0.779956	-0.988187
C58	C	2.084469	-0.944667	-0.955586
N59	N	2.147051	-0.972794	-1.018244
H60	H	1.645170	-0.926510	-0.515777
C61	C	1.704704	-0.981496	-0.575199
N62	N	1.617506	-1.024157	-0.487712
C63	C	1.494962	-0.580798	-0.365424
N64	N	1.432391	-0.552666	-0.302764
C65	C	1.478121	-0.879628	-0.348364
N66	N	1.390922	-0.922289	-0.260877
