data_functionalizedCrystal
_audit_creation_method	'MofGen! by Chris Wilmer'
_symmetry_space_group_name_H-M	'P1'
_symmetry_Int_Tables_number	1
_symmetry_cell_setting	triclinic
loop_
_symmetry_equiv_pos_as_xyz
  x,y,z
_cell_length_a	15.298068
_cell_length_b	12.645330
_cell_length_c	15.296720
_cell_angle_alpha	80.351902
_cell_angle_beta	91.645182
_cell_angle_gamma	99.672781
loop_
_atom_site_label
_atom_site_type_symbol
_atom_site_fract_x
_atom_site_fract_y
_atom_site_fract_z
Zn1	Zn	1.253422	-0.315356	0.727377
Zn2	Zn	1.753422	0.184644	1.227377
Zn3	Zn	1.278703	-0.457728	0.580914
Zn4	Zn	1.778703	0.042272	1.080914
Zn5	Zn	1.132300	-0.305056	0.555544
Zn6	Zn	1.632300	0.194944	1.055544
Zn7	Zn	1.106940	-0.517157	0.701940
Zn8	Zn	1.606940	-0.017157	1.201940
O9	O	1.192841	-0.398824	0.641444
O10	O	1.692841	0.101176	1.141444
O11	O	1.379348	-0.313682	0.729212
O12	O	1.879348	0.186318	1.229212
O13	O	1.280476	-0.408294	0.454986
O14	O	1.780476	0.091706	0.954986
O15	O	1.148400	-0.158074	0.578366
O16	O	1.648400	0.341926	1.078366
O17	O	1.397922	-0.418282	0.621606
O18	O	1.897922	0.081718	1.121606
O19	O	1.237387	-0.165642	0.704611
O20	O	1.737387	0.334358	1.204611
O21	O	1.172914	-0.296126	0.436346
O22	O	1.672914	0.203874	0.936346
O23	O	1.006363	-0.353752	0.553700
O24	O	1.506363	0.146248	1.053700
O25	O	1.105178	-0.519570	0.827877
O26	O	1.605178	-0.019570	1.327877
O27	O	0.987731	-0.509582	0.661257
O28	O	1.487731	-0.009582	1.161257
O29	O	1.212797	-0.371308	0.846566
O30	O	1.712797	0.128692	1.346566
O31	O	1.255886	-0.613960	0.596941
O32	O	1.755886	-0.113960	1.096941
O33	O	1.129692	-0.657622	0.685858
O34	O	1.629692	-0.157622	1.185858
C35	C	0.965265	-0.436999	0.601966
C36	C	1.465265	0.063001	1.101966
C37	C	0.867904	-0.453360	0.585098
C38	C	1.367904	0.046640	1.085098
C39	C	0.554716	-0.282152	0.762004
C40	C	1.054716	0.217848	1.262004
C41	C	0.646191	-0.266783	0.777858
C42	C	1.146191	0.233217	1.277858
C43	C	0.701624	-0.313426	0.729669
C44	C	1.201624	0.186574	1.229669
C45	C	0.665572	-0.375440	0.665625
C46	C	1.165572	0.124560	1.165625
C47	C	0.574087	-0.390817	0.649774
C48	C	1.074087	0.109183	1.149774
C49	C	0.720995	-0.422091	0.617439
C50	C	1.220995	0.077909	1.117439
C51	C	0.684943	-0.484106	0.553395
C52	C	1.184943	0.015894	1.053395
C53	C	0.593467	-0.499479	0.537547
C54	C	1.093467	0.000521	1.037547
C55	C	0.538035	-0.452837	0.585736
C56	C	1.038035	0.047163	1.085736
C57	C	0.812480	-0.406714	0.633289
C58	C	1.312480	0.093286	1.133289
C59	C	0.831851	-0.515380	0.521059
C60	C	1.331851	-0.015380	1.021059
C61	C	0.740376	-0.530748	0.505206
C62	C	1.240376	-0.030748	1.005206
C63	C	1.192801	-0.674256	0.641416
C64	C	1.692801	-0.174256	1.141416
C65	C	1.192859	-0.792081	0.641447
C66	C	1.692859	-0.292081	1.141447
C67	C	1.272162	-0.932119	0.585353
C68	C	1.772162	-0.432119	1.085353
C69	C	1.272353	-0.809561	0.585557
C70	C	1.772353	-0.309561	1.085557
C71	C	1.201905	-0.854280	0.738105
C72	C	1.701905	-0.354280	1.238105
C73	C	1.202503	-0.976702	0.737838
C74	C	1.702503	-0.476702	1.237838
C75	C	1.104326	-0.969326	0.601788
C76	C	1.604326	-0.469326	1.101788
C77	C	1.105128	-0.846153	0.599795
C78	C	1.605128	-0.346153	1.099795
C79	C	1.421306	-0.360502	0.681077
C80	C	1.921306	0.139498	1.181077
C81	C	1.518664	-0.344171	0.697966
C82	C	2.018664	0.155829	1.197966
C83	C	1.153339	-0.453217	0.869889
C84	C	1.653339	0.046783	1.369889
C85	C	1.136505	-0.476395	0.967239
C86	C	1.636505	0.023605	1.467239
C87	C	1.192902	-0.122317	0.641496
C88	C	1.692902	0.377683	1.141496
C89	C	1.192928	-0.004486	0.641518
C90	C	1.692928	0.495514	1.141518
C91	C	1.232241	-0.344559	0.413896
C92	C	1.732241	0.155441	0.913896
C93	C	1.249244	-0.321053	0.316576
C94	C	1.749244	0.178947	0.816576
C95	C	1.313187	-0.232971	1.280574
C96	C	1.813187	0.267029	1.780574
C97	C	1.329008	-0.211194	1.189110
C98	C	1.829008	0.288806	1.689110
C99	C	1.280884	-0.277492	1.133638
C100	C	1.780884	0.222508	1.633638
C101	C	1.216935	-0.365571	1.169639
C102	C	1.716935	0.134429	1.669639
C103	C	1.201117	-0.387355	1.261113
C104	C	1.701117	0.112645	1.761113
C105	C	1.168814	-0.431877	1.114177
C106	C	1.668814	0.068123	1.614177
C107	C	1.104865	-0.519956	1.150177
C108	C	1.604865	-0.019956	1.650177
C109	C	1.089049	-0.541736	1.241642
C110	C	1.589049	-0.041736	1.741642
C111	C	1.137174	-0.475438	1.297114
C112	C	1.637174	0.024562	1.797114
C113	C	1.184632	-0.410093	1.022703
C114	C	1.684632	0.089907	1.522703
C115	C	1.072562	-0.564478	1.003241
C116	C	1.572562	-0.064478	1.503241
C117	C	1.056740	-0.586254	1.094705
C118	C	1.556740	-0.086254	1.594705
H119	H	1.268546	-0.765860	0.514389
H120	H	1.768546	-0.265860	1.014389
Br121	Br	0.825771	-0.292567	0.751185
Br122	Br	1.325771	0.207433	1.251185
H123	H	1.268585	-0.947893	0.514019
H124	H	1.768585	-0.447893	1.014019
Br125	Br	1.006256	-1.051389	0.669640
Br126	Br	1.506256	-0.551389	1.169640
H127	H	1.337774	-0.955076	0.612665
H128	H	1.837774	-0.455076	1.112665
H129	H	0.564116	-0.549985	0.485404
H130	H	1.064116	-0.049985	0.985404
Br131	Br	0.695112	-0.182633	0.864777
Br132	Br	1.195112	0.317367	1.364777
H133	H	0.711009	-0.581242	0.453061
H134	H	1.211009	-0.081242	0.953061
Br135	Br	1.271418	-0.290562	0.973856
Br136	Br	1.771418	0.209438	1.473856
H137	H	1.352368	-0.179006	1.325748
H138	H	1.852368	0.320994	1.825748
H139	H	1.338303	-0.772361	0.613109
H140	H	1.838303	-0.272361	1.113109
H141	H	1.265370	-0.817106	0.770093
H142	H	1.765370	-0.317106	1.270093
H143	H	1.093016	-0.988380	0.531696
H144	H	1.593016	-0.488380	1.031696
H145	H	0.509575	-0.244189	0.801238
H146	H	1.009575	0.255811	1.301238
H147	H	0.463546	-0.465355	0.572837
H148	H	0.963546	0.034645	1.072837
H149	H	1.036985	-0.613463	1.270952
H150	H	1.536985	-0.113463	1.770952
Br151	Br	0.907072	-0.578694	0.455662
Br152	Br	1.407072	-0.078694	0.955662
Br153	Br	1.415794	-0.091666	1.140258
Br154	Br	1.915794	0.408334	1.640258
H155	H	1.266791	-0.998621	0.769625
H156	H	1.766791	-0.498621	1.269625
Br157	Br	1.109040	-1.060095	0.811389
Br158	Br	1.609040	-0.560095	1.311389
Br159	Br	1.107485	-0.839696	0.810871
Br160	Br	1.607485	-0.339696	1.310871
Br161	Br	1.093269	-0.776094	0.481106
Br162	Br	1.593269	-0.276094	0.981106
Br163	Br	1.003580	-0.828164	0.660824
Br164	Br	1.503580	-0.328164	1.160824
Br165	Br	1.115707	-0.504993	1.421251
Br166	Br	1.615707	-0.004993	1.921251
H167	H	1.293770	-0.259756	1.059164
H168	H	1.793770	0.240244	1.559164
Br169	Br	0.969955	-0.705786	1.143574
Br170	Br	1.469955	-0.205786	1.643574
H171	H	0.841824	-0.356220	0.685434
H172	H	1.341824	0.143780	1.185434
Br173	Br	1.007253	-0.654467	0.927966
Br174	Br	1.507253	-0.154467	1.427966
