data_functionalizedCrystal
_audit_creation_method	'MofGen! by Chris Wilmer'
_symmetry_space_group_name_H-M	'P1'
_symmetry_Int_Tables_number	1
_symmetry_cell_setting	triclinic
loop_
_symmetry_equiv_pos_as_xyz
  x,y,z
_cell_length_a	6.817900
_cell_length_b	16.255661
_cell_length_c	13.694049
_cell_angle_alpha	79.561823
_cell_angle_beta	106.285429
_cell_angle_gamma	103.488922
loop_
_atom_site_label
_atom_site_type_symbol
_atom_site_fract_x
_atom_site_fract_y
_atom_site_fract_z
V1	V	-4.022308	-0.231237	-0.140985
O2	O	-4.014376	-0.260221	0.005933
O3	O	-3.969556	-0.197545	-0.278739
O4	O	-3.973926	-0.346736	-0.139186
O5	O	-4.009976	-0.109998	-0.134587
V6	V	-4.506497	-0.220636	-0.123368
O7	O	-4.282104	-0.254490	-0.179628
O8	O	-4.696898	-0.197383	-0.084724
O9	O	-4.336042	-0.254327	0.014386
O10	O	-4.631826	-0.191652	-0.270285
O11	O	-4.636226	-0.341875	-0.129766
O12	O	-4.331672	-0.105136	-0.125167
C13	C	-3.813497	-0.185612	-0.312309
C14	C	-3.851654	-0.158836	-0.424927
C15	C	-3.819071	-0.375919	-0.134293
C16	C	-3.860768	-0.470130	-0.133734
C17	C	-3.829810	-0.072152	-0.463114
C18	C	-3.865689	-0.046983	-0.568924
C19	C	-3.923398	-0.108495	-0.636556
C20	C	-3.945228	-0.195180	-0.598368
C21	C	-3.909362	-0.220352	-0.492549
C22	C	-4.002950	-0.256695	-0.665991
C23	C	-4.024780	-0.343380	-0.627803
C24	C	-3.988915	-0.368547	-0.521994
C25	C	-3.931205	-0.307035	-0.454362
C26	C	-4.038816	-0.231523	-0.771810
C27	C	-4.118368	-0.379722	-0.801245
C28	C	-4.082489	-0.404891	-0.695435
C29	C	-3.771533	-0.694496	-0.127051
C30	C	-3.925255	-0.744006	-0.213308
C31	C	-3.937185	-0.642622	-0.132685
C32	C	-3.857785	-0.760978	-0.045440
C33	C	-4.010985	-0.809241	-0.131667
C34	C	-4.090386	-0.690884	-0.219019
C35	C	-4.022857	-0.707858	-0.051075
C36	C	-4.176714	-0.757342	-0.137357
C37	C	-3.894666	-0.546636	-0.133272
C38	C	-4.053521	-0.905223	-0.131087
C39	C	-4.155442	-0.266257	0.047951
C40	C	-4.096524	-0.293039	0.160568
C41	C	-4.149869	-0.075948	-0.130063
C42	C	-4.087411	0.018262	-0.130617
H43	H	-4.021036	-0.160944	-0.802891
H44	H	-4.188308	-0.660418	-0.292456
H45	H	-4.165356	-0.429811	-0.856311
H46	H	-3.952608	-0.087997	-0.722709
H47	H	-4.063594	-0.691626	0.017517
C48	C	-4.530279	-0.758444	-0.234171
C49	C	-4.408544	-0.794252	-0.143267
H50	H	-4.673398	-0.781237	-0.237824
H51	H	-4.505070	-0.698354	-0.235122
H52	H	-4.494947	-0.771469	-0.291217
H53	H	-4.443865	-0.781221	-0.086220
H54	H	-4.433766	-0.854355	-0.142307
C55	C	-3.514048	-0.770356	0.058796
C56	C	-3.725581	-0.802229	0.053598
H57	H	-3.432427	-0.795817	0.119939
H58	H	-3.480764	-0.783333	0.001156
H59	H	-3.485492	-0.710301	0.058837
H60	H	-3.754140	-0.862283	0.053550
H61	H	-3.758877	-0.789258	0.111253
H62	H	-3.847917	0.023595	-0.600008
H63	H	-3.884439	-0.760215	-0.281897
C64	C	-3.914943	-0.017368	-0.331902
C65	C	-3.766393	-0.004552	-0.388767
H66	H	-3.875783	0.024365	-0.285997
H67	H	-4.046956	-0.012557	-0.377099
H68	H	-3.922806	-0.072602	-0.294032
H69	H	-3.758541	0.050680	-0.426644
H70	H	-3.634344	-0.009356	-0.343564
C71	C	-4.073047	-0.386285	-0.315657
C72	C	-3.891766	-0.334700	-0.338050
H73	H	-4.048687	-0.403364	-0.243850
H74	H	-4.182842	-0.355157	-0.337454
H75	H	-4.110532	-0.435325	-0.350469
H76	H	-3.854290	-0.285657	-0.303244
H77	H	-3.781936	-0.365829	-0.316242
C78	C	-4.071134	-0.512508	-0.561720
C79	C	-4.012918	-0.463831	-0.480017
H80	H	-4.085938	-0.571332	-0.535803
H81	H	-4.199861	-0.501548	-0.605678
H82	H	-3.967059	-0.497665	-0.599077
H83	H	-4.117001	-0.478670	-0.442664
H84	H	-3.884174	-0.474797	-0.436041
H85	H	-3.599912	-0.666998	-0.122805
H86	H	-4.100258	-0.475472	-0.664328
