data_functionalizedCrystal
_audit_creation_method	'MofGen! by Chris Wilmer'
_symmetry_space_group_name_H-M	'P1'
_symmetry_Int_Tables_number	1
_symmetry_cell_setting	triclinic
loop_
_symmetry_equiv_pos_as_xyz
  x,y,z
_cell_length_a	8.634740
_cell_length_b	8.559649
_cell_length_c	16.776229
_cell_angle_alpha	90.001927
_cell_angle_beta	90.005254
_cell_angle_gamma	85.174486
loop_
_atom_site_label
_atom_site_type_symbol
_atom_site_fract_x
_atom_site_fract_y
_atom_site_fract_z
O1	O	1.985475	0.511627	0.066278
O2	O	1.541603	0.468725	0.066281
O3	O	1.802644	0.263595	0.066278
O4	O	1.724434	0.716758	0.066280
O5	O	1.802618	0.263590	-0.066298
O6	O	1.541577	0.468720	-0.066296
O7	O	1.985448	0.511623	-0.066299
Zn8	Zn	1.763508	0.490171	-0.087347
Zn9	Zn	1.763543	0.490177	0.087329
O10	O	1.724407	0.716753	-0.066296
C11	C	1.485291	0.459004	-0.000007
C12	C	1.317539	0.430026	-0.000006
C13	C	1.808558	0.204975	-0.000009
C14	C	1.826201	0.030311	-0.000004
C15	C	2.041761	0.521344	-0.000009
C16	C	2.209512	0.550322	-0.000005
C17	C	1.718493	0.775373	-0.000008
C18	C	1.700851	0.950037	-0.000007
N19	N	1.763496	0.490167	-0.206558
C20	C	1.844059	0.599542	-0.248272
C21	C	1.844076	0.599538	-0.331724
C22	C	1.763521	0.490167	-0.373461
C23	C	1.682956	0.380781	-0.331741
C24	C	1.682949	0.380778	-0.248291
C25	C	1.682987	0.380787	-0.668288
C26	C	1.682996	0.380802	-0.751745
C27	C	1.844114	0.599548	-0.751722
C28	C	1.844106	0.599545	-0.668271
C29	C	1.763549	0.490155	-0.626559
C30	C	1.763533	0.490158	-0.536070
C31	C	1.763527	0.490169	-0.463948
N32	N	1.763569	0.490170	0.206540
H33	H	1.245366	0.675491	-0.000009
F34	F	1.542933	0.034858	-0.000008
H35	H	1.947023	-0.034594	-0.000011
H36	H	1.909646	0.688613	-0.214295
F37	F	1.270688	0.266428	-0.000012
F38	F	1.929856	0.715968	-0.796121
F39	F	1.929820	0.715951	-0.376115
F40	F	1.929825	0.715968	-0.623856
F41	F	1.597256	0.264386	-0.796163
F42	F	1.597198	0.264406	-0.623906
H43	H	1.617375	0.291722	-0.365730
F44	F	1.597217	0.264356	-0.203896
