data_functionalizedCrystal
_audit_creation_method	'MofGen! by Chris Wilmer'
_symmetry_space_group_name_H-M	'P1'
_symmetry_Int_Tables_number	1
_symmetry_cell_setting	triclinic
loop_
_symmetry_equiv_pos_as_xyz
  x,y,z
_cell_length_a	10.967926
_cell_length_b	9.065218
_cell_length_c	7.540329
_cell_angle_alpha	90.001757
_cell_angle_beta	102.126281
_cell_angle_gamma	95.140411
loop_
_atom_site_label
_atom_site_type_symbol
_atom_site_fract_x
_atom_site_fract_y
_atom_site_fract_z
O1	O	1.658000	-0.206929	0.359260
O2	O	2.158000	0.293071	0.859260
O3	O	1.294934	-0.226740	0.248293
O4	O	1.794934	0.273260	0.748293
O5	O	1.483972	-0.002149	0.306074
O6	O	1.983972	0.497851	0.806074
O7	O	1.468963	-0.431519	0.301479
O8	O	1.968963	0.068481	0.801479
O9	O	1.483960	-0.002146	0.601035
O10	O	1.983960	0.497854	1.101035
O11	O	1.294923	-0.226737	0.543255
O12	O	1.794923	0.273263	1.043255
O13	O	1.657989	-0.206926	0.654221
O14	O	2.157989	0.293074	1.154221
Cu15	Cu	1.476455	-0.216831	0.625670
Cu16	Cu	1.976455	0.283169	1.125670
Cu17	Cu	1.476468	-0.216835	0.276844
Cu18	Cu	1.976468	0.283165	0.776844
O19	O	1.468951	-0.431517	0.596441
O20	O	1.968951	0.068483	1.096441
C21	C	1.248424	-0.225297	0.381560
C22	C	1.748424	0.274703	0.881560
C23	C	1.109854	-0.220985	0.339208
C24	C	1.609854	0.279015	0.839208
C25	C	1.048069	-0.219061	0.473125
C26	C	1.548069	0.280939	0.973125
C27	C	0.904850	-0.214605	0.429355
C28	C	1.404850	0.285395	0.929355
C29	C	1.482523	0.052831	0.453111
C30	C	1.982523	0.552831	0.953111
C31	C	1.478210	0.216649	0.451784
C32	C	1.978210	0.716649	0.951784
C33	C	1.704499	-0.208369	0.520950
C34	C	2.204499	0.291631	1.020950
C35	C	1.843069	-0.212681	0.563291
C36	C	2.343069	0.287319	1.063291
C37	C	1.470399	-0.486496	0.449400
C38	C	1.970399	0.013504	0.949400
C39	C	1.474712	-0.650315	0.450715
C40	C	1.974712	-0.150315	0.950715
N41	N	1.476454	-0.216828	0.871019
N42	N	1.976454	0.283172	1.371019
N43	N	1.476478	-0.216826	0.031499
N44	N	1.976478	0.283174	0.531499
H45	H	1.056722	-0.219329	0.192153
H46	H	1.556722	0.280671	0.692153
H47	H	0.896196	-0.214328	0.710357
H48	H	1.396196	0.285672	1.210357
H49	H	1.101203	-0.220705	0.620180
H50	H	1.601203	0.279295	1.120180
H51	H	0.851723	-0.212949	0.282290
H52	H	1.351723	0.287051	0.782290
