data_functionalizedCrystal
_audit_creation_method	'MofGen! by Chris Wilmer'
_symmetry_space_group_name_H-M	'P1'
_symmetry_Int_Tables_number	1
_symmetry_cell_setting	triclinic
loop_
_symmetry_equiv_pos_as_xyz
  x,y,z
_cell_length_a	14.908571
_cell_length_b	16.120484
_cell_length_c	16.120728
_cell_angle_alpha	84.367400
_cell_angle_beta	90.236006
_cell_angle_gamma	89.787312
loop_
_atom_site_label
_atom_site_type_symbol
_atom_site_fract_x
_atom_site_fract_y
_atom_site_fract_z
Zn1	Zn	1.324458	-0.431441	0.563736
Zn2	Zn	1.324375	-0.564082	0.431039
Zn3	Zn	1.182558	-0.416346	0.416022
Zn4	Zn	1.166472	-0.562284	0.561909
O5	O	1.249466	-0.493538	0.493176
O6	O	1.449915	-0.456106	0.553182
O7	O	1.312259	-0.538920	0.312459
O8	O	1.208148	-0.301762	0.430096
O9	O	1.449854	-0.553557	0.455691
O10	O	1.312402	-0.312852	0.538621
O11	O	1.208068	-0.430378	0.301426
O12	O	1.054956	-0.428635	0.428325
O13	O	1.180732	-0.550492	0.678739
O14	O	1.043137	-0.535855	0.535508
O15	O	1.296803	-0.454362	0.680081
O16	O	1.296661	-0.680430	0.453920
O17	O	1.180651	-0.679109	0.550069
C18	C	1.016514	-0.480412	0.480089
C19	C	0.916854	-0.474818	0.474511
C20	C	0.717323	-0.576112	0.575503
C21	C	0.623683	-0.570858	0.570265
C22	C	0.635933	-0.459053	0.458801
C23	C	0.729573	-0.464307	0.464039
C24	C	0.770264	-0.522839	0.522391
C25	C	0.863906	-0.528096	0.527625
C26	C	0.876154	-0.416288	0.416165
C27	C	0.782514	-0.411034	0.410927
C28	C	1.236925	-0.710001	0.503445
C29	C	1.231640	-0.802611	0.507871
C30	C	1.221996	-0.972171	0.515968
C31	C	1.277095	-1.014074	0.470407
C32	C	1.271729	-1.108423	0.474912
C33	C	1.227361	-0.877813	0.511464
C34	C	1.483327	-0.506716	0.506316
C35	C	1.582984	-0.512332	0.511915
C36	C	1.236983	-0.503910	0.710486
C37	C	1.231663	-0.508330	0.803090
C38	C	1.262079	-0.276232	0.482887
C39	C	1.267454	-0.183629	0.478502
C40	C	1.221919	-0.516380	0.972636
C41	C	1.276980	-0.470774	1.014570
C42	C	1.271558	-0.475253	1.108911
C43	C	1.227339	-0.511902	0.878286
C44	C	1.261899	-0.483229	1.276713
C45	C	1.267239	-0.478822	1.184111
H46	H	0.602785	-0.411394	0.411298
O47	O	1.160954	-0.567073	1.014376
C48	C	1.136842	-0.683421	1.117456
C49	C	1.205976	-0.626083	1.070219
H50	H	1.173214	-0.731134	1.162629
H51	H	1.096246	-0.717124	1.071048
H52	H	1.089870	-0.644408	1.153705
H53	H	1.253005	-0.665036	1.033969
H54	H	1.246506	-0.592376	1.116669
O55	O	0.742938	-0.354291	0.354164
C56	C	0.644252	-0.331609	0.235279
C57	C	0.689028	-0.395960	0.299502
H58	H	0.600641	-0.365272	0.191079
H59	H	0.698138	-0.294444	0.198154
H60	H	0.600778	-0.287459	0.269105
H61	H	0.732497	-0.440164	0.265743
H62	H	0.635097	-0.433064	0.336625
O63	O	0.903291	-0.584972	0.584379
C64	C	0.881253	-0.695339	0.694356
C65	C	0.836537	-0.630954	0.630129
H66	H	0.827303	-0.732545	0.731350
H67	H	0.924775	-0.661734	0.738675
H68	H	0.924798	-0.739444	0.660543
H69	H	0.792949	-0.586831	0.663871
H70	H	0.793069	-0.664614	0.585812
H71	H	1.170799	-1.007153	0.558354
H72	H	1.328295	-0.979090	0.428016
H73	H	0.580581	-0.614237	0.613515
O74	O	0.756712	-0.632991	0.632252
C75	C	0.734683	-0.743372	0.742216
C76	C	0.689961	-0.678982	0.677998
H77	H	0.680735	-0.780585	0.779207
H78	H	0.778203	-0.709772	0.786540
H79	H	0.778228	-0.787470	0.708395
H80	H	0.646371	-0.634866	0.711748
H81	H	0.646494	-0.712637	0.633678
O82	O	1.337956	-0.420119	0.972785
C83	C	1.362078	-0.303686	0.869805
C84	C	1.292934	-0.361007	0.917051
H85	H	1.325704	-0.255869	0.824746
H86	H	1.409034	-0.342622	0.833457
H87	H	1.402690	-0.270097	0.916288
H88	H	1.252260	-0.394609	0.870626
H89	H	1.246039	-0.322028	0.953414
O90	O	0.927714	-0.364573	0.364655
C91	C	1.077400	-0.323159	0.323279
C92	C	1.019115	-0.381755	0.381680
H93	H	1.151308	-0.337041	0.337011
H94	H	1.062099	-0.255654	0.333801
H95	H	1.061931	-0.333439	0.255742
H96	H	1.034550	-0.371549	0.449238
H97	H	1.034425	-0.449239	0.371086
