data_functionalizedCrystal
_audit_creation_method	'MofGen! by Chris Wilmer'
_symmetry_space_group_name_H-M	'P1'
_symmetry_Int_Tables_number	1
_symmetry_cell_setting	triclinic
loop_
_symmetry_equiv_pos_as_xyz
  x,y,z
_cell_length_a	16.625548
_cell_length_b	19.805405
_cell_length_c	19.805398
_cell_angle_alpha	90.030326
_cell_angle_beta	89.987843
_cell_angle_gamma	89.972522
loop_
_atom_site_label
_atom_site_type_symbol
_atom_site_fract_x
_atom_site_fract_y
_atom_site_fract_z
Zn1	Zn	1.232591	0.269453	-0.382694
Zn2	Zn	1.732591	0.769453	0.117306
Zn3	Zn	1.232505	0.382643	-0.269502
Zn4	Zn	1.732505	0.882643	0.230498
Zn5	Zn	1.097773	0.269476	-0.269521
Zn6	Zn	1.597773	0.769476	0.230479
Zn7	Zn	1.097714	0.382607	-0.382651
Zn8	Zn	1.597714	0.882607	0.117349
O9	O	1.165146	0.326045	-0.326092
O10	O	1.665146	0.826045	0.173908
O11	O	1.345412	0.284473	-0.367689
O12	O	1.845412	0.784473	0.132311
O13	O	1.214621	0.367656	-0.174788
O14	O	1.714621	0.867656	0.325212
O15	O	1.115718	0.174756	-0.284559
O16	O	1.615718	0.674756	0.215441
O17	O	1.345349	0.367634	-0.284528
O18	O	1.845349	0.867634	0.215472
O19	O	1.214768	0.174739	-0.367707
O20	O	1.714768	0.674739	0.132293
O21	O	1.115634	0.284512	-0.174802
O22	O	1.615634	0.784512	0.325198
O23	O	0.984933	0.284477	-0.284517
O24	O	1.484933	0.784477	0.215483
O25	O	1.115618	0.367573	-0.477373
O26	O	1.615618	0.867573	0.022627
O27	O	0.984890	0.367595	-0.367634
O28	O	1.484890	0.867595	0.132366
O29	O	1.214711	0.284438	-0.477405
O30	O	1.714711	0.784438	0.022595
O31	O	1.214564	0.477355	-0.284486
O32	O	1.714564	0.977355	0.215514
O33	O	1.115534	0.477329	-0.367616
O34	O	1.615534	0.977329	0.132384
C35	C	1.165055	0.501901	-0.326059
C36	C	1.665055	1.001901	0.173941
C37	C	1.165090	0.577133	-0.326068
C38	C	1.665090	1.077133	0.173932
C39	C	0.955655	0.326035	-0.326073
C40	C	1.455655	0.826035	0.173927
C41	C	0.866034	0.326047	-0.326081
C42	C	1.366034	0.826047	0.173919
C43	C	1.165168	0.325999	-0.502635
C44	C	1.665168	0.825999	-0.002635
C45	C	1.165177	0.325979	-0.577867
C46	C	1.665177	0.825979	-0.077867
C47	C	0.537858	0.326052	-0.326110
C48	C	1.037858	0.826052	0.173890
C49	C	0.629167	0.326049	-0.326100
C50	C	1.129167	0.826049	0.173900
C51	C	0.701943	0.326050	-0.326095
C52	C	1.201943	0.826050	0.173905
C53	C	0.793258	0.326046	-0.326086
C54	C	1.293258	0.826046	0.173914
C55	C	1.375455	0.326055	-0.326111
C56	C	1.875455	0.826055	0.173889
C57	C	1.465076	0.326059	-0.326120
C58	C	1.965076	0.826059	0.173880
C59	C	1.165259	0.149502	-0.326140
C60	C	1.665259	0.649502	0.173860
C61	C	1.165307	0.074270	-0.326160
C62	C	1.665307	0.574270	0.173840
C63	C	1.216705	0.612468	-0.282828
C64	C	1.716705	1.112468	0.217172
C65	C	1.216740	0.683157	-0.282843
C66	C	1.716740	1.183157	0.217157
C67	C	1.165154	0.718508	-0.326095
C68	C	1.665154	1.218508	0.173905
C69	C	1.113537	0.683168	-0.369340
C70	C	1.613537	1.183168	0.130660
C71	C	1.113507	0.612481	-0.369328
C72	C	1.613507	1.112481	0.130672
C73	C	1.113656	0.968241	-0.369390
C74	C	1.613656	1.468241	0.130610
C75	C	1.113687	1.038933	-0.369398
C76	C	1.613687	1.538933	0.130602
C77	C	1.216888	1.038917	-0.282905
C78	C	1.716888	1.538917	0.217095
C79	C	1.216858	0.968230	-0.282893
C80	C	1.716858	1.468230	0.217107
C81	C	1.165245	0.932896	-0.326140
C82	C	1.665245	1.432896	0.173860
C83	C	1.165209	0.856247	-0.326124
C84	C	1.665209	1.356247	0.173876
C85	C	1.165185	0.795155	-0.326108
C86	C	1.665185	1.295155	0.173892
C87	C	1.216846	0.369165	-1.039649
C88	C	1.716846	0.869165	-0.539649
C89	C	1.216824	0.369183	-0.968960
C90	C	1.716824	0.869183	-0.468960
C91	C	1.165277	0.325903	-0.933629
C92	C	1.665277	0.825903	-0.433629
C93	C	1.113743	0.282607	-0.968990
C94	C	1.613743	0.782607	-0.468990
C95	C	1.113762	0.282592	-1.039677
C96	C	1.613762	0.782592	-0.539677
C97	C	1.113665	0.282665	-0.683916
C98	C	1.613665	0.782665	-0.183916
C99	C	1.113652	0.282681	-0.613224
C100	C	1.613652	0.782681	-0.113224
C101	C	1.216728	0.369256	-0.613200
C102	C	1.716728	0.869256	-0.113200
C103	C	1.216746	0.369241	-0.683887
C104	C	1.716746	0.869241	-0.183887
C105	C	1.165210	0.325948	-0.719241
C106	C	1.665210	0.825948	-0.219241
C107	C	1.165233	0.325929	-0.795890
C108	C	1.665233	0.825929	-0.295890
C109	C	1.165257	0.325918	-0.856982
C110	C	1.665257	0.825918	-0.356982
C111	C	1.165171	0.326041	-0.150236
C112	C	1.665171	0.826041	0.349764
C113	C	1.165318	0.325870	-0.075005
C114	C	1.665318	0.825870	0.424995
H115	H	1.258769	0.711924	-0.247631
H116	H	1.758769	1.211924	0.252369
H117	H	1.071803	0.247337	-1.068462
H118	H	1.571803	0.747337	-0.568462
O119	O	1.266844	0.411348	-0.718102
O120	O	1.766844	0.911348	-0.218102
C121	C	1.312335	0.449554	-0.671738
C122	C	1.812335	0.949554	-0.171738
H123	H	1.279296	0.451906	-0.621348
H124	H	1.779296	0.951906	-0.121348
H125	H	1.373587	0.424774	-0.664229
H126	H	1.873587	0.924774	-0.164229
C127	C	1.364493	0.518698	-0.761192
C128	C	1.864493	1.018698	-0.261192
C129	C	1.323910	0.521591	-0.699304
C130	C	1.823910	1.021591	-0.199304
H131	H	1.371637	0.563133	-0.778197
H132	H	1.871637	1.063133	-0.278197
H133	H	1.333848	0.492956	-0.792430
H134	H	1.833848	0.992956	-0.292430
H135	H	1.415532	0.498045	-0.754927
H136	H	1.915532	0.998045	-0.254927
H137	H	1.272868	0.542236	-0.705572
H138	H	1.772868	1.042236	-0.205572
H139	H	1.354547	0.547339	-0.668068
H140	H	1.854547	1.047339	-0.168068
O141	O	1.267060	1.073137	-0.240834
O142	O	1.767060	1.573137	0.259166
C143	C	1.312594	1.026776	-0.202667
C144	C	1.812594	1.526776	0.297333
H145	H	1.279545	0.976414	-0.200291
H146	H	1.779545	1.476414	0.299709
H147	H	1.373808	1.019195	-0.227498
H148	H	1.873808	1.519195	0.272502
C149	C	1.364879	1.116259	-0.133562
C150	C	1.864879	1.616259	0.366438
C151	C	1.324284	1.054405	-0.130639
C152	C	1.824284	1.554405	0.369361
H153	H	1.372094	1.133303	-0.089132
H154	H	1.872094	1.633303	0.410868
H155	H	1.334204	1.147494	-0.159277
H156	H	1.834204	1.647494	0.340723
H157	H	1.415886	1.109933	-0.154257
H158	H	1.915886	1.609933	0.345743
H159	H	1.273274	1.060734	-0.109952
H160	H	1.773274	1.560734	0.390048
H161	H	1.354951	1.023172	-0.104918
H162	H	1.854951	1.523172	0.395082
O163	O	1.266890	0.578235	-0.240788
O164	O	1.766890	1.078235	0.259212
C165	C	1.312440	0.624585	-0.202615
C166	C	1.812440	1.124585	0.297385
H167	H	1.315230	0.674951	-0.230351
H168	H	1.815230	1.174951	0.269649
H169	H	1.282958	0.632161	-0.151189
H170	H	1.782958	1.132161	0.348811
C171	C	1.394824	0.535084	-0.158852
C172	C	1.894824	1.035084	0.341148
C173	C	1.398257	0.596943	-0.192921
C174	C	1.898257	1.096943	0.307079
H175	H	1.447759	0.518033	-0.152870
H176	H	1.947759	1.018033	0.347130
H177	H	1.364135	0.503857	-0.184568
H178	H	1.864135	1.003857	0.315432
H179	H	1.370252	0.541406	-0.116001
H180	H	1.870252	1.041406	0.383999
H181	H	1.422819	0.590619	-0.235775
H182	H	1.922819	1.090619	0.264225
H183	H	1.428952	0.628169	-0.167212
H184	H	1.928952	1.128169	0.332788
O185	O	1.266854	0.933860	-0.240805
O186	O	1.766854	1.433860	0.259195
C187	C	1.220970	0.893021	-0.197057
C188	C	1.720970	1.393021	0.302943
H189	H	1.157478	0.914371	-0.192829
H190	H	1.657478	1.414371	0.307171
H191	H	1.218152	0.839436	-0.217974
H192	H	1.718152	1.339436	0.282026
C193	C	1.338406	0.865733	-0.131919
C194	C	1.838406	1.365733	0.368081
C195	C	1.260426	0.891959	-0.126721
C196	C	1.760426	1.391959	0.373279
H197	H	1.362745	0.865075	-0.088533
H198	H	1.862745	1.365075	0.411467
H199	H	1.369319	0.893245	-0.161394
H200	H	1.869319	1.393245	0.338606
H201	H	1.336046	0.821082	-0.149353
H202	H	1.836046	1.321082	0.350647
H203	H	1.262787	0.936612	-0.109296
H204	H	1.762787	1.436612	0.390704
H205	H	1.229513	0.864454	-0.097241
H206	H	1.729513	1.364454	0.402759
O207	O	1.063590	0.240545	-0.934775
O208	O	1.563590	0.740545	-0.434775
C209	C	1.018126	0.202318	-0.981142
C210	C	1.518126	0.702318	-0.481142
H211	H	1.015332	0.230032	-1.031521
H212	H	1.515332	0.730032	-0.531521
H213	H	1.047684	0.150911	-0.988676
H214	H	1.547684	0.650911	-0.488676
C215	C	0.935740	0.158531	-0.891682
C216	C	1.435740	0.658531	-0.391682
C217	C	0.932303	0.192571	-0.953557
C218	C	1.432303	0.692571	-0.453557
H219	H	0.882802	0.152515	-0.874666
H220	H	1.382802	0.652515	-0.374666
H221	H	0.966372	0.184282	-0.860443
H222	H	1.466372	0.684282	-0.360443
H223	H	0.960376	0.115695	-0.897969
H224	H	1.460376	0.615695	-0.397969
H225	H	0.907678	0.235409	-0.947268
H226	H	1.407678	0.735409	-0.447268
H227	H	0.901665	0.166827	-0.984794
H228	H	1.401665	0.666827	-0.484794
H229	H	1.071681	1.067715	-0.404624
H230	H	1.571681	1.567715	0.095376
H231	H	1.071628	0.939478	-0.404602
H232	H	1.571628	1.439478	0.095398
H233	H	1.071538	0.711957	-0.404560
H234	H	1.571538	1.211957	0.095440
H235	H	1.071478	0.583711	-0.404540
H236	H	1.571478	1.083711	0.095460
H237	H	1.258826	0.404405	-1.068411
H238	H	1.758826	0.904405	-0.568411
O239	O	1.266962	0.411255	-0.934721
O240	O	1.766962	0.911255	-0.434721
C241	C	1.312455	0.449458	-0.981063
C242	C	1.812455	0.949458	-0.481063
H243	H	1.315270	0.421724	-1.031460
H244	H	1.815270	0.921724	-0.531460
H245	H	1.282908	0.500865	-0.988563
H246	H	1.782908	1.000865	-0.488563
C247	C	1.394803	0.493273	-0.891575
C248	C	1.894803	0.993273	-0.391575
C249	C	1.398266	0.459207	-0.953472
C250	C	1.898266	0.959207	-0.453472
H251	H	1.447734	0.499290	-0.874555
H252	H	1.947734	0.999290	-0.374555
H253	H	1.364152	0.467538	-0.860353
H254	H	1.864152	0.967538	-0.360353
H255	H	1.370177	0.536109	-0.897834
H256	H	1.870177	1.036109	-0.397834
H257	H	1.422882	0.416369	-0.947211
H258	H	1.922882	0.916369	-0.447211
H259	H	1.428923	0.484936	-0.984693
H260	H	1.928923	0.984936	-0.484693
H261	H	1.258689	0.404509	-0.584406
H262	H	1.758689	0.904509	-0.084406
O263	O	1.063455	0.240713	-0.578932
O264	O	1.563455	0.740713	-0.078932
C265	C	0.983090	0.255494	-0.596209
C266	C	1.483090	0.755494	-0.096209
H267	H	0.978996	0.309562	-0.615625
H268	H	1.478996	0.809562	-0.115625
H269	H	0.962038	0.219197	-0.637248
H270	H	1.462038	0.719197	-0.137248
C271	C	0.934299	0.181230	-0.509566
C272	C	1.434299	0.681230	-0.009566
C273	C	0.929270	0.247639	-0.533409
C274	C	1.429270	0.747639	-0.033409
H275	H	0.901099	0.176382	-0.470830
H276	H	1.401099	0.676382	0.029170
H277	H	0.988443	0.171269	-0.497928
H278	H	1.488443	0.671269	0.002072
H279	H	0.916757	0.150990	-0.543772
H280	H	1.416757	0.650990	-0.043772
H281	H	0.946821	0.277877	-0.499206
H282	H	1.446821	0.777877	0.000794
H283	H	0.875128	0.257605	-0.545040
H284	H	1.375128	0.757605	-0.045040
H285	H	1.071699	0.247413	-0.712693
H286	H	1.571699	0.747413	-0.212693
