data_functionalizedCrystal
_audit_creation_method	'MofGen! by Chris Wilmer'
_symmetry_space_group_name_H-M	'P1'
_symmetry_Int_Tables_number	1
_symmetry_cell_setting	triclinic
loop_
_symmetry_equiv_pos_as_xyz
  x,y,z
_cell_length_a	15.297475
_cell_length_b	29.839132
_cell_length_c	15.296720
_cell_angle_alpha	99.634725
_cell_angle_beta	88.382886
_cell_angle_gamma	99.653501
loop_
_atom_site_label
_atom_site_type_symbol
_atom_site_fract_x
_atom_site_fract_y
_atom_site_fract_z
Zn1	Zn	1.253141	0.349608	0.726471
Zn2	Zn	1.753141	0.849608	1.226471
Zn3	Zn	1.278356	0.414291	0.579963
Zn4	Zn	1.778356	0.914291	1.079963
Zn5	Zn	1.132038	0.324372	0.554721
Zn6	Zn	1.632038	0.824372	1.054721
Zn7	Zn	1.106585	0.409876	0.701093
Zn8	Zn	1.606585	0.909876	1.201093
O9	O	1.192530	0.374537	0.640562
O10	O	1.692530	0.874537	1.140562
O11	O	1.379055	0.370597	0.728221
O12	O	1.879055	0.870597	1.228221
O13	O	1.280151	0.393650	0.454043
O14	O	1.780151	0.893650	0.954043
O15	O	1.148202	0.264866	0.577561
O16	O	1.648202	0.764866	1.077561
O17	O	1.397580	0.418120	0.620582
O18	O	1.897580	0.918120	1.120582
O19	O	1.237176	0.283407	0.703745
O20	O	1.737176	0.783407	1.203745
O21	O	1.172651	0.327587	0.435498
O22	O	1.672651	0.827587	0.935498
O23	O	1.006093	0.323305	0.552953
O24	O	1.506093	0.823305	1.052953
O25	O	1.104822	0.410594	0.827031
O26	O	1.604822	0.910594	1.327031
O27	O	0.987393	0.386124	0.660492
O28	O	1.487393	0.886124	1.160492
O29	O	1.212496	0.366316	0.845676
O30	O	1.712496	0.866316	1.345676
O31	O	1.255470	0.476559	0.595975
O32	O	1.755470	0.976559	1.095975
O33	O	1.129271	0.473315	0.684968
O34	O	1.629271	0.973315	1.184968
C35	C	0.964962	0.351498	0.601230
C36	C	1.464962	0.851498	1.101230
C37	C	0.867604	0.341654	0.584425
C38	C	1.367604	0.841654	1.084425
C39	C	1.192366	0.491238	0.640480
C40	C	1.692366	0.991238	1.140480
C41	C	1.192370	0.541174	0.640488
C42	C	1.692370	1.041174	1.140488
C43	C	0.554381	0.444896	0.760677
C44	C	1.054381	0.944896	1.260677
C45	C	0.645854	0.454148	0.776464
C46	C	1.145854	0.954148	1.276464
C47	C	0.701296	0.426025	0.728456
C48	C	1.201296	0.926025	1.228456
C49	C	0.665256	0.388649	0.664657
C50	C	1.165256	0.888649	1.164657
C51	C	0.573774	0.379398	0.648863
C52	C	1.073774	0.879398	1.148863
C53	C	0.720689	0.360527	0.616642
C54	C	1.220689	0.860527	1.116642
C55	C	0.684649	0.323151	0.552844
C56	C	1.184649	0.823151	1.052844
C57	C	0.593176	0.313902	0.537053
C58	C	1.093176	0.813902	1.037053
C59	C	0.537734	0.342025	0.585061
C60	C	1.037734	0.842025	1.085061
C61	C	0.812171	0.369778	0.632436
C62	C	1.312171	0.869778	1.132436
C63	C	0.831564	0.304280	0.520623
C64	C	1.331564	0.804280	1.020623
C65	C	0.740091	0.295028	0.504835
C66	C	1.240091	0.795028	1.004835
C67	C	1.258273	0.852521	0.594276
C68	C	1.758273	1.352521	1.094276
C69	C	1.258353	1.040204	0.594310
C70	C	1.758353	1.540204	1.094310
O71	O	1.314295	1.065907	0.554987
O72	O	1.814295	1.565907	1.054987
N73	N	1.192619	1.061989	0.640592
N74	N	1.692619	1.561989	1.140592
C75	C	1.126863	1.036851	0.686874
C76	C	1.626863	1.536851	1.186874
O77	O	1.070960	1.059689	0.726248
O78	O	1.570960	1.559689	1.226248
C79	C	1.126788	0.849170	0.686844
C80	C	1.626788	1.349170	1.186844
C81	C	1.192521	0.827386	0.640552
C82	C	1.692521	1.327386	1.140552
C83	C	1.324002	0.830737	0.547988
C84	C	1.824002	1.330737	1.047988
C85	C	1.323978	0.783819	0.547976
C86	C	1.823978	1.283819	1.047976
C87	C	1.258226	0.758684	0.594252
C88	C	1.758226	1.258684	1.094252
C89	C	1.192498	0.780468	0.640540
C90	C	1.692498	1.280468	1.140540
C91	C	1.061037	0.824034	0.733130
C92	C	1.561037	1.324034	1.233130
C93	C	1.061025	0.777111	0.733121
C94	C	1.561025	1.277111	1.233121
C95	C	1.126758	0.755327	0.686828
C96	C	1.626758	1.255327	1.186828
C97	C	1.126722	0.708415	0.686803
C98	C	1.626722	1.208415	1.186803
N99	N	1.192456	0.686629	0.640521
N100	N	1.692456	1.186629	1.140521
C101	C	1.258209	0.711764	0.594246
C102	C	1.758209	1.211764	1.094246
C103	C	1.126907	1.135387	0.686885
C104	C	1.626907	1.635387	1.186885
C105	C	1.126925	1.182307	0.686891
C106	C	1.626925	1.682307	1.186891
C107	C	1.258416	1.185656	0.594328
C108	C	1.758416	1.685656	1.094328
C109	C	1.258394	1.138735	0.594318
C110	C	1.758394	1.638735	1.094318
C111	C	1.192641	1.113601	0.640603
C112	C	1.692641	1.613601	1.140603
C113	C	1.258154	0.613232	0.594223
C114	C	1.758154	1.113232	1.094223
C115	C	1.258122	0.566308	0.594212
C116	C	1.758122	1.066308	1.094212
C117	C	1.126634	0.562963	0.686778
C118	C	1.626634	1.062963	1.186778
C119	C	1.126663	0.609882	0.686786
C120	C	1.626663	1.109882	1.186786
C121	C	1.192430	0.635016	0.640506
C122	C	1.692430	1.135016	1.140506
O123	O	1.070816	0.682685	0.726114
O124	O	1.570816	1.182685	1.226114
O125	O	1.314115	0.688921	0.554894
O126	O	1.814115	1.188921	1.054894
C127	C	1.258297	0.899440	0.594288
C128	C	1.758297	1.399440	1.094288
C129	C	1.192568	0.921223	0.640576
C130	C	1.692568	1.421223	1.140576
C131	C	1.126816	0.896089	0.686852
C132	C	1.626816	1.396089	1.186852
C133	C	1.192586	0.968143	0.640582
C134	C	1.692586	1.468143	1.140582
C135	C	1.258338	0.993278	0.594306
C136	C	1.758338	1.493278	1.094306
C137	C	1.324072	0.971493	0.548024
C138	C	1.824072	1.471493	1.048024
C139	C	1.324049	0.924574	0.548012
C140	C	1.824049	1.424574	1.048012
C141	C	1.061082	0.917874	0.733134
C142	C	1.561082	1.417874	1.233134
C143	C	1.061110	0.964792	0.733141
C144	C	1.561110	1.464792	1.233141
C145	C	1.126862	0.989927	0.686865
C146	C	1.626862	1.489927	1.186865
C147	C	1.420986	0.397666	0.680048
C148	C	1.920986	0.897666	1.180048
C149	C	1.518341	0.407523	0.696875
C150	C	2.018341	0.907523	1.196875
C151	C	1.153007	0.390777	0.869024
C152	C	1.653007	0.890777	1.369024
C153	C	1.136165	0.397698	0.966380
C154	C	1.636165	0.897698	1.466380
C155	C	1.192686	1.257379	0.640643
C156	C	1.692686	1.757379	1.140643
C157	C	1.192677	1.207441	0.640615
C158	C	1.692677	1.707441	1.140615
C159	C	1.231949	0.358332	0.412998
C160	C	1.731949	0.858332	0.912998
C161	C	1.248961	0.351302	0.315671
C162	C	1.748961	0.851302	0.815671
C163	C	1.312937	0.324997	1.279644
C164	C	1.812937	0.824997	1.779644
C165	C	1.328767	0.318496	1.188173
C166	C	1.828767	0.818496	1.688173
C167	C	1.280617	0.338296	1.132721
C168	C	1.780617	0.838296	1.632721
C169	C	1.216636	0.364598	1.168747
C170	C	1.716636	0.864598	1.668747
C171	C	1.200810	0.371103	1.260228
C172	C	1.700810	0.871103	1.760228
C173	C	1.168490	0.384402	1.113304
C174	C	1.668490	0.884402	1.613304
C175	C	1.104509	0.410704	1.149331
C176	C	1.604509	0.910704	1.649331
C177	C	1.088685	0.417207	1.240803
C178	C	1.588685	0.917207	1.740803
C179	C	1.136834	0.397408	1.296255
C180	C	1.636834	0.897408	1.796255
C181	C	1.184317	0.377897	1.021824
C182	C	1.684317	0.877897	1.521824
C183	C	1.072189	0.424003	1.002408
C184	C	1.572189	0.924003	1.502408
C185	C	1.056360	0.430504	1.093878
C186	C	1.556360	0.930504	1.593878
H187	H	0.841505	0.400210	0.684382
H188	H	1.341505	0.900210	1.184382
C189	C	0.493391	0.475828	0.813475
C190	C	0.993391	0.975828	1.313475
N191	N	0.447451	0.499128	0.853246
N192	N	0.947451	0.999128	1.353246
C193	C	0.985980	0.459435	1.133520
C194	C	1.485980	0.959435	1.633520
N195	N	0.932969	0.481225	1.163379
N196	N	1.432969	0.981225	1.663379
H197	H	1.007539	0.897413	0.770818
H198	H	1.507539	1.397413	1.270818
H199	H	1.073097	0.542491	0.724452
H200	H	1.573097	1.042491	1.224452
C201	C	1.396359	0.900618	0.497083
C202	C	1.896359	1.400618	0.997083
N203	N	1.450826	0.882577	0.458719
N204	N	1.950826	1.382577	0.958719
C205	C	0.988792	0.988749	0.784069
C206	C	1.488792	1.488749	1.284069
N207	N	0.934327	1.006792	0.822433
N208	N	1.434327	1.506792	1.322433
H209	H	1.311954	1.206129	0.556649
H210	H	1.811954	1.706129	1.056649
H211	H	1.123949	0.402700	1.370739
H212	H	1.623949	0.902700	1.870739
C213	C	1.399136	0.289560	1.148550
C214	C	1.899136	0.789560	1.648550
N215	N	1.452139	0.267761	1.118704
N216	N	1.952139	0.767761	1.618704
C217	C	1.396399	0.999150	0.497119
C218	C	1.896399	1.499150	0.997119
N219	N	1.450875	1.019984	0.458784
N220	N	1.950875	1.519984	0.958784
C221	C	1.054350	0.633844	0.737706
C222	C	1.554350	1.133844	1.237706
N223	N	0.999889	0.651891	0.776068
N224	N	1.499889	1.151891	1.276068
C225	C	1.365889	0.303218	1.340646
C226	C	1.865889	0.803218	1.840646
N227	N	1.405774	0.286811	1.386594
N228	N	1.905774	0.786811	1.886594
C229	C	0.700434	0.253916	0.434655
C230	C	1.200434	0.753916	0.934655
N231	N	0.670564	0.222951	0.381794
N232	N	1.170564	0.722951	0.881794
H233	H	0.775777	0.433561	0.741314
H234	H	1.275777	0.933561	1.241314
C235	C	1.254689	0.348961	0.982205
C236	C	1.754689	0.848961	1.482205
N237	N	1.307695	0.327164	0.952364
N238	N	1.807695	0.827164	1.452364
C239	C	1.018307	0.446143	1.280430
C240	C	1.518307	0.946143	1.780430
N241	N	0.965297	0.467937	1.310275
N242	N	1.465297	0.967937	1.810275
H243	H	1.032984	0.440126	0.957258
H244	H	1.532984	0.940126	1.457258
H245	H	0.463248	0.334493	0.572213
H246	H	0.963248	0.834493	1.072213
H247	H	1.377550	0.851198	0.510305
H248	H	1.877550	1.351198	1.010305
H249	H	0.675192	0.484581	0.828407
H250	H	1.175192	0.984581	1.328407
H251	H	0.563837	0.283471	0.485095
H252	H	1.063837	0.783471	0.985095
C253	C	0.892546	0.273342	0.467812
C254	C	1.392546	0.773342	0.967812
N255	N	0.938483	0.250041	0.428038
N256	N	1.438483	0.750041	0.928038
H257	H	1.293510	0.333001	1.058242
H258	H	1.793510	0.833001	1.558242
C259	C	1.330434	0.542349	0.543280
C260	C	1.830434	1.042349	1.043280
N261	N	1.384897	0.524303	0.504918
N262	N	1.884897	1.024303	1.004918
H263	H	1.311709	0.633690	0.556540
H264	H	1.811709	1.133690	1.056540
C265	C	1.396285	0.759862	0.497042
C266	C	1.896285	1.259862	0.997042
N267	N	1.450749	0.741820	0.458673
N268	N	1.950749	1.241820	0.958673
H269	H	1.007482	0.756650	0.770815
H270	H	1.507482	1.256650	1.270815
C271	C	1.054606	1.206262	0.737806
C272	C	1.554606	1.706262	1.237806
N273	N	1.000136	1.224304	0.776162
N274	N	1.500136	1.724304	1.276162
C275	C	1.054588	1.107750	0.737832
C276	C	1.554588	1.607750	1.237832
N277	N	1.000123	1.086937	0.776215
N278	N	1.500123	1.586937	1.276215
C279	C	1.330707	1.114777	0.543396
C280	C	1.830707	1.614777	1.043396
N281	N	1.385178	1.096736	0.505041
N282	N	1.885178	1.596736	1.005041
C283	C	0.988725	0.847986	0.784060
C284	C	1.488725	1.347986	1.284060
N285	N	0.934257	0.866026	0.822425
N286	N	1.434257	1.366026	1.322425
