data_functionalizedCrystal
_audit_creation_method	'MofGen! by Chris Wilmer'
_symmetry_space_group_name_H-M	'P1'
_symmetry_Int_Tables_number	1
_symmetry_cell_setting	triclinic
loop_
_symmetry_equiv_pos_as_xyz
  x,y,z
_cell_length_a	12.503584
_cell_length_b	17.699083
_cell_length_c	17.699083
_cell_angle_alpha	96.716985
_cell_angle_beta	86.484170
_cell_angle_gamma	86.494770
loop_
_atom_site_label
_atom_site_type_symbol
_atom_site_fract_x
_atom_site_fract_y
_atom_site_fract_z
O1	O	-0.089171	1.008441	-0.091331
O2	O	0.410829	1.508441	0.408669
O3	O	-0.089207	0.788065	-0.103782
O4	O	0.410793	1.288065	0.396218
O5	O	-0.089179	0.904479	0.012632
O6	O	0.410821	1.404479	0.512632
O7	O	-0.089200	0.892027	-0.207745
O8	O	0.410800	1.392027	0.292255
O9	O	0.089461	0.895723	0.003861
O10	O	0.589461	1.395723	0.503861
O11	O	0.089433	0.779309	-0.112553
O12	O	0.589433	1.279309	0.387447
O13	O	0.089468	0.999686	-0.100102
O14	O	0.589468	1.499686	0.399898
Cu15	Cu	0.105762	0.888698	-0.107128
Cu16	Cu	0.605762	1.388698	0.392872
Cu17	Cu	-0.105500	0.899052	-0.096756
Cu18	Cu	0.394500	1.399052	0.403244
O19	O	0.089440	0.883272	-0.216516
O20	O	0.589440	1.383272	0.283484
C21	C	0.000109	0.755490	-0.107721
C22	C	0.500109	1.255490	0.392279
C23	C	0.000095	0.671473	-0.106382
C24	C	0.500095	1.171473	0.393618
N25	N	0.254352	0.881421	-0.114423
N26	N	0.754352	1.381421	0.385577
C27	C	0.000089	0.622852	-0.174715
C28	C	0.500089	1.122852	0.325285
C29	C	0.000103	0.543908	-0.173453
C30	C	0.500103	1.043908	0.326547
C31	C	0.000116	0.513587	-0.103857
C32	C	0.500116	1.013587	0.396143
C33	C	0.000125	0.562213	-0.035519
C34	C	0.500125	1.062213	0.464481
C35	C	0.000119	0.641155	-0.036782
C36	C	0.500119	1.141155	0.463218
C37	C	0.000152	0.243849	-0.030425
C38	C	0.500152	0.743849	0.469575
C39	C	0.000155	0.164901	-0.029168
C40	C	0.500155	0.664901	0.470832
C41	C	0.000137	0.146602	-0.167097
C42	C	0.500137	0.646602	0.332903
C43	C	0.000130	0.225544	-0.168359
C44	C	0.500130	0.725544	0.331641
C45	C	0.000145	0.274163	-0.100022
C46	C	0.500145	0.774163	0.399978
C47	C	0.000132	0.359763	-0.101391
C48	C	0.500132	0.859763	0.398609
C49	C	0.000121	0.427989	-0.102487
C50	C	0.500121	0.927989	0.397513
C51	C	0.473465	0.870716	-0.125161
C52	C	0.973465	1.370716	0.374839
C53	C	0.526803	0.917036	-0.078727
C54	C	1.026803	1.417036	0.421273
C55	C	0.648725	0.911079	-0.084702
C56	C	1.148725	1.411079	0.415298
C57	C	0.351532	0.876671	-0.119187
C58	C	0.851532	1.376671	0.380813
N59	N	0.745909	0.906333	-0.089463
N60	N	1.245909	1.406333	0.410537
C61	C	0.000141	0.899655	0.036444
C62	C	0.500141	1.399655	0.536444
C63	C	0.000142	0.898316	0.120462
C64	C	0.500142	1.398316	0.620462
C65	C	0.000151	1.032260	-0.096163
C66	C	0.500151	1.532260	0.403837
C67	C	0.000157	1.116278	-0.097502
C68	C	0.500157	1.616278	0.402498
C69	C	0.000118	0.888096	-0.240328
C70	C	0.500118	1.388096	0.259672
C71	C	0.000111	0.889435	-0.324345
C72	C	0.500111	1.389435	0.175655
C73	C	0.000154	0.966649	0.169082
C74	C	0.500154	1.466649	0.669082
C75	C	0.000144	0.965387	0.248026
C76	C	0.500144	1.465387	0.748026
C77	C	0.000130	0.895791	0.278347
C78	C	0.500130	1.395791	0.778347
C79	C	0.000114	0.827453	0.229721
C80	C	0.500114	1.327453	0.729721
C81	C	0.000116	0.828716	0.150779
C82	C	0.500116	1.328716	0.650779
C83	C	0.000105	0.822359	0.548084
C84	C	0.500105	1.322359	1.048084
C85	C	0.000106	0.821101	0.627032
C86	C	0.500106	1.321101	1.127032
C87	C	0.000133	0.959029	0.645331
C88	C	0.500133	1.459029	1.145331
C89	C	0.000135	0.960292	0.566389
C90	C	0.500135	1.460292	1.066389
C91	C	0.000113	0.891955	0.517770
C92	C	0.500113	1.391955	1.017770
C93	C	0.000122	0.893324	0.432171
C94	C	0.500122	1.393324	0.932171
C95	C	0.000129	0.894421	0.363945
C96	C	0.500129	1.394421	0.863945
H97	H	0.000078	0.647533	-0.231388
H98	H	0.500078	1.147533	0.268612
Cl99	Cl	0.455940	0.985457	-0.010712
Cl100	Cl	0.955940	1.485457	0.489288
H101	H	0.519362	0.826590	-0.169399
H102	H	1.019362	1.326590	0.330601
Cl103	Cl	0.000183	1.054145	0.130971
Cl104	Cl	0.500183	1.554145	0.630971
Cl105	Cl	0.000155	1.044941	0.706458
Cl106	Cl	0.500155	1.544941	1.206458
H107	H	0.000087	0.766714	0.508508
H108	H	0.500087	1.266714	1.008508
H109	H	0.000157	1.021031	0.287610
H110	H	0.500157	1.521031	0.787610
H111	H	0.000095	0.770788	0.254415
H112	H	0.500095	1.270788	0.754415
H113	H	0.000152	1.016964	0.541706
H114	H	0.500152	1.516964	1.041706
Cl115	Cl	0.000096	0.742809	0.089656
Cl116	Cl	0.500096	1.242809	0.589656
H117	H	0.000096	0.764424	0.651716
H118	H	0.500096	1.264424	1.151716
H119	H	0.000130	0.107005	-0.222741
H120	H	0.500130	0.607005	0.277259
H121	H	0.000097	0.504324	-0.229097
H122	H	0.500097	1.004324	0.270903
H123	H	0.000165	0.283426	0.025219
H124	H	0.500165	0.783426	0.525219
Cl125	Cl	0.000108	0.263658	-0.255854
Cl126	Cl	0.500108	0.763658	0.244146
H127	H	0.000151	0.537519	0.021146
H128	H	0.500151	1.037519	0.521146
Cl129	Cl	0.000172	0.126784	0.058331
Cl130	Cl	0.500172	0.626784	0.558331
H131	H	0.000123	0.680742	0.018862
H132	H	0.500123	1.180742	0.518862
