data_functionalizedCrystal
_audit_creation_method	'MofGen! by Chris Wilmer'
_symmetry_space_group_name_H-M	'P1'
_symmetry_Int_Tables_number	1
_symmetry_cell_setting	triclinic
loop_
_symmetry_equiv_pos_as_xyz
  x,y,z
_cell_length_a	17.038278
_cell_length_b	19.188905
_cell_length_c	15.500227
_cell_angle_alpha	87.158310
_cell_angle_beta	93.026324
_cell_angle_gamma	87.122528
loop_
_atom_site_label
_atom_site_type_symbol
_atom_site_fract_x
_atom_site_fract_y
_atom_site_fract_z
O1	O	0.093849	0.935251	-0.072101
O2	O	0.107008	0.732753	-0.072074
O3	O	-0.013382	0.832798	-0.072066
O4	O	0.214239	0.835205	-0.072110
O5	O	-0.006105	0.826726	0.071823
O6	O	0.114285	0.726680	0.071814
O7	O	0.101126	0.929178	0.071787
Cu8	Cu	0.108370	0.827375	0.084939
Cu9	Cu	0.099764	0.834556	-0.085226
O10	O	0.221516	0.829133	0.071778
C11	C	-0.038864	0.827573	-0.000117
C12	C	-0.125635	0.821041	-0.000105
C13	C	0.110224	0.703679	-0.000126
C14	C	0.108955	0.626094	-0.000114
C15	C	0.104379	0.592975	-0.078550
C16	C	0.103177	0.520077	-0.078560
C17	C	0.106536	0.480302	-0.000131
C18	C	0.111118	0.513429	0.078315
C19	C	0.112327	0.586325	0.078323
N20	N	0.063106	0.365937	0.058246
N21	N	0.061955	0.296689	0.058232
C22	C	0.102894	0.260670	-0.000151
N23	N	0.145016	0.296516	-0.058534
N24	N	0.146164	0.365771	-0.058523
C25	C	0.105225	0.401258	-0.000131
C26	C	0.097015	0.148507	-0.078604
C27	C	0.095818	0.075607	-0.078611
C28	C	0.103751	0.068961	0.078267
C29	C	0.104955	0.141859	0.078272
C30	C	0.101583	0.181628	-0.000166
C31	C	-0.615921	0.780923	-0.000179
C32	C	-0.534390	0.787064	-0.000171
C33	C	-0.503170	0.853173	-0.000168
C34	C	-0.553486	0.913145	-0.000182
C35	C	-0.635016	0.907003	-0.000196
C36	C	-0.257481	0.874871	-0.000132
C37	C	-0.175945	0.881008	-0.000116
C38	C	-0.156855	0.754927	-0.000107
C39	C	-0.238387	0.748791	-0.000115
C40	C	-0.288696	0.808763	-0.000134
C41	C	-0.419832	0.859452	-0.000158
C42	C	-0.372032	0.802484	-0.000150
C43	C	0.246998	0.834358	-0.000172
C44	C	0.333769	0.840890	-0.000190
C45	C	0.097910	0.958252	-0.000163
C46	C	0.099178	1.035837	-0.000180
N47	N	0.114422	0.822328	0.204623
N48	N	0.093706	0.839608	-0.204910
C49	C	0.063428	0.864738	0.249903
C50	C	0.068012	0.860929	0.340476
C51	C	0.123596	0.814713	0.385767
C52	C	0.174593	0.772298	0.340480
C53	C	0.170004	0.776105	0.249909
C54	C	0.140114	0.801000	0.659232
C55	C	0.144700	0.797198	0.749810
C56	C	0.038118	0.885828	0.749799
C57	C	0.033537	0.889633	0.659226
C58	C	0.084532	0.847216	0.613948
C59	C	0.128285	0.810819	0.478346
C60	C	0.079838	0.851106	0.521370
H61	H	0.101633	0.625350	-0.142420
H62	H	0.173544	0.773190	0.515229
O63	O	0.018448	0.902205	0.384327
C64	C	-0.031600	0.943807	0.324930
H65	H	-0.002825	0.949201	0.260356
H66	H	-0.090100	0.918111	0.315331
C67	C	-0.081460	1.010049	0.439558
C68	C	-0.046115	1.016679	0.360248
H69	H	-0.090417	1.055000	0.461344
H70	H	-0.047744	0.982020	0.479575
H71	H	-0.130206	0.988634	0.431547
H72	H	0.002634	1.038086	0.368261
H73	H	-0.079823	1.044714	0.320233
H74	H	-0.115885	0.706102	-0.000093
H75	H	0.106491	0.036577	0.142126
O76	O	-0.020528	0.934541	0.615368
C77	C	-0.064543	0.971170	0.674756
H78	H	-0.062075	0.939785	0.739331
H79	H	-0.038823	1.024128	0.684357
C80	C	-0.153734	1.020586	0.560116
C81	C	-0.150707	0.982036	0.639426
H82	H	-0.206883	1.027292	0.538322
H83	H	-0.124079	0.995911	0.520104
H84	H	-0.132296	1.064713	0.568128
H85	H	-0.172136	0.937906	0.631412
H86	H	-0.180368	1.006704	0.679436
O87	O	-0.402326	0.738259	-0.000307
C88	C	-0.380329	0.704546	-0.074808
H89	H	-0.366115	0.745316	-0.126895
H90	H	-0.326210	0.668087	-0.057945
C91	C	-0.466068	0.611822	-0.044633
C92	C	-0.448615	0.661897	-0.108610
H93	H	-0.508188	0.585512	-0.065482
H94	H	-0.480886	0.634534	0.005562
H95	H	-0.420963	0.581447	-0.030587
H96	H	-0.493717	0.692277	-0.122647
H97	H	-0.433807	0.639190	-0.158808
H98	H	0.018169	0.902375	0.213034
H99	H	0.094277	0.180888	-0.142472
H100	H	-0.150529	0.934845	-0.000113
H101	H	-0.003400	0.920361	0.786673
H102	H	0.189966	0.759562	0.786681
H103	H	-0.675978	0.955835	-0.000208
O104	O	-0.306230	0.933195	-0.000101
C105	C	-0.261189	0.992859	-0.000111
H106	H	-0.198904	0.977599	0.027139
H107	H	-0.258923	1.015817	-0.069139
C108	C	-0.375685	1.066376	0.022845
C109	C	-0.299187	1.047635	0.056321
H110	H	-0.399125	1.100166	0.057651
H111	H	-0.406031	1.026180	0.022848
H112	H	-0.373786	1.085504	-0.034678
H113	H	-0.301087	1.028500	0.113838
H114	H	-0.268841	1.087829	0.056328
O115	O	0.098695	0.488008	-0.154834
C116	C	0.096003	0.538739	-0.224061
H117	H	0.073287	0.591154	-0.201060
H118	H	0.157608	0.543901	-0.248193
C119	C	0.068430	0.452000	-0.326406
C120	C	0.040523	0.516376	-0.298157
H121	H	0.034211	0.438205	-0.372113
H122	H	0.070246	0.417821	-0.279767
H123	H	0.119767	0.456311	-0.346510
H124	H	-0.010809	0.512063	-0.278043
H125	H	0.038697	0.550554	-0.344794
H126	H	0.092096	0.048643	-0.142485
O127	O	0.189734	0.759774	0.615390
C128	C	0.239764	0.718158	0.674790
H129	H	0.243834	0.744122	0.739337
H130	H	0.215020	0.664391	0.684458
C131	C	0.317345	0.678370	0.560146
C132	C	0.322348	0.710262	0.639422
H133	H	0.368286	0.673496	0.538329
H134	H	0.283637	0.706405	0.520126
H135	H	0.296722	0.633567	0.568213
H136	H	0.342962	0.755067	0.631351
H137	H	0.356062	0.682234	0.679439
O138	O	-0.523205	0.977384	-0.000336
C139	C	-0.552695	1.017388	-0.074853
H140	H	-0.572141	0.981016	-0.126940
H141	H	-0.605125	1.052420	-0.058018
C142	C	-0.463933	1.107570	-0.044662
C143	C	-0.487811	1.062897	-0.108638
H144	H	-0.423912	1.135645	-0.065500
H145	H	-0.444067	1.080621	0.005544
H146	H	-0.507631	1.136757	-0.030638
H147	H	-0.444117	1.033705	-0.122653
H148	H	-0.507669	1.089843	-0.158847
H149	H	0.108677	0.168825	0.142143
O150	O	0.114237	0.474774	0.154480
C151	C	0.046098	0.436297	0.159172
H152	H	-0.003095	0.462878	0.114674
H153	H	0.059415	0.381062	0.138091
C154	C	0.080548	0.400328	0.307541
C155	C	0.020127	0.432979	0.252893
H156	H	0.064529	0.398278	0.365352
H157	H	0.126457	0.426248	0.304379
H158	H	0.091640	0.354302	0.289963
H159	H	0.009043	0.479007	0.270465
H160	H	-0.025784	0.407066	0.256060
O161	O	-0.268746	0.684583	0.000027
C162	C	-0.311606	0.674116	0.074527
H163	H	-0.289832	0.709533	0.126619
H164	H	-0.376807	0.687117	0.057667
C165	C	-0.326508	0.553777	0.044335
C166	C	-0.299759	0.597273	0.108318
H167	H	-0.319203	0.506377	0.065178
H168	H	-0.297634	0.560830	-0.005859
H169	H	-0.380840	0.564620	0.030291
H170	H	-0.245426	0.586436	0.122354
H171	H	-0.328623	0.590217	0.158516
O172	O	-0.646117	0.716652	-0.000221
C173	C	-0.584224	0.665041	-0.000190
H174	H	-0.530276	0.689054	-0.027421
H175	H	-0.569147	0.643390	0.068842
C176	C	-0.676119	0.575980	-0.023180
C177	C	-0.609860	0.605472	-0.056632
H178	H	-0.691932	0.539234	-0.057992
H179	H	-0.717817	0.610751	-0.023197
H180	H	-0.663545	0.557944	0.034346
H181	H	-0.622437	0.623515	-0.114152
H182	H	-0.568164	0.570703	-0.056625
O183	O	0.228505	0.727303	0.384436
C184	C	0.214884	0.658379	0.362324
H185	H	0.151039	0.655372	0.337446
H186	H	0.255607	0.642653	0.309748
C187	C	0.309653	0.612087	0.473355
C188	C	0.231236	0.608393	0.442806
H189	H	0.319743	0.581252	0.522998
H190	H	0.318833	0.658523	0.488250
H191	H	0.343580	0.598984	0.429533
H192	H	0.197311	0.621504	0.486623
H193	H	0.222051	0.561958	0.427919
H194	H	0.211528	0.741569	0.213043
H195	H	0.116055	0.613290	0.142197
H196	H	-0.394402	0.913277	-0.000127
H197	H	-0.493431	0.738232	-0.000165
H198	H	0.034579	0.888733	0.484492
