data_functionalizedCrystal
_audit_creation_method	'MofGen! by Chris Wilmer'
_symmetry_space_group_name_H-M	'P1'
_symmetry_Int_Tables_number	1
_symmetry_cell_setting	triclinic
loop_
_symmetry_equiv_pos_as_xyz
  x,y,z
_cell_length_a	19.805407
_cell_length_b	18.050590
_cell_length_c	18.050583
_cell_angle_alpha	89.959203
_cell_angle_beta	90.015185
_cell_angle_gamma	89.980192
loop_
_atom_site_label
_atom_site_type_symbol
_atom_site_fract_x
_atom_site_fract_y
_atom_site_fract_z
Zn1	Zn	1.034737	0.295659	0.419873
Zn2	Zn	1.034664	0.419872	0.295673
Zn3	Zn	0.921556	0.295695	0.295699
Zn4	Zn	0.921523	0.419806	0.419823
O5	O	0.978120	0.357758	0.357767
O6	O	1.129444	0.312149	0.403407
O7	O	1.019644	0.403442	0.191752
O8	O	0.936614	0.191766	0.312202
O9	O	1.129390	0.403408	0.312158
O10	O	1.019767	0.191739	0.403432
O11	O	0.936544	0.312210	0.191771
O12	O	0.826835	0.312146	0.312154
O13	O	0.936557	0.403295	0.523754
O14	O	0.826810	0.403330	0.403348
O15	O	1.019735	0.312085	0.523791
O16	O	1.019611	0.523788	0.312110
O17	O	0.936487	0.523740	0.403323
C18	C	0.802264	0.357735	0.357749
C19	C	0.727032	0.357743	0.357759
C20	C	0.691716	0.310309	0.405344
C21	C	0.621028	0.310312	0.405347
C22	C	0.585656	0.357755	0.357768
C23	C	0.620977	0.405192	0.310177
C24	C	0.691664	0.405183	0.310171
C25	C	0.335904	0.405225	0.310200
C26	C	0.265212	0.405231	0.310211
C27	C	0.265267	0.310354	0.405376
C28	C	0.335954	0.310346	0.405370
C29	C	0.371269	0.357779	0.357777
C30	C	0.447917	0.357773	0.357773
C31	C	0.509009	0.357765	0.357774
C32	C	0.978056	0.550710	0.357725
C33	C	0.978090	0.633256	0.357731
C34	C	1.023375	0.832706	0.308186
C35	C	1.039902	0.882029	0.375963
C36	C	0.978119	0.784386	0.357751
C37	C	0.961652	0.882145	0.289995
C38	C	0.978149	0.930372	0.357764
C39	C	0.994678	0.832622	0.425563
C40	C	0.916399	0.832734	0.339550
C41	C	0.932903	0.882035	0.407374
C42	C	0.978104	0.700288	0.357743
C43	C	0.978164	1.014468	0.357780
C44	C	1.154663	0.357782	0.357785
C45	C	1.229895	0.357792	0.357793
C46	C	0.978150	0.357679	0.551473
C47	C	0.978163	0.357645	0.634018
C48	C	0.978187	1.164053	0.357809
C49	C	0.978175	1.081507	0.357785
C50	C	0.978129	0.357784	0.164815
C51	C	0.978248	0.357608	0.082269
C52	C	1.023440	0.308021	0.833489
C53	C	0.961706	0.289842	0.882886
C54	C	0.978190	0.357632	0.785149
C55	C	1.039949	0.375765	0.882833
C56	C	0.978221	0.357619	0.931134
C57	C	0.916423	0.339418	0.833459
C58	C	0.994707	0.425373	0.833402
C59	C	0.932931	0.407219	0.882777
C60	C	0.978172	0.357638	0.701050
C61	C	0.978232	0.357613	1.015231
H62	H	0.720510	0.271677	0.444091
C63	C	0.942502	0.213512	0.989809
C64	C	0.942871	0.212503	0.912245
H65	H	0.930878	0.165765	1.007933
H66	H	0.986049	0.226748	1.007426
H67	H	0.910320	0.248698	1.006671
H68	H	0.975057	0.177319	0.895383
H69	H	0.899318	0.199256	0.894620
H70	H	1.008686	0.482649	0.811651
C71	C	0.599314	0.274295	0.531173
C72	C	0.582210	0.258173	0.457659
H73	H	0.575346	0.242106	0.563468
H74	H	0.646469	0.267502	0.537972
H75	H	0.587714	0.324208	0.541937
H76	H	0.593814	0.208261	0.446893
H77	H	0.535044	0.264960	0.450856
C78	C	0.942454	0.989074	0.213636
C79	C	0.942830	0.911509	0.212636
H80	H	0.930843	1.007199	0.165876
H81	H	0.910268	1.005957	0.248786
H82	H	0.986003	1.006668	0.226913
H83	H	0.899280	0.893914	0.199365
H84	H	0.975018	0.894619	0.177475
C85	C	1.107370	0.863288	0.217286
C86	C	1.075060	0.803459	0.251666
H87	H	1.139281	0.845230	0.182400
H88	H	1.074819	0.893002	0.192536
H89	H	1.129933	0.892201	0.253608
H90	H	1.052493	0.774549	0.215345
H91	H	1.107616	0.773733	0.276417
C92	C	0.897973	0.534567	0.885737
C93	C	0.881236	0.463846	0.911823
H94	H	0.866055	0.569521	0.903670
H95	H	0.941785	0.547559	0.902735
H96	H	0.897417	0.534584	0.833114
H97	H	0.881796	0.463828	0.964447
H98	H	0.837413	0.450851	0.894829
C99	C	0.357765	0.274305	0.531190
C100	C	0.374832	0.258193	0.457670
H101	H	0.381763	0.242102	0.563475
H102	H	0.369347	0.324207	0.541961
H103	H	0.310611	0.267520	0.537994
H104	H	0.421986	0.264984	0.450864
H105	H	0.363255	0.208279	0.446895
H106	H	0.236506	0.271729	0.444126
H107	H	1.092110	0.903685	0.391367
H108	H	0.864193	0.324009	0.811861
H109	H	0.894644	0.903557	0.449343
C110	C	1.013428	0.725820	0.502228
C111	C	1.013586	0.803389	0.502946
H112	H	1.025107	0.707774	0.549999
H113	H	0.969715	0.708537	0.489222
H114	H	1.045366	0.708545	0.466985
H115	H	0.981645	0.820665	0.538186
H116	H	1.057305	0.820679	0.515962
C117	C	1.157715	0.344458	0.887227
C118	C	1.110436	0.396483	0.912110
H119	H	1.201232	0.357248	0.905297
H120	H	1.145682	0.296679	0.904901
H121	H	1.158303	0.344174	0.834605
H122	H	1.109845	0.396764	0.964733
H123	H	1.122472	0.444275	0.894440
C124	C	0.272253	0.499008	0.216122
C125	C	0.226330	0.457379	0.257902
H126	H	0.248248	0.531196	0.183829
H127	H	0.299827	0.527453	0.248418
H128	H	0.299823	0.466605	0.187776
H129	H	0.198764	0.489781	0.286253
H130	H	0.198744	0.428931	0.225602
H131	H	0.364649	0.443849	0.271447
C132	C	0.828782	0.828424	0.247708
C133	C	0.845943	0.803468	0.318728
H134	H	0.785287	0.810351	0.234847
H135	H	0.828379	0.881039	0.247119
H136	H	0.861038	0.810795	0.212993
H137	H	0.813690	0.821102	0.353444
H138	H	0.846341	0.750842	0.319323
C139	C	1.041803	0.198682	0.760539
C140	C	1.075015	0.251354	0.804261
H141	H	1.073642	0.163702	0.742491
H142	H	1.008754	0.173901	0.789516
H143	H	1.020498	0.222725	0.719951
H144	H	1.096315	0.227313	0.844853
H145	H	1.108076	0.276138	0.775283
C146	C	0.512596	0.447338	0.267933
C147	C	0.582099	0.457343	0.257877
H148	H	0.488596	0.479540	0.235648
H149	H	0.501021	0.397435	0.257156
H150	H	0.501033	0.458267	0.317815
H151	H	0.593662	0.446409	0.207996
H152	H	0.593678	0.507257	0.268649
H153	H	0.720418	0.443809	0.271421
