data_functionalizedCrystal
_audit_creation_method	'MofGen! by Chris Wilmer'
_symmetry_space_group_name_H-M	'P1'
_symmetry_Int_Tables_number	1
_symmetry_cell_setting	triclinic
loop_
_symmetry_equiv_pos_as_xyz
  x,y,z
_cell_length_a	10.654550
_cell_length_b	16.992695
_cell_length_c	9.730223
_cell_angle_alpha	89.995280
_cell_angle_beta	89.999957
_cell_angle_gamma	87.576577
loop_
_atom_site_label
_atom_site_type_symbol
_atom_site_fract_x
_atom_site_fract_y
_atom_site_fract_z
O1	O	1.677361	0.110190	-0.114188
O2	O	1.312790	0.120688	-0.114214
O3	O	1.493614	0.001288	-0.114190
O4	O	1.496537	0.229590	-0.114212
O5	O	1.493601	0.001285	0.114390
O6	O	1.312777	0.120685	0.114366
O7	O	1.677349	0.110187	0.114391
Zn8	Zn	1.495061	0.115435	0.150671
Zn9	Zn	1.495078	0.115439	-0.150493
O10	O	1.496525	0.229586	0.114368
C11	C	1.265919	0.119916	0.000073
C12	C	1.126277	0.117609	0.000064
C13	C	1.489848	-0.027946	0.000099
C14	C	1.478628	-0.115051	0.000098
C15	C	1.052866	0.187910	0.000061
C16	C	0.921658	0.185738	0.000085
C17	C	0.937282	0.042959	0.000109
C18	C	1.068488	0.045132	0.000095
C19	C	1.586879	-0.164703	0.000107
C20	C	1.576330	-0.246547	0.000093
C21	C	1.457529	-0.278738	0.000080
C22	C	1.349270	-0.229080	0.000067
C23	C	1.359820	-0.147237	0.000071
C24	C	1.413802	-0.522573	0.000058
C25	C	1.403260	-0.604422	0.000059
C26	C	1.630321	-0.621884	0.000082
C27	C	1.640861	-0.540039	0.000094
C28	C	1.532602	-0.490388	0.000074
N29	N	1.446743	-0.362395	0.000071
N30	N	1.543389	-0.406733	0.000074
C31	C	1.724220	0.110959	0.000102
C32	C	1.863862	0.113265	0.000102
C33	C	1.500291	0.258821	0.000075
C34	C	1.511510	0.345926	0.000068
N35	N	1.495059	0.115432	0.356207
N36	N	1.495089	0.115437	-0.356030
C37	C	1.575159	0.062584	0.428144
C38	C	1.575171	0.062584	0.572026
C39	C	1.414980	0.168287	0.572024
C40	C	1.414962	0.168282	0.428144
H41	H	0.861892	0.242984	0.000086
H42	H	1.349729	0.211317	0.369569
C43	C	0.910204	-0.079408	0.117634
C44	C	0.873757	-0.036706	0.000127
H45	H	0.870982	-0.128589	0.117643
H46	H	0.998841	-0.088173	0.117620
H47	H	0.885487	-0.050425	0.197335
H48	H	0.898483	-0.065686	-0.079574
H49	H	0.785101	-0.027943	0.000129
C50	C	1.122210	-0.075900	-0.117405
C51	C	1.149194	-0.032148	0.000092
H52	H	1.172041	-0.123603	-0.117404
H53	H	1.035810	-0.087567	-0.117385
H54	H	1.140499	-0.046202	-0.197112
H55	H	1.130895	-0.061844	0.079800
H56	H	1.235614	-0.020482	0.000084
H57	H	1.664480	-0.286971	0.000104
C58	C	1.855816	-0.630922	0.000101
C59	C	1.749315	-0.676461	0.000090
H60	H	1.929280	-0.664617	0.000110
H61	H	1.855209	-0.598634	-0.079602
H62	H	1.855195	-0.598641	0.079820
H63	H	1.749931	-0.708739	-0.079634
H64	H	1.749923	-0.708763	0.079802
H65	H	1.271671	-0.106811	0.000064
H66	H	1.099913	0.246926	0.000046
C67	C	1.286273	-0.722129	0.000062
C68	C	1.272664	-0.639809	0.000046
H69	H	1.205652	-0.743974	0.000066
H70	H	1.331190	-0.739122	-0.079638
H71	H	1.331189	-0.739120	0.079784
H72	H	1.227756	-0.622817	-0.079682
H73	H	1.227728	-0.622809	0.079754
H74	H	1.349770	0.211318	0.630609
H75	H	1.737601	-0.513836	0.000105
C76	C	1.730469	-0.082787	-0.117379
C77	C	1.717468	-0.129320	0.000120
H78	H	1.811089	-0.060941	-0.117367
H79	H	1.721643	-0.114348	-0.197076
H80	H	1.667502	-0.041504	-0.117365
H81	H	1.780430	-0.170606	0.000101
H82	H	1.726307	-0.097757	0.079838
C83	C	1.635363	-0.072799	0.616331
C84	C	1.663225	0.004494	0.651096
H85	H	1.689731	-0.108662	0.665140
H86	H	1.550666	-0.081805	0.639932
H87	H	1.646817	-0.080352	0.520342
H88	H	1.651761	0.012048	0.747084
H89	H	1.747942	0.013503	0.627504
H90	H	1.325649	-0.482157	0.000042
H91	H	1.252539	-0.255296	0.000048
C92	C	1.591623	-0.044065	0.266438
C93	C	1.663153	0.004449	0.349103
H94	H	1.645939	-0.079965	0.217650
H95	H	1.536479	-0.072547	0.322609
H96	H	1.543955	-0.012584	0.202975
H97	H	1.710814	-0.027032	0.412573
H98	H	1.718319	0.032933	0.292927
