data_functionalizedCrystal
_audit_creation_method	'MofGen! by Chris Wilmer'
_symmetry_space_group_name_H-M	'P1'
_symmetry_Int_Tables_number	1
_symmetry_cell_setting	triclinic
loop_
_symmetry_equiv_pos_as_xyz
  x,y,z
_cell_length_a	6.817900
_cell_length_b	14.125469
_cell_length_c	10.992410
_cell_angle_alpha	94.598388
_cell_angle_beta	108.764651
_cell_angle_gamma	100.398878
loop_
_atom_site_label
_atom_site_type_symbol
_atom_site_fract_x
_atom_site_fract_y
_atom_site_fract_z
V1	V	-4.071585	-0.133114	-0.400097
O2	O	-4.074426	0.006397	-0.392991
O3	O	-4.007233	-0.263943	-0.396869
O4	O	-4.049833	-0.131066	-0.574817
O5	O	-4.031531	-0.127399	-0.213812
V6	V	-4.553827	-0.116427	-0.377875
O7	O	-4.335653	-0.169718	-0.448842
O8	O	-4.739956	-0.079822	-0.329131
O9	O	-4.394972	0.014402	-0.381103
O10	O	-4.668382	-0.255937	-0.384981
O11	O	-4.711278	-0.122141	-0.564160
O12	O	-4.352372	-0.118474	-0.203155
C13	C	-3.847491	-0.295836	-0.390431
C14	C	-3.876340	-0.402790	-0.388957
C15	C	-3.929229	-0.598615	-0.386276
C16	C	-4.115550	-0.650937	-0.391700
C17	C	-4.144980	-0.759901	-0.390209
C18	C	-3.899791	-0.489641	-0.387768
C19	C	-3.901831	-0.126338	-0.617419
C20	C	-3.965224	-0.125529	-0.760251
C21	C	-3.834708	-0.118163	-0.955401
C22	C	-3.768761	-0.119403	-0.806913
C23	C	-4.132836	-0.220392	-0.837001
C24	C	-4.197419	-0.219553	-0.985571
C25	C	-4.134058	-0.035864	-0.948224
C26	C	-4.063493	-0.035415	-0.799212
C27	C	-4.218055	0.046290	-0.387538
C28	C	-4.168446	0.153243	-0.389020
C29	C	-4.163715	-0.123206	-0.160546
C30	C	-4.079560	-0.124010	-0.017714
H31	H	-4.252960	-0.613897	-0.397461
H32	H	-3.791828	-0.635653	-0.380512
H33	H	-3.642167	-0.051192	-0.753827
N34	N	-3.708593	-0.027196	-0.980683
H35	H	-3.808947	0.011111	-1.032777
H36	H	-3.617199	-0.045804	-1.030949
H37	H	-4.065631	-0.287298	-0.811146
N38	N	-4.148484	-0.307958	-1.046545
H39	H	-4.085243	-0.347105	-0.976850
H40	H	-4.043919	-0.286482	-1.091678
N41	N	-4.028335	0.059560	-0.975544
H42	H	-3.944036	0.046615	-1.033253
H43	H	-3.930122	0.100495	-0.891006
N44	N	-3.774766	-0.202054	-1.018643
H45	H	-3.905528	-0.243829	-1.087483
H46	H	-3.711080	-0.242432	-0.950747
H47	H	-3.691000	-0.183615	-0.781859
H48	H	-4.376777	-0.227802	-1.028171
N49	N	-3.903528	0.057547	-0.730236
H50	H	-3.767967	0.041366	-0.673978
H51	H	-3.962899	0.095648	-0.674124
N52	N	-4.328681	-0.230877	-0.798823
H53	H	-4.310592	-0.174099	-0.731244
H54	H	-4.350041	-0.293582	-0.761861
N55	N	-4.252108	-0.033886	-0.756065
H56	H	-4.276657	-0.091854	-0.710461
H57	H	-4.382232	-0.036763	-0.834394
H58	H	-4.311937	-0.039312	-0.989051
