data_functionalizedCrystal
_audit_creation_method	'MofGen! by Chris Wilmer'
_symmetry_space_group_name_H-M	'P1'
_symmetry_Int_Tables_number	1
_symmetry_cell_setting	triclinic
loop_
_symmetry_equiv_pos_as_xyz
  x,y,z
_cell_length_a	16.959455
_cell_length_b	13.897448
_cell_length_c	16.959447
_cell_angle_alpha	90.029450
_cell_angle_beta	90.016944
_cell_angle_gamma	90.014639
loop_
_atom_site_label
_atom_site_type_symbol
_atom_site_fract_x
_atom_site_fract_y
_atom_site_fract_z
Zn1	Zn	1.208417	-0.384074	0.446914
Zn2	Zn	1.208339	-0.545392	0.314738
Zn3	Zn	1.076240	-0.384104	0.314751
Zn4	Zn	1.076216	-0.545320	0.446876
O5	O	1.142303	-0.464722	0.380820
O6	O	1.319018	-0.405490	0.429390
O7	O	1.190793	-0.524040	0.204128
O8	O	1.093816	-0.249118	0.332305
O9	O	1.318960	-0.524010	0.332281
O10	O	1.190926	-0.249096	0.429404
O11	O	1.093740	-0.405542	0.204139
O12	O	0.965626	-0.405472	0.332268
O13	O	1.093775	-0.523887	0.557492
O14	O	0.965608	-0.523917	0.429340
O15	O	1.190903	-0.405420	0.557520
O16	O	1.190770	-0.680364	0.332244
O17	O	1.093700	-0.680311	0.429326
C18	C	0.936937	-0.464691	0.380802
C19	C	0.849080	-0.464700	0.380813
C20	C	0.477589	-0.402998	0.330380
C21	C	0.477620	-0.526526	0.431305
C22	C	0.560166	-0.526513	0.431300
C23	C	0.601427	-0.464741	0.380834
C24	C	0.560143	-0.402984	0.330372
C25	C	0.601456	-0.588276	0.481754
C26	C	0.684007	-0.588265	0.481751
C27	C	0.725270	-0.526488	0.431288
C28	C	0.683981	-0.464728	0.380825
C29	C	0.725242	-0.402957	0.330359
C30	C	0.683954	-0.341191	0.279900
C31	C	0.601406	-0.341207	0.279909
C32	C	0.807819	-0.526471	0.431279
C33	C	0.807796	-0.402943	0.330351
C34	C	1.142245	-0.715337	0.380797
C35	C	1.142293	-0.822551	0.380814
C36	C	1.142376	-1.018846	0.380863
C37	C	1.142328	-0.909613	0.380838
C38	C	1.348471	-0.464755	0.380838
C39	C	1.436328	-0.464769	0.380846
C40	C	1.142345	-0.464642	0.586988
C41	C	1.142363	-0.464608	0.674845
C42	C	1.142382	-0.213129	0.380860
C43	C	1.142416	-0.105915	0.380877
C44	C	1.142306	-0.464733	0.175454
C45	C	1.142441	-0.464495	0.087597
C46	C	1.091902	-0.402810	1.046332
C47	C	1.192964	-0.526203	1.046309
C48	C	1.192950	-0.526225	0.963763
C49	C	1.142411	-0.464540	0.922498
C50	C	1.091885	-0.402833	0.963779
C51	C	1.243469	-0.587939	0.922476
C52	C	1.243457	-0.587964	0.839925
C53	C	1.192921	-0.526274	0.798658
C54	C	1.142394	-0.464563	0.839944
C55	C	1.091855	-0.402878	0.798679
C56	C	1.041331	-0.341162	0.839963
C57	C	1.041349	-0.341142	0.922512
C58	C	1.192903	-0.526293	0.716110
C59	C	1.091838	-0.402901	0.716125
H60	H	0.841432	-0.576763	0.472360
F61	F	1.246742	-0.591856	1.090228
F62	F	0.987581	-0.275468	0.966454
H63	H	1.050769	-0.352560	1.079949
H64	H	0.567855	-0.638573	0.522836
F65	F	1.038049	-0.337240	0.672214
F66	F	0.987545	-0.275514	0.796036
H67	H	1.284607	-0.638170	0.956080
H68	H	0.717617	-0.638558	0.522839
F69	F	0.727877	-0.275457	0.226188
H70	H	1.284596	-0.638218	0.806319
F71	F	0.557459	-0.275478	0.226212
H72	H	1.234044	-0.576535	0.682500
F73	F	0.433648	-0.337261	0.276684
H74	H	0.841385	-0.352635	0.289260
H75	H	0.444020	-0.576823	0.472387
