data_functionalizedCrystal
_audit_creation_method	'MofGen! by Chris Wilmer'
_symmetry_space_group_name_H-M	'P1'
_symmetry_Int_Tables_number	1
_symmetry_cell_setting	triclinic
loop_
_symmetry_equiv_pos_as_xyz
  x,y,z
_cell_length_a	19.288862
_cell_length_b	18.366186
_cell_length_c	19.288865
_cell_angle_alpha	89.993214
_cell_angle_beta	83.135763
_cell_angle_gamma	89.976980
loop_
_atom_site_label
_atom_site_type_symbol
_atom_site_fract_x
_atom_site_fract_y
_atom_site_fract_z
O1	O	-0.921352	0.060839	-0.086636
O2	O	-0.719091	0.060780	-0.098327
O3	O	-0.826066	0.060797	0.008649
O4	O	-0.814377	0.060822	-0.193612
O5	O	-0.826052	-0.060303	0.008645
O6	O	-0.719077	-0.060320	-0.098331
O7	O	-0.921338	-0.060261	-0.086640
Zn8	Zn	-0.820205	-0.079517	-0.092486
Zn9	Zn	-0.820223	0.080036	-0.092481
O10	O	-0.814363	-0.060277	-0.193616
C11	C	-0.693207	0.000222	-0.097953
C12	C	-0.616104	0.000199	-0.096824
C13	C	-0.571407	0.000216	-0.159593
C14	C	-0.498960	0.000221	-0.158533
C15	C	-0.471213	0.000222	-0.094701
C16	C	-0.515919	0.000201	-0.031924
C17	C	-0.588364	0.000189	-0.032986
C18	C	-0.362955	0.042661	-0.044521
C19	C	-0.290511	0.042677	-0.043462
C20	C	-0.247767	0.000254	-0.091423
C21	C	-0.277475	-0.042175	-0.140455
C22	C	-0.349920	-0.042187	-0.141517
C23	C	-0.392659	0.000234	-0.093542
C24	C	-0.124514	0.000275	-0.153046
C25	C	-0.052066	0.000275	-0.151983
C26	C	-0.069027	0.000262	-0.025373
C27	C	-0.141473	0.000255	-0.026438
C28	C	-0.169212	0.000265	-0.090276
C29	C	0.052779	0.000286	-0.087016
C30	C	-0.024324	0.000275	-0.088151
N31	N	-0.820198	-0.188408	-0.092489
C32	C	-0.862229	-0.772939	-0.134486
C33	C	-0.862222	-0.696712	-0.134493
C34	C	-0.820230	-0.658620	-0.092473
C35	C	-0.778229	-0.696762	-0.050457
C36	C	-0.778232	-0.772988	-0.050457
C37	C	-0.818503	-0.537863	-0.029849
C38	C	-0.818505	-0.461638	-0.029848
C39	C	-0.820216	-0.423512	-0.092475
C40	C	-0.821940	-0.461621	-0.155105
C41	C	-0.821943	-0.537847	-0.155104
C42	C	-0.820222	-0.575965	-0.092469
C43	C	-0.862203	-0.302724	-0.134500
C44	C	-0.862191	-0.226495	-0.134508
C45	C	-0.778202	-0.226547	-0.050466
C46	C	-0.778210	-0.302775	-0.050464
C47	C	-0.820215	-0.340859	-0.092480
N48	N	-0.820236	0.188928	-0.092473
C49	C	-0.825683	0.000245	0.034523
C50	C	-0.824554	0.000238	0.111627
C51	C	-0.814746	0.000276	-0.219490
C52	C	-0.815875	0.000288	-0.296594
C53	C	-0.887322	0.000253	0.156324
C54	C	-0.886261	0.000264	0.228771
C55	C	-0.822429	0.000246	0.256518
C56	C	-0.759652	0.000235	0.211811
C57	C	-0.760715	0.000231	0.139366
C58	C	-0.772244	-0.042188	0.364804
C59	C	-0.771184	-0.042188	0.437248
C60	C	-0.819149	0.000261	0.479963
C61	C	-0.868185	0.042701	0.450227
C62	C	-0.869248	0.042697	0.377782
C63	C	-0.821269	0.000250	0.335072
C64	C	-0.880771	0.000289	0.603216
C65	C	-0.879708	0.000305	0.675664
C66	C	-0.753098	0.000268	0.658703
C67	C	-0.754163	0.000260	0.586257
C68	C	-0.818001	0.000267	0.558518
H69	H	-0.147101	0.000272	-0.205027
H70	H	-0.823334	-0.430580	-0.206102
N71	N	-0.718301	-0.087970	0.469311
H72	H	-0.669618	-0.072140	0.450156
H73	H	-0.724966	-0.081517	0.521682
H74	H	-0.896385	-0.195448	-0.168725
N75	N	-0.732904	-0.185473	-0.005149
H76	H	-0.739271	-0.131397	-0.011525
H77	H	-0.746785	-0.198795	0.045405
H78	H	-0.817103	-0.568899	0.021153
H79	H	-0.896431	-0.803943	-0.168700
H80	H	-0.744018	-0.333823	-0.016248
H81	H	-0.823345	-0.568872	-0.206099
N82	N	-0.732946	-0.814123	-0.005133
H83	H	-0.706343	-0.778428	0.021488
H84	H	-0.763346	-0.845733	0.028901
N85	N	-0.686464	0.000229	0.538040
H86	H	-0.684087	0.045118	0.507597
H87	H	-0.645902	0.000190	0.566655
N88	N	-0.907493	-0.343809	-0.179824
H89	H	-0.941589	-0.375421	-0.149495
H90	H	-0.934045	-0.308037	-0.206440
H91	H	-0.817106	-0.430616	0.021149
H92	H	-0.896416	-0.665658	-0.168709
H93	H	-0.397752	0.077211	-0.005464
N94	N	-0.003856	0.000299	-0.219688
H95	H	0.046248	0.000302	-0.209331
H96	H	-0.012794	-0.044588	-0.247524
N97	N	-0.732939	-0.655683	-0.005133
H98	H	-0.739312	-0.601607	-0.011505
H99	H	-0.746824	-0.669011	0.045419
H100	H	-0.733184	-0.076759	0.330030
N101	N	-0.956173	0.000261	0.126405
H102	H	-0.995776	0.000273	0.165718
H103	H	-0.959380	0.045154	0.096711
H104	H	-0.046435	0.000309	0.026600
N105	N	-0.690804	0.000219	0.241733
H106	H	-0.699655	0.000222	0.294410
H107	H	-0.663340	-0.044681	0.225372
H108	H	-0.937376	0.000279	0.265170
H109	H	-0.909173	0.077255	0.353573
H110	H	-0.907243	0.077268	0.485005
H111	H	-0.932752	0.000298	0.580630
H112	H	-0.709600	0.000219	0.102973
H113	H	-0.177866	0.000245	0.024675
N114	N	-0.947410	0.000316	0.723878
H115	H	-0.949803	0.045211	0.754306
H116	H	-0.987971	0.000289	0.695261
N117	N	-0.485988	0.000205	0.036920
H118	H	-0.502327	0.045090	0.064413
H119	H	-0.502283	-0.044723	0.064353
H120	H	-0.593988	0.000226	-0.211575
N121	N	-0.684248	0.000257	0.688619
H122	H	-0.693098	0.000264	0.741296
H123	H	-0.656783	-0.044644	0.672262
H124	H	-0.462561	0.000233	-0.209648
H125	H	-0.374106	-0.076736	-0.181438
H126	H	-0.266328	0.077228	-0.003540
N127	N	-0.231390	-0.087939	-0.192192
H128	H	-0.197350	-0.055437	-0.221583
H129	H	-0.204780	-0.124218	-0.166197
N130	N	-0.636578	0.000167	0.034716
H131	H	-0.608010	0.000165	0.075317
H132	H	-0.667029	0.045056	0.037037
