data_functionalizedCrystal
_audit_creation_method	'MofGen! by Chris Wilmer'
_symmetry_space_group_name_H-M	'P1'
_symmetry_Int_Tables_number	1
_symmetry_cell_setting	triclinic
loop_
_symmetry_equiv_pos_as_xyz
  x,y,z
_cell_length_a	10.685661
_cell_length_b	12.759400
_cell_length_c	10.686551
_cell_angle_alpha	85.595160
_cell_angle_beta	80.927378
_cell_angle_gamma	85.634671
loop_
_atom_site_label
_atom_site_type_symbol
_atom_site_fract_x
_atom_site_fract_y
_atom_site_fract_z
Zn1	Zn	1.995738	-0.490389	-0.866188
Zn2	Zn	1.979323	-0.678621	-0.653935
Zn3	Zn	1.767173	-0.490436	-0.637714
Zn4	Zn	1.783453	-0.653502	-0.849896
O5	O	1.881422	-0.578237	-0.751933
O6	O	2.171188	-0.525851	-0.851640
O7	O	1.937498	-0.664191	-0.474155
O8	O	1.797549	-0.343411	-0.668051
O9	O	2.159129	-0.664144	-0.695698
O10	O	1.965475	-0.343376	-0.835911
O11	O	1.781633	-0.525932	-0.462237
O12	O	1.591705	-0.501575	-0.652253
O13	O	1.825296	-0.621332	-1.029685
O14	O	1.603666	-0.621378	-0.808143
O15	O	1.981261	-0.501493	-1.041655
O16	O	1.953284	-0.822308	-0.679899
O17	O	1.809379	-0.803853	-0.823872
C18	C	1.551628	-0.558757	-0.726670
C19	C	1.410544	-0.550446	-0.715893
C20	C	1.881354	-0.851202	-0.751908
C21	C	1.881444	-0.967981	-0.751949
C22	C	1.968847	-1.022739	-0.839416
C23	C	1.968909	-1.132465	-0.839452
C24	C	1.794159	-1.132666	-0.664540
C25	C	1.794093	-1.022941	-0.664512
C26	C	2.056199	-0.967779	-0.926853
C27	C	2.143610	-1.022537	-1.014327
C28	C	2.143672	-1.132263	-1.014363
C29	C	2.056322	-1.187230	-0.926924
C30	C	2.212503	-0.597794	-0.777295
C31	C	2.353590	-0.606128	-0.788103
C32	C	1.906925	-0.558605	-1.083015
C33	C	1.917793	-0.550239	-1.224103
C34	C	1.881527	-0.304207	-0.751989
C35	C	1.881572	-0.187432	-0.752013
C36	C	1.856091	-0.597721	-0.422145
C37	C	1.845469	-0.605805	-0.281077
H38	H	2.056161	-0.878435	-0.926832
H39	H	1.722920	-0.978357	-0.593289
C40	C	1.201669	-0.483136	-0.628533
C41	C	1.330662	-0.477520	-0.621274
H42	H	1.152356	-0.438124	-0.570109
H43	H	1.186593	-0.461534	-0.712199
H44	H	1.178575	-0.553559	-0.608191
H45	H	1.353758	-0.407098	-0.641625
H46	H	1.345745	-0.499116	-0.537589
H47	H	1.412765	-0.660151	-0.858178
C48	C	2.221116	-0.854249	-1.091935
C49	C	2.239620	-0.962121	-1.110438
H50	H	2.280396	-0.816955	-1.151268
H51	H	2.137242	-0.830183	-1.103910
H52	H	2.233183	-0.842450	-1.008082
H53	H	2.227544	-0.973920	-1.194288
H54	H	2.323514	-0.986194	-1.098474
H55	H	2.214837	-1.176842	-1.085597
C56	C	1.816424	-0.754825	-1.130461
C57	C	1.750653	-0.678669	-1.201217
H58	H	1.757886	-0.799803	-1.081147
H59	H	1.875635	-0.795245	-1.186409
H60	H	1.860341	-0.721071	-1.075826
H61	H	1.706744	-0.712423	-1.255859
H62	H	1.691419	-0.638244	-1.145263
C63	C	1.946848	-0.401203	-1.374707
C64	C	2.012615	-0.477366	-1.303956
H65	H	2.005387	-0.356211	-1.423997
H66	H	1.902950	-0.434944	-1.429353
H67	H	1.887620	-0.360789	-1.318748
H68	H	2.071838	-0.517785	-1.359916
H69	H	2.056535	-0.443623	-1.249306
C70	C	2.151534	-1.344300	-1.022221
C71	C	2.056377	-1.307842	-0.926974
H72	H	2.151570	-1.418760	-1.022245
H73	H	2.135807	-1.313306	-1.102406
H74	H	2.231761	-1.325574	-1.006592
H75	H	1.976148	-1.326562	-0.942608
H76	H	2.072095	-1.338848	-0.846770
H77	H	1.723043	-1.177429	-0.593352
