data_functionalizedCrystal
_audit_creation_method	'MofGen! by Chris Wilmer'
_symmetry_space_group_name_H-M	'P1'
_symmetry_Int_Tables_number	1
_symmetry_cell_setting	triclinic
loop_
_symmetry_equiv_pos_as_xyz
  x,y,z
_cell_length_a	25.639239
_cell_length_b	25.639242
_cell_length_c	25.639233
_cell_angle_alpha	89.977834
_cell_angle_beta	90.018747
_cell_angle_gamma	89.965787
loop_
_atom_site_label
_atom_site_type_symbol
_atom_site_fract_x
_atom_site_fract_y
_atom_site_fract_z
Zn1	Zn	-0.208277	-0.799225	0.295742
Zn2	Zn	-0.295696	-0.799149	0.208307
Zn3	Zn	-0.208269	-0.711801	0.208306
Zn4	Zn	-0.295676	-0.711746	0.295696
O5	O	-0.251979	-0.755480	0.252013
O6	O	-0.219884	-0.872380	0.284163
O7	O	-0.284103	-0.787553	0.135141
O8	O	-0.135105	-0.723453	0.219924
O9	O	-0.284111	-0.872324	0.219924
O10	O	-0.135111	-0.787683	0.284163
O11	O	-0.219871	-0.723379	0.135141
O12	O	-0.219853	-0.638629	0.219880
O13	O	-0.284078	-0.723360	0.368868
O14	O	-0.284070	-0.638589	0.284085
O15	O	-0.219866	-0.787630	0.368901
O16	O	-0.368858	-0.787499	0.219880
O17	O	-0.368844	-0.723286	0.284085
C18	C	-0.251959	-0.619638	0.251977
C19	C	-0.251963	-0.561524	0.251975
C20	C	-0.251970	-0.755497	0.388386
C21	C	-0.251966	-0.755504	0.446500
C22	C	-0.387822	-0.755392	0.251989
C23	C	-0.445936	-0.755403	0.251996
C24	C	-0.806294	-0.789004	0.218638
C25	C	-0.860898	-0.789024	0.218645
O26	O	-0.889131	-0.817502	0.190257
N27	N	-0.888218	-0.755572	0.252048
C28	C	-0.860932	-0.722102	0.285449
O29	O	-0.889184	-0.693651	0.313861
C30	C	-0.806328	-0.722085	0.285444
C31	C	-0.779011	-0.755535	0.252036
C32	C	-0.778976	-0.822452	0.185233
C33	C	-0.724376	-0.822431	0.185226
C34	C	-0.697093	-0.788962	0.218623
C35	C	-0.724410	-0.755514	0.252028
C36	C	-0.779042	-0.688617	0.318847
C37	C	-0.724435	-0.688603	0.318840
C38	C	-0.697118	-0.722053	0.285432
C39	C	-0.642527	-0.722024	0.285418
N40	N	-0.615206	-0.755475	0.252016
C41	C	-0.642490	-0.788944	0.218618
C42	C	-0.975602	-0.722141	0.285457
C43	C	-1.030204	-0.722155	0.285459
C44	C	-1.030167	-0.789078	0.218656
C45	C	-0.975564	-0.789061	0.218652
C46	C	-0.948282	-0.755593	0.252055
C47	C	-0.527824	-0.788897	0.218605
C48	C	-0.473219	-0.788872	0.218599
C49	C	-0.473261	-0.721951	0.285403
C50	C	-0.527862	-0.721974	0.285408
C51	C	-0.555142	-0.755452	0.252007
O52	O	-0.614260	-0.693562	0.313793
O53	O	-0.614231	-0.817396	0.190216
C54	C	-0.115606	-0.755583	0.252048
C55	C	-0.057492	-0.755627	0.252064
C56	C	-0.252000	-0.891853	0.252049
C57	C	-0.252009	-0.949967	0.252064
C58	C	-0.285473	-0.201149	0.285413
C59	C	-0.285477	-0.146544	0.285421
O60	O	-0.313943	-0.118297	0.313821
N61	N	-0.251994	-0.119241	0.252047
C62	C	-0.218502	-0.146545	0.218666
O63	O	-0.190022	-0.118308	0.190280
C64	C	-0.218496	-0.201149	0.218661
C65	C	-0.251985	-0.228449	0.252034
C66	C	-0.318959	-0.228449	0.318783
C67	C	-0.318956	-0.283049	0.318774
C68	C	-0.285468	-0.310350	0.285395
C69	C	-0.251983	-0.283049	0.252024
C70	C	-0.185002	-0.228452	0.185283
C71	C	-0.185000	-0.283059	0.185281
C72	C	-0.218488	-0.310359	0.218654
C73	C	-0.218492	-0.364950	0.218636
N74	N	-0.251974	-0.392253	0.252010
C75	C	-0.285463	-0.364953	0.285389
C76	C	-0.218515	-0.031875	0.218680
C77	C	-0.218523	0.022728	0.218683
C78	C	-0.285497	0.022725	0.285438
C79	C	-0.285492	-0.031878	0.285433
C80	C	-0.251998	-0.059178	0.252054
C81	C	-0.285455	-0.479618	0.285368
C82	C	-0.285451	-0.534223	0.285354
C83	C	-0.218475	-0.534216	0.218601
C84	C	-0.218481	-0.479615	0.218612
C85	C	-0.251972	-0.452318	0.252000
O86	O	-0.190038	-0.393232	0.190252
O87	O	-0.313933	-0.393197	0.313776
C88	C	-0.251951	-0.755494	0.116170
C89	C	-0.251807	-0.755588	0.058057
C90	C	-0.218432	-0.789012	0.806886
C91	C	-0.218417	-0.789019	0.861491
O92	O	-0.189967	-0.817466	0.889747
N93	N	-0.251844	-0.755562	0.888783
C94	C	-0.285283	-0.722093	0.861468
O95	O	-0.313713	-0.693636	0.889695
C96	C	-0.285294	-0.722084	0.806864
C97	C	-0.251870	-0.755547	0.779575
C98	C	-0.185009	-0.822472	0.779597
C99	C	-0.185025	-0.822466	0.724997
C100	C	-0.218462	-0.789000	0.697685
C101	C	-0.251885	-0.755541	0.724974
C102	C	-0.318731	-0.688613	0.779550
C103	C	-0.318739	-0.688607	0.724943
C104	C	-0.285314	-0.722069	0.697654
C105	C	-0.285338	-0.722070	0.643063
N106	N	-0.251912	-0.755526	0.615771
C107	C	-0.218474	-0.788992	0.643082
C108	C	-0.285256	-0.722113	0.976138
C109	C	-0.285247	-0.722124	1.030741
C110	C	-0.218381	-0.789049	1.030760
C111	C	-0.218392	-0.789041	0.976157
C112	C	-0.251829	-0.755570	0.948846
C113	C	-0.218509	-0.788977	0.528417
C114	C	-0.218529	-0.788970	0.473811
C115	C	-0.285393	-0.722043	0.473797
C116	C	-0.285375	-0.722052	0.528397
C117	C	-0.251929	-0.755521	0.555706
O118	O	-0.313773	-0.693635	0.614771
O119	O	-0.190044	-0.817439	0.614847
H120	H	-0.550030	-0.816159	0.191408
H121	H	-0.801275	-0.661376	0.346049
H122	H	-0.157806	-0.849714	0.702783
C123	C	-0.182090	-0.061539	0.182518
C124	C	-0.148605	-0.092909	0.212173
C125	C	-0.115039	-0.120235	0.178879
H126	H	-0.201994	-0.082860	0.159687
H127	H	-0.162122	-0.037471	0.162653
H128	H	-0.168570	-0.116975	0.232029
H129	H	-0.128690	-0.071601	0.235002
H130	H	-0.095071	-0.096166	0.159014
H131	H	-0.134947	-0.141553	0.156050
H132	H	-0.092312	-0.141519	0.198995
C133	C	-0.443603	-0.685705	0.321729
C134	C	-0.412224	-0.715287	0.355269
C135	C	-0.384898	-0.681920	0.388747
H136	H	-0.422287	-0.662921	0.301763
H137	H	-0.467671	-0.665793	0.341660
H138	H	-0.388159	-0.735190	0.335340
H139	H	-0.433526	-0.738069	0.375246
H140	H	-0.408966	-0.662008	0.408678
H141	H	-0.363586	-0.659137	0.368777
H142	H	-0.363608	-0.701986	0.411511
C143	C	-0.694816	-0.858813	0.148940
C144	C	-0.730405	-0.888135	0.119709
C145	C	-0.703198	-0.921665	0.086283
H146	H	-0.673540	-0.838886	0.126085
H147	H	-0.673499	-0.881602	0.168953
H148	H	-0.751713	-0.865349	0.099698
H149	H	-0.751683	-0.908072	0.142551
H150	H	-0.681881	-0.944454	0.106296
H151	H	-0.681923	-0.901734	0.063431
H152	H	-0.727341	-0.941568	0.066450
C153	C	-0.355373	-0.312714	0.354927
C154	C	-0.388853	-0.344023	0.325268
C155	C	-0.422411	-0.371348	0.358558
H156	H	-0.335463	-0.334077	0.377752
H157	H	-0.375345	-0.288646	0.374798
H158	H	-0.368883	-0.368088	0.305405
H159	H	-0.408775	-0.322673	0.302444
H160	H	-0.442382	-0.347281	0.378429
H161	H	-0.402496	-0.392708	0.381381
H162	H	-0.445134	-0.392591	0.338439
H163	H	-0.702225	-0.661350	0.346042
C164	C	-0.808599	-0.858893	0.149075
C165	C	-0.839871	-0.892408	0.178736
C166	C	-0.867148	-0.926004	0.145449
H167	H	-0.829982	-0.839012	0.126243
H168	H	-0.784502	-0.878837	0.129211
H169	H	-0.863966	-0.872466	0.198591
H170	H	-0.818501	-0.912299	0.201567
H171	H	-0.843051	-0.945948	0.125585
H172	H	-0.888529	-0.906120	0.122619
H173	H	-0.888366	-0.948751	0.165569
H174	H	-0.191258	0.044951	0.191502
H175	H	-0.191174	-0.816288	0.953941
H176	H	-0.191310	-0.816221	0.451595
C177	C	-0.355381	-0.198909	0.355045
C178	C	-0.384709	-0.234515	0.384254
C179	C	-0.418276	-0.207326	0.417658
H180	H	-0.335481	-0.177625	0.377915
H181	H	-0.378164	-0.177600	0.335017
H182	H	-0.361928	-0.255814	0.404281
H183	H	-0.404619	-0.255799	0.361398
H184	H	-0.441060	-0.186018	0.397630
H185	H	-0.398373	-0.186044	0.440524
H186	H	-0.438183	-0.231480	0.437477
H187	H	-0.191272	-0.816229	0.550645
H188	H	-0.550105	-0.694738	0.312613
C189	C	-0.321830	-0.563769	0.321648
C190	C	-0.351146	-0.528169	0.350892
C191	C	-0.384657	-0.555364	0.384335
H192	H	-0.344628	-0.585048	0.301663
H193	H	-0.301874	-0.585081	0.344490
H194	H	-0.371100	-0.506865	0.328052
H195	H	-0.328362	-0.506888	0.370887
H196	H	-0.364701	-0.576677	0.407178
H197	H	-0.407451	-0.576643	0.364346
H198	H	-0.404548	-0.531214	0.404185
C199	C	-0.321459	-0.685771	1.060434
C200	C	-0.291848	-0.652291	1.091786
C201	C	-0.325189	-0.618798	1.119151
H202	H	-0.341388	-0.665791	1.036405
H203	H	-0.344229	-0.705744	1.081768
H204	H	-0.269087	-0.632319	1.070455
H205	H	-0.271920	-0.672256	1.115825
H206	H	-0.347959	-0.638771	1.140485
H207	H	-0.345116	-0.598822	1.095118
H208	H	-0.305103	-0.596081	1.140431
C209	C	-1.059926	-0.685919	0.321759
C210	C	-1.091239	-0.715508	0.355300
C211	C	-1.118628	-0.682146	0.388745
H212	H	-1.035912	-0.665973	0.341696
H213	H	-1.081289	-0.663165	0.301753
H214	H	-1.069878	-0.738252	0.375303
H215	H	-1.115262	-0.735453	0.335378
H216	H	-1.139991	-0.659393	0.368740
H217	H	-1.094610	-0.662202	0.408679
H218	H	-1.139880	-0.702218	0.411504
H219	H	-0.191153	-0.816298	1.053007
H220	H	-0.157734	-0.206233	0.158106
C221	C	-0.148617	-0.312603	0.148979
C222	C	-0.119305	-0.277003	0.119747
C223	C	-0.085792	-0.304199	0.086294
H224	H	-0.125818	-0.333930	0.168956
H225	H	-0.168572	-0.333868	0.126129
H226	H	-0.099352	-0.255747	0.142594
H227	H	-0.142091	-0.255674	0.099759
H228	H	-0.105746	-0.325463	0.063444
H229	H	-0.062996	-0.325525	0.106276
H230	H	-0.065903	-0.280048	0.066453
C231	C	-0.946002	-0.825438	0.182362
C232	C	-0.981589	-0.854757	0.153125
C233	C	-0.954379	-0.888280	0.119694
H234	H	-0.924726	-0.805507	0.159511
H235	H	-0.924684	-0.848229	0.202372
H236	H	-1.002898	-0.831969	0.133117
H237	H	-1.002866	-0.874699	0.175963
H238	H	-0.933062	-0.911071	0.139704
H239	H	-0.933104	-0.868344	0.096846
H240	H	-0.978521	-0.908180	0.099856
C241	C	-0.321731	-0.449957	0.321679
C242	C	-0.292184	-0.418653	0.355263
C243	C	-0.325585	-0.391327	0.388721
H244	H	-0.344495	-0.428591	0.301702
H245	H	-0.341663	-0.474025	0.341580
H246	H	-0.272261	-0.394588	0.335363
H247	H	-0.269421	-0.440006	0.375251
H248	H	-0.345517	-0.415395	0.408622
H249	H	-0.348347	-0.369964	0.368740
H250	H	-0.305541	-0.370088	0.411514
H251	H	-0.191211	-0.556454	0.191422
H252	H	-0.312597	-0.694809	0.550617
H253	H	-0.953392	-0.694883	0.312656
C254	C	-0.321867	-0.061422	0.321727
C255	C	-0.351185	-0.025819	0.350966
C256	C	-0.384694	-0.053012	0.384413
H257	H	-0.344664	-0.082705	0.301745
H258	H	-0.301910	-0.082730	0.344573
H259	H	-0.371140	-0.004520	0.328124
H260	H	-0.328402	-0.004535	0.370959
H261	H	-0.364737	-0.074321	0.407259
H262	H	-0.407488	-0.074295	0.364427
H263	H	-0.404587	-0.028860	0.404259
C264	C	-0.321796	0.052466	0.321664
C265	C	-0.314618	0.106127	0.314534
C266	C	-0.348040	0.133542	0.347898
H267	H	-0.356937	0.043607	0.313985
H268	H	-0.314188	0.043527	0.356818
H269	H	-0.322230	0.115063	0.279388
H270	H	-0.279484	0.115002	0.322217
H271	H	-0.340433	0.124603	0.383052
H272	H	-0.383179	0.124679	0.340216
H273	H	-0.343171	0.169954	0.343068
H274	H	-0.191213	-0.457387	0.191436
H275	H	-0.312619	-0.694798	0.451550
H276	H	-0.312487	-0.694857	0.953905
H277	H	-0.157777	-0.849723	0.801828
C278	C	-0.355038	-0.652220	0.809074
C279	C	-0.384306	-0.622903	0.773459
C280	C	-0.417754	-0.589364	0.800636
H281	H	-0.377869	-0.672140	0.830382
H282	H	-0.335039	-0.629428	0.830357
H283	H	-0.404304	-0.645692	0.752184
H284	H	-0.361489	-0.602973	0.752150
H285	H	-0.397754	-0.566572	0.821919
H286	H	-0.440581	-0.609288	0.821943
H287	H	-0.437613	-0.569465	0.776475
C288	C	-0.355076	-0.652355	0.695222
C289	C	-0.388591	-0.681931	0.663872
C290	C	-0.422067	-0.648556	0.636480
H291	H	-0.375030	-0.632416	0.719235
H292	H	-0.335092	-0.629595	0.673885
H293	H	-0.408573	-0.704681	0.685207
H294	H	-0.368651	-0.701868	0.639849
H295	H	-0.402083	-0.625797	0.615143
H296	H	-0.442018	-0.628619	0.660497
H297	H	-0.444808	-0.668618	0.615202
H298	H	-0.450979	-0.816111	0.191392
H299	H	-1.052391	-0.816333	0.191464
