data_functionalizedCrystal
_audit_creation_method	'MofGen! by Chris Wilmer'
_symmetry_space_group_name_H-M	'P1'
_symmetry_Int_Tables_number	1
_symmetry_cell_setting	triclinic
loop_
_symmetry_equiv_pos_as_xyz
  x,y,z
_cell_length_a	12.759401
_cell_length_b	12.759400
_cell_length_c	12.759393
_cell_angle_alpha	89.971263
_cell_angle_beta	89.980018
_cell_angle_gamma	90.013087
loop_
_atom_site_label
_atom_site_type_symbol
_atom_site_fract_x
_atom_site_fract_y
_atom_site_fract_z
Zn1	Zn	1.606273	-0.418224	-0.594015
Zn2	Zn	1.606170	-0.593938	-0.418339
Zn3	Zn	1.430573	-0.418273	-0.418352
Zn4	Zn	1.430568	-0.593861	-0.593977
O5	O	1.518396	-0.506074	-0.506171
O6	O	1.753280	-0.441544	-0.570721
O7	O	1.582836	-0.570688	-0.271319
O8	O	1.453925	-0.271246	-0.441675
O9	O	1.753204	-0.570640	-0.441653
O10	O	1.583011	-0.271210	-0.570734
O11	O	1.453825	-0.441628	-0.271329
O12	O	1.283551	-0.441554	-0.441638
O13	O	1.453916	-0.570510	-0.741003
O14	O	1.283548	-0.570558	-0.570670
O15	O	1.583006	-0.441470	-0.741031
O16	O	1.582831	-0.740949	-0.441616
O17	O	1.453817	-0.740893	-0.570657
C18	C	1.245428	-0.506054	-0.506152
C19	C	1.128652	-0.506070	-0.506169
C20	C	0.964036	-0.438830	-0.439114
C21	C	1.073760	-0.438809	-0.439102
C22	C	1.073814	-0.573348	-0.573261
C23	C	0.964092	-0.573362	-0.573277
C24	C	0.964006	-0.361158	-0.361655
C25	C	1.073730	-0.361137	-0.361643
C26	C	1.518341	-0.779042	-0.506154
C27	C	1.518413	-0.895818	-0.506182
C28	C	1.585595	-0.950582	-0.573438
C29	C	1.585644	-1.060306	-0.573464
C30	C	1.451327	-1.060493	-0.438968
C31	C	1.451273	-0.950771	-0.438949
C32	C	1.663145	-0.950475	-0.651085
C33	C	1.663194	-1.060199	-0.651111
C34	C	1.792429	-0.506096	-0.506190
C35	C	1.909206	-0.506105	-0.506198
C36	C	1.518472	-0.505976	-0.780204
C37	C	1.518505	-0.505935	-0.896981
C38	C	1.518480	-0.232041	-0.506210
C39	C	1.518515	-0.115264	-0.506227
C40	C	1.585708	-0.573058	-1.061573
C41	C	1.585682	-0.573108	-0.951849
C42	C	1.451340	-0.438715	-0.951842
C43	C	1.451361	-0.438672	-1.061564
C44	C	1.518380	-0.506096	-0.233203
C45	C	1.518551	-0.505842	-0.116427
H46	H	0.934249	-0.279816	-0.383585
H47	H	1.634005	-1.094196	-0.728382
C48	C	1.133272	-0.646542	-0.646022
C49	C	1.106545	-0.750468	-0.622994
C50	C	1.161284	-0.817924	-0.690011
H51	H	1.206488	-0.637041	-0.636476
H52	H	1.115300	-0.631313	-0.716658
H53	H	1.124524	-0.765692	-0.552376
H54	H	1.033339	-0.760003	-0.632547
H55	H	1.143312	-0.802695	-0.760647
H56	H	1.234497	-0.808414	-0.680459
H57	H	1.143150	-0.888445	-0.674402
H58	H	1.744591	-1.089935	-0.629397
H59	H	1.103466	-0.382833	-0.280232
H60	H	0.929931	-0.390218	-0.284318
H61	H	1.640417	-0.627754	-1.106239
C62	C	1.378553	-1.120348	-0.366012
C63	C	1.392992	-1.228160	-0.380407
C64	C	1.325980	-1.283328	-0.313206
H65	H	1.307904	-1.102529	-0.381257
H66	H	1.393966	-1.102467	-0.295407
H67	H	1.377571	-1.246034	-0.450995
H68	H	1.463626	-1.246010	-0.365153
H69	H	1.341393	-1.265447	-0.242601
H70	H	1.255335	-1.265501	-0.328457
H71	H	1.335774	-1.356484	-0.322957
C72	C	1.658714	-0.646124	-0.892483
C73	C	1.717574	-0.704917	-0.964019
C74	C	1.784873	-0.772185	-0.909370
H75	H	1.618621	-0.692012	-0.849668
H76	H	1.704550	-0.605979	-0.849712
H77	H	1.671744	-0.745060	-1.006772
H78	H	1.757689	-0.659058	-1.006836
H79	H	1.830709	-0.732039	-0.866599
H80	H	1.744771	-0.818065	-0.866557
H81	H	1.824824	-0.812077	-0.957898
H82	H	1.396638	-0.384026	-0.907160
H83	H	1.396669	-0.383934	-1.106228
C84	C	1.378288	-0.891502	-0.365817
C85	C	1.319527	-0.963115	-0.306923
C86	C	1.252290	-0.908555	-0.239530
H87	H	1.332380	-0.848700	-0.405844
H88	H	1.418455	-0.848726	-0.320006
H89	H	1.279363	-1.005873	-0.352727
H90	H	1.365407	-1.005919	-0.266874
H91	H	1.292457	-0.865779	-0.193720
H92	H	1.206389	-0.865755	-0.279566
H93	H	1.212420	-0.957136	-0.199556
C94	C	1.118944	-0.258008	-0.400624
C95	C	1.037052	-0.189711	-0.426475
C96	C	1.078665	-0.094696	-0.462370
H97	H	1.160865	-0.270396	-0.460892
H98	H	1.160789	-0.227486	-0.347156
H99	H	0.995224	-0.220227	-0.479940
H100	H	0.995124	-0.177293	-0.366224
H101	H	1.120510	-0.064173	-0.408901
H102	H	1.120586	-0.107094	-0.522635
H103	H	1.023109	-0.048341	-0.479905
H104	H	1.641298	-0.920659	-0.732432
C105	C	0.904698	-0.646342	-0.646288
C106	C	0.931465	-0.623595	-0.750269
C107	C	0.876785	-0.690816	-0.817557
H108	H	0.831474	-0.636790	-0.636839
H109	H	0.922692	-0.716930	-0.630856
H110	H	0.913464	-0.553025	-0.765695
H111	H	1.004680	-0.633154	-0.759751
H112	H	0.894779	-0.761403	-0.802125
H113	H	0.803563	-0.681258	-0.808098
H114	H	0.894945	-0.675398	-0.888114
H115	H	1.740436	-0.916406	-0.621998
