data_functionalizedCrystal
_audit_creation_method	'MofGen! by Chris Wilmer'
_symmetry_space_group_name_H-M	'P1'
_symmetry_Int_Tables_number	1
_symmetry_cell_setting	triclinic
loop_
_symmetry_equiv_pos_as_xyz
  x,y,z
_cell_length_a	16.974885
_cell_length_b	10.967829
_cell_length_c	16.053789
_cell_angle_alpha	104.981094
_cell_angle_beta	89.242788
_cell_angle_gamma	84.835602
loop_
_atom_site_label
_atom_site_type_symbol
_atom_site_fract_x
_atom_site_fract_y
_atom_site_fract_z
O1	O	1.050930	0.160451	0.021569
O2	O	0.821639	0.181973	0.040145
O3	O	0.940438	-0.012249	0.004178
O4	O	0.932131	0.354673	0.057537
O5	O	0.934388	-0.021693	-0.135632
O6	O	0.815589	0.172529	-0.099664
O7	O	1.044880	0.151008	-0.118241
Zn8	Zn	0.929274	0.160269	-0.131150
Zn9	Zn	0.937245	0.172711	0.053055
O10	O	0.926081	0.345229	-0.082273
C11	C	0.789233	0.176609	-0.027868
C12	C	0.701689	0.174682	-0.022235
C13	C	0.209264	0.164351	0.017706
C14	C	0.291521	0.166161	0.012401
C15	C	0.329343	0.161927	-0.066461
C16	C	0.284904	0.155870	-0.140025
C17	C	0.202649	0.154052	-0.134721
C18	C	0.574995	0.166807	-0.090496
C19	C	0.657256	0.168630	-0.095793
C20	C	0.663867	0.178918	0.056633
C21	C	0.581609	0.177106	0.061931
C22	C	0.537178	0.171043	-0.011634
N23	N	0.413423	0.163781	-0.071884
N24	N	0.453101	0.169180	-0.006212
C25	C	0.936351	-0.063910	-0.072408
C26	C	0.933179	-0.203775	-0.092314
C27	C	0.934899	-0.261233	-0.028762
C28	C	0.931620	-0.405790	-0.049335
C29	C	1.077286	0.156371	-0.050225
C30	C	1.164831	0.158298	-0.055853
C31	C	0.930168	0.396891	-0.005686
C32	C	0.933340	0.536756	0.014226
N33	N	0.923840	0.151776	-0.256866
C34	C	0.970634	0.224968	-0.293184
C35	C	0.966843	0.219019	-0.381191
C36	C	0.916254	0.139884	-0.432878
C37	C	0.869458	0.066685	-0.396555
C38	C	0.873253	0.072628	-0.308551
C39	C	0.899685	0.113937	-0.696904
C40	C	0.895891	0.108002	-0.784913
C41	C	0.993278	0.260335	-0.769543
C42	C	0.997065	0.266277	-0.681537
C43	C	0.950273	0.193072	-0.645223
N44	N	0.912376	0.133805	-0.522835
N45	N	0.954155	0.199146	-0.555269
N46	N	0.942685	0.181194	0.178769
H47	H	0.550820	0.180552	0.126148
O48	O	0.938078	-0.394383	0.097327
C49	C	1.012706	-0.359618	0.226633
C50	C	1.007441	-0.437750	0.132547
H51	H	1.068790	-0.394632	0.255130
H52	H	0.958777	-0.370969	0.266042
H53	H	1.014470	-0.255335	0.228360
H54	H	1.005701	-0.542061	0.130738
H55	H	1.061368	-0.426292	0.093179
O56	O	0.334560	0.172095	0.083947
C57	C	0.332443	0.182023	0.235679
C58	C	0.283604	0.175341	0.154723
H59	H	0.291267	0.184622	0.292919
H60	H	0.364904	0.271319	0.250179
H61	H	0.377330	0.094974	0.223853
H62	H	0.238675	0.262325	0.166487
H63	H	0.251198	0.085990	0.140247
H64	H	0.315706	0.152415	-0.204237
O65	O	1.046280	0.343166	-0.631463
C66	C	1.142444	0.493682	-0.625499
C67	C	1.086758	0.406633	-0.682311
H68	H	1.175172	0.545038	-0.666583
H69	H	1.187095	0.434308	-0.596154
H70	H	1.106241	0.566214	-0.571679
H71	H	1.122895	0.334086	-0.736175
H72	H	1.042104	0.466090	-0.711592
O73	O	1.012322	0.290250	-0.416323
C74	C	1.109342	0.441928	-0.391799
C75	C	1.057865	0.361345	-0.351899
H76	H	1.146188	0.499409	-0.339735
H77	H	1.069630	0.509025	-0.420367
H78	H	1.150361	0.376926	-0.444858
H79	H	1.016839	0.426249	-0.298808
H80	H	1.097624	0.294236	-0.323388
O81	O	0.854098	0.042982	-0.661653
C82	C	0.722002	-0.003718	-0.632820
C83	C	0.773544	0.076744	-0.672754
H84	H	0.656864	0.023530	-0.641797
H85	H	0.733320	0.014110	-0.561025
H86	H	0.737674	-0.108439	-0.666132
H87	H	0.757902	0.181492	-0.639510
H88	H	0.762219	0.058808	-0.744552
H89	H	1.031374	0.319933	-0.799121
O90	O	0.939659	-0.192424	0.054345
C91	C	1.014336	-0.157842	0.183613
C92	C	1.009031	-0.235873	0.089507
H93	H	1.070428	-0.192923	0.212064
H94	H	0.960418	-0.169217	0.223027
H95	H	1.016114	-0.053542	0.185394
H96	H	1.007278	-0.340200	0.087644
H97	H	1.062948	-0.224391	0.050134
H98	H	0.835149	0.013028	-0.278983
O99	O	0.928415	-0.272858	-0.175352
C100	C	0.853096	-0.412584	-0.278123
C101	C	0.858405	-0.334435	-0.184047
H102	H	0.796489	-0.462368	-0.285188
H103	H	0.906497	-0.486337	-0.296090
H104	H	0.852349	-0.346818	-0.322755
H105	H	0.859128	-0.400101	-0.139352
H106	H	0.805006	-0.260669	-0.166152
O107	O	0.693877	0.164441	-0.172482
C108	C	0.678641	0.154094	-0.323102
C109	C	0.637069	0.158802	-0.236318
H110	H	0.632729	0.149560	-0.374733
H111	H	0.723164	0.066495	-0.342552
H112	H	0.710811	0.242840	-0.316249
H113	H	0.604855	0.070118	-0.243103
H114	H	0.592591	0.246458	-0.216898
O115	O	0.531829	0.160690	-0.161968
C116	C	0.442784	0.043526	-0.260657
C117	C	0.491647	0.050289	-0.179709
H118	H	0.410272	-0.045712	-0.275016
H119	H	0.483925	0.040729	-0.317967
H120	H	0.397937	0.130619	-0.248877
H121	H	0.536498	-0.036783	-0.191405
H122	H	0.450458	0.053149	-0.122426
H123	H	0.854691	0.043562	-0.826995
H124	H	0.178475	0.167807	0.081925
H125	H	0.700051	0.183852	0.116525
O126	O	0.159581	0.148005	-0.206259
C127	C	0.136401	0.029466	-0.351121
C128	C	0.185245	0.036179	-0.270165
H129	H	0.157121	-0.060951	-0.402803
H130	H	0.144759	0.115393	-0.376707
H131	H	0.071116	0.028952	-0.333756
H132	H	0.250547	0.036653	-0.287461
H133	H	0.176821	-0.049743	-0.244599
H134	H	0.927715	-0.463613	-0.118978
H135	H	1.011824	0.289415	-0.251105
H136	H	0.828271	0.002245	-0.438647
