data_functionalizedCrystal
_audit_creation_method	'MofGen! by Chris Wilmer'
_symmetry_space_group_name_H-M	'P1'
_symmetry_Int_Tables_number	1
_symmetry_cell_setting	triclinic
loop_
_symmetry_equiv_pos_as_xyz
  x,y,z
_cell_length_a	10.654554
_cell_length_b	10.654551
_cell_length_c	8.140239
_cell_angle_alpha	89.999303
_cell_angle_beta	89.997113
_cell_angle_gamma	84.486102
loop_
_atom_site_label
_atom_site_type_symbol
_atom_site_fract_x
_atom_site_fract_y
_atom_site_fract_z
O1	O	1.667835	0.176425	-0.136609
O2	O	1.302358	0.193225	-0.136610
O3	O	1.493499	0.002086	-0.136610
O4	O	1.476694	0.367564	-0.136609
O5	O	1.493488	0.002084	0.136617
O6	O	1.302347	0.193223	0.136617
O7	O	1.667825	0.176423	0.136618
Zn8	Zn	1.485084	0.184822	0.179998
Zn9	Zn	1.485098	0.184825	-0.179990
O10	O	1.476684	0.367562	0.136618
C11	C	1.255555	0.191989	0.000003
C12	C	1.116112	0.188295	0.000003
C13	C	0.933549	0.068808	-0.000012
C14	C	1.064571	0.072279	0.000000
C15	C	1.036623	0.300848	0.000010
C16	C	0.905604	0.297376	0.000010
C17	C	0.882016	-0.047215	-0.000031
C18	C	0.961496	-0.159769	-0.000035
C19	C	1.092517	-0.156299	-0.000023
C20	C	1.144059	-0.040274	-0.000007
C21	C	1.492259	-0.044713	-0.000001
C22	C	1.488567	-0.184156	-0.000012
C23	C	1.486841	-0.249667	-0.148945
C24	C	1.483360	-0.380688	-0.148937
C25	C	1.483338	-0.380676	0.148950
C26	C	1.486810	-0.249656	0.148941
C27	C	1.488598	-0.184167	-0.297897
C28	C	1.486873	-0.249678	-0.446842
C29	C	1.483393	-0.380699	-0.446835
C30	C	1.481637	-0.446208	-0.297882
C31	C	1.714628	0.177659	0.000001
C32	C	1.854071	0.181353	-0.000009
C33	C	1.477923	0.414361	0.000005
C34	C	1.481616	0.553804	0.000005
N35	N	1.485084	0.184820	0.425681
N36	N	1.485109	0.184818	-0.425673
H37	H	1.078600	0.395309	0.000021
H38	H	0.775334	-0.050054	-0.000045
C39	C	0.905300	-0.285607	-0.000130
C40	C	0.773547	-0.264562	-0.000185
C41	C	0.721740	-0.380456	-0.000292
H42	H	0.932365	-0.332095	0.095125
H43	H	0.932451	-0.332004	-0.095448
H44	H	0.746407	-0.218185	0.095124
H45	H	0.746447	-0.218093	-0.095432
H46	H	0.748892	-0.426853	-0.095611
H47	H	0.748814	-0.426936	0.094964
H48	H	0.632342	-0.366193	-0.000345
H49	H	1.478785	-0.552891	-0.297888
H50	H	1.481910	-0.434024	0.270220
H51	H	1.488189	-0.196313	0.270215
H52	H	1.250747	-0.037458	0.000018
C53	C	1.178749	-0.278534	-0.000361
C54	C	1.155338	-0.348301	-0.140960
C55	C	1.234759	-0.460907	-0.141346
H56	H	1.163083	-0.326215	0.094802
H57	H	1.264180	-0.259908	-0.000442
H58	H	1.069927	-0.366930	-0.140864
H59	H	1.171012	-0.300658	-0.236145
H60	H	1.320190	-0.442281	-0.141427
H61	H	1.219086	-0.508576	-0.046177
H62	H	1.218894	-0.508252	-0.236747
H63	H	0.840890	0.389020	0.000019
H64	H	1.491435	-0.077484	-0.297920
H65	H	1.488290	-0.196330	-0.568114
H66	H	1.481975	-0.434033	-0.568113
