data_functionalizedCrystal
_audit_creation_method	'MofGen! by Chris Wilmer'
_symmetry_space_group_name_H-M	'P1'
_symmetry_Int_Tables_number	1
_symmetry_cell_setting	triclinic
loop_
_symmetry_equiv_pos_as_xyz
  x,y,z
_cell_length_a	10.540539
_cell_length_b	14.044191
_cell_length_c	13.101018
_cell_angle_alpha	93.666878
_cell_angle_beta	86.605148
_cell_angle_gamma	88.858634
loop_
_atom_site_label
_atom_site_type_symbol
_atom_site_fract_x
_atom_site_fract_y
_atom_site_fract_z
O1	O	0.299894	1.264955	0.085156
O2	O	0.799894	1.764955	0.585156
O3	O	0.288832	0.988912	0.085169
O4	O	0.788832	1.488912	0.585169
O5	O	0.110294	1.133231	0.085161
O6	O	0.610294	1.633231	0.585161
O7	O	0.478433	1.120636	0.085164
O8	O	0.978433	1.620636	0.585164
O9	O	0.123115	1.122865	-0.085269
O10	O	0.623115	1.622865	0.414731
O11	O	0.301653	0.978545	-0.085261
O12	O	0.801653	1.478545	0.414739
O13	O	0.312715	1.254589	-0.085274
O14	O	0.812715	1.754589	0.414726
Zn15	Zn	0.309220	1.114921	-0.112327
Zn16	Zn	0.809220	1.614921	0.387673
Zn17	Zn	0.292328	1.128579	0.112222
Zn18	Zn	0.792328	1.628579	0.612222
O19	O	0.491254	1.110269	-0.085266
O20	O	0.991254	1.610269	0.414734
C21	C	0.290404	0.948381	-0.000044
C22	C	0.790404	1.448381	0.499956
C23	C	0.275970	0.843058	-0.000039
C24	C	0.775970	1.343058	0.499961
C25	C	0.351949	0.593285	-0.000048
C26	C	0.851949	1.093285	0.499952
C27	C	0.249604	0.650221	-0.000047
C28	C	0.749604	1.150221	0.499953
C29	C	0.264277	0.757525	-0.000043
C30	C	0.764277	1.257525	0.499957
C31	C	0.337277	0.485971	-0.000053
C32	C	0.837277	0.985971	0.499947
C33	C	0.069305	1.127103	-0.000052
C34	C	0.569305	1.627103	0.499948
C35	C	-0.071929	1.124278	-0.000046
C36	C	0.428071	1.624278	0.499954
C37	C	-0.266336	1.016012	0.000341
C38	C	0.233664	1.516012	0.500341
C39	C	-0.119400	1.018853	-0.000042
C40	C	0.380600	1.518853	0.499958
C41	C	-0.121134	1.169093	-0.097373
C42	C	0.378866	1.669093	0.402627
C43	C	-0.268036	1.165490	-0.097454
C44	C	0.231964	1.665490	0.402546
C45	C	-0.282917	1.179423	0.096356
C46	C	0.217083	1.679423	0.596356
C47	C	-0.135934	1.180472	0.097643
C48	C	0.364066	1.680472	0.597643
C49	C	0.532242	1.116397	-0.000050
C50	C	1.032242	1.616397	0.499950
C51	C	0.673475	1.119223	-0.000049
C52	C	1.173475	1.619223	0.499951
C53	C	0.311143	1.295119	-0.000058
C54	C	0.811143	1.795119	0.499942
C55	C	0.325577	1.400443	-0.000057
C56	C	0.825577	1.900443	0.499943
N57	N	0.320748	1.105606	-0.265575
N58	N	0.820748	1.605606	0.234425
C59	C	0.265100	1.150570	-0.525487
C60	C	0.765100	1.650570	-0.025487
C61	C	0.336434	1.092941	-0.474611
C62	C	0.836434	1.592941	0.025389
C63	C	0.327704	1.099990	-0.358293
C64	C	0.827704	1.599990	0.141707
C65	C	0.273829	1.143522	-0.641816
C66	C	0.773829	1.643522	-0.141816
N67	N	0.280790	1.137902	0.265470
N68	N	0.780790	1.637902	0.765470
H69	H	-0.086082	0.983176	0.069725
H70	H	0.413918	1.483176	0.569725
Cl71	Cl	-0.074115	1.288285	-0.102972
Cl72	Cl	0.425885	1.788285	0.397028
Cl73	Cl	-0.345508	1.133661	0.210248
Cl74	Cl	0.154492	1.633661	0.710248
Cl75	Cl	0.504233	0.642447	-0.000034
Cl76	Cl	1.004233	1.142447	0.499966
H77	H	0.404063	1.038311	-0.518413
H78	H	0.904063	1.538311	-0.018413
H79	H	-0.076651	1.129444	-0.169796
H80	H	0.423349	1.629444	0.330204
Cl81	Cl	-0.329749	1.282130	-0.104292
Cl82	Cl	0.170251	1.782130	0.395708
Cl83	Cl	0.097309	0.601062	-0.000048
Cl84	Cl	0.597309	1.101062	0.499952
H85	H	0.197477	1.205198	-0.481690
H86	H	0.697477	1.705198	0.018310
H87	H	-0.304398	0.978612	0.070136
H88	H	0.195602	1.478612	0.570136
H89	H	-0.295518	0.970315	-0.069058
H90	H	0.204482	1.470315	0.430942
H91	H	-0.294555	1.123569	-0.170204
H92	H	0.205445	1.623569	0.329796
Cl93	Cl	-0.086215	1.130400	0.208823
Cl94	Cl	0.413785	1.630400	0.708823
Cl95	Cl	-0.053083	0.950221	-0.107930
Cl96	Cl	0.446917	1.450221	0.392070
Cl97	Cl	-0.087215	1.299695	0.106719
Cl98	Cl	0.412785	1.799695	0.606719
H99	H	-0.322491	1.255610	0.097007
H100	H	0.177509	1.755610	0.597007
