data_functionalizedCrystal
_audit_creation_method	'MofGen! by Chris Wilmer'
_symmetry_space_group_name_H-M	'P1'
_symmetry_Int_Tables_number	1
_symmetry_cell_setting	triclinic
loop_
_symmetry_equiv_pos_as_xyz
  x,y,z
_cell_length_a	17.640112
_cell_length_b	16.625545
_cell_length_c	17.640968
_cell_angle_alpha	78.769372
_cell_angle_beta	92.139080
_cell_angle_gamma	101.250346
loop_
_atom_site_label
_atom_site_type_symbol
_atom_site_fract_x
_atom_site_fract_y
_atom_site_fract_z
Zn1	Zn	1.247777	-0.023167	-0.195080
Zn2	Zn	1.747777	0.476833	0.304920
Zn3	Zn	1.222000	-0.189521	-0.068100
Zn4	Zn	1.722000	0.310479	0.431900
Zn5	Zn	1.095107	-0.075617	-0.093727
Zn6	Zn	1.595107	0.424383	0.406273
Zn7	Zn	1.120741	-0.178908	-0.220682
Zn8	Zn	1.620741	0.321092	0.279318
O9	O	1.171406	-0.116803	-0.144397
O10	O	1.671406	0.383197	0.355603
O11	O	1.350628	-0.027726	-0.156797
O12	O	1.850628	0.472274	0.343203
O13	O	1.183651	-0.200804	0.034773
O14	O	1.683651	0.299196	0.534773
O15	O	1.115419	0.044187	-0.107182
O16	O	1.615419	0.544187	0.392818
O17	O	1.331689	-0.149945	-0.063505
O18	O	1.831689	0.350055	0.436495
O19	O	1.227585	0.082722	-0.181646
O20	O	1.727585	0.582722	0.318354
O21	O	1.090423	-0.117119	0.015945
O22	O	1.590423	0.382881	0.515945
O23	O	0.992237	-0.106828	-0.132007
O24	O	1.492237	0.393172	0.367993
O25	O	1.159109	-0.131856	-0.323559
O26	O	1.659109	0.368144	0.176441
O27	O	1.011070	-0.182714	-0.225280
O28	O	1.511070	0.317286	0.274720
O29	O	1.252442	-0.017434	-0.304749
O30	O	1.752442	0.482566	0.195251
O31	O	1.208508	-0.300960	-0.088330
O32	O	1.708508	0.199040	0.411670
O33	O	1.134113	-0.293162	-0.200431
O34	O	1.634113	0.206838	0.299569
C35	C	0.974099	-0.149311	-0.184203
C36	C	1.474099	0.350689	0.315797
C37	C	0.889694	-0.163233	-0.201250
C38	C	1.389694	0.336767	0.298750
C39	C	1.171319	-0.326314	-0.144390
C40	C	1.671319	0.173686	0.355610
C41	C	1.171356	-0.415925	-0.144398
C42	C	1.671356	0.084075	0.355602
C43	C	0.563039	-0.011024	-0.014898
C44	C	1.063039	0.488976	0.485102
C45	C	0.483729	-0.024119	-0.030927
C46	C	0.983729	0.475881	0.469073
C47	C	0.503361	-0.103324	-0.127885
C48	C	1.003361	0.396676	0.372115
C49	C	0.582674	-0.090231	-0.111867
C50	C	1.082674	0.409769	0.388133
C51	C	0.612506	-0.044082	-0.055372
C52	C	1.112506	0.455918	0.444628
C53	C	0.632142	-0.123289	-0.152341
C54	C	1.132142	0.376711	0.347659
C55	C	0.711447	-0.110201	-0.136321
C56	C	1.211447	0.389799	0.363679
C57	C	0.741285	-0.064056	-0.079827
C58	C	1.241285	0.435944	0.420173
C59	C	0.691812	-0.030994	-0.039352
C60	C	1.191812	0.469006	0.460648
C61	C	0.602307	-0.169444	-0.208831
C62	C	1.102307	0.330556	0.291169
C63	C	0.651775	-0.202502	-0.249305
C64	C	1.151775	0.297498	0.250695
C65	C	0.731083	-0.189409	-0.233290
C66	C	1.231083	0.310591	0.266710
C67	C	0.760921	-0.143263	-0.176796
C68	C	1.260921	0.356737	0.323204
C69	C	0.780556	-0.222471	-0.273765
C70	C	1.280556	0.277529	0.226235
C71	C	0.859862	-0.209383	-0.257745
C72	C	1.359862	0.290617	0.242255
C73	C	0.840227	-0.130176	-0.160776
C74	C	1.340227	0.369824	0.339224
C75	C	1.171389	-0.488699	-0.144407
C76	C	1.671389	0.011301	0.355593
C77	C	1.171436	-0.579996	-0.144415
C78	C	1.671436	-0.079996	0.355585
C79	C	1.171478	-0.652764	-0.144417
C80	C	1.671478	-0.152764	0.355583
C81	C	1.171524	-0.744067	-0.144424
C82	C	1.671524	-0.244067	0.355576
C83	C	1.369484	-0.084169	-0.104436
C84	C	1.869484	0.415831	0.395564
C85	C	1.453892	-0.070262	-0.087407
C86	C	1.953892	0.429738	0.412593
C87	C	1.211510	-0.067610	-0.342480
C88	C	1.711510	0.432390	0.157520
C89	C	1.228600	-0.046647	-0.426890
C90	C	1.728600	0.453353	0.073110
C91	C	1.171518	0.093533	-0.144417
C92	C	1.671518	0.593533	0.355583
C93	C	1.171566	0.183165	-0.144425
C94	C	1.671566	0.683165	0.355575
C95	C	1.041868	-0.275571	-0.753467
C96	C	1.541868	0.224429	-0.253467
C97	C	1.057942	-0.255860	-0.832780
C98	C	1.557942	0.244140	-0.332780
C99	C	1.155122	-0.136723	-0.813185
C100	C	1.655122	0.363277	-0.313185
C101	C	1.139053	-0.156421	-0.733869
C102	C	1.639053	0.343579	-0.233869
C103	C	1.082426	-0.225847	-0.704016
C104	C	1.582426	0.274153	-0.204016
C105	C	1.179610	-0.106697	-0.684418
C106	C	1.679610	0.393303	-0.184418
C107	C	1.163545	-0.126397	-0.605108
C108	C	1.663545	0.373603	-0.105108
C109	C	1.106922	-0.195821	-0.575249
C110	C	1.606922	0.304179	-0.075249
C111	C	1.066361	-0.245547	-0.624706
C112	C	1.566361	0.254453	-0.124706
C113	C	1.236241	-0.037276	-0.714272
C114	C	1.736241	0.462724	-0.214272
C115	C	1.276799	0.012448	-0.664821
C116	C	1.776799	0.512448	-0.164821
C117	C	1.260730	-0.007248	-0.585510
C118	C	1.760730	0.492752	-0.085510
C119	C	1.204107	-0.076672	-0.555651
C120	C	1.704107	0.423328	-0.055651
C121	C	1.301292	0.042478	-0.536053
C122	C	1.801292	0.542478	-0.036053
C123	C	1.285227	0.022778	-0.456743
C124	C	1.785227	0.522778	0.043257
C125	C	1.188042	-0.096371	-0.476341
C126	C	1.688042	0.403629	0.023659
C127	C	1.131502	-0.165739	0.052923
C128	C	1.631502	0.334261	0.552923
C129	C	1.114559	-0.186451	0.137363
C130	C	1.614559	0.313549	0.637363
H131	H	0.864519	-0.092581	-0.114784
H132	H	1.364519	0.407419	0.385216
H133	H	0.537731	-0.180099	-0.221873
H134	H	1.037731	0.319901	0.278127
H135	H	0.479060	-0.140902	-0.173881
H136	H	0.979060	0.359098	0.326119
F137	F	1.328395	0.075698	-0.404111
F138	F	1.828395	0.575698	0.095889
H139	H	0.627474	-0.240080	-0.295301
H140	H	1.127474	0.259920	0.204699
H141	H	0.805861	-0.053403	-0.066784
H142	H	1.305861	0.446597	0.433216
F143	F	1.361564	0.116356	-0.567834
F144	F	1.861564	0.616356	-0.067834
F145	F	1.089828	-0.216791	-0.490838
F146	F	1.589828	0.283209	0.009162
F147	F	0.723566	0.018131	0.020771
F148	F	1.223566	0.518131	0.520771
F149	F	1.127767	-0.170257	-0.444567
F150	F	1.627767	0.329743	0.055433
H151	H	0.587331	0.026571	0.031094
H152	H	1.087331	0.526571	0.531094
H153	H	0.756253	-0.260053	-0.319757
H154	H	1.256253	0.239947	0.180243
H155	H	1.020231	-0.302064	-0.600402
H156	H	1.520231	0.197936	-0.100402
F157	F	1.215389	-0.062840	-0.844965
F158	F	1.715389	0.437160	-0.344965
H159	H	0.443455	0.002811	0.002031
H160	H	0.943455	0.502811	0.502031
F161	F	1.253340	-0.016313	-0.798681
F162	F	1.753340	0.483687	-0.298681
F163	F	1.014769	-0.308787	-0.885408
F164	F	1.514769	0.191213	-0.385408
H165	H	0.900140	-0.236301	-0.290704
H166	H	1.400140	0.263699	0.209296
F167	F	0.981593	-0.349456	-0.721692
F168	F	1.481593	0.150544	-0.221692
F169	F	1.337066	0.086331	-0.696601
F170	F	1.837066	0.586331	-0.196601
