data_functionalizedCrystal
_audit_creation_method	'MofGen! by Chris Wilmer'
_symmetry_space_group_name_H-M	'P1'
_symmetry_Int_Tables_number	1
_symmetry_cell_setting	triclinic
loop_
_symmetry_equiv_pos_as_xyz
  x,y,z
_cell_length_a	27.732048
_cell_length_b	19.288872
_cell_length_c	18.366186
_cell_angle_alpha	90.008380
_cell_angle_beta	90.010100
_cell_angle_gamma	82.890963
loop_
_atom_site_label
_atom_site_type_symbol
_atom_site_fract_x
_atom_site_fract_y
_atom_site_fract_z
O1	O	0.060316	0.920973	0.060545
O2	O	0.560316	1.420973	0.560545
O3	O	0.068447	0.718663	0.060550
O4	O	0.568447	1.218663	0.560550
O5	O	-0.005996	0.826101	0.060534
O6	O	0.494004	1.326101	0.560534
O7	O	0.134759	0.813535	0.060562
O8	O	0.634759	1.313535	0.560562
O9	O	-0.005998	0.826083	-0.060566
O10	O	0.494002	1.326083	0.439434
O11	O	0.068445	0.718644	-0.060549
O12	O	0.568445	1.218644	0.439451
O13	O	0.060314	0.920955	-0.060554
O14	O	0.560314	1.420955	0.439446
Zn15	Zn	0.064379	0.819797	-0.079779
Zn16	Zn	0.564379	1.319797	0.420221
Zn17	Zn	0.064382	0.819821	0.079775
Zn18	Zn	0.564382	1.319821	0.579775
O19	O	0.134757	0.813516	-0.060538
O20	O	0.634757	1.313516	0.439462
C21	C	-0.024005	0.825828	-0.000018
C22	C	0.475995	1.325828	0.499982
C23	C	-0.077662	0.825034	-0.000024
C24	C	0.422338	1.325034	0.499976
C25	C	0.068183	0.692779	0.000001
C26	C	0.568183	1.192779	0.500001
C27	C	0.067396	0.615680	0.000003
C28	C	0.567396	1.115680	0.500003
C29	C	0.060577	0.946839	-0.000003
C30	C	0.560577	1.446839	0.499997
C31	C	0.061364	1.023937	0.000000
C32	C	0.561364	1.523937	0.500000
C33	C	-0.416300	0.883523	0.000012
C34	C	0.083700	1.383523	0.500012
C35	C	-0.617968	0.880575	0.000022
C36	C	-0.117968	1.380575	0.500022
O37	O	-0.649061	0.934059	0.000053
O38	O	-0.149061	1.434059	0.500053
N39	N	-0.637286	0.816869	0.000023
N40	N	-0.137286	1.316869	0.500023
C41	C	-0.606182	0.753894	0.000026
C42	C	-0.106182	1.253894	0.500026
O43	O	-0.627240	0.699640	0.000035
O44	O	-0.127240	1.199640	0.500035
C45	C	-0.404515	0.756842	0.000021
C46	C	0.095485	1.256842	0.500021
C47	C	-0.385200	0.820553	0.000013
C48	C	0.114800	1.320553	0.500013
C49	C	-0.396985	0.947228	0.000005
C50	C	0.103015	1.447228	0.500005
C51	C	-0.346571	0.947964	-0.000002
C52	C	0.153429	1.447964	0.499998
C53	C	-0.315471	0.884995	-0.000001
C54	C	0.184529	1.384995	0.499999
C55	C	-0.334786	0.821289	0.000007
C56	C	0.165214	1.321289	0.500007
C57	C	-0.373412	0.693869	0.000030
C58	C	0.126588	1.193869	0.500030
C59	C	-0.322993	0.694611	0.000030
C60	C	0.177007	1.194611	0.500030
C61	C	-0.303679	0.758322	0.000022
C62	C	0.196321	1.258322	0.500022
C63	C	-0.253273	0.759056	0.000001
C64	C	0.246727	1.259056	0.500001
N65	N	-0.233955	0.822762	0.000000
N66	N	0.266045	1.322762	0.500000
C67	C	-0.265055	0.885732	-0.000001
C68	C	0.234945	1.385732	0.499999
C69	C	-0.712061	0.752351	0.000028
C70	C	-0.212061	1.252351	0.500028
C71	C	-0.762478	0.751614	0.000028
C72	C	-0.262478	1.251614	0.500028
C73	C	-0.774260	0.878295	0.000025
C74	C	-0.274260	1.378295	0.500025
C75	C	-0.723843	0.879032	0.000020
C76	C	-0.223843	1.379032	0.500020
C77	C	-0.692744	0.816058	0.000027
C78	C	-0.192744	1.316058	0.500027
C79	C	-0.159181	0.887273	-0.000015
C80	C	0.340819	1.387273	0.499985
C81	C	-0.108762	0.888004	-0.000025
C82	C	0.391238	1.388004	0.499975
C83	C	-0.096984	0.761323	-0.000018
C84	C	0.403016	1.261323	0.499982
C85	C	-0.147398	0.760592	-0.000013
C86	C	0.352602	1.260592	0.499987
C87	C	-0.178496	0.823573	-0.000009
C88	C	0.321504	1.323573	0.499991
O89	O	-0.222151	0.705601	-0.000021
O90	O	0.277849	1.205601	0.499979
O91	O	-0.243987	0.939978	0.000007
O92	O	0.256013	1.439978	0.500007
C93	C	-0.466714	0.882787	0.000019
C94	C	0.033286	1.382787	0.500019
C95	C	-0.486029	0.819081	0.000026
C96	C	0.013971	1.319081	0.500026
C97	C	-0.454929	0.756111	0.000027
C98	C	0.045071	1.256111	0.500027
C99	C	-0.536445	0.818344	0.000026
C100	C	-0.036445	1.318344	0.500026
C101	C	-0.567545	0.881313	0.000025
C102	C	-0.067545	1.381313	0.500025
C103	C	-0.548227	0.945020	0.000024
C104	C	-0.048227	1.445020	0.500024
C105	C	-0.497813	0.945756	0.000018
C106	C	0.002187	1.445756	0.500018
C107	C	-0.474247	0.692405	0.000028
C108	C	0.025753	1.192405	0.500028
C109	C	-0.524662	0.691674	0.000034
C110	C	-0.024662	1.191674	0.500034
C111	C	-0.555761	0.754643	0.000033
C112	C	-0.055761	1.254643	0.500033
C113	C	0.152766	0.813789	0.000016
C114	C	0.652766	1.313789	0.500016
C115	C	0.206423	0.814584	0.000027
C116	C	0.706423	1.314584	0.500027
N117	N	0.064377	0.819785	-0.188670
N118	N	0.564377	1.319785	0.311330
C119	C	0.067022	1.579475	0.066012
C120	C	0.567022	2.079475	0.566012
C121	C	0.066287	1.507031	0.066014
C122	C	0.566287	2.007031	0.566014
C123	C	0.065916	1.470799	0.000002
C124	C	0.565916	1.970799	0.500002
C125	C	0.066293	1.507013	-0.066016
C126	C	0.566293	2.007013	0.433984
C127	C	0.067033	1.579454	-0.066016
C128	C	0.567033	2.079454	0.433984
C129	C	0.036433	1.361649	-0.050579
C130	C	0.536433	1.861649	0.449421
C131	C	0.035690	1.289210	-0.050577
C132	C	0.535690	1.789210	0.449423
C133	C	0.063637	1.247367	-0.000002
C134	C	0.563637	1.747367	0.499998
C135	C	0.092320	1.277973	0.050582
C136	C	0.592320	1.777973	0.550582
C137	C	0.093060	1.350414	0.050583
C138	C	0.593060	1.850414	0.550583
C139	C	0.065114	1.392249	-0.000006
C140	C	0.565114	1.892249	0.499994
C141	C	0.062466	1.132610	0.066014
C142	C	0.562466	1.632610	0.566014
C143	C	0.061734	1.060165	0.066012
C144	C	0.561734	1.560165	0.566012
C145	C	0.061735	1.060149	-0.066019
C146	C	0.561735	1.560149	0.433981
C147	C	0.062472	1.132591	-0.066016
C148	C	0.562472	1.632591	0.433984
C149	C	0.062835	1.168818	0.000002
C150	C	0.562835	1.668818	0.500002
C151	C	0.093622	0.861590	-0.226759
C152	C	0.593622	1.361590	0.273241
C153	C	0.093621	0.861602	-0.302987
C154	C	0.593621	1.361602	0.197013
C155	C	0.064380	0.819795	-0.341123
C156	C	0.564380	1.319795	0.158877
C157	C	0.035128	0.777987	-0.303024
C158	C	0.535128	1.277987	0.196976
C159	C	0.035127	0.777982	-0.226798
C160	C	0.535127	1.277982	0.273202
C161	C	0.063156	0.757191	-0.461903
C162	C	0.563156	1.257191	0.038097
C163	C	0.063161	0.757194	-0.538128
C164	C	0.563161	1.257194	-0.038128
C165	C	0.064381	0.819810	-0.576230
C166	C	0.564381	1.319810	-0.076230
C167	C	0.065607	0.882424	-0.538098
C168	C	0.565607	1.382424	-0.038098
C169	C	0.065606	0.882419	-0.461872
C170	C	0.565606	1.382419	0.038128
C171	C	0.064378	0.819796	-0.423777
C172	C	0.564378	1.319796	0.076223
C173	C	0.093627	0.861631	-0.696974
C174	C	0.593627	1.361631	-0.196974
C175	C	0.093622	0.861644	-0.773204
C176	C	0.593622	1.361644	-0.273204
C177	C	0.035132	0.778023	-0.773239
C178	C	0.535132	1.278023	-0.273239
C179	C	0.035134	0.778017	-0.697011
C180	C	0.535134	1.278017	-0.197011
C181	C	0.064384	0.819820	-0.658884
C182	C	0.564384	1.319820	-0.158884
N183	N	0.064380	0.819838	0.188666
N184	N	0.564380	1.319838	0.688666
H185	H	-0.093039	0.939887	-0.000034
H186	H	0.406961	1.439887	0.499966
C187	C	0.002956	0.731987	-0.184898
C188	C	0.502956	1.231987	0.315102
N189	N	-0.021274	0.697341	-0.153338
N190	N	0.478726	1.197341	0.346662
C191	C	-0.168645	0.690507	-0.000008
C192	C	0.331355	1.190507	0.499992
N193	N	-0.184644	0.637718	0.000003
N194	N	0.315356	1.137718	0.500003
H195	H	0.066603	0.933412	-0.569120
H196	H	0.566603	1.433412	-0.069120
C197	C	0.005685	1.407671	-0.106217
C198	C	0.505685	1.907671	0.393783
N199	N	-0.017473	1.442333	-0.148121
N200	N	0.482527	1.942333	0.351879
H201	H	-0.686744	0.701067	0.000033
H202	H	-0.186744	1.201067	0.500033
C203	C	0.125793	0.907583	-0.184823
C204	C	0.625793	1.407583	0.315177
N205	N	0.150022	0.942227	-0.153235
N206	N	0.650022	1.442227	0.346765
H207	H	-0.708121	0.930911	0.000013
H208	H	-0.208121	1.430911	0.500013
C209	C	0.066947	0.951294	-0.419930
C210	C	0.566947	1.451294	0.080070
N211	N	0.067954	1.003173	-0.388339
N212	N	0.567954	1.503173	0.111661
C213	C	0.124637	1.384072	0.106192
C214	C	0.624637	1.884072	0.606192
N215	N	0.148431	1.409421	0.148065
N216	N	0.648431	1.909421	0.648065
C217	C	0.125795	0.907592	-0.344894
C218	C	0.625795	1.407592	0.155106
N219	N	0.150029	0.942232	-0.376455
N220	N	0.650029	1.442232	0.123545
H221	H	0.011319	0.743949	-0.334079
H222	H	0.511319	1.243949	0.165921
C223	C	0.062875	1.172460	0.138635
C224	C	0.562875	1.672460	0.638635
N225	N	0.063184	1.202473	0.193333
N226	N	0.563184	1.702473	0.693333
C227	C	0.065873	1.467198	0.138632
C228	C	0.565873	1.967198	0.638632
N229	N	0.065559	1.437197	0.193328
N230	N	0.565559	1.937197	0.693328
H231	H	0.117436	0.895692	-0.804215
H232	H	0.617436	1.395692	-0.304215
H233	H	-0.297674	0.643329	0.000037
H234	H	0.202326	1.143329	0.500037
H235	H	-0.184495	0.938558	-0.000009
H236	H	0.315505	1.438558	0.499991
C237	C	0.061321	1.020339	0.138632
C238	C	0.561321	1.520339	0.638632
N239	N	0.061008	0.990342	0.193331
N240	N	0.561008	1.490342	0.693331
C241	C	-0.394646	0.623781	0.000044
C242	C	0.105354	1.123781	0.500044
N243	N	-0.410639	0.570986	0.000057
N244	N	0.089361	1.070986	0.500057
C245	C	0.067421	1.619320	0.138635
C246	C	0.567421	2.119320	0.638635
N247	N	0.067720	1.649333	0.193335
N248	N	0.567720	2.149333	0.693335
C249	C	0.002965	0.732037	-0.815184
C250	C	0.502965	1.232037	-0.315184
N251	N	-0.021265	0.697399	-0.846781
N252	N	0.478735	1.197399	-0.346781
H253	H	0.062166	0.706210	-0.569169
H254	H	0.562166	1.206210	-0.069169
C255	C	0.061328	1.020297	-0.138633
C256	C	0.561328	1.520297	0.361367
N257	N	0.061022	0.990277	-0.193328
N258	N	0.561022	1.490277	0.306672
C259	C	-0.325332	1.018052	-0.000003
C260	C	0.174668	1.518052	0.499997
N261	N	-0.309338	1.070845	-0.000001
N262	N	0.190662	1.570845	0.499999
C263	C	-0.476574	1.015844	0.000013
C264	C	0.023426	1.515844	0.500013
N265	N	-0.460581	1.068637	0.000012
N266	N	0.039419	1.568637	0.500012
C267	C	0.062877	1.172421	-0.138633
C268	C	0.562877	1.672421	0.361367
N269	N	0.063182	1.202420	-0.193331
N270	N	0.563182	1.702420	0.306669
H271	H	-0.778199	0.699734	0.000022
H272	H	-0.278199	1.199734	0.500022
C273	C	0.002966	0.732020	-0.655112
C274	C	0.502966	1.232020	-0.155112
N275	N	-0.021264	0.697373	-0.623553
N276	N	0.478736	1.197373	-0.123553
C277	C	-0.582446	1.014287	0.000024
C278	C	-0.082446	1.514287	0.500024
N279	N	-0.608222	1.066455	0.000029
N280	N	-0.108222	1.566455	0.500029
C281	C	0.123067	1.231950	0.106215
C282	C	0.623067	1.731950	0.606215
N283	N	0.146226	1.197282	0.148116
N284	N	0.646226	1.697282	0.648116
C285	C	-0.808479	0.947562	0.000029
C286	C	-0.308479	1.447562	0.500029
N287	N	-0.834254	0.999731	0.000039
N288	N	-0.334254	1.499731	0.500039
C289	C	0.067440	1.619282	-0.138635
C290	C	0.567440	2.119282	0.361365
N291	N	0.067745	1.649282	-0.193332
N292	N	0.567745	2.149282	0.306668
C293	C	-0.062765	0.692060	-0.000012
C294	C	0.437235	1.192060	0.499988
N295	N	-0.036990	0.639890	-0.000000
N296	N	0.463010	1.139890	0.500000
H297	H	-0.540382	0.639789	0.000034
H298	H	-0.040382	1.139789	0.500034
H299	H	0.062165	0.706197	-0.430886
H300	H	0.562165	1.206197	0.069114
H301	H	0.012332	1.264298	-0.091762
H302	H	0.512332	1.764298	0.408238
H303	H	-0.422301	0.998509	0.000006
H304	H	0.077699	1.498509	0.500006
H305	H	-0.448930	0.641126	0.000030
H306	H	0.051070	1.141126	0.500030
C307	C	0.065884	1.467156	-0.138629
C308	C	0.565884	1.967156	0.361371
N309	N	0.065578	1.437135	-0.193324
N310	N	0.565578	1.937135	0.306676
C311	C	0.125797	0.907622	-0.655031
C312	C	0.625797	1.407622	-0.155031
N313	N	0.150028	0.942264	-0.623441
N314	N	0.650028	1.442264	-0.123441
