data_functionalizedCrystal
_audit_creation_method	'MofGen! by Chris Wilmer'
_symmetry_space_group_name_H-M	'P1'
_symmetry_Int_Tables_number	1
_symmetry_cell_setting	triclinic
loop_
_symmetry_equiv_pos_as_xyz
  x,y,z
_cell_length_a	19.851628
_cell_length_b	14.446369
_cell_length_c	14.446369
_cell_angle_alpha	60.000250
_cell_angle_beta	90.005090
_cell_angle_gamma	59.999397
loop_
_atom_site_label
_atom_site_type_symbol
_atom_site_fract_x
_atom_site_fract_y
_atom_site_fract_z
Zr1	Zr	0.648984	1.013130	-0.121411
O2	O	0.541418	1.206259	-0.269240
O3	O	0.681958	0.820008	-0.076088
O4	O	0.681959	1.013117	-0.269207
O5	O	0.541417	1.013159	0.076208
O6	O	0.792821	1.013099	-0.269189
O7	O	0.541417	1.013150	-0.076120
O8	O	0.792818	0.667663	0.076266
O9	O	0.541419	1.358594	-0.269247
O10	O	0.778756	0.899426	-0.056752
O11	O	0.696021	0.899446	0.056916
O12	O	0.696023	1.126806	-0.170457
O13	O	0.613288	1.126826	-0.056790
Zr14	Zr	0.825795	1.013115	0.121565
Zr15	Zr	0.825796	1.013102	-0.121382
Zr16	Zr	0.648984	1.013144	0.121535
Zr17	Zr	0.648985	1.256088	-0.121423
Zr18	Zr	0.825794	0.770157	0.121576
O19	O	0.792822	1.206237	0.076241
O20	O	0.792822	1.206218	-0.269198
O21	O	0.541418	1.206278	0.076199
O22	O	0.933361	0.819987	0.269393
O23	O	0.933361	0.819968	-0.076046
O24	O	0.681957	0.820027	0.269351
O25	O	0.933362	1.013087	-0.076055
O26	O	0.792820	1.013129	0.269361
O27	O	0.681958	1.013146	0.269342
O28	O	0.933362	1.013095	0.076274
O29	O	0.681961	1.358572	-0.269223
O30	O	0.792818	0.667674	0.269376
O31	O	0.933360	0.667651	0.269400
O32	O	0.933360	0.667640	0.076290
O33	O	0.541419	1.358605	-0.076136
O34	O	0.681961	1.358582	-0.076113
O35	O	0.778756	0.899439	0.170611
O36	O	0.861491	0.899419	0.056943
O37	O	0.778758	1.126799	-0.056762
O38	O	0.696023	1.126819	0.056905
C39	C	0.737388	0.709219	0.000091
C40	C	0.737387	0.606077	0.000095
C41	C	0.516225	1.013158	0.000040
C42	C	0.441164	1.013171	0.000027
C43	C	0.685456	0.459080	0.072114
C44	C	0.685174	0.566700	0.071823
C45	C	0.699322	0.655073	-0.123446
C46	C	0.698931	0.547840	-0.123072
C47	C	0.827420	0.372608	0.050555
C48	C	0.827288	0.478759	0.053076
C49	C	0.214709	1.137119	-0.061932
C50	C	0.192347	1.075142	-0.106847
C51	C	0.303757	1.013137	0.000060
C52	C	0.192378	1.075121	0.044954
C53	C	0.171025	1.013113	0.000091
C54	C	0.282384	0.951159	-0.044918
C55	C	0.282412	0.951156	0.106942
C56	C	0.260104	0.889089	0.062054
C57	C	0.380219	1.013154	0.000039
C58	C	0.094568	1.013086	0.000109
C59	C	0.958554	1.013087	0.000114
C60	C	1.033615	1.013075	0.000126
C61	C	0.737390	1.013106	-0.303813
C62	C	0.737390	1.013100	-0.406950
C63	C	0.737392	1.317026	0.000063
C64	C	0.737392	1.420168	0.000058
C65	C	0.789830	0.869707	-0.481917
C66	C	0.789603	0.869610	-0.374589
C67	C	0.647493	1.084343	-0.481528
C68	C	0.647780	1.083432	-0.588387
C69	C	0.774121	1.086365	-0.589939
C70	C	0.775940	1.083662	-0.481267
C71	C	0.737389	1.013139	0.303966
C72	C	0.737389	1.013145	0.407103
C73	C	0.958552	0.709184	0.000128
C74	C	1.033613	0.606030	0.000145
C75	C	0.737387	0.709236	0.303980
C76	C	0.737387	0.606100	0.407122
C77	C	0.958552	0.709200	0.304017
C78	C	1.033612	0.606052	0.407171
C79	C	0.516227	1.317045	-0.303864
C80	C	0.441167	1.420194	-0.407018
C81	C	0.516227	1.317062	0.000026
C82	C	0.441166	1.420216	0.000009
C83	C	0.737392	1.317009	-0.303827
C84	C	0.737393	1.420146	-0.406969
C85	C	1.025675	0.557591	-0.059205
C86	C	1.096196	0.460680	-0.059211
C87	C	1.174653	0.412203	0.000139
C88	C	1.182589	0.460651	0.059491
C89	C	1.112069	0.557567	0.059490
C90	C	1.112056	0.557602	0.396281
C91	C	1.182590	0.460697	0.493196
C92	C	1.174679	0.412236	0.601001
C93	C	1.096227	0.460696	0.611890
C94	C	1.025695	0.557606	0.514975
C95	C	0.362723	1.468655	-0.396127
C96	C	0.292189	1.565591	-0.493043
C97	C	0.300101	1.614056	-0.600848
C98	C	0.378552	1.565591	-0.611736
C99	C	0.449085	1.468663	-0.514822
C100	C	0.449104	1.468665	0.059348
C101	C	0.378583	1.565602	0.059328
C102	C	0.300126	1.614083	-0.000026
C103	C	0.292190	1.565630	-0.059373
C104	C	0.362710	1.468701	-0.059359
C105	C	0.684953	0.459794	0.482102
C106	C	0.685175	0.566714	0.374769
C107	C	0.827285	0.479232	0.481696
C108	C	0.827003	0.371857	0.588560
C109	C	0.700663	0.546851	0.590117
C110	C	0.698839	0.655321	0.481440
H111	H	0.710707	0.529991	0.162794
C112	C	0.354009	1.415361	-0.277552
H113	H	0.407246	1.350685	-0.221382
H114	H	0.324711	1.484940	-0.269060
H115	H	0.324700	1.377563	-0.269058
H116	H	1.118544	0.596993	0.107826
C117	C	0.334847	0.880447	0.228998
H118	H	0.303423	0.924640	0.260786
H119	H	0.350709	0.792823	0.273369
H120	H	0.382755	0.880290	0.228134
C121	C	0.722775	1.229110	-0.695610
H122	H	0.745264	1.272853	-0.693340
H123	H	0.724009	1.230250	-0.761892
H124	H	0.667370	1.272295	-0.696779
C125	C	0.595467	0.686692	0.024503
H126	H	0.559056	0.669783	0.005372
H127	H	0.583459	0.703598	0.080206
H128	H	0.588539	0.760727	-0.041287
H129	H	1.118513	0.597044	0.308509
C130	C	0.596279	0.507382	0.025235
H131	H	0.590560	0.503941	-0.038061
H132	H	0.584007	0.453020	0.082517
H133	H	0.559252	0.595003	0.002305
H134	H	1.246462	0.421251	0.484310
H135	H	0.961798	0.597060	-0.107549
H136	H	0.633707	0.747389	-0.164146
H137	H	1.232117	0.333325	0.679906
C138	C	0.609438	0.602817	-0.177667
H139	H	0.573662	0.690345	-0.199860
H140	H	0.605364	0.601356	-0.242379
H141	H	0.594071	0.550677	-0.124426
C142	C	1.087452	0.407391	-0.124487
H143	H	1.030624	0.450130	-0.159812
H144	H	1.113156	0.423272	-0.180653
H145	H	1.113169	0.315889	-0.073251
H146	H	0.512981	1.429199	0.107689
H147	H	1.246478	0.421167	0.107811
C148	C	1.252218	0.305587	0.000143
H149	H	1.236246	0.283678	-0.043697
H150	H	1.284131	0.337328	-0.031623
H151	H	1.284119	0.229960	0.075759
H152	H	0.710194	0.370123	0.481075
C153	C	0.222562	1.720699	-0.000029
H154	H	0.238533	1.742594	0.043824
H155	H	0.190652	1.796321	-0.075637
H156	H	0.190656	1.688938	0.031752
H157	H	0.856409	0.281099	0.588295
H158	H	1.089798	0.421225	0.699677
H159	H	0.961825	0.597041	0.523859
C160	C	0.205904	1.618874	-0.481045
H161	H	0.211300	1.576105	-0.402959
H162	H	0.176591	1.710368	-0.516371
H163	H	0.176593	1.602992	-0.516389
H164	H	0.512955	1.429207	-0.523703
H165	H	0.196259	1.241951	-0.114431
C166	C	0.746722	0.518157	-0.199548
H167	H	0.766283	0.571635	-0.230714
H168	H	0.792171	0.428597	-0.155972
H169	H	0.711180	0.535961	-0.259159
H170	H	0.242662	1.692980	-0.679752
C171	C	0.387327	1.618870	0.124624
H172	H	0.444155	1.576092	0.159989
H173	H	0.361624	1.710364	0.073409
H174	H	0.361609	1.602988	0.180780
C175	C	0.139909	1.145917	-0.228928
H176	H	0.135044	1.086938	-0.235171
H177	H	0.086594	1.218218	-0.246829
H178	H	0.165748	1.176247	-0.280100
C179	C	0.387244	1.618901	-0.730325
H180	H	0.333999	1.683554	-0.786475
H181	H	0.416548	1.656706	-0.738844
H182	H	0.416536	1.549321	-0.738824
H183	H	0.764586	0.813697	-0.480885
C184	C	0.205885	1.618958	-0.124647
H185	H	0.165029	1.683612	-0.116139
H186	H	0.199683	1.656768	-0.202724
H187	H	0.199694	1.549386	-0.095324
H188	H	0.868201	0.341898	0.667148
H189	H	0.859223	0.278861	0.140127
H190	H	0.356236	1.429257	-0.107677
C191	C	0.595748	0.687420	0.301418
H192	H	0.558954	0.671399	0.337099
H193	H	0.589230	0.761289	0.292990
H194	H	0.583880	0.704017	0.228911
C195	C	0.747960	0.693960	-0.199117
H196	H	0.792017	0.680635	-0.155937
H197	H	0.769572	0.641626	-0.227189
H198	H	0.712296	0.783628	-0.260905
H199	H	0.278709	0.784171	0.114479
C200	C	0.595300	0.510077	0.478941
H201	H	0.589047	0.507369	0.545272
H202	H	0.558948	0.597621	0.413856
H203	H	0.582601	0.456229	0.475772
C204	C	0.719562	0.516122	0.302087
H205	H	0.733462	0.430060	0.338128
H206	H	0.679002	0.572256	0.229485
H207	H	0.767444	0.514820	0.293820
C208	C	0.334648	0.880427	-0.096342
H209	H	0.382328	0.880908	-0.096076
H210	H	0.350892	0.792592	-0.052637
H211	H	0.302967	0.924171	-0.172056
C212	C	0.865702	0.425238	0.176035
H213	H	0.827122	0.480252	0.195012
H214	H	0.879636	0.339142	0.225896
H215	H	0.914039	0.423327	0.183050
C216	C	0.865409	1.013497	-0.411789
H217	H	0.879218	0.941504	-0.337795
H218	H	0.901711	0.982775	-0.448000
H219	H	0.870490	1.072924	-0.406686
H220	H	0.153577	1.127549	0.082910
H221	H	0.868054	0.501474	0.508933
H222	H	0.856898	0.440667	0.430096
H223	H	0.635464	0.586433	0.594221
C224	C	0.879028	0.794089	-0.301240
H225	H	0.915823	0.763187	-0.336918
H226	H	0.885538	0.850586	-0.292822
H227	H	0.890899	0.721874	-0.228728
H228	H	0.632610	0.745823	0.430005
C229	C	0.883970	0.507783	-0.010447
H230	H	0.853411	0.598331	-0.070383
H231	H	0.928521	0.485171	0.040574
H232	H	0.904933	0.457768	-0.040749
C233	C	0.745014	0.698852	0.515827
H234	H	0.720396	0.728131	0.560581
H235	H	0.801178	0.627138	0.558440
H236	H	0.741929	0.768204	0.449635
C237	C	0.879945	0.337491	-0.019994
H238	H	0.847213	0.351710	-0.079924
H239	H	0.899496	0.391012	-0.050703
H240	H	0.925522	0.248068	0.027123
C241	C	0.879488	0.793633	-0.478738
H242	H	0.885745	0.848660	-0.545066
H243	H	0.915827	0.766154	-0.413651
H244	H	0.892200	0.719156	-0.475561
H245	H	0.710854	0.370213	0.163311
H246	H	0.764127	0.813366	-0.320804
H247	H	0.618374	1.032818	-0.588120
H248	H	0.606581	1.188671	-0.666978
C249	C	0.592411	1.226866	-0.518328
H250	H	0.623825	1.244227	-0.488459
H251	H	0.571988	1.284639	-0.598738
H252	H	0.547445	1.239650	-0.490466
H253	H	0.617878	1.034875	-0.429928
C254	C	0.862202	1.024340	-0.595468
H255	H	0.877399	0.953201	-0.599630
H256	H	0.864016	1.088027	-0.660729
H257	H	0.899536	0.993492	-0.529428
H258	H	0.741716	1.188344	-0.506793
H259	H	0.738679	0.522058	0.668339
