data_functionalizedCrystal
_audit_creation_method	'MofGen! by Chris Wilmer'
_symmetry_space_group_name_H-M	'P1'
_symmetry_Int_Tables_number	1
_symmetry_cell_setting	triclinic
loop_
_symmetry_equiv_pos_as_xyz
  x,y,z
_cell_length_a	12.759401
_cell_length_b	12.594516
_cell_length_c	12.759393
_cell_angle_alpha	89.970274
_cell_angle_beta	89.980324
_cell_angle_gamma	90.012242
loop_
_atom_site_label
_atom_site_type_symbol
_atom_site_fract_x
_atom_site_fract_y
_atom_site_fract_z
Zn1	Zn	1.606287	-0.423678	-0.593990
Zn2	Zn	1.606187	-0.601694	-0.418313
Zn3	Zn	1.430586	-0.423732	-0.418329
Zn4	Zn	1.430587	-0.601617	-0.593954
O5	O	1.518412	-0.512680	-0.506147
O6	O	1.753295	-0.447303	-0.570695
O7	O	1.582851	-0.578142	-0.271294
O8	O	1.453935	-0.274779	-0.441653
O9	O	1.753222	-0.578091	-0.441625
O10	O	1.583022	-0.274740	-0.570711
O11	O	1.453838	-0.447394	-0.271306
O12	O	1.283565	-0.447318	-0.441618
O13	O	1.453936	-0.577958	-0.740980
O14	O	1.283566	-0.578010	-0.570649
O15	O	1.583023	-0.447228	-0.741007
O16	O	1.582852	-0.750630	-0.441590
O17	O	1.453839	-0.750573	-0.570633
C18	C	1.245445	-0.512662	-0.506132
C19	C	1.128668	-0.512680	-0.506150
C20	C	1.073845	-0.444702	-0.573460
C21	C	0.964121	-0.444713	-0.573467
C22	C	0.964053	-0.580689	-0.438851
C23	C	1.073775	-0.580672	-0.438840
C24	C	1.518363	-0.789221	-0.506128
C25	C	1.518439	-0.907527	-0.506156
C26	C	1.588690	-0.976772	-0.436044
C27	C	1.614368	-1.047465	-0.531937
C28	C	1.492893	-1.047632	-0.410324
C29	C	1.544165	-0.976662	-0.602098
C30	C	1.422645	-0.976822	-0.480421
C31	C	1.448286	-1.047484	-0.576380
C32	C	1.792445	-0.512700	-0.506162
C33	C	1.909222	-0.512708	-0.506169
C34	C	1.518491	-0.512578	-0.780180
C35	C	1.518524	-0.512535	-0.896957
C36	C	1.518489	-0.235059	-0.506188
C37	C	1.518522	-0.116754	-0.506206
C38	C	1.585744	-0.444452	-0.951834
C39	C	1.585762	-0.444407	-1.061559
C40	C	1.451336	-0.580534	-1.061518
C41	C	1.451314	-0.580574	-0.951796
C42	C	1.518394	-0.512705	-0.233179
C43	C	1.518564	-0.512449	-0.116403
H44	H	0.919489	-0.389356	-0.628276
C45	C	1.716717	-1.150421	-0.652773
C46	C	1.723777	-1.089341	-0.561382
H47	H	1.784267	-1.176255	-0.670953
H48	H	1.670794	-1.208603	-0.641093
H49	H	1.690319	-1.107819	-0.708259
H50	H	1.750168	-1.131944	-0.505893
H51	H	1.769717	-1.031150	-0.573056
H52	H	1.396568	-0.636014	-0.907113
C53	C	1.645470	-0.383883	-1.229770
C54	C	1.659647	-0.369563	-1.121881
H55	H	1.691079	-0.337668	-1.267008
H56	H	1.660834	-0.455382	-1.247744
H57	H	1.574882	-0.368294	-1.247727
H58	H	1.730233	-0.385160	-1.103923
H59	H	1.644290	-0.298049	-1.103900
C60	C	0.975007	-0.715093	-0.305788
C61	C	0.903711	-0.655432	-0.364874
H62	H	0.937754	-0.761234	-0.260115
H63	H	1.017820	-0.755851	-0.351489
H64	H	1.017786	-0.668651	-0.265674
H65	H	0.860936	-0.701874	-0.404994
H66	H	0.860880	-0.614672	-0.319167
C67	C	1.062887	-0.310292	-0.706517
C68	C	1.134185	-0.369959	-0.647439
H69	H	1.100139	-0.264143	-0.752184
H70	H	1.020109	-0.356721	-0.746628
H71	H	1.020073	-0.269533	-0.660803
H72	H	1.176995	-0.410724	-0.693154
H73	H	1.176981	-0.323524	-0.607326
C74	C	1.573255	-0.823595	-0.710531
C75	C	1.573520	-0.934767	-0.711563
H76	H	1.591386	-0.797732	-0.778107
H77	H	1.505396	-0.798827	-0.692130
H78	H	1.622818	-0.798830	-0.660667
H79	H	1.523951	-0.959532	-0.761423
H80	H	1.641388	-0.959545	-0.729978
H81	H	1.118413	-0.636029	-0.384022
C82	C	1.769205	-0.970504	-0.383313
C83	C	1.668897	-0.934844	-0.356077
H84	H	1.818721	-0.944611	-0.333951
H85	H	1.770224	-1.045912	-0.383220
H86	H	1.786704	-0.945156	-0.451236
H87	H	1.651395	-0.960199	-0.288157
H88	H	1.667875	-0.859420	-0.356159
H89	H	1.388913	-1.078336	-0.635761
C90	C	1.286628	-0.970648	-0.350498
C91	C	1.313271	-0.934883	-0.450962
H92	H	1.219107	-0.944748	-0.332302
H93	H	1.286016	-1.046057	-0.349675
H94	H	1.336685	-0.945377	-0.301381
H95	H	1.263217	-0.960161	-0.500081
H96	H	1.313874	-0.859459	-0.451793
H97	H	1.396619	-0.635932	-1.106181
H98	H	1.471251	-1.078805	-0.329260
H99	H	1.640468	-0.389047	-0.907188
