data_functionalizedCrystal
_audit_creation_method	'MofGen! by Chris Wilmer'
_symmetry_space_group_name_H-M	'P1'
_symmetry_Int_Tables_number	1
_symmetry_cell_setting	triclinic
loop_
_symmetry_equiv_pos_as_xyz
  x,y,z
_cell_length_a	12.759401
_cell_length_b	13.897447
_cell_length_c	12.759393
_cell_angle_alpha	90.032074
_cell_angle_beta	90.018496
_cell_angle_gamma	90.019691
loop_
_atom_site_label
_atom_site_type_symbol
_atom_site_fract_x
_atom_site_fract_y
_atom_site_fract_z
Zn1	Zn	1.606220	-0.383954	0.593978
Zn2	Zn	1.606100	-0.545283	0.418296
Zn3	Zn	1.430522	-0.384004	0.418317
Zn4	Zn	1.430496	-0.545209	0.593938
O5	O	1.518334	-0.464613	0.506132
O6	O	1.753225	-0.405365	0.570681
O7	O	1.582769	-0.523942	0.271278
O8	O	1.453890	-0.249016	0.441644
O9	O	1.753137	-0.523893	0.441609
O10	O	1.582975	-0.248979	0.570701
O11	O	1.453773	-0.405451	0.271293
O12	O	1.283498	-0.405379	0.441605
O13	O	1.453846	-0.523766	0.740964
O14	O	1.283478	-0.523815	0.570633
O15	O	1.582949	-0.405293	0.740993
O16	O	1.582744	-0.680255	0.441570
O17	O	1.453729	-0.680201	0.570613
C18	C	1.245367	-0.464595	0.506118
C19	C	1.128590	-0.464611	0.506137
C20	C	1.073746	-0.526379	0.573210
C21	C	0.964022	-0.526391	0.573222
C22	C	0.963997	-0.402864	0.439077
C23	C	1.073719	-0.402847	0.439072
C24	C	1.128618	-0.588142	0.640275
C25	C	1.073773	-0.649917	0.707354
C26	C	0.964049	-0.649929	0.707365
C27	C	0.909170	-0.588167	0.640298
C28	C	1.518249	-0.715227	0.506108
C29	C	1.518309	-0.822441	0.506132
C30	C	1.518359	-0.909511	0.506156
C31	C	1.518433	-1.018743	0.506183
C32	C	1.792368	-0.464631	0.506147
C33	C	1.909144	-0.464639	0.506153
C34	C	1.518408	-0.464515	0.780166
C35	C	1.518439	-0.464474	0.896942
C36	C	1.518449	-0.213020	0.506180
C37	C	1.518498	-0.105806	0.506200
C38	C	1.518322	-0.464640	0.233165
C39	C	1.518494	-0.464410	0.116389
C40	C	1.585673	-0.402779	0.951821
C41	C	1.585698	-0.402744	1.061546
C42	C	1.451253	-0.526107	1.061502
C43	C	1.451223	-0.526137	0.951780
C44	C	1.652889	-0.341116	0.896984
C45	C	1.720129	-0.279417	0.951863
C46	C	1.720154	-0.279382	1.061587
C47	C	1.652939	-0.341046	1.116432
H48	H	0.819825	-0.588173	0.640322
C49	C	1.107532	-0.813304	0.758224
C50	C	1.134089	-0.717800	0.781077
H51	H	1.144762	-0.855210	0.803746
H52	H	1.125488	-0.827336	0.687615
H53	H	1.034333	-0.822137	0.767831
H54	H	1.207286	-0.708965	0.771463
H55	H	1.116139	-0.703762	0.851703
H56	H	1.652953	-0.341002	1.205777
C57	C	0.840719	-0.663503	0.848681
C58	C	0.903763	-0.717824	0.781100
H59	H	0.803509	-0.705424	0.894205
H60	H	0.792337	-0.626736	0.808743
H61	H	0.883561	-0.621519	0.888942
H62	H	0.860920	-0.759803	0.740834
H63	H	0.952150	-0.754607	0.821043
C64	C	1.285811	-0.655379	0.713296
C65	C	1.249227	-0.588128	0.640267
H66	H	1.360270	-0.655365	0.713291
H67	H	1.260971	-0.717598	0.695002
H68	H	1.261016	-0.638773	0.781126
H69	H	1.274016	-0.604738	0.572436
H70	H	1.274078	-0.525895	0.658555
C71	C	0.795786	-0.348058	0.379508
C72	C	0.903675	-0.334993	0.365345
H73	H	0.758550	-0.306164	0.333979
H74	H	0.777836	-0.334011	0.450115
H75	H	0.777804	-0.412861	0.364017
H76	H	0.921659	-0.270192	0.380844
H77	H	0.921633	-0.349033	0.294722
H78	H	1.118374	-0.352543	0.384462
H79	H	1.652879	-0.341139	0.807641
C80	C	1.779788	-0.224691	0.783685
C81	C	1.794003	-0.211633	0.891582
H82	H	1.825400	-0.182845	0.746474
H83	H	1.709208	-0.210574	0.765707
H84	H	1.795133	-0.289510	0.765699
H85	H	1.778650	-0.146815	0.909570
H86	H	1.864600	-0.225743	0.909567
C87	C	1.853049	-0.157452	1.050604
C88	C	1.794060	-0.211564	1.121912
H89	H	1.898683	-0.115590	1.087847
H90	H	1.807283	-0.120563	1.007818
H91	H	1.893199	-0.199509	1.007798
H92	H	1.753904	-0.169507	1.164713
H93	H	1.839831	-0.248455	1.164716
C94	C	1.391616	-0.580847	1.229682
C95	C	1.377386	-0.593896	1.121786
H96	H	1.346019	-0.622705	1.266895
H97	H	1.376269	-0.516040	1.247678
H98	H	1.462211	-0.594962	1.247647
H99	H	1.306793	-0.579774	1.103819
H100	H	1.392726	-0.658718	1.103783
H101	H	1.396460	-0.576359	0.907096
