data_functionalizedCrystal
_audit_creation_method	'MofGen! by Chris Wilmer'
_symmetry_space_group_name_H-M	'P1'
_symmetry_Int_Tables_number	1
_symmetry_cell_setting	triclinic
loop_
_symmetry_equiv_pos_as_xyz
  x,y,z
_cell_length_a	29.917948
_cell_length_b	29.917021
_cell_length_c	29.913391
_cell_angle_alpha	60.005297
_cell_angle_beta	60.010472
_cell_angle_gamma	59.993667
loop_
_atom_site_label
_atom_site_type_symbol
_atom_site_fract_x
_atom_site_fract_y
_atom_site_fract_z
O1	O	0.061938	-0.653075	0.546110
O2	O	0.561938	-0.153075	1.046110
O3	O	0.023328	-0.508466	0.440017
O4	O	0.523328	-0.008466	0.940017
O5	O	0.114898	-0.599963	0.439941
O6	O	0.614898	-0.099963	0.939941
O7	O	-0.029633	-0.561578	0.546186
O8	O	0.470367	-0.061578	1.046186
O9	O	0.145278	-0.569587	0.470242
O10	O	0.645278	-0.069587	0.970242
O11	O	0.053708	-0.478090	0.470318
O12	O	0.553708	0.021910	0.970318
O13	O	0.092318	-0.622699	0.576411
O14	O	0.592318	-0.122699	1.076411
Zn15	Zn	0.077836	-0.545572	0.528175
Zn16	Zn	0.577836	-0.045572	1.028175
Zn17	Zn	0.037809	-0.585593	0.488253
Zn18	Zn	0.537809	-0.085593	0.988253
O19	O	0.000747	-0.531202	0.576487
O20	O	0.500747	-0.031202	1.076487
N21	N	0.105154	-0.518262	0.555424
N22	N	0.605154	-0.018262	1.055424
N23	N	0.010496	-0.612908	0.461004
N24	N	0.510496	-0.112908	0.961004
C25	C	0.164136	-0.309209	0.614352
C26	C	0.664136	0.190791	1.114352
C27	C	0.164251	-0.459335	0.764424
C28	C	0.664251	0.040665	1.264424
C29	C	0.164150	-0.459313	0.614341
C30	C	0.664150	0.040687	1.114341
C31	C	0.314282	-0.459305	0.614278
C32	C	0.814282	0.040695	1.114278
C33	C	0.180666	-0.358742	0.630849
C34	C	0.680666	0.141258	1.130849
C35	C	0.180732	-0.442815	0.714891
C36	C	0.680732	0.057185	1.214891
C37	C	0.264747	-0.442797	0.630809
C38	C	0.764747	0.057203	1.130809
C39	C	0.180676	-0.442802	0.630843
C40	C	0.680676	0.057198	1.130843
C41	C	0.143097	-0.246161	0.593354
C42	C	0.643097	0.253839	1.093354
C43	C	0.143120	-0.480326	0.593337
C44	C	0.643120	0.019674	1.093337
C45	C	0.201706	-0.421790	0.651848
C46	C	0.701706	0.078210	1.151848
C47	C	0.405963	-0.443499	0.565998
C48	C	0.905963	0.056501	1.065998
C49	C	0.463273	-0.462598	0.546874
C50	C	0.963273	0.037402	1.046874
C51	C	0.463297	-0.555329	0.582235
C52	C	0.963297	-0.055329	1.082235
C53	C	0.405988	-0.536228	0.601360
C54	C	0.905988	-0.036228	1.101360
C55	C	0.156905	-0.217495	0.537012
C56	C	0.656905	0.282505	1.037012
C57	C	0.137776	-0.160180	0.517926
C58	C	0.637776	0.339820	1.017926
C59	C	0.091035	-0.160201	0.611524
C60	C	0.591035	0.339799	1.111524
C61	C	0.110164	-0.217516	0.630611
C62	C	0.610164	0.282484	1.130611
C63	C	0.086772	-0.466488	0.607209
C64	C	0.586772	0.033512	1.107209
C65	C	0.067659	-0.485590	0.588108
C66	C	0.567659	0.014410	1.088108
C67	C	0.161236	-0.532368	0.541277
C68	C	0.661236	-0.032368	1.041277
C69	C	0.180352	-0.513266	0.560371
C70	C	0.680352	-0.013266	1.060371
C71	C	0.086942	-0.466529	0.856152
C72	C	0.586942	0.033471	1.356152
C73	C	0.067877	-0.485647	0.913465
C74	C	0.567877	0.014353	1.413465
C75	C	0.161489	-0.532436	0.913415
C76	C	0.661489	-0.032436	1.413415
C77	C	0.180552	-0.513318	0.856101
C78	C	0.680552	-0.013318	1.356101
C79	C	0.143277	-0.480363	0.827471
C80	C	0.643277	0.019637	1.327471
C81	C	0.377323	-0.480313	0.593239
C82	C	0.877323	0.019687	1.093239
C83	C	-0.111377	-0.650681	0.422736
C84	C	0.388623	-0.150681	0.922736
C85	C	-0.027364	-0.650787	0.422929
C86	C	0.472636	-0.150787	0.922929
C87	C	-0.048335	-0.671770	0.401835
C88	C	0.451665	-0.171770	0.901835
C89	C	-0.064214	-0.763416	0.450041
C90	C	0.435786	-0.263416	0.950041
C91	C	-0.045160	-0.820731	0.469172
C92	C	0.454840	-0.320731	0.969172
C93	C	0.047573	-0.820841	0.433980
C94	C	0.547573	-0.320841	0.933980
C95	C	0.028517	-0.763527	0.414847
C96	C	0.528517	-0.263527	0.914847
C97	C	-0.140115	-0.664483	0.479060
C98	C	0.359885	-0.164483	0.979060
C99	C	-0.197425	-0.645309	0.498058
C100	C	0.302575	-0.145309	0.998058
C101	C	-0.197256	-0.598535	0.404405
C102	C	0.302744	-0.098535	0.904405
C103	C	-0.139946	-0.617709	0.385407
C104	C	0.360054	-0.117709	0.885407
C105	C	-0.041168	-0.594444	0.409067
C106	C	0.458832	-0.094444	0.909067
C107	C	-0.022104	-0.575374	0.428250
C108	C	0.477896	-0.075374	0.928250
C109	C	0.024568	-0.668986	0.475143
C110	C	0.524568	-0.168986	0.975143
C111	C	0.005504	-0.688059	0.455967
C112	C	0.505504	-0.188059	0.955967
C113	C	-0.041000	-0.594453	0.310105
C114	C	0.459000	-0.094453	0.810105
C115	C	-0.021803	-0.575386	0.252792
C116	C	0.478197	-0.075386	0.752792
C117	C	0.024951	-0.669004	0.252854
C118	C	0.524951	-0.169004	0.752854
C119	C	0.005755	-0.688070	0.310168
C120	C	0.505755	-0.188070	0.810168
C121	C	-0.027222	-0.650793	0.338792
C122	C	0.472778	-0.150793	0.838792
C123	C	-0.027377	-0.734817	0.422881
C124	C	0.472623	-0.234817	0.922881
N125	N	0.491125	-0.518235	0.555255
N126	N	0.991125	-0.018235	1.055255
O127	O	0.678406	-0.527360	0.420422
O128	O	1.178406	-0.027360	0.920422
O129	O	0.678588	-0.633782	0.564887
O130	O	1.178588	-0.133782	1.064887
O131	O	0.678516	-0.633539	0.473265
O132	O	1.178516	-0.133539	0.973265
O133	O	0.678478	-0.527602	0.512044
O134	O	1.178478	-0.027602	1.012044
O135	O	0.587469	-0.603251	0.503685
O136	O	1.087469	-0.103251	1.003685
O137	O	0.587541	-0.603493	0.595307
O138	O	1.087541	-0.103493	1.095307
O139	O	0.587359	-0.497071	0.450842
O140	O	1.087359	0.002929	0.950842
Zn141	Zn	0.572994	-0.545473	0.527905
Zn142	Zn	1.072994	-0.045473	1.027905
Zn143	Zn	0.692953	-0.585380	0.487825
Zn144	Zn	1.192953	-0.085380	0.987825
O145	O	0.587431	-0.497313	0.542465
O146	O	1.087431	0.002687	1.042465
N147	N	0.774821	-0.612618	0.460470
N148	N	1.274821	-0.112618	0.960470
N149	N	0.105125	-0.132348	0.555445
N150	N	0.605125	0.367652	1.055445
O151	O	-0.029633	0.055031	0.546198
O152	O	0.470367	0.555031	1.046198
O153	O	0.114837	0.055047	0.439777
O154	O	0.614837	0.555047	0.939777
O155	O	0.023189	0.055024	0.440050
O156	O	0.523189	0.555024	0.940050
O157	O	0.062016	0.055054	0.545925
O158	O	0.562016	0.555054	1.045925
O159	O	0.053572	-0.036031	0.470398
O160	O	0.553572	0.463969	0.970398
O161	O	0.145220	-0.036008	0.470125
O162	O	0.645220	0.463992	0.970125
O163	O	0.000750	-0.036024	0.576546
O164	O	0.500750	0.463976	1.076546
Zn165	Zn	0.077809	-0.050473	0.528154
Zn166	Zn	0.577809	0.449527	1.028154
Zn167	Zn	0.037778	0.069496	0.488169
Zn168	Zn	0.537778	0.569496	0.988169
O169	O	0.092399	-0.036001	0.576273
O170	O	0.592399	0.463999	1.076273
N171	N	0.010456	0.151371	0.460879
N172	N	0.510456	0.651371	0.960879
N173	N	0.105414	-0.518315	0.941279
N174	N	0.605414	-0.018315	1.441279
O175	O	0.096182	-0.653057	1.128644
O176	O	0.596182	-0.153057	1.628644
O177	O	-0.010215	-0.508539	1.128670
O178	O	0.489785	-0.008539	1.628670
O179	O	-0.009968	-0.600172	1.128636
O180	O	0.490032	-0.100172	1.628636
O181	O	0.095935	-0.561424	1.128678
O182	O	0.595935	-0.061424	1.628678
O183	O	0.020367	-0.569808	1.037586
O184	O	0.520367	-0.069808	1.537586
O185	O	0.020121	-0.478175	1.037620
O186	O	0.520121	0.021825	1.537620
O187	O	0.126517	-0.622693	1.037594
O188	O	0.626517	-0.122693	1.537594
Zn189	Zn	0.078135	-0.545613	1.023151
Zn190	Zn	0.578135	-0.045613	1.523151
Zn191	Zn	0.038167	-0.585619	1.143113
Zn192	Zn	0.538167	-0.085619	1.643113
O193	O	0.126270	-0.531061	1.037628
O194	O	0.626270	-0.031061	1.537628
N195	N	0.010887	-0.612923	1.224985
N196	N	0.510887	-0.112923	1.724985
C197	C	0.034899	-0.475056	0.440551
C198	C	0.534899	0.024944	0.940551
C199	C	0.148298	-0.588365	0.440456
C200	C	0.648298	-0.088365	0.940456
C201	C	0.080746	-0.656109	0.575876
C202	C	0.580746	-0.156109	1.075876
C203	C	-0.032653	-0.542801	0.575971
C204	C	0.467347	-0.042801	1.075971
C205	C	0.633086	-0.633292	0.598298
C206	C	1.133086	-0.133292	1.098298
C207	C	0.632998	-0.632993	0.484834
C208	C	1.132998	-0.132993	0.984834
C209	C	0.632857	-0.497559	0.417433
C210	C	1.132857	0.002441	0.917433
C211	C	0.632949	-0.497860	0.530895
C212	C	1.132949	0.002140	1.030895
C213	C	0.148191	0.009634	0.440259
C214	C	0.648191	0.509634	0.940259
C215	C	0.034733	0.009493	0.440634
C216	C	0.534733	0.509493	0.940634
C217	C	-0.032641	0.009502	0.576027
C218	C	0.467359	0.509502	1.076027
C219	C	0.080854	0.009529	0.575690
C220	C	0.580854	0.509529	1.075690
C221	C	-0.009699	-0.475150	1.083148
C222	C	0.490301	0.024850	1.583148
C223	C	-0.009388	-0.588620	1.083088
C224	C	0.490612	-0.088620	1.583088
C225	C	0.126001	-0.656082	1.083116
C226	C	0.626001	-0.156082	1.583116
C227	C	0.125697	-0.542605	1.083155
C228	C	0.625697	-0.042605	1.583155
H229	H	0.022003	-0.474373	0.936811
H230	H	0.522003	0.025627	1.436811
H231	H	0.159407	-0.697586	1.083101
H232	H	0.659407	-0.197586	1.583101
H233	H	0.088995	-0.697649	0.609197
H234	H	0.588995	-0.197649	1.109197
H235	H	0.633014	-0.666272	0.476534
H236	H	1.133014	-0.166272	0.976534
O237	O	-0.049500	-0.425613	1.083180
O238	O	0.450500	0.074387	1.583180
C239	C	-0.029790	-0.391543	1.083183
C240	C	0.470210	0.108457	1.583183
H241	H	0.005356	-0.417872	1.100423
H242	H	0.505356	0.082128	1.600423
H243	H	-0.014595	-0.363893	1.039506
H244	H	0.485405	0.136107	1.539506
C245	C	-0.119428	-0.323772	1.097723
C246	C	0.380572	0.176228	1.597723
C247	C	-0.076265	-0.356110	1.118902
C248	C	0.423735	0.143890	1.618902
H249	H	-0.148096	-0.301914	1.119754
H250	H	0.351904	0.198086	1.619754
H251	H	-0.132707	-0.346725	1.097719
H252	H	0.367293	0.153275	1.597719
H253	H	-0.106759	-0.300736	1.061326
H254	H	0.393241	0.199264	1.561326
H255	H	-0.088933	-0.379151	1.155296
H256	H	0.411067	0.120849	1.655296
H257	H	-0.062989	-0.333161	1.118913
H258	H	0.437011	0.166839	1.618913
H259	H	-0.074166	-0.534620	0.609333
H260	H	0.425834	-0.034620	1.109333
H261	H	-0.042644	-0.596897	1.083039
H262	H	0.457356	-0.096897	1.583039
O263	O	0.633008	-0.458224	0.540832
O264	O	1.133008	0.041776	1.040832
C265	C	0.680195	-0.477054	0.553666
C266	C	1.180195	0.022946	1.053666
H267	H	0.695958	-0.523723	0.569367
H268	H	1.195958	-0.023723	1.069367
H269	H	0.713176	-0.461425	0.515399
H270	H	1.213176	0.038575	1.015399
C271	C	0.646537	-0.398372	0.578883
C272	C	1.146537	0.101628	1.078883
C273	C	0.665894	-0.455691	0.598172
C274	C	1.165894	0.044309	1.098172
H275	H	0.637716	-0.385193	0.606334
H276	H	1.137716	0.114807	1.106334
H277	H	0.614746	-0.385684	0.570234
H278	H	1.114746	0.114316	1.070234
H279	H	0.674024	-0.385356	0.546994
H280	H	1.174024	0.114644	1.046994
H281	H	0.638404	-0.468707	0.630056
H282	H	1.138404	0.031293	1.130056
H283	H	0.697679	-0.468380	0.606827
H284	H	1.197679	0.031620	1.106827
O285	O	0.165339	-0.532621	1.083138
O286	O	0.665339	-0.032621	1.583138
C287	C	0.145394	-0.478807	1.083165
C288	C	0.645394	0.021193	1.583165
H289	H	0.110246	-0.452899	1.065929
H290	H	0.610246	0.047101	1.565929
H291	H	0.130132	-0.479616	1.126851
H292	H	0.630132	0.020384	1.626851
C293	C	0.234871	-0.485750	1.068635
C294	C	0.734871	0.014250	1.568635
C295	C	0.191705	-0.453928	1.047461
C296	C	0.691705	0.046072	1.547461
H297	H	0.263438	-0.470404	1.046613
H298	H	0.763438	0.029596	1.546613
H299	H	0.248308	-0.522006	1.068619
H300	H	0.748308	-0.022006	1.568619
H301	H	0.222145	-0.486421	1.105039
H302	H	0.722145	0.013579	1.605039
H303	H	0.204429	-0.453263	1.011060
H304	H	0.704429	0.046737	1.511060
H305	H	0.178270	-0.417672	1.047470
H306	H	0.678270	0.082328	1.547470
H307	H	0.189596	0.009891	0.406765
H308	H	0.689596	0.509891	0.906765
H309	H	0.633132	-0.666701	0.639790
H310	H	1.133132	-0.166701	1.139790
H311	H	0.026418	0.009490	0.407371
H312	H	0.526418	0.509490	0.907371
H313	H	0.632798	-0.464146	0.375944
H314	H	1.132798	0.035854	0.875944
O315	O	0.019170	-0.742821	0.337949
O316	O	0.519170	-0.242821	0.837949
C317	C	0.052399	-0.771630	0.300392
C318	C	0.552399	-0.271630	0.800392
H319	H	0.045163	-0.744297	0.259497
H320	H	0.545163	-0.244297	0.759497
H321	H	0.097275	-0.784042	0.294389
H322	H	0.597275	-0.284042	0.794389
C323	C	0.046739	-0.856828	0.372948
C324	C	0.546739	-0.356828	0.872948
C325	C	0.037848	-0.823259	0.322721
C326	C	0.537848	-0.323259	0.822721
H327	H	0.037765	-0.888677	0.386722
H328	H	0.537765	-0.388677	0.886722
H329	H	0.024354	-0.837419	0.398251
H330	H	0.524354	-0.337419	0.898251
H331	H	0.084135	-0.867166	0.367939
H332	H	0.584135	-0.367166	0.867939
H333	H	0.000451	-0.812916	0.327732
H334	H	0.500451	-0.312916	0.827732
H335	H	0.060227	-0.842667	0.297419
H336	H	0.560227	-0.342667	0.797419
H337	H	0.382671	-0.566208	0.623544
H338	H	0.882671	-0.066208	1.123544
O339	O	-0.082179	0.009531	0.615816
O340	O	0.417821	0.509531	1.115816
C341	C	-0.116260	0.009509	0.596128
C342	C	0.383740	0.509509	1.096128
H343	H	-0.101449	0.026736	0.549494
H344	H	0.398551	0.526736	1.049494
H345	H	-0.114781	-0.034176	0.610058
H346	H	0.385219	0.465824	1.110058
C347	C	-0.193687	0.024068	0.676074
C348	C	0.306313	0.524068	1.176074
C349	C	-0.175498	0.045230	0.618798
C350	C	0.324502	0.545230	1.118798
H351	H	-0.230229	0.046100	0.690060
H352	H	0.269771	0.546100	1.190060
H353	H	-0.170726	0.024081	0.689340
H354	H	0.329274	0.524081	1.189340
H355	H	-0.192450	-0.012335	0.687675
H356	H	0.307550	0.487665	1.187675
H357	H	-0.176730	0.081630	0.607198
H358	H	0.323270	0.581630	1.107198
H359	H	-0.198461	0.045225	0.605531
H360	H	0.301539	0.545225	1.105531
O361	O	0.090826	0.009433	0.615393
O362	O	0.590826	0.509433	1.115393
C363	C	0.135180	-0.037715	0.627944
C364	C	0.635180	0.462285	1.127944
H365	H	0.139488	-0.070675	0.615918
H366	H	0.639488	0.429325	1.115918
H367	H	0.174426	-0.027048	0.604317
H368	H	0.674426	0.472952	1.104317
C369	C	0.119507	-0.018622	0.704587
C370	C	0.619507	0.481378	1.204587
C371	C	0.124795	-0.059106	0.689821
C372	C	0.624795	0.440894	1.189821
H373	H	0.113103	-0.031816	0.742755
H374	H	0.613103	0.468184	1.242755
H375	H	0.089626	0.013143	0.696130
H376	H	0.589626	0.513143	1.196130
H377	H	0.152214	-0.009736	0.684893
H378	H	0.652214	0.490264	1.184893
H379	H	0.092086	-0.067986	0.709509
H380	H	0.592086	0.432014	1.209509
H381	H	0.154671	-0.090874	0.698282
H382	H	0.654671	0.409126	1.198282
H383	H	0.183721	-0.240813	0.506671
H384	H	0.683721	0.259187	1.006671
H385	H	0.191844	-0.559260	0.936723
H386	H	0.691844	-0.059260	1.436723
O387	O	0.050708	-0.434595	0.828368
O388	O	0.550708	0.065405	1.328368
C389	C	0.017568	-0.463531	0.842397
C390	C	0.517568	0.036469	1.342397
H391	H	0.039715	-0.509386	0.858134
H392	H	0.539715	-0.009386	1.358134
H393	H	-0.022681	-0.451337	0.875682
H394	H	0.477319	0.048663	1.375682
C395	C	-0.021383	-0.393351	0.772173
C396	C	0.478617	0.106649	1.272173
C397	C	0.005821	-0.449671	0.791497
C398	C	0.505821	0.050329	1.291497
H399	H	-0.028632	-0.384799	0.740777
H400	H	0.471368	0.115201	1.240777
H401	H	0.000942	-0.373854	0.762723
H402	H	0.500942	0.126146	1.262723
H403	H	-0.054921	-0.383196	0.799916
H404	H	0.445079	0.116804	1.299916
H405	H	0.039360	-0.459823	0.763757
H406	H	0.539360	0.040177	1.263757
H407	H	-0.016500	-0.469168	0.800941
H408	H	0.483500	0.030832	1.300941
O409	O	0.235293	-0.526854	0.828302
O410	O	0.735293	-0.026854	1.328302
C411	C	0.259111	-0.584259	0.842279
C412	C	0.759111	-0.084259	1.342279
H413	H	0.231961	-0.604325	0.883897
H414	H	0.731961	-0.104325	1.383897
H415	H	0.263358	-0.597220	0.810024
H416	H	0.763358	-0.097220	1.310024
C417	C	0.349414	-0.577708	0.793786
C418	C	0.849414	-0.077708	1.293786
C419	C	0.316070	-0.602353	0.844904
C420	C	0.816070	-0.102353	1.344904
H421	H	0.384549	-0.588870	0.795403
H422	H	0.884549	-0.088870	1.295403
H423	H	0.333367	-0.539033	0.784368
H424	H	0.833367	-0.039033	1.284368
H425	H	0.352947	-0.588511	0.766912
H426	H	0.852947	-0.088511	1.266912
H427	H	0.312532	-0.591545	0.871775
H428	H	0.812532	-0.091545	1.371775
H429	H	0.332117	-0.641027	0.854327
H430	H	0.832117	-0.141027	1.354327
O431	O	0.050530	-0.434472	0.639201
O432	O	0.550530	0.065528	1.139201
C433	C	-0.003302	-0.426364	0.647353
C434	C	0.496698	0.073636	1.147353
H435	H	-0.003221	-0.432761	0.612803
H436	H	0.496779	0.067239	1.112803
H437	H	-0.019698	-0.456874	0.688181
H438	H	0.480302	0.043126	1.188181
C439	C	-0.040166	-0.359791	0.690212
C440	C	0.459834	0.140209	1.190212
C441	C	-0.040067	-0.367644	0.647775
C442	C	0.459933	0.132356	1.147775
H443	H	-0.062846	-0.323571	0.690474
H444	H	0.437154	0.176429	1.190474
H445	H	-0.003899	-0.365255	0.684722
H446	H	0.496101	0.134745	1.184722
H447	H	-0.053828	-0.385220	0.724230
H448	H	0.446172	0.114780	1.224230
H449	H	-0.026399	-0.342220	0.613757
H450	H	0.473601	0.157780	1.113757
H451	H	-0.076333	-0.362174	0.653259
H452	H	0.423667	0.137826	1.153259
H453	H	0.191560	-0.559196	0.514439
H454	H	0.691560	-0.059196	1.014439
O455	O	0.235106	-0.526769	0.546859
O456	O	0.735106	-0.026769	1.046859
C457	C	0.263869	-0.559923	0.513652
C458	C	0.763869	-0.059923	1.013652
H459	H	0.236542	-0.580770	0.520981
H460	H	0.736542	-0.080770	1.020981
H461	H	0.276182	-0.533467	0.468763
H462	H	0.776182	-0.033467	0.968763
C463	C	0.349131	-0.578111	0.519114
C464	C	0.849131	-0.078111	1.019114
C465	C	0.315569	-0.603719	0.528118
C466	C	0.815569	-0.103719	1.028118
H467	H	0.381023	-0.605125	0.528035
H468	H	0.881023	-0.105125	1.028035
H469	H	0.329754	-0.555773	0.541484
H470	H	0.829754	-0.055773	1.041484
H471	H	0.359386	-0.556065	0.481706
H472	H	0.859386	-0.056065	0.981706
H473	H	0.305308	-0.625759	0.565526
H474	H	0.805308	-0.125759	1.065526
H475	H	0.334945	-0.626062	0.505754
H476	H	0.834945	-0.126062	1.005754
O477	O	0.012927	-0.472086	0.601487
O478	O	0.512927	0.027914	1.101487
C479	C	-0.000961	-0.443233	0.553349
C480	C	0.499039	0.056767	1.053349
H481	H	0.031328	-0.423829	0.518911
H482	H	0.531328	0.076171	1.018911
H483	H	-0.002871	-0.472698	0.541283
H484	H	0.497129	0.027302	1.041283
C485	C	-0.096828	-0.421957	0.605880
C486	C	0.403172	0.078043	1.105880
C487	C	-0.057172	-0.398120	0.563584
C488	C	0.442828	0.101880	1.063584
H489	H	-0.131502	-0.394130	0.612193
H490	H	0.368498	0.105870	1.112193
H491	H	-0.087472	-0.441397	0.638312
H492	H	0.412528	0.058603	1.138312
H493	H	-0.098413	-0.446510	0.595820
H494	H	0.401587	0.053490	1.095820
H495	H	-0.055583	-0.373572	0.573647
H496	H	0.444417	0.126428	1.073647
H497	H	-0.066529	-0.378674	0.531154
H498	H	0.433471	0.121326	1.031154
H499	H	0.486634	-0.600858	0.588843
H500	H	0.986634	-0.100858	1.088843
O501	O	0.197777	-0.598127	0.400601
O502	O	0.697777	-0.098127	0.900601
C503	C	0.190576	-0.591980	0.354475
C504	C	0.690576	-0.091980	0.854475
H505	H	0.150472	-0.597998	0.367660
H506	H	0.650472	-0.097998	0.867660
H507	H	0.189363	-0.549184	0.323523
H508	H	0.689363	-0.049184	0.823523
C509	C	0.287781	-0.627557	0.311893
C510	C	0.787781	-0.127557	0.811893
C511	C	0.238526	-0.634952	0.328089
C512	C	0.738526	-0.134952	0.828089
H513	H	0.317359	-0.654062	0.295615
H514	H	0.817359	-0.154062	0.795615
H515	H	0.292633	-0.631697	0.342968
H516	H	0.792633	-0.131697	0.842968
H517	H	0.286762	-0.591892	0.286103
H518	H	0.786762	-0.091892	0.786103
H519	H	0.239542	-0.670614	0.353884
H520	H	0.739542	-0.170614	0.853884
H521	H	0.233675	-0.630819	0.297017
H522	H	0.733675	-0.130819	0.797017
H523	H	0.486593	-0.432619	0.524694
H524	H	0.986593	0.067381	1.024694
H525	H	0.149018	-0.136838	0.472047
H526	H	0.649018	0.363162	0.972047
O527	O	0.378201	-0.389167	0.558087
O528	O	0.878201	0.110833	1.058087
C529	C	0.415773	-0.360770	0.529930
C530	C	0.915773	0.139230	1.029930
H531	H	0.456637	-0.390186	0.536529
H532	H	0.956637	0.109814	1.036529
H533	H	0.421843	-0.342956	0.484335
H534	H	0.921843	0.157044	0.984335
C535	C	0.343224	-0.277951	0.543748
C536	C	0.843224	0.222049	1.043748
C537	C	0.393413	-0.314079	0.551856
C538	C	0.893413	0.185921	1.051856
H539	H	0.329432	-0.249148	0.557271
H540	H	0.829432	0.250852	1.057271
H541	H	0.317911	-0.297081	0.562716
H542	H	0.817911	0.202919	1.062716
H543	H	0.348289	-0.263111	0.505751
H544	H	0.848289	0.236889	1.005751
H545	H	0.388347	-0.328923	0.589853
H546	H	0.888347	0.171077	1.089853
H547	H	0.418726	-0.294950	0.532895
H548	H	0.918726	0.205050	1.032895
H549	H	0.098918	-0.240852	0.676488
H550	H	0.598918	0.259148	1.176488
O551	O	0.059035	-0.132457	0.647789
O552	O	0.559035	0.367543	1.147789
C553	C	0.050969	-0.170051	0.701612
C554	C	0.550969	0.329949	1.201612
H555	H	0.057377	-0.210907	0.701508
H556	H	0.557377	0.289093	1.201508
H557	H	0.081493	-0.176143	0.718010
H558	H	0.581493	0.323857	1.218010
C559	C	-0.015601	-0.097518	0.738525
C560	C	0.484399	0.402482	1.238525
C561	C	-0.007735	-0.147697	0.738397
C562	C	0.492265	0.352303	1.238397
H563	H	-0.051812	-0.083729	0.761216
H564	H	0.448188	0.416271	1.261216
H565	H	-0.010166	-0.072190	0.702263
H566	H	0.489834	0.427810	1.202263
H567	H	0.009839	-0.102602	0.752188
H568	H	0.509839	0.397398	1.252188
H569	H	-0.033171	-0.142611	0.724727
H570	H	0.466829	0.357389	1.224727
H571	H	-0.013177	-0.173024	0.774657
H572	H	0.486823	0.326976	1.274657
H573	H	-0.033030	-0.529506	0.229442
H574	H	0.466970	-0.029506	0.729442
H575	H	-0.067855	-0.564093	0.333408
H576	H	0.432145	-0.064093	0.833408
H577	H	0.051792	-0.699362	0.229554
H578	H	0.551792	-0.199362	0.729554
H579	H	-0.067926	-0.564092	0.382165
H580	H	0.432074	-0.064092	0.882165
O581	O	0.064374	-0.735829	0.388496
O582	O	0.564374	-0.235829	0.888496
C583	C	0.117794	-0.773463	0.385501
C584	C	0.617794	-0.273463	0.885501
H585	H	0.115556	-0.814299	0.419355
H586	H	0.615556	-0.314299	0.919355
H587	H	0.139725	-0.779586	0.343973
H588	H	0.639725	-0.279586	0.843973
C589	C	0.152296	-0.700984	0.351017
C590	C	0.652296	-0.200984	0.851017
C591	C	0.149547	-0.751137	0.392599
C592	C	0.649547	-0.251137	0.892599
H593	H	0.171884	-0.687212	0.355393
H594	H	0.671884	-0.187212	0.855393
H595	H	0.116306	-0.675629	0.353033
H596	H	0.616306	-0.175629	0.853033
H597	H	0.170570	-0.706093	0.316415
H598	H	0.670570	-0.206093	0.816415
H599	H	0.131267	-0.746026	0.427200
H600	H	0.631267	-0.246026	0.927200
H601	H	0.185534	-0.776491	0.390590
H602	H	0.685534	-0.276491	0.890590
O603	O	0.025162	-0.425524	0.400744
O604	O	0.525162	0.074476	0.900744
C605	C	0.072193	-0.425400	0.353529
C606	C	0.572193	0.074600	0.853529
H607	H	0.109805	-0.457777	0.365539
H608	H	0.609805	0.042223	0.865539
H609	H	0.067774	-0.434932	0.323781
H610	H	0.567774	0.065068	0.823781
C611	C	0.032534	-0.328883	0.311165
C612	C	0.532534	0.171117	0.811165
C613	C	0.078730	-0.368647	0.325916
C614	C	0.578730	0.131353	0.825916
H615	H	0.036566	-0.293875	0.294130
H616	H	0.536566	0.206125	0.794130
H617	H	0.000847	-0.328967	0.342973
H618	H	0.500847	0.171033	0.842973
H619	H	0.028856	-0.336834	0.286377
H620	H	0.528856	0.163166	0.786377
H621	H	0.082403	-0.360700	0.350708
H622	H	0.582403	0.139300	0.850708
H623	H	0.110417	-0.368561	0.294111
H624	H	0.610417	0.131439	0.794111
O625	O	-0.035431	-0.520637	0.414687
O626	O	0.464569	-0.020637	0.914687
C627	C	-0.015738	-0.496883	0.357285
C628	C	0.484262	0.003117	0.857285
H629	H	0.019607	-0.529559	0.338867
H630	H	0.519607	-0.029559	0.838867
H631	H	-0.050068	-0.478741	0.340219
H632	H	0.449932	0.021259	0.840219
C633	C	-0.039008	-0.411166	0.365139
C634	C	0.460992	0.088834	0.865139
C635	C	0.004407	-0.451299	0.342518
C636	C	0.504407	0.048701	0.842518
H637	H	-0.026584	-0.383046	0.356029
H638	H	0.473416	0.116954	0.856029
H639	H	-0.052278	-0.427169	0.403812
H640	H	0.447722	0.072831	0.903812
H641	H	-0.067612	-0.396055	0.350914
H642	H	0.432388	0.103945	0.850914
H643	H	0.033007	-0.466414	0.356748
H644	H	0.533007	0.033586	0.856748
H645	H	0.017682	-0.435297	0.303847
H646	H	0.517682	0.064703	0.803847
O647	O	0.056472	-0.705267	0.507245
O648	O	0.556472	-0.205267	1.007245
C649	C	0.064578	-0.759085	0.515349
C650	C	0.564578	-0.259085	1.015349
H651	H	0.030056	-0.758939	0.508858
H652	H	0.530056	-0.258939	1.008858
H653	H	0.105433	-0.775551	0.484899
H654	H	0.605433	-0.275551	0.984899
C655	C	0.107281	-0.796010	0.582071
C656	C	0.607281	-0.296010	1.082071
C657	C	0.064877	-0.795830	0.574104
C658	C	0.564877	-0.295830	1.074104
H659	H	0.107467	-0.818677	0.618313
H660	H	0.607467	-0.318677	1.118313
H661	H	0.101822	-0.759752	0.576611
H662	H	0.601822	-0.259752	1.076611
H663	H	0.141322	-0.809730	0.556693
H664	H	0.641322	-0.309730	1.056693
H665	H	0.030836	-0.782104	0.599477
H666	H	0.530836	-0.282104	1.099477
H667	H	0.070330	-0.832087	0.579570
H668	H	0.570330	-0.332087	1.079570
H669	H	0.016742	-0.733938	0.467255
H670	H	0.516742	-0.233938	0.967255
H671	H	0.093086	-0.844219	0.427442
H672	H	0.593086	-0.344219	0.927442
H673	H	-0.075156	-0.844016	0.491279
H674	H	0.424844	-0.344016	0.991279
H675	H	-0.109727	-0.740044	0.456586
H676	H	0.390273	-0.240044	0.956586
H677	H	-0.220824	-0.656545	0.543924
H678	H	0.279176	-0.156545	1.043924
O679	O	-0.112421	-0.696565	0.515370
O680	O	0.387579	-0.196565	1.015370
C681	C	-0.126475	-0.744602	0.548474
C682	C	0.373525	-0.244602	1.048474
H683	H	-0.168065	-0.736865	0.548950
H684	H	0.331935	-0.236865	1.048950
H685	H	-0.094215	-0.779103	0.531277
H686	H	0.405785	-0.279103	1.031277
C687	C	-0.078140	-0.770423	0.606639
C688	C	0.421860	-0.270423	1.106639
C689	C	-0.129225	-0.760919	0.607227
C690	C	0.370775	-0.260919	1.107227
H691	H	-0.079834	-0.780491	0.642880
H692	H	0.420166	-0.280491	1.142880
H693	H	-0.068670	-0.738061	0.584335
H694	H	0.431330	-0.238061	1.084335
H695	H	-0.051263	-0.799173	0.592305
H696	H	0.448737	-0.299173	1.092305
H697	H	-0.156100	-0.732165	0.621554
H698	H	0.343900	-0.232165	1.121554
H699	H	-0.138699	-0.793277	0.629535
H700	H	0.361301	-0.293277	1.129535
O701	O	-0.224926	-0.566498	0.368072
O702	O	0.275074	-0.066498	0.868072
C703	C	-0.187272	-0.558449	0.314283
C704	C	0.312728	-0.058449	0.814283
H705	H	-0.146440	-0.564901	0.314469
H706	H	0.353560	-0.064901	0.814469
H707	H	-0.181163	-0.588956	0.297854
H708	H	0.318837	-0.088956	0.797854
C709	C	-0.259703	-0.491809	0.277237
C710	C	0.240297	0.008191	0.777237
C711	C	-0.209553	-0.499728	0.277465
C712	C	0.290447	0.000272	0.777465
H713	H	-0.273448	-0.455587	0.254525
H714	H	0.226552	0.044413	0.754525
H715	H	-0.285072	-0.497232	0.313476
H716	H	0.214928	0.002768	0.813476
H717	H	-0.254605	-0.517235	0.263548
H718	H	0.245395	-0.017235	0.763548
H719	H	-0.214653	-0.474306	0.291161
H720	H	0.285347	0.025694	0.791161
H721	H	-0.184186	-0.494298	0.241228
H722	H	0.315814	0.005702	0.741228
H723	H	-0.116547	-0.606465	0.339541
H724	H	0.383453	-0.106465	0.839541
