data_functionalizedCrystal
_audit_creation_method	'MofGen! by Chris Wilmer'
_symmetry_space_group_name_H-M	'P1'
_symmetry_Int_Tables_number	1
_symmetry_cell_setting	triclinic
loop_
_symmetry_equiv_pos_as_xyz
  x,y,z
_cell_length_a	21.295417
_cell_length_b	21.295420
_cell_length_c	12.594509
_cell_angle_alpha	89.978833
_cell_angle_beta	89.963755
_cell_angle_gamma	90.028757
loop_
_atom_site_label
_atom_site_type_symbol
_atom_site_fract_x
_atom_site_fract_y
_atom_site_fract_z
Zn1	Zn	-0.250620	0.962333	-0.601796
Zn2	Zn	-0.355898	0.962242	-0.423793
Zn3	Zn	-0.250644	0.857063	-0.423826
Zn4	Zn	-0.355852	0.857026	-0.601723
O5	O	-0.303253	0.909666	-0.512784
O6	O	-0.264594	1.050411	-0.578200
O7	O	-0.341966	0.948267	-0.274851
O8	O	-0.162551	0.871081	-0.447478
O9	O	-0.341942	1.050344	-0.447422
O10	O	-0.162533	0.948423	-0.578232
O11	O	-0.264636	0.870993	-0.274875
O12	O	-0.264590	0.768969	-0.447407
O13	O	-0.341863	0.871018	-0.750679
O14	O	-0.341886	0.768942	-0.578108
O15	O	-0.264549	0.948387	-0.750732
O16	O	-0.443981	0.948232	-0.447351
O17	O	-0.443947	0.870930	-0.578076
C18	C	-0.303236	0.746115	-0.512754
C19	C	-0.303244	0.676147	-0.512766
C20	C	-0.343575	0.176691	-0.580774
C21	C	-0.343576	0.242433	-0.580763
C22	C	-0.303268	0.275307	-0.512818
C23	C	-0.262968	0.242433	-0.444859
C24	C	-0.262973	0.176692	-0.444865
N25	N	-0.248151	0.378548	-0.504816
N26	N	-0.248148	0.441000	-0.504817
C27	C	-0.303250	0.473382	-0.512795
N28	N	-0.358356	0.440953	-0.520794
N29	N	-0.358359	0.378496	-0.520798
C30	C	-0.303258	0.346592	-0.512804
C31	C	-0.343551	0.577534	-0.580732
C32	C	-0.343552	0.643277	-0.580713
C33	C	-0.262938	0.643276	-0.444815
C34	C	-0.262943	0.577533	-0.444828
C35	C	-0.303248	0.544666	-0.512792
C36	C	-0.466805	0.909584	-0.512725
C37	C	-0.536773	0.909606	-0.512736
C38	C	-0.569637	0.949893	-0.444737
C39	C	-0.635379	0.949922	-0.444761
C40	C	-0.668256	0.909654	-0.512773
C41	C	-0.635384	0.869364	-0.580784
C42	C	-0.569643	0.869340	-0.580766
N43	N	-0.771519	0.854586	-0.520877
N44	N	-0.833971	0.854611	-0.520888
C45	C	-0.866330	0.909724	-0.512834
N46	N	-0.833879	0.964813	-0.504747
N47	N	-0.771422	0.964788	-0.504730
C48	C	-0.739541	0.909675	-0.512801
C49	C	-0.970479	0.950047	-0.444857
C50	C	-1.036223	0.950077	-0.444889
C51	C	-1.036227	0.869513	-0.580906
C52	C	-0.970484	0.869488	-0.580881
C53	C	-0.937614	0.909754	-0.512850
C54	C	-0.139063	0.909766	-0.512867
C55	C	-0.069095	0.909809	-0.512902
C56	C	-0.303198	0.909708	-0.790405
C57	C	-0.303175	0.909726	-0.908711
C58	C	-0.303271	1.073856	-0.512816
C59	C	-0.303278	1.143825	-0.512829
C60	C	-0.345202	0.867659	-0.977935
C61	C	-0.360584	0.925094	-1.048722
C62	C	-0.287754	0.852336	-1.048724
C63	C	-0.318587	0.967191	-0.977939
C64	C	-0.245731	0.894395	-0.977935
C65	C	-0.261091	0.951870	-1.048690
C66	C	-0.303263	0.909660	-0.236243
C67	C	-0.303109	0.909765	-0.117939
H68	H	-0.376370	0.550772	-0.636071
H69	H	-0.376371	0.670036	-0.636039
C70	C	-1.072387	0.825218	-0.655722
N71	N	-1.099626	0.791855	-0.712077
C72	C	-0.671536	0.994240	-0.369949
N73	N	-0.698768	1.027618	-0.313597
H74	H	-0.409135	0.938082	-1.079815
C75	C	-0.934333	0.825182	-0.655707
N76	N	-0.907104	0.791815	-0.712082
C77	C	-0.218637	0.140538	-0.370125
N78	N	-0.185239	0.113305	-0.313833
C79	C	-1.072373	0.994398	-0.370080
N80	N	-1.099601	1.027780	-0.313730
H81	H	-0.230121	0.670041	-0.389489
H82	H	-0.197194	0.881390	-0.946818
C83	C	-0.218604	0.541379	-0.370096
N84	N	-0.185206	0.514148	-0.313805
C85	C	-0.533484	0.994180	-0.369890
N86	N	-0.506252	1.027535	-0.313510
H87	H	-0.376390	0.269198	-0.636096
H88	H	-0.376397	0.149935	-0.636112
C89	C	-0.218625	0.278595	-0.370126
N90	N	-0.185224	0.305833	-0.313835
C91	C	-0.671549	0.825066	-0.655593
N92	N	-0.698789	0.791700	-0.711943
H93	H	-0.943716	0.982836	-0.389466
H94	H	-0.274739	0.803786	-1.079817
H95	H	-0.225522	0.987502	-1.079560
C96	C	-0.533492	0.825027	-0.655587
N97	N	-0.506262	0.791653	-0.711947
H98	H	-0.380798	0.832111	-0.946869
C99	C	-0.336251	1.032799	-0.936114
N100	N	-0.349558	1.082212	-0.904609
