data_functionalizedCrystal
_audit_creation_method	'MofGen! by Chris Wilmer'
_symmetry_space_group_name_H-M	'P1'
_symmetry_Int_Tables_number	1
_symmetry_cell_setting	triclinic
loop_
_symmetry_equiv_pos_as_xyz
  x,y,z
_cell_length_a	19.077236
_cell_length_b	10.686203
_cell_length_c	19.076919
_cell_angle_alpha	88.084089
_cell_angle_beta	90.112677
_cell_angle_gamma	92.251081
loop_
_atom_site_label
_atom_site_type_symbol
_atom_site_fract_x
_atom_site_fract_y
_atom_site_fract_z
Zn1	Zn	1.078584	0.455243	0.421946
Zn2	Zn	1.578584	0.955243	0.921946
Zn3	Zn	1.092183	0.656222	0.296229
Zn4	Zn	1.592183	1.156222	0.796229
Zn5	Zn	0.965771	0.454586	0.299752
Zn6	Zn	1.465771	0.954586	0.799752
Zn7	Zn	0.970749	0.672953	0.408284
Zn8	Zn	1.470749	1.172953	0.908284
O9	O	1.026822	0.559751	0.356553
O10	O	1.526822	1.059751	0.856553
O11	O	1.178422	0.475177	0.409512
O12	O	1.678422	0.975177	0.909512
O13	O	1.079022	0.622197	0.198663
O14	O	1.579022	1.122197	0.698663
O15	O	0.972961	0.279175	0.323154
O16	O	1.472961	0.779175	0.823154
O17	O	1.188413	0.622835	0.317149
O18	O	1.688413	1.122835	0.817149
O19	O	1.055845	0.279658	0.412928
O20	O	1.555845	0.779658	0.912928
O21	O	0.986148	0.474056	0.201252
O22	O	1.486148	0.974056	0.701252
O23	O	0.868397	0.490279	0.309906
O24	O	1.368397	0.990279	0.809906
O25	O	0.981445	0.651351	0.508130
O26	O	1.481445	1.151351	1.008130
O27	O	0.872054	0.650713	0.389644
O28	O	1.372054	1.150713	0.889644
O29	O	1.060672	0.491400	0.518167
O30	O	1.560672	0.991400	1.018167
O31	O	1.083849	0.833940	0.303901
O32	O	1.583849	1.333940	0.803901
O33	O	0.994632	0.846232	0.386228
O34	O	1.494632	1.346232	0.886228
C35	C	0.844807	0.572241	0.348675
C36	C	1.344807	1.072241	0.848675
C37	C	0.766941	0.577616	0.345321
C38	C	1.266941	1.077616	0.845321
C39	C	0.725161	0.503396	0.391897
C40	C	1.225161	1.003396	0.891897
C41	C	0.651997	0.508440	0.388739
C42	C	1.151997	1.008440	0.888739
C43	C	0.620615	0.587711	0.339008
C44	C	1.120615	1.087711	0.839008
C45	C	0.662400	0.661934	0.292427
C46	C	1.162400	1.161934	0.792427
C47	C	0.735562	0.656883	0.295582
C48	C	1.235562	1.156883	0.795582
C49	C	0.402362	0.611042	0.324406
C50	C	0.902362	1.111042	0.824406
C51	C	0.329194	0.616090	0.321255
C52	C	0.829194	1.116090	0.821255
C53	C	0.318796	0.462593	0.417567
C54	C	0.818796	0.962593	0.917567
C55	C	0.391960	0.457555	0.420720
C56	C	0.891960	0.957555	0.920720
C57	C	0.433739	0.531773	0.374137
C58	C	0.933739	1.031773	0.874137
N59	N	0.545830	0.592872	0.335781
N60	N	1.045830	1.092872	0.835781
N61	N	0.508522	0.526605	0.377362
N62	N	1.008522	1.026605	0.877362
C63	C	1.041275	0.885590	0.343216
C64	C	1.541275	1.385590	0.843216
C65	C	1.047521	1.024983	0.337536
C66	C	1.547521	1.524983	0.837536
C67	C	1.209548	0.547213	0.364461
C68	C	1.709548	1.047213	0.864461
C69	C	1.287415	0.541870	0.367831
C70	C	1.787415	1.041870	0.867831
C71	C	1.020097	0.573315	0.539278
C72	C	1.520097	1.073315	1.039278
C73	C	1.017231	0.579095	0.617145
C74	C	1.517231	1.079095	1.117145
C75	C	1.012324	1.232640	0.369965
C76	C	1.512324	1.732640	0.869965
C77	C	1.006128	1.093248	0.375699
C78	C	1.506128	1.593248	0.875699
C79	C	1.033557	0.546147	0.174544
C80	C	1.533557	1.046147	0.674544
C81	C	1.036543	0.540004	0.096698
C82	C	1.536543	1.040004	0.596698
C83	C	1.057132	0.498537	0.658953
C84	C	1.557132	0.998537	1.158953
C85	C	1.054430	0.503964	0.732117
C86	C	1.554430	1.003964	1.232117
C87	C	1.011832	0.589956	0.763471
C88	C	1.511832	1.089956	1.263471
C89	C	0.971926	0.670518	0.721657
C90	C	1.471926	1.170518	1.221657
C91	C	0.974624	0.665084	0.648494
C92	C	1.474624	1.165084	1.148494
C93	C	0.999336	0.615132	0.981722
C94	C	1.499336	1.115132	1.481722
C95	C	0.996642	0.620562	1.054889
C96	C	1.496642	1.120562	1.554889
C97	C	1.079145	0.454006	1.065345
C98	C	1.579145	0.954006	1.565345
C99	C	1.081843	0.448585	0.992181
C100	C	1.581843	0.948585	1.492181
C101	C	1.041935	0.529142	0.950373
C102	C	1.541935	1.029142	1.450373
N103	N	1.009071	0.595508	0.838256
N104	N	1.509071	1.095508	1.338256
N105	N	1.044692	0.523583	0.875590
N106	N	1.544692	1.023583	1.375590
H107	H	0.417506	0.393008	0.461219
H108	H	0.917506	0.893008	0.961219
F109	F	0.295797	0.700490	0.268335
F110	F	0.795797	1.200490	0.768335
F111	F	0.953560	1.030256	0.424086
F112	F	1.453560	1.530256	0.924086
H113	H	0.617983	0.448004	0.426667
H114	H	1.117983	0.948004	0.926667
H115	H	1.116533	0.378564	0.966658
H116	H	1.616533	0.878564	1.466658
H117	H	0.436369	0.671477	0.286475
H118	H	0.936369	1.171477	0.786475
F119	F	1.096924	0.418263	0.776609
F120	F	1.596924	0.918263	1.276609
H121	H	0.284773	0.402167	0.455491
H122	H	0.784773	0.902167	0.955491
F123	F	1.100084	1.087980	0.289140
F124	F	1.600084	1.587980	0.789140
H125	H	1.111635	0.388419	1.099392
H126	H	1.611635	0.888419	1.599392
H127	H	1.091822	0.428516	0.633431
H128	H	1.591822	0.928516	1.133431
F129	F	0.628999	0.746295	0.239496
F130	F	1.128999	1.246295	0.739496
F131	F	0.780027	0.735880	0.246010
F132	F	1.280027	1.235880	0.746010
H133	H	0.961951	0.690591	1.080415
H134	H	1.461951	1.190591	1.580415
H135	H	0.966851	0.680745	0.947690
H136	H	1.466851	1.180745	1.447690
F137	F	0.926586	0.762033	0.755027
F138	F	1.426586	1.262033	1.255027
F139	F	0.932155	0.750823	0.603998
F140	F	1.432155	1.250823	1.103998
H141	H	0.750707	0.438848	0.432395
H142	H	1.250707	0.938848	0.932395
