data_functionalizedCrystal
_audit_creation_method	'MofGen! by Chris Wilmer'
_symmetry_space_group_name_H-M	'P1'
_symmetry_Int_Tables_number	1
_symmetry_cell_setting	triclinic
loop_
_symmetry_equiv_pos_as_xyz
  x,y,z
_cell_length_a	21.395362
_cell_length_b	16.120484
_cell_length_c	21.395355
_cell_angle_alpha	92.880721
_cell_angle_beta	89.956060
_cell_angle_gamma	92.942400
loop_
_atom_site_label
_atom_site_type_symbol
_atom_site_fract_x
_atom_site_fract_y
_atom_site_fract_z
Zn1	Zn	0.945244	-0.331659	-0.367215
Zn2	Zn	1.278578	0.001675	-0.033882
Zn3	Zn	1.611911	0.335008	0.299451
Zn4	Zn	0.939845	-0.471058	-0.267746
Zn5	Zn	1.273178	-0.137724	0.065587
Zn6	Zn	1.606511	0.195609	0.398921
Zn7	Zn	0.840458	-0.331698	-0.262418
Zn8	Zn	1.173791	0.001636	0.070915
Zn9	Zn	1.507125	0.334969	0.404249
Zn10	Zn	0.835126	-0.471075	-0.372451
Zn11	Zn	1.168459	-0.137741	-0.039118
Zn12	Zn	1.501792	0.195592	0.294215
O13	O	0.890168	-0.401372	-0.317458
O14	O	1.223502	-0.068039	0.015876
O15	O	1.556835	0.265295	0.349209
O16	O	1.032207	-0.350127	-0.354059
O17	O	1.365540	-0.016794	-0.020726
O18	O	1.698874	0.316540	0.312608
O19	O	0.926633	-0.452580	-0.179362
O20	O	1.259966	-0.119247	0.153972
O21	O	1.593299	0.214086	0.487305
O22	O	0.858849	-0.215024	-0.271898
O23	O	1.192183	0.118310	0.061435
O24	O	1.525516	0.451643	0.394768
O25	O	1.028240	-0.452543	-0.280979
O26	O	1.361573	-0.119209	0.052354
O27	O	1.694906	0.214124	0.385687
O28	O	0.935836	-0.214995	-0.348892
O29	O	1.269169	0.118338	-0.015559
O30	O	1.602502	0.451671	0.317774
O31	O	0.853614	-0.350193	-0.175447
O32	O	1.186947	-0.016860	0.157886
O33	O	1.520280	0.316474	0.491220
O34	O	0.752072	-0.350210	-0.276976
O35	O	1.085405	-0.016876	0.056358
O36	O	1.418738	0.316457	0.389691
O37	O	0.849761	-0.452572	-0.459434
O38	O	1.183095	-0.119238	-0.126101
O39	O	1.516428	0.214095	0.207232
O40	O	0.748154	-0.452609	-0.357817
O41	O	1.081488	-0.119276	-0.024483
O42	O	1.414821	0.214057	0.308850
O43	O	0.930665	-0.350144	-0.455587
O44	O	1.263999	-0.016810	-0.122254
O45	O	1.597332	0.316523	0.211079
O46	O	0.921462	-0.587728	-0.286057
O47	O	1.254796	-0.254395	0.047277
O48	O	1.588129	0.078938	0.380610
O49	O	0.844526	-0.587741	-0.362983
O50	O	1.177859	-0.254408	-0.029650
O51	O	1.511192	0.078926	0.303683
C52	C	0.727379	-0.401416	-0.317387
C53	C	1.060712	-0.068083	0.015947
C54	C	1.394046	0.265250	0.349280
C55	C	0.657736	-0.401455	-0.317372
C56	C	0.991069	-0.068122	0.015961
C57	C	1.324403	0.265211	0.349295
C58	C	0.622997	-0.454845	-0.359409
C59	C	0.956330	-0.121512	-0.026075
C60	C	1.289663	0.211821	0.307258
C61	C	0.557562	-0.454825	-0.359436
C62	C	0.890896	-0.121492	-0.026102
C63	C	1.224229	0.211842	0.307231
C64	C	0.526869	-0.401423	-0.317415
C65	C	0.860202	-0.068090	0.015918
C66	C	1.193536	0.265244	0.349251
C67	C	0.561617	-0.348022	-0.275375
C68	C	0.894950	-0.014689	0.057958
C69	C	1.228283	0.318644	0.391291
C70	C	0.627050	-0.348039	-0.275354
C71	C	0.960383	-0.014705	0.057980
C72	C	1.293717	0.318628	0.391313
C73	C	0.423400	-0.394707	-0.260754
C74	C	0.756733	-0.061373	0.072579
C75	C	1.090066	0.271960	0.405912
C76	C	0.357967	-0.394696	-0.260775
C77	C	0.691301	-0.061363	0.072558
C78	C	1.024634	0.271970	0.405891
C79	C	0.325050	-0.401369	-0.317482
C80	C	0.658384	-0.068035	0.015851
C81	C	0.991717	0.265298	0.349184
C82	C	0.357574	-0.408069	-0.374171
C83	C	0.690907	-0.074735	-0.040838
C84	C	1.024240	0.258598	0.292496
C85	C	0.423007	-0.408085	-0.374149
C86	C	0.756340	-0.074751	-0.040816
C87	C	1.089674	0.258582	0.292517
C88	C	0.455918	-0.401399	-0.317434
C89	C	0.789251	-0.068066	0.015899
C90	C	1.122584	0.265267	0.349232
C91	C	0.219359	-0.454740	-0.359552
C92	C	0.552693	-0.121406	-0.026219
C93	C	0.886026	0.211927	0.307115
C94	C	0.153924	-0.454713	-0.359580
C95	C	0.487257	-0.121380	-0.026247
C96	C	0.820590	0.211953	0.307087
C97	C	0.157979	-0.347915	-0.275514
C98	C	0.491313	-0.014582	0.057819
C99	C	0.824646	0.318751	0.391152
C100	C	0.223414	-0.347937	-0.275492
C101	C	0.556747	-0.014604	0.057842
C102	C	0.890080	0.318730	0.391175
C103	C	0.254100	-0.401354	-0.317510
C104	C	0.587433	-0.068020	0.015823
C105	C	0.920766	0.265313	0.349157
C106	C	0.881846	-0.617986	-0.325680
C107	C	1.215180	-0.284652	0.007653
C108	C	1.548513	0.048681	0.340987
C109	C	0.878344	-0.710654	-0.329218
C110	C	1.211677	-0.377320	0.004115
C111	C	1.545010	-0.043987	0.337448
C112	C	0.871952	-0.880320	-0.335692
C113	C	1.205285	-0.546986	-0.002358
C114	C	1.538619	-0.213653	0.330975
C115	C	0.908497	-0.921584	-0.299234
C116	C	1.241830	-0.588251	0.034099
C117	C	1.575163	-0.254917	0.367433
C118	C	0.904940	-1.015992	-0.302836
C119	C	1.238274	-0.682659	0.030498
C120	C	1.571607	-0.349325	0.363831
C121	C	0.875507	-0.785903	-0.332091
C122	C	1.208841	-0.452570	0.001243
C123	C	1.542174	-0.119237	0.334576
C124	C	1.053593	-0.401328	-0.317529
C125	C	1.386927	-0.067995	0.015804
C126	C	1.720260	0.265338	0.349137
C127	C	1.123235	-0.401310	-0.317560
C128	C	1.456569	-0.067977	0.015773
C129	C	1.789902	0.265357	0.349107
C130	C	0.890221	-0.401355	-0.480880
C131	C	1.223554	-0.068022	-0.147547
C132	C	1.556888	0.265311	0.185786
C133	C	0.890243	-0.401348	-0.550521
C134	C	1.223577	-0.068015	-0.217188
C135	C	1.556910	0.265319	0.116145
C136	C	0.898540	-0.183913	-0.309217
C137	C	1.231873	0.149421	0.024116
C138	C	1.565206	0.482754	0.357450
C139	C	0.902107	-0.091245	-0.305705
C140	C	1.235440	0.242089	0.027628
C141	C	1.568774	0.575422	0.360961
C142	C	0.932368	-0.348011	-0.581232
C143	C	1.265702	-0.014678	-0.247899
C144	C	1.599035	0.318655	0.085434
C145	C	0.932369	-0.347976	-0.646666
C146	C	1.265702	-0.014642	-0.313333
C147	C	1.599035	0.318691	0.020000
C148	C	0.890250	-0.401291	-0.681388
C149	C	1.223584	-0.067958	-0.348054
C150	C	1.556917	0.265375	-0.014721
C151	C	0.848117	-0.454632	-0.650669
C152	C	1.181451	-0.121298	-0.317336
C153	C	1.514784	0.212035	0.015998
C154	C	0.848114	-0.454660	-0.585236
C155	C	1.181447	-0.121327	-0.251902
C156	C	1.514781	0.212007	0.081431
C157	C	0.882419	-0.476362	-0.787910
C158	C	1.215752	-0.143029	-0.454577
C159	C	1.549086	0.190305	-0.121243
C160	C	0.882427	-0.476335	-0.853342
C161	C	1.215760	-0.143002	-0.520009
C162	C	1.549094	0.190332	-0.186675
C163	C	0.890258	-0.401203	-0.883205
C164	C	1.223591	-0.067870	-0.549872
C165	C	1.556924	0.265464	-0.216538
C166	C	0.898094	-0.326096	-0.847628
C167	C	1.231427	0.007238	-0.514295
C168	C	1.564760	0.340571	-0.180961
C169	C	0.898090	-0.326124	-0.782195
C170	C	1.231423	0.007209	-0.448862
C171	C	1.564757	0.340542	-0.115528
C172	C	0.890249	-0.401266	-0.752339
C173	C	1.223583	-0.067933	-0.419006
C174	C	1.556916	0.265401	-0.085672
C175	C	0.932385	-0.347823	-0.984867
C176	C	1.265719	-0.014490	-0.651534
C177	C	1.599052	0.318844	-0.318200
C178	C	0.932382	-0.347786	-1.050302
C179	C	1.265715	-0.014453	-0.716969
C180	C	1.599048	0.318881	-0.383636
C181	C	0.848133	-0.454449	-1.054304
C182	C	1.181467	-0.121116	-0.720970
C183	C	1.514800	0.212217	-0.387637
C184	C	0.848134	-0.454479	-0.988870
C185	C	1.181467	-0.121146	-0.655536
C186	C	1.514801	0.212187	-0.322203
C187	C	0.890263	-0.401167	-0.954155
C188	C	1.223597	-0.067834	-0.620822
C189	C	1.556930	0.265499	-0.287488
C190	C	0.890154	-0.401329	-0.154668
C191	C	1.223487	-0.067995	0.178665
C192	C	1.556821	0.265338	0.511998
C193	C	0.890262	-0.401101	-0.085019
C194	C	1.223595	-0.067768	0.248314
C195	C	1.556929	0.265566	0.581648
H196	H	0.647977	-0.498340	-0.393624
H197	H	0.981310	-0.165007	-0.060291
H198	H	1.314644	0.168326	0.273043
H199	H	0.125640	-0.498188	-0.393815
H200	H	0.458973	-0.164855	-0.060482
H201	H	0.792307	0.168478	0.272852
H202	H	0.529272	-0.498301	-0.393669
H203	H	0.862605	-0.164968	-0.060336
H204	H	1.195939	0.168365	0.272997
H205	H	0.942454	-0.886009	-0.265316
H206	H	1.275787	-0.552676	0.068017
H207	H	1.609121	-0.219342	0.401351
H208	H	0.655335	-0.304559	-0.241122
H209	H	0.988668	0.028774	0.092211
H210	H	1.322002	0.362107	0.425544
N211	N	0.826971	-0.927433	-0.380615
N212	N	1.160304	-0.594100	-0.047282
N213	N	1.493637	-0.260767	0.286051
H214	H	0.830775	-0.989173	-0.376848
H215	H	1.164108	-0.655840	-0.043515
H216	H	1.497442	-0.322507	0.289818
H217	H	0.782786	-0.912343	-0.370237
H218	H	1.116119	-0.579010	-0.036904
H219	H	1.449453	-0.245676	0.296429
H220	H	0.966673	-0.304600	-0.552972
H221	H	1.300006	0.028734	-0.219638
H222	H	1.633339	0.362067	0.113695
N223	N	0.458087	-0.415309	-0.435286
N224	N	0.791420	-0.081975	-0.101953
N225	N	1.124754	0.251358	0.231381
H226	H	0.427310	-0.419535	-0.471216
H227	H	0.760644	-0.086201	-0.137883
H228	H	1.093977	0.247132	0.195451
H229	H	0.487212	-0.364528	-0.439227
H230	H	0.820545	-0.031195	-0.105894
H231	H	1.153879	0.302138	0.227439
N232	N	0.124885	-0.290310	-0.230195
N233	N	0.458218	0.043024	0.103138
N234	N	0.791551	0.376357	0.436471
H235	H	0.078161	-0.298398	-0.236588
H236	H	0.411494	0.034935	0.096745
H237	H	0.744827	0.368269	0.430078
H238	H	0.135771	-0.303199	-0.185917
H239	H	0.469104	0.030134	0.147417
H240	H	0.802438	0.363467	0.480750
H241	H	0.813808	-0.498092	-0.560232
H242	H	1.147141	-0.164759	-0.226898
H243	H	1.480475	0.168575	0.106435
N244	N	0.977805	-0.290446	-0.679801
N245	N	1.311138	0.042888	-0.346468
N246	N	1.644471	0.376221	-0.013134
H247	H	1.004492	-0.256677	-0.647880
H248	H	1.337825	0.076656	-0.314547
H249	H	1.671158	0.409990	0.018786
H250	H	1.005491	-0.324371	-0.708262
H251	H	1.338824	0.008962	-0.374929
H252	H	1.672158	0.342296	-0.041595
H253	H	0.966686	-0.304409	-0.956601
H254	H	1.300020	0.028925	-0.623267
H255	H	1.633353	0.362258	-0.289934
H256	H	0.904469	-0.264969	-0.753231
H257	H	1.237802	0.068364	-0.419897
H258	H	1.571136	0.401697	-0.086564
N259	N	0.906546	-0.245053	-0.879826
N260	N	1.239880	0.088280	-0.546493
N261	N	1.573213	0.421613	-0.213159
H262	H	0.905358	-0.256428	-0.926676
H263	H	1.238691	0.076905	-0.593342
H264	H	1.572024	0.410239	-0.260009
H265	H	0.871750	-0.207792	-0.866941
H266	H	1.205083	0.125541	-0.533607
H267	H	1.538416	0.458875	-0.200274
H268	H	0.966684	-0.304348	-1.075305
H269	H	1.300017	0.028985	-0.741972
H270	H	1.633351	0.362319	-0.408639
N271	N	0.802699	-0.511949	-1.091743
N272	N	1.136033	-0.178616	-0.758410
N273	N	1.469366	0.154718	-0.425076
H274	H	0.809091	-0.503837	-1.137856
H275	H	1.142425	-0.170503	-0.804522
H276	H	1.475758	0.162830	-0.471189
H277	H	0.810157	-0.571496	-1.082582
H278	H	1.143490	-0.238163	-0.749249
H279	H	1.476823	0.095171	-0.415916
H280	H	0.813835	-0.497917	-0.963865
H281	H	1.147168	-0.164583	-0.630531
H282	H	1.480502	0.168750	-0.297198
H283	H	0.450195	-0.389270	-0.214573
H284	H	0.783529	-0.055936	0.118760
H285	H	1.116862	0.277397	0.452093
H286	H	0.876050	-0.537492	-0.882304
H287	H	1.209383	-0.204159	-0.548971
H288	H	1.542717	0.129175	-0.215637
H289	H	0.813823	-0.498039	-0.678943
H290	H	1.147156	-0.164706	-0.345610
H291	H	1.480489	0.168628	-0.012276
H292	H	0.875875	-0.537528	-0.763601
H293	H	1.209209	-0.204195	-0.430268
H294	H	1.542542	0.129139	-0.096934
H295	H	0.244345	-0.498230	-0.393769
H296	H	0.577679	-0.164897	-0.060435
H297	H	0.911012	0.168436	0.272898
N298	N	0.322081	-0.415270	-0.435340
N299	N	0.655415	-0.081937	-0.102007
N300	N	0.988748	0.251396	0.231327
H301	H	0.275695	-0.414240	-0.426755
H302	H	0.609028	-0.080907	-0.093421
H303	H	0.942361	0.252427	0.239912
H304	H	0.335421	-0.367116	-0.461579
H305	H	0.668754	-0.033783	-0.128246
H306	H	1.002088	0.299550	0.205088
N307	N	0.260893	-0.290365	-0.230147
N308	N	0.594226	0.042969	0.103186
N309	N	0.927560	0.376302	0.436519
H310	H	0.289566	-0.251788	-0.254186
H311	H	0.622899	0.081545	0.079148
H312	H	0.956233	0.414879	0.412481
H313	H	0.231485	-0.256583	-0.203538
H314	H	0.564819	0.076750	0.129795
H315	H	0.898152	0.410083	0.463129
N316	N	0.322891	-0.387477	-0.199636
N317	N	0.656224	-0.054144	0.133697
N318	N	0.989558	0.279190	0.467030
H319	H	0.353671	-0.383242	-0.163709
H320	H	0.687005	-0.049909	0.169624
H321	H	1.020338	0.283425	0.502957
H322	H	0.297734	-0.336103	-0.198663
H323	H	0.631067	-0.002770	0.134670
H324	H	0.964401	0.330564	0.468004
H325	H	0.536622	-0.304541	-0.241163
H326	H	0.869955	0.028793	0.092170
H327	H	1.203289	0.362126	0.425503
