data_functionalizedCrystal
_audit_creation_method	'MofGen! by Chris Wilmer'
_symmetry_space_group_name_H-M	'P1'
_symmetry_Int_Tables_number	1
_symmetry_cell_setting	triclinic
loop_
_symmetry_equiv_pos_as_xyz
  x,y,z
_cell_length_a	10.654551
_cell_length_b	23.532407
_cell_length_c	9.730223
_cell_angle_alpha	90.001744
_cell_angle_beta	89.999969
_cell_angle_gamma	83.667054
loop_
_atom_site_label
_atom_site_type_symbol
_atom_site_fract_x
_atom_site_fract_y
_atom_site_fract_z
O1	O	0.152436	0.756253	0.114195
O2	O	0.174492	0.590533	0.114216
O3	O	-0.019396	0.677203	0.114206
O4	O	0.346324	0.669583	0.114205
O5	O	-0.019395	0.677195	-0.114374
O6	O	0.174494	0.590526	-0.114364
O7	O	0.152437	0.756245	-0.114385
Zn8	Zn	0.163466	0.673384	-0.150666
Zn9	Zn	0.163464	0.673394	0.150497
O10	O	0.346325	0.669576	-0.114375
C11	C	0.173931	0.569310	-0.000071
C12	C	0.172242	0.506082	-0.000063
C13	C	-0.066175	0.676640	-0.000081
C14	C	-0.205566	0.674965	-0.000072
C15	C	0.050540	0.239121	-0.000101
C16	C	0.052108	0.298532	-0.000100
O17	O	-0.044437	0.334647	-0.000148
N18	N	0.167375	0.321909	-0.000091
C19	C	0.281080	0.285873	-0.000096
O20	O	0.379267	0.311212	-0.000090
C21	C	0.279510	0.226463	-0.000106
C22	C	0.164236	0.203089	-0.000102
C23	C	-0.064725	0.215747	-0.000097
C24	C	-0.066293	0.156340	-0.000095
C25	C	0.047403	0.120308	-0.000096
C26	C	0.162668	0.143683	-0.000099
C27	C	0.393214	0.190428	-0.000121
C28	C	0.391634	0.131015	-0.000132
C29	C	0.276360	0.107641	-0.000128
C30	C	0.274796	0.048245	-0.000098
N31	N	0.159530	0.024867	-0.000107
C32	C	0.045833	0.060899	-0.000106
C33	C	0.284368	0.410637	-0.000077
C34	C	0.285940	0.470045	-0.000057
C35	C	0.056967	0.482700	-0.000064
C36	C	0.055397	0.423290	-0.000074
C37	C	0.169102	0.387259	-0.000086
C38	C	0.042549	-0.063859	-0.000100
C39	C	0.040991	-0.123271	-0.000093
C40	C	0.269962	-0.135921	-0.000093
C41	C	0.271521	-0.076514	-0.000094
C42	C	0.157804	-0.040484	-0.000102
O43	O	0.371291	0.012094	-0.000056
O44	O	-0.052338	0.035551	-0.000131
C45	C	-0.271053	0.674184	0.124525
C46	C	-0.402024	0.672606	0.124519
C47	C	-0.402008	0.672593	-0.124692
C48	C	-0.271038	0.674167	-0.124684
C49	C	-0.205580	0.674983	0.249137
C50	C	-0.271068	0.674202	0.373744
C51	C	-0.402039	0.672624	0.373738
C52	C	-0.467521	0.671827	0.249125
C53	C	0.393105	0.670139	-0.000085
C54	C	0.532495	0.671813	-0.000085
C55	C	0.152998	0.777469	-0.000094
C56	C	0.154687	0.840697	-0.000094
N57	N	0.163466	0.673381	-0.356203
C58	C	0.249282	0.634999	-0.428160
C59	C	0.249279	0.635010	-0.572043
C60	C	0.077633	0.711788	-0.571999
C61	C	0.077643	0.711779	-0.428119
C62	C	0.335105	0.596601	-0.356244
C63	C	0.420927	0.558215	-0.428201
C64	C	0.420924	0.558227	-0.572084
C65	C	0.335099	0.596624	-0.644010
N66	N	0.163454	0.673402	0.356034
H67	H	-0.052883	-0.142299	-0.000085
H68	H	-0.455354	0.671983	0.475199
H69	H	-0.157316	0.245079	-0.000101
H70	H	-0.050051	-0.034530	-0.000107
H71	H	0.335113	0.596634	-0.761169
C72	C	-0.199800	0.674969	0.508937
C73	C	-0.109854	0.626972	0.516205
C74	C	-0.044173	0.627658	0.640721
H75	H	-0.257417	0.674245	0.583249
H76	H	-0.158619	0.708716	0.514147
H77	H	-0.151032	0.593234	0.511008
H78	H	-0.052210	0.627686	0.441921
H79	H	-0.002992	0.661405	0.645931
H80	H	-0.101800	0.626936	0.715024
H81	H	0.016870	0.595096	0.645663
H82	H	-0.574164	0.670533	0.249130
C83	C	0.396631	-0.051097	0.000181
C84	C	0.404245	-0.017363	0.117783
C85	C	0.519485	0.006051	0.118071
H86	H	0.402115	-0.028151	-0.079447
H87	H	0.464162	-0.081049	0.000256
H88	H	0.336734	0.012585	0.117695
H89	H	0.398784	-0.040296	0.197429
H90	H	0.587015	-0.023901	0.118146
H91	H	0.524958	0.028995	0.038438
H92	H	0.524671	0.028938	0.197868
C93	C	0.334872	0.596659	-0.200029
C94	C	0.241329	0.638483	-0.152403
C95	C	0.241063	0.638547	-0.008507
H96	H	0.414973	0.604783	-0.167303
H97	H	0.318020	0.560205	-0.167448
H98	H	0.258190	0.674928	-0.184969
H99	H	0.161215	0.630368	-0.185090
H100	H	0.224211	0.602094	0.024073
H101	H	0.321168	0.646671	0.024204
H102	H	0.177588	0.666921	0.023826
H103	H	0.487082	0.209448	-0.000119
C104	C	-0.069886	0.398026	-0.000148
C105	C	-0.169112	0.442304	-0.000174
C106	C	-0.284546	0.419055	-0.000263
H107	H	-0.075444	0.375119	0.079535
H108	H	-0.075332	0.375132	-0.079897
H109	H	-0.163669	0.465187	0.079567
H110	H	-0.163596	0.465214	-0.079851
H111	H	-0.289991	0.396162	-0.080012
H112	H	-0.290090	0.396149	0.079421
H113	H	-0.351883	0.449094	-0.000293
C114	C	0.407734	0.371452	0.000150
C115	C	0.413508	0.336966	0.117731
C116	C	0.527125	0.300860	0.117977
H117	H	0.476703	0.393816	0.000231
H118	H	0.411907	0.347979	-0.079520
H119	H	0.409348	0.360436	0.197381
H120	H	0.344566	0.314589	0.117675
H121	H	0.531298	0.277387	0.038307
H122	H	0.596085	0.323230	0.118054
H123	H	0.531052	0.277454	0.197747
C124	C	0.513968	0.516556	-0.349868
C125	C	0.495584	0.524749	-0.208462
C126	C	0.581263	0.486378	-0.136263
H127	H	0.597766	0.523033	-0.373280
H128	H	0.500741	0.478487	-0.373389
H129	H	0.508821	0.562809	-0.184951
H130	H	0.411804	0.518268	-0.185009
H131	H	0.568036	0.448309	-0.159784
H132	H	0.665055	0.492858	-0.159686
H133	H	0.568794	0.491928	-0.040312
H134	H	-0.160161	0.137315	-0.000097
H135	H	0.490812	0.526975	-0.630670
H136	H	-0.098938	0.676269	0.249156
H137	H	0.379807	0.489070	-0.000042
C138	C	-0.015755	0.753438	-0.649915
C139	C	-0.139048	0.743724	-0.614883
C140	C	-0.225116	0.782083	-0.686617
H141	H	-0.003647	0.747984	-0.745930
H142	H	-0.002624	0.791508	-0.626299
H143	H	-0.152174	0.705663	-0.638507
H144	H	-0.151196	0.749183	-0.518879
H145	H	-0.211985	0.820153	-0.663002
H146	H	-0.212997	0.776625	-0.782629
H147	H	-0.308780	0.775500	-0.662849
C148	C	-0.015494	0.753382	-0.349747
C149	C	-0.092009	0.722776	-0.267052
C150	C	-0.177763	0.761094	-0.194795
H151	H	-0.066743	0.776288	-0.412974
H152	H	0.029495	0.777224	-0.293576
H153	H	-0.136995	0.698943	-0.323218
H154	H	-0.040795	0.699872	-0.203799
H155	H	-0.132774	0.784936	-0.138624
H156	H	-0.229003	0.783998	-0.258032
H157	H	-0.229681	0.740334	-0.138669
H158	H	-0.035610	0.512048	-0.000063
H159	H	-0.455334	0.671944	-0.226145
C160	C	0.515051	0.091869	-0.000422
C161	C	0.520859	0.057400	-0.118038
C162	C	0.634538	0.021338	-0.118356
H163	H	0.519325	0.068378	0.079196
H164	H	0.583956	0.114282	-0.000497
H165	H	0.451973	0.034988	-0.117950
H166	H	0.516607	0.080875	-0.197675
H167	H	0.703443	0.043752	-0.118431
H168	H	0.638802	-0.002149	-0.038733
H169	H	0.638499	-0.002049	-0.198162
H170	H	0.362530	-0.165269	-0.000087
H171	H	-0.217713	0.674791	-0.226141
