data_functionalizedCrystal
_audit_creation_method	'MofGen! by Chris Wilmer'
_symmetry_space_group_name_H-M	'P1'
_symmetry_Int_Tables_number	1
_symmetry_cell_setting	triclinic
loop_
_symmetry_equiv_pos_as_xyz
  x,y,z
_cell_length_a	18.050590
_cell_length_b	18.050589
_cell_length_c	12.594510
_cell_angle_alpha	89.966182
_cell_angle_beta	89.994868
_cell_angle_gamma	90.017386
loop_
_atom_site_label
_atom_site_type_symbol
_atom_site_fract_x
_atom_site_fract_y
_atom_site_fract_z
Zn1	Zn	1.135336	-0.295807	-0.601410
Zn2	Zn	1.135234	-0.420024	-0.423433
Zn3	Zn	1.011142	-0.295829	-0.423488
Zn4	Zn	1.011103	-0.419936	-0.601413
O5	O	1.073204	-0.357899	-0.512436
O6	O	1.239247	-0.312312	-0.577776
O7	O	1.118746	-0.403595	-0.274494
O8	O	1.027676	-0.191902	-0.447112
O9	O	1.239172	-0.403574	-0.447018
O10	O	1.118920	-0.191885	-0.577830
O11	O	1.027577	-0.312350	-0.274535
O12	O	0.907212	-0.312265	-0.447115
O13	O	1.027609	-0.403424	-0.750358
O14	O	0.907184	-0.403446	-0.577835
O15	O	1.118882	-0.312227	-0.750356
O16	O	1.118708	-0.523937	-0.447020
O17	O	1.027510	-0.523873	-0.577781
C18	C	0.880251	-0.357848	-0.512482
C19	C	0.797706	-0.357845	-0.512527
C20	C	0.598261	-0.407571	-0.583443
C21	C	0.548870	-0.339851	-0.609628
C22	C	0.646575	-0.357886	-0.512475
C23	C	0.548885	-0.425645	-0.486289
C24	C	0.500590	-0.357932	-0.512426
C25	C	0.598271	-0.290130	-0.538710
C26	C	0.598291	-0.375970	-0.415325
C27	C	0.548922	-0.308203	-0.441473
C28	C	0.730674	-0.357861	-0.512505
C29	C	0.416494	-0.357950	-0.512396
C30	C	1.073114	-0.550851	-0.512418
C31	C	1.073143	-0.633397	-0.512446
C32	C	1.023599	-0.832840	-0.583529
C33	C	1.005494	-0.882289	-0.486411
C34	C	1.073216	-0.784527	-0.512460
C35	C	1.091358	-0.882160	-0.609589
C36	C	1.073286	-0.930512	-0.512482
C37	C	1.055076	-0.832889	-0.415291
C38	C	1.140971	-0.832756	-0.538534
C39	C	1.122892	-0.882183	-0.441349
C40	C	1.073175	-0.700429	-0.512449
C41	C	1.073327	-1.014609	-0.512482
C42	C	1.266909	-0.357951	-0.512390
C43	C	1.349455	-0.357973	-0.512371
C44	C	1.073253	-0.357813	-0.790057
C45	C	1.073273	-0.357777	-0.908362
C46	C	1.073314	-0.164194	-0.512477
C47	C	1.073361	-0.081648	-0.512494
C48	C	1.122932	-0.308171	-0.977615
C49	C	1.055202	-0.289980	-1.048432
C50	C	1.141043	-0.375916	-1.048344
C51	C	1.005508	-0.339551	-0.977622
C52	C	1.091394	-0.425518	-0.977527
C53	C	1.023618	-0.407353	-1.048313
C54	C	1.073197	-0.357931	-0.235895
C55	C	1.073320	-0.357758	-0.117590
H56	H	0.527395	-0.266157	-0.381437
H57	H	0.981595	-0.449295	-1.079160
H58	H	0.948200	-0.324135	-0.946686
N59	N	0.625538	-0.395156	-0.312309
N60	N	0.581137	-0.409428	-0.238921
H61	H	0.600380	-0.422985	-0.166163
H62	H	1.039693	-0.811336	-0.333136
H63	H	1.106674	-0.903803	-0.691721
N64	N	1.175565	-0.909187	-0.365873
N65	N	1.168796	-0.893255	-0.269790
H66	H	1.205993	-0.912328	-0.216481
H67	H	1.198224	-0.810985	-0.560614
H68	H	1.164852	-0.266197	-0.946569
N69	N	1.110632	-0.497374	-0.938436
N70	N	1.172112	-0.525043	-0.961037
H71	H	1.185707	-0.575792	-0.933428
H72	H	1.198334	-0.391264	-1.079414
H73	H	1.039892	-0.232685	-1.079578
H74	H	0.981577	-0.811173	-0.643545
H75	H	0.948228	-0.904062	-0.464378
H76	H	0.619874	-0.232830	-0.560931
N77	N	0.521684	-0.497511	-0.458530
N78	N	0.566120	-0.548930	-0.439505
H79	H	0.546912	-0.599687	-0.419908
N80	N	0.625446	-0.460171	-0.658836
N81	N	0.665915	-0.439214	-0.733591
H82	H	0.685116	-0.476356	-0.786845
N83	N	0.521644	-0.320685	-0.712671
N84	N	0.537453	-0.360139	-0.790989
H85	H	0.518228	-0.346607	-0.863767
