data_functionalizedCrystal
_audit_creation_method	'MofGen! by Chris Wilmer'
_symmetry_space_group_name_H-M	'P1'
_symmetry_Int_Tables_number	1
_symmetry_cell_setting	triclinic
loop_
_symmetry_equiv_pos_as_xyz
  x,y,z
_cell_length_a	17.699097
_cell_length_b	10.654545
_cell_length_c	16.176319
_cell_angle_alpha	89.995575
_cell_angle_beta	89.988988
_cell_angle_gamma	83.886929
loop_
_atom_site_label
_atom_site_type_symbol
_atom_site_fract_x
_atom_site_fract_y
_atom_site_fract_z
O1	O	1.005083	0.158888	-0.068811
O2	O	0.784837	0.179532	-0.068797
O3	O	0.900024	-0.013617	-0.068804
O4	O	0.889897	0.352038	-0.068804
O5	O	0.900007	-0.013629	0.068689
O6	O	0.784821	0.179520	0.068696
O7	O	1.005067	0.158876	0.068682
Cu8	Cu	0.894943	0.169197	0.081243
Cu9	Cu	0.894962	0.169211	-0.081358
O10	O	0.889881	0.352025	0.068689
C11	C	0.756628	0.178784	-0.000049
C12	C	0.672596	0.176556	-0.000044
C13	C	0.156800	0.162908	-0.075025
C14	C	0.235757	0.164993	-0.075020
C15	C	0.275221	0.166030	-0.000069
C16	C	0.235724	0.164971	0.074882
C17	C	0.156769	0.162877	0.074877
C18	C	0.554142	0.173412	0.074904
C19	C	0.633102	0.175509	0.074903
C20	C	0.633130	0.175527	-0.074994
C21	C	0.554175	0.173434	-0.074999
C22	C	0.514686	0.172368	-0.000047
C23	C	0.429071	0.170105	-0.000053
C24	C	0.360833	0.168302	-0.000063
C25	C	0.899272	-0.060408	-0.000059
C26	C	0.897047	-0.199813	-0.000063
C27	C	0.897073	-0.199808	-0.149963
C28	C	0.896044	-0.265298	-0.224912
C29	C	0.893953	-0.396280	-0.224913
C30	C	0.892890	-0.461775	-0.149956
C31	C	0.893919	-0.396286	-0.075007
C32	C	0.896012	-0.265301	-0.075014
C33	C	0.893887	-0.396290	0.074890
C34	C	0.895983	-0.265308	0.074893
C35	C	0.892823	-0.461785	0.149847
C36	C	0.893858	-0.396297	0.224798
C37	C	0.895950	-0.265307	0.224796
C38	C	0.897012	-0.199819	0.149842
C39	C	1.033277	0.159625	-0.000068
C40	C	1.117308	0.161852	-0.000079
C41	C	0.890632	0.398817	-0.000058
C42	C	0.892858	0.538221	-0.000059
N43	N	0.894935	0.169186	0.195609
N44	N	0.894975	0.169212	-0.195724
C45	C	0.945955	0.083694	0.238870
C46	C	0.945959	0.083693	0.325417
C47	C	0.894946	0.169190	0.368701
C48	C	0.843920	0.254686	0.325434
C49	C	0.843913	0.254680	0.238888
C50	C	0.843946	0.254710	0.674462
C51	C	0.843958	0.254711	0.761014
C52	C	0.945992	0.083722	0.760991
C53	C	0.945985	0.083716	0.674445
C54	C	0.894957	0.169207	0.631185
C55	C	0.894952	0.169206	0.537341
C56	C	0.894953	0.169198	0.462544
H57	H	0.522047	0.172595	-0.136031
H58	H	0.124615	0.162030	0.135906
Br59	Br	0.892547	-0.485162	-0.326629
H60	H	0.522001	0.172525	0.135934
H61	H	0.267863	0.165807	0.135909
Br62	Br	1.015199	-0.032338	0.384131
H63	H	0.896909	-0.211956	-0.285940
H64	H	0.891178	-0.568426	-0.149964
H65	H	0.891117	-0.568437	0.149841
H66	H	0.898784	-0.093157	-0.149970
Br67	Br	0.774663	0.370702	0.180177
H68	H	0.892987	-0.449632	0.285821
H69	H	0.896776	-0.211990	0.285829
Br70	Br	1.015223	-0.032312	0.615705
Br71	Br	0.899858	-0.022058	0.149833
Br72	Br	0.774722	0.370752	0.819757
Br73	Br	1.015197	-0.032336	0.180136
Br74	Br	1.015245	-0.032306	0.819704
H75	H	0.124673	0.162072	-0.136058
Br76	Br	0.774698	0.370731	0.615757
Br77	Br	0.289351	0.166414	-0.176737
H78	H	0.665292	0.176390	-0.136023
Br79	Br	0.686660	0.176919	0.176629
H80	H	0.802380	0.324295	0.360681
