data_functionalizedCrystal
_audit_creation_method	'MofGen! by Chris Wilmer'
_symmetry_space_group_name_H-M	'P1'
_symmetry_Int_Tables_number	1
_symmetry_cell_setting	triclinic
loop_
_symmetry_equiv_pos_as_xyz
  x,y,z
_cell_length_a	11.169417
_cell_length_b	16.625545
_cell_length_c	16.625539
_cell_angle_alpha	90.026243
_cell_angle_beta	90.013727
_cell_angle_gamma	90.026437
loop_
_atom_site_label
_atom_site_type_symbol
_atom_site_fract_x
_atom_site_fract_y
_atom_site_fract_z
Zn1	Zn	1.834763	-0.320996	0.455839
Zn2	Zn	1.834621	-0.455835	0.321007
Zn3	Zn	1.634070	-0.321022	0.321027
Zn4	Zn	1.634003	-0.455793	0.455804
O5	O	1.734364	-0.388411	0.388419
O6	O	2.002694	-0.338890	0.437959
O7	O	1.807986	-0.437980	0.208177
O8	O	1.660780	-0.208186	0.338933
O9	O	2.002589	-0.437955	0.338898
O10	O	1.808229	-0.208167	0.437979
O11	O	1.660642	-0.338934	0.208192
O12	O	1.466112	-0.338893	0.338900
O13	O	1.660666	-0.437883	0.568641
O14	O	1.466062	-0.437908	0.437920
O15	O	1.808163	-0.338849	0.568667
O16	O	1.807920	-0.568662	0.338865
O17	O	1.660528	-0.568631	0.437900
C18	C	1.422540	-0.388399	0.388409
C19	C	1.289140	-0.388413	0.388424
C20	C	1.734234	-0.597902	0.388394
C21	C	1.734288	-0.687523	0.388410
C22	C	1.734335	-0.760306	0.388426
C23	C	1.734404	-0.851614	0.388444
C24	C	1.734467	-0.924391	0.388454
C25	C	1.734535	-1.015705	0.388471
C26	C	2.047407	-0.388424	0.388430
C27	C	2.180807	-0.388430	0.388435
C28	C	1.734423	-0.388358	0.598728
C29	C	1.734448	-0.388336	0.688349
C30	C	1.734528	-0.178102	0.388462
C31	C	1.734598	-0.088481	0.388481
C32	C	1.734375	-0.388406	0.178928
C33	C	1.734582	-0.388202	0.089308
C34	C	1.734468	-0.388318	0.761132
C35	C	1.734496	-0.388288	0.852440
C36	C	1.734524	-0.388259	0.925217
C37	C	1.734554	-0.388230	1.016531
