data_functionalizedCrystal
_audit_creation_method	'MofGen! by Chris Wilmer'
_symmetry_space_group_name_H-M	'P1'
_symmetry_Int_Tables_number	1
_symmetry_cell_setting	triclinic
loop_
_symmetry_equiv_pos_as_xyz
  x,y,z
_cell_length_a	19.077236
_cell_length_b	12.645330
_cell_length_c	19.076919
_cell_angle_alpha	92.276250
_cell_angle_beta	89.887323
_cell_angle_gamma	92.310660
loop_
_atom_site_label
_atom_site_type_symbol
_atom_site_fract_x
_atom_site_fract_y
_atom_site_fract_z
Zn1	Zn	1.058321	-0.384817	-0.440563
Zn2	Zn	1.558321	0.115183	0.059437
Zn3	Zn	1.062974	-0.554705	-0.323065
Zn4	Zn	1.562974	-0.054705	0.176935
Zn5	Zn	0.945536	-0.384261	-0.318343
Zn6	Zn	1.445536	0.115739	0.181657
Zn7	Zn	0.940794	-0.568848	-0.435804
Zn8	Zn	1.440794	-0.068848	0.064196
O9	O	1.001906	-0.473158	-0.379444
O10	O	1.501906	0.026842	0.120556
O11	O	1.157271	-0.401667	-0.428944
O12	O	1.657271	0.098333	0.071056
O13	O	1.051327	-0.525944	-0.224108
O14	O	1.551327	-0.025944	0.275892
O15	O	0.960535	-0.235987	-0.334570
O16	O	1.460535	0.264013	0.165430
O17	O	1.160690	-0.526483	-0.342619
O18	O	1.660690	-0.026483	0.157381
O19	O	1.043397	-0.236395	-0.424365
O20	O	1.543397	0.263605	0.075635
O21	O	0.965046	-0.400720	-0.220638
O22	O	1.465046	0.099280	0.279362
O23	O	0.846574	-0.414433	-0.329956
O24	O	1.346574	0.085567	0.170044
O25	O	0.952452	-0.550587	-0.534766
O26	O	1.452452	-0.050587	-0.034766
O27	O	0.843090	-0.550048	-0.416255
O28	O	1.343090	-0.050048	0.083745
O29	O	1.038799	-0.415381	-0.538263
O30	O	1.538799	0.084619	-0.038263
O31	O	1.046729	-0.704930	-0.338005
O32	O	1.546729	-0.204930	0.161995
O33	O	0.956964	-0.715320	-0.420834
O34	O	1.456964	-0.215320	0.079166
C35	C	0.819335	-0.483716	-0.372077
C36	C	1.319335	0.016284	0.127923
C37	C	0.741230	-0.488259	-0.368942
C38	C	1.241230	0.011741	0.131058
C39	C	0.702754	-0.425521	-0.412483
C40	C	1.202754	0.074479	0.087517
C41	C	0.629366	-0.429784	-0.409531
C42	C	1.129366	0.070216	0.090469
C43	C	0.594455	-0.496793	-0.363042
C44	C	1.094455	0.003207	0.136958
C45	C	0.632936	-0.559534	-0.319497
C46	C	1.132936	-0.059534	0.180503
C47	C	0.706323	-0.555264	-0.322445
C48	C	1.206323	-0.055264	0.177555
C49	C	0.375163	-0.516514	-0.349394
C50	C	0.875163	-0.016514	0.150606
C51	C	0.301771	-0.520781	-0.346450
C52	C	0.801771	-0.020781	0.153550
C53	C	0.298205	-0.391030	-0.436484
C54	C	0.798205	0.108970	0.063516
C55	C	0.371594	-0.386771	-0.439432
C56	C	0.871594	0.113229	0.060568
C57	C	0.410069	-0.449508	-0.395884
C58	C	0.910069	0.050492	0.104116
N59	N	0.519440	-0.501155	-0.360026
N60	N	1.019440	-0.001155	0.139974
N61	N	0.485082	-0.445139	-0.398897
N62	N	0.985082	0.054861	0.101103
C63	C	1.001855	-0.748590	-0.379432
C64	C	1.501855	-0.248590	0.120568
C65	C	1.001897	-0.866419	-0.379453
C66	C	1.501897	-0.366419	0.120547
C67	C	0.945643	-1.040561	-0.431737
C68	C	1.445643	-0.540561	0.068263
C69	C	0.945373	-0.918007	-0.431551
C70	C	1.445373	-0.418007	0.068449
C71	C	0.984830	-0.907508	-0.304593
C72	C	1.484830	-0.407508	0.195407
C73	C	0.984487	-1.030146	-0.304910
C74	C	1.484487	-0.530146	0.195090
C75	C	1.075572	-1.030391	-0.401442
C76	C	1.575572	-0.530391	0.098558
C77	C	1.075051	-0.907913	-0.403042
C78	C	1.575051	-0.407913	0.096958
C79	C	1.185190	-0.462559	-0.386839
C80	C	1.685190	0.037441	0.113161
C81	C	1.263295	-0.458043	-0.389991
C82	C	1.763295	0.041957	0.110009
C83	C	0.994577	-0.484624	-0.562724
C84	C	1.494577	0.015376	-0.062724
C85	C	0.991454	-0.489510	-0.640826
C86	C	1.491454	0.010490	-0.140826
C87	C	1.001976	-0.196650	-0.379472
C88	C	1.501976	0.303350	0.120528
C89	C	1.002005	-0.078819	-0.379484
C90	C	1.502005	0.421181	0.120516
C91	C	1.034941	-0.421414	-0.679341
C92	C	1.534941	0.078586	-0.179341
C93	C	1.031998	-0.426001	-0.752726
C94	C	1.531998	0.073999	-0.252726
C95	C	0.985571	-0.498690	-0.787597
C96	C	1.485571	0.001310	-0.287597
C97	C	0.942080	-0.566789	-0.749077
C98	C	1.442080	-0.066789	-0.249077
C99	C	0.945020	-0.562196	-0.675693
C100	C	1.445020	-0.062196	-0.175693
C101	C	0.971955	-0.519971	-1.006877
C102	C	1.471955	-0.019971	-0.506877
C103	C	0.969020	-0.524562	-1.080267
C104	C	1.469020	-0.024562	-0.580267
C105	C	1.058937	-0.383771	-1.083911
C106	C	1.558937	0.116229	-0.583911
C107	C	1.061875	-0.379189	-1.010525
C108	C	1.561875	0.120811	-0.510525
C109	C	1.018382	-0.447284	-0.972012
C110	C	1.518382	0.052716	-0.472012
N111	N	0.982564	-0.503383	-0.862609
N112	N	1.482564	-0.003383	-0.362609
N113	N	1.021386	-0.442585	-0.897001
N114	N	1.521386	0.057415	-0.397001
C115	C	1.009247	-0.461658	-0.196878
C116	C	1.509247	0.038342	0.303122
C117	C	1.012506	-0.456465	-0.118781
C118	C	1.512506	0.043535	0.381219
H119	H	0.400013	-0.332210	-0.477290
H120	H	0.900013	0.167790	0.022710
C121	C	0.871598	-0.881755	-0.411630
C122	C	1.371598	-0.381755	0.088370
N123	N	0.816022	-0.854453	-0.396643
N124	N	1.316022	-0.354453	0.103357
H125	H	0.930798	-1.060973	-0.286656
H126	H	1.430798	-0.560973	0.213344
C127	C	0.587045	-0.360770	-0.457432
C128	C	1.087045	0.139230	0.042568
N129	N	0.555170	-0.308786	-0.493513
N130	N	1.055170	0.191214	0.006487
C131	C	0.872336	-1.085523	-0.411996
C132	C	1.372336	-0.585523	0.088004
N133	N	0.817121	-1.119385	-0.397123
N134	N	1.317121	-0.619385	0.102877
C135	C	0.959329	-0.880961	-0.506414
C136	C	1.459329	-0.380961	-0.006414
N137	N	0.969838	-0.853063	-0.562805
N138	N	1.469838	-0.353063	-0.062805
H139	H	0.273349	-0.575353	-0.308593
H140	H	0.773349	-0.075353	0.191407
H141	H	0.904276	-0.625971	-0.777474
H142	H	1.404276	-0.125971	-0.277474
H143	H	0.936549	-0.575434	-0.975529
H144	H	1.436549	-0.075434	-0.475529
H145	H	0.955853	-1.072725	-0.487327
H146	H	1.455853	-0.572725	0.012673
C147	C	0.913076	-0.868982	-0.279573
C148	C	1.413076	-0.368982	0.220427
N149	N	0.859028	-0.839968	-0.260732
N150	N	1.359028	-0.339968	0.239268
H151	H	1.094346	-0.328331	-1.115276
H152	H	1.594346	0.171669	-0.615276
C153	C	0.255878	-0.322006	-0.484372
C154	C	0.755878	0.177994	0.015628
N155	N	0.223996	-0.270006	-0.520438
N156	N	0.723996	0.229994	-0.020438
C157	C	1.037750	-1.063689	-0.250297
C158	C	1.537750	-0.563689	0.249703
N159	N	1.077863	-1.088949	-0.209158
N160	N	1.577863	-0.588949	0.290842
C161	C	1.092530	-0.871942	-0.477477
C162	C	1.592530	-0.371942	0.022523
N163	N	1.105699	-0.844828	-0.533536
N164	N	1.605699	-0.344828	-0.033536
H165	H	0.406481	-0.567600	-0.313935
H166	H	0.906481	-0.067600	0.186065
H167	H	0.604506	-0.614088	-0.281641
H168	H	1.104506	-0.114088	0.218359
C169	C	0.917943	-0.604526	-1.118623
C170	C	1.417943	-0.104526	-0.618623
N171	N	0.879474	-0.664752	-1.147512
N172	N	1.379474	-0.164752	-0.647512
H173	H	0.909602	-0.617637	-0.644335
H174	H	1.409602	-0.117637	-0.144335
H175	H	0.737649	-0.606351	-0.286989
H176	H	1.237649	-0.106351	0.213011
C177	C	0.741149	-0.351805	-0.463624
C178	C	1.241149	0.148195	0.036376
N179	N	0.770066	-0.296276	-0.502143
N180	N	1.270066	0.203724	-0.002143
C181	C	1.038704	-0.861571	-0.250379
C182	C	1.538704	-0.361571	0.249621
N183	N	1.079282	-0.826967	-0.209545
N184	N	1.579282	-0.326967	0.290455
C185	C	1.134448	-0.860054	-0.355691
C186	C	1.634448	-0.360054	0.144309
N187	N	1.179184	-0.824009	-0.320018
N188	N	1.679184	-0.324009	0.179982
H189	H	1.091723	-1.063521	-0.455259
H190	H	1.591723	-0.563521	0.044741
C191	C	1.086013	-0.341448	-0.640990
C192	C	1.586013	0.158552	-0.140990
N193	N	1.124480	-0.281212	-0.612107
N194	N	1.624480	0.218788	-0.112107
H195	H	1.117527	-1.054542	-0.363420
H196	H	1.617527	-0.554542	0.136580
H197	H	1.067411	-0.370552	-0.784082
H198	H	1.567411	0.129448	-0.284082
C199	C	1.112941	-0.299215	-0.972173
C200	C	1.612941	0.200785	-0.472173
N201	N	1.151403	-0.238975	-0.943287
N202	N	1.651403	0.261025	-0.443287
