data_functionalizedCrystal
_audit_creation_method	'MofGen! by Chris Wilmer'
_symmetry_space_group_name_H-M	'P1'
_symmetry_Int_Tables_number	1
_symmetry_cell_setting	triclinic
loop_
_symmetry_equiv_pos_as_xyz
  x,y,z
_cell_length_a	16.109302
_cell_length_b	11.792241
_cell_length_c	15.186229
_cell_angle_alpha	89.996105
_cell_angle_beta	89.994701
_cell_angle_gamma	83.827598
loop_
_atom_site_label
_atom_site_type_symbol
_atom_site_fract_x
_atom_site_fract_y
_atom_site_fract_z
O1	O	1.103817	0.145889	-0.073268
O2	O	1.603817	0.645889	0.426732
O3	O	0.861840	0.164043	-0.073262
O4	O	1.361840	0.664043	0.426738
O5	O	0.988701	-0.010256	-0.073259
O6	O	1.488701	0.489744	0.426741
O7	O	0.976957	0.320188	-0.073271
O8	O	1.476957	0.820188	0.426729
O9	O	0.988692	-0.010258	0.073198
O10	O	1.488692	0.489742	0.573198
O11	O	0.861832	0.164041	0.073196
O12	O	1.361832	0.664041	0.573196
O13	O	1.103808	0.145887	0.073189
O14	O	1.603808	0.645887	0.573189
Zn15	Zn	0.982819	0.154963	0.096445
Zn16	Zn	1.482819	0.654963	0.596445
Zn17	Zn	0.982830	0.154967	-0.096518
Zn18	Zn	1.482830	0.654967	0.403482
O19	O	0.976948	0.320186	0.073186
O20	O	1.476948	0.820186	0.573186
C21	C	0.830858	0.163307	-0.000032
C22	C	1.330858	0.663307	0.499968
C23	C	0.738552	0.161102	-0.000029
C24	C	1.238552	0.661102	0.499971
C25	C	0.526183	0.156001	0.079796
C26	C	1.026183	0.656001	0.579796
C27	C	0.439453	0.153917	0.079793
C28	C	0.939453	0.653917	0.579793
C29	C	0.439472	0.153926	-0.079883
C30	C	0.939472	0.653926	0.420117
C31	C	0.526202	0.156002	-0.079879
C32	C	1.026202	0.656002	0.420121
C33	C	0.569554	0.157045	-0.000037
C34	C	1.069554	0.657045	0.499963
C35	C	0.396095	0.152885	-0.000044
C36	C	0.896095	0.652885	0.499956
C37	C	0.302059	0.150625	-0.000048
C38	C	0.802059	0.650625	0.499952
C39	C	0.663596	0.159303	-0.000033
C40	C	1.163596	0.659303	0.499967
C41	C	0.987959	-0.052541	-0.000031
C42	C	1.487959	0.447459	0.499969
C43	C	0.985751	-0.178536	-0.000031
C44	C	1.485751	0.321464	0.499969
C45	C	0.981690	-0.409212	-0.000046
C46	C	1.481690	0.090788	0.499954
C47	C	0.983946	-0.280847	-0.000038
C48	C	1.483946	0.219153	0.499962
C49	C	1.134791	0.146623	-0.000043
C50	C	1.634791	0.646623	0.499957
C51	C	1.227097	0.148829	-0.000051
C52	C	1.727097	0.648829	0.499949
C53	C	0.977690	0.362472	-0.000044
C54	C	1.477690	0.862472	0.499956
C55	C	0.979898	0.488466	-0.000049
C56	C	1.479898	0.988466	0.499951
N57	N	0.982817	0.154961	0.228138
N58	N	1.482817	0.654961	0.728138
N59	N	0.982838	0.154961	-0.228211
N60	N	1.482838	0.654961	0.271789
C61	C	1.039010	0.077807	0.453862
C62	C	1.539010	0.577807	0.953862
C63	C	1.039013	0.077804	0.546052
C64	C	1.539013	0.577804	1.046052
C65	C	0.926639	0.232118	0.546059
C66	C	1.426639	0.732118	1.046059
C67	C	0.926633	0.232114	0.453871
C68	C	1.426633	0.732114	0.953871
C69	C	0.982823	0.154960	0.407775
C70	C	1.482823	0.654960	0.907775
C71	C	0.982832	0.154961	0.592152
C72	C	1.482832	0.654961	1.092152
C73	C	0.982834	0.154959	0.692109
C74	C	1.482834	0.654959	1.192109
C75	C	0.982820	0.154961	0.307812
C76	C	1.482820	0.654961	0.807812
H77	H	0.561477	0.156851	0.144809
H78	H	1.061477	0.656851	0.644809
C79	C	0.864824	0.316989	0.403166
C80	C	1.364824	0.816989	0.903166
C81	C	0.803048	0.401899	0.453864
C82	C	1.303048	0.901899	0.953864
C83	C	0.741240	0.486765	0.403159
C84	C	1.241240	0.986765	0.903159
C85	C	0.741209	0.486722	0.301756
C86	C	1.241209	0.986722	0.801756
C87	C	0.802988	0.401808	0.251052
C88	C	1.302988	0.901808	0.751052
C89	C	0.864796	0.316942	0.301757
C90	C	1.364796	0.816942	0.801757
H91	H	0.803068	0.401934	0.528934
H92	H	1.303068	0.901934	1.028934
H93	H	0.695507	0.549624	0.440694
H94	H	1.195507	1.049624	0.940694
H95	H	0.695455	0.549545	0.264221
H96	H	1.195455	1.049545	0.764221
H97	H	0.802967	0.401773	0.175982
H98	H	1.302967	0.901773	0.675982
H99	H	0.910529	0.254084	0.264223
H100	H	1.410529	0.754084	0.764223
H101	H	0.561516	0.156849	-0.144892
H102	H	1.061516	0.656849	0.355108
H103	H	1.084763	0.014982	0.416333
H104	H	1.584763	0.514982	0.916333
H105	H	0.404144	0.153067	0.144801
H106	H	0.904144	0.653067	0.644801
H107	H	1.084764	0.014978	0.583574
H108	H	1.584764	0.514978	1.083574
H109	H	0.404164	0.153077	-0.144887
H110	H	0.904164	0.653077	0.355113
H111	H	0.880891	0.294937	0.583599
H112	H	1.380891	0.794937	1.083599
