data_functionalizedCrystal
_audit_creation_method	'MofGen! by Chris Wilmer'
_symmetry_space_group_name_H-M	'P1'
_symmetry_Int_Tables_number	1
_symmetry_cell_setting	triclinic
loop_
_symmetry_equiv_pos_as_xyz
  x,y,z
_cell_length_a	12.759401
_cell_length_b	10.686285
_cell_length_c	12.759393
_cell_angle_alpha	85.601879
_cell_angle_beta	89.982620
_cell_angle_gamma	85.631983
loop_
_atom_site_label
_atom_site_type_symbol
_atom_site_fract_x
_atom_site_fract_y
_atom_site_fract_z
Zn1	Zn	1.638381	-0.502268	-0.561964
Zn2	Zn	1.651782	-0.713313	-0.372831
Zn3	Zn	1.462691	-0.502335	-0.386299
Zn4	Zn	1.476169	-0.713215	-0.548479
O5	O	1.557256	-0.607783	-0.467393
O6	O	1.787181	-0.530277	-0.536882
O7	O	1.626667	-0.685395	-0.227592
O8	O	1.474747	-0.325749	-0.420882
O9	O	1.797027	-0.685330	-0.397927
O10	O	1.603826	-0.325700	-0.549942
O11	O	1.487742	-0.530391	-0.237487
O12	O	1.317457	-0.530296	-0.407805
O13	O	1.497719	-0.685164	-0.697293
O14	O	1.327359	-0.685228	-0.526958
O15	O	1.616896	-0.530182	-0.707201
O16	O	1.639736	-0.889877	-0.384851
O17	O	1.510714	-0.889805	-0.513899
C18	C	1.284287	-0.607760	-0.467380
C19	C	1.167512	-0.607780	-0.467398
C20	C	1.117842	-0.688583	-0.529321
C21	C	1.008119	-0.688599	-0.529332
C22	C	0.997745	-0.527006	-0.405487
C23	C	1.107466	-0.526985	-0.405483
C24	C	1.123830	-0.781881	-0.600819
C25	C	1.014107	-0.781897	-0.600829
C26	C	1.578170	-0.935625	-0.446473
C27	C	1.587214	-1.075877	-0.437558
C28	C	1.831291	-0.607807	-0.467407
C29	C	1.948068	-0.607817	-0.467412
C30	C	1.557316	-0.607654	-0.741435
C31	C	1.557341	-0.607600	-0.858215
C32	C	1.536288	-0.278660	-0.488418
C33	C	1.527353	-0.138408	-0.497378
C34	C	1.485031	-0.526874	-0.918236
C35	C	1.485060	-0.526836	-1.027963
C36	C	1.629720	-0.688254	-1.017637
C37	C	1.629685	-0.688297	-0.907912
C38	C	1.401515	-0.433677	-0.924199
C39	C	1.401545	-0.433639	-1.033926
C40	C	1.557251	-0.607820	-0.194423
C41	C	1.557406	-0.607519	-0.077667
H42	H	1.151969	-0.755819	-0.683887
O43	O	1.450296	-1.067198	-0.574248
H44	H	1.407861	-1.135060	-0.616654
H45	H	0.977876	-0.747014	-0.680405
O46	O	0.982904	-0.911302	-0.563513
H47	H	1.054644	-0.974639	-0.545225
O48	O	1.664284	-1.147082	-0.360687
H49	H	1.659544	-1.249764	-0.365518
O50	O	1.707682	-0.775355	-0.843170
H51	H	1.758001	-0.831444	-0.896165
O52	O	1.176765	-0.904774	-0.554197
H53	H	1.154863	-0.982586	-0.600653
H54	H	1.688620	-0.753953	-1.058114
O55	O	1.295928	-0.468333	-0.882530
H56	H	1.244266	-0.485282	-0.949149
H57	H	1.424741	-0.340863	-0.896100
H58	H	1.326486	-0.468620	-1.065722
O59	O	1.422230	-0.304223	-1.081717
H60	H	1.359794	-0.234570	-1.057179
O61	O	1.161030	-0.439839	-0.338679
H62	H	1.133644	-0.340835	-0.363144
O63	O	0.932985	-0.439895	-0.338680
H64	H	0.848345	-0.453496	-0.349072
