data_functionalizedCrystal
_audit_creation_method	'MofGen! by Chris Wilmer'
_symmetry_space_group_name_H-M	'P1'
_symmetry_Int_Tables_number	1
_symmetry_cell_setting	triclinic
loop_
_symmetry_equiv_pos_as_xyz
  x,y,z
_cell_length_a	14.044220
_cell_length_b	17.666332
_cell_length_c	14.044220
_cell_angle_alpha	90.010611
_cell_angle_beta	86.811122
_cell_angle_gamma	90.014031
loop_
_atom_site_label
_atom_site_type_symbol
_atom_site_fract_x
_atom_site_fract_y
_atom_site_fract_z
O1	O	1.277150	-0.062871	-0.230173
O2	O	1.777150	0.437129	0.269827
O3	O	1.000478	-0.062890	-0.221868
O4	O	1.500478	0.437110	0.278132
O5	O	1.134661	-0.062873	-0.087685
O6	O	1.634661	0.437127	0.412315
O7	O	1.142967	-0.062888	-0.364356
O8	O	1.642967	0.437112	0.135644
O9	O	1.134685	0.063024	-0.087668
O10	O	1.634685	0.563024	0.412332
O11	O	1.000502	0.063007	-0.221850
O12	O	1.500502	0.563007	0.278150
O13	O	1.277173	0.063026	-0.230156
O14	O	1.777173	0.563026	0.269844
Cu15	Cu	1.138840	0.074512	-0.226002
Cu16	Cu	1.638840	0.574512	0.273998
Cu17	Cu	1.138812	-0.074376	-0.226022
Cu18	Cu	1.638812	0.425624	0.273978
O19	O	1.142990	0.063009	-0.364339
O20	O	1.642990	0.563009	0.135661
C21	C	0.964868	0.000056	-0.218223
C22	C	1.464868	0.500056	0.281777
C23	C	0.858725	0.000049	-0.207379
C24	C	1.358725	0.500049	0.292621
C25	C	0.664388	0.000065	-0.187553
C26	C	1.164388	0.500065	0.312447
C27	C	0.613258	0.000064	-0.264467
C28	C	1.113258	0.500064	0.235533
C29	C	0.505122	0.000073	-0.253435
C30	C	1.005122	0.500073	0.246565
C31	C	0.772534	0.000056	-0.198583
C32	C	1.272534	0.500056	0.301417
N33	N	1.138792	-0.179095	-0.226029
N34	N	1.638792	0.320905	0.273971
C35	C	1.201483	-0.218708	-0.288964
C36	C	1.701483	0.281292	0.211036
C37	C	1.201489	-0.297956	-0.288965
C38	C	1.701489	0.202044	0.211035
C39	C	1.138814	-0.337587	-0.226016
C40	C	1.638814	0.162413	0.273984
C41	C	1.076111	-0.297965	-0.163076
C42	C	1.576111	0.202035	0.336924
C43	C	1.076100	-0.218719	-0.163083
C44	C	1.576100	0.281281	0.336917
N45	N	1.129359	-0.461996	-0.142141
N46	N	1.629359	0.038004	0.357859
N47	N	1.129375	-0.537277	-0.142137
N48	N	1.629375	-0.037277	0.357863
C49	C	1.138842	-0.576351	-0.225992
C50	C	1.638842	-0.076351	0.274008
N51	N	1.148311	-0.537301	-0.309854
N52	N	1.648311	-0.037301	0.190146
N53	N	1.148300	-0.462014	-0.309857
N54	N	1.648300	0.037986	0.190143
C55	C	1.138819	-0.423516	-0.226002
C56	C	1.638819	0.076484	0.273998
C57	C	1.201544	-0.701894	-0.288934
C58	C	1.701544	-0.201894	0.211066
C59	C	1.201543	-0.781143	-0.288937
C60	C	1.701543	-0.281143	0.211063
C61	C	1.076170	-0.781150	-0.163039
C62	C	1.576170	-0.281150	0.336961
C63	C	1.076166	-0.701903	-0.163045
C64	C	1.576166	-0.201903	0.336955
C65	C	1.138857	-0.662279	-0.225991
C66	C	1.638857	-0.162279	0.274009
C67	C	1.312783	0.000078	-0.233800
C68	C	1.812783	0.500078	0.266200
C69	C	1.418926	0.000080	-0.244645
C70	C	1.918926	0.500080	0.255355
C71	C	1.131037	0.000075	-0.052054
C72	C	1.631037	0.500075	0.447946
C73	C	1.120193	0.000075	0.054088
C74	C	1.620193	0.500075	0.554088
N75	N	1.138866	0.179231	-0.225987
N76	N	1.638866	0.679231	0.274013
C77	C	1.146614	0.000059	-0.399969
C78	C	1.646614	0.500059	0.100031
C79	C	1.157459	0.000054	-0.506112
C80	C	1.657459	0.500054	-0.006112
C81	C	1.100366	0.000063	0.248426
C82	C	1.600366	0.500063	0.748426
C83	C	1.177281	0.000066	0.299556
C84	C	1.677281	0.500066	0.799556
C85	C	1.166249	0.000059	0.407692
C86	C	1.666249	0.500059	0.907692
C87	C	1.111397	0.000070	0.140280
C88	C	1.611397	0.500070	0.640280
H89	H	1.252530	-0.186452	-0.340221
H90	H	1.752530	0.313548	0.159779
C91	C	0.613811	0.000069	-0.087408
C92	C	1.113811	0.500069	0.412592
N93	N	0.575706	0.000067	-0.011979
N94	N	1.075706	0.500067	0.488021
H95	H	1.251414	0.000020	0.262117
H96	H	1.751414	0.500020	0.762117
C97	C	1.270462	-0.341539	-0.358196
C98	C	1.770462	0.158461	0.141804
N99	N	1.322415	-0.374363	-0.410339
N100	N	1.822415	0.125637	0.089661
C101	C	0.663834	0.000045	-0.364619
C102	C	1.163834	0.500045	0.135381
N103	N	0.701933	0.000027	-0.440050
N104	N	1.201933	0.500027	0.059950
H105	H	1.026239	0.000056	0.285863
H106	H	1.526239	0.500056	0.785863
C107	C	1.007204	-0.658327	-0.093806
C108	C	1.507204	-0.158327	0.406194
N109	N	0.955258	-0.625506	-0.041654
N110	N	1.455258	-0.125506	0.458346
H111	H	1.025047	-0.186466	-0.111833
H112	H	1.525047	0.313534	0.388167
C113	C	1.007245	-0.341561	-0.093755
C114	C	1.507245	0.158439	0.406245
N115	N	0.955398	-0.374398	-0.041515
N116	N	1.455398	0.125602	0.458485
C117	C	1.270502	-0.658305	-0.358178
C118	C	1.770502	-0.158305	0.141822
N119	N	1.322443	-0.625476	-0.410333
N120	N	1.822443	-0.125476	0.089667
H121	H	1.025133	-0.813417	-0.111790
H122	H	1.525133	-0.313417	0.388210
C123	C	1.270513	-0.824717	-0.358173
C124	C	1.770513	-0.324717	0.141827
N125	N	1.322464	-0.857537	-0.410321
N126	N	1.822464	-0.357537	0.089679
