data_functionalizedCrystal
_audit_creation_method	'MofGen! by Chris Wilmer'
_symmetry_space_group_name_H-M	'P1'
_symmetry_Int_Tables_number	1
_symmetry_cell_setting	triclinic
loop_
_symmetry_equiv_pos_as_xyz
  x,y,z
_cell_length_a	31.640172
_cell_length_b	31.640172
_cell_length_c	15.698487
_cell_angle_alpha	59.998182
_cell_angle_beta	89.995948
_cell_angle_gamma	60.000198
loop_
_atom_site_label
_atom_site_type_symbol
_atom_site_fract_x
_atom_site_fract_y
_atom_site_fract_z
Zr1	Zr	0.407239	0.462546	-0.111812
O2	O	0.339760	0.550721	-0.247822
O3	O	0.427916	0.374376	-0.070118
O4	O	0.427926	0.462545	-0.247831
O5	O	0.339753	0.462550	0.070075
O6	O	0.497482	0.462538	-0.247837
O7	O	0.339751	0.462552	-0.070109
O8	O	0.497465	0.304820	0.070059
O9	O	0.339769	0.620268	-0.247820
O10	O	0.488654	0.410634	-0.052339
O11	O	0.436747	0.410638	0.052283
O12	O	0.436758	0.514446	-0.156951
O13	O	0.384851	0.514450	-0.052329
Zr14	Zr	0.518177	0.462532	0.111758
Zr15	Zr	0.518173	0.462534	-0.111821
Zr16	Zr	0.407243	0.462543	0.111767
Zr17	Zr	0.407254	0.573466	-0.111809
Zr18	Zr	0.518161	0.351611	0.111755
O19	O	0.497499	0.550701	0.070064
O20	O	0.497494	0.550705	-0.247835
O21	O	0.339765	0.550717	0.070077
O22	O	0.585656	0.374356	0.247768
O23	O	0.585651	0.374360	-0.070131
O24	O	0.427922	0.374372	0.247781
O25	O	0.585663	0.462527	-0.070129
O26	O	0.497490	0.462532	0.247777
O27	O	0.427934	0.462539	0.247783
O28	O	0.585665	0.462525	0.070055
O29	O	0.427947	0.620259	-0.247828
O30	O	0.497468	0.304818	0.247774
O31	O	0.585646	0.304809	0.247766
O32	O	0.585643	0.304811	0.070052
O33	O	0.339772	0.620266	-0.070106
O34	O	0.427950	0.620257	-0.070113
O35	O	0.488658	0.410632	0.156897
O36	O	0.540565	0.410628	0.052275
O37	O	0.488669	0.514439	-0.052337
O38	O	0.436761	0.514443	0.052285
C39	C	0.462689	0.323794	-0.000030
C40	C	0.462682	0.276706	-0.000031
C41	C	0.323946	0.462553	-0.000016
C42	C	0.276852	0.462558	-0.000012
C43	C	0.489813	-0.015338	-0.054629
C44	C	0.489824	-0.192334	-0.054629
O45	O	0.512886	-0.215241	-0.101036
N46	N	0.462728	-0.214461	-0.000019
C47	C	0.435631	-0.192339	0.054600
O48	O	0.412589	-0.215225	0.101058
C49	C	0.435623	-0.015347	0.054605
C50	C	0.462717	0.006782	-0.000017
C51	C	0.516905	0.006790	-0.109246
C52	C	0.516900	0.051039	-0.109250
C53	C	0.489803	0.073159	-0.054638
C54	C	0.462711	0.051030	-0.000021
C55	C	0.408529	0.006771	0.109230
C56	C	0.408531	0.051021	0.109228
C57	C	0.435624	0.073150	0.054606
C58	C	0.435609	0.117399	0.054587
N59	N	0.462705	0.139526	-0.000023
C60	C	0.489802	0.117406	-0.054635
C61	C	0.435636	-0.285261	0.054592
C62	C	0.435637	-0.329508	0.054589
C63	C	0.489831	-0.329501	-0.054638
C64	C	0.489826	-0.285250	-0.054641
C65	C	0.462731	-0.263135	-0.000018
C66	C	0.489788	0.210332	-0.054641
C67	C	0.489779	0.254586	-0.054643
C68	C	0.435587	0.254572	0.054588
C69	C	0.435594	0.210324	0.054587
C70	C	0.462699	0.188203	-0.000029
O71	O	0.412564	0.140328	0.100980
O72	O	0.512850	0.140290	-0.101067
C73	C	0.489819	-0.059587	-0.054625
C74	C	0.462727	-0.081715	-0.000008
C75	C	0.435630	-0.059595	0.054604
C76	C	0.462728	-0.125962	-0.000011
C77	C	0.489825	-0.148082	-0.054623
C78	C	0.516921	-0.125956	-0.109233
C79	C	0.516915	-0.081707	-0.109237
C80	C	0.408535	-0.081722	0.109214
C81	C	0.408542	-0.125970	0.109212
C82	C	0.435638	-0.148090	0.054600
C83	C	-0.015155	0.462529	-0.077254
C84	C	-0.192142	0.462521	-0.077261
O85	O	-0.215015	0.462496	-0.142916
N86	N	-0.214271	0.462522	-0.000034
C87	C	-0.192149	0.462520	0.077205
O88	O	-0.215030	0.462514	0.142898
C89	C	-0.015161	0.462523	0.077217
C90	C	0.006963	0.462529	-0.000022
C91	C	0.006969	0.462534	-0.154486
C92	C	0.051212	0.462539	-0.154486
C93	C	0.073330	0.462539	-0.077255
C94	C	0.051205	0.462534	-0.000023
C95	C	0.006962	0.462517	0.154459
C96	C	0.051212	0.462516	0.154457
C97	C	0.073337	0.462522	0.077218
C98	C	0.117565	0.462539	0.077208
N99	N	0.139695	0.462539	-0.000020
C100	C	0.117577	0.462539	-0.077251
C101	C	-0.285071	0.462519	0.077193
C102	C	-0.329318	0.462520	0.077189
C103	C	-0.329307	0.462520	-0.077277
C104	C	-0.285061	0.462524	-0.077277
C105	C	-0.262941	0.462519	-0.000035
C106	C	0.210489	0.462550	-0.077247
C107	C	0.254734	0.462558	-0.077243
C108	C	0.254720	0.462554	0.077225
C109	C	0.210478	0.462550	0.077219
C110	C	0.188364	0.462546	-0.000022
O111	O	0.140470	0.462558	0.142835
O112	O	0.140472	0.462532	-0.142921
C113	C	-0.059397	0.462524	-0.077253
C114	C	-0.081522	0.462519	-0.000021
C115	C	-0.059404	0.462519	0.077210
C116	C	-0.125769	0.462519	-0.000025
C117	C	-0.147887	0.462519	-0.077256
C118	C	-0.125758	0.462518	-0.154484
C119	C	-0.081515	0.462524	-0.154484
C120	C	-0.081533	0.462519	0.154438
C121	C	-0.125776	0.462514	0.154432
C122	C	-0.147894	0.462514	0.077200
C123	C	0.601470	0.462524	-0.000038
C124	C	0.648564	0.462520	-0.000042
C125	C	0.462703	0.462542	-0.279689
C126	C	0.462702	0.462543	-0.374604
C127	C	0.462727	0.601283	-0.000024
C128	C	0.462733	0.648371	-0.000023
C129	C	0.462713	0.462533	-0.548368
C130	C	0.462708	0.462536	-0.451671
C131	C	0.462712	0.462535	0.279635
C132	C	0.462714	0.462534	0.374550
C133	C	0.601450	0.323780	-0.000041
C134	C	0.648538	0.276687	-0.000046
C135	C	0.462693	0.323791	0.279632
C136	C	0.462688	0.276701	0.374546
C137	C	0.601455	0.323777	0.279621
C138	C	0.648545	0.276682	0.374531
C139	C	0.323961	0.601300	-0.279675
C140	C	0.276871	0.648395	-0.374585
C141	C	0.323965	0.601297	-0.000013
C142	C	0.276877	0.648391	-0.000008
C143	C	0.462722	0.601286	-0.279686
C144	C	0.462727	0.648376	-0.374600
C145	C	0.643555	0.254575	-0.054665
C146	C	0.687795	0.210332	-0.054691
C147	C	0.737018	0.188198	-0.000090
C148	C	0.742001	0.210315	0.054530
C149	C	0.697761	0.254560	0.054549
C150	C	0.489783	0.254584	0.473735
C151	C	0.489776	0.210345	0.562925
C152	C	0.462678	0.188220	0.552923
C153	C	0.435580	0.210342	0.453724
C154	C	0.435584	0.254583	0.364536
C155	C	0.697758	0.254564	0.364489
C156	C	0.742008	0.210320	0.453659
C157	C	0.737043	0.188192	0.552868
C158	C	0.687824	0.210314	0.562907
C159	C	0.643576	0.254561	0.473739
C160	C	0.227658	0.670519	-0.364543
C161	C	0.183408	0.714776	-0.453713
C162	C	0.188372	0.736907	-0.552922
C163	C	0.237591	0.714782	-0.562961
C164	C	0.281840	0.670527	-0.473793
C165	C	0.281861	0.670507	0.054602
C166	C	0.237621	0.714763	0.054603
C167	C	0.188398	0.736897	-0.000001
C168	C	0.183415	0.714779	-0.054617
C169	C	0.227654	0.670527	-0.054623
C170	C	0.489831	0.670486	-0.364565
C171	C	0.489846	0.714726	-0.453738
C172	C	0.462753	0.736858	-0.552944
C173	C	0.435649	0.714743	-0.562977
C174	C	0.435637	0.670501	-0.473805
H175	H	0.511860	0.192325	-0.099113
H176	H	0.511893	0.652474	-0.283794
N177	N	0.593310	0.277144	0.484023
N178	N	0.588890	0.257377	0.572614
H179	H	0.553391	0.273324	0.579885
H180	H	0.603479	0.272595	-0.099140
H181	H	0.511850	0.272593	0.481898
N182	N	0.380858	0.073616	0.165024
N183	N	0.404439	0.068680	0.236925
H184	H	0.384894	0.084639	0.276329
H185	H	0.413526	0.192313	0.099050
N186	N	0.407999	0.737353	-0.664336
N187	N	0.431610	0.732406	-0.726251
H188	H	0.412087	0.748378	-0.797846
H189	H	0.462767	0.772883	-0.625546
N190	N	0.407946	0.647926	-0.484083
N191	N	0.383760	0.667696	-0.572671
H192	H	0.364202	0.651754	-0.579939
H193	H	0.462679	0.152196	0.625554
H194	H	0.241627	0.732806	-0.643748
H195	H	0.511841	0.272603	-0.099127
N196	N	0.782240	0.142995	0.643957
N197	N	0.789903	0.152868	0.708150
H198	H	0.821824	0.120947	0.772480
H199	H	0.386470	-0.063718	0.153689
H200	H	0.413522	0.272585	0.283775
N201	N	0.702847	0.277152	0.263165
N202	N	0.746796	0.257393	0.254233
H203	H	0.750394	0.273344	0.182675
H204	H	0.683727	0.192330	-0.099169
H205	H	0.386474	-0.143981	0.153689
H206	H	0.413524	0.272592	0.099048
H207	H	0.538963	0.069052	-0.153724
N208	N	0.517460	0.187760	0.664238
N209	N	0.541657	0.207518	0.673143
H210	H	0.561209	0.191569	0.744693
N211	N	0.544591	-0.015797	-0.165035
N212	N	0.568777	0.003973	-0.213788
H213	H	0.588331	-0.011973	-0.253199
H214	H	0.192489	0.462546	-0.140143
H215	H	-0.347323	0.462521	-0.140163
H216	H	0.511888	-0.267236	-0.099118
H217	H	0.511893	-0.347518	-0.099107
H218	H	0.321911	0.652515	-0.481981
N219	N	0.277321	0.462532	0.156144
N220	N	0.293326	0.420615	0.250073
H221	H	0.309290	0.420591	0.305822
H222	H	0.241688	0.732764	0.099082
N223	N	0.332134	0.647908	0.110392
N224	N	0.336567	0.667670	0.159137
H225	H	0.372071	0.651713	0.198539
N226	N	0.277337	0.462566	-0.156140
N227	N	0.281075	0.504473	-0.215603
H228	H	0.297038	0.504478	-0.271321
N229	N	0.792279	0.187715	0.443389
N230	N	0.823009	0.133394	0.480959
H231	H	0.858512	0.117429	0.473704
N232	N	0.143216	0.782101	0.000018
N233	N	0.147679	0.801839	0.048787
H234	H	0.115771	0.833764	0.048806
N235	N	0.133129	0.737400	-0.110388
N236	N	0.093638	0.776908	-0.110362
H237	H	0.058122	0.792884	-0.149745
H238	H	0.683790	0.192291	0.643696
N239	N	0.782210	0.142994	-0.000088
N240	N	0.826159	0.123230	0.048671
H241	H	0.858075	0.091303	0.048674
N242	N	0.222569	0.647923	-0.263219
N243	N	0.178620	0.667691	-0.254287
H244	H	0.175022	0.651738	-0.182729
H245	H	0.223589	0.652521	-0.099090
H246	H	-0.267064	0.462516	0.140094
H247	H	0.782084	0.192287	0.098984
N248	N	0.133141	0.737365	-0.443425
N249	N	0.128720	0.717592	-0.354836
H250	H	0.093220	0.733544	-0.347566
H251	H	0.511917	0.732728	-0.445548
H252	H	0.413568	-0.347515	0.099055
N253	N	-0.262467	0.462524	-0.156175
N254	N	-0.282225	0.462522	-0.225120
H255	H	-0.266269	0.462519	-0.280843
N256	N	0.407955	-0.262682	0.110400
N257	N	0.383767	-0.282448	0.159149
H258	H	0.364215	-0.266502	0.198562
H259	H	0.192459	0.462554	0.140105
H260	H	0.386468	-0.011240	0.153710
H261	H	0.152338	0.772941	-0.625520
N262	N	0.702856	0.277148	0.110338
N263	N	0.725948	0.301829	0.087184
H264	H	0.729550	0.317781	0.126585
H265	H	0.413517	0.192321	0.445596
N266	N	0.544591	-0.148545	-0.165038
N267	N	0.521006	-0.143607	-0.236939
H268	H	0.540548	-0.159563	-0.276348
H269	H	0.538977	-0.063693	-0.153715
N270	N	0.073796	0.462555	-0.233402
N271	N	0.054032	0.462560	-0.302353
H272	H	0.069978	0.462574	-0.358095
H273	H	-0.347333	0.462524	0.140075
N274	N	-0.015610	0.462530	-0.233386
N275	N	0.004158	0.462532	-0.302328
H276	H	-0.011787	0.462533	-0.358061
N277	N	-0.058927	0.462531	-0.233393
N278	N	-0.078688	0.462532	-0.302338
H279	H	-0.062738	0.462537	-0.358071
H280	H	0.069221	0.462510	0.217359
N281	N	-0.015630	0.462514	0.233357
N282	N	-0.031635	0.504411	0.242859
H283	H	-0.047589	0.504407	0.298589
N284	N	-0.148363	0.462522	-0.233370
N285	N	-0.187867	0.462517	-0.233347
H286	H	-0.203833	0.462517	-0.289054
H287	H	-0.143789	0.462514	0.217328
H288	H	-0.063528	0.462518	0.217330
