data_functionalizedCrystal
_audit_creation_method	'MofGen! by Chris Wilmer'
_symmetry_space_group_name_H-M	'P1'
_symmetry_Int_Tables_number	1
_symmetry_cell_setting	triclinic
loop_
_symmetry_equiv_pos_as_xyz
  x,y,z
_cell_length_a	16.959455
_cell_length_b	16.959454
_cell_length_c	17.077396
_cell_angle_alpha	90.024735
_cell_angle_beta	90.024524
_cell_angle_gamma	90.017095
loop_
_atom_site_label
_atom_site_type_symbol
_atom_site_fract_x
_atom_site_fract_y
_atom_site_fract_z
Zn1	Zn	1.208416	-0.314744	0.443968
Zn2	Zn	1.708416	0.185256	0.943968
Zn3	Zn	1.208329	-0.446932	0.312711
Zn4	Zn	1.708329	0.053068	0.812711
Zn5	Zn	1.076235	-0.314765	0.312705
Zn6	Zn	1.576235	0.185235	0.812705
Zn7	Zn	1.076209	-0.446878	0.443923
Zn8	Zn	1.576209	0.053122	0.943923
O9	O	1.142297	-0.380830	0.378327
O10	O	1.642297	0.119170	0.878327
O11	O	1.319016	-0.332294	0.426578
O12	O	1.819016	0.167706	0.926578
O13	O	1.190781	-0.429431	0.202863
O14	O	1.690781	0.070569	0.702863
O15	O	1.093816	-0.204151	0.330134
O16	O	1.593816	0.295849	0.830134
O17	O	1.318952	-0.429411	0.330144
O18	O	1.818952	0.070589	0.830144
O19	O	1.190929	-0.204136	0.426572
O20	O	1.690929	0.295864	0.926572
O21	O	1.093732	-0.332328	0.202859
O22	O	1.593732	0.167672	0.702859
O23	O	0.965621	-0.332276	0.330090
O24	O	1.465621	0.167724	0.830090
O25	O	1.093772	-0.429319	0.553776
O26	O	1.593772	0.070681	1.053776
O27	O	0.965602	-0.429339	0.426495
O28	O	1.465602	0.070661	0.926495
O29	O	1.190904	-0.332241	0.553809
O30	O	1.690904	0.167759	1.053809
O31	O	1.190756	-0.557536	0.330100
O32	O	1.690756	-0.057536	0.830100
O33	O	1.093688	-0.557496	0.426501
O34	O	1.593688	-0.057496	0.926501
C35	C	0.936931	-0.380804	0.378287
C36	C	1.436931	0.119196	0.878287
C37	C	0.849075	-0.380812	0.378289
C38	C	1.349075	0.119188	0.878289
C39	C	0.477555	-0.431349	0.328088
C40	C	0.977555	0.068651	0.828088
C41	C	0.477643	-0.330376	0.428661
C42	C	0.977643	0.169624	0.928661
C43	C	0.560189	-0.330363	0.428642
C44	C	1.060189	0.169637	0.928642
C45	C	0.601422	-0.380845	0.378346
C46	C	1.101422	0.119155	0.878346
C47	C	0.560109	-0.431339	0.328069
C48	C	1.060109	0.068661	0.828069
C49	C	0.601508	-0.279875	0.478924
C50	C	1.101508	0.220125	0.978924
C51	C	0.684059	-0.279861	0.478907
C52	C	1.184059	0.220139	0.978907
C53	C	0.725293	-0.330339	0.428607
C54	C	1.225293	0.169661	0.928607
C55	C	0.683975	-0.380835	0.378327
C56	C	1.183975	0.119165	0.878327
C57	C	0.725208	-0.431316	0.328031
C58	C	1.225208	0.068684	0.828031
C59	C	0.683891	-0.481809	0.277746
C60	C	1.183891	0.018191	0.777746
C61	C	0.601343	-0.481817	0.277768
C62	C	1.101343	0.018183	0.777768
C63	C	0.807842	-0.330331	0.428585
C64	C	1.307842	0.169669	0.928585
C65	C	0.807761	-0.431306	0.328012
C66	C	1.307761	0.068694	0.828012
C67	C	1.142231	-0.586196	0.378313
C68	C	1.642231	-0.086196	0.878313
C69	C	1.142275	-0.674053	0.378334
C70	C	1.642275	-0.174053	0.878334
C71	C	1.091828	-1.045537	0.428517
C72	C	1.591828	-0.545537	0.928517
C73	C	1.192987	-1.045519	0.328216
C74	C	1.692987	-0.545519	0.828216
C75	C	1.192960	-0.962973	0.328209
C76	C	1.692960	-0.462973	0.828209
C77	C	1.142364	-0.921706	0.378356
C78	C	1.642364	-0.421706	0.878356
C79	C	1.091797	-0.962984	0.428510
C80	C	1.591797	-0.462984	0.928510
C81	C	1.243521	-0.921689	0.278050
C82	C	1.743521	-0.421689	0.778050
C83	C	1.243495	-0.839138	0.278040
C84	C	1.743495	-0.339138	0.778040
C85	C	1.192903	-0.797869	0.328192
C86	C	1.692903	-0.297869	0.828192
C87	C	1.142334	-0.839152	0.378348
C88	C	1.642334	-0.339152	0.878348
C89	C	1.091738	-0.797884	0.428495
C90	C	1.591738	-0.297884	0.928495
C91	C	1.041172	-0.839166	0.478657
C92	C	1.541172	-0.339166	0.978657
C93	C	1.041205	-0.921715	0.478662
C94	C	1.541205	-0.421715	0.978662
C95	C	1.192871	-0.715320	0.328187
C96	C	1.692871	-0.215320	0.828187
C97	C	1.091707	-0.715331	0.428488
C98	C	1.591707	-0.215331	0.928488
C99	C	1.348466	-0.380856	0.378367
C100	C	1.848466	0.119144	0.878367
C101	C	1.436322	-0.380868	0.378384
C102	C	1.936322	0.119132	0.878384
C103	C	1.142345	-0.380772	0.583071
C104	C	1.642345	0.119228	1.083071
C105	C	1.142366	-0.380747	0.670321
C106	C	1.642366	0.119253	1.170321
C107	C	1.142385	-0.174662	0.378357
C108	C	1.642385	0.325338	0.878357
C109	C	1.142423	-0.086805	0.378370
C110	C	1.642423	0.413195	0.878370
C111	C	1.142295	-0.380831	0.174379
C112	C	1.642295	0.119169	0.674379
C113	C	1.142428	-0.380633	0.087130
C114	C	1.642428	0.119367	0.587130
C115	C	1.192944	-0.330194	0.711330
C116	C	1.692944	0.169806	1.211330
C117	C	1.192954	-0.330168	0.793310
C118	C	1.692954	0.169832	1.293310
C119	C	1.142388	-0.380699	0.834280
C120	C	1.642388	0.119301	1.334280
C121	C	1.091804	-0.431254	0.793266
C122	C	1.591804	0.068746	1.293266
C123	C	1.091791	-0.431275	0.711287
C124	C	1.591791	0.068725	1.211287
C125	C	1.091836	-0.431206	0.964136
C126	C	1.591836	0.068794	1.464136
C127	C	1.091850	-0.431186	1.046121
C128	C	1.591850	0.068814	1.546121
C129	C	1.192998	-0.330098	1.046159
C130	C	1.692998	0.169902	1.546159
C131	C	1.192985	-0.330120	0.964180
C132	C	1.692985	0.169880	1.464180
C133	C	1.142402	-0.380676	0.923172
C134	C	1.642402	0.119324	1.423172
H135	H	0.841478	-0.289222	0.469527
H136	H	1.341478	0.210778	0.969527
H137	H	1.234123	-0.289048	0.677978
H138	H	1.734123	0.210952	1.177978
H139	H	1.050673	-0.472331	1.079477
H140	H	1.550673	0.027669	1.579477
H141	H	0.841327	-0.472412	0.287051
H142	H	1.341327	0.027588	0.787051
H143	H	1.050509	-0.681736	0.469327
H144	H	1.550509	-0.181736	0.969327
H145	H	1.234037	-0.681712	0.287343
H146	H	1.734037	-0.181712	0.787343
C147	C	0.432107	-0.486888	0.272778
C148	C	0.932107	0.013112	0.772778
N149	N	0.397874	-0.528721	0.231118
N150	N	0.897874	-0.028721	0.731118
C151	C	1.248595	-0.274557	0.838416
C152	C	1.748595	0.225443	1.338416
N153	N	1.290507	-0.232668	0.872389
N154	N	1.790507	0.267332	1.372389
H155	H	1.234165	-0.288978	0.930825
H156	H	1.734165	0.211022	1.430825
H157	H	0.717692	-0.238746	0.519852
H158	H	1.217692	0.261254	1.019852
H159	H	1.234184	-0.288932	1.079553
H160	H	1.734184	0.211068	1.579553
H161	H	1.050633	-0.472362	0.930749
H162	H	1.550633	0.027638	1.430749
H163	H	1.050660	-1.079153	0.469360
H164	H	1.550660	-0.579153	0.969360
C165	C	1.248631	-1.090916	0.273050
C166	C	1.748631	-0.590916	0.773050
N167	N	1.290544	-1.125113	0.231496
N168	N	1.790544	-0.625113	0.731496
C169	C	1.036174	-0.486831	0.838336
C170	C	1.536174	0.013169	1.338336
N171	N	0.994271	-0.528692	0.872282
N172	N	1.494271	-0.028692	1.372282
H173	H	1.284707	-0.955295	0.237217
H174	H	1.784707	-0.455295	0.737217
C175	C	0.985578	-0.967131	0.533825
C176	C	1.485578	-0.467131	1.033825
N177	N	0.943677	-1.001342	0.575370
N178	N	1.443677	-0.501342	1.075370
H179	H	1.050597	-0.472433	0.677899
H180	H	1.550597	0.027567	1.177899
H181	H	0.999974	-0.805557	0.519483
H182	H	1.499974	-0.305557	1.019483
H183	H	0.717474	-0.522915	0.236799
H184	H	1.217474	-0.022915	0.736799
H185	H	0.567695	-0.522925	0.236829
H186	H	1.067695	-0.022925	0.736829
C187	C	0.556147	-0.224331	0.534227
C188	C	1.056147	0.275669	1.034227
N189	N	0.521978	-0.182484	0.575875
N190	N	1.021978	0.317516	1.075875
C191	C	0.432284	-0.274838	0.483972
C192	C	0.932284	0.225162	0.983972
N193	N	0.398116	-0.232997	0.525627
N194	N	0.898116	0.267003	1.025627
C195	C	1.299113	-0.793735	0.222857
C196	C	1.799113	-0.293735	0.722857
N197	N	1.341004	-0.759537	0.181292
N198	N	1.841004	-0.259537	0.681292
