data_functionalizedCrystal
_audit_creation_method	'MofGen! by Chris Wilmer'
_symmetry_space_group_name_H-M	'P1'
_symmetry_Int_Tables_number	1
_symmetry_cell_setting	triclinic
loop_
_symmetry_equiv_pos_as_xyz
  x,y,z
_cell_length_a	14.971486
_cell_length_b	12.837942
_cell_length_c	13.448316
_cell_angle_alpha	89.994234
_cell_angle_beta	89.998199
_cell_angle_gamma	89.221535
loop_
_atom_site_label
_atom_site_type_symbol
_atom_site_fract_x
_atom_site_fract_y
_atom_site_fract_z
O1	O	1.198338	0.135106	-0.082576
O2	O	1.698338	0.635106	0.417424
O3	O	0.939302	0.151285	-0.082603
O4	O	1.439302	0.651285	0.417397
O5	O	1.063076	-0.007715	-0.082584
O6	O	1.563076	0.492285	0.417416
O7	O	1.074564	0.294105	-0.082595
O8	O	1.574564	0.794105	0.417405
O9	O	1.063058	-0.007724	0.082800
O10	O	1.563058	0.492276	0.582800
O11	O	0.939284	0.151275	0.082781
O12	O	1.439284	0.651275	0.582781
O13	O	1.198320	0.135096	0.082808
O14	O	1.698320	0.635096	0.582808
Cu15	Cu	1.068800	0.143185	0.097895
Cu16	Cu	1.568800	0.643185	0.597895
Cu17	Cu	1.068822	0.143196	-0.097690
Cu18	Cu	1.568822	0.643196	0.402310
O19	O	1.074546	0.294095	0.082789
O20	O	1.574546	0.794095	0.582789
C21	C	0.905907	0.150556	0.000086
C22	C	1.405907	0.650556	0.500086
C23	C	0.806427	0.148388	0.000075
C24	C	1.306427	0.648388	0.500075
C25	C	1.059187	-0.046345	0.000107
C26	C	1.559187	0.453655	0.500107
C27	C	1.047612	-0.161436	0.000104
C28	C	1.547612	0.338564	0.500104
C29	C	0.757077	0.241796	0.000073
C30	C	1.257077	0.741796	0.500073
C31	C	0.663606	0.239752	0.000088
C32	C	1.163606	0.739752	0.500088
C33	C	0.619486	0.144300	0.000098
C34	C	1.119486	0.644300	0.500098
C35	C	0.668842	0.050885	0.000103
C36	C	1.168842	0.550885	0.500103
C37	C	0.762313	0.052930	0.000095
C38	C	1.262313	0.552930	0.500095
C39	C	0.474021	0.046630	0.000117
C40	C	0.974021	0.546630	0.500117
C41	C	0.380545	0.044585	0.000123
C42	C	0.880545	0.544585	0.500123
C43	C	0.375314	0.233453	0.000110
C44	C	0.875314	0.733453	0.500110
C45	C	0.468784	0.235497	0.000102
C46	C	0.968784	0.735497	0.500102
C47	C	0.518135	0.142082	0.000105
C48	C	1.018135	0.642082	0.500105
C49	C	1.186755	-0.402222	0.000098
C50	C	1.686755	0.097778	0.500098
C51	C	1.175884	-0.510362	0.000095
C52	C	1.675884	-0.010362	0.500095
C53	C	1.015001	-0.485856	0.000089
C54	C	1.515001	0.014144	0.500089
C55	C	1.025872	-0.377717	0.000092
C56	C	1.525872	0.122283	0.500092
C57	C	1.111751	-0.335904	0.000098
C58	C	1.611751	0.164096	0.500098
C59	C	1.122621	-0.227763	0.000108
C60	C	1.622621	0.272237	0.500108
C61	C	0.961739	-0.203260	0.000094
C62	C	1.461739	0.296740	0.500094
C63	C	0.950868	-0.311399	0.000091
C64	C	1.450868	0.188601	0.500091
C65	C	1.231715	0.135824	0.000117
C66	C	1.731715	0.635824	0.500117
C67	C	1.331195	0.137993	0.000121
C68	C	1.831195	0.637993	0.500121
C69	C	1.078436	0.332726	0.000096
C70	C	1.578436	0.832726	0.500096
C71	C	1.090010	0.447817	0.000092
C72	C	1.590010	0.947817	0.500092
N73	N	1.068792	0.143176	0.235460
N74	N	1.568792	0.643176	0.735460
N75	N	1.068837	0.143197	-0.235255
N76	N	1.568837	0.643197	0.264745
C77	C	1.123620	0.072800	0.287508
C78	C	1.623620	0.572800	0.787508
C79	C	1.123626	0.072799	0.391612
C80	C	1.623626	0.572799	0.891612
C81	C	1.068807	0.143180	0.443664
C82	C	1.568807	0.643180	0.943664
C83	C	1.013972	0.213559	0.391608
C84	C	1.513972	0.713559	0.891608
C85	C	1.013963	0.213554	0.287507
C86	C	1.513963	0.713554	0.787507
C87	C	1.013998	0.213566	0.608588
C88	C	1.513998	0.713566	1.108588
C89	C	1.014008	0.213573	0.712697
C90	C	1.514008	0.713573	1.212697
C91	C	1.123661	0.072811	0.712693
C92	C	1.623661	0.572811	1.212693
C93	C	1.123651	0.072806	0.608592
C94	C	1.623651	0.572806	1.108592
C95	C	1.068818	0.143187	0.556543
C96	C	1.568818	0.643187	1.056543
H97	H	0.792993	0.319524	0.000065
H98	H	1.292993	0.819524	0.500065
F99	F	0.955633	0.288472	0.553198
F100	F	1.455633	0.788472	1.053198
F101	F	0.923609	-0.530375	0.000058
F102	F	1.423609	-0.030375	0.500058
F103	F	0.526542	-0.052794	0.000123
F104	F	1.026542	0.447206	0.500123
F105	F	0.322791	0.332873	0.000109
F106	F	0.822791	0.832873	0.500109
F107	F	0.881910	-0.132671	0.000104
F108	F	1.381910	0.367329	0.500104
F109	F	0.955603	0.288456	0.232114
F110	F	1.455603	0.788456	0.732114
F111	F	0.859474	-0.355911	0.000077
F112	F	1.359474	0.144089	0.500077
F113	F	1.181972	-0.002106	0.232120
F114	F	1.681972	0.497894	0.732120
H115	H	1.168271	0.015493	0.433989
H116	H	1.668271	0.515493	0.933989
F117	F	0.611087	0.339170	0.000082
F118	F	1.111087	0.839170	0.500082
F119	F	1.182000	-0.002094	0.553193
F120	F	1.682000	0.497906	1.053193
F121	F	0.621884	-0.050703	0.000120
F122	F	1.121884	0.449297	0.500120
F123	F	1.182019	-0.002092	0.768091
F124	F	1.682019	0.497908	1.268091
F125	F	0.333591	-0.057006	0.000159
F126	F	0.833591	0.442994	0.500159
F127	F	0.955624	0.288460	0.447007
F128	F	1.455624	0.788460	0.947007
H129	H	0.504704	0.313223	0.000085
H130	H	1.004704	0.813223	0.500085
H131	H	0.802492	-0.023133	0.000096
H132	H	1.302492	0.476867	0.500096
F133	F	0.955661	0.288481	0.768088
F134	F	1.455661	0.788481	1.268088
F135	F	1.214020	-0.183264	0.000120
F136	F	1.714020	0.316736	0.500120
H137	H	1.256681	-0.368178	0.000113
H138	H	1.756681	0.131822	0.500113
H139	H	1.236960	-0.564355	0.000092
H140	H	1.736960	-0.064355	0.500092
