data_functionalizedCrystal
_audit_creation_method	'MofGen! by Chris Wilmer'
_symmetry_space_group_name_H-M	'P1'
_symmetry_Int_Tables_number	1
_symmetry_cell_setting	triclinic
loop_
_symmetry_equiv_pos_as_xyz
  x,y,z
_cell_length_a	10.489741
_cell_length_b	9.798715
_cell_length_c	10.723024
_cell_angle_alpha	89.998022
_cell_angle_beta	95.496478
_cell_angle_gamma	90.001001
loop_
_atom_site_label
_atom_site_type_symbol
_atom_site_fract_x
_atom_site_fract_y
_atom_site_fract_z
O1	O	1.693940	0.113403	-0.176060
O2	O	1.322734	0.113424	-0.192587
O3	O	1.516899	0.113408	-0.002753
O4	O	1.499774	0.113419	-0.365895
O5	O	1.516885	-0.113574	-0.002752
O6	O	1.322719	-0.113558	-0.192586
O7	O	1.693925	-0.113579	-0.176060
Zn8	Zn	1.508320	-0.149607	-0.184323
Zn9	Zn	1.508339	0.149452	-0.184324
O10	O	1.499760	-0.113563	-0.365894
C11	C	1.275196	-0.000065	-0.191338
C12	C	1.133569	-0.000057	-0.187604
N13	N	1.508316	-0.353707	-0.184322
C14	C	1.515646	-0.000082	0.043748
C15	C	1.511917	-0.000077	0.182305
C16	C	1.065506	-0.000073	-0.066818
C17	C	0.973349	0.111840	-0.123876
C18	C	0.973369	-0.111947	-0.123905
C19	C	1.043278	0.111949	-0.244712
C20	C	1.043307	-0.111939	-0.244723
C21	C	0.951178	0.000002	-0.301869
C22	C	1.741464	-0.000088	-0.177308
C23	C	1.883091	-0.000087	-0.181043
C24	C	1.589841	-0.421490	-0.104264
C25	C	1.589861	-0.578653	-0.104260
N26	N	1.508353	0.353551	-0.184315
C27	C	1.501013	-0.000071	-0.412395
C28	C	1.504742	-0.000067	-0.550951
C29	C	1.620562	-0.000081	0.257221
C30	C	1.616711	-0.000076	0.400426
H31	H	1.115259	0.000064	0.032476
H32	H	1.659619	-0.363174	-0.035722
H33	H	0.901691	0.000066	-0.401268
H34	H	1.438530	-0.412026	-0.252855
H35	H	1.438557	-0.588167	-0.252864
H36	H	1.716428	-0.000095	0.215340
H37	H	1.709719	-0.000085	0.464802
H38	H	1.411728	-0.000073	0.384681
H39	H	1.416051	-0.000062	0.224185
H40	H	1.659663	-0.636944	-0.035724
H41	H	0.942374	0.206453	-0.072769
H42	H	1.074079	0.206669	-0.295779
H43	H	1.074314	-0.206556	-0.295789
H44	H	0.942418	-0.206561	-0.072775
