data_functionalizedCrystal
_audit_creation_method	'MofGen! by Chris Wilmer'
_symmetry_space_group_name_H-M	'P1'
_symmetry_Int_Tables_number	1
_symmetry_cell_setting	triclinic
loop_
_symmetry_equiv_pos_as_xyz
  x,y,z
_cell_length_a	11.792254
_cell_length_b	16.109301
_cell_length_c	14.586319
_cell_angle_alpha	90.005214
_cell_angle_beta	89.996758
_cell_angle_gamma	96.169961
loop_
_atom_site_label
_atom_site_type_symbol
_atom_site_fract_x
_atom_site_fract_y
_atom_site_fract_z
O1	O	1.505899	-0.114003	-0.076238
O2	O	1.175457	-0.125737	-0.076242
O3	O	1.349755	0.001118	-0.076230
O4	O	1.331600	-0.240858	-0.076249
O5	O	1.349743	0.001120	0.076250
O6	O	1.175445	-0.125735	0.076239
O7	O	1.505887	-0.114001	0.076243
Cu8	Cu	1.340665	-0.119868	0.090164
Cu9	Cu	1.340679	-0.119870	-0.090163
O10	O	1.331588	-0.240856	0.076232
C11	C	1.133166	-0.124996	-0.000001
C12	C	1.007173	-0.122784	-0.000002
C13	C	1.548177	-0.114741	0.000001
C14	C	1.674171	-0.116954	-0.000005
C15	C	1.349014	0.032097	0.000010
C16	C	1.346809	0.124403	0.000012
C17	C	1.776491	-0.118751	-0.000006
C18	C	1.904858	-0.120999	-0.000004
C19	C	1.332330	-0.271835	-0.000011
C20	C	1.334534	-0.364141	-0.000019
N21	N	1.340663	-0.119866	0.216995
C22	C	1.445108	0.346210	-0.000002
C23	C	1.443027	0.432940	-0.000009
C24	C	1.236228	0.414046	-0.000008
C25	C	1.238310	0.327317	-0.000007
C26	C	1.342753	0.293402	0.000001
C27	C	1.338591	0.466860	-0.000008
C28	C	1.336334	0.560897	-0.000016
C29	C	1.345010	0.199359	0.000007
N30	N	1.340690	-0.119866	-0.216994
C31	C	1.417868	-0.063714	0.452007
C32	C	1.417871	-0.063712	0.547988
C33	C	1.263477	-0.176020	0.547988
C34	C	1.263469	-0.176018	0.452008
C35	C	1.340671	-0.119865	0.404020
C36	C	1.340682	-0.119866	0.595981
C37	C	1.340685	-0.119864	0.700048
C38	C	1.340667	-0.119866	0.299946
H39	H	1.530152	0.318599	0.000002
O40	O	1.492763	-0.009211	0.405248
C41	C	1.476163	-0.021214	0.310243
H42	H	1.433787	-0.087122	0.297114
H43	H	1.562095	-0.012324	0.273739
H44	H	1.419187	0.026095	0.283053
H45	H	1.151194	0.441671	-0.000012
O46	O	1.188367	-0.230454	0.405345
C47	C	1.118386	-0.185580	0.349822
H48	H	1.116492	-0.120005	0.378759
H49	H	1.028167	-0.219058	0.348730
H50	H	1.153908	-0.181391	0.277080
H51	H	1.480730	-0.017987	0.587056
O52	O	1.188603	-0.230539	0.594747
C53	C	1.205145	-0.218490	0.689752
H54	H	1.295388	-0.187861	0.702855
H55	H	1.192500	-0.281392	0.726220
H56	H	1.140926	-0.176475	0.717004
O57	O	1.542560	0.484118	0.000032
C58	C	1.635184	0.435581	0.000014
H59	H	1.606351	0.370993	0.028885
H60	H	1.706896	0.467251	0.044282
H61	H	1.667203	0.429252	-0.073138
H62	H	1.154955	0.284318	-0.000007
