data_functionalizedCrystal
_audit_creation_method	'MofGen! by Chris Wilmer'
_symmetry_space_group_name_H-M	'P1'
_symmetry_Int_Tables_number	1
_symmetry_cell_setting	triclinic
loop_
_symmetry_equiv_pos_as_xyz
  x,y,z
_cell_length_a	16.109301
_cell_length_b	17.699083
_cell_length_c	14.586319
_cell_angle_alpha	89.995320
_cell_angle_beta	89.999213
_cell_angle_gamma	83.372248
loop_
_atom_site_label
_atom_site_type_symbol
_atom_site_fract_x
_atom_site_fract_y
_atom_site_fract_z
O1	O	1.102963	0.097285	-0.076184
O2	O	1.602963	0.597285	0.423816
O3	O	0.860880	0.109391	-0.076199
O4	O	1.360880	0.609391	0.423801
O5	O	0.988761	-0.006841	-0.076183
O6	O	1.488761	0.493159	0.423817
O7	O	0.975082	0.213517	-0.076200
O8	O	1.475082	0.713517	0.423800
O9	O	0.988752	-0.006843	0.076298
O10	O	1.488752	0.493157	0.576298
O11	O	0.860872	0.109390	0.076282
O12	O	1.360872	0.609390	0.576282
O13	O	1.102954	0.097283	0.076297
O14	O	1.602954	0.597283	0.576297
Cu15	Cu	0.981912	0.103336	0.090212
Cu16	Cu	1.481912	0.603336	0.590212
Cu17	Cu	0.981923	0.103338	-0.090114
Cu18	Cu	1.481923	0.603338	0.409886
O19	O	0.975074	0.213516	0.076281
O20	O	1.475074	0.713516	0.576281
C21	C	0.829902	0.108900	0.000040
C22	C	1.329902	0.608900	0.500040
C23	C	0.737609	0.107430	0.000034
C24	C	1.237609	0.607430	0.500034
C25	C	0.515224	0.172981	0.000040
C26	C	1.015224	0.672981	0.500040
C27	C	0.428506	0.171594	0.000046
C28	C	0.928506	0.671594	0.500046
C29	C	0.448618	0.033688	0.000053
C30	C	0.948618	0.533688	0.500053
C31	C	0.535334	0.035076	0.000053
C32	C	1.035334	0.535076	0.500053
C33	C	0.568635	0.104725	0.000042
C34	C	1.068635	0.604725	0.500042
C35	C	0.395200	0.101949	0.000047
C36	C	0.895200	0.601949	0.500047
C37	C	0.301177	0.100445	0.000054
C38	C	0.801177	0.600445	0.500054
C39	C	0.662664	0.106230	0.000037
C40	C	1.162664	0.606230	0.500037
C41	C	0.988267	-0.035040	0.000057
C42	C	1.488267	0.464960	0.500057
C43	C	0.986796	-0.119060	0.000058
C44	C	1.486796	0.380940	0.500058
C45	C	1.061860	-0.167574	0.000064
C46	C	1.561860	0.332426	0.500064
C47	C	1.060473	-0.246519	0.000055
C48	C	1.560473	0.253481	0.500055
C49	C	0.984022	-0.276949	0.000048
C50	C	1.484022	0.223051	0.500048
C51	C	0.908953	-0.228429	0.000039
C52	C	1.408953	0.271571	0.500039
C53	C	0.910341	-0.149485	0.000041
C54	C	1.410341	0.350515	0.500041
C55	C	0.903356	-0.546800	0.000031
C56	C	1.403356	-0.046800	0.500031
C57	C	0.901974	-0.625750	0.000033
C58	C	1.401974	-0.125750	0.500033
C59	C	1.053488	-0.643834	0.000046
C60	C	1.553488	-0.143834	0.500046
C61	C	1.054876	-0.564890	0.000048
C62	C	1.554876	-0.064890	0.500048
C63	C	0.979807	-0.516377	0.000034
C64	C	1.479807	-0.016377	0.500034
C65	C	0.981312	-0.430776	0.000041
C66	C	1.481312	0.069224	0.500041
C67	C	0.982517	-0.362549	0.000047
C68	C	1.482517	0.137451	0.500047
C69	C	1.133933	0.097774	0.000056
C70	C	1.633933	0.597774	0.500056
C71	C	1.226226	0.099244	0.000055
C72	C	1.726226	0.599244	0.500055
C73	C	0.975568	0.241714	0.000038
C74	C	1.475568	0.741714	0.500038
C75	C	0.977039	0.325734	0.000032
C76	C	1.477039	0.825734	0.500032
N77	N	0.981911	0.103334	0.217044
N78	N	1.481911	0.603334	0.717044
N79	N	0.981931	0.103334	-0.216946
N80	N	1.481931	0.603334	0.283054
C81	C	1.038555	0.051884	0.452057
C82	C	1.538555	0.551884	0.952057
C83	C	1.038558	0.051882	0.548038
C84	C	1.538558	0.551882	1.048038
C85	C	0.925280	0.154787	0.548034
C86	C	1.425280	0.654787	1.048034
C87	C	0.925274	0.154785	0.452054
C88	C	1.425274	0.654785	0.952054
C89	C	0.981917	0.103334	0.404068
C90	C	1.481917	0.603334	0.904068
C91	C	0.981925	0.103334	0.596029
C92	C	1.481925	0.603334	1.096029
C93	C	0.981927	0.103333	0.700096
C94	C	1.481927	0.603333	1.200096
C95	C	0.981914	0.103334	0.299995
C96	C	1.481914	0.603334	0.799995
H97	H	0.385022	0.227175	0.000046
H98	H	0.885022	0.727175	0.500046
C99	C	1.151325	-0.089302	0.078459
C100	C	1.651325	0.410698	0.578459
C101	C	1.145899	-0.134131	0.000072
C102	C	1.645899	0.365869	0.500072
H103	H	1.203212	-0.068663	0.078463
H104	H	1.703212	0.431337	0.578463
H105	H	1.106827	-0.049111	0.078451
H106	H	1.606827	0.450889	0.578451
H107	H	1.147630	-0.119734	0.131625
H108	H	1.647630	0.380266	0.631625
H109	H	1.149588	-0.103697	-0.053094
H110	H	1.649588	0.396303	0.446906
H111	H	1.190410	-0.174328	0.000072
H112	H	1.690410	0.325672	0.500072
C113	C	1.210381	-0.256465	0.000091
C114	C	1.710381	0.243535	0.500091
C115	C	1.142985	-0.299846	0.000072
C116	C	1.642985	0.200154	0.500072
H117	H	1.261322	-0.289389	0.000108
H118	H	1.761322	0.210611	0.500108
H119	H	1.207780	-0.225297	-0.053079
H120	H	1.707780	0.274703	0.446921
H121	H	1.207753	-0.225299	0.053268
H122	H	1.707753	0.274701	0.553268
H123	H	1.145609	-0.331008	-0.053109
H124	H	1.645609	0.168992	0.446891
H125	H	1.145588	-0.331027	0.053248
H126	H	1.645588	0.168973	0.553248
C127	C	0.477208	-0.102487	0.000059
C128	C	0.977208	0.397513	0.500059
C129	C	0.412012	-0.042869	0.000054
C130	C	0.912012	0.457131	0.500054
H131	H	0.454608	-0.149750	0.000063
H132	H	0.954608	0.350250	0.500063
H133	H	0.510613	-0.099073	-0.053109
H134	H	1.010613	0.400927	0.446891
H135	H	0.510611	-0.099075	0.053238
H136	H	1.010611	0.400925	0.553238
H137	H	0.378612	-0.046277	-0.053129
H138	H	0.878612	0.453723	0.446871
H139	H	0.378593	-0.046284	0.053227
H140	H	0.878593	0.453716	0.553227
C141	C	1.151736	0.035489	0.655972
C142	C	1.651736	0.535489	1.155972
C143	C	1.100817	-0.004672	0.600790
C144	C	1.600817	0.495328	1.100790
H145	H	1.190169	0.000571	0.688542
H146	H	1.690169	0.500571	1.188542
H147	H	1.181573	0.066995	0.618525
H148	H	1.681573	0.566995	1.118525
H149	H	1.117997	0.066127	0.698285
H150	H	1.617997	0.566127	1.198285
H151	H	1.134556	-0.035306	0.558473
H152	H	1.634556	0.464694	1.058473
H153	H	1.070978	-0.036192	0.638241
H154	H	1.570978	0.463808	1.138241
H155	H	0.578824	-0.020510	0.000058
H156	H	1.078824	0.479490	0.500058
C157	C	1.203403	-0.653779	0.000065
C158	C	1.703403	-0.153779	0.500065
C159	C	1.136009	-0.697162	0.000051
C160	C	1.636009	-0.197162	0.500051
H161	H	1.254344	-0.686701	0.000075
H162	H	1.754344	-0.186701	0.500075
H163	H	1.200796	-0.622609	-0.053104
H164	H	1.700796	-0.122609	0.446896
H165	H	1.200779	-0.622615	0.053244
H166	H	1.700779	-0.122615	0.553244
H167	H	1.138629	-0.728322	-0.053132
H168	H	1.638629	-0.228322	0.446868
H169	H	1.138616	-0.728345	0.053225
H170	H	1.638616	-0.228345	0.553225
C171	C	0.812091	0.171182	0.344123
C172	C	1.312091	0.671182	0.844123
C173	C	0.863015	0.211345	0.399297
C174	C	1.363015	0.711345	0.899297
H175	H	0.773653	0.206099	0.311557
H176	H	1.273653	0.706099	0.811557
H177	H	0.845820	0.140544	0.301815
H178	H	1.345820	0.640544	0.801815
H179	H	0.782252	0.139676	0.381583
H180	H	1.282252	0.639676	0.881583
H181	H	0.892858	0.242848	0.361835
H182	H	1.392858	0.742848	0.861835
H183	H	0.829281	0.241997	0.441609
H184	H	1.329281	0.741997	0.941609
C185	C	1.144334	-0.486595	-0.078330
C186	C	1.644334	0.013405	0.421670
C187	C	1.138912	-0.531441	0.000053
C188	C	1.638912	-0.031441	0.500053
H189	H	1.196214	-0.465943	-0.078325
H190	H	1.696214	0.034057	0.421675
H191	H	1.140650	-0.517014	-0.131493
H192	H	1.640650	-0.017014	0.368507
H193	H	1.099822	-0.446406	-0.078321
H194	H	1.599822	0.053594	0.421679
H195	H	1.183420	-0.571634	0.000040
H196	H	1.683420	-0.071634	0.500040
H197	H	1.142605	-0.501020	0.053230
H198	H	1.642605	-0.001020	0.553230
C199	C	0.752335	-0.599948	-0.000006
C200	C	1.252335	-0.099948	0.499994
C201	C	0.817933	-0.659200	0.000012
C202	C	1.317933	-0.159200	0.500012
H203	H	0.700456	-0.620601	-0.000024
H204	H	1.200456	-0.120601	0.499976
H205	H	0.756013	-0.569537	0.053165
H206	H	1.256013	-0.069537	0.553165
H207	H	0.756041	-0.569530	-0.053182
H208	H	1.256041	-0.069530	0.446818
H209	H	0.814230	-0.689615	0.053192
H210	H	1.314230	-0.189615	0.553192
H211	H	0.814253	-0.689624	-0.053164
H212	H	1.314253	-0.189624	0.446836
C213	C	0.781627	-0.109760	-0.078352
C214	C	1.281627	0.390240	0.421648
C215	C	0.827828	-0.096156	0.000035
C216	C	1.327828	0.403844	0.500035
H217	H	0.730684	-0.076839	-0.078354
H218	H	1.230684	0.423161	0.421646
H219	H	0.812987	-0.100532	-0.131512
H220	H	1.312987	0.399468	0.368488
H221	H	0.769866	-0.161132	-0.078342
H222	H	1.269866	0.338868	0.421658
H223	H	0.839595	-0.044785	0.000022
H224	H	1.339595	0.455215	0.500022
H225	H	0.796461	-0.105378	0.053209
H226	H	1.296461	0.394622	0.553209
H227	H	1.084675	0.009988	0.412989
H228	H	1.584675	0.509988	0.912989
C229	C	0.779368	-0.237314	0.078405
C230	C	1.279368	0.262686	0.578405
C231	C	0.824913	-0.261872	0.000028
C232	C	1.324913	0.238128	0.500028
H233	H	0.727483	-0.257955	0.078394
H234	H	1.227483	0.242045	0.578394
H235	H	0.810262	-0.253977	0.131572
H236	H	1.310262	0.246023	0.631572
H237	H	0.769461	-0.183354	0.078394
H238	H	1.269461	0.316646	0.578394
H239	H	0.834826	-0.315832	0.000042
H240	H	1.334826	0.184168	0.500042
H241	H	0.794013	-0.245213	-0.053153
H242	H	1.294013	0.254787	0.446847
C243	C	0.874998	0.200490	0.695162
C244	C	1.374998	0.700490	1.195162
C245	C	0.863029	0.211347	0.600783
C246	C	1.363029	0.711347	1.100783
H247	H	0.836570	0.235414	0.727724
H248	H	1.336570	0.735414	1.227724
H249	H	0.866068	0.149982	0.710897
H250	H	1.366068	0.649982	1.210897
H251	H	0.930471	0.208724	0.710874
H252	H	1.430471	0.708724	1.210874
H253	H	0.807558	0.203108	0.585071
H254	H	1.307558	0.703108	1.085071
H255	H	0.871952	0.261868	0.585042
H256	H	1.371952	0.761868	1.085042
H257	H	0.542334	0.229694	0.000038
H258	H	1.042334	0.729694	0.500038
H259	H	0.842230	-0.507310	0.000021
H260	H	1.342230	-0.007310	0.500021
