data_functionalizedCrystal
_audit_creation_method	'MofGen! by Chris Wilmer'
_symmetry_space_group_name_H-M	'P1'
_symmetry_Int_Tables_number	1
_symmetry_cell_setting	triclinic
loop_
_symmetry_equiv_pos_as_xyz
  x,y,z
_cell_length_a	17.699083
_cell_length_b	23.532407
_cell_length_c	16.176319
_cell_angle_alpha	89.988536
_cell_angle_beta	89.998611
_cell_angle_gamma	83.065847
loop_
_atom_site_label
_atom_site_type_symbol
_atom_site_fract_x
_atom_site_fract_y
_atom_site_fract_z
O1	O	1.003713	0.072020	-0.068639
O2	O	1.503713	0.572020	0.431361
O3	O	0.783287	0.081390	-0.068667
O4	O	1.283287	0.581390	0.431333
O5	O	0.900147	-0.006208	-0.068637
O6	O	1.400147	0.493792	0.431363
O7	O	0.886853	0.159618	-0.068669
O8	O	1.386853	0.659618	0.431331
O9	O	0.900131	-0.006213	0.068856
O10	O	1.400131	0.493787	0.568856
O11	O	0.783271	0.081384	0.068826
O12	O	1.283271	0.581384	0.568826
O13	O	1.003697	0.072014	0.068854
O14	O	1.503697	0.572014	0.568854
Cu15	Cu	0.893483	0.076699	0.081394
Cu16	Cu	1.393483	0.576699	0.581394
Cu17	Cu	0.893502	0.076705	-0.081207
Cu18	Cu	1.393502	0.576705	0.418793
O19	O	0.886837	0.159612	0.068824
O20	O	1.386837	0.659612	0.568824
C21	C	0.755084	0.081051	0.000076
C22	C	1.255084	0.581051	0.500076
C23	C	0.671071	0.080044	0.000066
C24	C	1.171071	0.580044	0.500066
C25	C	0.622189	0.131462	0.000056
C26	C	1.122189	0.631462	0.500056
C27	C	0.543251	0.130512	0.000067
C28	C	1.043251	0.630512	0.500067
C29	C	0.513196	0.078144	0.000082
C30	C	1.013196	0.578144	0.500082
C31	C	0.562084	0.026722	0.000094
C32	C	1.062084	0.526722	0.500094
C33	C	0.641021	0.027672	0.000089
C34	C	1.141021	0.527672	0.500089
C35	C	0.243740	0.022888	0.000115
C36	C	0.743740	0.522888	0.500115
C37	C	0.164797	0.021942	0.000117
C38	C	0.664797	0.521942	0.500117
C39	C	0.145970	0.125728	0.000093
C40	C	0.645970	0.625728	0.500093
C41	C	0.224907	0.126678	0.000088
C42	C	0.724907	0.626678	0.500088
C43	C	0.273788	0.075257	0.000105
C44	C	0.773788	0.575257	0.500105
C45	C	0.359382	0.076287	0.000094
C46	C	0.859382	0.576287	0.500094
C47	C	0.427603	0.077113	0.000086
C48	C	0.927603	0.577113	0.500086
C49	C	0.899801	-0.027427	0.000111
C50	C	1.399801	0.472573	0.500111
C51	C	0.898783	-0.090647	0.000118
C52	C	1.398783	0.409353	0.500118
C53	C	0.961554	-0.489570	0.000080
C54	C	1.461554	0.010430	0.500080
C55	C	0.960609	-0.548973	0.000074
C56	C	1.460609	-0.048973	0.500074
O57	O	1.018799	-0.585550	0.000051
O58	O	1.518799	-0.085550	0.500051
N59	N	0.891136	-0.571799	0.000066
N60	N	1.391136	-0.071799	0.500066
C61	C	0.822604	-0.535218	0.000055
C62	C	1.322604	-0.035218	0.500055
O63	O	0.763424	-0.560088	0.000047
O64	O	1.263424	-0.060088	0.500047
C65	C	0.823550	-0.475816	0.000056
C66	C	1.323550	0.024184	0.500056
C67	C	0.893028	-0.452994	0.000073
C68	C	1.393028	0.047006	0.500073
C69	C	1.031026	-0.466747	0.000096
C70	C	1.531026	0.033253	0.500096
C71	C	1.031972	-0.407348	0.000104
C72	C	1.531972	0.092652	0.500104
C73	C	0.963445	-0.370772	0.000096
C74	C	1.463445	0.129228	0.500096
C75	C	0.893973	-0.393595	0.000080
C76	C	1.393973	0.106405	0.500080
C77	C	0.755019	-0.439237	0.000040
C78	C	1.255019	0.060763	0.500040
C79	C	0.755971	-0.379832	0.000039
C80	C	1.255971	0.120168	0.500039
C81	C	0.825448	-0.357009	0.000056
C82	C	1.325448	0.142991	0.500056
C83	C	0.826391	-0.297620	0.000081
C84	C	1.326391	0.202380	0.500081
N85	N	0.895864	-0.274795	0.000089
N86	N	1.395864	0.225205	0.500089
C87	C	0.964391	-0.311371	0.000097
C88	C	1.464391	0.188629	0.500097
C89	C	0.820622	-0.659966	0.000053
C90	C	1.320622	-0.159966	0.500053
C91	C	0.819674	-0.719367	0.000058
C92	C	1.319674	-0.219367	0.500058
C93	C	0.957680	-0.733118	0.000075
C94	C	1.457680	-0.233118	0.500075
C95	C	0.958626	-0.673716	0.000076
C96	C	1.458626	-0.173716	0.500076
C97	C	0.890095	-0.637141	0.000061
C98	C	1.390095	-0.137141	0.500061
C99	C	0.966371	-0.186628	0.000114
C100	C	1.466371	0.313372	0.500114
C101	C	0.967310	-0.127223	0.000125
C102	C	1.467310	0.372777	0.500125
C103	C	0.829305	-0.113478	0.000104
C104	C	1.329305	0.386522	0.500104
C105	C	0.828365	-0.172877	0.000097
C106	C	1.328365	0.327123	0.500097
C107	C	0.896904	-0.209452	0.000099
C108	C	1.396904	0.290548	0.500099
O109	O	0.768232	-0.261008	0.000100
O110	O	1.268232	0.238992	0.500100
O111	O	1.023560	-0.286493	0.000094
O112	O	1.523560	0.213507	0.500094
C113	C	1.031901	0.072353	0.000109
C114	C	1.531901	0.572353	0.500109
C115	C	1.115914	0.073360	0.000114
C116	C	1.615914	0.573360	0.500114
C117	C	0.887184	0.180832	0.000073
C118	C	1.387184	0.680832	0.500073
C119	C	0.888202	0.244052	0.000062
C120	C	1.388202	0.744052	0.500062
N121	N	0.893475	0.076694	0.195759
N122	N	1.393475	0.576694	0.695759
N123	N	0.893516	0.076706	-0.195573
N124	N	1.393516	0.576706	0.304427
C125	C	0.945236	0.037921	0.239037
C126	C	1.445236	0.537921	0.739037
C127	C	0.945240	0.037921	0.325584
C128	C	1.445240	0.537921	0.825584
C129	C	0.893486	0.076696	0.368852
C130	C	1.393486	0.576696	0.868852
C131	C	0.841719	0.115470	0.325568
C132	C	1.341719	0.615470	0.825568
C133	C	0.841713	0.115467	0.239023
C134	C	1.341713	0.615467	0.739023
C135	C	0.841745	0.115481	0.674597
C136	C	1.341745	0.615481	1.174597
C137	C	0.841758	0.115481	0.761148
C138	C	1.341758	0.615481	1.261148
C139	C	0.945273	0.037934	0.761158
C140	C	1.445273	0.537934	1.261158
C141	C	0.945266	0.037932	0.674612
C142	C	1.445266	0.537932	1.174612
C143	C	0.893497	0.076704	0.631336
C144	C	1.393497	0.576704	1.131336
C145	C	0.893493	0.076703	0.537492
C146	C	1.393493	0.576703	1.037492
C147	C	0.893493	0.076700	0.462695
C148	C	1.393493	0.576700	0.962695
H149	H	0.106161	0.167598	0.000084
H150	H	0.606161	0.667598	0.500084
C151	C	0.131738	-0.035666	0.000142
C152	C	0.631738	0.464334	0.500142
H153	H	0.172155	-0.066155	0.000159
H154	H	0.672155	0.433845	0.500159
H155	H	0.101335	-0.038195	-0.047803
H156	H	0.601335	0.461805	0.452197
H157	H	0.101337	-0.038189	0.048097
H158	H	0.601337	0.461811	0.548097
C159	C	0.694794	-0.028886	0.000099
C160	C	1.194794	0.471114	0.500099
H161	H	0.746110	-0.020820	0.000102
H162	H	1.246110	0.479180	0.500102
H163	H	0.685727	-0.050364	-0.047841
H164	H	1.185727	0.449636	0.452159
H165	H	0.685726	-0.050362	0.048058
H166	H	1.185726	0.449638	0.548058
C167	C	0.678594	-0.464331	0.000011
C168	C	1.178594	0.035669	0.500011
H169	H	0.687833	-0.504948	0.000014
H170	H	1.187833	-0.004948	0.500014
H171	H	0.650413	-0.451757	-0.047943
H172	H	1.150413	0.048243	0.452057
H173	H	0.650388	-0.451775	0.047957
H174	H	1.150388	0.048225	0.547957
C175	C	0.680584	-0.339602	0.000027
C176	C	1.180584	0.160398	0.500027
H177	H	0.639075	-0.361706	0.000022
H178	H	1.139075	0.138294	0.500022
H179	H	0.678089	-0.316134	-0.047917
H180	H	1.178089	0.183866	0.452083
H181	H	0.678075	-0.316153	0.047983
H182	H	1.178075	0.183847	0.547983
H183	H	0.987411	0.006359	0.639386
H184	H	1.487411	0.506359	1.139386
H185	H	0.799576	0.147040	0.360802
H186	H	1.299576	0.647040	0.860802
C187	C	0.655243	0.189068	0.000039
C188	C	1.155243	0.689068	0.500039
H189	H	0.614822	0.219554	0.000043
H190	H	1.114822	0.719554	0.500043
H191	H	0.685643	0.191600	-0.047909
H192	H	1.185643	0.691600	0.452091
H193	H	0.685645	0.191594	0.047991
H194	H	1.185645	0.691594	0.547991
H195	H	0.283530	-0.018983	0.000129
H196	H	0.783530	0.481017	0.500129
H197	H	1.022182	-0.216401	0.000113
H198	H	1.522182	0.283599	0.500113
H199	H	0.771791	-0.191460	0.000106
H200	H	1.271791	0.308540	0.500106
C201	C	0.489484	0.187072	0.000054
C202	C	0.989484	0.687072	0.500054
H203	H	0.518689	0.218396	0.000034
H204	H	1.018689	0.718396	0.500034
H205	H	0.458301	0.188860	0.048003
H206	H	0.958301	0.688860	0.548003
H207	H	0.458297	0.188858	-0.047897
H208	H	0.958297	0.688858	0.452103
H209	H	0.249373	0.169322	0.000072
H210	H	0.749373	0.669322	0.500072
C211	C	1.033061	-0.773357	0.000078
C212	C	1.533061	-0.273357	0.500078
H213	H	1.074577	-0.751260	0.000090
H214	H	1.574577	-0.251260	0.500090
H215	H	1.035561	-0.796808	-0.047870
H216	H	1.535561	-0.296808	0.452130
H217	H	1.035552	-0.796822	0.048030
H218	H	1.535552	-0.296822	0.548030
C219	C	0.529029	-0.030883	0.000109
C220	C	1.029029	0.469117	0.500109
H221	H	0.569449	-0.061370	0.000121
H222	H	1.069449	0.438630	0.500121
H223	H	0.498626	-0.033410	-0.047836
H224	H	0.998626	0.466590	0.452164
H225	H	0.498629	-0.033413	0.048064
H226	H	0.998629	0.466587	0.548064
C227	C	1.043738	-0.102122	0.000139
C228	C	1.543738	0.397878	0.500139
H229	H	1.084413	-0.132417	0.000133
H230	H	1.584413	0.367583	0.500133
H231	H	1.046975	-0.079244	0.048088
H232	H	1.546975	0.420756	0.548088
H233	H	1.046981	-0.079228	-0.047812
H234	H	1.546981	0.420772	0.452188
C235	C	1.108398	-0.382251	0.000107
C236	C	1.608398	0.117749	0.500107
H237	H	1.149068	-0.412549	0.000101
H238	H	1.649068	0.087451	0.500101
H239	H	1.111642	-0.359370	0.048051
H240	H	1.611642	0.140630	0.548051
H241	H	1.111639	-0.359361	-0.047848
H242	H	1.611639	0.140639	0.452152
C243	C	1.002211	-0.004721	0.808763
C244	C	1.502211	0.495279	1.308763
H245	H	0.994799	0.000827	0.866504
H246	H	1.494799	0.500827	1.366504
H247	H	1.052673	0.001417	0.794572
H248	H	1.552673	0.501417	1.294572
H249	H	0.994274	-0.042724	0.794590
H250	H	1.494274	0.457276	1.294590
H251	H	1.015201	-0.655139	0.000089
H252	H	1.515201	-0.155139	0.500089
H253	H	0.763099	-0.737943	0.000059
H254	H	1.263099	-0.237943	0.500059
H255	H	0.773512	-0.083687	0.000101
H256	H	1.273512	0.416313	0.500101
H257	H	1.086833	-0.496522	0.000099
H258	H	1.586833	0.003478	0.500099
H259	H	0.764811	-0.630189	0.000048
H260	H	1.264811	-0.130189	0.500048
C261	C	1.002165	-0.004732	0.191450
C262	C	1.502165	0.495268	0.691450
H263	H	1.032987	-0.027827	0.229623
H264	H	1.532987	0.472173	0.729623
H265	H	1.033513	0.015722	0.157675
H266	H	1.533513	0.515722	0.657675
H267	H	0.975112	-0.028417	0.157703
H268	H	1.475112	0.471583	0.657703
H269	H	0.799595	0.147051	0.639368
H270	H	1.299595	0.647051	1.139368
C271	C	0.784812	0.158126	0.808742
C272	C	1.284812	0.658126	1.308742
H273	H	0.753971	0.181211	0.770574
H274	H	1.253971	0.681211	1.270574
H275	H	0.811848	0.181813	0.842496
H276	H	1.311848	0.681813	1.342496
H277	H	0.753473	0.137654	0.842509
H278	H	1.253473	0.637654	1.342509
C279	C	1.002184	-0.004723	0.373186
C280	C	1.502184	0.495277	0.873186
H281	H	1.033014	-0.027810	0.335022
H282	H	1.533014	0.472190	0.835022
H283	H	0.975150	-0.028408	0.406961
H284	H	1.475150	0.471592	0.906961
H285	H	1.033534	0.015743	0.406933
H286	H	1.533534	0.515743	0.906933
H287	H	0.799563	0.147039	0.203787
H288	H	1.299563	0.647039	0.703787
