data_functionalizedCrystal
_audit_creation_method	'MofGen! by Chris Wilmer'
_symmetry_space_group_name_H-M	'P1'
_symmetry_Int_Tables_number	1
_symmetry_cell_setting	triclinic
loop_
_symmetry_equiv_pos_as_xyz
  x,y,z
_cell_length_a	21.395364
_cell_length_b	19.121111
_cell_length_c	21.395355
_cell_angle_alpha	92.422781
_cell_angle_beta	90.024552
_cell_angle_gamma	87.514732
loop_
_atom_site_label
_atom_site_type_symbol
_atom_site_fract_x
_atom_site_fract_y
_atom_site_fract_z
Zn1	Zn	0.947234	0.279421	0.364894
Zn2	Zn	0.942671	0.396856	0.264585
Zn3	Zn	0.842448	0.279451	0.260132
Zn4	Zn	0.837952	0.396868	0.369326
O5	O	0.892576	0.338149	0.314734
O6	O	1.034307	0.294981	0.351597
O7	O	0.929348	0.381290	0.176317
O8	O	0.860139	0.181161	0.270310
O9	O	1.030955	0.381260	0.277900
O10	O	0.937125	0.181138	0.347279
O11	O	0.855714	0.295033	0.173045
O12	O	0.754173	0.295045	0.274608
O13	O	0.852477	0.381281	0.456415
O14	O	0.750870	0.381311	0.354832
O15	O	0.932766	0.294993	0.453159
O16	O	0.924989	0.495144	0.282197
O17	O	0.848052	0.495153	0.359150
C18	C	0.729787	0.338183	0.314718
C19	C	0.660145	0.338215	0.314726
C20	C	0.629197	0.293363	0.353165
C21	C	0.563762	0.293344	0.353166
C22	C	0.529277	0.338190	0.314737
C23	C	0.560233	0.383045	0.276291
C24	C	0.625667	0.383058	0.276285
C25	C	0.423148	0.401442	0.312106
C26	C	0.357715	0.401431	0.312116
C27	C	0.327458	0.338151	0.314749
C28	C	0.362642	0.274881	0.317386
C29	C	0.428075	0.274894	0.317381
C30	C	0.458325	0.338181	0.314738
C31	C	0.225559	0.293275	0.353192
C32	C	0.160123	0.293255	0.353189
C33	C	0.156595	0.382963	0.276316
C34	C	0.222030	0.382976	0.276316
C35	C	0.256508	0.338134	0.314757
C36	C	0.885554	0.520633	0.321651
C37	C	0.882608	0.598701	0.324632
C38	C	0.921311	0.635349	0.286000
C39	C	0.918544	0.708702	0.288807
C40	C	0.877069	0.745405	0.330242
C41	C	0.838364	0.708752	0.368878
C42	C	0.841135	0.635400	0.366074
C43	C	0.866699	0.966880	0.340714
C44	C	0.863929	1.040237	0.343513
C45	C	0.944110	1.040182	0.263442
C46	C	0.946875	0.966829	0.260640
C47	C	0.908172	0.930182	0.299278
C48	C	0.874238	0.820383	0.333111
C49	C	0.911007	0.855205	0.296412
C50	C	1.056001	0.338115	0.314751
C51	C	1.125643	0.338101	0.314758
C52	C	0.899637	1.154952	0.307811
C53	C	0.902633	1.076885	0.304882
C54	C	0.892629	0.338135	0.478157
C55	C	0.892651	0.338129	0.547798
C56	C	0.892562	0.338113	0.151945
C57	C	0.892668	0.337921	0.082297
C58	C	0.934456	0.293197	0.578817
C59	C	0.934456	0.293166	0.644251
C60	C	0.892658	0.338081	0.678664
C61	C	0.850845	0.383016	0.647638
C62	C	0.850842	0.383040	0.582205
C63	C	0.885277	0.401324	0.784736
C64	C	0.885285	0.401301	0.850169
C65	C	0.892665	0.338007	0.880482
C66	C	0.900050	0.274733	0.845356
C67	C	0.900047	0.274757	0.779923
C68	C	0.892657	0.338060	0.749616
C69	C	0.934472	0.293038	0.982452
C70	C	0.934468	0.293007	1.047888
C71	C	0.850860	0.382863	1.051274
C72	C	0.850861	0.382888	0.985840
C73	C	0.892670	0.337976	0.951433
H74	H	0.456719	0.223377	0.319526
O75	O	0.803509	0.599722	0.403511
C76	C	0.764647	0.557373	0.366187
H77	H	0.787181	0.546382	0.318305
H78	H	0.758188	0.505789	0.389732
H79	H	0.717148	0.585702	0.360344
H80	H	0.975621	1.070027	0.231986
H81	H	0.650864	0.419583	0.244983
O82	O	0.129986	0.249781	0.390566
C83	C	0.090610	0.289833	0.432502
H84	H	0.078725	0.343018	0.412337
H85	H	0.045714	0.261228	0.439863
H86	H	0.115547	0.297640	0.479215
O87	O	0.333326	0.213356	0.319863
C88	C	0.350983	0.169519	0.267629
H89	H	0.397854	0.185731	0.248933
H90	H	0.355429	0.112839	0.282147
H91	H	0.313943	0.174539	0.229572
H92	H	0.944778	0.825319	0.262677
H93	H	0.329074	0.452949	0.309971
O94	O	0.258961	0.249649	0.390546
C95	C	0.217610	0.210064	0.424483
H96	H	0.171052	0.207576	0.398730
H97	H	0.238674	0.154743	0.429153
H98	H	0.209667	0.235864	0.473008
O99	O	0.878077	0.462821	0.884193
C100	C	0.871568	0.518692	0.843408
H101	H	0.854198	0.498235	0.795979
H102	H	0.836451	0.559997	0.863873
H103	H	0.918790	0.543022	0.837392
H104	H	0.830163	1.070118	0.377266
O105	O	0.829032	0.931396	0.378260
C106	C	0.791839	0.979523	0.415438
H107	H	0.787716	1.031828	0.391771
H108	H	0.743266	0.958391	0.421259
H109	H	0.814459	0.987267	0.463344
O110	O	0.975139	0.249334	1.077924
C111	C	1.012027	0.209690	1.033520
H112	H	1.013084	0.238478	0.987974
H113	H	1.061683	0.202186	1.052162
H114	H	0.991145	0.156352	1.024520
H115	H	0.816811	0.419584	0.675662
O116	O	0.252128	0.426452	0.238912
C117	C	0.291528	0.386408	0.196992
H118	H	0.273959	0.331080	0.191104
H119	H	0.291263	0.411734	0.149698
H120	H	0.341221	0.384029	0.216276
H121	H	0.980647	0.936947	0.226899
H122	H	0.816821	0.419426	1.079293
H123	H	0.128518	0.419477	0.245026
O124	O	0.961511	0.599667	0.245680
C125	C	0.927462	0.557291	0.203569
H126	H	0.877279	0.579458	0.200500
H127	H	0.950179	0.556460	0.155341
H128	H	0.927394	0.501690	0.220814
H129	H	0.840467	0.850275	0.366846
H130	H	0.804597	0.738641	0.402619
H131	H	0.816796	0.419629	0.556950
O132	O	0.810194	0.426441	0.955672
C133	C	0.771278	0.386476	0.916272
H134	H	0.769541	0.331152	0.933886
H135	H	0.722080	0.411890	0.916475
H136	H	0.790743	0.384069	0.866598
H137	H	0.879100	0.452852	0.760060
O138	O	0.907105	0.213269	0.745829
C139	C	0.858172	0.169510	0.760145
H140	H	0.816511	0.202863	0.779390
H141	H	0.843579	0.139062	0.715947
H142	H	0.874856	0.131221	0.796673
O143	O	0.662593	0.249731	0.390516
C144	C	0.621240	0.210149	0.424454
H145	H	0.574679	0.207672	0.398705
H146	H	0.642298	0.154824	0.429116
H147	H	0.613306	0.235945	0.472981
O148	O	0.533617	0.249874	0.390544
C149	C	0.494244	0.289933	0.432479
H150	H	0.482367	0.343120	0.412314
H151	H	0.449344	0.261337	0.439840
H152	H	0.519181	0.297736	0.479193
H153	H	0.447777	0.452975	0.309961
H154	H	0.532151	0.419558	0.245000
O155	O	0.956162	0.744193	0.251214
C156	C	0.993370	0.696069	0.214049
H157	H	0.969680	0.643815	0.209860
H158	H	0.999274	0.717283	0.165501
H159	H	1.041243	0.688195	0.236733
H160	H	0.968500	0.256625	0.550806
H161	H	0.968498	0.256573	0.669511
H162	H	0.906060	0.223193	0.870036
H163	H	0.968512	0.256464	0.954437
