data_functionalizedCrystal
_audit_creation_method	'MofGen! by Chris Wilmer'
_symmetry_space_group_name_H-M	'P1'
_symmetry_Int_Tables_number	1
_symmetry_cell_setting	triclinic
loop_
_symmetry_equiv_pos_as_xyz
  x,y,z
_cell_length_a	19.077142
_cell_length_b	12.645330
_cell_length_c	19.076919
_cell_angle_alpha	87.723193
_cell_angle_beta	89.925643
_cell_angle_gamma	87.721917
loop_
_atom_site_label
_atom_site_type_symbol
_atom_site_fract_x
_atom_site_fract_y
_atom_site_fract_z
Zn1	Zn	-1.058257	0.512883	-0.440483
Zn2	Zn	-0.558257	1.012883	0.059517
Zn3	Zn	-1.062894	0.683333	-0.322986
Zn4	Zn	-0.562894	1.183333	0.177014
Zn5	Zn	-0.945476	0.498679	-0.318272
Zn6	Zn	-0.445476	0.998679	0.181728
Zn7	Zn	-0.940715	0.682691	-0.435735
Zn8	Zn	-0.440715	1.182691	0.064265
O9	O	-1.001836	0.594396	-0.379369
O10	O	-0.501836	1.094396	0.120631
O11	O	-1.157204	0.541707	-0.428857
O12	O	-0.657204	1.041707	0.071143
O13	O	-1.051250	0.653163	-0.224029
O14	O	-0.551250	1.153163	0.275971
O15	O	-0.960488	0.352220	-0.334497
O16	O	-0.460488	0.852220	0.165503
O17	O	-1.160610	0.666935	-0.342532
O18	O	-0.660610	1.166935	0.157468
O19	O	-1.043349	0.362656	-0.424285
O20	O	-0.543349	0.862656	0.075715
O21	O	-0.964984	0.517498	-0.220566
O22	O	-0.464984	1.017498	0.279434
O23	O	-0.846513	0.516875	-0.329893
O24	O	-0.346513	1.016875	0.170107
O25	O	-0.952375	0.665841	-0.534696
O26	O	-0.452375	1.165841	-0.034696
O27	O	-0.843015	0.652068	-0.416193
O28	O	-0.343015	1.152068	0.083807
O29	O	-1.038733	0.541084	-0.538184
O30	O	-0.538733	1.041084	-0.038184
O31	O	-1.046634	0.831591	-0.337928
O32	O	-0.546634	1.331591	0.162072
O33	O	-0.956871	0.831119	-0.420764
O34	O	-0.456871	1.331119	0.079236
C35	C	-0.819268	0.582861	-0.372016
C36	C	-0.319268	1.082861	0.127984
C37	C	-0.741164	0.577953	-0.368888
C38	C	-0.241164	1.077953	0.131112
C39	C	-1.001757	0.869821	-0.379359
C40	C	-0.501757	1.369821	0.120641
C41	C	-1.001787	0.987654	-0.379380
C42	C	-0.501787	1.487654	0.120620
C43	C	-0.702671	0.646133	-0.412279
C44	C	-0.202671	1.146133	0.087721
C45	C	-0.629284	0.641507	-0.409343
C46	C	-0.129284	1.141507	0.090657
C47	C	-0.594391	0.568707	-0.363011
C48	C	-0.094391	1.068707	0.136989
C49	C	-0.632889	0.500520	-0.319618
C50	C	-0.132889	1.000520	0.180382
C51	C	-0.706275	0.505141	-0.322559
C52	C	-0.206275	1.005141	0.177441
C53	C	-0.375105	0.547322	-0.349410
C54	C	0.124895	1.047322	0.150590
C55	C	-0.301714	0.542708	-0.346471
C56	C	0.198286	1.042708	0.153529
C57	C	-0.298113	0.683695	-0.436197
C58	C	0.201887	1.183695	0.063803
C59	C	-0.371500	0.688314	-0.439130
C60	C	0.128500	1.188314	0.060870
C61	C	-0.409992	0.620124	-0.395740
C62	C	0.090008	1.120124	0.104260
N63	N	-0.519378	0.563979	-0.360007
N64	N	-0.019378	1.063979	0.139993
N65	N	-0.485004	0.624847	-0.398748
N66	N	0.014996	1.124847	0.101252
C67	C	-0.185116	0.605971	-0.386742
C68	C	0.314884	1.105971	0.113258
C69	C	-0.263221	0.610888	-0.389862
C70	C	0.236779	1.110888	0.110138
C71	C	-0.945518	1.154988	-0.431670
C72	C	-0.445518	1.654988	0.068330
C73	C	-0.945260	1.032402	-0.431483
C74	C	-0.445260	1.532402	0.068517
C75	C	-0.984717	1.026677	-0.304522
C76	C	-0.484717	1.526677	0.195478
C77	C	-0.984362	1.149273	-0.304840
C78	C	-0.484362	1.649273	0.195160
C79	C	-1.075445	1.160541	-0.401365
C80	C	-0.575445	1.660541	0.098635
C81	C	-1.074936	1.038000	-0.402965
C82	C	-0.574936	1.538000	0.097035
C83	C	-1.001908	1.317897	-0.379397
C84	C	-0.501908	1.817897	0.120603
C85	C	-1.001875	1.200066	-0.379413
C86	C	-0.501875	1.700066	0.120587
C87	C	-0.994506	0.604975	-0.562649
C88	C	-0.494506	1.104975	-0.062649
C89	C	-0.991382	0.609483	-0.640753
C90	C	-0.491382	1.109483	-0.140753
C91	C	-1.034874	0.546650	-0.679263
C92	C	-0.534874	1.046650	-0.179263
C93	C	-1.031931	0.550881	-0.752649
C94	C	-0.531931	1.050881	-0.252649
C95	C	-0.985499	0.617952	-0.787523
C96	C	-0.485499	1.117952	-0.287523
C97	C	-0.942002	0.680788	-0.749008
C98	C	-0.442002	1.180788	-0.249008
C99	C	-0.944942	0.676550	-0.675623
C100	C	-0.444942	1.176550	-0.175623
C101	C	-0.971880	0.637585	-1.006805
C102	C	-0.471880	1.137585	-0.506805
C103	C	-0.968945	0.641820	-1.080195
C104	C	-0.468945	1.141820	-0.580195
C105	C	-1.058873	0.511911	-1.083831
C106	C	-0.558873	1.011911	-0.583831
C107	C	-1.061813	0.507685	-1.010445
C108	C	-0.561813	1.007685	-0.510445
C109	C	-1.018313	0.570516	-0.971936
C110	C	-0.518313	1.070516	-0.471936
N111	N	-0.982490	0.622281	-0.862536
N112	N	-0.482490	1.122281	-0.362536
N113	N	-1.021318	0.566181	-0.896925
N114	N	-0.521318	1.066181	-0.396925
C115	C	-1.009177	0.583785	-0.196803
C116	C	-0.509177	1.083785	0.303197
C117	C	-1.012437	0.578987	-0.118705
C118	C	-0.512437	1.078987	0.381295
H119	H	-0.597946	0.697028	-0.444676
H120	H	-0.097946	1.197028	0.055324
N121	N	-1.096836	1.207036	-0.472643
N122	N	-0.596836	1.707036	0.027357
H123	H	-1.142276	1.250086	-0.468422
H124	H	-0.642276	1.750086	0.031578
H125	H	-1.059004	1.254140	-0.491378
H126	H	-0.559004	1.754140	0.008622
H127	H	-1.087862	1.012973	-0.458071
H128	H	-0.587862	1.512973	0.041929
N129	N	-1.084963	0.474316	-0.641655
N130	N	-0.584963	0.974316	-0.141655
H131	H	-1.118732	0.517705	-0.612523
H132	H	-0.618732	1.017705	-0.112523
H133	H	-1.112018	0.435175	-0.677236
H134	H	-0.612018	0.935175	-0.177236
N135	N	-0.918862	0.714148	-1.117826
N136	N	-0.418862	1.214148	-0.617826
H137	H	-0.930248	0.789848	-1.105495
H138	H	-0.430248	1.289848	-0.605495
H139	H	-0.869191	0.693676	-1.103027
H140	H	-0.369191	1.193676	-0.603027
N141	N	-0.416613	0.473791	-0.302601
N142	N	0.083387	0.973791	0.197399
H143	H	-0.468398	0.487758	-0.311491
H144	H	0.031602	0.987758	0.188509
H145	H	-0.403365	0.397935	-0.313105
H146	H	0.096635	0.897935	0.186895
N147	N	-0.913244	1.181518	-0.280675
N148	N	-0.413244	1.681518	0.219325
H149	H	-0.918807	1.223738	-0.237031
H150	H	-0.418807	1.723738	0.262969
H151	H	-0.882455	1.116068	-0.269955
H152	H	-0.382455	1.616068	0.230045
N153	N	-1.131018	1.199249	-0.351000
N154	N	-0.631018	1.699249	0.149000
H155	H	-1.108687	1.242179	-0.314141
H156	H	-0.608687	1.742179	0.185859
H157	H	-1.167499	1.244894	-0.377562
H158	H	-0.667499	1.744894	0.122438
H159	H	-0.273306	0.483413	-0.308747
H160	H	0.226694	0.983413	0.191253
H161	H	-0.604474	0.441239	-0.281897
H162	H	-0.104474	0.941239	0.218103
N163	N	-0.873635	1.190371	-0.412327
N164	N	-0.373635	1.690371	0.087673
H165	H	-0.853601	1.233088	-0.452925
H166	H	-0.353601	1.733088	0.047075
H167	H	-0.877474	1.235434	-0.369847
H168	H	-0.377474	1.735434	0.130153
N169	N	-1.133182	0.998119	-0.356541
N170	N	-0.633182	1.498119	0.143459
H171	H	-1.112887	0.946623	-0.319395
H172	H	-0.612887	1.446623	0.180605
H173	H	-1.157566	1.059861	-0.333334
H174	H	-0.657566	1.559861	0.166666
N175	N	-1.037540	0.988041	-0.251354
N176	N	-0.537540	1.488041	0.248646
H177	H	-1.086018	1.016117	-0.265395
H178	H	-0.586018	1.516117	0.234605
H179	H	-1.036389	0.908060	-0.249446
H180	H	-0.536389	1.408060	0.250554
H181	H	-0.737615	0.449616	-0.287229
H182	H	-0.237615	0.949616	0.212771
N183	N	-1.078826	0.483090	-0.794185
N184	N	-0.578826	0.983090	-0.294185
H185	H	-1.108686	0.439956	-0.760957
H186	H	-0.608686	0.939956	-0.260957
H187	H	-1.110112	0.530035	-0.825950
H188	H	-0.610112	1.030035	-0.325950
H189	H	-0.904193	0.735394	-0.777408
H190	H	-0.404193	1.235394	-0.277408
N191	N	-1.111867	0.435318	-0.972817
N192	N	-0.611867	0.935318	-0.472817
H193	H	-1.145635	0.478683	-0.943670
H194	H	-0.645635	0.978683	-0.443670
H195	H	-1.138926	0.396148	-1.008380
H196	H	-0.638926	0.896148	-0.508380
N197	N	-0.958944	0.997725	-0.504883
N198	N	-0.458944	1.497725	-0.004883
H199	H	-0.965198	1.062119	-0.537652
H200	H	-0.465198	1.562119	-0.037652
H201	H	-0.917871	0.952001	-0.520979
H202	H	-0.417871	1.452001	-0.020979
H203	H	-1.094287	0.460756	-1.115194
H204	H	-0.594287	0.960756	-0.615194
H205	H	-0.399905	0.747599	-0.476857
H206	H	0.100095	1.247599	0.023143
H207	H	-0.931610	0.991724	-0.286004
H208	H	-0.431610	1.491724	0.213996
N209	N	-0.924942	0.705314	-0.965274
N210	N	-0.424942	1.205314	-0.465274
H211	H	-0.895077	0.748435	-0.998504
H212	H	-0.395077	1.248435	-0.498504
H213	H	-0.954722	0.754433	-0.935959
H214	H	-0.454722	1.254433	-0.435959
N215	N	-0.959027	1.199230	-0.505307
N216	N	-0.459027	1.699230	-0.005307
H217	H	-1.001809	1.248926	-0.505510
H218	H	-0.501809	1.748926	-0.005510
H219	H	-0.917016	1.239073	-0.522328
H220	H	-0.417016	1.739073	-0.022328
H221	H	-0.266765	0.739211	-0.471524
H222	H	0.233235	1.239211	0.028476
H223	H	-0.909519	0.727705	-0.644268
H224	H	-0.409519	1.227705	-0.144268
N225	N	-0.872948	0.988091	-0.411899
N226	N	-0.372948	1.488091	0.088101
H227	H	-0.837678	1.014939	-0.447192
H228	H	-0.337678	1.514939	0.052808
H229	H	-0.860298	1.011478	-0.363672
H230	H	-0.360298	1.511478	0.136328
N231	N	-0.740303	0.724662	-0.462246
N232	N	-0.240303	1.224662	0.037754
H233	H	-0.704779	0.767149	-0.489289
H234	H	-0.204779	1.267149	0.010711
H235	H	-0.769468	0.685386	-0.496034
H236	H	-0.269468	1.185386	0.003966
H237	H	-1.023791	1.178872	-0.264416
H238	H	-0.523791	1.678872	0.235584
