data_functionalizedCrystal
_audit_creation_method	'MofGen! by Chris Wilmer'
_symmetry_space_group_name_H-M	'P1'
_symmetry_Int_Tables_number	1
_symmetry_cell_setting	triclinic
loop_
_symmetry_equiv_pos_as_xyz
  x,y,z
_cell_length_a	10.654550
_cell_length_b	22.610064
_cell_length_c	10.654550
_cell_angle_alpha	89.995810
_cell_angle_beta	95.515069
_cell_angle_gamma	90.012047
loop_
_atom_site_label
_atom_site_type_symbol
_atom_site_fract_x
_atom_site_fract_y
_atom_site_fract_z
O1	O	1.667861	0.049140	-0.176396
O2	O	1.302383	0.049151	-0.193202
O3	O	1.493525	0.049142	-0.002060
O4	O	1.476719	0.049150	-0.367539
O5	O	1.493468	-0.049227	-0.002059
O6	O	1.302326	-0.049218	-0.193202
O7	O	1.667805	-0.049229	-0.176396
Zn8	Zn	1.485056	-0.064842	-0.184798
Zn9	Zn	1.485131	0.064764	-0.184800
O10	O	1.476662	-0.049220	-0.367538
C11	C	1.255556	-0.000032	-0.191968
C12	C	1.116113	-0.000028	-0.188276
N13	N	1.485015	-0.153294	-0.184797
C14	C	1.036628	-0.000027	-0.300818
C15	C	0.905607	-0.000038	-0.297341
C16	C	0.933570	-0.000047	-0.068772
C17	C	1.064588	-0.000041	-0.072250
C18	C	1.561963	-0.561936	-0.261666
C19	C	1.561979	-0.623856	-0.261663
O20	O	1.627353	-0.655876	-0.327011
N21	N	1.485155	-0.654831	-0.184785
C22	C	1.408319	-0.623883	-0.107896
O23	O	1.342977	-0.655916	-0.042504
C24	C	1.408311	-0.561965	-0.107893
C25	C	1.485131	-0.530993	-0.184786
C26	C	1.638778	-0.530964	-0.338551
C27	C	1.638760	-0.469049	-0.338556
C28	C	1.561928	-0.438105	-0.261675
C29	C	1.485113	-0.469077	-0.184790
C30	C	1.331483	-0.531018	-0.030998
C31	C	1.331482	-0.469095	-0.031001
C32	C	1.408302	-0.438123	-0.107893
C33	C	1.408263	-0.376218	-0.107913
N34	N	1.485087	-0.345243	-0.184791
C35	C	1.561920	-0.376186	-0.261672
C36	C	1.408344	-0.753917	-0.107906
C37	C	1.408345	-0.815835	-0.107915
C38	C	1.562006	-0.815803	-0.261681
C39	C	1.561998	-0.753884	-0.261678
C40	C	1.485168	-0.722942	-0.184784
C41	C	1.561876	-0.246159	-0.261676
C42	C	1.561847	-0.184238	-0.261678
C43	C	1.408191	-0.184275	-0.107907
C44	C	1.408214	-0.246190	-0.107910
C45	C	1.485066	-0.277131	-0.184799
O46	O	1.342926	-0.344159	-0.042595
O47	O	1.627263	-0.344146	-0.327041
C48	C	1.714631	-0.000044	-0.177630
C49	C	1.854074	-0.000045	-0.181322
C50	C	1.492263	-0.000043	0.044738
C51	C	1.488571	-0.000042	0.184181
N52	N	1.485182	0.153216	-0.184791
C53	C	1.477925	-0.000034	-0.414336
C54	C	1.481616	-0.000031	-0.553779
C55	C	1.601112	-0.000045	0.263667
C56	C	1.597636	-0.000037	0.394688
C57	C	1.369066	-0.000026	0.366725
C58	C	1.372544	-0.000029	0.235706
H59	H	0.840894	-0.000038	-0.388984
H60	H	1.274601	-0.000017	0.408693
H61	H	1.345645	-0.271409	-0.045314
H62	H	1.624551	-0.728671	-0.324291
O63	O	1.636832	-0.845802	-0.336287
C64	C	1.848635	-0.864751	-0.387228
C65	C	1.764047	-0.830729	-0.302678
H66	H	1.951507	-0.852587	-0.360068
H67	H	1.821637	-0.852570	-0.490116
H68	H	1.835378	-0.914322	-0.374037
H69	H	1.777260	-0.781150	-0.315759
H70	H	1.791065	-0.842960	-0.199821
H71	H	1.078574	-0.000021	-0.395294
H72	H	0.891602	-0.000061	0.025693
O73	O	1.333377	-0.154235	-0.033369
C74	C	1.121607	-0.135330	0.017723
C75	C	1.206172	-0.169379	-0.066806
H76	H	1.018747	-0.147571	-0.009262
H77	H	1.134697	-0.085749	0.004497
H78	H	1.148793	-0.147494	0.120586
H79	H	1.179040	-0.157264	-0.169700
H80	H	1.193071	-0.218951	-0.053471
O81	O	1.713923	-0.000023	0.213822
C82	C	1.940265	-0.000059	0.255392
C83	C	1.812591	-0.000074	0.312003
H84	H	2.020071	-0.000113	0.334744
H85	H	1.947714	0.041117	0.194790
H86	H	1.947522	-0.041218	0.194716
H87	H	1.805248	0.041057	0.372736
H88	H	1.805198	-0.041277	0.372532
H89	H	1.689279	-0.000039	0.459401
H90	H	1.129309	-0.000043	0.019401
O91	O	1.636593	-0.154244	-0.336407
C92	C	1.788949	-0.160759	-0.488977
C93	C	1.704384	-0.194797	-0.404392
H94	H	1.843760	-0.193532	-0.543985
H95	H	1.857852	-0.131777	-0.427913
H96	H	1.727760	-0.131763	-0.557721
H97	H	1.765472	-0.223826	-0.335636
H98	H	1.635474	-0.223742	-0.465535
O99	O	1.263130	0.000052	0.158614
C100	C	1.068909	0.051042	0.094556
C101	C	1.192751	0.051014	0.181954
H102	H	1.011985	0.092247	0.113377
H103	H	1.011752	0.009906	0.113438
H104	H	1.091358	0.051012	-0.007925
H105	H	1.170416	0.051065	0.284466
H106	H	1.249873	0.092146	0.162963
H107	H	1.701320	-0.443837	-0.401164
H108	H	1.624457	-0.271344	-0.324285
H109	H	1.701351	-0.556152	-0.401157
O110	O	1.333500	-0.723890	-0.033364
C111	C	1.121699	-0.705026	0.017683
C112	C	1.206310	-0.739051	-0.066839
H113	H	1.018851	-0.717280	-0.009332
H114	H	1.134759	-0.655442	0.004485
H115	H	1.148868	-0.717198	0.120545
H116	H	1.179195	-0.726928	-0.169732
H117	H	1.193239	-0.788627	-0.053532
O118	O	1.256834	-0.561005	0.043819
C119	C	1.104395	-0.554482	0.196304
C120	C	1.188896	-0.520448	0.111650
H121	H	1.049426	-0.521707	0.251148
H122	H	1.165517	-0.583446	0.265178
H123	H	1.035615	-0.583497	0.135179
H124	H	1.257689	-0.491402	0.172674
H125	H	1.127696	-0.491522	0.042769
H126	H	1.345775	-0.841047	-0.045316
H127	H	1.268917	-0.443904	0.031618
