data_functionalizedCrystal
_audit_creation_method	'MofGen! by Chris Wilmer'
_symmetry_space_group_name_H-M	'P1'
_symmetry_Int_Tables_number	1
_symmetry_cell_setting	triclinic
loop_
_symmetry_equiv_pos_as_xyz
  x,y,z
_cell_length_a	12.645331
_cell_length_b	21.295417
_cell_length_c	12.645323
_cell_angle_alpha	89.967055
_cell_angle_beta	89.984262
_cell_angle_gamma	90.028938
loop_
_atom_site_label
_atom_site_type_symbol
_atom_site_fract_x
_atom_site_fract_y
_atom_site_fract_z
Zn1	Zn	1.620643	-0.250617	-0.599191
Zn2	Zn	2.120643	0.249383	-0.099191
Zn3	Zn	1.620487	-0.355892	-0.421906
Zn4	Zn	2.120487	0.144108	0.078094
Zn5	Zn	1.443357	-0.250639	-0.421956
Zn6	Zn	1.943357	0.249361	0.078044
Zn7	Zn	1.443302	-0.355851	-0.599142
Zn8	Zn	1.943302	0.144149	-0.099142
O9	O	1.531947	-0.303250	-0.510549
O10	O	2.031947	0.196750	-0.010549
O11	O	1.768969	-0.264590	-0.575672
O12	O	2.268969	0.235410	-0.075672
O13	O	1.596949	-0.341956	-0.273565
O14	O	2.096949	0.158044	0.226435
O15	O	1.466963	-0.162547	-0.445508
O16	O	1.966963	0.337453	0.054492
O17	O	1.768855	-0.341935	-0.445422
O18	O	2.268855	0.158065	0.054578
O19	O	1.597214	-0.162531	-0.575721
O20	O	2.097214	0.337469	-0.075721
O21	O	1.466812	-0.264627	-0.273602
O22	O	1.966812	0.235373	0.226398
O23	O	1.295003	-0.264588	-0.445462
O24	O	1.795003	0.235412	0.054538
O25	O	1.466868	-0.341865	-0.747496
O26	O	1.966868	0.158135	-0.247496
O27	O	1.294962	-0.341886	-0.575639
O28	O	1.794962	0.158114	-0.075639
O29	O	1.597160	-0.264551	-0.747532
O30	O	2.097160	0.235449	-0.247532
O31	O	1.596895	-0.443976	-0.445375
O32	O	2.096895	0.056024	0.054625
O33	O	1.466718	-0.443946	-0.575590
O34	O	1.966718	0.056054	-0.075590
C35	C	1.256518	-0.303235	-0.510551
C36	C	1.756518	0.196765	-0.010551
C37	C	1.138688	-0.303244	-0.510578
C38	C	1.638688	0.196756	-0.010578
C39	C	0.971133	-0.352140	-0.592046
C40	C	1.471133	0.147860	-0.092046
C41	C	1.093693	-0.351982	-0.592386
C42	C	1.593693	0.148018	-0.092386
C43	C	1.094233	-0.236943	-0.541115
C44	C	1.594233	0.263057	-0.041115
C45	C	0.971635	-0.237242	-0.541689
C46	C	1.471635	0.262758	-0.041689
C47	C	0.971436	-0.320116	-0.398314
C48	C	1.471436	0.179884	0.101686
C49	C	1.094041	-0.321566	-0.398920
C50	C	1.594041	0.178434	0.101080
C51	C	1.531812	-0.466801	-0.510495
C52	C	2.031812	0.033199	-0.010495
C53	C	1.531851	-0.536769	-0.510508
C54	C	2.031851	-0.036769	-0.010508
C55	C	1.599634	-0.569571	-0.578358
C56	C	2.099634	-0.069571	-0.078358
C57	C	1.599672	-0.635313	-0.578384
C58	C	2.099672	-0.135313	-0.078384
C59	C	1.531937	-0.668252	-0.510541
C60	C	2.031937	-0.168252	-0.010541
C61	C	1.464141	-0.635443	-0.442686
C62	C	1.964141	-0.135443	0.057314
C63	C	1.464098	-0.569702	-0.442669
C64	C	1.964098	-0.069702	0.057331
N65	N	1.523925	-0.771516	-0.417766
N66	N	2.023925	-0.271516	0.082234
N67	N	1.523972	-0.833967	-0.417784
N68	N	2.023972	-0.333967	0.082216
C69	C	1.532061	-0.866327	-0.510589
C70	C	2.032061	-0.366327	-0.010589
N71	N	1.540122	-0.833875	-0.603376
N72	N	2.040122	-0.333875	-0.103376
N73	N	1.540080	-0.771418	-0.603356
N74	N	2.040080	-0.271418	-0.103356
C75	C	1.531976	-0.739537	-0.510552
C76	C	2.031976	-0.239537	-0.010552
C77	C	1.599888	-0.970413	-0.578473
C78	C	2.099888	-0.470413	-0.078473
C79	C	1.599918	-1.036157	-0.578501
C80	C	2.099918	-0.536157	-0.078501
C81	C	1.464393	-1.036285	-0.442793
C82	C	1.964393	-0.536285	0.057207
C83	C	1.464358	-0.970543	-0.442775
C84	C	1.964358	-0.470543	0.057225
C85	C	1.532111	-0.937611	-0.510613
C86	C	2.032111	-0.437611	-0.010613
C87	C	1.808452	-0.303264	-0.510547
C88	C	2.308452	0.196736	-0.010547
C89	C	1.926282	-0.303271	-0.510546
C90	C	2.426282	0.196729	-0.010546
C91	C	1.532025	-0.303201	-0.787054
C92	C	2.032025	0.196799	-0.287054
C93	C	1.532059	-0.303180	-0.904884
C94	C	2.032059	0.196820	-0.404884
C95	C	1.532112	-0.139059	-0.510626
C96	C	2.032112	0.360941	-0.010626
C97	C	1.532182	-0.069091	-0.510659
C98	C	2.032182	0.430909	-0.010659
C99	C	1.449839	-0.351590	-1.072426
C100	C	1.949839	0.148410	-0.572426
C101	C	1.450055	-0.351830	-0.949866
C102	C	1.950055	0.148170	-0.449866
C103	C	1.643752	-0.321184	-0.949386
C104	C	2.143752	0.178816	-0.449386
C105	C	1.643301	-0.321488	-1.071985
C106	C	2.143301	0.178512	-0.571985
C107	C	1.503641	-0.236496	-1.072101
C108	C	2.003641	0.263504	-0.572101
C109	C	1.501149	-0.236895	-0.949495
C110	C	2.001149	0.263105	-0.449495
C111	C	1.531930	-0.303253	-0.235119
C112	C	2.031930	0.196747	0.264881
C113	C	1.532103	-0.303096	-0.117290
C114	C	2.032103	0.196904	0.382710
H115	H	1.123379	-0.199543	-0.483609
H116	H	1.623379	0.300457	0.016391
O117	O	1.134605	-0.277838	-0.314163
O118	O	1.634605	0.222162	0.185837
H119	H	1.066805	-0.254005	-0.275516
H120	H	1.566805	0.245995	0.224484
H121	H	1.408989	-0.662266	-0.387450
H122	H	1.908989	-0.162266	0.112550
O123	O	1.132590	-0.337212	-0.702535
O124	O	1.632590	0.162788	-0.202535
H125	H	1.181163	-0.293800	-0.700587
H126	H	1.681163	0.206200	-0.200587
H127	H	1.668293	-0.369360	-0.918683
H128	H	2.168293	0.130640	-0.418683
H129	H	1.468842	-0.401203	-0.920538
H130	H	1.968842	0.098797	-0.420538
O131	O	0.932036	-0.417483	-0.566985
O132	O	1.432036	0.082517	-0.066985
H133	H	0.886609	-0.435941	-0.635335
H134	H	1.386609	0.064059	-0.135335
H135	H	1.655115	-1.062863	-0.633758
H136	H	2.155115	-0.562863	-0.133758
O137	O	1.672705	-0.534054	-0.651532
O138	O	2.172705	-0.034054	-0.151532
H139	H	1.661296	-0.482829	-0.640119
H140	H	2.161296	0.017171	-0.140119
O141	O	1.134953	-0.217675	-0.648613
O142	O	1.634953	0.282325	-0.148613
H143	H	1.067174	-0.210281	-0.702957
H144	H	1.567174	0.289719	-0.202957
H145	H	1.423614	-0.220085	-1.103019
H146	H	1.923614	0.279915	-0.603019
H147	H	0.940346	-0.341136	-0.674721
H148	H	1.440346	0.158864	-0.174721
O149	O	1.391339	-1.071801	-0.369611
O150	O	1.891339	-0.571801	0.130389
H151	H	1.402760	-1.123027	-0.381014
H152	H	1.902760	-0.623027	0.118986
O153	O	1.672790	-0.670704	-0.651560
O154	O	2.172790	-0.170704	-0.151560
H155	H	1.719900	-0.636759	-0.698723
H156	H	2.219900	-0.136759	-0.198723
H157	H	1.408900	-0.542994	-0.387416
H158	H	1.908900	-0.042994	0.112584
H159	H	1.367230	-0.340563	-0.919777
H160	H	1.867230	0.159437	-0.419777
O161	O	1.392275	-0.218908	-0.910956
O162	O	1.892275	0.281092	-0.410956
H163	H	1.339254	-0.211724	-0.979841
H164	H	1.839254	0.288276	-0.479841
H165	H	0.943065	-0.222953	-0.623735
H166	H	1.443065	0.277047	-0.123735
O167	O	1.672950	-0.934886	-0.651645
O168	O	2.172950	-0.434886	-0.151645
H169	H	1.720080	-0.968743	-0.698844
H170	H	2.220080	-0.468743	-0.198844
H171	H	0.940497	-0.367639	-0.370562
H172	H	1.440497	0.132361	0.129438
H173	H	1.409167	-0.943834	-0.387520
H174	H	1.909167	-0.443834	0.112480
H175	H	0.941967	-0.199525	-0.485051
H176	H	1.441967	0.300475	0.014949
H177	H	1.366769	-0.340432	-1.101913
H178	H	1.866769	0.159568	-0.601913
H179	H	1.123107	-0.370354	-0.375888
H180	H	1.623107	0.129646	0.124112
O181	O	1.474435	-0.416580	-1.113270
O182	O	1.974435	0.083420	-0.613270
H183	H	1.545002	-0.414494	-1.165375
H184	H	2.045002	0.085506	-0.665375
O185	O	0.933016	-0.272972	-0.317867
O186	O	1.433016	0.227028	0.182133
H187	H	0.882009	-0.237712	-0.357556
H188	H	1.382009	0.262288	0.142444
H189	H	1.667429	-0.370174	-1.100581
H190	H	2.167429	0.129826	-0.600581
O191	O	1.727254	-0.276747	-1.111312
O192	O	2.227254	0.223253	-0.611312
H193	H	1.768000	-0.254994	-1.042761
H194	H	2.268000	0.245006	-0.542761
H195	H	1.706686	-0.286981	-0.920252
H196	H	2.206686	0.213019	-0.420252
H197	H	1.563558	-0.200366	-1.101116
H198	H	2.063558	0.299634	-0.601116
H199	H	1.556690	-0.198855	-0.918876
H200	H	2.056690	0.301145	-0.418876
H201	H	1.123748	-0.401148	-0.573246
H202	H	1.623748	0.098852	-0.073246
