data_functionalizedCrystal
_audit_creation_method	'MofGen! by Chris Wilmer'
_symmetry_space_group_name_H-M	'P1'
_symmetry_Int_Tables_number	1
_symmetry_cell_setting	triclinic
loop_
_symmetry_equiv_pos_as_xyz
  x,y,z
_cell_length_a	15.298068
_cell_length_b	15.297327
_cell_length_c	19.076929
_cell_angle_alpha	101.507136
_cell_angle_beta	82.178467
_cell_angle_gamma	110.796215
loop_
_atom_site_label
_atom_site_type_symbol
_atom_site_fract_x
_atom_site_fract_y
_atom_site_fract_z
Zn1	Zn	1.320466	-0.161736	-0.598381
Zn2	Zn	1.820466	0.338264	-0.098381
Zn3	Zn	1.299689	-0.311035	-0.498023
Zn4	Zn	1.799689	0.188965	0.001977
Zn5	Zn	1.173353	-0.180240	-0.463299
Zn6	Zn	1.673353	0.319760	0.036701
Zn7	Zn	1.137981	-0.344092	-0.598266
Zn8	Zn	1.637981	0.155908	-0.098266
O9	O	1.232872	-0.249276	-0.539492
O10	O	1.732872	0.250724	-0.039492
O11	O	1.446952	-0.159962	-0.599649
O12	O	1.946952	0.340038	-0.099649
O13	O	1.289038	-0.287594	-0.394932
O14	O	1.789038	0.212406	0.105068
O15	O	1.216366	-0.046731	-0.466733
O16	O	1.716366	0.453269	0.033267
O17	O	1.431687	-0.269651	-0.525916
O18	O	1.931687	0.230349	-0.025916
O19	O	1.324449	-0.033136	-0.565978
O20	O	1.824449	0.466864	-0.065978
O21	O	1.196220	-0.191500	-0.369420
O22	O	1.696220	0.308500	0.130580
O23	O	1.039418	-0.223554	-0.466622
O24	O	1.539418	0.276446	0.033378
O25	O	1.156080	-0.325992	-0.696766
O26	O	1.656080	0.174008	-0.196766
O27	O	1.013431	-0.343935	-0.565782
O28	O	1.513431	0.156065	-0.065782
O29	O	1.290151	-0.192016	-0.696850
O30	O	1.790151	0.307984	-0.196850
O31	O	1.254739	-0.446474	-0.525805
O32	O	1.754739	0.053526	-0.025805
O33	O	1.135933	-0.470761	-0.599453
O34	O	1.635933	0.029239	-0.099453
C35	C	0.992913	-0.289341	-0.512422
C36	C	1.492913	0.210659	-0.012422
C37	C	0.890253	-0.306504	-0.500860
C38	C	1.390253	0.193496	-0.000860
C39	C	0.632578	-0.126841	-0.622152
C40	C	1.132578	0.373159	-0.122152
C41	C	0.729031	-0.110718	-0.633019
C42	C	1.229031	0.389282	-0.133019
C43	C	0.769342	-0.159662	-0.599980
C44	C	1.269342	0.340338	-0.099980
C45	C	0.713188	-0.224734	-0.556073
C46	C	1.213188	0.275266	-0.056073
C47	C	0.616723	-0.240864	-0.545209
C48	C	1.116723	0.259136	-0.045209
C49	C	0.753488	-0.273686	-0.523037
C50	C	1.253488	0.226314	-0.023037
C51	C	0.697334	-0.338757	-0.479130
C52	C	1.197334	0.161243	0.020870
C53	C	0.600879	-0.354884	-0.468268
C54	C	1.100879	0.145116	0.031732
C55	C	0.560569	-0.305939	-0.501307
C56	C	1.060569	0.194061	-0.001307
C57	C	0.849952	-0.257556	-0.533901
C58	C	1.349952	0.242444	-0.033901
C59	C	0.834098	-0.371579	-0.456958
C60	C	1.334098	0.128421	0.043042
C61	C	0.737644	-0.387702	-0.446091
C62	C	1.237644	0.112298	0.053909
C63	C	1.189268	-0.492595	-0.566402
C64	C	1.689268	0.007405	-0.066402
C65	C	1.170696	-0.596676	-0.577948
C66	C	1.670696	-0.096676	-0.077948
C67	C	1.365968	-0.839330	-0.457258
C68	C	1.865968	-0.339330	0.042742
C69	C	1.383417	-0.741541	-0.446407
C70	C	1.883417	-0.241541	0.053593
C71	C	1.330238	-0.705320	-0.479292
C72	C	1.830238	-0.205320	0.020708
C73	C	1.259608	-0.766898	-0.523029
C74	C	1.759608	-0.266898	-0.023029
C75	C	1.242153	-0.864697	-0.533876
C76	C	1.742153	-0.364697	-0.033876
C77	C	1.206423	-0.730686	-0.555910
C78	C	1.706423	-0.230686	-0.055910
C79	C	1.135793	-0.792264	-0.599647
C80	C	1.635793	-0.292264	-0.099647
C81	C	1.118342	-0.890053	-0.610493
C82	C	1.618342	-0.390053	-0.110493
C83	C	1.171520	-0.926275	-0.577608
C84	C	1.671520	-0.426275	-0.077608
C85	C	1.223878	-0.632887	-0.545062
C86	C	1.723878	-0.132887	-0.045062
C87	C	1.100063	-0.658254	-0.621680
C88	C	1.600063	-0.158254	-0.121680
C89	C	1.082615	-0.756043	-0.632531
C90	C	1.582615	-0.256043	-0.132531
C91	C	1.473768	-0.209055	-0.566669
C92	C	1.973768	0.290945	-0.066669
C93	C	1.576423	-0.191916	-0.578250
C94	C	2.076423	0.308084	-0.078250
C95	C	1.221487	-0.260627	-0.723058
C96	C	1.721487	0.239373	-0.223058
C97	C	1.216636	-0.265465	-0.801283
C98	C	1.716636	0.234535	-0.301283
C99	C	1.276671	-0.005003	-0.512495
C100	C	1.776671	0.494997	-0.012495
C101	C	1.295335	0.099092	-0.500990
C102	C	1.795335	0.599092	-0.000990
C103	C	1.181832	-0.300234	-1.241608
C104	C	1.681832	0.199766	-0.741608
C105	C	1.186389	-0.295676	-1.168106
C106	C	1.686389	0.204324	-0.668106
C107	C	1.258475	-0.223647	-1.131403
C108	C	1.758475	0.276353	-0.631403
C109	C	1.326002	-0.156167	-1.168205
C110	C	1.826002	0.343833	-0.668205
C111	C	1.321440	-0.160722	-1.241705
C112	C	1.821440	0.339278	-0.741705
C113	C	1.279601	-0.202540	-0.911585
C114	C	1.779601	0.297460	-0.411585
C115	C	1.284159	-0.197991	-0.838080
C116	C	1.784159	0.302009	-0.338080
C117	C	1.144545	-0.337500	-0.837986
C118	C	1.644545	0.162500	-0.337986
C119	C	1.139992	-0.342052	-0.911488
C120	C	1.639992	0.157948	-0.411488
C121	C	1.207517	-0.274569	-0.948283
C122	C	1.707517	0.225431	-0.448283
N123	N	1.263137	-0.218987	-1.056272
N124	N	1.763137	0.281013	-0.556272
N125	N	1.202850	-0.279225	-1.023412
N126	N	1.702850	0.220775	-0.523412
C127	C	1.244278	-0.237892	-0.356639
C128	C	1.744278	0.262108	0.143361
C129	C	1.249355	-0.232761	-0.278405
C130	C	1.749355	0.267239	0.221595
H131	H	0.774744	-0.057739	-0.668771
H132	H	1.274744	0.442261	-0.168771
Br133	Br	0.900246	-0.137780	-0.614729
Br134	Br	1.400246	0.362220	-0.114729
H135	H	0.895664	-0.204573	-0.569650
H136	H	1.395664	0.295427	-0.069650
H137	H	1.440922	-0.691408	-0.410796
H138	H	1.940922	-0.191408	0.089204
Br139	Br	0.577864	-0.060439	-0.666998
Br140	Br	1.077864	0.439561	-0.166998
Br141	Br	1.147449	-1.059042	-0.591971
Br142	Br	1.647449	-0.559042	-0.091971
Br143	Br	1.042169	-0.439821	-0.961297
Br144	Br	1.542169	0.060179	-0.461297
H145	H	1.089570	-0.392440	-0.808019
H146	H	1.589570	0.107560	-0.308019
H147	H	1.342861	-0.139332	-0.808198
H148	H	1.842861	0.360668	-0.308198
Br149	Br	1.319729	-0.549330	-0.485705
Br150	Br	1.819729	-0.049330	0.014295
H151	H	0.691910	-0.440685	-0.410341
H152	H	1.191910	0.059315	0.089659
H153	H	0.482028	-0.319069	-0.492466
H154	H	0.982028	0.180931	0.007534
H155	H	1.123135	-0.358891	-1.271487
H156	H	1.623135	0.141109	-0.771487
Br157	Br	1.027880	-0.609107	-0.666304
Br158	Br	1.527880	-0.109107	-0.166304
Br159	Br	1.438126	-0.888493	-0.412631
Br160	Br	1.938126	-0.388493	0.087369
Br161	Br	0.888794	-0.438016	-0.412122
Br162	Br	1.388794	0.061984	0.087878
Br163	Br	1.022481	-0.973622	-0.669844
Br164	Br	1.522481	-0.473622	-0.169844
H165	H	1.376422	-0.105775	-1.271664
H166	H	1.876422	0.394225	-0.771664
Br167	Br	1.371284	-0.110999	-0.961524
Br168	Br	1.871284	0.389001	-0.461524
Br169	Br	1.423813	-0.058389	-1.118389
Br170	Br	1.923813	0.441611	-0.618389
Br171	Br	1.094740	-0.387245	-1.118167
Br172	Br	1.594740	0.112755	-0.618167
Br173	Br	0.986765	-0.839622	-0.691888
Br174	Br	1.486765	-0.339622	-0.191888
Br175	Br	0.524672	-0.443194	-0.408678
Br176	Br	1.024672	0.056806	0.091322
H177	H	1.344448	-0.625695	-0.470453
H178	H	1.844448	-0.125695	0.029547
