data_functionalizedCrystal
_audit_creation_method	'MofGen! by Chris Wilmer'
_symmetry_space_group_name_H-M	'P1'
_symmetry_Int_Tables_number	1
_symmetry_cell_setting	triclinic
loop_
_symmetry_equiv_pos_as_xyz
  x,y,z
_cell_length_a	11.792241
_cell_length_b	14.853566
_cell_length_c	13.330367
_cell_angle_alpha	89.997816
_cell_angle_beta	89.998214
_cell_angle_gamma	83.913915
loop_
_atom_site_label
_atom_site_type_symbol
_atom_site_fract_x
_atom_site_fract_y
_atom_site_fract_z
O1	O	0.148170	1.196943	-0.083358
O2	O	0.165823	0.934553	-0.083374
O3	O	-0.008213	1.072116	-0.083358
O4	O	0.322207	1.059381	-0.083373
O5	O	-0.008208	1.072101	0.083489
O6	O	0.165829	0.934538	0.083473
O7	O	0.148175	1.196929	0.083490
Cu8	Cu	0.157002	1.065732	0.098716
Cu9	Cu	0.156996	1.065749	-0.098600
O10	O	0.322212	1.059366	0.083474
C11	C	0.165026	0.900954	0.000047
C12	C	0.162630	0.800861	0.000041
C13	C	0.152492	0.377644	-0.090889
C14	C	0.152498	0.377650	0.091014
C15	C	0.154749	0.471693	0.091011
C16	C	0.155872	0.518715	0.000056
C17	C	0.154746	0.471695	-0.090895
C18	C	0.155887	0.518719	0.181961
C19	C	0.158138	0.612767	0.181961
C20	C	0.159254	0.659792	0.091005
C21	C	0.158126	0.612766	0.000050
C22	C	0.159250	0.659789	-0.090904
C23	C	0.158114	0.612766	-0.181860
C24	C	0.155862	0.518720	-0.181851
C25	C	0.161506	0.753838	0.090996
C26	C	0.161504	0.753840	-0.090910
C27	C	-0.050497	1.071308	0.000065
C28	C	-0.176496	1.068914	0.000064
C29	C	-0.407181	1.064511	0.000047
C30	C	-0.278810	1.066958	0.000056
C31	C	0.364495	1.060173	0.000048
C32	C	0.490494	1.062568	0.000043
C33	C	0.148972	1.230528	0.000066
C34	C	0.151368	1.330621	0.000065
N35	N	0.157006	1.065727	0.237497
N36	N	0.156984	1.065762	-0.237382
C37	C	0.234046	1.004806	0.290016
C38	C	0.079962	1.126654	0.290007
C39	C	0.079957	1.126663	0.395025
C40	C	0.156997	1.065742	0.447544
C41	C	0.234041	1.004811	0.395044
C42	C	0.002906	1.187586	0.447533
C43	C	0.002898	1.187597	0.552558
C44	C	0.079944	1.126679	0.605078
C45	C	0.156993	1.065747	0.552572
C46	C	0.234032	1.004826	0.605090
C47	C	0.311087	0.943897	0.552585
C48	C	0.311088	0.943893	0.447564
C49	C	0.079944	1.126683	0.710100
C50	C	0.234028	1.004831	0.710118
H51	H	0.151591	0.339358	0.165065
C52	C	0.154626	0.466993	-0.281890
H53	H	0.153138	0.404247	-0.268858
H54	H	0.088863	0.488950	-0.319265
H55	H	0.221138	0.475854	-0.319259
C56	C	0.159377	0.664490	0.282004
H57	H	0.160884	0.727235	0.268976
H58	H	0.092877	0.655625	0.319378
H59	H	0.225153	0.642527	0.319370
C60	C	0.395826	0.876888	0.610362
H61	H	0.384784	0.885624	0.680428
H62	H	0.383375	0.816659	0.593158
H63	H	0.471603	0.887057	0.593159
H64	H	0.154979	0.480425	0.256011
C65	C	0.318803	0.937788	0.232272
H66	H	0.364686	0.901513	0.278595
H67	H	0.277900	0.900059	0.191301
H68	H	0.366130	0.970455	0.191306
C69	C	-0.004784	1.193654	0.232240
H70	H	0.006254	1.184925	0.162173
H71	H	-0.080553	1.183492	0.249458
H72	H	0.007679	1.253888	0.249438
H73	H	0.373822	0.894287	0.404808
H74	H	-0.059823	1.237183	0.404769
C75	C	-0.081846	1.254623	0.610304
H76	H	-0.127720	1.290908	0.563983
H77	H	-0.129168	1.221972	0.651284
H78	H	-0.040921	1.292356	0.651261
C79	C	-0.004809	1.193692	0.767851
H80	H	-0.050689	1.229974	0.721531
H81	H	-0.052122	1.161030	0.808825
H82	H	0.036104	1.231430	0.808813
H83	H	0.162415	0.792120	-0.164978
H84	H	0.159037	0.651063	-0.255916
C85	C	0.318773	0.937819	0.767885
H86	H	0.307741	0.946549	0.837953
H87	H	0.306320	0.877591	0.750677
H88	H	0.394548	0.947990	0.750675
C89	C	0.162760	0.805563	0.191031
H90	H	0.164269	0.868308	0.178002
H91	H	0.096264	0.796701	0.228413
H92	H	0.228540	0.783599	0.228390
H93	H	0.151563	0.339354	-0.164943
