data_functionalizedCrystal
_audit_creation_method	'MofGen! by Chris Wilmer'
_symmetry_space_group_name_H-M	'P1'
_symmetry_Int_Tables_number	1
_symmetry_cell_setting	triclinic
loop_
_symmetry_equiv_pos_as_xyz
  x,y,z
_cell_length_a	12.837943
_cell_length_b	19.188925
_cell_length_c	11.295483
_cell_angle_alpha	94.081402
_cell_angle_beta	85.461227
_cell_angle_gamma	88.985745
loop_
_atom_site_label
_atom_site_type_symbol
_atom_site_fract_x
_atom_site_fract_y
_atom_site_fract_z
O1	O	1.381626	0.177217	-0.099002
O2	O	1.079862	0.168253	-0.099009
O3	O	1.239455	0.071677	-0.098999
O4	O	1.222033	0.273793	-0.099013
O5	O	1.225437	0.080145	0.099051
O6	O	1.065845	0.176721	0.099041
O7	O	1.367609	0.185685	0.099048
Cu8	Cu	1.215447	0.181976	0.117128
Cu9	Cu	1.232024	0.171962	-0.117089
O10	O	1.208016	0.282261	0.099037
C11	C	1.034246	0.169459	0.000015
C12	C	0.919211	0.160428	0.000012
C13	C	0.677756	0.268996	0.000022
C14	C	0.569669	0.260514	0.000020
C15	C	0.594947	0.134983	0.000016
C16	C	0.703034	0.143465	0.000018
C17	C	0.744435	0.210474	0.000019
C18	C	0.852524	0.218955	0.000012
C19	C	0.877799	0.093424	0.000016
C20	C	0.769712	0.084942	0.000015
C21	C	1.231883	0.049861	0.000025
C22	C	1.230192	-0.027760	0.000023
C23	C	1.312516	-0.583885	-0.000005
C24	C	1.314113	-0.510952	0.000006
C25	C	1.220469	-0.472440	0.000003
C26	C	1.125219	-0.506867	0.000020
C27	C	1.123624	-0.579798	0.000021
N28	N	1.157446	-0.359292	-0.067410
N29	N	1.158968	-0.290010	-0.067413
C30	C	1.225269	-0.252702	0.000002
N31	N	1.290009	-0.287293	0.067407
N32	N	1.288490	-0.356581	0.067405
C33	C	1.222188	-0.393358	0.000003
C34	C	1.322245	-0.139201	0.000005
C35	C	1.323837	-0.066266	0.000024
C36	C	1.134941	-0.062183	0.000026
C37	C	1.133350	-0.135116	0.000020
C38	C	1.227006	-0.173621	0.000004
C39	C	1.413224	0.184479	0.000021
C40	C	1.528261	0.193509	0.000016
C41	C	1.215588	0.304077	0.000011
C42	C	1.217279	0.381697	0.000005
N43	N	1.203795	0.189020	0.281863
N44	N	1.243684	0.164913	-0.281825
C45	C	1.327561	0.114170	0.531161
C46	C	1.318763	0.119498	0.655824
C47	C	1.177396	0.205001	0.655855
C48	C	1.186194	0.199672	0.531192
C49	C	1.261280	0.154256	0.468849
C50	C	1.270083	0.148932	0.344184
C51	C	1.128712	0.234430	0.344217
C52	C	1.119914	0.239759	0.468880
H53	H	0.932102	0.045770	0.000006
H54	H	0.735988	0.030386	0.000028
O55	O	1.408520	0.065170	0.463917
H56	H	1.403496	0.068195	0.366762
O57	O	0.722422	0.341265	0.000025
H58	H	0.657896	0.380536	0.000032
H59	H	0.515383	0.308170	0.000026
O60	O	1.038943	0.288747	0.536131
H61	H	0.994332	0.315727	0.471854
O62	O	1.030625	-0.172241	0.000022
H63	H	1.045247	-0.229423	0.000034
H64	H	0.561212	0.080431	0.000114
H65	H	1.074744	0.267074	0.293468
O66	O	1.351047	0.099942	0.276926
H67	H	1.430109	0.115246	0.300827
H68	H	1.058693	-0.030827	0.000034
O69	O	1.413523	-0.625416	0.000005
H70	H	1.480016	-0.589224	0.000015
O71	O	1.390265	0.076270	0.723029
H72	H	1.379010	0.019950	0.699101
O73	O	0.897185	0.291225	0.000028
H74	H	0.832655	0.330494	0.000047
O75	O	1.416838	-0.473816	-0.000023
H76	H	1.481694	-0.512844	-0.000044
O77	O	1.024213	-0.465336	0.000016
H78	H	1.041322	-0.408839	0.000001
O79	O	1.426563	-0.029139	-0.000002
H80	H	1.491416	-0.068170	-0.000030
O81	O	1.020900	-0.616928	0.000032
H82	H	0.981628	-0.605405	-0.080691
O83	O	1.423249	-0.180739	0.000011
H84	H	1.489744	-0.144549	0.000028
O85	O	1.096415	0.253983	0.723103
H86	H	1.101440	0.250953	0.820257
