data_functionalizedCrystal
_audit_creation_method	'MofGen! by Chris Wilmer'
_symmetry_space_group_name_H-M	'P1'
_symmetry_Int_Tables_number	1
_symmetry_cell_setting	triclinic
loop_
_symmetry_equiv_pos_as_xyz
  x,y,z
_cell_length_a	19.121275
_cell_length_b	19.121063
_cell_length_c	19.076919
_cell_angle_alpha	85.393653
_cell_angle_beta	85.183632
_cell_angle_gamma	89.926756
loop_
_atom_site_label
_atom_site_type_symbol
_atom_site_fract_x
_atom_site_fract_y
_atom_site_fract_z
Zn1	Zn	1.044451	-0.338911	0.367732
Zn2	Zn	1.044071	-0.451822	0.254874
Zn3	Zn	0.931949	-0.329592	0.254466
Zn4	Zn	0.921762	-0.451495	0.377748
O5	O	0.985558	-0.392955	0.313705
O6	O	1.142670	-0.357925	0.348740
O7	O	1.033302	-0.431845	0.155994
O8	O	0.951294	-0.232557	0.265129
O9	O	1.142391	-0.440881	0.265824
O10	O	1.033949	-0.239403	0.348345
O11	O	0.950926	-0.342043	0.155695
O12	O	0.832328	-0.341726	0.274841
O13	O	0.933932	-0.440324	0.475244
O14	O	0.824844	-0.431288	0.365415
O15	O	1.024071	-0.357608	0.467886
O16	O	1.023425	-0.550050	0.275535
O17	O	0.933564	-0.549810	0.365810
C18	C	0.803106	-0.385461	0.321171
C19	C	0.725050	-0.382272	0.324383
C20	C	0.688237	-0.423889	0.282651
C21	C	0.614896	-0.420894	0.285678
C22	C	0.578368	-0.376277	0.330433
C23	C	0.615186	-0.334658	0.372170
C24	C	0.688526	-0.337658	0.369146
C25	C	0.356935	-0.365067	0.341729
C26	C	0.283590	-0.362068	0.344748
C27	C	0.283305	-0.448305	0.258257
C28	C	0.356647	-0.451298	0.255234
C29	C	0.393458	-0.409682	0.296973
C30	C	0.503401	-0.373213	0.333526
C31	C	0.468423	-0.412750	0.293883
C32	C	0.977366	-0.575412	0.321818
C33	C	0.973925	-0.653471	0.325310
C34	C	1.019127	-0.690248	0.279985
C35	C	1.015895	-0.763594	0.283273
C36	C	0.967456	-0.800160	0.331883
C37	C	0.922252	-0.763378	0.377213
C38	C	0.925489	-0.690034	0.373928
C39	C	0.955345	-1.021606	0.344155
C40	C	0.952111	-1.094955	0.347435
C41	C	1.045755	-1.095165	0.253496
C42	C	1.048984	-1.021820	0.250212
C43	C	1.003782	-0.985044	0.295544
C44	C	0.964149	-0.875131	0.335244
C45	C	1.007093	-0.910075	0.292187
C46	C	1.168723	-0.400479	0.306210
C47	C	1.246777	-0.403686	0.303016
C48	C	0.977908	-0.399969	0.497906
C49	C	0.974648	-0.402958	0.576401
C50	C	0.993800	-0.209787	0.305575
C51	C	0.997313	-0.131732	0.302110
C52	C	0.993221	-0.385919	0.130217
C53	C	0.996626	-0.382738	0.051707
C54	C	1.020044	-0.361298	0.609449
C55	C	1.016973	-0.364104	0.683204
C56	C	0.968507	-0.408573	0.723910
C57	C	0.923106	-0.450234	0.690858
C58	C	0.926175	-0.447424	0.617104
C59	C	0.954294	-0.421590	0.944901
C60	C	0.951230	-0.424398	1.018660
C61	C	1.045096	-0.338266	1.011001
C62	C	1.048163	-0.335464	0.937246
C63	C	1.002760	-0.377122	0.904200
N64	N	0.965368	-0.411443	0.799300
N65	N	1.005896	-0.374248	0.828812
H66	H	0.717973	-0.460218	0.246203
O67	O	1.065939	-0.319176	0.718851
H68	H	1.100163	-0.287790	0.678155
H69	H	0.883642	-0.486439	0.724006
O70	O	0.876728	-0.650370	0.422813
H71	H	0.908111	-0.619576	0.455992
H72	H	0.253851	-0.325730	0.381191
O73	O	1.071382	-0.650810	0.227565
H74	H	1.042956	-0.614778	0.191392
O75	O	0.898943	-0.472354	1.062563
H76	H	0.904442	-0.467311	1.119400
H77	H	0.718498	-0.303768	0.403128
O78	O	0.877203	-0.492346	0.581454
H79	H	0.842986	-0.523741	0.622149
H80	H	1.059512	-0.325089	0.576311
H81	H	1.087631	-0.299255	0.904108
O82	O	0.870007	-0.802812	0.429646
H83	H	0.816028	-0.786053	0.419117
H84	H	0.386382	-0.487628	0.218788
H85	H	0.917332	-0.455522	0.918004
H86	H	0.386898	-0.331181	0.375717
O87	O	1.064645	-0.803258	0.234380
H88	H	1.097570	-0.839294	0.266046
H89	H	1.082060	-0.304350	1.037915
H90	H	0.584926	-0.454783	0.251695
H91	H	0.253325	-0.482188	0.224276
H92	H	1.088426	-0.992049	0.210630
H93	H	0.585439	-0.298334	0.408614
O94	O	0.507818	-0.460865	0.245606
H95	H	0.538333	-0.499209	0.277364
H96	H	1.082556	-1.125116	0.216590
O97	O	0.464000	-0.325081	0.381786
H98	H	0.427689	-0.356565	0.420437
H99	H	0.912674	-1.124726	0.387031
H100	H	0.918539	-0.991669	0.381065
H101	H	1.046534	-0.880301	0.252611
H102	H	0.924709	-0.904912	0.374821
