data_functionalizedCrystal
_audit_creation_method	'MofGen! by Chris Wilmer'
_symmetry_space_group_name_H-M	'P1'
_symmetry_Int_Tables_number	1
_symmetry_cell_setting	triclinic
loop_
_symmetry_equiv_pos_as_xyz
  x,y,z
_cell_length_a	10.723023
_cell_length_b	9.798715
_cell_length_c	10.723023
_cell_angle_alpha	89.997613
_cell_angle_beta	95.532452
_cell_angle_gamma	90.003564
loop_
_atom_site_label
_atom_site_type_symbol
_atom_site_fract_x
_atom_site_fract_y
_atom_site_fract_z
O1	O	1.657187	0.113484	-0.175020
O2	O	1.294035	0.113487	-0.191775
O3	O	1.483988	0.113480	-0.001821
O4	O	1.467234	0.113491	-0.364974
O5	O	1.483974	-0.113502	-0.001820
O6	O	1.294021	-0.113495	-0.191773
O7	O	1.657173	-0.113498	-0.175019
Zn8	Zn	1.475595	-0.149535	-0.183396
Zn9	Zn	1.475613	0.149524	-0.183398
O10	O	1.467220	-0.113491	-0.364972
C11	C	1.247528	-0.000003	-0.190555
C12	C	1.108974	-0.000002	-0.186908
C13	C	0.903998	-0.117581	-0.181511
C14	C	1.047202	-0.117585	-0.185281
N15	N	1.475591	-0.353635	-0.183394
C16	C	1.548356	-0.421411	-0.255755
C17	C	1.548376	-0.578573	-0.255753
C18	C	1.703680	-0.000004	-0.176239
C19	C	1.842234	0.000003	-0.179886
C20	C	1.482762	-0.000010	0.044679
C21	C	1.479115	-0.000005	0.183233
N22	N	1.475627	0.353624	-0.183390
C23	C	1.468446	0.000002	-0.411473
C24	C	1.472093	0.000006	-0.550027
C25	C	1.473712	-0.117579	0.388208
C26	C	1.477481	-0.117586	0.245005
H27	H	1.055866	0.100671	-0.185507
C28	C	0.832230	-0.253580	-0.179624
H29	H	0.889549	-0.327351	-0.181142
H30	H	0.790328	-0.258655	-0.105646
H31	H	0.772549	-0.258645	-0.250944
C32	C	1.632535	-0.657295	-0.339453
H33	H	1.678167	-0.594368	-0.384859
H34	H	1.689365	-0.713032	-0.288653
H35	H	1.581985	-0.713039	-0.396506
H36	H	1.472300	-0.218243	0.441345
C37	C	1.473990	0.136003	0.378206
H38	H	1.472477	0.209777	0.435526
H39	H	1.547969	0.141073	0.336304
H40	H	1.402671	0.141073	0.318524
C41	C	1.479362	-0.253591	0.173265
H42	H	1.477857	-0.327358	0.230598
H43	H	1.408057	-0.258666	0.113578
H44	H	1.553355	-0.258665	0.131374
H45	H	1.477729	0.100669	0.236343
C46	C	1.118946	-0.253584	-0.187171
H47	H	1.205781	-0.235745	-0.189466
H48	H	1.106559	-0.304460	-0.113969
H49	H	1.088772	-0.304444	-0.259268
H50	H	0.895372	0.100668	-0.181293
H51	H	1.610643	-0.363084	-0.317702
H52	H	1.413321	-0.588099	-0.121442
C53	C	1.391441	-0.432409	-0.099704
H54	H	1.345790	-0.369507	-0.054301
H55	H	1.334628	-0.488160	-0.150511
H56	H	1.441996	-0.488142	-0.042646
