data_functionalizedCrystal
_audit_creation_method	'MofGen! by Chris Wilmer'
_symmetry_space_group_name_H-M	'P1'
_symmetry_Int_Tables_number	1
_symmetry_cell_setting	triclinic
loop_
_symmetry_equiv_pos_as_xyz
  x,y,z
_cell_length_a	12.759401
_cell_length_b	19.121063
_cell_length_c	12.759401
_cell_angle_alpha	87.575741
_cell_angle_beta	90.003120
_cell_angle_gamma	92.469017
loop_
_atom_site_label
_atom_site_type_symbol
_atom_site_fract_x
_atom_site_fract_y
_atom_site_fract_z
Zn1	Zn	1.588147	-0.279725	0.611781
Zn2	Zn	1.580554	-0.397151	0.443573
Zn3	Zn	1.412497	-0.279717	0.436120
Zn4	Zn	1.404903	-0.397142	0.619214
O5	O	1.496525	-0.338434	0.527672
O6	O	1.734160	-0.295309	0.589476
O7	O	1.558261	-0.381573	0.295564
O8	O	1.442153	-0.181432	0.453192
O9	O	1.728581	-0.381581	0.465895
O10	O	1.571202	-0.181439	0.582249
O11	O	1.434790	-0.295295	0.290088
O12	O	1.264469	-0.295287	0.460399
O13	O	1.429211	-0.381566	0.765249
O14	O	1.258890	-0.381558	0.594918
O15	O	1.563839	-0.295301	0.759788
O16	O	1.550898	-0.495436	0.473103
O17	O	1.421848	-0.495429	0.602145
C18	C	1.223559	-0.338421	0.527657
C19	C	1.106781	-0.338432	0.527677
C20	C	1.484753	-0.520917	0.539262
C21	C	1.479814	-0.598984	0.544256
C22	C	1.049037	-0.383426	0.597614
C23	C	0.939313	-0.383435	0.597626
C24	C	0.945086	-0.293455	0.457754
C25	C	1.054809	-0.293443	0.457748
C26	C	1.101010	-0.428415	0.667542
C27	C	1.043266	-0.473413	0.737484
C28	C	0.933541	-0.473422	0.737496
C29	C	0.881561	-0.428433	0.667566
C30	C	1.544734	-0.635640	0.479472
C31	C	1.540095	-0.708992	0.484174
C32	C	1.470528	-0.745687	0.553656
C33	C	1.405605	-0.709025	0.618447
C34	C	1.410251	-0.635674	0.613749
C35	C	1.453142	-0.967160	0.571204
C36	C	1.448499	-1.040516	0.575895
C37	C	1.582991	-1.040477	0.441623
C38	C	1.587626	-0.967125	0.436927
C39	C	1.522706	-0.930470	0.501722
C40	C	1.465782	-0.820664	0.558462
C41	C	1.527459	-0.855494	0.496920
C42	C	1.770558	-0.338447	0.527688
C43	C	1.887334	-0.338453	0.527695
C44	C	1.496525	-0.338433	0.801705
C45	C	1.496525	-0.338433	0.918482
C46	C	1.508371	-0.155239	0.516060
C47	C	1.513420	-0.077172	0.511111
C48	C	1.566620	-0.293525	0.970503
C49	C	1.566615	-0.293527	1.080227
C50	C	1.426418	-0.383354	1.085900
C51	C	1.426418	-0.383347	0.976178
C52	C	1.636727	-0.248611	0.912807
C53	C	1.706828	-0.203700	0.964827
C54	C	1.706824	-0.203702	1.074551
C55	C	1.636718	-0.248617	1.132255
C56	C	1.496517	-0.338448	1.254706
C57	C	1.496520	-0.338443	1.137929
H58	H	1.190353	-0.428414	0.667539
H59	H	1.369325	-0.419904	0.933821
N60	N	1.099322	-0.521931	0.812910
H61	H	1.177594	-0.515101	0.802290
H62	H	1.076910	-0.572076	0.799617
N63	N	0.871257	-0.521951	0.812930
H64	H	0.920834	-0.550449	0.857223
H65	H	0.823641	-0.554410	0.772140
N66	N	1.350823	-0.431803	1.148137
H67	H	1.306417	-0.460252	1.098531
H68	H	1.304052	-0.403215	1.191854
N69	N	0.763215	-0.428434	0.667586
H70	H	0.734519	-0.463762	0.722507
H71	H	0.736030	-0.441249	0.596264
H72	H	1.763896	-0.167128	1.116903
H73	H	1.635846	-1.070329	0.388872
N74	N	0.889026	-0.244947	0.382315
H75	H	0.810754	-0.251787	0.392925
H76	H	0.907509	-0.255810	0.307950
H77	H	1.348967	-0.738908	0.675025
H78	H	1.101825	-0.256800	0.400806
N79	N	1.383114	-0.927629	0.641075
H80	H	1.398557	-0.940367	0.716971
H81	H	1.307281	-0.940459	0.625415
N82	N	1.619764	-0.596064	0.404526
H83	H	1.660188	-0.630419	0.364203
H84	H	1.670278	-0.565592	0.445385
N85	N	1.610116	-0.748529	0.414301
H86	H	1.654885	-0.714153	0.369566
H87	H	1.565456	-0.779002	0.367599
N88	N	1.636700	-0.248615	1.250600
H89	H	1.691740	-0.213347	1.274802
H90	H	1.652860	-0.296821	1.280003
H91	H	1.636741	-0.248605	0.823463
H92	H	1.644272	-0.937249	0.380349
N93	N	1.373463	-1.080096	0.650839
H94	H	1.333042	-1.045746	0.691175
H95	H	1.414269	-1.110495	0.701435
N96	N	1.782449	-0.155265	0.902598
H97	H	1.771825	-0.162081	0.825196
H98	H	1.856767	-0.166215	0.922489
H99	H	1.357387	-0.605830	0.666504
H100	H	1.409139	-0.850549	0.615032
N101	N	1.602485	-0.815914	0.421983
H102	H	1.585416	-0.828706	0.347721
H103	H	1.676707	-0.828646	0.439263
