data_functionalizedCrystal
_audit_creation_method	'MofGen! by Chris Wilmer'
_symmetry_space_group_name_H-M	'P1'
_symmetry_Int_Tables_number	1
_symmetry_cell_setting	triclinic
loop_
_symmetry_equiv_pos_as_xyz
  x,y,z
_cell_length_a	20.875621
_cell_length_b	21.606444
_cell_length_c	21.606444
_cell_angle_alpha	60.003167
_cell_angle_beta	87.028385
_cell_angle_gamma	58.314225
loop_
_atom_site_label
_atom_site_type_symbol
_atom_site_fract_x
_atom_site_fract_y
_atom_site_fract_z
Zr1	Zr	0.617932	0.677445	-0.112148
O2	O	0.515511	0.806559	-0.205836
O3	O	0.649331	0.548328	-0.083430
O4	O	0.649332	0.677441	-0.212543
O5	O	0.515507	0.677451	0.025126
O6	O	0.754892	0.677441	-0.217830
O7	O	0.515509	0.677446	-0.076723
O8	O	0.754889	0.446482	0.013129
O9	O	0.515510	0.908410	-0.205833
O10	O	0.741498	0.601437	-0.075125
O11	O	0.662719	0.601440	0.004830
O12	O	0.662721	0.753454	-0.147183
O13	O	0.583941	0.753457	-0.067228
Zr14	Zr	0.786283	0.677452	0.041858
Zr15	Zr	0.786287	0.677445	-0.120580
Zr16	Zr	0.617928	0.677452	0.050291
Zr17	Zr	0.617930	0.839885	-0.112143
Zr18	Zr	0.786285	0.515012	0.041853
O19	O	0.754885	0.806569	0.013141
O20	O	0.754890	0.806559	-0.217826
O21	O	0.515506	0.806569	0.025131
O22	O	0.888705	0.548338	0.135547
O23	O	0.888710	0.548328	-0.095420
O24	O	0.649325	0.548338	0.147537
O25	O	0.888709	0.677447	-0.095416
O26	O	0.754883	0.677456	0.142254
O27	O	0.649324	0.677456	0.147541
O28	O	0.888706	0.677451	0.006434
O29	O	0.649330	0.908410	-0.212536
O30	O	0.754886	0.446487	0.142246
O31	O	0.888706	0.446487	0.135543
O32	O	0.888709	0.446482	0.006426
O33	O	0.515507	0.908415	-0.076716
O34	O	0.649327	0.908416	-0.083418
O35	O	0.741495	0.601443	0.076894
O36	O	0.820274	0.601440	-0.003061
O37	O	0.741497	0.753457	-0.075120
O38	O	0.662717	0.753460	0.004835
C39	C	0.702110	0.474261	-0.035151
C40	C	0.702111	0.405300	-0.035154
C41	C	0.743231	0.372901	-0.076890
C42	C	0.743234	0.308101	-0.076886
C43	C	0.702111	0.275706	-0.035147
C44	C	0.660990	0.308108	0.006594
C45	C	0.660992	0.372902	0.006593
C46	C	0.660980	0.046799	0.006601
C47	C	0.660979	-0.017998	0.006597
C48	C	0.743222	-0.018002	-0.076877
C49	C	0.743225	0.046792	-0.076879
C50	C	0.702107	0.079185	-0.035134
C51	C	0.702105	0.149447	-0.035139
C52	C	0.702108	0.205449	-0.035146
C53	C	0.491521	0.677448	-0.024597
C54	C	0.420050	0.677448	-0.021017
C55	C	0.386474	0.677448	-0.075447
C56	C	0.319321	0.677444	-0.072080
C57	C	0.285743	0.677445	-0.014285
C58	C	0.319326	0.677443	0.040150
C59	C	0.386480	0.677441	0.036785
C60	C	0.084902	0.677445	0.001798
C61	C	0.017742	0.677449	0.005157
C62	C	0.017743	0.677448	-0.107072
C63	C	0.084896	0.677452	-0.110434
C64	C	0.118475	0.677445	-0.055997
N65	N	0.217101	0.677443	-0.010843
N66	N	0.187119	0.677440	-0.059436
C67	C	0.912694	0.677449	-0.045692
C68	C	0.984166	0.677449	-0.049272
C69	C	0.702113	0.677440	-0.238331
C70	C	0.702114	0.677437	-0.307290
C71	C	0.702106	0.880637	-0.035138
C72	C	0.702105	0.949597	-0.035136
C73	C	0.660982	0.756811	-0.768214
C74	C	0.660981	0.756809	-0.703416
C75	C	0.702103	0.677455	-0.633405
C76	C	0.743223	0.598098	-0.628192
C77	C	0.743220	0.598101	-0.692989
C78	C	0.743236	0.598083	-0.366875
C79	C	0.743238	0.598085	-0.302077
C80	C	0.660997	0.756790	-0.377302
C81	C	0.660994	0.756793	-0.442099
C82	C	0.702110	0.677437	-0.436880
C83	C	0.702111	0.677441	-0.507141
C84	C	0.702108	0.677450	-0.563145
C85	C	0.702103	0.677457	0.168041
C86	C	0.702101	0.677460	0.237001
C87	C	0.912697	0.474261	-0.045699
C88	C	0.984169	0.405301	-0.049281
C89	C	0.702105	0.474269	0.168035
C90	C	0.702104	0.405312	0.236992
C91	C	0.912692	0.474270	0.157487
C92	C	0.984162	0.405313	0.222864
C93	C	0.491524	0.880628	-0.227776
C94	C	0.420053	0.949585	-0.293154
C95	C	0.491519	0.880636	-0.024590
C96	C	0.420047	0.949596	-0.021008
C97	C	0.702110	0.880628	-0.238324
C98	C	0.702111	0.949585	-0.307281
C99	C	0.976612	0.372915	-0.088587
C100	C	1.043761	0.308128	-0.091967
C101	C	1.118466	0.275725	-0.056037
C102	C	1.126021	0.308118	-0.016731
C103	C	1.058872	0.372907	-0.013355
C104	C	0.743224	0.372931	0.306998
C105	C	0.743220	0.308147	0.371797
C106	C	0.702101	0.275742	0.366588
C107	C	0.660976	0.308129	0.296574
C108	C	0.660976	0.372916	0.231777
C109	C	1.058855	0.372928	0.211830
C110	C	1.126015	0.308145	0.273253
C111	C	1.118481	0.275742	0.345709
C112	C	1.043781	0.308133	0.356742
C113	C	0.976622	0.372920	0.295320
C114	C	0.345361	0.981977	-0.282120
C115	C	0.278201	1.046781	-0.343542
C116	C	0.285734	1.079186	-0.415998
C117	C	0.360435	1.046791	-0.427031
C118	C	0.427593	0.981993	-0.365609
C119	C	0.427603	0.981989	0.018290
C120	C	0.360454	1.046793	0.021653
C121	C	0.285750	1.079199	-0.014279
C122	C	0.278195	1.046804	-0.053583
C123	C	0.345343	0.982005	-0.056949
C124	C	0.743239	0.981970	-0.302048
C125	C	0.743255	1.046754	-0.366835
C126	C	0.702139	1.079156	-0.436855
C127	C	0.661010	1.046765	-0.442086
C128	C	0.660999	0.981978	-0.377300
H129	H	0.627491	-0.044373	0.040588
Cl130	Cl	0.335869	0.941252	-0.191039
H131	H	0.291985	0.677439	0.087211
H132	H	0.366621	1.073159	0.053661
Cl133	Cl	0.369892	1.087535	-0.518124
Cl134	Cl	0.428692	0.677436	0.105217
Cl135	Cl	1.202874	0.194272	-0.060287
Cl136	Cl	0.127108	0.677451	-0.183091
Cl137	Cl	0.609297	0.856556	-0.530111
Cl138	Cl	0.184302	1.087489	-0.329655
H139	H	-0.009602	0.677453	-0.151391
H140	H	1.173173	0.222989	0.395716
Cl141	Cl	0.794926	0.498320	-0.360305
Cl142	Cl	0.794918	-0.058732	-0.129354
H143	H	0.231043	1.131949	-0.466005
H144	H	1.186854	0.281725	0.012521
H145	H	0.339180	0.955632	-0.088948
Cl146	Cl	0.702111	0.194293	0.448056
H147	H	0.627497	0.281735	0.292344
H148	H	0.627494	0.399273	0.174777
H149	H	1.186833	0.281778	0.264256
Cl150	Cl	0.521490	0.941273	-0.379494
Cl151	Cl	1.068346	0.413654	0.120749
H152	H	0.231080	1.131962	-0.011532
H153	H	0.627503	0.073162	0.040595
Cl154	Cl	0.609315	1.087517	-0.530116
H155	H	0.488426	0.955609	0.047556
Cl156	Cl	1.034323	0.267389	0.447835
H157	H	0.217362	1.073198	-0.082837
H158	H	0.915807	0.399279	0.304315
Cl159	Cl	0.794927	0.413624	-0.129368
H160	H	0.776721	0.955598	-0.245041
H161	H	0.776746	1.073120	-0.362561
Cl162	Cl	0.609281	0.941281	-0.383892
H163	H	0.776718	0.281721	-0.110870
H164	H	0.776707	0.073169	-0.110869
H165	H	0.627511	0.281722	0.040582
H166	H	0.112236	0.677441	0.046122
H167	H	0.702154	1.131911	-0.489602
Cl168	Cl	0.609298	0.413631	0.059066
Cl169	Cl	0.794936	0.498318	-0.214059
H170	H	1.037595	0.281762	-0.123975
H171	H	0.291984	0.677443	-0.116400
Cl172	Cl	0.428676	0.677452	-0.148110
H173	H	0.915790	0.399297	-0.117855
H174	H	-0.009595	0.677451	0.052223
Cl175	Cl	0.609288	0.856576	-0.856225
Cl176	Cl	0.609257	0.856568	-0.709975
Cl177	Cl	0.609303	0.856554	-0.383860
H178	H	0.776701	0.533486	-0.688738
Cl179	Cl	0.794915	0.498338	-0.540177
Cl180	Cl	1.068386	0.413607	0.036068
H181	H	0.776712	0.281785	0.428799
Cl182	Cl	0.794926	0.413653	0.313567
