data_functionalizedCrystal
_audit_creation_method	'MofGen! by Chris Wilmer'
_symmetry_space_group_name_H-M	'P1'
_symmetry_Int_Tables_number	1
_symmetry_cell_setting	triclinic
loop_
_symmetry_equiv_pos_as_xyz
  x,y,z
_cell_length_a	8.140239
_cell_length_b	14.971486
_cell_length_c	9.065218
_cell_angle_alpha	84.315007
_cell_angle_beta	89.998314
_cell_angle_gamma	90.002234
loop_
_atom_site_label
_atom_site_type_symbol
_atom_site_fract_x
_atom_site_fract_y
_atom_site_fract_z
O1	O	0.136418	-1.188375	-0.192256
O2	O	0.636418	-0.688375	0.307744
O3	O	0.136461	-0.928147	-0.215279
O4	O	0.636461	-0.428147	0.284721
O5	O	0.136435	-1.063640	0.010984
O6	O	0.636435	-0.563640	0.510984
O7	O	0.136444	-1.052882	-0.418519
O8	O	0.636444	-0.552882	0.081481
O9	O	-0.136792	-1.063632	0.010986
O10	O	0.363208	-0.563632	0.510986
O11	O	-0.136766	-0.928139	-0.215277
O12	O	0.363234	-0.428139	0.284723
O13	O	-0.136810	-1.188368	-0.192253
O14	O	0.363190	-0.688368	0.307747
Zn15	Zn	-0.180168	-1.058252	-0.203765
Zn16	Zn	0.319832	-0.558252	0.296235
Zn17	Zn	0.179820	-1.058262	-0.203768
Zn18	Zn	0.679820	-0.558262	0.296232
O19	O	-0.136783	-1.052875	-0.418517
O20	O	0.363217	-0.552875	0.081483
C21	C	-0.000146	-0.894811	-0.214249
C22	C	0.499854	-0.394811	0.285751
C23	C	-0.000129	-0.795491	-0.211163
C24	C	0.499871	-0.295491	0.288837
N25	N	-0.425851	-1.058252	-0.203761
N26	N	0.074149	-0.558252	0.296239
C27	C	-0.000175	-1.062602	0.065951
C28	C	0.499825	-0.562602	0.565951
C29	C	-0.000167	-1.059511	0.229731
C30	C	0.499833	-0.559511	0.729731
N31	N	0.425503	-1.058270	-0.203760
N32	N	0.925503	-0.558270	0.296240
C33	C	-0.000198	-1.221704	-0.193284
C34	C	0.499802	-0.721704	0.306716
C35	C	-0.000204	-1.321024	-0.196370
C36	C	0.499796	-0.821024	0.303630
C37	C	-0.000129	-0.739256	-0.344086
C38	C	0.499871	-0.239256	0.155914
C39	C	-0.000154	-0.645935	-0.341178
C40	C	0.499846	-0.145935	0.158822
C41	C	-0.000167	-0.608850	-0.205345
C42	C	0.499833	-0.108850	0.294655
C43	C	-0.000172	-0.665092	-0.072412
C44	C	0.499828	-0.165092	0.427588
C45	C	-0.000159	-0.758411	-0.075321
C46	C	0.499841	-0.258411	0.424679
C47	C	-0.000195	-0.470584	-0.066357
C48	C	0.499805	0.029416	0.433643
C49	C	-0.000204	-0.377259	-0.063446
C50	C	0.499796	0.122741	0.436554
C51	C	-0.000189	-0.358108	-0.332214
C52	C	0.499811	0.141892	0.167786
C53	C	-0.000176	-0.451427	-0.335123
C54	C	0.499824	0.048573	0.164877
C55	C	-0.000179	-0.507663	-0.202189
C56	C	0.499821	-0.007663	0.297811
C57	C	-0.000169	-1.053912	-0.473483
C58	C	0.499831	-0.553912	0.026517
C59	C	-0.000167	-1.057004	-0.637264
C60	C	0.499833	-0.557004	-0.137264
H61	H	-0.000117	-0.769442	-0.454697
H62	H	0.499883	-0.269442	0.045303
H63	H	-0.000217	-0.347068	0.047161
H64	H	0.499783	0.152932	0.547161
H65	H	-0.000195	-0.312316	-0.440454
H66	H	0.499805	0.187684	0.059546
O67	O	-0.000189	-0.531244	0.077018
O68	O	0.499811	-0.031244	0.577018
H69	H	-0.000181	-0.489781	0.171962
H70	H	0.499819	0.010219	0.671962
H71	H	-0.000206	-0.634890	0.038186
H72	H	0.499794	-0.134890	0.538186
H73	H	-0.000159	-0.804197	0.032919
H74	H	0.499841	-0.304197	0.532919
H75	H	-0.000152	-0.600152	-0.449418
H76	H	0.499848	-0.100152	0.050582
O77	O	-0.000183	-0.491432	-0.481624
O78	O	0.499817	0.008568	0.018376
H79	H	-0.000208	-0.436652	-0.573573
H80	H	0.499792	0.063348	-0.073573
