data_functionalizedCrystal
_audit_creation_method	'MofGen! by Chris Wilmer'
_symmetry_space_group_name_H-M	'P1'
_symmetry_Int_Tables_number	1
_symmetry_cell_setting	triclinic
loop_
_symmetry_equiv_pos_as_xyz
  x,y,z
_cell_length_a	10.489741
_cell_length_b	19.288865
_cell_length_c	18.366186
_cell_angle_alpha	90.011479
_cell_angle_beta	90.006338
_cell_angle_gamma	83.837711
loop_
_atom_site_label
_atom_site_type_symbol
_atom_site_fract_x
_atom_site_fract_y
_atom_site_fract_z
O1	O	-1.691846	-0.097994	-0.060514
O2	O	-1.320442	-0.107192	-0.060526
O3	O	-1.516876	-0.001535	-0.060505
O4	O	-1.495412	-0.203651	-0.060535
O5	O	-1.516842	-0.001529	0.060594
O6	O	-1.320409	-0.107187	0.060573
O7	O	-1.691813	-0.097988	0.060585
Zn8	Zn	-1.506105	-0.102587	0.079806
Zn9	Zn	-1.506149	-0.102594	-0.079747
O10	O	-1.495379	-0.203646	0.060564
C11	C	-1.516169	0.024349	0.000046
C12	C	-1.514095	0.101467	0.000053
C13	C	-1.272910	-0.106495	0.000022
C14	C	-1.131327	-0.104416	0.000018
C15	C	-1.739345	-0.098686	0.000035
C16	C	-1.880928	-0.100764	0.000035
C17	C	-1.064707	-0.037189	0.000035
C18	C	-0.971879	-0.068949	-0.059677
C19	C	-0.971880	-0.068960	0.059718
C20	C	-1.040363	-0.136204	-0.059743
C21	C	-1.040374	-0.136205	0.059705
C22	C	-0.947572	-0.168014	-0.000021
C23	C	-1.496086	-0.229530	0.000011
C24	C	-1.498159	-0.306647	-0.000000
N25	N	-1.506085	-0.102581	0.188697
C26	C	-1.629354	0.145390	0.000060
C27	C	-1.627406	0.217850	0.000049
C28	C	-1.510193	0.246384	0.000044
C29	C	-1.394920	0.202451	0.000033
C30	C	-1.396871	0.129992	0.000037
C31	C	-1.418039	0.355291	0.042460
C32	C	-1.416093	0.427748	0.042460
C33	C	-1.504171	0.469870	0.000028
C34	C	-1.594217	0.439526	-0.042395
C35	C	-1.596168	0.367067	-0.042391
C36	C	-1.508065	0.324952	0.000039
C37	C	-1.617326	0.592363	0.000021
C38	C	-1.615373	0.664824	0.000005
C39	C	-1.382884	0.649423	-0.000003
C40	C	-1.384839	0.576964	0.000006
C41	C	-1.502064	0.548438	0.000021
N42	N	-1.506180	-0.102594	-0.188638
C43	C	-1.593094	-0.055820	0.226807
C44	C	-1.593102	-0.055817	0.303035
C45	C	-1.506113	-0.102587	0.341150
C46	C	-1.419088	-0.149353	0.303031
C47	C	-1.419073	-0.149350	0.226805
C48	C	-1.489039	-0.165761	0.461901
C49	C	-1.489062	-0.165765	0.538126
C50	C	-1.506149	-0.102596	0.576258
C51	C	-1.523241	-0.039421	0.538155
C52	C	-1.523226	-0.039418	0.461929
C53	C	-1.506118	-0.102595	0.423805
C54	C	-1.593172	-0.055827	0.697022
C55	C	-1.593171	-0.055823	0.773252
C56	C	-1.419163	-0.149365	0.773247
C57	C	-1.419158	-0.149363	0.697019
C58	C	-1.506169	-0.102595	0.658911
H59	H	-1.115647	0.018075	-0.000032
C60	C	-1.754204	0.266175	0.000061
N61	N	-1.849709	0.302571	0.000073
H62	H	-1.070763	-0.164625	0.110182
C63	C	-0.930857	-0.030523	-0.127862
N64	N	-0.899962	-0.001576	-0.179217
C65	C	-1.688873	-0.004375	0.655101
N66	N	-1.760955	0.034380	0.623529
C67	C	-1.691108	0.485854	-0.089078
N68	N	-1.764083	0.520751	-0.124237
H69	H	-1.348258	-0.187433	0.334069
H70	H	-1.663941	-0.017737	0.195782
C71	C	-0.879100	-0.242750	-0.000076
N72	N	-0.827523	-0.299041	-0.000122
C73	C	-1.758304	0.114017	0.000071
N74	N	-1.855431	0.090385	0.000078
H75	H	-0.941531	-0.040500	0.110200
H76	H	-1.537154	0.012016	0.569200
H77	H	-1.475103	-0.217203	0.430860
C78	C	-1.695208	0.333691	-0.089061
N79	N	-1.769802	0.308552	-0.124217
H80	H	-1.664021	-0.017741	0.804281
H81	H	-1.663958	-0.017736	0.334070
H82	H	-1.348330	-0.187444	0.804279
C83	C	-1.323531	-0.200856	0.655096
N84	N	-1.251529	-0.239659	0.623521
C85	C	-1.746273	0.560983	0.000028
N86	N	-1.843398	0.537349	0.000030
H87	H	-1.348219	-0.187429	0.195775
H88	H	-1.070562	-0.164629	-0.110281
C89	C	-1.258044	0.528646	0.000002
N90	N	-1.162536	0.492252	-0.000004
C91	C	-1.253948	0.680806	-0.000010
N92	N	-1.156830	0.704446	-0.000018
C93	C	-1.321144	0.308964	0.089145
N94	N	-1.248167	0.274072	0.124308
C95	C	-1.317041	0.461120	0.089126
N96	N	-1.242430	0.486253	0.124274
H97	H	-1.299484	0.225687	0.000028
C98	C	-1.542009	0.030073	0.420019
N99	N	-1.556149	0.082415	0.388453
C100	C	-1.470249	-0.235257	0.580031
N101	N	-1.456071	-0.287601	0.611593
H102	H	-1.709234	0.700587	0.000007
H103	H	-1.303011	0.094229	0.000031
