data_functionalizedCrystal
_audit_creation_method	'MofGen! by Chris Wilmer'
_symmetry_space_group_name_H-M	'P1'
_symmetry_Int_Tables_number	1
_symmetry_cell_setting	triclinic
loop_
_symmetry_equiv_pos_as_xyz
  x,y,z
_cell_length_a	27.440280
_cell_length_b	14.560438
_cell_length_c	14.560438
_cell_angle_alpha	60.000069
_cell_angle_beta	90.003396
_cell_angle_gamma	59.998116
loop_
_atom_site_label
_atom_site_type_symbol
_atom_site_fract_x
_atom_site_fract_y
_atom_site_fract_z
Zr1	Zr	0.469502	1.005173	-0.120396
O2	O	0.391683	1.196794	-0.267060
O3	O	0.493358	0.813566	-0.075439
O4	O	0.493358	1.005171	-0.267039
O5	O	0.391684	1.005187	0.075682
O6	O	0.573561	1.005153	-0.267021
O7	O	0.391683	1.005190	-0.075459
O8	O	0.573561	0.662408	0.075718
O9	O	0.391684	1.347932	-0.267057
O10	O	0.563387	0.892359	-0.056248
O11	O	0.503532	0.892370	0.056533
O12	O	0.503532	1.117959	-0.169052
O13	O	0.443678	1.117970	-0.056272
Zr14	Zr	0.597417	1.005141	0.120686
Zr15	Zr	0.597417	1.005145	-0.120366
Zr16	Zr	0.469503	1.005169	0.120656
Zr17	Zr	0.469503	1.246221	-0.120392
Zr18	Zr	0.597416	0.764093	0.120682
O19	O	0.573561	1.196747	0.075728
O20	O	0.573561	1.196754	-0.267017
O21	O	0.391684	1.196788	0.075685
O22	O	0.675236	0.813520	0.267350
O23	O	0.675235	0.813526	-0.075396
O24	O	0.493358	0.813560	0.267307
O25	O	0.675236	1.005127	-0.075392
O26	O	0.573561	1.005143	0.267329
O27	O	0.493358	1.005161	0.267310
O28	O	0.675236	1.005124	0.075749
O29	O	0.493358	1.347909	-0.267033
O30	O	0.573561	0.662405	0.267323
O31	O	0.675236	0.662382	0.267347
O32	O	0.675235	0.662386	0.075742
O33	O	0.391684	1.347928	-0.075453
O34	O	0.493358	1.347906	-0.075429
O35	O	0.563387	0.892355	0.169342
O36	O	0.623241	0.892344	0.056561
O37	O	0.563387	1.117944	-0.056243
O38	O	0.503532	1.117955	0.056537
C39	C	0.533459	0.703643	0.000139
C40	C	0.533459	0.601312	0.000137
C41	C	0.564701	0.553230	-0.058733
C42	C	0.564704	0.457071	-0.058723
C43	C	0.502217	0.457088	0.059030
C44	C	0.502218	0.553239	0.059026
C45	C	0.373458	1.005192	0.000107
C46	C	0.319155	1.005204	0.000094
C47	C	0.013701	0.887374	0.059059
C48	C	-0.037317	0.887367	0.059069
O49	O	-0.037134	0.787216	0.109181
N50	N	-0.094077	1.005127	0.000185
C51	C	-0.099818	1.122902	-0.058704
O52	O	-0.152782	1.223065	-0.108787
C53	C	-0.048800	1.122907	-0.058706
C54	C	0.007959	1.005140	0.000172
C55	C	0.070458	0.769617	0.117933
C56	C	0.121473	0.769624	0.117921
C57	C	0.115731	0.887390	0.059035
C58	C	0.058974	1.005148	0.000160
C59	C	-0.054542	1.240681	-0.117588
C60	C	-0.003518	1.240676	-0.117585
C61	C	0.053242	1.122909	-0.058706
C62	C	0.104247	1.122921	-0.058738
N63	N	0.161007	1.005161	0.000145
C64	C	0.166749	0.887396	0.059032
C65	C	-0.206957	1.122880	-0.058692
C66	C	-0.257974	1.122876	-0.058697
C67	C	-0.195470	0.887341	0.059078
C68	C	-0.144452	0.887347	0.059075
C69	C	-0.150197	1.005121	0.000192
C70	C	0.273881	0.887421	0.059002
C71	C	0.324898	0.887439	0.058981
C72	C	0.262389	1.122973	-0.058788
C73	C	0.211376	1.122955	-0.058773
C74	C	0.217127	1.005169	0.000131
O75	O	0.104109	1.223021	-0.108821
O76	O	0.219714	0.787249	0.109119
C77	C	0.693461	1.005122	0.000183
C78	C	0.747764	1.005110	0.000195
C79	C	0.533459	1.005162	-0.301375
C80	C	0.533459	1.005164	-0.403708
C81	C	0.533460	1.306671	0.000150
C82	C	0.533460	1.409002	0.000152
C83	C	0.577643	1.005155	-0.451773
C84	C	0.577645	1.005144	-0.547919
C85	C	0.489273	1.005155	-0.547928
C86	C	0.489274	1.005157	-0.451780
C87	C	0.533460	1.005152	0.301664
C88	C	0.533460	1.005150	0.403997
C89	C	0.693460	0.703608	0.000177
C90	C	0.747763	0.601265	0.000188
C91	C	0.533459	0.703638	0.301659
C92	C	0.533459	0.601305	0.403990
C93	C	0.693461	0.703602	0.301697
C94	C	0.747763	0.601258	0.404040
C95	C	0.373458	1.306711	-0.301407
C96	C	0.319156	1.409056	-0.403751
C97	C	0.373459	1.306706	0.000113
C98	C	0.319156	1.409049	0.000102
C99	C	0.533460	1.306676	-0.301369
C100	C	0.533460	1.409009	-0.403700
C101	C	0.742021	0.553211	-0.058702
C102	C	0.793039	0.457063	-0.058714
C103	C	0.849799	0.408962	0.000171
C104	C	0.855540	0.457025	0.059062
C105	C	0.804523	0.553179	0.059067
C106	C	0.804513	0.553190	0.393232
C107	C	0.855542	0.457039	0.489386
C108	C	0.849819	0.408952	0.596347
C109	C	0.793063	0.457030	0.607153
C110	C	0.742036	0.553185	0.511001
C111	C	0.262406	1.457136	-0.392942
C112	C	0.211377	1.553316	-0.489096
C113	C	0.217100	1.601409	-0.596057
C114	C	0.273856	1.553325	-0.606864
C115	C	0.324883	1.457153	-0.510711
C116	C	0.324898	1.457113	0.058982
C117	C	0.273880	1.553288	0.058968
C118	C	0.217120	1.601392	0.000079
C119	C	0.211379	1.553324	-0.058808
C120	C	0.262396	1.457157	-0.058800
C121	C	0.564702	0.553219	0.510950
C122	C	0.564695	0.457075	0.607097
C123	C	0.502202	0.457109	0.489310
C124	C	0.502206	0.553257	0.393165
H125	H	0.371114	0.791534	0.106930
N126	N	0.913517	0.407882	0.119232
N127	N	0.918644	0.450779	0.171822
H128	H	0.959591	0.416064	0.214324
H129	H	0.476757	0.417974	0.480510
H130	H	0.165169	1.592450	-0.480275
H131	H	0.590149	0.592341	0.519770
N132	N	0.279695	1.602431	-0.716127
N133	N	0.306299	1.527306	-0.744820
H134	H	0.310421	1.561982	-0.821990
N135	N	0.382855	1.408008	-0.521741
N136	N	0.428416	1.322131	-0.435894
H137	H	0.469359	1.287423	-0.443689
H138	H	0.476777	0.592386	0.106970
H139	H	0.788412	0.417863	0.694254
H140	H	0.695829	0.592309	0.519817
N141	N	0.622778	1.005134	-0.402640
N142	N	0.622776	1.005133	-0.316792
H143	H	0.654655	1.005113	-0.282089
H144	H	0.901750	0.417904	0.480567
H145	H	0.371110	1.417954	0.106943
N146	N	0.256540	1.408033	-0.283700
N147	N	0.205861	1.450994	-0.274086
H148	H	0.201713	1.416325	-0.196937
N149	N	0.153401	1.243260	-0.118942
N150	N	0.148285	1.348399	-0.171524
H151	H	0.107342	1.433368	-0.214016
H152	H	0.788353	0.417941	-0.106671
N153	N	0.596609	0.407978	0.716346
N154	N	0.624507	0.450899	0.725988
H155	H	0.647046	0.416227	0.803147
N156	N	0.596603	0.602355	-0.118897
N157	N	0.583350	0.656009	-0.222713
H158	H	0.605880	0.690704	-0.265207
N159	N	0.810393	0.602266	0.119218
N160	N	0.837016	0.655902	0.094264
H161	H	0.841166	0.690568	0.136747
H162	H	0.809185	0.592328	0.306147
N163	N	0.164968	1.699649	-0.694258
N164	N	0.114304	1.742557	-0.684579
H165	H	0.077483	1.811938	-0.753929
N166	N	0.279770	0.767095	0.119179
N167	N	0.330455	0.661972	0.171737
H168	H	0.334615	0.576991	0.214233
H169	H	0.075144	0.673712	0.165892
H170	H	0.278566	1.592408	0.106925
H171	H	0.167685	0.673726	0.165862
N172	N	0.470284	0.602374	0.283906
N173	N	0.442385	0.559460	0.274255
H174	H	0.419839	0.594151	0.197092
N175	N	0.444133	1.005164	-0.597028
N176	N	0.404687	1.005167	-0.554096
H177	H	0.372805	1.005174	-0.588770
N178	N	0.901951	0.310732	0.694548
N179	N	0.952615	0.267830	0.684868
H180	H	0.989436	0.198460	0.754219
N181	N	0.596602	0.407965	-0.118874
N182	N	0.596596	0.322121	-0.118869
H183	H	0.619123	0.287441	-0.161355
H184	H	0.175583	1.679697	0.000082
H185	H	0.453294	1.005160	-0.412640
H186	H	-0.008203	1.336584	-0.165521
H187	H	0.257713	1.418026	-0.106744
N188	N	0.470309	0.407969	0.119171
N189	N	0.470309	0.322123	0.119166
H190	H	0.447772	0.287435	0.161639
N191	N	-0.086481	0.767040	0.119218
N192	N	-0.081370	0.661907	0.171781
H193	H	-0.040429	0.576934	0.214260
H194	H	0.695809	0.592374	-0.106667
H195	H	0.613625	1.005134	-0.587050
H196	H	-0.190802	0.791450	0.107023
H197	H	0.891336	0.330667	0.000158
N198	N	0.153393	1.602485	-0.118955
N199	N	0.107852	1.688344	-0.118941
H200	H	0.066898	1.723064	-0.161415
H201	H	-0.211643	1.218792	-0.106647
N202	N	-0.112512	1.360982	-0.177745
N203	N	-0.127737	1.439842	-0.281561
H204	H	-0.168680	1.524813	-0.324051
N205	N	0.256529	1.243263	-0.118917
N206	N	0.229917	1.322102	-0.093941
H207	H	0.225779	1.407059	-0.136401
H208	H	-0.304187	1.218774	-0.106656
