data_functionalizedCrystal
_audit_creation_method	'MofGen! by Chris Wilmer'
_symmetry_space_group_name_H-M	'P1'
_symmetry_Int_Tables_number	1
_symmetry_cell_setting	triclinic
loop_
_symmetry_equiv_pos_as_xyz
  x,y,z
_cell_length_a	17.038272
_cell_length_b	13.339070
_cell_length_c	12.376457
_cell_angle_alpha	75.601917
_cell_angle_beta	77.881784
_cell_angle_gamma	76.629575
loop_
_atom_site_label
_atom_site_type_symbol
_atom_site_fract_x
_atom_site_fract_y
_atom_site_fract_z
O1	O	1.096960	-0.205423	-0.093952
O2	O	0.868559	-0.201866	-0.093964
O3	O	0.956546	-0.054126	-0.093956
O4	O	1.008973	-0.353164	-0.093960
O5	O	0.934548	-0.091008	0.094054
O6	O	0.846561	-0.238748	0.094046
O7	O	1.074962	-0.242305	0.094059
Zn8	Zn	0.957269	-0.246383	0.123903
Zn9	Zn	0.986252	-0.197789	-0.123808
O10	O	0.986975	-0.390046	0.094050
C11	C	0.827730	-0.217074	0.000040
C12	C	0.738843	-0.207428	0.000035
C13	C	0.936692	-0.034115	0.000047
C14	C	0.910295	0.080460	0.000041
C15	C	1.115792	-0.227097	0.000053
C16	C	1.204679	-0.236742	0.000050
C17	C	1.235565	-0.148185	0.000047
C18	C	1.319084	-0.157255	0.000051
C19	C	1.371717	-0.254881	0.000050
C20	C	1.340826	-0.343446	0.000056
C21	C	1.257307	-0.334377	0.000060
C22	C	1.624433	-0.286923	0.000045
C23	C	1.707957	-0.295985	0.000037
C24	C	1.686210	-0.109793	0.000035
C25	C	1.602691	-0.100731	0.000032
C26	C	1.571806	-0.189297	0.000044
C27	C	1.457088	-0.264154	0.000050
C28	C	1.486436	-0.180025	0.000052
C29	C	1.006830	-0.410056	0.000045
C30	C	1.033227	-0.524630	0.000044
N31	N	0.937495	-0.279547	0.292960
C32	C	1.115544	0.427586	0.000053
C33	C	1.140347	0.319936	0.000065
C34	C	1.082836	0.260062	0.000059
C35	C	1.000518	0.307848	0.000041
C36	C	0.975712	0.415506	0.000038
C37	C	0.943004	0.247982	0.000044
C38	C	0.860686	0.295768	0.000026
C39	C	0.835885	0.403416	0.000022
C40	C	0.893395	0.463291	0.000029
C41	C	0.967810	0.140324	0.000047
C42	C	0.827978	0.128244	0.000032
C43	C	0.803176	0.235894	0.000020
N44	N	1.006031	-0.164617	-0.292865
C45	C	1.051929	-0.087613	0.647955
C46	C	1.065764	-0.064401	0.529617
C47	C	1.033698	-0.118185	0.470446
C48	C	0.987794	-0.195186	0.529627
C49	C	0.973963	-0.218406	0.647977
C50	C	0.955732	-0.248978	0.470468
C51	C	0.909828	-0.325979	0.529648
C52	C	0.895998	-0.349195	0.647987
C53	C	0.928065	-0.295410	0.707157
C54	C	0.969563	-0.225758	0.352118
C55	C	0.891597	-0.356551	0.352140
C56	C	0.877761	-0.379763	0.470478
H57	H	1.192717	-0.068686	0.000042
O58	O	0.860311	-0.408774	0.294798
C59	C	0.774415	-0.390825	0.323709
H60	H	0.755850	-0.367960	0.409638
H61	H	0.751508	-0.465702	0.327756
H62	H	0.746429	-0.324304	0.257112
H63	H	1.344226	-0.085142	0.000054
H64	H	0.873205	0.550949	0.000015
H65	H	0.736151	0.274816	0.000006
O66	O	1.014019	-0.150798	0.294728
C67	C	0.975531	-0.053340	0.323736
H68	H	0.907824	-0.053719	0.356255
H69	H	0.982566	0.012909	0.245947
H70	H	1.005079	-0.040402	0.392461
H71	H	1.559842	-0.021234	0.000034
O72	O	1.391832	-0.438369	0.000103
C73	C	1.346662	-0.514582	0.000079
H74	H	1.279778	-0.487810	0.035680
H75	H	1.372015	-0.593020	0.054658
H76	H	1.351668	-0.524545	-0.090119
O77	O	0.755935	0.449825	-0.000186
C78	C	0.730854	0.438918	-0.097547
H79	H	0.786545	0.426211	-0.165601
H80	H	0.686652	0.513384	-0.130236
H81	H	0.699083	0.368344	-0.075536
H82	H	1.499951	-0.343641	0.000046
H83	H	1.103140	-0.001709	0.481436
H84	H	1.034833	0.101427	0.000061
O85	O	0.914482	-0.317864	0.822115
C86	C	0.829678	-0.298129	0.861666
H87	H	0.797238	-0.239298	0.793470
H88	H	0.817481	-0.264200	0.940834
H89	H	0.805739	-0.374929	0.882677
H90	H	0.840386	-0.442459	0.518677
O91	O	0.851538	-0.424117	0.705529
C92	C	0.899999	-0.504836	0.773994
H93	H	0.967386	-0.505037	0.738314
H94	H	0.885099	-0.584215	0.775345
H95	H	0.886698	-0.490528	0.863683
O96	O	0.772217	0.069951	-0.000029
C97	C	0.811759	-0.035316	0.000001
H98	H	0.879398	-0.037842	-0.035587
H99	H	0.782925	-0.069383	-0.054589
H100	H	0.804929	-0.083846	0.090198
H101	H	1.711366	-0.037689	0.000027
O102	O	1.107071	0.155515	0.000012
C103	C	1.192055	0.126171	0.000056
H104	H	1.221517	0.198613	-0.035529
H105	H	1.219287	0.065228	-0.054530
H106	H	1.204080	0.090945	0.090257
H107	H	1.750809	-0.375491	0.000053
H108	H	1.599298	-0.359039	0.000049
O109	O	1.227224	-0.420295	-0.000092
C110	C	1.190968	-0.401530	-0.097475
H111	H	1.172815	-0.312976	-0.129938
H112	H	1.134276	-0.438847	-0.075570
H113	H	1.236493	-0.437591	-0.165660
O114	O	1.435411	-0.085108	-0.000100
C115	C	1.460578	-0.011599	-0.097493
H116	H	1.528107	-0.038280	-0.129956
H117	H	1.450921	0.068963	-0.075602
H118	H	1.423056	-0.006039	-0.165673
O119	O	1.220341	0.273695	0.000032
C120	C	1.265780	0.349616	0.000066
H121	H	1.231771	0.431565	-0.035540
H122	H	1.328235	0.333440	-0.054506
H123	H	1.274078	0.345236	0.090267
O124	O	1.047178	-0.095473	0.355493
C125	C	1.094585	-0.015996	0.315947
H126	H	1.087201	0.030823	0.384148
H127	H	1.073244	0.039049	0.236783
H128	H	1.161644	-0.053590	0.294930
H129	H	1.162359	0.476343	0.000067
H130	H	1.078039	-0.043834	0.696139
