data_functionalizedCrystal
_audit_creation_method	'MofGen! by Chris Wilmer'
_symmetry_space_group_name_H-M	'P1'
_symmetry_Int_Tables_number	1
_symmetry_cell_setting	triclinic
loop_
_symmetry_equiv_pos_as_xyz
  x,y,z
_cell_length_a	8.559649
_cell_length_b	14.519709
_cell_length_c	7.681481
_cell_angle_alpha	84.246308
_cell_angle_beta	94.913240
_cell_angle_gamma	76.729405
loop_
_atom_site_label
_atom_site_type_symbol
_atom_site_fract_x
_atom_site_fract_y
_atom_site_fract_z
O1	O	2.104962	-0.021482	-0.146399
O2	O	1.639893	0.026136	-0.146411
O3	O	1.884759	-0.132798	-0.146389
O4	O	1.860095	0.137451	-0.146421
O5	O	1.914898	-0.152399	0.146471
O6	O	1.670032	0.006535	0.146450
O7	O	2.135101	-0.041084	0.146461
Zn8	Zn	1.907351	-0.020387	0.192953
Zn9	Zn	1.867642	0.005439	-0.192903
O10	O	1.890234	0.117850	0.146439
C11	C	1.595442	0.019944	0.000018
C12	C	1.418093	0.030686	0.000014
C13	C	1.898680	-0.176876	0.000042
C14	C	1.895236	-0.279010	0.000042
C15	C	1.882552	-0.652993	-0.000004
C16	C	1.886074	-0.548938	0.000010
C17	C	1.888894	-0.466005	0.000021
C18	C	1.892416	-0.361944	0.000031
C19	C	2.179550	-0.034892	0.000028
C20	C	2.356899	-0.045633	0.000021
C21	C	1.876313	0.161928	0.000005
C22	C	1.879756	0.264063	-0.000008
N23	N	1.934464	-0.038014	0.456290
N24	N	1.840542	0.023058	-0.456240
H25	H	1.440186	-0.119190	0.000021
C26	C	1.306824	0.128738	-0.000278
C27	C	1.194538	0.149524	-0.150932
C28	C	1.092000	0.239834	-0.151251
H29	H	1.368786	0.175272	-0.000371
H30	H	1.251447	0.129359	0.101792
H31	H	1.249911	0.148912	-0.252975
H32	H	1.132540	0.103014	-0.150871
H33	H	1.036623	0.240454	-0.049181
H34	H	1.153975	0.286360	-0.151339
H35	H	1.015794	0.253945	-0.253459
C36	C	1.712461	0.106134	0.443717
C37	C	1.559960	0.099423	0.488493
C38	C	1.441935	0.175945	0.396374
H39	H	1.715180	0.104296	0.320730
H40	H	1.733117	0.164439	0.473872
H41	H	1.539309	0.041134	0.458326
H42	H	1.557188	0.101274	0.611464
H43	H	1.462590	0.234250	0.426529
H44	H	1.444669	0.174100	0.273392
H45	H	1.338451	0.171407	0.426754
C46	C	2.062214	-0.121264	0.556343
C47	C	2.031280	-0.207025	0.511608
C48	C	2.148936	-0.283733	0.603725
H49	H	2.059387	-0.119482	0.679330
H50	H	2.165845	-0.116914	0.526158
H51	H	1.927676	-0.211374	0.541805
H52	H	2.034121	-0.208839	0.388637
H53	H	2.252566	-0.279383	0.573539
H54	H	2.146100	-0.281941	0.726707
H55	H	2.127972	-0.341930	0.573373
