data_functionalizedCrystal
_audit_creation_method	'MofGen! by Chris Wilmer'
_symmetry_space_group_name_H-M	'P1'
_symmetry_Int_Tables_number	1
_symmetry_cell_setting	triclinic
loop_
_symmetry_equiv_pos_as_xyz
  x,y,z
_cell_length_a	19.288840
_cell_length_b	18.366186
_cell_length_c	19.288865
_cell_angle_alpha	89.993214
_cell_angle_beta	96.868869
_cell_angle_gamma	90.013590
loop_
_atom_site_label
_atom_site_type_symbol
_atom_site_fract_x
_atom_site_fract_y
_atom_site_fract_z
O1	O	0.921362	0.060680	-0.086561
O2	O	1.421362	0.560680	0.413439
O3	O	0.719099	0.060655	-0.098268
O4	O	1.219099	0.560655	0.401732
O5	O	0.826075	0.060654	0.008716
O6	O	1.326075	0.560654	0.508716
O7	O	0.814386	0.060681	-0.193546
O8	O	1.314386	0.560681	0.306454
O9	O	0.826061	-0.060446	0.008712
O10	O	1.326061	0.439554	0.508712
O11	O	0.719085	-0.060444	-0.098272
O12	O	1.219085	0.439556	0.401728
O13	O	0.921348	-0.060420	-0.086565
O14	O	1.421348	0.439580	0.413435
Zn15	Zn	0.820214	-0.079659	-0.092419
Zn16	Zn	1.320214	0.420341	0.407581
Zn17	Zn	0.820232	0.079895	-0.092414
Zn18	Zn	1.320232	0.579895	0.407586
O19	O	0.814372	-0.060418	-0.193549
O20	O	1.314372	0.439582	0.306451
C21	C	0.693215	0.000102	-0.097896
C22	C	1.193215	0.500102	0.402104
C23	C	0.616110	0.000093	-0.096774
C24	C	1.116110	0.500093	0.403226
C25	C	0.579914	0.066106	-0.096233
C26	C	1.079914	0.566106	0.403767
C27	C	0.507467	0.066114	-0.095171
C28	C	1.007467	0.566114	0.404829
C29	C	0.471221	0.000106	-0.094636
C30	C	0.971221	0.500106	0.405364
C31	C	0.507425	-0.065915	-0.095181
C32	C	1.007425	0.434085	0.404819
C33	C	0.579870	-0.065922	-0.096250
C34	C	1.079870	0.434078	0.403750
C35	C	0.361888	-0.050461	-0.052260
C36	C	0.861888	0.449539	0.447740
C37	C	0.289445	-0.050451	-0.051187
C38	C	0.789445	0.449549	0.448813
C39	C	0.247778	0.000125	-0.091342
C40	C	0.747778	0.500125	0.408658
C41	C	0.278563	0.050703	-0.132562
C42	C	0.778563	0.550703	0.367438
C43	C	0.351007	0.050697	-0.133631
C44	C	0.851007	0.550697	0.366369
C45	C	0.392667	0.000107	-0.093477
C46	C	0.892667	0.500107	0.406523
C47	C	0.133026	0.066152	-0.089651
C48	C	0.633026	0.566152	0.410349
C49	C	0.060577	0.066158	-0.088593
C50	C	0.560577	0.566158	0.411407
C51	C	0.060538	-0.065874	-0.088596
C52	C	0.560538	0.434126	0.411404
C53	C	0.132984	-0.065878	-0.089661
C54	C	0.632984	0.434122	0.410339
C55	C	0.169225	0.000137	-0.090185
C56	C	0.669225	0.500137	0.409815
C57	C	0.825692	0.000102	0.034591
C58	C	1.325692	0.500102	0.534591
C59	C	0.824563	0.000095	0.111694
C60	C	1.324563	0.500095	0.611694
C61	C	0.947232	0.000135	-0.086937
C62	C	1.447232	0.500135	0.413063
C63	C	1.024336	0.000149	-0.088059
C64	C	1.524336	0.500149	0.411941
N65	N	0.820207	-0.188550	-0.092422
N66	N	1.320207	0.311450	0.407578
C67	C	0.862238	-0.773088	-0.134416
C68	C	1.362238	-0.273088	0.365584
C69	C	0.862231	-0.696861	-0.134423
C70	C	1.362231	-0.196861	0.365577
C71	C	0.820239	-0.658761	-0.092407
C72	C	1.320239	-0.158761	0.407593
C73	C	0.778237	-0.696896	-0.050394
C74	C	1.278237	-0.196896	0.449606
C75	C	0.778240	-0.773123	-0.050393
C76	C	1.278240	-0.273123	0.449607
C77	C	0.818512	-0.538004	-0.029782
C78	C	1.318512	-0.038004	0.470218
C79	C	0.818514	-0.461779	-0.029781
C80	C	1.318514	0.038221	0.470219
C81	C	0.820225	-0.423654	-0.092408
C82	C	1.320225	0.076346	0.407592
C83	C	0.821949	-0.461763	-0.155038
C84	C	1.321949	0.038237	0.344962
C85	C	0.821952	-0.537989	-0.155037
C86	C	1.321952	-0.037989	0.344963
C87	C	0.820230	-0.576107	-0.092403
C88	C	1.320230	-0.076107	0.407597
C89	C	0.862213	-0.302873	-0.134429
C90	C	1.362213	0.197127	0.365571
C91	C	0.862200	-0.226644	-0.134438
C92	C	1.362200	0.273356	0.365562
C93	C	0.778211	-0.226681	-0.050402
C94	C	1.278211	0.273319	0.449598
C95	C	0.778219	-0.302909	-0.050400
C96	C	1.278219	0.197091	0.449600
C97	C	0.820223	-0.341000	-0.092413
C98	C	1.320223	0.159000	0.407587
N99	N	0.820245	0.188786	-0.092406
N100	N	1.320245	0.688786	0.407594
C101	C	0.814755	0.000135	-0.219424
C102	C	1.314755	0.500135	0.280576
C103	C	0.815884	0.000147	-0.296527
C104	C	1.315884	0.500147	0.203473
C105	C	0.887331	0.000099	0.156396
C106	C	1.387331	0.500099	0.656396
C107	C	0.886270	0.000111	0.228843
C108	C	1.386270	0.500111	0.728843
C109	C	0.822438	0.000103	0.256585
C110	C	1.322438	0.500103	0.756585
C111	C	0.759661	0.000104	0.211873
C112	C	1.259661	0.500104	0.711873
C113	C	0.760723	0.000100	0.139428
C114	C	1.260723	0.500100	0.639428
C115	C	0.772253	-0.042321	0.364866
C116	C	1.272253	0.457679	0.864866
C117	C	0.771193	-0.042321	0.437311
C118	C	1.271193	0.457679	0.937311
C119	C	0.819158	0.000119	0.480030
C120	C	1.319158	0.500119	0.980030
C121	C	0.868195	0.042551	0.450298
C122	C	1.368195	0.542551	0.950298
C123	C	0.869257	0.042547	0.377852
C124	C	1.369257	0.542547	0.877852
C125	C	0.821278	0.000108	0.335139
C126	C	1.321278	0.500108	0.835139
C127	C	0.880781	0.000137	0.603288
C128	C	1.380781	0.500137	1.103288
C129	C	0.879717	0.000153	0.675736
C130	C	1.379717	0.500153	1.175736
C131	C	0.753106	0.000138	0.658764
C132	C	1.253106	0.500138	1.158764
C133	C	0.754171	0.000130	0.586318
C134	C	1.254171	0.500130	1.086318
C135	C	0.818010	0.000125	0.558584
C136	C	1.318010	0.500125	1.058584
H137	H	0.477909	-0.119660	-0.094747
H138	H	0.977909	0.380340	0.405253
F139	F	0.906936	-0.656276	-0.179129
F140	F	1.406936	-0.156276	0.320871
F141	F	0.685169	0.000134	0.688284
F142	F	1.185169	0.500134	1.188284
H143	H	0.244638	0.091885	-0.165263
H144	H	0.744638	0.591885	0.334737
F145	F	0.921441	0.087708	0.346211
F146	F	1.421441	0.587708	0.846211
F147	F	0.021966	-0.136125	-0.088032
F148	F	0.521966	0.363875	0.411968
H149	H	0.707687	0.000099	0.234465
H150	H	1.207687	0.500099	0.734465
F151	F	0.468937	0.136377	-0.094595
F152	F	0.968937	0.636377	0.405405
H153	H	0.939314	0.000098	0.133820
H154	H	1.439314	0.500098	0.633820
H155	H	0.896412	-0.333889	-0.168642
H156	H	1.396412	0.166111	0.331358
H157	H	0.733192	-0.076885	0.330089
H158	H	1.233192	0.423115	0.830089
H159	H	0.703058	0.000122	0.549920
H160	H	1.203058	0.500122	1.049920
F161	F	0.719007	-0.087483	0.468948
F162	F	1.219007	0.412517	0.968948
F163	F	0.733543	-0.813700	-0.005678
F164	F	1.233543	-0.313700	0.494322
H165	H	0.896395	-0.195603	-0.168652
H166	H	1.396395	0.304397	0.331348
F167	F	0.022054	0.136422	-0.088022
F168	F	0.522054	0.636422	0.411978
F169	F	0.406227	-0.104295	-0.009519
F170	F	0.906227	0.395705	0.490481
F171	F	0.733514	-0.186139	-0.005690
F172	F	1.233514	0.313861	0.494310
F173	F	0.618394	-0.136186	-0.096826
F174	F	1.118394	0.363814	0.403174
F175	F	0.946528	0.000161	0.723312
F176	F	1.446528	0.500161	1.223312
F177	F	0.733526	-0.343487	-0.005684
F178	F	1.233526	0.156513	0.494316
H179	H	0.896441	-0.804098	-0.168627
H180	H	1.396441	-0.304098	0.331373
H181	H	0.932763	0.000137	0.580706
H182	H	1.432763	0.500137	1.080706
H183	H	0.823354	-0.569014	-0.206032
H184	H	1.323354	-0.069014	0.293968
F185	F	0.816675	-0.421228	0.036873
F186	F	1.316675	0.078772	0.536873
H187	H	0.937386	0.000117	0.265246
H188	H	1.437386	0.500117	0.765246
F189	F	0.823773	-0.421193	-0.221695
F190	F	1.323773	0.078807	0.278305
H191	H	0.817112	-0.569040	0.021219
H192	H	1.317112	-0.069040	0.521219
H193	H	0.907252	0.077111	0.485079
H194	H	1.407252	0.577111	0.985079
F195	F	0.618480	0.136365	-0.096793
F196	F	1.118480	0.636365	0.403207
F197	F	0.383769	0.104522	-0.177501
F198	F	0.883769	0.604522	0.322499
H199	H	0.744045	-0.665871	-0.016185
H200	H	1.244045	-0.165871	0.483815
H201	H	0.264386	-0.091632	-0.017620
H202	H	0.764386	0.408368	0.482380
H203	H	0.162534	0.119905	-0.090084
H204	H	0.662534	0.619905	0.409916
F205	F	0.171509	-0.136139	-0.090233
F206	F	0.671509	0.363861	0.409767
F207	F	0.693913	0.000096	0.091850
F208	F	1.193913	0.500096	0.591850
