data_functionalizedCrystal
_audit_creation_method	'MofGen! by Chris Wilmer'
_symmetry_space_group_name_H-M	'P1'
_symmetry_Int_Tables_number	1
_symmetry_cell_setting	triclinic
loop_
_symmetry_equiv_pos_as_xyz
  x,y,z
_cell_length_a	10.654566
_cell_length_b	10.723023
_cell_length_c	9.198806
_cell_angle_alpha	90.003809
_cell_angle_beta	89.997744
_cell_angle_gamma	95.520496
loop_
_atom_site_label
_atom_site_type_symbol
_atom_site_fract_x
_atom_site_fract_y
_atom_site_fract_z
O1	O	-0.176141	1.657225	0.120885
O2	O	-0.193002	1.294076	0.120889
O3	O	-0.001832	1.483989	0.120881
O4	O	-0.367311	1.467311	0.120893
O5	O	-0.001832	1.483974	-0.120904
O6	O	-0.193002	1.294060	-0.120896
O7	O	-0.176140	1.657209	-0.120900
Cu8	Cu	-0.184571	1.475634	-0.142975
Cu9	Cu	-0.184572	1.475651	0.142964
O10	O	-0.367310	1.467296	-0.120892
C11	C	-0.191775	1.247568	-0.000003
C12	C	-0.188105	1.109013	-0.000002
C13	C	0.044965	1.482753	-0.000010
C14	C	0.184407	1.479076	-0.000006
C15	C	0.380945	1.473907	-0.131807
C16	C	0.249923	1.477346	-0.131806
C17	C	0.249919	1.477355	0.131802
C18	C	0.380937	1.473907	0.131799
C19	C	0.446455	1.472189	-0.263616
C20	C	0.380952	1.473907	-0.395424
C21	C	0.249930	1.477346	-0.395422
C22	C	0.184411	1.479067	-0.263613
C23	C	-0.182674	0.904036	-0.125249
C24	C	-0.186468	1.047240	-0.125253
C25	C	0.585891	1.468527	-0.000002
C26	C	0.446448	1.472190	-0.000010
C27	C	-0.177367	1.703717	-0.000004
C28	C	-0.181038	1.842272	0.000004
N29	N	-0.184570	1.475630	-0.344089
C30	C	-0.103949	1.555369	-0.416289
C31	C	-0.103945	1.555389	-0.583702
N32	N	-0.184563	1.475665	0.344078
H33	H	0.434305	1.472495	-0.502737
H34	H	0.077721	1.481845	-0.263623
H35	H	0.196599	1.478731	-0.502746
C36	C	-0.073833	0.876775	-0.349876
C37	C	-0.180774	0.832315	-0.270016
H38	H	-0.072667	0.832503	-0.439255
H39	H	-0.000175	0.864372	-0.295691
H40	H	-0.076146	0.963603	-0.368861
H41	H	-0.178457	0.745489	-0.251022
H42	H	-0.254452	0.844707	-0.324212
C43	C	0.049069	1.482625	0.248847
C44	C	0.177901	1.479239	0.276679
H45	H	0.004613	1.483792	0.338292
H46	H	0.018667	1.410554	0.194689
H47	H	0.036554	1.555840	0.194704
H48	H	0.190417	1.406018	0.330813
H49	H	0.208313	1.551317	0.330859
H50	H	0.553140	1.469392	-0.263631
C51	C	0.408097	1.365708	0.356423
C52	C	0.452966	1.471975	0.276656
H53	H	0.452566	1.364503	0.445851
H54	H	0.420598	1.292527	0.302223
H55	H	0.320699	1.368039	0.375311
H56	H	0.540363	1.469639	0.257758
H57	H	0.440475	1.545174	0.330868
C58	C	-0.191761	1.246918	-0.242006
C59	C	-0.188369	1.118933	-0.270023
H60	H	-0.192942	1.291177	-0.331386
H61	H	-0.119218	1.277067	-0.187834
H62	H	-0.265438	1.259308	-0.187815
H63	H	-0.114686	1.106543	-0.324206
H64	H	-0.260919	1.088775	-0.324218
C65	C	0.112888	1.626165	-0.369041
C66	C	-0.010797	1.647513	-0.332396
H67	H	0.170387	1.683049	-0.317231
H68	H	0.125136	1.638294	-0.470524
H69	H	0.127027	1.542676	-0.344194
H70	H	-0.024939	1.731000	-0.357253
H71	H	-0.023051	1.635394	-0.230890
C72	C	-0.352297	1.309789	-0.670926
C73	C	-0.277754	1.383498	-0.572126
H74	H	-0.409834	1.252897	-0.619183
H75	H	-0.299794	1.264250	-0.730298
H76	H	-0.397834	1.362236	-0.730286
H77	H	-0.232210	1.331052	-0.512772
H78	H	-0.330264	1.429041	-0.512728
H79	H	-0.186695	1.055906	0.107237
H80	H	-0.182453	0.895410	0.107234
C81	C	-0.031625	1.770596	-0.630798
C82	C	-0.010758	1.647552	-0.667508
H83	H	0.025904	1.827493	-0.682546
H84	H	-0.019399	1.782665	-0.529302
H85	H	-0.115529	1.785082	-0.655675
H86	H	0.073143	1.633063	-0.642621
H87	H	-0.022974	1.635479	-0.769027
H88	H	-0.253585	1.407372	-0.406214
