data_functionalizedCrystal
_audit_creation_method	'MofGen! by Chris Wilmer'
_symmetry_space_group_name_H-M	'P1'
_symmetry_Int_Tables_number	1
_symmetry_cell_setting	triclinic
loop_
_symmetry_equiv_pos_as_xyz
  x,y,z
_cell_length_a	12.827893
_cell_length_b	21.295417
_cell_length_c	12.827885
_cell_angle_alpha	89.961900
_cell_angle_beta	89.980728
_cell_angle_gamma	90.030477
loop_
_atom_site_label
_atom_site_type_symbol
_atom_site_fract_x
_atom_site_fract_y
_atom_site_fract_z
Zn1	Zn	1.597560	-0.250579	-0.590788
Zn2	Zn	1.597408	-0.355861	-0.416023
Zn3	Zn	1.422801	-0.250610	-0.416062
Zn4	Zn	1.422740	-0.355814	-0.590723
O5	O	1.510127	-0.303216	-0.503399
O6	O	1.743776	-0.264552	-0.567616
O7	O	1.574208	-0.341932	-0.269792
O8	O	1.446072	-0.162516	-0.439283
O9	O	1.743664	-0.341902	-0.439217
O10	O	1.574467	-0.162494	-0.567654
O11	O	1.445925	-0.264604	-0.269821
O12	O	1.276557	-0.264559	-0.439220
O13	O	1.445969	-0.341822	-0.736968
O14	O	1.276512	-0.341852	-0.567543
O15	O	1.574408	-0.264506	-0.737016
O16	O	1.574149	-0.443944	-0.439154
O17	O	1.445821	-0.443910	-0.567505
C18	C	1.238617	-0.303204	-0.503379
C19	C	1.122464	-0.303214	-0.503396
C20	C	1.070685	-0.341521	-0.566796
C21	C	0.950635	-0.341532	-0.566814
C22	C	1.509990	-0.466768	-0.503341
C23	C	1.510027	-0.536736	-0.503351
C24	C	1.576907	-0.569600	-0.436587
C25	C	1.576956	-0.635342	-0.436611
C26	C	1.510107	-0.668218	-0.503387
C27	C	1.443222	-0.635347	-0.570165
C28	C	1.443183	-0.569606	-0.570147
N29	N	1.418690	-0.771484	-0.511347
N30	N	1.418731	-0.833935	-0.511358
C31	C	1.510224	-0.866293	-0.503447
N32	N	1.601676	-0.833840	-0.495504
N33	N	1.601635	-0.771383	-0.495488
C34	C	1.510143	-0.739504	-0.503415
C35	C	1.577162	-0.970442	-0.436705
C36	C	1.577213	-1.036186	-0.436736
C37	C	1.443470	-1.036189	-0.570284
C38	C	1.443429	-0.970447	-0.570259
C39	C	1.510273	-0.937577	-0.503464
C40	C	1.782697	-0.303229	-0.503420
C41	C	1.898851	-0.303234	-0.503428
C42	C	1.510198	-0.303156	-0.775969
C43	C	1.510229	-0.303130	-0.892123
C44	C	1.510293	-0.139026	-0.503480
C45	C	1.510364	-0.069058	-0.503515
C46	C	1.573791	-0.264864	-0.943931
C47	C	1.573824	-0.264837	-1.063982
C48	C	1.510117	-0.303231	-0.231889
C49	C	1.510289	-0.303079	-0.115737
H50	H	1.631338	-0.542839	-0.382202
H51	H	1.455828	-0.335866	-0.936644
H52	H	1.631594	-0.943679	-0.382320
H53	H	1.389045	-1.062957	-0.624660
C54	C	1.647346	-0.220578	-1.124157
H55	H	1.687208	-0.196592	-1.076113
H56	H	1.607375	-0.193162	-1.166750
H57	H	1.692832	-0.244679	-1.166723
H58	H	1.455871	-0.335844	-1.071189
H59	H	0.906106	-0.374330	-0.621090
H60	H	1.631421	-0.662105	-0.382244
H61	H	0.943373	-0.270439	-0.449143
H62	H	1.631680	-1.062942	-0.382371
C63	C	1.130849	-0.385817	-0.640110
H64	H	1.082795	-0.409848	-0.679895
H65	H	1.173394	-0.413188	-0.600009
H66	H	1.173461	-0.361737	-0.685676
H67	H	1.388721	-0.542847	-0.624515
C68	C	1.062301	-0.258917	-0.430084
H69	H	1.110354	-0.234878	-0.390310
H70	H	1.019681	-0.282989	-0.384524
H71	H	1.019763	-0.231542	-0.470197
C72	C	1.369690	-0.671505	-0.643620
H73	H	1.329857	-0.642514	-0.683388
H74	H	1.324193	-0.697195	-0.603615
H75	H	1.409665	-0.697105	-0.689196
H76	H	1.388965	-0.943688	-0.624620
H77	H	1.628182	-0.232122	-0.899409
