data_functionalizedCrystal
_audit_creation_method	'MofGen! by Chris Wilmer'
_symmetry_space_group_name_H-M	'P1'
_symmetry_Int_Tables_number	1
_symmetry_cell_setting	triclinic
loop_
_symmetry_equiv_pos_as_xyz
  x,y,z
_cell_length_a	19.288864
_cell_length_b	11.792241
_cell_length_c	18.366186
_cell_angle_alpha	89.993644
_cell_angle_beta	89.977106
_cell_angle_gamma	83.664831
loop_
_atom_site_label
_atom_site_type_symbol
_atom_site_fract_x
_atom_site_fract_y
_atom_site_fract_z
O1	O	0.922157	0.141582	-0.060784
O2	O	0.720005	0.160681	-0.060734
O3	O	0.825987	-0.014113	-0.060755
O4	O	0.816175	0.316377	-0.060763
O5	O	0.825968	-0.014122	0.060345
O6	O	0.719987	0.160673	0.060365
O7	O	0.922139	0.141574	0.060316
Zn8	Zn	0.821060	0.151122	0.079568
Zn9	Zn	0.821084	0.151133	-0.079986
O10	O	0.816157	0.316368	0.060337
C11	C	0.694116	0.160063	-0.000178
C12	C	0.617002	0.158218	-0.000159
C13	C	0.825361	-0.056399	-0.000205
C14	C	0.823517	-0.182385	-0.000206
C15	C	0.572888	0.260779	-0.000173
C16	C	0.500431	0.259046	-0.000181
C17	C	0.472091	0.154746	-0.000189
C18	C	0.516215	0.052171	-0.000171
C19	C	0.588670	0.053907	-0.000156
C20	C	0.363370	0.072757	-0.042638
C21	C	0.290915	0.071025	-0.042658
C22	C	0.248615	0.149387	-0.000233
C23	C	0.278777	0.229500	0.042202
C24	C	0.351232	0.231236	0.042217
C25	C	0.393526	0.152852	-0.000205
C26	C	0.125935	0.250076	-0.000255
C27	C	0.053477	0.248339	-0.000258
C28	C	0.069262	0.041460	-0.000256
C29	C	0.141718	0.043201	-0.000246
C30	C	0.170050	0.147512	-0.000248
C31	C	0.820125	-0.413045	-0.000217
C32	C	0.822009	-0.284689	-0.000211
C33	C	0.948028	0.142192	-0.000242
C34	C	1.025142	0.144037	-0.000266
C35	C	0.816783	0.358654	-0.000214
C36	C	0.818627	0.484640	-0.000219
N37	N	0.821049	0.151113	0.188459
N38	N	0.821101	0.151133	-0.188877
C39	C	0.867993	0.073752	0.226550
C40	C	0.867997	0.073747	0.302778
C41	C	0.821064	0.151123	0.340912
C42	C	0.774111	0.228490	0.302811
C43	C	0.774103	0.228485	0.226585
C44	C	0.812353	0.254534	0.461671
C45	C	0.812366	0.254540	0.537896
C46	C	0.821084	0.151137	0.576019
C47	C	0.829804	0.047723	0.537908
C48	C	0.829796	0.047719	0.461682
C49	C	0.821067	0.151136	0.423566
C50	C	0.868036	0.073764	0.696765
C51	C	0.868035	0.073757	0.772994
C52	C	0.774152	0.228510	0.773026
C53	C	0.774149	0.228507	0.696799
C54	C	0.821095	0.151135	0.658673
H55	H	0.464507	0.342567	-0.000190
H56	H	0.735935	0.291506	0.804074
C57	C	0.802782	0.368291	0.579814
C58	C	0.802800	0.368303	0.663660
C59	C	0.793219	0.482056	0.705576
C60	C	0.783620	0.595798	0.663647
C61	C	0.783602	0.595790	0.579796
C62	C	0.793183	0.482036	0.537880
H63	H	0.809906	0.284101	0.694703
H64	H	0.793232	0.482062	0.767649
H65	H	0.776528	0.680005	0.694676
H66	H	0.776496	0.679992	0.548753
H67	H	0.793169	0.482031	0.475808
H68	H	0.906226	0.010748	0.333797
H69	H	0.836895	-0.036484	0.430655
H70	H	0.906259	0.010760	0.665722
H71	H	0.149004	0.335012	-0.000246
H72	H	0.735925	0.291506	0.665783
C73	C	0.722484	0.313606	0.344754
C74	C	0.722523	0.313672	0.428600
C75	C	0.670892	0.398788	0.470542
C76	C	0.619221	0.483839	0.428637
C77	C	0.619180	0.483776	0.344787
C78	C	0.670812	0.398660	0.302845
H79	H	0.760775	0.250709	0.459625
H80	H	0.670923	0.398833	0.532614
H81	H	0.581001	0.546846	0.459685
H82	H	0.580929	0.546739	0.313762
H83	H	0.670781	0.398615	0.240773
H84	H	0.836903	-0.036477	0.568946
H85	H	0.244337	0.293309	0.076749
H86	H	0.595951	0.345717	-0.000176
H87	H	0.906261	0.010755	0.804009
H88	H	0.397806	0.008943	-0.077190
H89	H	0.735875	0.291483	0.195571
C90	C	0.384411	0.319345	0.088899
C91	C	0.337893	0.405546	0.135568
C92	C	0.371072	0.493653	0.182252
C93	C	0.450771	0.495558	0.182267
C94	C	0.497294	0.409353	0.135596
C95	C	0.464114	0.321246	0.088912
H96	H	0.278891	0.404139	0.135558
H97	H	0.336632	0.557467	0.216801
H98	H	0.475332	0.560779	0.216826
H99	H	0.556296	0.410760	0.135606
H100	H	0.498554	0.257432	0.054363
C101	C	0.004950	0.361166	-0.000271
C102	C	0.008434	0.446735	-0.063159
C103	C	-0.040094	0.559564	-0.063170
C104	C	-0.092106	0.586826	-0.000294
C105	C	-0.095592	0.501255	0.062599
C106	C	-0.047064	0.388425	0.062610
H107	H	0.046938	0.426556	-0.109708
H108	H	-0.037513	0.622909	-0.109728
H109	H	-0.128029	0.670349	-0.000303
H110	H	-0.134096	0.521433	0.109148
H111	H	-0.049645	0.325080	0.109168
H112	H	0.046188	-0.043463	-0.000309
H113	H	0.177637	-0.040316	-0.000238
H114	H	0.266364	0.005797	-0.077214
C115	C	0.485044	-0.062562	-0.000183
C116	C	0.405347	-0.064477	-0.000205
C117	C	0.374178	-0.179214	-0.000213
C118	C	0.422706	-0.292035	-0.000198
C119	C	0.502409	-0.290124	-0.000176
C120	C	0.533578	-0.175388	-0.000169
H121	H	0.369419	0.019044	-0.000216
H122	H	0.315176	-0.180628	-0.000229
H123	H	0.399633	-0.376971	-0.000204
H124	H	0.538337	-0.373645	-0.000166
H125	H	0.592579	-0.173973	-0.000152
H126	H	0.906217	0.010749	0.195510
C127	C	0.637200	-0.058918	-0.000147
C128	C	0.633716	-0.144497	0.062736
C129	C	0.682247	-0.257323	0.062743
C130	C	0.734262	-0.284570	-0.000133
C131	C	0.737747	-0.198990	-0.063020
C132	C	0.689216	-0.086163	-0.063027
H133	H	0.595210	-0.124329	0.109284
H134	H	0.679667	-0.320675	0.109296
H135	H	0.770188	-0.368091	-0.000128
H136	H	0.776254	-0.219158	-0.109568
H137	H	0.691797	-0.022811	-0.109581
H138	H	0.805242	0.338743	0.430637
