data_functionalizedCrystal
_audit_creation_method	'MofGen! by Chris Wilmer'
_symmetry_space_group_name_H-M	'P1'
_symmetry_Int_Tables_number	1
_symmetry_cell_setting	triclinic
loop_
_symmetry_equiv_pos_as_xyz
  x,y,z
_cell_length_a	9.065215
_cell_length_b	15.712078
_cell_length_c	7.540329
_cell_angle_alpha	89.998083
_cell_angle_beta	89.997574
_cell_angle_gamma	102.297923
loop_
_atom_site_label
_atom_site_type_symbol
_atom_site_fract_x
_atom_site_fract_y
_atom_site_fract_z
O1	O	2.026180	0.127264	-0.147458
O2	O	2.526180	0.627264	0.352542
O3	O	1.602292	0.137707	-0.147466
O4	O	2.102292	0.637707	0.352534
O5	O	1.757845	0.006216	-0.147454
O6	O	2.257845	0.506216	0.352546
O7	O	1.870628	0.258754	-0.147470
O8	O	2.370628	0.758754	0.352530
O9	O	1.757830	0.006215	0.147511
O10	O	2.257830	0.506215	0.647511
O11	O	1.602278	0.137705	0.147499
O12	O	2.102278	0.637705	0.647499
O13	O	2.026166	0.127262	0.147507
O14	O	2.526166	0.627262	0.647507
Cu15	Cu	1.814220	0.132483	0.174436
Cu16	Cu	2.314220	0.632483	0.674436
Cu17	Cu	1.814237	0.132486	-0.174395
Cu18	Cu	2.314237	0.632486	0.325605
O19	O	1.870613	0.258753	0.147495
O20	O	2.370613	0.758753	0.647495
C21	C	1.546780	0.136703	0.000016
C22	C	2.046780	0.636703	0.500016
C23	C	1.381387	0.133704	0.000013
C24	C	1.881387	0.633704	0.500013
C25	C	1.739412	-0.026132	0.000027
C26	C	2.239412	0.473868	0.500027
C27	C	1.684494	-0.122516	0.000021
C28	C	2.184494	0.377484	0.500021
C29	C	2.150763	-0.485965	0.000012
C30	C	2.650763	0.014035	0.500012
C31	C	2.099125	-0.576531	0.000012
C32	C	2.599125	-0.076531	0.500012
C33	C	1.840379	-0.557939	0.000006
C34	C	2.340379	-0.057939	0.500006
C35	C	1.891996	-0.467370	0.000015
C36	C	2.391996	0.032630	0.500015
C37	C	2.047189	-0.431391	0.000016
C38	C	2.547189	0.068609	0.500016
C39	C	1.788422	-0.412795	0.000019
C40	C	2.288422	0.087205	0.500019
C41	C	1.840035	-0.322234	0.000019
C42	C	2.340035	0.177766	0.500019
C43	C	1.995222	-0.286248	0.000015
C44	C	2.495222	0.213752	0.500015
C45	C	2.098802	-0.340829	0.000016
C46	C	2.598802	0.159171	0.500016
C47	C	1.633229	-0.448776	0.000006
C48	C	2.133229	0.051224	0.500006
C49	C	1.529655	-0.394202	0.000010
C50	C	2.029655	0.105798	0.500010
C51	C	1.581268	-0.303639	0.000022
C52	C	2.081268	0.196361	0.500022
C53	C	1.736455	-0.267652	0.000018
C54	C	2.236455	0.232348	0.500018
C55	C	1.477688	-0.249057	0.000021
C56	C	1.977688	0.250943	0.500021
C57	C	1.529301	-0.158496	0.000020
C58	C	2.029301	0.341504	0.500020
C59	C	1.788068	-0.177091	0.000017
C60	C	2.288068	0.322909	0.500017
C61	C	2.081678	0.128266	0.000021
C62	C	2.581678	0.628266	0.500021
C63	C	2.247071	0.131265	0.000013
C64	C	2.747071	0.631265	0.500013
C65	C	1.889045	0.291101	0.000010
C66	C	2.389045	0.791101	0.500010
C67	C	1.943964	0.387485	0.000004
C68	C	2.443964	0.887485	0.500004
N69	N	1.814219	0.132482	0.419784
N70	N	2.314219	0.632482	0.919784
N71	N	1.814247	0.132481	-0.419743
N72	N	2.314247	0.632481	0.080257
H73	H	1.914442	-0.147795	0.000036
H74	H	2.414442	0.352205	0.500036
O75	O	1.428757	-0.105439	-0.000283
O76	O	1.928757	0.394561	0.499717
C77	C	1.336937	0.007646	-0.153040
C78	C	1.836937	0.507646	0.346960
C79	C	1.450862	-0.052406	-0.152928
C80	C	1.950862	0.447594	0.347072
H81	H	1.354790	0.050552	-0.276421
H82	H	1.854790	0.550552	0.223579
H83	H	1.217116	-0.033579	-0.153148
H84	H	1.717116	0.466421	0.346852
H85	H	1.354634	0.050468	-0.029542
H86	H	1.854634	0.550468	0.470458
H87	H	1.433303	-0.095238	-0.276404
H88	H	1.933303	0.404762	0.223596
H89	H	1.570642	-0.011129	-0.152727
H90	H	2.070642	0.488871	0.347273
H91	H	2.037243	-0.212507	0.000014
H92	H	2.537243	0.287493	0.500014
H93	H	2.225176	-0.311533	0.000035
H94	H	2.725176	0.188467	0.500035
O95	O	2.199950	-0.629421	0.000086
O96	O	2.699950	-0.129421	0.500086
C97	C	2.462060	-0.638305	-0.000045
C98	C	2.962060	-0.138305	0.499955
C99	C	2.348046	-0.578307	-0.000076
C100	C	2.848046	-0.078307	0.499924
H101	H	2.581821	-0.597003	-0.000214
H102	H	3.081821	-0.097003	0.499786
H103	H	2.444480	-0.681156	0.123424
H104	H	2.944480	-0.181156	0.623424
H105	H	2.444273	-0.681181	-0.123461
H106	H	2.944273	-0.181181	0.376539
H107	H	2.365765	-0.535377	0.123257
H108	H	2.865765	-0.035377	0.623257
H109	H	2.365656	-0.535515	-0.123626
H110	H	2.865656	-0.035515	0.376374
H111	H	2.277137	-0.456669	0.000031
H112	H	2.777137	0.043331	0.500031
H113	H	1.714020	-0.587246	-0.000001
H114	H	2.214020	-0.087246	0.499999
H115	H	1.591211	-0.522518	-0.000004
H116	H	2.091211	-0.022518	0.499996
H117	H	1.351329	-0.278365	0.000002
H118	H	1.851329	0.221635	0.500002
H119	H	1.403296	-0.423509	0.000002
H120	H	1.903296	0.076491	0.500002
