data_functionalizedCrystal
_audit_creation_method	'MofGen! by Chris Wilmer'
_symmetry_space_group_name_H-M	'P1'
_symmetry_Int_Tables_number	1
_symmetry_cell_setting	triclinic
loop_
_symmetry_equiv_pos_as_xyz
  x,y,z
_cell_length_a	10.489741
_cell_length_b	10.489741
_cell_length_c	8.965430
_cell_angle_alpha	89.992235
_cell_angle_beta	89.999552
_cell_angle_gamma	84.539174
loop_
_atom_site_label
_atom_site_type_symbol
_atom_site_fract_x
_atom_site_fract_y
_atom_site_fract_z
O1	O	1.694051	0.179974	-0.123946
O2	O	1.322855	0.196867	-0.123969
O3	O	1.516899	0.002823	-0.123948
O4	O	1.500006	0.374019	-0.123967
O5	O	1.516888	0.002804	0.124130
O6	O	1.322844	0.196848	0.124110
O7	O	1.694040	0.179955	0.124133
Cu8	Cu	1.508441	0.188400	0.146773
Cu9	Cu	1.508454	0.188422	-0.146609
O10	O	1.499996	0.374000	0.124112
C11	C	1.275318	0.195582	0.000067
C12	C	1.133688	0.191765	0.000059
C13	C	1.065548	0.068300	0.000079
C14	C	0.973427	0.126633	-0.122237
C15	C	0.973450	0.126643	0.122349
C16	C	1.043432	0.250148	-0.122358
C17	C	1.043465	0.250142	0.122338
C18	C	0.951371	0.308564	-0.000007
C19	C	1.515618	-0.044718	0.000090
C20	C	1.511801	-0.186348	0.000087
C21	C	1.388336	-0.254488	0.000069
C22	C	1.446654	-0.346620	0.122388
C23	C	1.446694	-0.346576	-0.122198
C24	C	1.570170	-0.276614	0.122508
C25	C	1.570192	-0.276561	-0.122189
C26	C	1.628600	-0.368665	0.000161
C27	C	1.741577	0.181241	0.000093
C28	C	1.883206	0.185058	0.000092
C29	C	1.501277	0.421541	0.000070
C30	C	1.505094	0.563170	0.000063
N31	N	1.508441	0.188383	0.353122
C32	C	1.597478	0.097936	0.549802
C33	C	1.624311	0.213084	0.450320
C34	C	1.481665	0.073245	0.450395
C35	C	1.535356	0.303633	0.549749
C36	C	1.392658	0.163718	0.549833
C37	C	1.419444	0.278949	0.450396
N38	N	1.508464	0.188426	0.647042
H39	H	1.115238	-0.033196	-0.000069
H40	H	1.730204	-0.418089	0.000235
H41	H	1.622393	-0.245508	-0.225600
H42	H	1.672815	0.021517	0.593446
H43	H	1.286824	-0.204837	0.000185
H44	H	1.294763	0.142792	0.593576
H45	H	0.942468	0.074373	0.225758
H46	H	1.394409	-0.377639	0.225794
H47	H	1.394442	-0.377532	-0.225620
H48	H	1.459007	-0.024144	0.406750
H49	H	0.942417	0.074400	-0.225643
H50	H	1.722235	0.233974	0.406610
H51	H	1.558119	0.401046	0.593210
H52	H	1.344155	0.355538	0.407025
H53	H	1.074265	0.302356	-0.225883
H54	H	0.901947	0.410168	-0.000079
H55	H	1.074507	0.302332	0.225749
H56	H	1.622361	-0.245790	0.226035
