data_functionalizedCrystal
_audit_creation_method	'MofGen! by Chris Wilmer'
_symmetry_space_group_name_H-M	'P1'
_symmetry_Int_Tables_number	1
_symmetry_cell_setting	triclinic
loop_
_symmetry_equiv_pos_as_xyz
  x,y,z
_cell_length_a	21.395364
_cell_length_b	12.827892
_cell_length_c	21.395355
_cell_angle_alpha	90.013329
_cell_angle_beta	90.024552
_cell_angle_gamma	90.030153
loop_
_atom_site_label
_atom_site_type_symbol
_atom_site_fract_x
_atom_site_fract_y
_atom_site_fract_z
Zn1	Zn	0.957927	-0.415737	0.354284
Zn2	Zn	1.457927	0.084263	0.854284
Zn3	Zn	0.957858	-0.590464	0.249516
Zn4	Zn	1.457858	-0.090464	0.749516
Zn5	Zn	0.853142	-0.415783	0.249521
Zn6	Zn	1.353142	0.084217	0.749521
Zn7	Zn	0.853139	-0.590482	0.354256
Zn8	Zn	1.353139	-0.090482	0.854256
O9	O	0.905516	-0.503117	0.301894
O10	O	1.405516	-0.003117	0.801894
O11	O	1.045595	-0.438888	0.340396
O12	O	1.545595	0.061112	0.840396
O13	O	0.943939	-0.567303	0.161839
O14	O	1.443939	-0.067303	0.661839
O15	O	0.867072	-0.269541	0.263431
O16	O	1.367072	0.230459	0.763431
O17	O	1.045545	-0.567259	0.263423
O18	O	1.545545	-0.067259	0.763423
O19	O	0.944057	-0.269507	0.340401
O20	O	1.444057	0.230493	0.840401
O21	O	0.867005	-0.438966	0.161842
O22	O	1.367005	0.061034	0.661842
O23	O	0.765463	-0.438984	0.263405
O24	O	1.265463	0.061016	0.763405
O25	O	0.867067	-0.567291	0.441938
O26	O	1.367067	-0.067291	0.941938
O27	O	0.765462	-0.567335	0.340353
O28	O	1.265462	-0.067335	0.840353
O29	O	0.944054	-0.438906	0.441958
O30	O	1.444054	0.061094	0.941958
O31	O	0.943936	-0.736702	0.263397
O32	O	1.443936	-0.236702	0.763397
O33	O	0.867000	-0.736716	0.340349
O34	O	1.367000	-0.236716	0.840349
C35	C	0.742729	-0.503167	0.301877
C36	C	1.242729	-0.003167	0.801877
C37	C	0.673087	-0.503214	0.301884
C38	C	1.173087	-0.003214	0.801884
C39	C	0.640423	-0.436481	0.342026
C40	C	1.140423	0.063519	0.842026
C41	C	0.574988	-0.436453	0.342028
C42	C	1.074988	0.063547	0.842028
C43	C	0.542219	-0.503177	0.301895
C44	C	1.042219	-0.003177	0.801895
C45	C	0.574891	-0.569915	0.261746
C46	C	1.074891	-0.069915	0.761746
C47	C	0.640325	-0.569934	0.261740
C48	C	1.140325	-0.069934	0.761740
C49	C	0.438510	-0.597287	0.296863
C50	C	0.938510	-0.097287	0.796863
C51	C	0.373077	-0.597270	0.296873
C52	C	0.873077	-0.097270	0.796873
C53	C	0.340398	-0.503120	0.301909
C54	C	0.840398	-0.003120	0.801909
C55	C	0.373161	-0.408983	0.306949
C56	C	0.873161	0.091017	0.806949
C57	C	0.438595	-0.409002	0.306943
C58	C	0.938595	0.090998	0.806943
C59	C	0.471267	-0.503164	0.301897
C60	C	0.971267	-0.003164	0.801897
C61	C	0.236782	-0.436351	0.342056
C62	C	0.736782	0.063649	0.842056
C63	C	0.171345	-0.436321	0.342054
C64	C	0.671345	0.063679	0.842054
C65	C	0.171250	-0.569793	0.261775
C66	C	0.671250	-0.069793	0.761775
C67	C	0.236685	-0.569813	0.261774
C68	C	0.736685	-0.069813	0.761774
C69	C	0.269447	-0.503093	0.301917
C70	C	0.769447	-0.003093	0.801917
C71	C	0.905478	-0.774627	0.301883
C72	C	1.405478	-0.274627	0.801883
C73	C	0.905518	-0.890780	0.301899
C74	C	1.405518	-0.390780	0.801899
C75	C	0.867439	-0.942606	0.339949
C76	C	1.367439	-0.442606	0.839949
C77	C	0.867480	-1.062656	0.339967
C78	C	1.367480	-0.562656	0.839967
C79	C	1.068940	-0.503066	0.301912
C80	C	1.568940	-0.003066	0.801912
C81	C	1.138581	-0.503045	0.301920
C82	C	1.638581	-0.003045	0.801920
C83	C	0.905568	-0.503095	0.465318
C84	C	1.405568	-0.003095	0.965318
C85	C	0.905590	-0.503086	0.534959
C86	C	1.405590	-0.003086	1.034959
C87	C	0.905572	-0.230546	0.301920
C88	C	1.405572	0.269454	0.801920
C89	C	0.905596	-0.114393	0.301930
C90	C	1.405596	0.385607	0.801930
C91	C	0.905501	-0.503062	0.139107
C92	C	1.405501	-0.003062	0.639107
C93	C	0.905600	-0.502777	0.069466
C94	C	1.405600	-0.002777	0.569466
C95	C	0.945676	-0.436234	0.567684
C96	C	1.445676	0.063766	1.067684
C97	C	0.945675	-0.436189	0.633119
C98	C	1.445675	0.063811	1.133119
C99	C	0.905595	-0.503015	0.665827
C100	C	1.405595	-0.003015	1.165827
C101	C	0.865502	-0.569873	0.633095
C102	C	1.365502	-0.069873	1.133095
C103	C	0.865500	-0.569908	0.567660
C104	C	1.365500	-0.069908	1.067660
C105	C	0.900635	-0.597111	0.769498
C106	C	1.400635	-0.097111	1.269498
C107	C	0.900641	-0.597077	0.834931
C108	C	1.400641	-0.097077	1.334931
C109	C	0.905599	-0.502905	0.867648
C110	C	1.405599	-0.002905	1.367648
C111	C	0.910563	-0.408763	0.834924
C112	C	1.410563	0.091237	1.334924
C113	C	0.910561	-0.408799	0.769490
C114	C	1.410561	0.091201	1.269490
C115	C	0.905593	-0.502984	0.736780
C116	C	1.405593	-0.002984	1.236780
C117	C	0.945686	-0.435998	0.971326
C118	C	1.445686	0.064002	1.471326
C119	C	0.945681	-0.435951	1.036762
C120	C	1.445681	0.064049	1.536762
C121	C	0.865511	-0.569644	1.036736
C122	C	1.365511	-0.069644	1.536736
C123	C	0.865513	-0.569681	0.971301
C124	C	1.365513	-0.069681	1.471301
C125	C	0.905604	-0.502860	0.938600
C126	C	1.405604	-0.002860	1.438600
H127	H	0.465267	-0.332353	0.311044
H128	H	0.965267	0.167647	0.811044
H129	H	0.834804	-0.898102	0.372511
H130	H	1.334804	-0.398102	0.872511
C131	C	0.949642	-1.054192	0.257917
C132	C	1.449642	-0.554192	0.757917
N133	N	0.982816	-1.008841	0.224766
N134	N	1.482816	-0.508841	0.724766
H135	H	0.978316	-0.381744	0.659769
H136	H	1.478316	0.118256	1.159769
H137	H	0.832875	-0.624127	0.944656
H138	H	1.332875	-0.124127	1.444656
H139	H	0.666920	-0.624278	0.229051
H140	H	1.166920	-0.124278	0.729051
H141	H	0.938148	-0.935286	0.269334
H142	H	1.438148	-0.435286	0.769334
H143	H	0.832867	-0.624280	0.659730
H144	H	1.332867	-0.124280	1.159730
C145	C	0.337219	-0.305408	0.312483
C146	C	0.837219	0.194592	0.812483
N147	N	0.310145	-0.227399	0.316651
N148	N	0.810145	0.272601	0.816651
H149	H	0.978320	-0.381821	0.541062
H150	H	1.478320	0.118179	1.041062
H151	H	0.263281	-0.624159	0.229089
H152	H	0.763281	-0.124159	0.729089
H153	H	0.346407	-0.673922	0.292773
H154	H	0.846407	-0.173922	0.792773
H155	H	0.667094	-0.382152	0.374713
H156	H	1.167094	0.117848	0.874713
C157	C	0.539050	-0.363045	0.386192
C158	C	1.039050	0.136955	0.886192
N159	N	0.511983	-0.307756	0.419459
N160	N	1.011983	0.192244	0.919459
H161	H	0.914601	-0.332079	0.861561
H162	H	1.414601	0.167921	1.361561
C163	C	0.823435	-1.122863	0.383977
C164	C	1.323435	-0.622863	0.883977
N165	N	0.790258	-1.168215	0.417125
N166	N	1.290258	-0.668215	0.917125
C167	C	0.135208	-0.643190	0.217628
C168	C	0.635208	-0.143190	0.717628
N169	N	0.108058	-0.698473	0.184374
N170	N	0.608058	-0.198473	0.684374
H171	H	0.263458	-0.382017	0.374739
H172	H	0.763458	0.117983	0.874739
H173	H	0.832855	-0.624346	0.541016
H174	H	1.332855	-0.124346	1.041016
C175	C	0.916012	-0.305244	0.733496
C176	C	1.416012	0.194756	1.233496
N177	N	0.920115	-0.227245	0.706386
N178	N	1.420115	0.272755	1.206386
C179	C	0.989780	-0.362484	0.935352
C180	C	1.489780	0.137516	1.435352
N181	N	1.022992	-0.307111	0.908258
N182	N	1.522992	0.192889	1.408258
H183	H	0.896430	-0.673778	0.742865
H184	H	1.396430	-0.173778	1.242865
C185	C	0.135414	-0.362904	0.386214
C186	C	0.635414	0.137096	0.886214
N187	N	0.108351	-0.307606	0.419478
N188	N	0.608351	0.192394	0.919478
C189	C	0.989779	-0.362402	1.072759
C190	C	1.489779	0.137598	1.572759
N191	N	1.022995	-0.307004	1.099873
N192	N	1.522995	0.192996	1.599873
C193	C	0.821423	-0.643155	1.072712
C194	C	1.321423	-0.143155	1.572712
N195	N	0.788215	-0.698525	1.099811
N196	N	1.288215	-0.198525	1.599811
H197	H	0.465112	-0.673961	0.292761
H198	H	0.965112	-0.173961	0.792761
H199	H	0.548207	-0.624242	0.229069
H200	H	1.048207	-0.124242	0.729069
C201	C	0.895181	-0.700634	0.870921
C202	C	1.395181	-0.200634	1.370921
N203	N	0.891066	-0.778636	0.898027
N204	N	1.391066	-0.278636	1.398027
