data_functionalizedCrystal
_audit_creation_method	'MofGen! by Chris Wilmer'
_symmetry_space_group_name_H-M	'P1'
_symmetry_Int_Tables_number	1
_symmetry_cell_setting	triclinic
loop_
_symmetry_equiv_pos_as_xyz
  x,y,z
_cell_length_a	16.959455
_cell_length_b	16.959453
_cell_length_c	16.959447
_cell_angle_alpha	90.031064
_cell_angle_beta	90.016723
_cell_angle_gamma	90.018936
loop_
_atom_site_label
_atom_site_type_symbol
_atom_site_fract_x
_atom_site_fract_y
_atom_site_fract_z
Zn1	Zn	1.208384	-0.314688	0.446955
Zn2	Zn	1.708384	0.185312	0.946955
Zn3	Zn	1.208307	-0.446881	0.314775
Zn4	Zn	1.708307	0.053119	0.814775
Zn5	Zn	1.076213	-0.314718	0.314787
Zn6	Zn	1.576213	0.185282	0.814787
Zn7	Zn	1.076178	-0.446826	0.446908
Zn8	Zn	1.576178	0.053174	0.946908
O9	O	1.142270	-0.380778	0.380856
O10	O	1.642270	0.119222	0.880856
O11	O	1.318985	-0.332234	0.429436
O12	O	1.818985	0.167766	0.929436
O13	O	1.190767	-0.429384	0.204166
O14	O	1.690767	0.070616	0.704166
O15	O	1.093793	-0.204103	0.332344
O16	O	1.593793	0.295897	0.832344
O17	O	1.318928	-0.429355	0.332324
O18	O	1.818928	0.070645	0.832324
O19	O	1.190898	-0.204081	0.429448
O20	O	1.690898	0.295919	0.929448
O21	O	1.093718	-0.332284	0.204175
O22	O	1.593718	0.167716	0.704175
O23	O	0.965597	-0.332232	0.332299
O24	O	1.465597	0.167768	0.832299
O25	O	1.093733	-0.429263	0.557525
O26	O	1.593733	0.070737	1.057525
O27	O	0.965571	-0.429291	0.429367
O28	O	1.465571	0.070709	0.929367
O29	O	1.190864	-0.332181	0.557560
O30	O	1.690864	0.167819	1.057560
O31	O	1.190733	-0.557484	0.332278
O32	O	1.690733	-0.057484	0.832278
O33	O	1.093658	-0.557444	0.429355
O34	O	1.593658	-0.057444	0.929355
C35	C	0.936904	-0.380759	0.380830
C36	C	1.436904	0.119241	0.880830
C37	C	0.849048	-0.380770	0.380837
C38	C	1.349048	0.119230	0.880837
C39	C	0.807764	-0.330164	0.330379
C40	C	1.307764	0.169836	0.830379
C41	C	0.807778	-0.431383	0.431307
C42	C	1.307778	0.068617	0.931307
C43	C	0.725232	-0.431392	0.431318
C44	C	1.225232	0.068608	0.931318
C45	C	0.683948	-0.380785	0.380860
C46	C	1.183948	0.119215	0.880860
C47	C	0.725210	-0.330169	0.330391
C48	C	1.225210	0.169831	0.830391
C49	C	0.683964	-0.482001	0.481793
C50	C	1.183964	0.017999	0.981793
C51	C	0.601413	-0.482011	0.481807
C52	C	1.101413	0.017989	0.981807
C53	C	0.560128	-0.431408	0.431344
C54	C	1.060128	0.068592	0.931344
C55	C	0.601395	-0.380791	0.380872
C56	C	1.101395	0.119209	0.880872
C57	C	0.560111	-0.330184	0.330414
C58	C	1.060111	0.169816	0.830414
C59	C	0.601376	-0.279571	0.279937
C60	C	1.101376	0.220429	0.779937
C61	C	0.683924	-0.279566	0.279928
C62	C	1.183924	0.220434	0.779928
C63	C	0.477579	-0.431413	0.431353
C64	C	0.977579	0.068587	0.931353
C65	C	0.477557	-0.330190	0.330426
C66	C	0.977557	0.169810	0.830426
C67	C	1.142204	-0.586144	0.380827
C68	C	1.642204	-0.086144	0.880827
C69	C	1.142249	-0.674001	0.380841
C70	C	1.642249	-0.174001	0.880841
C71	C	1.192898	-1.045407	0.431513
C72	C	1.692898	-0.545407	0.931513
C73	C	1.091863	-1.045546	0.330317
C74	C	1.591863	-0.545546	0.830317
C75	C	1.091834	-0.963000	0.330298
C76	C	1.591834	-0.463000	0.830298
C77	C	1.142337	-0.921654	0.380889
C78	C	1.642337	-0.421654	0.880889
C79	C	1.192869	-0.962853	0.431499
C80	C	1.692869	-0.462853	0.931499
C81	C	1.041297	-0.921795	0.279696
C82	C	1.541297	-0.421795	0.779696
C83	C	1.041265	-0.839244	0.279676
C84	C	1.541265	-0.339244	0.779676
C85	C	1.091773	-0.797896	0.330264
C86	C	1.591773	-0.297896	0.830264
C87	C	1.142307	-0.839100	0.380875
C88	C	1.642307	-0.339100	0.880875
C89	C	1.192810	-0.797754	0.431465
C90	C	1.692810	-0.297754	0.931465
C91	C	1.243349	-0.838957	0.482073
C92	C	1.743349	-0.338957	0.982073
C93	C	1.243376	-0.921505	0.482086
C94	C	1.743376	-0.421505	0.982086
C95	C	1.091746	-0.715347	0.330250
C96	C	1.591746	-0.215347	0.830250
C97	C	1.192781	-0.715200	0.431451
C98	C	1.692781	-0.215200	0.931451
C99	C	1.348439	-0.380798	0.380884
C100	C	1.848439	0.119202	0.880884
C101	C	1.436295	-0.380806	0.380895
C102	C	1.936295	0.119194	0.880895
C103	C	1.142303	-0.380713	0.587025
C104	C	1.642303	0.119287	1.087025
C105	C	1.142317	-0.380685	0.674881
C106	C	1.642317	0.119315	1.174881
C107	C	1.142358	-0.174610	0.380903
C108	C	1.642358	0.325390	0.880903
C109	C	1.142395	-0.086753	0.380923
C110	C	1.642395	0.413247	0.880923
C111	C	1.142283	-0.380786	0.175490
C112	C	1.642283	0.119214	0.675490
C113	C	1.142422	-0.380591	0.087634
C114	C	1.642422	0.119409	0.587634
C115	C	1.091840	-0.431147	1.046342
C116	C	1.591840	0.068853	1.546342
C117	C	1.192984	-0.330056	1.046373
C118	C	1.692984	0.169944	1.546373
C119	C	1.192963	-0.330072	0.963827
C120	C	1.692963	0.169928	1.463827
C121	C	1.142380	-0.380628	0.922534
C122	C	1.642380	0.119372	1.422534
C123	C	1.091819	-0.431167	0.963788
C124	C	1.591819	0.068833	1.463788
C125	C	1.243529	-0.279540	0.922567
C126	C	1.743529	0.220460	1.422567
C127	C	1.243511	-0.279555	0.840016
C128	C	1.743511	0.220445	1.340016
C129	C	1.192923	-0.330108	0.798722
C130	C	1.692923	0.169892	1.298722
C131	C	1.142359	-0.380648	0.839981
C132	C	1.642359	0.119352	1.339981
C133	C	1.091777	-0.431204	0.798688
C134	C	1.591777	0.068796	1.298688
C135	C	1.041208	-0.481741	0.839946
C136	C	1.541208	0.018259	1.339946
C137	C	1.041232	-0.481719	0.922494
C138	C	1.541232	0.018281	1.422494
C139	C	1.192900	-0.330129	0.716174
C140	C	1.692900	0.169871	1.216174
C141	C	1.091756	-0.431224	0.716135
C142	C	1.591756	0.068776	1.216135
H143	H	0.717584	-0.523200	0.522876
H144	H	1.217584	-0.023200	1.022876
C145	C	1.299128	-0.223956	0.794641
C146	C	1.799128	0.276044	1.294641
N147	N	1.341017	-0.182074	0.760464
N148	N	1.841017	0.317926	1.260464
C149	C	0.985607	-0.537301	0.967883
C150	C	1.485607	-0.037301	1.467883
N151	N	0.943710	-0.579164	1.002073
N152	N	1.443710	-0.079164	1.502073
C153	C	0.556029	-0.537700	0.537320
C154	C	1.056029	-0.037700	1.037320
N155	N	0.521844	-0.579650	0.579127
N156	N	1.021844	-0.079650	1.079127
C157	C	0.985569	-0.537350	0.794513
C158	C	1.485569	-0.037350	1.294513
N159	N	0.943662	-0.579233	0.760290
N160	N	1.443662	-0.079233	1.260290
C161	C	0.432191	-0.487083	0.486876
C162	C	0.932191	0.012917	0.986876
N163	N	0.398006	-0.529018	0.528697
N164	N	0.898006	-0.029018	1.028697
H165	H	1.050558	-0.472386	0.682520
H166	H	1.550558	0.027614	1.182520
C167	C	1.248523	-0.274543	0.670795
C168	C	1.748523	0.225457	1.170795
N169	N	1.290419	-0.232670	0.636616
N170	N	1.790419	0.267330	1.136616
H171	H	1.000179	-0.955465	0.238510
H172	H	1.500179	-0.455465	0.738510
C173	C	1.036158	-0.670028	0.274585
C174	C	1.536158	-0.170028	0.774585
N175	N	0.994288	-0.635894	0.232652
N176	N	1.494288	-0.135894	0.732652
C177	C	0.729322	-0.223883	0.224421
C178	C	1.229322	0.276117	0.724421
N179	N	0.763520	-0.181937	0.182620
N180	N	1.263520	0.318063	0.682620
H181	H	1.050666	-0.472291	1.079937
H182	H	1.550666	0.027709	1.579937
H183	H	0.443949	-0.288981	0.289335
H184	H	0.943949	0.211019	0.789335
C185	C	0.555953	-0.223903	0.224437
C186	C	1.055953	0.276097	0.724437
N187	N	0.521737	-0.181975	0.182635
N188	N	1.021737	0.318025	0.682635
C189	C	0.853155	-0.274485	0.274863
C190	C	1.353155	0.225515	0.774863
N191	N	0.887346	-0.232544	0.233051
N192	N	1.387346	0.267456	0.733051
C193	C	1.248342	-0.669726	0.487103
C194	C	1.748342	-0.169726	0.987103
N195	N	1.290191	-0.635475	0.529021
N196	N	1.790191	-0.135475	1.029021
H197	H	0.841396	-0.472581	0.472391
H198	H	1.341396	0.027419	0.972391
H199	H	1.000115	-0.805702	0.238469
H200	H	1.500115	-0.305702	0.738469
C201	C	1.248616	-0.274442	1.091797
C202	C	1.748616	0.225558	1.591797
N203	N	1.290517	-0.232548	1.126014
N204	N	1.790517	0.267452	1.626014
H205	H	1.284715	-0.238385	0.956193
H206	H	1.784715	0.261615	1.456193
H207	H	1.284522	-0.955060	0.523288
H208	H	1.784522	-0.455060	1.023288
C209	C	1.298900	-0.793465	0.537721
C210	C	1.798900	-0.293465	1.037721
N211	N	1.340741	-0.759197	0.579634
N212	N	1.840741	-0.259197	1.079634
C213	C	1.248488	-1.090730	0.487179
C214	C	1.748488	-0.590730	0.987179
N215	N	1.290359	-1.124868	0.529107
N216	N	1.790359	-0.624868	1.029107
H217	H	1.050743	-1.079215	0.289131
H218	H	1.550743	-0.579215	0.789131
