data_functionalizedCrystal
_audit_creation_method	'MofGen! by Chris Wilmer'
_symmetry_space_group_name_H-M	'P1'
_symmetry_Int_Tables_number	1
_symmetry_cell_setting	triclinic
loop_
_symmetry_equiv_pos_as_xyz
  x,y,z
_cell_length_a	11.026607
_cell_length_b	14.750779
_cell_length_c	11.026607
_cell_angle_alpha	105.479780
_cell_angle_beta	108.586017
_cell_angle_gamma	74.519710
loop_
_atom_site_label
_atom_site_type_symbol
_atom_site_fract_x
_atom_site_fract_y
_atom_site_fract_z
O1	O	1.705111	0.079823	0.555228
O2	O	1.338531	0.079825	0.494465
O3	O	1.491440	0.079821	0.341555
O4	O	1.552202	0.079827	0.708137
O5	O	1.534667	-0.079831	0.298336
O6	O	1.381758	-0.079827	0.451245
O7	O	1.748338	-0.079828	0.512008
Zn8	Zn	1.571911	-0.105176	0.474765
Zn9	Zn	1.514958	0.105172	0.531708
O10	O	1.595429	-0.079824	0.664918
C11	C	1.312485	-0.000001	0.461645
C12	C	1.170471	-0.000000	0.428228
N13	N	1.610790	-0.248732	0.435903
C14	C	1.116821	0.000002	0.520499
C15	C	0.970042	0.000003	0.485963
C16	C	1.367494	-0.600544	0.679039
C17	C	1.394748	-0.701044	0.651818
C18	C	1.530199	-0.701010	0.516489
C19	C	1.502951	-0.600508	0.543693
C20	C	1.421599	-0.550283	0.624971
C21	C	1.557056	-0.550247	0.489625
C22	C	1.529815	-0.449754	0.516833
C23	C	1.448469	-0.399522	0.598110
C24	C	1.394358	-0.449790	0.652179
C25	C	1.638415	-0.600474	0.408355
C26	C	1.692520	-0.550213	0.354286
C27	C	1.665272	-0.449718	0.381487
C28	C	1.583926	-0.399486	0.462764
C29	C	1.719383	-0.399451	0.327418
C30	C	1.692142	-0.298957	0.354626
C31	C	1.556685	-0.298993	0.489972
C32	C	1.774384	-0.000001	0.544828
C33	C	1.916396	0.000005	0.578247
C34	C	1.501844	-0.000004	0.272286
C35	C	1.468426	-0.000000	0.130273
N36	N	1.476088	0.248729	0.570562
C37	C	1.560695	0.000001	0.076624
C38	C	1.526158	0.000004	-0.070153
C39	C	1.585025	0.000003	0.734187
C40	C	1.618441	0.000005	0.876202
H41	H	1.179555	-0.000001	0.625061
H42	H	0.907307	0.000026	0.381400
F43	F	1.331749	0.000009	0.048285
F44	F	0.998383	-0.000004	0.714927
H45	H	1.107731	0.000023	0.323672
F46	F	1.755122	0.000009	-0.041813
H47	H	1.490429	-0.258098	0.556145
H48	H	1.426295	-0.317694	0.620266
H49	H	1.328101	-0.408895	0.718352
F50	F	1.805975	-0.452915	0.240933
H51	H	1.301238	-0.559649	0.745212
H52	H	1.665260	-0.000006	0.139356
F53	F	1.389475	0.000014	-0.152137
H54	H	1.350684	-0.741961	0.695857
H55	H	1.660596	-0.682302	0.386211
F56	F	1.616782	-0.754472	0.429994
H57	H	1.758762	-0.591118	0.288113
F58	F	1.749731	-0.245466	0.297082
