data_functionalizedCrystal
_audit_creation_method	'MofGen! by Chris Wilmer'
_symmetry_space_group_name_H-M	'P1'
_symmetry_Int_Tables_number	1
_symmetry_cell_setting	triclinic
loop_
_symmetry_equiv_pos_as_xyz
  x,y,z
_cell_length_a	19.121112
_cell_length_b	19.121063
_cell_length_c	12.759393
_cell_angle_alpha	92.404035
_cell_angle_beta	87.538969
_cell_angle_gamma	90.126867
loop_
_atom_site_label
_atom_site_type_symbol
_atom_site_fract_x
_atom_site_fract_y
_atom_site_fract_z
Zn1	Zn	1.059877	-0.324862	-0.682279
Zn2	Zn	1.054776	-0.442110	-0.513734
Zn3	Zn	0.942632	-0.319887	-0.498821
Zn4	Zn	0.937602	-0.437052	-0.681578
O5	O	0.998722	-0.380978	-0.594103
O6	O	1.157305	-0.344614	-0.666456
O7	O	1.039870	-0.425932	-0.364735
O8	O	0.962424	-0.222443	-0.517209
O9	O	1.153558	-0.430756	-0.542627
O10	O	1.048564	-0.226099	-0.651995
O11	O	0.957478	-0.336135	-0.353778
O12	O	0.843859	-0.331230	-0.516529
O13	O	0.953852	-0.422135	-0.828692
O14	O	0.840164	-0.417311	-0.650800
O15	O	1.043687	-0.339709	-0.829207
O16	O	1.034993	-0.539542	-0.541947
O17	O	0.948906	-0.535826	-0.665261
C18	C	0.816574	-0.373182	-0.581971
C19	C	0.738650	-0.369864	-0.576806
C20	C	0.990869	-0.563122	-0.605171
C21	C	0.987574	-0.641047	-0.609945
C22	C	0.298023	-0.348813	-0.544095
C23	C	0.371241	-0.351934	-0.548954
C24	C	0.405938	-0.398387	-0.621186
C25	C	0.367415	-0.441715	-0.688571
C26	C	0.294198	-0.438589	-0.683717
C27	C	0.626909	-0.410067	-0.639338
C28	C	0.700131	-0.413190	-0.644185
C29	C	0.703952	-0.323409	-0.504568
C30	C	0.630734	-0.320290	-0.499716
C31	C	0.592217	-0.363616	-0.567105
C32	C	0.480779	-0.401580	-0.626151
C33	C	0.517378	-0.360418	-0.562144
C34	C	1.030881	-0.679569	-0.548043
C35	C	1.027786	-0.752788	-0.552539
C36	C	0.981379	-0.787483	-0.618933
C37	C	0.938070	-0.748955	-0.680842
C38	C	0.941169	-0.675738	-0.676350
C39	C	0.969781	-1.008456	-0.635709
C40	C	0.966684	-1.081679	-0.640194
C41	C	1.056402	-1.085506	-0.511892
C42	C	1.059494	-1.012287	-0.507402
C43	C	1.016187	-0.973766	-0.569315
C44	C	0.978213	-0.862324	-0.623528
C45	C	1.019357	-0.898927	-0.564724
C46	C	1.181580	-0.388804	-0.606283
C47	C	1.259504	-0.392139	-0.611474
C48	C	0.998777	-0.380913	-0.868136
C49	C	0.998801	-0.380885	-0.984912
C50	C	1.006624	-0.198123	-0.583016
C51	C	1.009992	-0.120201	-0.578292
C52	C	1.045581	-0.337959	-1.040044
C53	C	1.045594	-0.337929	-1.149767
C54	C	0.952044	-0.423757	-1.149217
C55	C	0.952028	-0.423783	-1.039496
C56	C	0.998709	-0.380994	-0.321136
C57	C	0.998830	-0.380830	-0.204357
H58	H	0.269777	-0.310987	-0.485275
H59	H	0.913965	-0.458685	-1.193673
H60	H	1.097282	-0.984040	-0.453339
H61	H	0.489124	-0.322594	-0.503337
C62	C	1.097056	-0.290714	-1.210408
H63	H	1.124911	-0.265175	-1.162182
H64	H	1.071569	-0.259007	-1.249569
H65	H	1.126450	-0.318835	-1.256874
H66	H	1.091661	-1.116878	-0.461488
H67	H	0.395671	-0.479535	-0.747388
C68	C	0.927165	-0.900488	-0.696556
H69	H	0.901815	-0.867062	-0.732787
H70	H	0.895426	-0.927796	-0.656050
H71	H	0.952768	-0.930145	-0.745903
C72	C	0.915640	-1.119842	-0.713239
H73	H	0.890297	-1.086415	-0.749478
H74	H	0.883895	-1.147147	-0.672739
H75	H	0.941246	-1.149502	-0.762579
H76	H	0.509038	-0.439404	-0.684960
C77	C	0.900568	-0.471002	-0.978842
H78	H	0.907253	-0.464867	-0.905678
H79	H	0.908790	-0.518542	-1.000359
H80	H	0.853908	-0.458715	-0.993057
C81	C	1.075421	-0.795160	-0.484442
H82	H	1.103496	-0.764010	-0.444247
H83	H	1.104750	-0.824980	-0.528446
H84	H	1.047402	-0.822622	-0.438601
C85	C	0.887025	-0.787114	-0.753879
H86	H	0.861681	-0.753684	-0.790110
H87	H	0.855280	-0.814419	-0.713377
H88	H	0.912626	-0.816774	-0.803226
C89	C	0.251829	-0.486221	-0.757873
H90	H	0.282979	-0.514329	-0.801594
H91	H	0.224453	-0.458195	-0.800182
H92	H	0.221923	-0.515526	-0.717602
H93	H	0.402599	-0.316656	-0.494082
C94	C	1.097022	-0.290769	-0.980000
H95	H	1.090319	-0.296936	-0.906757
H96	H	1.088802	-0.243223	-0.994442
H97	H	1.143688	-0.303046	-1.001749
H98	H	1.057144	-0.870676	-0.510670
H99	H	0.602488	-0.282469	-0.440890
H100	H	0.905904	-0.644374	-0.726759
C101	C	0.746322	-0.275748	-0.430457
H102	H	0.794897	-0.284256	-0.443696
H103	H	0.733861	-0.285432	-0.359662
H104	H	0.736356	-0.228144	-0.442308
H105	H	1.068668	-0.651326	-0.493973
H106	H	0.728380	-0.451018	-0.703010
H107	H	0.934518	-0.977098	-0.686119
H108	H	0.595557	-0.445348	-0.694208
