data_functionalizedCrystal
_audit_creation_method	'MofGen! by Chris Wilmer'
_symmetry_space_group_name_H-M	'P1'
_symmetry_Int_Tables_number	1
_symmetry_cell_setting	triclinic
loop_
_symmetry_equiv_pos_as_xyz
  x,y,z
_cell_length_a	6.817900
_cell_length_b	19.452420
_cell_length_c	19.453114
_cell_angle_alpha	96.328802
_cell_angle_beta	101.709288
_cell_angle_gamma	101.696715
loop_
_atom_site_label
_atom_site_type_symbol
_atom_site_fract_x
_atom_site_fract_y
_atom_site_fract_z
V1	V	-3.997947	-0.097915	-0.219345
O2	O	-3.995100	0.003953	-0.214816
O3	O	-3.940917	-0.193426	-0.218185
O4	O	-3.940968	-0.096739	-0.314854
O5	O	-3.995048	-0.093403	-0.117478
V6	V	-4.483804	-0.085692	-0.207120
O7	O	-4.254084	-0.124729	-0.246163
O8	O	-4.677865	-0.058878	-0.180302
O9	O	-4.317628	0.009819	-0.208280
O10	O	-4.604048	-0.187560	-0.211649
O11	O	-4.604099	-0.090204	-0.308987
O12	O	-4.317576	-0.086868	-0.111611
C13	C	-3.784096	-0.216699	-0.214813
C14	C	-3.818697	-0.294782	-0.214501
C15	C	-3.801490	-0.321196	-0.149986
C16	C	-3.834075	-0.394562	-0.149672
C17	C	-3.883827	-0.441511	-0.213874
C18	C	-3.901045	-0.415090	-0.278397
C19	C	-3.868480	-0.341726	-0.278711
N20	N	-3.846563	-0.562110	-0.259091
N21	N	-3.877492	-0.631802	-0.258789
C22	C	-3.981949	-0.662553	-0.212935
N23	N	-4.054279	-0.620977	-0.167383
N24	N	-4.023337	-0.551278	-0.167682
C25	C	-3.919143	-0.521063	-0.213542
C26	C	-4.000075	-0.768518	-0.148075
C27	C	-4.032674	-0.841885	-0.147764
C28	C	-4.099624	-0.862412	-0.276491
C29	C	-4.067045	-0.789046	-0.276801
C30	C	-4.017262	-0.742102	-0.212591
C31	C	-3.784160	-0.093365	-0.338123
C32	C	-3.818800	-0.093035	-0.416204
C33	C	-4.016538	-0.096406	-0.456473
C34	C	-4.049086	-0.096097	-0.529838
C35	C	-3.883893	-0.092431	-0.562934
C36	C	-3.686126	-0.089055	-0.522655
C37	C	-3.653579	-0.089358	-0.449290
N38	N	-3.820798	-0.129525	-0.681855
N39	N	-3.851729	-0.129240	-0.751549
C40	C	-3.981942	-0.091517	-0.783979
N41	N	-4.080090	-0.054101	-0.744084
N42	N	-4.049164	-0.054390	-0.674384
C43	C	-3.919164	-0.092102	-0.642486
C44	C	-4.214984	-0.094552	-0.903800
C45	C	-4.247523	-0.094238	-0.977166
C46	C	-3.884560	-0.087203	-0.969983
C47	C	-3.852023	-0.087510	-0.896617
C48	C	-4.017244	-0.091188	-0.863531
C49	C	-4.137790	0.033088	-0.211650
C50	C	-4.082427	0.111171	-0.211967
C51	C	-4.137726	-0.090245	-0.088339
C52	C	-4.082325	-0.090570	-0.010257
H53	H	-3.882500	-0.320222	-0.331248
N54	N	-4.014097	-0.870383	-0.078179
H55	H	-4.149515	-0.902789	-0.077566
H56	H	-3.977534	-0.829474	-0.037589
H57	H	-3.750053	-0.084212	-0.996928
H58	H	-4.210115	-0.098846	-0.562632
H59	H	-3.551625	-0.086068	-0.549606
H60	H	-3.941557	-0.453320	-0.330672
H61	H	-3.691009	-0.084773	-0.863830
N62	N	-3.946397	-0.717880	-0.078825
H63	H	-3.940461	-0.745749	-0.037907
H64	H	-4.054831	-0.689419	-0.078547
H65	H	-3.760969	-0.282979	-0.097702
H66	H	-3.820059	-0.416072	-0.097135
N67	N	-4.153304	-0.913039	-0.345740
H68	H	-4.171331	-0.963524	-0.335754
H69	H	-4.038827	-0.902273	-0.371510
H70	H	-3.492552	-0.086607	-0.416502
N71	N	-4.085584	-0.760551	-0.346384
H72	H	-4.122043	-0.801423	-0.387010
H73	H	-3.950122	-0.728132	-0.346924
H74	H	-4.151076	-0.099398	-0.429538
H75	H	-4.349516	-0.097544	-0.876859
N76	N	-4.460801	-0.097860	-1.020601
H77	H	-4.560518	-0.100234	-0.988505
H78	H	-4.504954	-0.141652	-1.058176
