data_functionalizedCrystal
_audit_creation_method	'MofGen! by Chris Wilmer'
_symmetry_space_group_name_H-M	'P1'
_symmetry_Int_Tables_number	1
_symmetry_cell_setting	triclinic
loop_
_symmetry_equiv_pos_as_xyz
  x,y,z
_cell_length_a	14.519709
_cell_length_b	10.654550
_cell_length_c	9.130313
_cell_angle_alpha	90.003751
_cell_angle_beta	89.997166
_cell_angle_gamma	84.082538
loop_
_atom_site_label
_atom_site_type_symbol
_atom_site_fract_x
_atom_site_fract_y
_atom_site_fract_z
O1	O	1.224719	0.164622	0.121608
O2	O	1.724719	0.664622	0.621608
O3	O	0.956342	0.184008	0.121653
O4	O	1.456342	0.684008	0.621653
O5	O	1.096701	-0.008484	0.121620
O6	O	1.596701	0.491516	0.621620
O7	O	1.084360	0.357114	0.121641
O8	O	1.584360	0.857114	0.621641
O9	O	1.096693	-0.008487	-0.121979
O10	O	1.596693	0.491513	0.378021
O11	O	0.956335	0.184005	-0.121946
O12	O	1.456335	0.684005	0.378054
O13	O	1.224711	0.164618	-0.121991
O14	O	1.724711	0.664618	0.378009
Cu15	Cu	1.090522	0.174311	-0.144211
Cu16	Cu	1.590522	0.674311	0.355789
Cu17	Cu	1.090531	0.174315	0.143873
Cu18	Cu	1.590531	0.674315	0.643873
O19	O	1.084352	0.357110	-0.121958
O20	O	1.584352	0.857110	0.378042
C21	C	0.921974	0.183103	-0.000141
C22	C	1.421974	0.683103	0.499859
C23	C	0.819579	0.180396	-0.000124
C24	C	1.319579	0.680396	0.499876
C25	C	1.095791	-0.055275	-0.000178
C26	C	1.595791	0.444725	0.499822
C27	C	1.093080	-0.194692	-0.000176
C28	C	1.593080	0.305308	0.499824
C29	C	1.175721	-0.274972	-0.000189
C30	C	1.675721	0.225028	0.499811
C31	C	1.173168	-0.405968	-0.000171
C32	C	1.673168	0.094032	0.499829
C33	C	1.005326	-0.376391	-0.000132
C34	C	1.505326	0.123609	0.499868
C35	C	1.007880	-0.245397	-0.000140
C36	C	1.507880	0.254603	0.499860
C37	C	0.444631	0.170428	-0.000191
C38	C	0.944631	0.670428	0.499809
C39	C	0.548954	0.173196	-0.000172
C40	C	1.048954	0.673196	0.499828
C41	C	0.632102	0.175412	-0.000156
C42	C	1.132102	0.675412	0.499844
C43	C	0.736431	0.178180	-0.000140
C44	C	1.236431	0.678180	0.499860
C45	C	1.259079	0.165524	-0.000194
C46	C	1.759079	0.665524	0.499806
C47	C	1.361475	0.168231	-0.000201
C48	C	1.861475	0.668231	0.499799
C49	C	1.085262	0.403901	-0.000156
C50	C	1.585262	0.903901	0.499844
C51	C	1.087973	0.543318	-0.000150
C52	C	1.587973	1.043318	0.499850
N53	N	1.090522	0.174307	-0.346834
N54	N	1.590522	0.674307	0.153166
C55	C	1.152698	0.089104	-0.576847
C56	C	1.652698	0.589104	-0.076847
C57	C	1.152693	0.089105	-0.423510
C58	C	1.652693	0.589105	0.076490
C59	C	1.028359	0.259522	-0.423502
C60	C	1.528359	0.759522	0.076498
C61	C	1.028370	0.259525	-0.576836
C62	C	1.528370	0.759525	-0.076836
N63	N	1.090538	0.174309	0.346496
N64	N	1.590538	0.674309	0.846496
H65	H	1.245096	-0.233692	-0.000215
H66	H	1.745096	0.266308	0.499785
Br67	Br	0.889703	-0.445215	-0.000079
Br68	Br	1.389703	0.054785	0.499921
Br69	Br	1.285329	-0.514917	-0.000180
Br70	Br	1.785329	-0.014917	0.499820
H71	H	0.977752	0.328916	-0.639255
H72	H	1.477752	0.828916	-0.139255
H73	H	1.203321	0.019717	-0.639266
H74	H	1.703321	0.519717	-0.139266
H75	H	0.940579	-0.180029	-0.000125
H76	H	1.440579	0.319971	0.499875
H77	H	1.203310	0.019725	-0.361099
H78	H	1.703310	0.519725	0.138901
Br79	Br	0.943989	0.375166	-0.319448
Br80	Br	1.443989	0.875166	0.180552
