data_functionalizedCrystal
_audit_creation_method	'MofGen! by Chris Wilmer'
_symmetry_space_group_name_H-M	'P1'
_symmetry_Int_Tables_number	1
_symmetry_cell_setting	triclinic
loop_
_symmetry_equiv_pos_as_xyz
  x,y,z
_cell_length_a	11.792241
_cell_length_b	10.868271
_cell_length_c	16.109304
_cell_angle_alpha	89.998605
_cell_angle_beta	83.828027
_cell_angle_gamma	90.000156
loop_
_atom_site_label
_atom_site_type_symbol
_atom_site_fract_x
_atom_site_fract_y
_atom_site_fract_z
O1	O	1.505911	0.102195	0.113950
O2	O	2.005911	0.602195	0.613950
O3	O	1.175467	0.102222	0.125694
O4	O	1.675467	0.602222	0.625694
O5	O	1.349765	0.102208	-0.001166
O6	O	1.849765	0.602208	0.498834
O7	O	1.331613	0.102209	0.240810
O8	O	1.831613	0.602209	0.740810
O9	O	1.349749	-0.102436	-0.001162
O10	O	1.849749	0.397564	0.498838
O11	O	1.175452	-0.102422	0.125698
O12	O	1.675452	0.397578	0.625698
O13	O	1.505895	-0.102450	0.113954
O14	O	2.005895	0.397550	0.613954
Zn15	Zn	1.340671	-0.134928	0.119827
Zn16	Zn	1.840671	0.365072	0.619827
Zn17	Zn	1.340692	0.134700	0.119821
Zn18	Zn	1.840692	0.634700	0.619821
O19	O	1.331598	-0.102436	0.240814
O20	O	1.831598	0.397564	0.740814
C21	C	1.133175	-0.000096	0.124959
C22	C	1.633175	0.499904	0.624959
C23	C	1.007181	-0.000085	0.122750
C24	C	1.507181	0.499915	0.622750
N25	N	1.340665	-0.318942	0.119830
N26	N	1.840665	0.181058	0.619830
C27	C	0.776504	-0.000121	0.118690
C28	C	1.276504	0.499879	0.618690
C29	C	0.904869	-0.000101	0.120946
C30	C	1.404869	0.499899	0.620946
C31	C	1.340674	-0.430280	0.119830
C32	C	1.840674	0.069720	0.619830
C33	C	1.340689	-0.569957	0.119823
C34	C	1.840689	-0.069957	0.619823
C35	C	1.548188	-0.000129	0.114690
C36	C	2.048188	0.499871	0.614690
C37	C	1.674182	-0.000132	0.116898
C38	C	2.174182	0.499868	0.616898
C39	C	1.349022	-0.000111	-0.032142
C40	C	1.849022	0.499889	0.467858
C41	C	1.346815	-0.000103	-0.124448
C42	C	1.846815	0.499897	0.375552
N43	N	1.340707	0.318714	0.119812
N44	N	1.840707	0.818714	0.619812
C45	C	1.341727	0.111445	-0.336811
C46	C	1.841727	0.611445	0.163189
C47	C	1.339644	0.111444	-0.423541
C48	C	1.839644	0.611444	0.076459
C49	C	1.339632	-0.111671	-0.423534
C50	C	1.839632	0.388329	0.076466
C51	C	1.341707	-0.111668	-0.336805
C52	C	1.841707	0.388332	0.163195
C53	C	1.342761	-0.000107	-0.293446
C54	C	1.842761	0.499893	0.206554
C55	C	1.338602	-0.000110	-0.466905
C56	C	1.838602	0.499890	0.033095
C57	C	1.336343	-0.000112	-0.560942
C58	C	1.836343	0.499888	-0.060942
C59	C	1.345017	-0.000104	-0.199404
C60	C	1.845017	0.499896	0.300596
C61	C	1.332341	-0.000114	0.271791
C62	C	1.832341	0.499886	0.771791
C63	C	1.334547	-0.000114	0.364096
C64	C	1.834547	0.499886	0.864096
H65	H	1.342581	0.202286	-0.301511
H66	H	1.842581	0.702286	0.198489
Br67	Br	1.338200	-0.263068	-0.482382
Br68	Br	1.838200	0.236932	0.017618
Br69	Br	1.343091	-0.263072	-0.277945
Br70	Br	1.843091	0.236928	0.222055
H71	H	1.338800	0.202281	-0.458845
H72	H	1.838800	0.702281	0.041155
