data_functionalizedCrystal
_audit_creation_method	'MofGen! by Chris Wilmer'
_symmetry_space_group_name_H-M	'P1'
_symmetry_Int_Tables_number	1
_symmetry_cell_setting	triclinic
loop_
_symmetry_equiv_pos_as_xyz
  x,y,z
_cell_length_a	17.699077
_cell_length_b	17.699083
_cell_length_c	18.366186
_cell_angle_alpha	89.992864
_cell_angle_beta	89.991511
_cell_angle_gamma	83.281795
loop_
_atom_site_label
_atom_site_type_symbol
_atom_site_fract_x
_atom_site_fract_y
_atom_site_fract_z
O1	O	1.004084	0.095691	-0.060541
O2	O	1.504084	0.595691	0.439459
O3	O	0.783705	0.108148	-0.060545
O4	O	1.283705	0.608148	0.439455
O5	O	0.900120	-0.008270	-0.060537
O6	O	1.400120	0.491730	0.439463
O7	O	0.887668	0.212109	-0.060550
O8	O	1.387668	0.712109	0.439450
O9	O	0.900101	-0.008276	0.060563
O10	O	1.400101	0.491724	0.560563
O11	O	0.783685	0.108142	0.060554
O12	O	1.283685	0.608142	0.560554
O13	O	1.004064	0.095685	0.060558
O14	O	1.504064	0.595685	0.560558
Zn15	Zn	0.893871	0.101913	0.079783
Zn16	Zn	1.393871	0.601913	0.579783
Zn17	Zn	0.893897	0.101920	-0.079770
Zn18	Zn	1.393897	0.601920	0.420230
O19	O	0.887648	0.212103	0.060550
O20	O	1.387648	0.712103	0.560550
C21	C	0.755498	0.107700	0.000004
C22	C	1.255498	0.607700	0.500004
C23	C	0.671479	0.106363	0.000003
C24	C	1.171479	0.606363	0.500003
C25	C	0.632001	0.105730	0.066015
C26	C	1.132001	0.605730	0.566015
C27	C	0.553059	0.104462	0.066016
C28	C	1.053059	0.604462	0.566016
C29	C	0.513595	0.103832	0.000004
C30	C	1.013595	0.603832	0.500004
C31	C	0.553079	0.104463	-0.066013
C32	C	1.053079	0.604463	0.433987
C33	C	0.632021	0.105725	-0.066013
C34	C	1.132021	0.605725	0.433987
C35	C	0.234716	0.099369	-0.066014
C36	C	0.734716	0.599369	0.433986
C37	C	0.155768	0.098109	-0.066009
C38	C	0.655768	0.598109	0.433991
C39	C	0.155753	0.098105	0.066015
C40	C	0.655753	0.598105	0.566015
C41	C	0.234695	0.099368	0.066015
C42	C	0.734695	0.599368	0.566015
C43	C	0.274173	0.099995	-0.000002
C44	C	0.774173	0.599995	0.499998
C45	C	0.359772	0.101369	-0.000002
C46	C	0.859772	0.601369	0.499998
C47	C	0.427997	0.102464	0.000003
C48	C	0.927997	0.602464	0.500003
C49	C	0.899664	-0.036470	0.000013
C50	C	1.399664	0.463530	0.500013
C51	C	0.898326	-0.120488	0.000013
C52	C	1.398326	0.379512	0.500013
C53	C	0.966659	-0.169110	0.000015
C54	C	1.466659	0.330890	0.500015
C55	C	0.965397	-0.248054	0.000009
C56	C	1.465397	0.251946	0.500009
C57	C	0.895800	-0.278373	0.000006
C58	C	1.395800	0.221627	0.500006
C59	C	0.827461	-0.229744	0.000001
C60	C	1.327461	0.270256	0.500001
C61	C	0.828724	-0.150803	0.000002
C62	C	1.328724	0.349197	0.500002
C63	C	0.822366	-0.548107	-0.000005
C64	C	1.322366	-0.048107	0.499995
C65	C	0.821108	-0.627055	-0.000004
C66	C	1.321108	-0.127055	0.499996
C67	C	0.959039	-0.645358	0.000002
C68	C	1.459039	-0.145358	0.500002
C69	C	0.960302	-0.566417	0.000003
C70	C	1.460302	-0.066417	0.500003
C71	C	0.891963	-0.517795	-0.000005
C72	C	1.391963	-0.017795	0.499995
C73	C	0.893333	-0.432196	0.000000
C74	C	1.393333	0.067804	0.500000
C75	C	0.894430	-0.363971	0.000005
C76	C	1.394430	0.136029	0.500005
C77	C	1.032271	0.096133	0.000007
C78	C	1.532271	0.596133	0.500007
C79	C	1.116289	0.097470	0.000004
C80	C	1.616289	0.597470	0.500004
C81	C	0.888104	0.240303	-0.000002
C82	C	1.388104	0.740303	0.499998
C83	C	0.889443	0.324321	-0.000007
C84	C	1.389443	0.824321	0.499993
N85	N	0.893859	0.101907	0.188674
N86	N	1.393859	0.601907	0.688674
N87	N	0.893915	0.101920	-0.188662
N88	N	1.393915	0.601920	0.311338
C89	C	0.945425	0.050383	0.226778
C90	C	1.445425	0.550383	0.726778
C91	C	0.945429	0.050379	0.303006
C92	C	1.445429	0.550379	0.803006
C93	C	0.893876	0.101913	0.341127
C94	C	1.393876	0.601913	0.841127
C95	C	0.842300	0.153442	0.303014
C96	C	1.342300	0.653442	0.803014
C97	C	0.842292	0.153439	0.226787
C98	C	1.342292	0.653439	0.726787
C99	C	0.883833	0.170863	0.461883
C100	C	1.383833	0.670863	0.961883
C101	C	0.883846	0.170867	0.538108
C102	C	1.383846	0.670867	1.038108
C103	C	0.893897	0.101923	0.576235
C104	C	1.393897	0.601923	1.076235
C105	C	0.903950	0.032972	0.538127
C106	C	1.403950	0.532972	1.038127
C107	C	0.903942	0.032969	0.461900
C108	C	1.403942	0.532969	0.961900
C109	C	0.893879	0.101922	0.423782
C110	C	1.393879	0.601922	0.923782
C111	C	0.945471	0.050390	0.696994
C112	C	1.445471	0.550390	1.196994
C113	C	0.945471	0.050386	0.773223
C114	C	1.445471	0.550386	1.273223
C115	C	0.842345	0.153455	0.773229
C116	C	1.342345	0.653455	1.273229
C117	C	0.842342	0.153453	0.697001
C118	C	1.342342	0.653453	1.197001
C119	C	0.893909	0.101921	0.658888
C120	C	1.393909	0.601921	1.158888
H121	H	0.664126	0.106249	0.119770
H122	H	1.164126	0.606249	0.619770
H123	H	0.520921	0.103933	0.119769
H124	H	1.020921	0.603933	0.619769
C125	C	0.753558	-0.097318	0.000002
C126	C	1.253558	0.402682	0.500002
H127	H	0.711927	-0.126680	0.000006
H128	H	1.211927	0.373320	0.500006
H129	H	0.751191	-0.066137	-0.042228
H130	H	1.251191	0.433863	0.457772
H131	H	0.751176	-0.066148	0.042237
H132	H	1.251176	0.433852	0.542237
H133	H	1.021041	-0.287639	0.000012
H134	H	1.521041	0.212361	0.500012
C135	C	0.509673	0.103782	-0.138627
C136	C	1.009673	0.603782	0.361373
H137	H	0.544494	0.104337	-0.177942
H138	H	1.044494	0.604337	0.322058
H139	H	0.473027	0.147413	-0.141368
H140	H	0.973027	0.647413	0.358632
H141	H	0.484730	0.059169	-0.141375
H142	H	0.984730	0.559169	0.358625
H143	H	0.123639	0.097595	-0.119767
H144	H	0.623639	0.597595	0.380233
C145	C	0.112331	0.097409	0.138635
C146	C	0.612331	0.597409	0.638635
H147	H	0.147140	0.097974	0.177948
H148	H	0.647140	0.597974	0.677948
H149	H	0.087391	0.052797	0.141388
H150	H	0.587391	0.552797	0.641388
H151	H	0.075679	0.141041	0.141374
H152	H	0.575679	0.641041	0.641374
C153	C	1.002138	-0.006308	0.184858
C154	C	1.502138	0.493692	0.684858
H155	H	1.032845	-0.036999	0.218474
H156	H	1.532845	0.463001	0.718474
H157	H	1.033588	0.020874	0.155106
H158	H	1.533588	0.520874	0.655106
H159	H	0.974963	-0.037785	0.155138
H160	H	1.474963	0.462215	0.655138
C161	C	0.278102	0.100056	0.138627
C162	C	0.778102	0.600056	0.638627
H163	H	0.243284	0.099490	0.177943
H164	H	0.743284	0.599490	0.677943
H165	H	0.303044	0.144666	0.141372
H166	H	0.803044	0.644666	0.641372
H167	H	0.314750	0.056422	0.141369
H168	H	0.814750	0.556422	0.641369
C169	C	0.278130	0.100067	-0.138630
C170	C	0.778130	0.600067	0.361370
H171	H	0.243317	0.099521	-0.177942
H172	H	0.743317	0.599521	0.322058
H173	H	0.314782	0.056441	-0.141376
H174	H	0.814782	0.556441	0.358624
H175	H	0.303068	0.144685	-0.141377
H176	H	0.803068	0.644685	0.358623
C177	C	0.872771	0.246704	0.419948
C178	C	1.372771	0.746704	0.919948
H179	H	0.874197	0.236828	0.369093
H180	H	1.374197	0.736828	0.869093
H181	H	0.912295	0.276314	0.432423
H182	H	1.412295	0.776314	0.932423
H183	H	0.824983	0.273750	0.432449
H184	H	1.324983	0.773750	0.932449
H185	H	0.987458	0.008428	0.665961
H186	H	1.487458	0.508428	1.165961
H187	H	0.766721	-0.508528	-0.000011
H188	H	1.266721	-0.008528	0.499989
H189	H	0.664163	0.106242	-0.119767
H190	H	1.164163	0.606242	0.380233
H191	H	0.800323	0.195401	0.334056
H192	H	1.300323	0.695401	0.834056
C193	C	0.750905	-0.263090	-0.000008
C194	C	1.250905	0.236910	0.499992
H195	H	0.710388	-0.222823	-0.000017
H196	H	1.210388	0.277177	0.499983
H197	H	0.747533	-0.293511	0.042220
H198	H	1.247533	0.206489	0.542220
H199	H	0.747557	-0.293497	-0.042246
H200	H	1.247557	0.206503	0.457754
H201	H	0.912134	-0.023169	0.569168
H202	H	1.412134	0.476831	1.069168
H203	H	0.987459	0.008424	0.804248
H204	H	1.487459	0.508424	1.304248
C205	C	1.036857	-0.533069	0.000004
C206	C	1.536857	-0.033069	0.500004
H207	H	1.077375	-0.573334	-0.000003
H208	H	1.577375	-0.073334	0.499997
H209	H	1.040213	-0.502658	0.042232
H210	H	1.540213	-0.002658	0.542232
H211	H	1.040220	-0.502652	-0.042233
H212	H	1.540220	-0.002652	0.457767
C213	C	0.785635	0.210144	0.815149
C214	C	1.285635	0.710144	1.315149
H215	H	0.754921	0.240829	0.781535
H216	H	1.254921	0.740829	1.281535
H217	H	0.812802	0.241616	0.844875
H218	H	1.312802	0.741616	1.344875
H219	H	0.754182	0.182953	0.844895
H220	H	1.254182	0.682953	1.344895
H221	H	0.800355	0.195412	0.665975
H222	H	1.300355	0.695412	1.165975
C223	C	1.034211	-0.698844	-0.000001
C224	C	1.534211	-0.198844	0.499999
H225	H	1.023495	-0.750202	-0.000011
H226	H	1.523495	-0.250202	0.499989
H227	H	1.062748	-0.689675	0.042230
H228	H	1.562748	-0.189675	0.542230
H229	H	1.062759	-0.689658	-0.042235
H230	H	1.562759	-0.189658	0.457765
H231	H	0.912126	-0.023173	0.430876
H232	H	1.412126	0.476827	0.930876
H233	H	0.800300	0.195397	0.195762
H234	H	1.300300	0.695397	0.695762
C235	C	0.872794	0.246708	0.580020
C236	C	1.372794	0.746708	1.080020
H237	H	0.866794	0.287768	0.546398
H238	H	1.366794	0.787768	1.046398
H239	H	0.916034	0.250857	0.609742
H240	H	1.416034	0.750857	1.109742
H241	H	0.828722	0.248295	0.609768
H242	H	1.328722	0.748295	1.109768
C243	C	1.043217	-0.135766	0.000019
C244	C	1.543217	0.364234	0.500019
H245	H	1.083732	-0.176033	0.000013
H246	H	1.583732	0.323967	0.500013
H247	H	1.046572	-0.105356	0.042249
H248	H	1.546572	0.394644	0.542249
H249	H	1.046582	-0.105347	-0.042216
H250	H	1.546582	0.394653	0.457784
H251	H	0.764431	-0.651737	-0.000005
H252	H	1.264431	-0.151737	0.499995
C253	C	1.002155	-0.006299	0.344930
C254	C	1.502155	0.493701	0.844930
H255	H	1.032867	-0.036986	0.311313
H256	H	1.532867	0.463014	0.811313
H257	H	0.974996	-0.037770	0.374680
H258	H	1.474996	0.462230	0.874680
H259	H	1.033610	0.020900	0.374651
H260	H	1.533610	0.520900	0.874651
