data_functionalizedCrystal
_audit_creation_method	'MofGen! by Chris Wilmer'
_symmetry_space_group_name_H-M	'P1'
_symmetry_Int_Tables_number	1
_symmetry_cell_setting	triclinic
loop_
_symmetry_equiv_pos_as_xyz
  x,y,z
_cell_length_a	14.044220
_cell_length_b	15.538191
_cell_length_c	14.185569
_cell_angle_alpha	82.124202
_cell_angle_beta	75.620253
_cell_angle_gamma	109.769514
loop_
_atom_site_label
_atom_site_type_symbol
_atom_site_fract_x
_atom_site_fract_y
_atom_site_fract_z
O1	O	-0.271175	-1.205756	-0.083422
O2	O	-0.164802	-0.940435	-0.083425
O3	O	-0.354606	-1.069115	-0.083414
O4	O	-0.081371	-1.077076	-0.083433
O5	O	-0.410672	-1.107129	0.083424
O6	O	-0.220867	-0.978449	0.083413
O7	O	-0.327240	-1.243770	0.083415
Cu8	Cu	-0.279173	-1.114580	0.098648
Cu9	Cu	-0.212869	-1.069625	-0.098657
O10	O	-0.137436	-1.115089	0.083404
C11	C	-0.416754	-1.084636	0.000006
C12	C	-0.518402	-1.074236	0.000007
C13	C	-0.181705	-0.925281	-0.000006
C14	C	-0.148554	-0.823493	-0.000006
C15	C	-0.310336	-1.258923	-0.000005
C16	C	-0.343485	-1.360709	-0.000012
C17	C	-0.704517	-1.055220	-0.000008
C18	C	-0.787527	-1.128978	-0.000010
C19	C	-0.891087	-1.118398	-0.000018
C20	C	-0.600946	-1.065800	0.000000
C21	C	-0.075288	-1.099568	-0.000017
C22	C	0.026363	-1.109966	-0.000025
N23	N	-0.325810	-1.146206	0.237422
C24	C	-0.477901	-0.508030	0.000002
C25	C	-0.446726	-0.412383	-0.000001
C26	C	-0.271379	-0.404671	-0.000014
C27	C	-0.302540	-0.500321	-0.000006
C28	C	-0.405802	-0.551993	0.000001
C29	C	-0.230442	-0.544283	-0.000007
C30	C	-0.261599	-0.639923	-0.000004
C31	C	-0.364855	-0.691600	-0.000001
C32	C	-0.436960	-0.647632	0.000003
C33	C	-0.127178	-0.492608	-0.000020
C34	C	-0.055080	-0.536570	-0.000021
C35	C	-0.086239	-0.632213	-0.000012
C36	C	-0.189495	-0.683891	-0.000008
C37	C	-0.014135	-0.676181	-0.000016
C38	C	-0.045293	-0.771821	-0.000013
C39	C	-0.220653	-0.779531	-0.000005
N40	N	-0.166242	-1.038005	-0.237431
C41	C	-0.029261	-0.945085	0.605054
C42	C	-0.064584	-0.969048	0.710078
C43	C	-0.232618	-1.083023	0.710049
C44	C	-0.197311	-1.059066	0.605023
C45	C	-0.095631	-0.990097	0.552534
C46	C	-0.263681	-1.104079	0.552503
C47	C	-0.228374	-1.080128	0.447486
C48	C	-0.126697	-1.011163	0.394990
C49	C	-0.060324	-0.966146	0.447518
C50	C	-0.365358	-1.173053	0.604994
C51	C	-0.431728	-1.218065	0.552473
C52	C	-0.396424	-1.194109	0.447455
C53	C	-0.294747	-1.125145	0.394959
C54	C	-0.462797	-1.239127	0.394927
C55	C	-0.427490	-1.215175	0.289911
C56	C	-0.259440	-1.101193	0.289942
H57	H	-0.780793	-1.200055	-0.000077
C58	C	-0.500498	-1.264686	0.232133
C59	C	-0.534394	-1.206530	0.159944
C60	C	-0.607402	-1.256046	0.102167
C61	C	-0.646515	-1.363718	0.116579
C62	C	-0.612619	-1.421881	0.188771
C63	C	-0.539611	-1.372365	0.246548
H64	H	-0.505440	-1.126818	0.149272
H65	H	-0.632494	-1.212989	0.048725
H66	H	-0.700560	-1.400373	0.073809
H67	H	-0.641572	-1.501592	0.199443
H68	H	-0.514519	-1.415421	0.299990
H69	H	-0.711228	-0.984133	-0.000011
H70	H	-0.304741	-0.821607	0.000006
H71	H	-0.545582	-1.295289	0.437677
H72	H	-0.390217	-0.769473	-0.000012
C73	C	-0.550551	-0.704486	0.000019
C74	C	-0.647715	-0.714263	0.086663
C75	C	-0.761301	-0.771118	0.086679
C76	C	-0.777722	-0.818195	0.000051
C77	C	-0.680555	-0.808420	-0.086599
C78	C	-0.566970	-0.751565	-0.086615
H79	H	-0.635562	-0.679412	0.150796
H80	H	-0.833230	-0.778354	0.150823
H81	H	-0.861805	-0.860283	0.000063
H82	H	-0.692709	-0.843271	-0.150732
H83	H	-0.495040	-0.744329	-0.150760
H84	H	-0.514515	-1.274224	0.595222
H85	H	-0.561989	-0.550106	0.000013
H86	H	-0.505445	-0.376593	-0.000002
H87	H	-0.187302	-0.362586	-0.000023
H88	H	0.028997	-0.494485	-0.000031
C89	C	0.099450	-0.619333	-0.000029
C90	C	0.174093	-0.532789	-0.086673
C91	C	0.287680	-0.475941	-0.086687
C92	C	0.326624	-0.505638	-0.000058
C93	C	0.251980	-0.592187	0.086592
C94	C	0.138393	-0.649034	0.086607
H95	H	0.145266	-0.510801	-0.150807
H96	H	0.342936	-0.411871	-0.150832
H97	H	0.410708	-0.463555	-0.000069
H98	H	0.280807	-0.614174	0.150726
H99	H	0.083137	-0.713104	0.150751
H100	H	-0.101812	-0.414731	-0.000026
C101	C	-0.087855	-0.984812	0.279470
C102	C	-0.149709	-0.945616	0.221716
C103	C	-0.110867	-0.919265	0.106197
C104	C	-0.010172	-0.932110	0.048432
C105	C	0.051687	-0.971307	0.106185
C106	C	0.012846	-0.997659	0.221705
H107	H	-0.224255	-0.936106	0.264477
H108	H	-0.156661	-0.890248	0.063444
H109	H	0.018580	-0.912603	-0.037083
H110	H	0.126233	-0.980818	0.063424
H111	H	0.058639	-1.026675	0.264458
H112	H	0.022469	-0.909977	0.404779
H113	H	0.013414	-0.807618	-0.000005
C114	C	0.008432	-0.919524	0.767848
C115	C	0.042339	-0.977676	0.840031
C116	C	0.115355	-0.928155	0.897799
C117	C	0.154465	-0.820482	0.883384
C118	C	0.120559	-0.762324	0.811198
C119	C	0.047542	-0.811845	0.753430
H120	H	0.013387	-1.057387	0.850704
H121	H	0.140455	-0.971208	0.951236
H122	H	0.208516	-0.783823	0.926147
H123	H	0.149510	-0.682612	0.800524
H124	H	0.022443	-0.768792	0.699993
H125	H	-0.176647	-1.045025	0.247203
H126	H	0.053533	-0.888916	0.562316
H127	H	-0.315406	-1.139181	0.752797
H128	H	-0.394098	-1.192555	0.690505
