data_functionalizedCrystal
_audit_creation_method	'MofGen! by Chris Wilmer'
_symmetry_space_group_name_H-M	'P1'
_symmetry_Int_Tables_number	1
_symmetry_cell_setting	triclinic
loop_
_symmetry_equiv_pos_as_xyz
  x,y,z
_cell_length_a	12.759400
_cell_length_b	12.759401
_cell_length_c	18.215399
_cell_angle_alpha	90.016498
_cell_angle_beta	90.024546
_cell_angle_gamma	90.014845
loop_
_atom_site_label
_atom_site_type_symbol
_atom_site_fract_x
_atom_site_fract_y
_atom_site_fract_z
Zn1	Zn	-0.418273	1.606235	0.416068
Zn2	Zn	-0.593970	1.606135	0.293009
Zn3	Zn	-0.418306	1.430543	0.293022
Zn4	Zn	-0.593911	1.430525	0.416041
O5	O	-0.506115	1.518360	0.354535
O6	O	-0.441590	1.753243	0.399749
O7	O	-0.570707	1.582808	0.190026
O8	O	-0.271281	1.453898	0.309361
O9	O	-0.570674	1.753169	0.309338
O10	O	-0.271256	1.582978	0.399762
O11	O	-0.441647	1.453801	0.190036
O12	O	-0.441590	1.283520	0.309335
O13	O	-0.570573	1.453868	0.519029
O14	O	-0.570605	1.283507	0.399717
O15	O	-0.441532	1.582961	0.519049
O16	O	-0.740983	1.582791	0.309312
O17	O	-0.740939	1.453772	0.399704
C18	C	-0.506095	1.245392	0.354525
C19	C	-0.506112	1.128616	0.354538
C20	C	-0.573399	1.073774	0.401522
C21	C	-0.573412	0.964050	0.401530
C22	C	-0.438850	0.964018	0.307564
C23	C	-0.438832	1.073740	0.307560
C24	C	-0.640679	1.128650	0.448500
C25	C	-0.707971	1.073808	0.495486
C26	C	-0.707984	0.964084	0.495494
C27	C	-0.640705	0.909201	0.448516
C28	C	-0.779082	1.518297	0.354520
C29	C	-0.895859	1.518367	0.354538
C30	C	-0.950709	1.585622	0.307523
C31	C	-1.060433	1.585686	0.307546
C32	C	-1.060447	1.451232	0.401600
C33	C	-0.950725	1.451173	0.401580
C34	C	-0.895842	1.652815	0.260480
C35	C	-0.950692	1.720075	0.213461
C36	C	-1.060416	1.720140	0.213484
C37	C	-1.115290	1.652944	0.260526
C38	C	-0.232081	1.518451	0.354566
C39	C	-0.115305	1.518490	0.354580
C40	C	-0.506042	1.518424	0.546488
C41	C	-0.506012	1.518451	0.628287
C42	C	-0.506135	1.792393	0.354545
C43	C	-0.506144	1.909169	0.354550
C44	C	-0.506111	1.518356	0.163329
C45	C	-0.505846	1.518533	0.081530
C46	C	-0.438757	1.585694	0.816492
C47	C	-0.438727	1.585706	0.893351
C48	C	-0.573103	1.451282	0.893319
C49	C	-0.573128	1.451265	0.816462
C50	C	-0.505956	1.518477	0.778050
C51	C	-0.505901	1.518506	0.931767
C52	C	-0.505869	1.518520	1.015100
C53	C	-0.505987	1.518463	0.694711
H54	H	-0.762770	0.919435	0.533759
H55	H	-0.384059	1.640419	0.785220
H56	H	-1.105072	1.774913	0.175204
H57	H	-0.384005	1.640439	0.924647
H58	H	-0.806499	1.652767	0.260455
H59	H	-1.105135	1.396524	0.439898
H60	H	-0.906008	1.774790	0.175166
H61	H	-0.640713	0.819857	0.448532
H62	H	-1.204635	1.653011	0.260546
H63	H	-0.384076	0.919324	0.269316
H64	H	-0.906066	1.396409	0.439865
H65	H	-0.627794	1.396563	0.924603
H66	H	-0.627848	1.396522	0.785162
H67	H	-0.640677	1.217992	0.448497
H68	H	-0.762741	1.118501	0.533739
H69	H	-0.384034	1.118393	0.269308
