data_functionalizedCrystal
_audit_creation_method	'MofGen! by Chris Wilmer'
_symmetry_space_group_name_H-M	'P1'
_symmetry_Int_Tables_number	1
_symmetry_cell_setting	triclinic
loop_
_symmetry_equiv_pos_as_xyz
  x,y,z
_cell_length_a	15.297475
_cell_length_b	15.298852
_cell_length_c	15.298259
_cell_angle_alpha	72.616916
_cell_angle_beta	88.370891
_cell_angle_gamma	69.212110
loop_
_atom_site_label
_atom_site_type_symbol
_atom_site_fract_x
_atom_site_fract_y
_atom_site_fract_z
Zn1	Zn	1.347877	-0.478441	-0.660244
Zn2	Zn	1.410944	-0.670209	-0.487120
Zn3	Zn	1.228567	-0.487758	-0.487174
Zn4	Zn	1.228549	-0.616274	-0.615749
O5	O	1.303984	-0.563170	-0.562572
O6	O	1.482507	-0.522553	-0.655877
O7	O	1.413153	-0.672478	-0.360866
O8	O	1.218008	-0.352482	-0.528776
O9	O	1.528842	-0.663444	-0.528684
O10	O	1.305664	-0.345637	-0.655930
O11	O	1.279161	-0.538431	-0.360905
O12	O	1.102301	-0.486133	-0.485631
O13	O	1.217976	-0.571519	-0.747913
O14	O	1.102287	-0.580553	-0.580095
O15	O	1.305646	-0.470254	-0.780603
O16	O	1.413135	-0.797094	-0.485539
O17	O	1.279130	-0.757468	-0.580042
C18	C	1.069555	-0.528501	-0.528041
C19	C	0.969265	-0.513689	-0.513287
C20	C	0.686788	-0.669047	-0.668024
C21	C	0.781018	-0.682972	-0.681883
C22	C	0.828084	-0.640652	-0.639736
C23	C	0.780912	-0.584405	-0.583726
C24	C	0.686676	-0.570485	-0.569860
C25	C	0.827972	-0.542090	-0.541571
C26	C	0.780800	-0.485843	-0.485562
C27	C	0.686573	-0.471925	-0.471699
C28	C	0.639506	-0.514245	-0.513846
C29	C	0.922208	-0.556010	-0.555437
C30	C	0.922095	-0.457449	-0.457273
C31	C	0.827866	-0.443524	-0.443414
C32	C	1.352994	-0.812036	-0.527980
C33	C	1.374037	-0.918507	-0.513224
C34	C	1.154159	-1.136253	-0.668211
C35	C	1.134389	-1.036217	-0.682082
C36	C	1.194299	-1.006784	-0.639868
C37	C	1.273983	-1.077399	-0.583782
C38	C	1.293759	-1.177444	-0.569915
C39	C	1.333899	-1.047975	-0.541573
C40	C	1.413583	-1.118590	-0.485486
C41	C	1.433355	-1.218625	-0.471622
C42	C	1.373445	-1.248058	-0.513835
C43	C	1.314123	-0.947930	-0.555439
C44	C	1.453723	-0.989121	-0.457144
C45	C	1.473494	-1.089157	-0.443273
C46	C	1.539329	-0.597975	-0.597238
C47	C	1.639619	-0.612807	-0.612011
C48	C	1.254774	-0.513831	-0.797912
C49	C	1.233804	-0.492805	-0.898200
C50	C	1.254803	-0.313333	-0.597322
C51	C	1.233845	-0.206867	-0.612131
C52	C	1.453746	-0.712710	-1.180804
C53	C	1.473445	-0.732470	-1.086577
C54	C	1.413537	-0.672555	-1.039478
C55	C	1.333925	-0.592878	-1.086616
C56	C	1.314220	-0.573120	-1.180851
C57	C	1.274011	-0.532966	-1.039525
C58	C	1.194400	-0.453288	-1.086662
C59	C	1.174699	-0.433534	-1.180888
C60	C	1.234607	-0.493448	-1.227986
C61	C	1.293716	-0.552723	-0.945290
C62	C	1.154190	-0.413133	-0.945336
C63	C	1.134491	-0.393373	-1.039563
C64	C	1.353041	-0.612257	-0.328164
C65	C	1.374133	-0.633038	-0.227940
H66	H	0.789446	-0.397727	-0.397810
H67	H	0.819419	-0.728771	-0.727484
H68	H	0.648461	-0.703504	-0.702329
H69	H	1.538258	-0.797352	-1.048202
H70	H	1.498245	-1.276118	-0.425960
O71	O	1.097263	-0.356190	-1.226546
C72	C	0.928597	-0.280983	-1.239257
C73	C	1.016216	-0.368617	-1.187463
H74	H	0.863047	-0.291010	-1.207691
H75	H	0.933040	-0.209952	-1.233779
H76	H	0.924841	-0.277140	-1.314701
H77	H	1.020027	-0.372553	-1.112001
H78	H	1.011737	-0.439605	-1.193017
H79	H	1.358541	-0.617593	-0.906921
O80	O	0.967933	-0.416368	-0.416428
C81	C	1.113072	-0.394183	-0.394240
C82	C	1.061259	-0.440735	-0.440567
H83	H	1.188540	-0.413884	-0.413723
H84	H	1.076061	-0.310877	-0.418223
H85	H	1.112982	-0.423383	-0.316414
H86	H	1.061333	-0.411612	-0.518399
H87	H	1.098287	-0.524037	-0.416511
H88	H	1.105408	-0.364346	-0.906988
O89	O	1.432833	-0.691856	-0.947956
C90	C	1.537635	-0.796833	-0.812699
C91	C	1.515897	-0.775073	-0.916354
H92	H	1.604781	-0.864127	-0.787112
H93	H	1.547181	-0.730837	-0.800149
H94	H	1.476985	-0.811682	-0.774082
H95	H	1.576517	-0.760246	-0.955038
H96	H	1.506315	-0.841083	-0.928834
O97	O	1.511853	-0.770785	-1.226701
C98	C	1.543281	-0.802253	-1.371838
C99	C	1.477406	-0.736382	-1.319978
H100	H	1.515445	-0.774475	-1.447257
H101	H	1.616610	-0.800074	-1.366446
H102	H	1.546525	-0.881029	-1.340179
H103	H	1.474082	-0.657577	-1.351599
H104	H	1.404111	-0.738645	-1.325365
H105	H	1.218574	-0.477362	-1.304715
H106	H	1.069671	-0.328499	-1.077955
H107	H	0.960606	-0.601807	-0.601041
H108	H	0.562776	-0.502908	-0.502568
H109	H	0.904810	-0.651993	-0.651023
H110	H	0.648172	-0.426137	-0.426082
O111	O	1.236761	-0.879427	-0.610032
C112	C	1.154735	-0.810103	-0.761268
C113	C	1.242389	-0.887744	-0.699535
H114	H	1.159265	-0.816788	-0.833649
H115	H	1.089193	-0.822430	-0.731985
H116	H	1.150885	-0.733558	-0.763881
H117	H	1.246329	-0.964322	-0.696897
H118	H	1.307888	-0.875332	-0.728841
O119	O	1.174964	-0.909607	-0.653232
C120	C	1.064948	-0.758217	-0.637177
C121	C	1.086745	-0.868269	-0.621975
H122	H	0.993615	-0.724758	-0.611931
H123	H	1.121395	-0.749258	-0.597339
H124	H	1.063677	-0.719145	-0.713587
H125	H	1.088001	-0.907411	-0.545588
H126	H	1.030293	-0.877155	-0.661873
H127	H	1.105392	-1.160228	-0.702580
O128	O	1.056922	-0.967757	-0.736546
C129	C	0.920567	-0.937463	-0.832607
C130	C	1.008262	-1.015099	-0.770934
H131	H	0.881211	-0.975708	-0.860443
H132	H	0.872784	-0.892424	-0.790708
H133	H	0.942824	-0.886769	-0.892384
H134	H	0.986090	-1.065858	-0.711148
H135	H	1.056023	-1.060067	-0.812898
O136	O	1.392769	-1.345278	-0.500235
C137	C	1.497772	-1.511439	-0.426452
C138	C	1.475990	-1.401372	-0.441756
H139	H	1.565067	-1.556821	-0.379188
H140	H	1.437272	-1.532349	-0.393551
H141	H	1.507133	-1.526626	-0.495352
H142	H	1.466647	-1.386104	-0.372895
H143	H	1.536501	-1.380518	-0.474700
H144	H	1.538374	-1.146665	-0.397607
O145	O	1.512045	-0.960709	-0.416094
C146	C	1.652565	-1.012117	-0.317093
C147	C	1.586612	-1.044436	-0.363535
H148	H	1.712857	-1.079792	-0.274573
H149	H	1.681845	-0.963538	-0.371962
H150	H	1.611773	-0.969082	-0.270308
H151	H	1.627339	-1.087509	-0.410314
H152	H	1.557330	-1.092965	-0.308618
