data_functionalizedCrystal
_audit_creation_method	'MofGen! by Chris Wilmer'
_symmetry_space_group_name_H-M	'P1'
_symmetry_Int_Tables_number	1
_symmetry_cell_setting	triclinic
loop_
_symmetry_equiv_pos_as_xyz
  x,y,z
_cell_length_a	17.000371
_cell_length_b	17.038272
_cell_length_c	14.421503
_cell_angle_alpha	89.999401
_cell_angle_beta	89.993068
_cell_angle_gamma	83.355402
loop_
_atom_site_label
_atom_site_type_symbol
_atom_site_fract_x
_atom_site_fract_y
_atom_site_fract_z
O1	O	1.057988	0.028038	0.077116
O2	O	1.307988	0.278038	0.327116
O3	O	1.557988	0.528038	0.577116
O4	O	1.807988	0.778038	0.827116
O5	O	0.828168	0.056283	0.077117
O6	O	1.078168	0.306283	0.327117
O7	O	1.328168	0.556283	0.577117
O8	O	1.578168	0.806283	0.827117
O9	O	0.941712	-0.071562	0.077109
O10	O	1.191712	0.178438	0.327109
O11	O	1.441712	0.428438	0.577109
O12	O	1.691712	0.678438	0.827109
O13	O	0.944444	0.155882	0.077124
O14	O	1.194444	0.405882	0.327124
O15	O	1.444444	0.655882	0.577124
O16	O	1.694444	0.905882	0.827124
O17	O	0.941728	-0.071555	-0.077114
O18	O	1.191728	0.178445	0.172886
O19	O	1.441728	0.428445	0.422886
O20	O	1.691728	0.678445	0.672886
O21	O	0.828184	0.056289	-0.077106
O22	O	1.078184	0.306289	0.172894
O23	O	1.328184	0.556289	0.422894
O24	O	1.578184	0.806289	0.672894
O25	O	1.058004	0.028044	-0.077108
O26	O	1.308004	0.278044	0.172892
O27	O	1.558004	0.528044	0.422892
O28	O	1.808004	0.778044	0.672892
Cu29	Cu	0.943095	0.042167	-0.091189
Cu30	Cu	1.193095	0.292167	0.158811
Cu31	Cu	1.443095	0.542167	0.408811
Cu32	Cu	1.693095	0.792167	0.658811
Cu33	Cu	0.943077	0.042159	0.091198
Cu34	Cu	1.193077	0.292159	0.341198
Cu35	Cu	1.443077	0.542159	0.591198
Cu36	Cu	1.693077	0.792159	0.841198
O37	O	0.944460	0.155889	-0.077100
O38	O	1.194460	0.405889	0.172900
O39	O	1.444460	0.655889	0.422900
O40	O	1.694460	0.905889	0.672900
C41	C	0.798625	0.057803	0.000006
C42	C	1.048625	0.307803	0.250006
C43	C	1.298625	0.557803	0.500006
C44	C	1.548625	0.807803	0.750006
C45	C	0.710572	0.062314	0.000006
C46	C	0.960572	0.312314	0.250006
C47	C	1.210572	0.562314	0.500006
C48	C	1.460572	0.812314	0.750006
C49	C	0.673845	-0.007108	-0.000000
C50	C	0.923845	0.242892	0.250000
C51	C	1.173845	0.492892	0.500000
C52	C	1.423845	0.742892	0.750000
C53	C	0.591110	-0.002864	0.000007
C54	C	0.841110	0.247136	0.250007
C55	C	1.091110	0.497136	0.500007
C56	C	1.341110	0.747136	0.750007
C57	C	0.545102	0.070802	0.000013
C58	C	0.795102	0.320802	0.250013
C59	C	1.045102	0.570802	0.500013
C60	C	1.295102	0.820802	0.750013
C61	C	0.581834	0.140229	0.000022
C62	C	0.831834	0.390229	0.250022
C63	C	1.081834	0.640229	0.500022
C64	C	1.331834	0.890229	0.750022
C65	C	0.664568	0.135985	0.000022
C66	C	0.914568	0.385985	0.250022
C67	C	1.164568	0.635985	0.500022
C68	C	1.414568	0.885985	0.750022
C69	C	0.295066	0.087196	0.000020
C70	C	0.545066	0.337196	0.250020
C71	C	0.795066	0.587196	0.500020
C72	C	1.045066	0.837196	0.750020
C73	C	0.212327	0.091434	0.000018
C74	C	0.462327	0.341434	0.250018
C75	C	0.712327	0.591434	0.500018
C76	C	0.962327	0.841434	0.750018
C77	C	0.221608	-0.051659	0.000004
C78	C	0.471608	0.198341	0.250004
C79	C	0.721608	0.448341	0.500004
C80	C	0.971608	0.698341	0.750004
C81	C	0.304344	-0.055897	-0.000002
C82	C	0.554344	0.194103	0.249998
C83	C	0.804344	0.444103	0.499998
C84	C	1.054344	0.694103	0.749998
C85	C	0.341068	0.013530	0.000012
C86	C	0.591068	0.263530	0.250012
C87	C	0.841068	0.513530	0.500012
C88	C	1.091068	0.763530	0.750012
C89	C	0.460533	0.075141	0.000017
C90	C	0.710533	0.325141	0.250017
C91	C	0.960533	0.575141	0.500017
C92	C	1.210533	0.825141	0.750017
C93	C	0.425636	0.009190	0.000015
C94	C	0.675636	0.259190	0.250015
C95	C	0.925636	0.509190	0.500015
C96	C	1.175636	0.759190	0.750015
C97	C	0.939235	-0.100516	-0.000002
C98	C	1.189235	0.149484	0.249998
C99	C	1.439235	0.399484	0.499998
C100	C	1.689235	0.649484	0.749998
C101	C	0.931823	-0.186802	-0.000002
C102	C	1.181823	0.063198	0.249998
C103	C	1.431823	0.313198	0.499998
C104	C	1.681823	0.563198	0.749998
C105	C	0.999881	-0.241577	-0.000003
C106	C	1.249881	0.008423	0.249997
C107	C	1.499881	0.258423	0.499997
C108	C	1.749881	0.508423	0.749997
C109	C	0.992911	-0.322650	0.000005
C110	C	1.242911	-0.072650	0.250005
C111	C	1.492911	0.177350	0.500005
C112	C	1.742911	0.427350	0.750005
C113	C	0.917882	-0.348946	0.000009
C114	C	1.167882	-0.098946	0.250009
C115	C	1.417882	0.151054	0.500009
C116	C	1.667882	0.401054	0.750009
C117	C	0.849819	-0.294164	0.000013
C118	C	1.099819	-0.044164	0.250013
C119	C	1.349819	0.205836	0.500013
C120	C	1.599819	0.455836	0.750013
C121	C	0.856789	-0.213093	0.000011
C122	C	1.106789	0.036907	0.250011
C123	C	1.356789	0.286907	0.500011
C124	C	1.606789	0.536907	0.750011
C125	C	0.893256	-0.593018	0.000022
C126	C	1.143256	-0.343018	0.250022
C127	C	1.393256	-0.093018	0.500022
C128	C	1.643256	0.156982	0.750022
C129	C	0.886291	-0.674096	0.000021
C130	C	1.136291	-0.424096	0.250021
C131	C	1.386291	-0.174096	0.500021
C132	C	1.636291	0.075904	0.750021
C133	C	1.029384	-0.702577	0.000015
C134	C	1.279384	-0.452577	0.250015
C135	C	1.529384	-0.202577	0.500015
C136	C	1.779384	0.047423	0.750015
C137	C	1.036348	-0.621502	0.000007
C138	C	1.286348	-0.371502	0.250007
C139	C	1.536348	-0.121502	0.500007
C140	C	1.786348	0.128498	0.750007
C141	C	0.968285	-0.566727	0.000016
C142	C	1.218285	-0.316727	0.250016
C143	C	1.468285	-0.066727	0.500016
C144	C	1.718285	0.183273	0.750016
C145	C	0.910756	-0.431816	0.000015
C146	C	1.160756	-0.181816	0.250015
C147	C	1.410756	0.068184	0.500015
C148	C	1.660756	0.318184	0.750015
C149	C	0.975411	-0.483859	0.000017
C150	C	1.225411	-0.233859	0.250017
C151	C	1.475411	0.016141	0.500017
C152	C	1.725411	0.266141	0.750017
C153	C	1.087547	0.026524	0.000006
C154	C	1.337547	0.276524	0.250006
C155	C	1.587547	0.526524	0.500006
C156	C	1.837547	0.776524	0.750006
C157	C	1.175600	0.022013	0.000012
C158	C	1.425600	0.272013	0.250012
C159	C	1.675600	0.522013	0.500012
C160	C	1.925600	0.772013	0.750012
C161	C	0.946936	0.184843	0.000014
C162	C	1.196936	0.434843	0.250014
C163	C	1.446936	0.684843	0.500014
C164	C	1.696936	0.934843	0.750014
C165	C	0.954349	0.271129	0.000020
C166	C	1.204349	0.521129	0.250020
C167	C	1.454349	0.771129	0.500020
C168	C	1.704349	1.021129	0.750020
N169	N	0.943113	0.042172	-0.219470
N170	N	1.193113	0.292172	0.030530
N171	N	1.443113	0.542172	0.280530
N172	N	1.693113	0.792172	0.530530
C173	C	0.995628	-0.016956	-0.469103
C174	C	1.245628	0.233044	-0.219103
C175	C	1.495628	0.483044	0.030897
C176	C	1.745628	0.733044	0.280897
C177	C	0.923017	-0.027148	-0.530900
C178	C	1.173017	0.222852	-0.280900
C179	C	1.423017	0.472852	-0.030900
C180	C	1.673017	0.722852	0.219100
C181	C	0.943095	0.042164	-0.408631
C182	C	1.193095	0.292164	-0.158631
C183	C	1.443095	0.542164	0.091369
C184	C	1.693095	0.792164	0.341369
C185	C	1.015686	0.052312	-0.530928
C186	C	1.265686	0.302312	-0.280928
C187	C	1.515686	0.552312	-0.030928
C188	C	1.765686	0.802312	0.219072
C189	C	0.943084	0.042154	-0.591353
C190	C	1.193084	0.292154	-0.341353
C191	C	1.443084	0.542154	-0.091353
C192	C	1.693084	0.792154	0.158647
C193	C	0.870446	0.031939	-0.469068
C194	C	1.120446	0.281939	-0.219068
C195	C	1.370446	0.531939	0.030932
C196	C	1.620446	0.781939	0.280932
C197	C	0.963164	0.111427	-0.469090
C198	C	1.213164	0.361427	-0.219090
C199	C	1.463164	0.611427	0.030910
C200	C	1.713164	0.861427	0.280910
C201	C	0.890504	0.101268	-0.530860
C202	C	1.140504	0.351268	-0.280860
C203	C	1.390504	0.601268	-0.030860
C204	C	1.640504	0.851268	0.219140
C205	C	0.943103	0.042168	-0.303370
C206	C	1.193103	0.292168	-0.053370
C207	C	1.443103	0.542168	0.196630
C208	C	1.693103	0.792168	0.446630
C209	C	0.943068	0.042151	-0.696612
C210	C	1.193068	0.292151	-0.446612
C211	C	1.443068	0.542151	-0.196612
C212	C	1.693068	0.792151	0.053388
N213	N	0.943064	0.042148	0.219480
N214	N	1.193064	0.292148	0.469480
N215	N	1.443064	0.542148	0.719480
N216	N	1.693064	0.792148	0.969480
H217	H	0.324957	0.143728	0.000038
H218	H	0.574957	0.393728	0.250038
H219	H	0.824957	0.643728	0.500038
H220	H	1.074957	0.893728	0.750038
Br221	Br	0.816370	0.184604	-0.575774
Br222	Br	1.066370	0.434604	-0.325774
Br223	Br	1.316370	0.684604	-0.075774
Br224	Br	1.566370	0.934604	0.174226
H225	H	0.544368	0.200209	0.000033
H226	H	0.794368	0.450209	0.250033
H227	H	1.044368	0.700209	0.500033
H228	H	1.294368	0.950209	0.750033
Br229	Br	0.768087	0.017512	-0.423978
Br230	Br	1.018087	0.267512	-0.173978
Br231	Br	1.268087	0.517512	0.076022
Br232	Br	1.518087	0.767512	0.326022
H233	H	0.341798	-0.115883	-0.000011
H234	H	0.591798	0.134117	0.249989
H235	H	0.841798	0.384117	0.499989
H236	H	1.091798	0.634117	0.749989
Br237	Br	0.800883	-0.518690	0.000040
Br238	Br	1.050883	-0.268690	0.250040
Br239	Br	1.300883	-0.018690	0.500040
Br240	Br	1.550883	0.231310	0.750040
H241	H	1.036500	-0.462446	0.000035
H242	H	1.286500	-0.212446	0.250035
H243	H	1.536500	0.037554	0.500035
H244	H	1.786500	0.287554	0.750035
H245	H	1.060978	-0.220174	-0.000012
H246	H	1.310978	0.029826	0.249988
H247	H	1.560978	0.279826	0.499988
H248	H	1.810978	0.529826	0.749988
Br249	Br	1.118010	0.066625	-0.576226
Br250	Br	1.368010	0.316625	-0.326226
Br251	Br	1.618010	0.566625	-0.076226
Br252	Br	1.868010	0.816625	0.173774
H253	H	0.980170	0.169985	-0.441920
H254	H	1.230170	0.419985	-0.191920
H255	H	1.480170	0.669985	0.058080
H256	H	1.730170	0.919985	0.308080
Br257	Br	0.747992	-0.329850	0.000033
Br258	Br	0.997992	-0.079850	0.250033
Br259	Br	1.247992	0.170150	0.500033
Br260	Br	1.497992	0.420150	0.750033
Br261	Br	0.714412	0.230204	0.000038
Br262	Br	0.964412	0.480204	0.250038
Br263	Br	1.214412	0.730204	0.500038
Br264	Br	1.464412	0.980204	0.750038
H265	H	0.711300	-0.067095	-0.000009
H266	H	0.961300	0.182905	0.249991
H267	H	1.211300	0.432905	0.499991
H268	H	1.461300	0.682905	0.749991
Br269	Br	1.085281	-0.396987	0.000004
Br270	Br	1.335281	-0.146987	0.250004
Br271	Br	1.585281	0.103013	0.500004
Br272	Br	1.835281	0.353013	0.750004
H273	H	0.561211	-0.059395	0.000002
H274	H	0.811211	0.190605	0.250002
H275	H	1.061211	0.440605	0.500002
H276	H	1.311211	0.690605	0.750002
H277	H	1.040001	-0.066974	-0.441985
H278	H	1.290001	0.183026	-0.191985
H279	H	1.540001	0.433026	0.058015
H280	H	1.790001	0.683026	0.308015
Br281	Br	0.894698	-0.124781	-0.576142
Br282	Br	1.144698	0.125219	-0.326142
Br283	Br	1.394698	0.375219	-0.076142
Br284	Br	1.644698	0.625219	0.173858
H285	H	0.191698	-0.108182	0.000004
H286	H	0.441698	0.141818	0.250004
H287	H	0.691698	0.391818	0.500004
H288	H	0.941698	0.641818	0.750004
H289	H	0.423064	0.135120	0.000021
H290	H	0.673064	0.385120	0.250021
H291	H	0.923064	0.635120	0.500021
H292	H	1.173064	0.885120	0.750021
H293	H	1.097445	-0.600099	0.000004
H294	H	1.347445	-0.350099	0.250004
H295	H	1.597445	-0.100099	0.500004
H296	H	1.847445	0.149901	0.750004
H297	H	1.084797	-0.747183	0.000010
H298	H	1.334797	-0.497183	0.250010
H299	H	1.584797	-0.247183	0.500010
H300	H	1.834797	0.002817	0.750010
Br301	Br	0.784459	-0.709782	0.000016
Br302	Br	1.034459	-0.459782	0.250016
Br303	Br	1.284459	-0.209782	0.500016
Br304	Br	1.534459	0.040218	0.750016
H305	H	0.174868	0.151425	0.000019
H306	H	0.424868	0.401425	0.250019
H307	H	0.674868	0.651425	0.500019
H308	H	0.924868	0.901425	0.750019
H309	H	0.463099	-0.050788	0.000015
H310	H	0.713099	0.199212	0.250015
H311	H	0.963099	0.449212	0.500015
H312	H	1.213099	0.699212	0.750015
H313	H	0.801369	-0.168494	0.000012
H314	H	1.051369	0.081506	0.250012
H315	H	1.301369	0.331506	0.500012
H316	H	1.551369	0.581506	0.750012
H317	H	0.849667	-0.453235	0.000016
H318	H	1.099667	-0.203235	0.250016
H319	H	1.349667	0.046765	0.500016
H320	H	1.599667	0.296765	0.750016
