data_functionalizedCrystal
_audit_creation_method	'MofGen! by Chris Wilmer'
_symmetry_space_group_name_H-M	'P1'
_symmetry_Int_Tables_number	1
_symmetry_cell_setting	triclinic
loop_
_symmetry_equiv_pos_as_xyz
  x,y,z
_cell_length_a	12.759401
_cell_length_b	12.759400
_cell_length_c	12.759393
_cell_angle_alpha	90.029805
_cell_angle_beta	90.020938
_cell_angle_gamma	90.016169
loop_
_atom_site_label
_atom_site_type_symbol
_atom_site_fract_x
_atom_site_fract_y
_atom_site_fract_z
Zn1	Zn	1.606267	-0.418173	0.594025
Zn2	Zn	1.606158	-0.593888	0.418347
Zn3	Zn	1.430565	-0.418229	0.418360
Zn4	Zn	1.430558	-0.593815	0.593985
O5	O	1.518387	-0.506026	0.506179
O6	O	1.753273	-0.441489	0.570733
O7	O	1.582823	-0.570641	0.271328
O8	O	1.453921	-0.271200	0.441685
O9	O	1.753193	-0.570587	0.441663
O10	O	1.583008	-0.271159	0.570745
O11	O	1.453816	-0.441584	0.271337
O12	O	1.283543	-0.441513	0.441646
O13	O	1.453908	-0.570461	0.741011
O14	O	1.283538	-0.570516	0.570676
O15	O	1.583001	-0.441418	0.741041
O16	O	1.582815	-0.740900	0.441624
O17	O	1.453803	-0.740846	0.570664
C18	C	1.245420	-0.506013	0.506159
C19	C	1.128643	-0.506033	0.506175
C20	C	1.073805	-0.573307	0.573255
C21	C	0.964081	-0.573311	0.573276
C22	C	0.964042	-0.438764	0.439127
C23	C	1.073764	-0.438756	0.439112
C24	C	0.814185	-0.611009	0.697137
C25	C	0.759344	-0.678300	0.764208
C26	C	0.794942	-0.780830	0.780157
C27	C	0.885379	-0.816092	0.729020
C28	C	0.940215	-0.748807	0.661941
C29	C	0.904619	-0.646262	0.646011
C30	C	1.223662	-0.401068	0.315250
C31	C	1.278500	-0.333788	0.248165
C32	C	1.242904	-0.231255	0.232205
C33	C	1.152463	-0.195998	0.283324
C34	C	1.097626	-0.263278	0.350409
C35	C	1.133229	-0.365809	0.366370
C36	C	1.518325	-0.778994	0.506161
C37	C	1.518394	-0.895770	0.506188
C38	C	1.585581	-0.950521	0.573447
C39	C	1.585640	-1.060245	0.573475
C40	C	1.451323	-1.060458	0.438977
C41	C	1.451260	-0.950736	0.438955
C42	C	1.623201	-1.210073	0.697444
C43	C	1.690404	-1.264827	0.764694
C44	C	1.792889	-1.229117	0.780907
C45	C	1.828193	-1.138653	0.729855
C46	C	1.760996	-1.083904	0.662597
C47	C	1.658496	-1.119613	0.646404
C48	C	1.413709	-0.800906	0.314984
C49	C	1.346516	-0.746155	0.247721
C50	C	1.244029	-0.781864	0.231497
C51	C	1.208729	-0.872331	0.282531
C52	C	1.275922	-0.927081	0.349794
C53	C	1.378408	-0.891365	0.366019
C54	C	1.792420	-0.506040	0.506201
C55	C	1.909197	-0.506046	0.506210
C56	C	1.518466	-0.505925	0.780213
C57	C	1.518499	-0.505882	0.896990
C58	C	1.518478	-0.231993	0.506221
C59	C	1.518517	-0.115216	0.506239
C60	C	1.518369	-0.506051	0.233212
C61	C	1.518539	-0.505798	0.116436
C62	C	1.585723	-0.438679	0.951869
C63	C	1.585740	-0.438633	1.061593
C64	C	1.451308	-0.573004	1.061549
C65	C	1.451286	-0.573044	0.951827
C66	C	1.623352	-0.314677	1.211570
C67	C	1.690592	-0.247482	1.266452
C68	C	1.793105	-0.231372	1.230861
C69	C	1.828399	-0.282471	1.140388
C70	C	1.761164	-0.349673	1.085511
C71	C	1.658637	-0.365764	1.121101
C72	C	1.413685	-0.697002	0.801848
C73	C	1.346455	-0.764210	0.746969
C74	C	1.243940	-0.780331	0.782559
C75	C	1.208650	-0.729251	0.873035
C76	C	1.275880	-0.662042	0.927914
C77	C	1.378394	-0.645919	0.892317
H78	H	0.750283	-0.835618	0.834769
H79	H	0.785200	-0.527517	0.684168
H80	H	1.123468	-0.112514	0.270312
H81	H	1.118485	-0.628086	0.627864
H82	H	1.847606	-1.273705	0.835664
H83	H	1.023989	-0.234559	0.392040
H84	H	1.375269	-0.672495	0.206161
C85	C	1.526450	-0.761630	0.332828
H86	H	1.561407	-0.807188	0.380204
H87	H	1.562900	-0.760598	0.267934
H88	H	1.524592	-0.692875	0.361372
H89	H	0.685711	-0.649580	0.805845
C90	C	1.510584	-0.332391	1.250714
H91	H	1.475588	-0.379720	1.205068
H92	H	1.512388	-0.360924	1.319441
H93	H	1.474195	-0.267452	1.251768
H94	H	1.640244	-0.905770	0.628194
C95	C	1.039689	-0.787582	0.605697
H96	H	1.053040	-0.858285	0.624802
H97	H	1.029839	-0.783245	0.532028
H98	H	1.097568	-0.745142	0.625584
H99	H	1.640449	-0.383989	0.907223
C100	C	1.237066	-0.605846	1.027434
H101	H	1.291791	-0.563518	1.055023
H102	H	1.178633	-0.562947	1.010510
H103	H	1.216848	-0.656413	1.078178
C104	C	1.303224	-0.157250	0.158410
H105	H	1.362187	-0.192928	0.130248
H106	H	1.258487	-0.135639	0.102963
H107	H	1.326228	-0.097527	0.196507
C108	C	0.924529	-0.928881	0.746560
H109	H	0.878923	-0.963900	0.793840
H110	H	0.925540	-0.965219	0.681571
H111	H	0.993279	-0.927104	0.775115
H112	H	1.352141	-0.362504	0.206540
H113	H	1.789740	-1.010252	0.621030
H114	H	0.919346	-0.383991	0.384525
H115	H	1.252659	-0.484556	0.328248
C116	C	1.799973	-0.405873	0.985996
H117	H	1.870658	-0.386653	0.972654
H118	H	1.795701	-0.479547	0.995795
H119	H	1.757508	-0.386066	0.928133
C120	C	1.940931	-1.099378	0.747687
H121	H	1.975892	-1.144935	0.795061
H122	H	1.977381	-1.098342	0.682793
H123	H	1.939069	-1.030624	0.776233
C124	C	1.169987	-0.854264	0.722198
H125	H	1.103880	-0.856549	0.756359
H126	H	1.161122	-0.829203	0.652667
H127	H	1.199330	-0.922661	0.720352
H128	H	1.661650	-1.338483	0.806261
H129	H	1.539746	-1.239151	0.684260
H130	H	1.396666	-1.105224	0.384236
H131	H	1.247172	-1.000745	0.391348
C132	C	1.095885	-0.746979	0.912188
H133	H	1.060897	-0.794313	0.866541
H134	H	1.097695	-0.775514	0.980913
H135	H	1.059486	-0.682046	0.913243
H136	H	1.125276	-0.901407	0.269319
H137	H	1.189323	-0.737276	0.176722
H138	H	1.911879	-0.269355	1.111422
C139	C	1.867064	-0.157456	1.291227
H140	H	1.831363	-0.129328	1.350200
H141	H	1.926821	-0.195441	1.314199
H142	H	1.888618	-0.101976	1.246522
H143	H	1.661847	-0.205877	1.340116
C144	C	1.385273	-0.820400	0.647447
H145	H	1.455952	-0.801164	0.634099
H146	H	1.381019	-0.894074	0.657249
H147	H	1.342800	-0.800606	0.589586
H148	H	1.396588	-0.627687	1.106211
H149	H	1.497158	-0.683873	0.772857
