data_functionalizedCrystal
_audit_creation_method	'MofGen! by Chris Wilmer'
_symmetry_space_group_name_H-M	'P1'
_symmetry_Int_Tables_number	1
_symmetry_cell_setting	triclinic
loop_
_symmetry_equiv_pos_as_xyz
  x,y,z
_cell_length_a	17.640112
_cell_length_b	21.395361
_cell_length_c	21.395355
_cell_angle_alpha	89.978489
_cell_angle_beta	78.830983
_cell_angle_gamma	78.743552
loop_
_atom_site_label
_atom_site_type_symbol
_atom_site_fract_x
_atom_site_fract_y
_atom_site_fract_z
Zn1	Zn	1.208339	0.055627	0.160932
Zn2	Zn	1.208216	0.160407	0.056169
Zn3	Zn	1.076153	0.076837	0.077317
Zn4	Zn	1.076114	0.181587	0.182043
O5	O	1.142206	0.118615	0.119115
O6	O	1.318929	0.051786	0.129349
O7	O	1.190663	0.149334	-0.028698
O8	O	1.093756	-0.013665	0.088424
O9	O	1.318838	0.128767	0.052380
O10	O	1.190872	-0.029248	0.149856
O11	O	1.093636	0.087935	-0.013161
O12	O	0.965542	0.108473	0.108894
O13	O	1.093689	0.164866	0.266915
O14	O	0.965514	0.185432	0.185837
O15	O	1.190835	0.072324	0.251405
O16	O	1.190625	0.250905	0.072851
O17	O	1.093570	0.266466	0.165331
C18	C	0.936849	0.151553	0.151952
C19	C	0.848997	0.165659	0.166014
C20	C	1.142101	0.281419	0.119097
C21	C	1.142129	0.351056	0.119099
C22	C	1.142271	0.118591	0.282528
C23	C	1.142299	0.118582	0.352165
C24	C	0.560026	0.011440	0.012290
C25	C	0.477475	0.024707	0.025512
C26	C	0.477500	0.104955	0.105494
C27	C	0.560052	0.091692	0.092280
C28	C	0.601309	0.044934	0.045677
C29	C	0.601335	0.125187	0.125668
C30	C	0.683880	0.111927	0.112453
C31	C	0.725143	0.065172	0.065851
C32	C	0.683854	0.031674	0.032462
C33	C	0.560077	0.171948	0.172268
C34	C	0.601360	0.205442	0.205655
C35	C	0.683906	0.192179	0.192444
C36	C	0.725169	0.145425	0.145841
C37	C	0.725195	0.225677	0.225832
C38	C	0.807740	0.212417	0.212617
C39	C	0.807714	0.132165	0.132627
C40	C	1.348364	0.085548	0.086151
C41	C	1.436217	0.071457	0.072104
C42	C	1.142332	-0.044829	0.119144
C43	C	1.142386	-0.114479	0.119156
C44	C	1.192710	0.375638	0.070978
C45	C	1.192747	0.441068	0.070987
C46	C	1.142189	0.481915	0.119111
C47	C	1.091604	0.457325	0.167239
C48	C	1.091574	0.391895	0.167233
C49	C	1.071021	0.597049	0.135406
C50	C	1.071050	0.662477	0.135408
C51	C	1.142281	0.683721	0.119133
C52	C	1.213485	0.639527	0.102842
C53	C	1.213456	0.574098	0.102836
C54	C	1.142215	0.552863	0.119123
C55	C	1.192906	0.779249	0.071018
C56	C	1.192944	0.844679	0.071031
C57	C	1.091794	0.860936	0.167281
C58	C	1.091763	0.795505	0.167271
C59	C	1.142318	0.754666	0.119137
C60	C	1.142186	0.118585	-0.043669
C61	C	1.142311	0.118394	-0.113330
C62	C	1.192881	0.070394	0.376803
C63	C	1.192880	0.070367	0.442239
C64	C	1.142306	0.118538	0.483032
C65	C	1.091714	0.166730	0.458388
C66	C	1.091711	0.166752	0.392954
C67	C	1.136028	0.175960	0.587699
C68	C	1.136037	0.175939	0.653131
C69	C	1.142310	0.118471	0.684852
C70	C	1.148592	0.061020	0.651132
C71	C	1.148589	0.061042	0.585698
C72	C	1.142303	0.118519	0.553985
C73	C	1.192893	0.070250	0.780443
C74	C	1.192887	0.070223	0.845881
C75	C	1.091726	0.166592	0.862028
C76	C	1.091728	0.166614	0.796592
C77	C	1.142316	0.118443	0.755803
H78	H	0.841307	0.094081	0.094687
H79	H	0.567757	0.243514	0.243598
O80	O	1.290323	0.662426	0.085291
H81	H	1.278386	0.715346	0.088040
O82	O	0.680695	0.276108	0.276095
H83	H	0.616360	0.279700	0.279676
O84	O	0.471045	0.186256	0.186489
H85	H	0.449274	0.236993	0.177204
H86	H	1.153701	0.014264	0.558246
O87	O	1.247442	0.018438	0.332812
H88	H	1.212093	-0.007760	0.308643
H89	H	0.792356	0.054378	0.055091
H90	H	0.593619	-0.026645	-0.025650
H91	H	1.050534	0.205950	0.491607
H92	H	1.050384	0.371881	0.206419
H93	H	1.130927	0.222718	0.680580
O94	O	1.247420	0.018386	0.468834
H95	H	1.287604	0.039972	0.492238
O96	O	0.994187	0.574141	0.152956
H97	H	0.964668	0.591436	0.202232
H98	H	0.841353	0.239691	0.239805
O99	O	1.247504	0.871200	0.019131
H100	H	1.233963	0.860859	-0.027890
H101	H	1.234081	0.031024	0.747231
H102	H	1.013070	0.698455	0.148667
H103	H	0.443866	-0.002576	-0.001675
O104	O	0.728364	-0.018758	-0.017803
H105	H	0.685791	-0.039822	-0.038803
H106	H	1.233877	0.342388	0.031786
O107	O	1.290248	0.526431	0.085268
H108	H	1.298267	0.495300	0.125956
O109	O	1.247297	0.467595	0.019080
H110	H	1.282441	0.428205	-0.014394
O111	O	0.433001	0.155382	0.155761
H112	H	0.368666	0.158973	0.159345
H113	H	1.234074	0.745995	0.031826
H114	H	1.153702	0.014224	0.676958
O115	O	1.037070	0.501383	0.219140
H116	H	1.050594	0.486627	0.266160
O117	O	1.247446	0.018247	0.872459
H118	H	1.282626	-0.015238	0.833100
O119	O	1.037174	0.218550	0.906016
H120	H	1.045675	0.210442	0.955656
H121	H	1.050631	0.894192	0.206467
O122	O	1.037187	0.768988	0.219159
H123	H	1.002026	0.808383	0.252620
H124	H	1.050544	0.205857	0.776531
H125	H	1.130708	0.222780	0.561911
O126	O	1.037137	0.218717	0.366377
H127	H	1.001961	0.252207	0.405734
