data_functionalizedCrystal
_audit_creation_method	'MofGen! by Chris Wilmer'
_symmetry_space_group_name_H-M	'P1'
_symmetry_Int_Tables_number	1
_symmetry_cell_setting	triclinic
loop_
_symmetry_equiv_pos_as_xyz
  x,y,z
_cell_length_a	27.732048
_cell_length_b	19.288864
_cell_length_c	18.366186
_cell_angle_alpha	89.977071
_cell_angle_beta	90.010100
_cell_angle_gamma	97.110551
loop_
_atom_site_label
_atom_site_type_symbol
_atom_site_fract_x
_atom_site_fract_y
_atom_site_fract_z
O1	O	0.060299	-0.920977	0.060791
O2	O	0.068433	-0.718665	0.060742
O3	O	-0.006012	-0.826104	0.060754
O4	O	0.134744	-0.813538	0.060779
O5	O	-0.006014	-0.826086	-0.060345
O6	O	0.068431	-0.718647	-0.060357
O7	O	0.060297	-0.920958	-0.060309
Zn8	Zn	0.064364	-0.819800	-0.079560
Zn9	Zn	0.064366	-0.819824	0.079994
O10	O	0.134742	-0.813519	-0.060321
C11	C	0.068171	-0.692781	0.000186
C12	C	0.067385	-0.615683	0.000167
C13	C	-0.024020	-0.825831	0.000202
C14	C	-0.077678	-0.825037	0.000196
C15	C	-0.416316	-0.883526	0.000248
C16	C	-0.617985	-0.880579	0.000257
O17	O	-0.649079	-0.934063	0.000302
N18	N	-0.637301	-0.816872	0.000241
C19	C	-0.606196	-0.753897	0.000227
O20	O	-0.627253	-0.699643	0.000222
C21	C	-0.404529	-0.756845	0.000223
C22	C	-0.385216	-0.820556	0.000232
C23	C	-0.397002	-0.947232	0.000257
C24	C	-0.346588	-0.947968	0.000251
C25	C	-0.315488	-0.884998	0.000235
C26	C	-0.334801	-0.821292	0.000226
C27	C	-0.373425	-0.693871	0.000215
C28	C	-0.323006	-0.694614	0.000216
C29	C	-0.303693	-0.758325	0.000224
C30	C	-0.253287	-0.759059	0.000203
N31	N	-0.233971	-0.822766	0.000219
C32	C	-0.265071	-0.885735	0.000235
C33	C	-0.712075	-0.752354	0.000228
C34	C	-0.762492	-0.751617	0.000228
C35	C	-0.774276	-0.878299	0.000259
C36	C	-0.723859	-0.879035	0.000254
C37	C	-0.692759	-0.816061	0.000244
C38	C	-0.159197	-0.887276	0.000221
C39	C	-0.108778	-0.888007	0.000212
C40	C	-0.096998	-0.761325	0.000185
C41	C	-0.147412	-0.760595	0.000190
C42	C	-0.178511	-0.823576	0.000211
O43	O	-0.222164	-0.705603	0.000167
O44	O	-0.244005	-0.939982	0.000257
C45	C	-0.466730	-0.882790	0.000254
C46	C	-0.486044	-0.819084	0.000245
C47	C	-0.454943	-0.756114	0.000229
C48	C	-0.536461	-0.818347	0.000244
C49	C	-0.567561	-0.881317	0.000260
C50	C	-0.548245	-0.945023	0.000276
C51	C	-0.497831	-0.945760	0.000270
C52	C	-0.474260	-0.692407	0.000213
C53	C	-0.524674	-0.691676	0.000218
C54	C	-0.555775	-0.754646	0.000234
C55	C	0.060560	-0.946842	0.000249
C56	C	0.061345	-1.023941	0.000273
C57	C	0.152751	-0.813792	0.000233
C58	C	0.206408	-0.814587	0.000244
N59	N	0.064362	-0.819788	-0.188451
C60	C	0.111066	-0.570714	0.000186
C61	C	0.110328	-0.498271	0.000194
C62	C	0.065906	-0.470801	0.000197
C63	C	0.022219	-0.515780	0.000174
C64	C	0.022959	-0.588220	0.000159
C65	C	0.030987	-0.362763	0.042642
C66	C	0.030249	-0.290323	0.042662
C67	C	0.063624	-0.247370	0.000241
C68	C	0.097744	-0.276863	-0.042190
C69	C	0.098484	-0.349304	-0.042206
C70	C	0.065099	-0.392252	0.000213
C71	C	0.106507	-0.123850	0.000268
C72	C	0.105767	-0.051406	0.000271
C73	C	0.017658	-0.068916	0.000258
C74	C	0.018399	-0.141358	0.000248
C75	C	0.062825	-0.168820	0.000256
C76	C	0.093607	-0.861593	-0.226529
C77	C	0.093605	-0.861605	-0.302757
C78	C	0.064365	-0.819798	-0.340904
C79	C	0.035114	-0.777990	-0.302817
C80	C	0.035112	-0.777985	-0.226590
C81	C	0.063142	-0.757194	-0.461701
C82	C	0.063147	-0.757197	-0.537926
C83	C	0.064366	-0.819814	-0.576011
C84	C	0.065591	-0.882428	-0.537863
C85	C	0.065589	-0.882423	-0.461637
C86	C	0.064363	-0.819799	-0.423559
C87	C	0.093611	-0.861635	-0.696744
C88	C	0.093606	-0.861647	-0.772974
C89	C	0.035118	-0.778026	-0.773032
C90	C	0.035120	-0.778020	-0.696804
C91	C	0.064369	-0.819823	-0.658665
N92	N	0.064365	-0.819841	0.188885
H93	H	-0.093056	-0.939890	0.000217
F94	F	0.066892	-0.949059	-0.421039
F95	F	0.061848	-0.690558	-0.578519
H96	H	0.117427	-0.895674	-0.665690
H97	H	-0.708138	-0.930914	0.000262
F98	F	0.124732	-0.906148	-0.813499
F99	F	-0.025057	-0.486543	0.000174
H100	H	0.011309	-0.743987	-0.804090
H101	H	0.066586	-0.933415	-0.568871
F102	F	-0.192288	-0.954308	0.000244
F103	F	-0.006061	-0.258940	0.087827
H104	H	-0.018511	-0.046551	0.000306
H105	H	0.147241	-0.593069	0.000194
F106	F	0.133267	-0.231154	-0.087341
H107	H	-0.017171	-0.177973	0.000236
F108	F	0.156821	-0.450404	0.000212
H109	H	-0.799607	-0.929571	0.000271
H110	H	0.117421	-0.895648	-0.333766
H111	H	-0.686757	-0.701070	0.000220
F112	F	-0.004538	-0.408472	0.087795
F113	F	0.004001	-0.733513	-0.656277
H114	H	0.141339	-0.014793	0.000282
F115	F	0.134795	-0.380691	-0.087365
F116	F	-0.326040	-1.015778	0.000276
H117	H	0.062152	-0.706200	-0.430697
F118	F	-0.430095	-1.014259	0.000274
F119	F	-0.167968	-0.692787	0.000168
F120	F	0.003993	-0.733498	-0.343416
H121	H	-0.012613	-0.624835	0.000144
F122	F	0.153789	-0.153080	0.000271
H123	H	-0.778212	-0.699737	0.000208
H124	H	0.011297	-0.743941	-0.195587
H125	H	-0.482111	-0.997640	0.000277
H126	H	-0.389141	-0.641991	0.000212
F127	F	-0.289909	-0.627586	0.000207
F128	F	-0.063890	-0.694312	0.000168
H129	H	-0.540394	-0.639791	0.000205
F130	F	-0.581353	-1.012041	0.000289
F131	F	0.124744	-0.906073	-0.185943
F132	F	-0.441166	-0.625382	0.000198
