data_functionalizedCrystal
_audit_creation_method	'MofGen! by Chris Wilmer'
_symmetry_space_group_name_H-M	'P1'
_symmetry_Int_Tables_number	1
_symmetry_cell_setting	triclinic
loop_
_symmetry_equiv_pos_as_xyz
  x,y,z
_cell_length_a	6.817900
_cell_length_b	7.190339
_cell_length_c	16.305550
_cell_angle_alpha	89.317265
_cell_angle_beta	76.544750
_cell_angle_gamma	119.388276
loop_
_atom_site_label
_atom_site_type_symbol
_atom_site_fract_x
_atom_site_fract_y
_atom_site_fract_z
V1	V	4.113988	0.296891	-0.262431
O2	O	4.010172	-0.012415	-0.258049
O3	O	4.151148	0.586903	-0.260046
O4	O	4.064284	0.293136	-0.377156
O5	O	4.097637	0.283385	-0.140129
V6	V	4.586698	0.259798	-0.247875
O7	O	4.398965	0.378256	-0.294363
O8	O	4.751918	0.178433	-0.215944
O9	O	4.326331	-0.030214	-0.250260
O10	O	4.807910	0.569103	-0.252257
O11	O	4.720445	0.273303	-0.370177
O12	O	4.413195	0.263552	-0.133150
C13	C	3.906200	0.282845	-0.405138
C14	C	3.947412	0.281695	-0.498922
C15	C	4.017022	0.657579	-0.255758
C16	C	4.130783	0.899130	-0.254552
C17	C	4.097181	0.277237	-0.839677
C18	C	3.857222	0.264003	-0.798775
C19	C	3.814643	0.266083	-0.701276
C20	C	4.022877	0.279447	-0.670624
C21	C	4.252162	0.490086	-0.720825
C22	C	4.293673	0.488895	-0.818377
C23	C	4.094094	0.081516	-0.794229
C24	C	4.045672	0.079849	-0.696390
C25	C	3.980899	0.280704	-0.575084
C26	C	4.139173	0.275995	-0.935218
C27	C	4.234623	0.273850	-0.105164
C28	C	4.172646	0.274990	-0.011379
H29	H	3.706114	0.111839	-0.811446
N30	N	4.236753	0.686403	-0.698163
H31	H	4.250273	0.770569	-0.751266
H32	H	4.368144	0.780642	-0.672605
N33	N	3.587970	0.065393	-0.655223
H34	H	3.477066	0.107679	-0.620125
H35	H	3.620526	-0.020556	-0.616518
N36	N	4.531155	0.513348	-0.855414
H37	H	4.608441	0.524862	-0.808357
H38	H	4.631613	0.648085	-0.899080
H39	H	3.955525	-0.078083	-0.807919
N40	N	3.852540	0.450274	-0.840130
H41	H	3.830374	0.539643	-0.795523
H42	H	3.718946	0.392624	-0.867333
H43	H	3.878580	-0.075951	-0.662326
N44	N	4.325049	0.091832	-0.829725
H45	H	4.455740	0.231207	-0.819714
H46	H	4.351899	0.085426	-0.892950
N47	N	4.239615	0.076260	-0.668062
H48	H	4.315812	0.204559	-0.638001
H49	H	4.360137	0.082987	-0.719487
N50	N	4.461862	0.513150	-0.695736
H51	H	4.410125	0.386978	-0.651479
H52	H	4.537224	0.651990	-0.671340
H53	H	3.790254	0.408322	-0.684695
H54	H	4.301317	0.637061	-0.848459
