data_functionalizedCrystal
_audit_creation_method	'MofGen! by Chris Wilmer'
_symmetry_space_group_name_H-M	'P1'
_symmetry_Int_Tables_number	1
_symmetry_cell_setting	triclinic
loop_
_symmetry_equiv_pos_as_xyz
  x,y,z
_cell_length_a	13.262390
_cell_length_b	9.065215
_cell_length_c	12.376457
_cell_angle_alpha	78.553299
_cell_angle_beta	116.831551
_cell_angle_gamma	84.712923
loop_
_atom_site_label
_atom_site_type_symbol
_atom_site_fract_x
_atom_site_fract_y
_atom_site_fract_z
O1	O	1.512719	0.031272	0.559104
O2	O	1.186118	0.082954	0.458690
O3	O	1.356170	-0.158230	0.510968
O4	O	1.342668	0.272456	0.506826
O5	O	1.313672	-0.098012	0.309891
O6	O	1.143620	0.143171	0.257612
O7	O	1.470221	0.091489	0.358027
Zn8	Zn	1.300173	0.126891	0.275894
Zn9	Zn	1.356167	0.047552	0.540822
O10	O	1.300169	0.332673	0.305749
C11	C	1.123035	0.115704	0.345289
C12	C	0.998383	0.123556	0.306964
C13	C	0.739686	0.014366	0.637380
C14	C	0.856804	0.006981	0.673390
C15	C	0.892204	0.036124	0.581787
C16	C	0.810476	0.072654	0.454167
C17	C	0.693347	0.080028	0.418154
C18	C	0.845866	0.101786	0.362560
C19	C	0.764137	0.138316	0.234940
C20	C	0.647021	0.145690	0.198933
C21	C	0.611620	0.116546	0.290537
C22	C	0.962994	0.094412	0.398574
C23	C	0.916656	0.160074	0.179347
C24	C	0.799538	0.167459	0.143337
C25	C	1.333624	-0.182973	0.410032
C26	C	1.329746	-0.346415	0.408843
C27	C	1.533305	0.058739	0.471431
C28	C	1.657958	0.050884	0.509763
C29	C	1.322716	0.357416	0.406688
C30	C	1.326595	0.520855	0.407884
N31	N	1.261967	0.181036	0.095091
C32	C	1.483069	-0.132323	-0.191922
C33	C	1.509803	-0.170219	-0.065363
C34	C	1.447846	-0.082409	-0.025243
C35	C	1.359151	0.043305	-0.111695
C36	C	1.332420	0.081212	-0.238264
C37	C	1.297197	0.131126	-0.071586
C38	C	1.208502	0.256840	-0.158037
C39	C	1.181775	0.294740	-0.284593
C40	C	1.243732	0.206929	-0.324713
C41	C	1.323928	0.093219	0.054984
C42	C	1.173279	0.306754	0.008641
C43	C	1.146545	0.344650	-0.117917
N44	N	1.394381	-0.006606	0.721629
H45	H	1.396144	-0.009137	0.125362
H46	H	1.221963	0.237779	-0.427768
H47	H	1.469617	-0.113270	0.077807
H48	H	1.582019	-0.272572	0.005021
H49	H	1.533512	-0.203800	-0.224596
C50	C	1.074957	0.617141	-0.176372
C51	C	1.049054	0.482837	-0.212947
H52	H	1.014765	0.702446	-0.235036
H53	H	1.145648	0.632946	-0.174025
H54	H	1.082007	0.607120	-0.095254
H55	H	1.042012	0.492854	-0.294061
H56	H	0.978343	0.467030	-0.215307
C57	C	0.612982	0.209867	-0.014148
C58	C	0.557183	0.185836	0.058653
H59	H	0.557518	0.234661	-0.100750
H60	H	0.667310	0.118991	0.006812
H61	H	0.651945	0.292266	0.002109
H62	H	0.518227	0.103428	0.042403
H63	H	0.502835	0.276722	0.037685
H64	H	0.923340	-0.022769	0.777299
C65	C	1.075614	0.177938	0.137203
C66	C	0.955555	0.192115	0.078645
H67	H	1.099631	0.197723	0.075037
H68	H	1.112005	0.076610	0.190492
H69	H	1.096625	0.249889	0.185777
H70	H	0.934545	0.120156	0.030077
H71	H	0.919152	0.293458	0.025333
C72	C	0.754438	-0.167044	0.816615
C73	C	0.700773	-0.017665	0.738062
H74	H	0.730410	-0.186820	0.878772
H75	H	0.835876	-0.176648	0.856322
H76	H	0.733405	-0.238973	0.768022
H77	H	0.721813	0.054265	0.786654
H78	H	0.619317	-0.008047	0.698352
C79	C	0.980079	0.409603	-0.383082
C80	C	1.084288	0.432932	-0.379621
H81	H	0.919895	0.494915	-0.441752
H82	H	0.987136	0.399603	-0.301974
H83	H	0.962524	0.318481	-0.407889
H84	H	1.101847	0.524049	-0.354805
H85	H	1.077232	0.442950	-0.460747
C86	C	0.445111	0.236844	0.295197
C87	C	0.482893	0.124575	0.250993
H88	H	0.365646	0.241765	0.270803
H89	H	0.455302	0.333952	0.260464
H90	H	0.488754	0.210936	0.384308
H91	H	0.439256	0.150489	0.161880
H92	H	0.472692	0.027446	0.285721
H93	H	1.122830	0.378260	0.041305
H94	H	1.029527	0.064673	0.502483
H95	H	0.987568	0.030111	0.611114
H96	H	0.732979	0.197201	0.039427
