data_functionalizedCrystal
_audit_creation_method	'MofGen! by Chris Wilmer'
_symmetry_space_group_name_H-M	'P1'
_symmetry_Int_Tables_number	1
_symmetry_cell_setting	triclinic
loop_
_symmetry_equiv_pos_as_xyz
  x,y,z
_cell_length_a	12.759394
_cell_length_b	18.215407
_cell_length_c	18.215399
_cell_angle_alpha	90.019833
_cell_angle_beta	89.976598
_cell_angle_gamma	89.984983
loop_
_atom_site_label
_atom_site_type_symbol
_atom_site_fract_x
_atom_site_fract_y
_atom_site_fract_z
Zn1	Zn	-0.418265	-1.125125	-0.416139
Zn2	Zn	-0.593962	-1.125055	-0.293083
Zn3	Zn	-0.418299	-1.002057	-0.293087
Zn4	Zn	-0.593904	-1.002045	-0.416108
O5	O	-0.506107	-1.063571	-0.354604
O6	O	-0.441581	-1.228100	-0.399827
O7	O	-0.570699	-1.108715	-0.190099
O8	O	-0.271273	-1.018417	-0.309425
O9	O	-0.570666	-1.228049	-0.309418
O10	O	-0.271248	-1.108834	-0.399831
O11	O	-0.441640	-1.018349	-0.190102
O12	O	-0.441583	-0.899071	-0.309394
O13	O	-0.570566	-1.018396	-0.519096
O14	O	-0.570599	-0.899063	-0.399777
O15	O	-0.441525	-1.108822	-0.519119
O16	O	-0.740975	-1.108704	-0.309387
O17	O	-0.740932	-1.018329	-0.399773
C18	C	-0.506089	-0.872364	-0.354583
C19	C	-0.506107	-0.790565	-0.354591
C20	C	-0.506035	-1.063615	-0.546557
C21	C	-0.506004	-1.063635	-0.628356
C22	C	-0.779075	-1.063527	-0.354592
C23	C	-0.895852	-1.063576	-0.354612
C24	C	-1.115487	-0.969580	-0.260433
C25	C	-1.060722	-0.922521	-0.213316
C26	C	-0.951000	-0.922479	-0.213296
C27	C	-0.896042	-0.969500	-0.260399
C28	C	-0.950807	-1.016559	-0.307516
C29	C	-1.060532	-1.016597	-0.307529
C30	C	-0.950617	-1.110635	-0.401729
C31	C	-1.060339	-1.110682	-0.401747
C32	C	-0.895659	-1.157656	-0.448832
C33	C	-0.950425	-1.204720	-0.495946
C34	C	-1.060153	-1.204760	-0.495964
C35	C	-1.115105	-1.157741	-0.448863
C36	C	-0.232074	-1.063634	-0.354632
C37	C	-0.115297	-1.063661	-0.354643
C38	C	-0.506126	-1.255524	-0.354626
C39	C	-0.506134	-1.337322	-0.354635
C40	C	-0.573391	-0.602386	-0.401595
C41	C	-0.573395	-0.525528	-0.401604
C42	C	-0.438843	-0.525507	-0.307629
C43	C	-0.438835	-0.602364	-0.307624
C44	C	-0.506115	-0.640802	-0.354606
C45	C	-0.506126	-0.487086	-0.354620
C46	C	-0.506129	-0.403752	-0.354630
C47	C	-0.506111	-0.724141	-0.354598
C48	C	-0.438749	-1.110736	-0.816563
C49	C	-0.438719	-1.110745	-0.893422
C50	C	-0.573096	-1.016585	-0.893387
C51	C	-0.573121	-1.016573	-0.816529
C52	C	-0.505949	-1.063653	-0.778119
C53	C	-0.505894	-1.063674	-0.931836
C54	C	-0.505861	-1.063683	-1.015169
C55	C	-0.505980	-1.063643	-0.694780
C56	C	-0.506104	-1.063568	-0.163398
C57	C	-0.505839	-1.063692	-0.081599
H58	H	-1.105481	-0.884237	-0.174967
O59	O	-0.373473	-1.156411	-0.930880
C60	C	-0.387863	-1.146339	-1.006953
H61	H	-0.422269	-1.089540	-1.017434
H62	H	-0.309154	-1.151347	-1.036169
H63	H	-0.443801	-1.189984	-1.028770
O64	O	-0.638385	-0.970790	-0.930585
C65	C	-0.697721	-0.929243	-0.880170
H66	H	-0.654703	-0.926692	-0.825389
H67	H	-0.708924	-0.871262	-0.902365
H68	H	-0.777515	-0.956178	-0.871988
H69	H	-1.104737	-1.243075	-0.534339
H70	H	-0.627842	-0.978227	-0.785227
O71	O	-0.638800	-0.488130	-0.447145
C72	C	-0.706602	-0.443657	-0.405170
H73	H	-0.669447	-0.432122	-0.349444
H74	H	-0.720741	-0.389622	-0.435136
H75	H	-0.784443	-0.473262	-0.396989
O76	O	-0.373591	-0.488053	-0.262016
C77	C	-0.388003	-0.411979	-0.272108
H78	H	-0.469129	-0.401480	-0.296113
H79	H	-0.380775	-0.382747	-0.216995
H80	H	-0.325760	-0.390194	-0.311376
O81	O	-1.221687	-1.157660	-0.448945
C82	C	-1.258399	-1.087123	-0.467766
H83	H	-1.195170	-1.056660	-0.499811
H84	H	-1.331767	-1.092394	-0.503070
H85	H	-1.277946	-1.055277	-0.415637
O86	O	-0.789459	-0.969386	-0.260268
C87	C	-0.752907	-0.917750	-0.208600
H88	H	-0.816185	-0.907491	-0.165602
H89	H	-0.679498	-0.939941	-0.180684
H90	H	-0.733479	-0.864066	-0.237733
H91	H	-0.384044	-0.633643	-0.269361
H92	H	-1.204828	-0.969615	-0.260439
H93	H	-0.628173	-0.633680	-0.439852
H94	H	-0.906410	-0.884157	-0.174932
O95	O	-0.373396	-1.156486	-0.779365
C96	C	-0.314095	-1.198057	-0.829782
H97	H	-0.310442	-1.167921	-0.884563
H98	H	-0.231324	-1.205919	-0.807589
H99	H	-0.352566	-1.253944	-0.837962
H100	H	-0.806318	-1.157615	-0.448816
H101	H	-0.905671	-1.242997	-0.534297
