data_functionalizedCrystal
_audit_creation_method	'MofGen! by Chris Wilmer'
_symmetry_space_group_name_H-M	'P1'
_symmetry_Int_Tables_number	1
_symmetry_cell_setting	triclinic
loop_
_symmetry_equiv_pos_as_xyz
  x,y,z
_cell_length_a	14.853569
_cell_length_b	14.519709
_cell_length_c	13.930277
_cell_angle_alpha	89.994503
_cell_angle_beta	89.994756
_cell_angle_gamma	83.657855
loop_
_atom_site_label
_atom_site_type_symbol
_atom_site_fract_x
_atom_site_fract_y
_atom_site_fract_z
O1	O	1.196414	0.120411	-0.079789
O2	O	1.696414	0.620411	0.420211
O3	O	0.933960	0.134753	-0.079801
O4	O	1.433960	0.634753	0.420199
O5	O	1.072146	-0.006659	-0.079786
O6	O	1.572146	0.493341	0.420214
O7	O	1.058229	0.261824	-0.079804
O8	O	1.558229	0.761824	0.420196
O9	O	1.072127	-0.006662	0.079876
O10	O	1.572127	0.493338	0.579876
O11	O	0.933941	0.134750	0.079861
O12	O	1.433941	0.634750	0.579861
O13	O	1.196395	0.120408	0.079873
O14	O	1.696395	0.620408	0.579873
Zn15	Zn	1.065165	0.127579	0.105217
Zn16	Zn	1.565165	0.627579	0.605217
Zn17	Zn	1.065190	0.127583	-0.105145
Zn18	Zn	1.565190	0.627583	0.394855
O19	O	1.058210	0.261820	0.079858
O20	O	1.558210	0.761820	0.579858
C21	C	0.900362	0.134102	0.000029
C22	C	1.400362	0.634102	0.500029
C23	C	0.800278	0.132153	0.000024
C24	C	1.300278	0.632153	0.500024
C25	C	0.763868	0.047238	0.000027
C26	C	1.263868	0.547238	0.500027
C27	C	0.742644	0.215239	0.000026
C28	C	1.242644	0.715239	0.500026
C29	C	0.648609	0.213412	0.000027
C30	C	1.148609	0.713412	0.500027
C31	C	0.612199	0.128496	0.000030
C32	C	1.112199	0.628496	0.500030
C33	C	0.669825	0.045407	0.000031
C34	C	1.169825	0.545407	0.500031
C35	C	0.590977	0.296498	0.000036
C36	C	1.090977	0.796498	0.500036
C37	C	0.496936	0.294674	0.000038
C38	C	0.996936	0.794674	0.500038
C39	C	0.460525	0.209757	0.000034
C40	C	0.960525	0.709757	0.500034
C41	C	0.518156	0.126666	0.000034
C42	C	1.018156	0.626666	0.500034
C43	C	0.481747	0.041750	0.000036
C44	C	0.981747	0.541750	0.500036
C45	C	0.539377	-0.041343	0.000029
C46	C	1.039377	0.458657	0.500029
C47	C	0.633414	-0.039509	0.000026
C48	C	1.133414	0.460491	0.500026
C49	C	0.366487	0.207924	0.000037
C50	C	0.866487	0.707924	0.500037
C51	C	0.387703	0.039920	0.000040
C52	C	0.887703	0.539920	0.500040
C53	C	1.071488	-0.041020	0.000045
C54	C	1.571488	0.458980	0.500045
C55	C	1.069544	-0.143400	0.000046
C56	C	1.569544	0.356600	0.500046
C57	C	1.062389	-0.518293	0.000020
C58	C	1.562389	-0.018293	0.500020
C59	C	1.064376	-0.413986	0.000028
C60	C	1.564376	0.086014	0.500028
C61	C	1.065966	-0.330850	0.000034
C62	C	1.565966	0.169150	0.500034
C63	C	1.067954	-0.226536	0.000039
C64	C	1.567954	0.273464	0.500039
C65	C	1.229994	0.121060	0.000041
C66	C	1.729994	0.621060	0.500041
C67	C	1.330078	0.123008	0.000039
C68	C	1.830078	0.623008	0.500039
C69	C	1.058868	0.296182	0.000025
C70	C	1.558868	0.796182	0.500025
C71	C	1.060811	0.398562	0.000018
C72	C	1.560811	0.898562	0.500018
N73	N	1.065154	0.127575	0.248783
N74	N	1.565154	0.627575	0.748783
N75	N	1.065208	0.127579	-0.248711
N76	N	1.565208	0.627579	0.251289
C77	C	1.004000	0.190175	0.701045
C78	C	1.504000	0.690175	1.201045
C79	C	1.126406	0.064983	0.701028
C80	C	1.626406	0.564983	1.201028
C81	C	1.126395	0.064980	0.600532
C82	C	1.626395	0.564980	1.100532
C83	C	1.065187	0.127577	0.550289
C84	C	1.565187	0.627577	1.050289
C85	C	1.003989	0.190176	0.600540
C86	C	1.503989	0.690176	1.100540
C87	C	1.187598	0.002388	0.550273
C88	C	1.687598	0.502388	1.050273
C89	C	1.187591	0.002383	0.449771
C90	C	1.687591	0.502383	0.949771
C91	C	1.126377	0.064976	0.399525
C92	C	1.626377	0.564976	0.899525
C93	C	1.065176	0.127578	0.449783
C94	C	1.565176	0.627578	0.949783
C95	C	1.003967	0.190174	0.399540
C96	C	1.503967	0.690174	0.899540
C97	C	0.942761	0.252772	0.449796
C98	C	1.442761	0.752772	0.949796
C99	C	0.942775	0.252769	0.550295
C100	C	1.442775	0.752769	1.050295
C101	C	1.126363	0.064979	0.299027
C102	C	1.626363	0.564979	0.799027
C103	C	1.003956	0.190175	0.299035
C104	C	1.503956	0.690175	0.799035
H105	H	0.450021	0.362334	0.000042
H106	H	0.950021	0.862334	0.500042
Br107	Br	1.270673	-0.082554	0.618457
Br108	Br	1.770673	0.417446	1.118457
Br109	Br	0.288280	0.320682	0.000062
Br110	Br	0.788280	0.820682	0.500062
H111	H	1.237427	-0.048588	0.408858
H112	H	1.737427	0.451412	0.908858
Br113	Br	0.489952	-0.156582	0.000046
Br114	Br	0.989952	0.343418	0.500046
H115	H	0.954109	0.241146	0.258132
H116	H	1.454109	0.741146	0.758132
Br117	Br	1.209481	-0.019959	0.769212
Br118	Br	1.709481	0.480041	1.269212
Br119	Br	1.209430	-0.019961	0.230828
Br120	Br	1.709430	0.480039	0.730828
H121	H	0.680344	-0.107159	0.000023
H122	H	1.180344	0.392841	0.500023
Br123	Br	0.338298	-0.075330	0.000032
Br124	Br	0.838298	0.424670	0.500032
H125	H	0.810794	-0.020414	0.000017
H126	H	1.310794	0.479586	0.500017
Br127	Br	0.859703	0.337731	0.381597
Br128	Br	1.359703	0.837731	0.881597
H129	H	0.620629	0.365632	0.000040
H130	H	1.120629	0.865632	0.500040
Br131	Br	0.792057	0.330476	0.000028
Br132	Br	1.292057	0.830476	0.500028
H133	H	0.892944	0.303735	0.591220
H134	H	1.392944	0.803735	1.091220
H135	H	0.954164	0.241139	0.741967
H136	H	1.454164	0.741139	1.241967
