data_functionalizedCrystal
_audit_creation_method	'MofGen! by Chris Wilmer'
_symmetry_space_group_name_H-M	'P1'
_symmetry_Int_Tables_number	1
_symmetry_cell_setting	triclinic
loop_
_symmetry_equiv_pos_as_xyz
  x,y,z
_cell_length_a	12.827892
_cell_length_b	11.169417
_cell_length_c	11.169409
_cell_angle_alpha	90.021683
_cell_angle_beta	89.966914
_cell_angle_gamma	89.985670
loop_
_atom_site_label
_atom_site_type_symbol
_atom_site_fract_x
_atom_site_fract_y
_atom_site_fract_z
Zn1	Zn	-0.415978	-1.834920	-0.678596
Zn2	Zn	-0.165978	-1.584920	-0.428596
Zn3	Zn	0.084022	-1.334920	-0.178596
Zn4	Zn	0.334022	-1.084920	0.071404
Zn5	Zn	-0.590765	-1.834792	-0.477910
Zn6	Zn	-0.340765	-1.584792	-0.227910
Zn7	Zn	-0.090765	-1.334792	0.022090
Zn8	Zn	0.159235	-1.084792	0.272090
Zn9	Zn	-0.416036	-1.634206	-0.477924
Zn10	Zn	-0.166036	-1.384206	-0.227924
Zn11	Zn	0.083964	-1.134206	0.022076
Zn12	Zn	0.333964	-0.884206	0.272076
Zn13	Zn	-0.590674	-1.634196	-0.678549
Zn14	Zn	-0.340674	-1.384196	-0.428549
Zn15	Zn	-0.090674	-1.134196	-0.178549
Zn16	Zn	0.159326	-0.884196	0.071451
O17	O	-0.503363	-1.734529	-0.578245
O18	O	-0.253363	-1.484529	-0.328245
O19	O	-0.003363	-1.234529	-0.078245
O20	O	0.246637	-0.984529	0.171755
O21	O	-0.439178	-2.002853	-0.651989
O22	O	-0.189178	-1.752853	-0.401989
O23	O	0.060822	-1.502853	-0.151989
O24	O	0.310822	-1.252853	0.098011
O25	O	-0.567649	-1.808134	-0.309962
O26	O	-0.317649	-1.558134	-0.059962
O27	O	-0.067649	-1.308134	0.190038
O28	O	0.182351	-1.058134	0.440038
O29	O	-0.269792	-1.660889	-0.504569
O30	O	-0.019792	-1.410889	-0.254569
O31	O	0.230208	-1.160889	-0.004569
O32	O	0.480208	-0.910889	0.245431
O33	O	-0.567593	-2.002759	-0.504546
O34	O	-0.317593	-1.752759	-0.254546
O35	O	-0.067593	-1.502759	-0.004546
O36	O	0.182407	-1.252759	0.245454
O37	O	-0.269750	-1.808353	-0.652002
O38	O	-0.019750	-1.558353	-0.402002
O39	O	0.230250	-1.308353	-0.152002
O40	O	0.480250	-1.058353	0.097998
O41	O	-0.439276	-1.660765	-0.309972
O42	O	-0.189276	-1.410765	-0.059972
O43	O	0.060724	-1.160765	0.190028
O44	O	0.310724	-0.910765	0.440028
O45	O	-0.439188	-1.466255	-0.504523
O46	O	-0.189188	-1.216255	-0.254523
O47	O	0.060812	-0.966255	-0.004523
O48	O	0.310812	-0.716255	0.245477
O49	O	-0.567438	-1.660872	-0.846505
O50	O	-0.317438	-1.410872	-0.596505
O51	O	-0.067438	-1.160872	-0.346505
O52	O	0.182562	-0.910872	-0.096505
O53	O	-0.567494	-1.466248	-0.651921
O54	O	-0.317494	-1.216248	-0.401921
O55	O	-0.067494	-0.966248	-0.151921
O56	O	0.182506	-0.716248	0.098079
O57	O	-0.439090	-1.808343	-0.846540
O58	O	-0.189090	-1.558343	-0.596540
O59	O	0.060910	-1.308343	-0.346540
O60	O	0.310910	-1.058343	-0.096540
O61	O	-0.736989	-1.808124	-0.504500
O62	O	-0.486989	-1.558124	-0.254500
O63	O	-0.236989	-1.308124	-0.004500
O64	O	0.013011	-1.058124	0.245500
O65	O	-0.736923	-1.660747	-0.651908
O66	O	-0.486923	-1.410747	-0.401908
O67	O	-0.236923	-1.160747	-0.151908
O68	O	0.013077	-0.910747	0.098092
C69	C	-0.503338	-1.422704	-0.578219
C70	C	-0.253338	-1.172704	-0.328219
C71	C	-0.003338	-0.922704	-0.078219
C72	C	0.246662	-0.672704	0.171781
C73	C	-0.503353	-1.289304	-0.578237
C74	C	-0.253353	-1.039304	-0.328237
C75	C	-0.003353	-0.789304	-0.078237
C76	C	0.246647	-0.539304	0.171763
C77	C	-0.774873	-1.734453	-0.578224
C78	C	-0.524873	-1.484453	-0.328224
C79	C	-0.274873	-1.234453	-0.078224
C80	C	-0.024873	-0.984453	0.171776
C81	C	-0.891026	-1.734531	-0.578255
C82	C	-0.641026	-1.484531	-0.328255
C83	C	-0.391026	-1.234531	-0.078255
C84	C	-0.141026	-0.984531	0.171745
C85	C	-0.942810	-1.807545	-0.505393
C86	C	-0.692810	-1.557545	-0.255393
C87	C	-0.442810	-1.307545	-0.005393
C88	C	-0.192810	-1.057545	0.244607
C89	C	-1.062860	-1.807626	-0.505424
C90	C	-0.812860	-1.557626	-0.255424
C91	C	-0.562860	-1.307626	-0.005424
C92	C	-0.312860	-1.057626	0.244576
C93	C	-0.230793	-1.734637	-0.578292
C94	C	0.019207	-1.484637	-0.328292
C95	C	0.269207	-1.234637	-0.078292
C96	C	0.519207	-0.984637	0.171708
C97	C	-0.114640	-1.734683	-0.578312
C98	C	0.135360	-1.484683	-0.328312
C99	C	0.385360	-1.234683	-0.078312
C100	C	0.635360	-0.984683	0.171688
C101	C	-0.503247	-1.734621	-0.891287
C102	C	-0.253247	-1.484621	-0.641287
C103	C	-0.003247	-1.234621	-0.391287
C104	C	0.246753	-0.984621	-0.141287
C105	C	-0.503198	-1.734660	-1.024687
C106	C	-0.253198	-1.484660	-0.774687
C107	C	-0.003198	-1.234660	-0.524687
C108	C	0.246802	-0.984660	-0.274687
C109	C	-0.503380	-1.047571	-0.578262
C110	C	-0.253380	-0.797571	-0.328262
C111	C	-0.003380	-0.547571	-0.078262
C112	C	0.246620	-0.297571	0.171738
C113	C	-0.503365	-1.180971	-0.578244
C114	C	-0.253365	-0.930971	-0.328244
C115	C	-0.003365	-0.680971	-0.078244
C116	C	0.246635	-0.430971	0.171756
C117	C	-0.503404	-1.734506	-0.266420
C118	C	-0.253404	-1.484506	-0.016420
C119	C	-0.003404	-1.234506	0.233580
C120	C	0.246596	-0.984506	0.483580
C121	C	-0.503159	-1.734699	-0.133021
C122	C	-0.253159	-1.484699	0.116979
C123	C	-0.003159	-1.234699	0.366979
C124	C	0.246841	-0.984699	0.616979
H125	H	-1.107392	-1.870133	-0.443041
H126	H	-0.857392	-1.620133	-0.193041
H127	H	-0.607392	-1.370133	0.056959
H128	H	-0.357392	-1.120133	0.306959
O129	O	-0.944270	-1.660194	-0.652764
O130	O	-0.694270	-1.410194	-0.402764
O131	O	-0.444270	-1.160194	-0.152764
O132	O	-0.194270	-0.910194	0.097236
C133	C	-1.007280	-1.728595	-0.730314
C134	C	-0.757280	-1.478595	-0.480314
C135	C	-0.507280	-1.228595	-0.230314
C136	C	-0.257280	-0.978595	0.019686
H137	H	-1.023486	-1.819599	-0.688054
H138	H	-0.773486	-1.569599	-0.438054
H139	H	-0.523486	-1.319599	-0.188054
H140	H	-0.273486	-1.069599	0.061946
H141	H	-1.084102	-1.679835	-0.746296
H142	H	-0.834102	-1.429835	-0.496296
H143	H	-0.584102	-1.179835	-0.246296
H144	H	-0.334102	-0.929835	0.003704
H145	H	-0.965206	-1.741662	-0.819299
H146	H	-0.715206	-1.491662	-0.569299
H147	H	-0.465206	-1.241662	-0.319299
H148	H	-0.215206	-0.991662	-0.069299
H149	H	-0.898269	-1.869999	-0.442995
H150	H	-0.648269	-1.619999	-0.192995
H151	H	-0.398269	-1.369999	0.057005
H152	H	-0.148269	-1.119999	0.307005
H153	H	-1.070116	-1.672165	-0.640691
H154	H	-0.820116	-1.422165	-0.390691
H155	H	-0.570116	-1.172165	-0.140691
H156	H	-0.320116	-0.922165	0.109309
