data_functionalizedCrystal
_audit_creation_method	'MofGen! by Chris Wilmer'
_symmetry_space_group_name_H-M	'P1'
_symmetry_Int_Tables_number	1
_symmetry_cell_setting	triclinic
loop_
_symmetry_equiv_pos_as_xyz
  x,y,z
_cell_length_a	16.992694
_cell_length_b	23.532407
_cell_length_c	15.455313
_cell_angle_alpha	92.643560
_cell_angle_beta	87.142206
_cell_angle_gamma	86.758451
loop_
_atom_site_label
_atom_site_type_symbol
_atom_site_fract_x
_atom_site_fract_y
_atom_site_fract_z
O1	O	1.042902	0.118384	-0.072037
O2	O	1.542902	0.618384	0.427963
O3	O	0.814628	0.117059	-0.072062
O4	O	1.314628	0.617059	0.427938
O5	O	0.935648	0.035132	-0.072033
O6	O	1.435648	0.535132	0.427967
O7	O	0.921882	0.200311	-0.072066
O8	O	1.421882	0.700311	0.427934
O9	O	0.928727	0.039796	0.072228
O10	O	1.428727	0.539796	0.572228
O11	O	0.807707	0.121723	0.072198
O12	O	1.307707	0.621723	0.572198
O13	O	1.035981	0.123049	0.072224
O14	O	1.535981	0.623049	0.572224
Cu15	Cu	0.921212	0.122812	0.085383
Cu16	Cu	1.421212	0.622812	0.585383
Cu17	Cu	0.929397	0.117296	-0.085222
Cu18	Cu	1.429397	0.617296	0.414778
O19	O	0.914962	0.204976	0.072194
O20	O	1.414962	0.704976	0.572194
C21	C	0.781968	0.117688	0.000065
C22	C	1.281968	0.617688	0.500065
C23	C	0.694964	0.112604	0.000056
C24	C	1.194964	0.612604	0.500056
C25	C	0.644342	0.161650	0.000047
C26	C	1.144342	0.661650	0.500047
C27	C	0.562592	0.156871	0.000060
C28	C	1.062592	0.656871	0.500060
C29	C	0.531466	0.103045	0.000076
C30	C	1.031466	0.603045	0.500076
C31	C	0.582095	0.053995	0.000088
C32	C	1.082095	0.553995	0.500088
C33	C	0.663843	0.058775	0.000081
C34	C	1.163843	0.558775	0.500081
C35	C	0.288022	0.083234	0.000103
C36	C	0.788022	0.583234	0.500103
C37	C	0.206267	0.078457	0.000107
C38	C	0.706267	0.578457	0.500107
C39	C	0.186770	0.181334	0.000081
C40	C	0.686770	0.681334	0.500081
C41	C	0.268521	0.186109	0.000069
C42	C	0.768521	0.686109	0.500069
C43	C	0.319142	0.137059	0.000085
C44	C	0.819142	0.637059	0.500085
N45	N	0.447905	0.098158	0.000086
N46	N	0.947905	0.598158	0.500086
N47	N	0.402701	0.141946	0.000081
N48	N	0.902701	0.641946	0.500081
C49	C	0.931837	0.016231	0.000100
C50	C	1.431837	0.516231	0.500100
C51	C	0.930782	-0.047038	0.000106
C52	C	1.430782	0.452962	0.500106
C53	C	0.995791	-0.442917	0.000066
C54	C	1.495791	0.057083	0.500066
C55	C	0.994812	-0.502366	0.000059
C56	C	1.494812	-0.002366	0.500059
O57	O	1.055075	-0.536121	0.000034
O58	O	1.555075	-0.036121	0.500034
N59	N	0.922865	-0.528562	0.000052
N60	N	1.422865	-0.028562	0.500052
C61	C	0.851893	-0.495307	0.000042
C62	C	1.351893	0.004693	0.500042
O63	O	0.790607	-0.523048	0.000035
O64	O	1.290607	-0.023048	0.500035
C65	C	0.852873	-0.435859	0.000043
C66	C	1.352873	0.064141	0.500043
C67	C	0.924824	-0.409666	0.000059
C68	C	1.424824	0.090334	0.500059
C69	C	1.067736	-0.416723	0.000081
C70	C	1.567736	0.083277	0.500081
C71	C	1.068714	-0.357278	0.000089
C72	C	1.568714	0.142722	0.500089
C73	C	0.997748	-0.324027	0.000083
C74	C	1.497748	0.175973	0.500083
C75	C	0.925803	-0.350221	0.000067
C76	C	1.425803	0.149779	0.500067
C77	C	0.781902	-0.402605	0.000027
C78	C	1.281902	0.097395	0.500027
C79	C	0.782889	-0.343154	0.000027
C80	C	1.282889	0.156846	0.500027
C81	C	0.854839	-0.316960	0.000043
C82	C	1.354839	0.183040	0.500043
C83	C	0.855814	-0.257525	0.000069
C84	C	1.355814	0.242475	0.500069
N85	N	0.927761	-0.231328	0.000076
N86	N	1.427761	0.268672	0.500076
C87	C	0.998728	-0.264579	0.000083
C88	C	1.498728	0.235421	0.500083
C89	C	0.849841	-0.620151	0.000040
C90	C	1.349841	-0.120151	0.500040
C91	C	0.848860	-0.679598	0.000046
C92	C	1.348860	-0.179598	0.500046
C93	C	0.991779	-0.686653	0.000061
C94	C	1.491779	-0.186653	0.500061
C95	C	0.992759	-0.627205	0.000061
C96	C	1.492759	-0.127205	0.500061
C97	C	0.921788	-0.593955	0.000047
C98	C	1.421788	-0.093955	0.500047
C99	C	1.000777	-0.139740	0.000101
C100	C	1.500777	0.360260	0.500101
C101	C	1.001749	-0.080289	0.000113
C102	C	1.501749	0.419711	0.500113
C103	C	0.858831	-0.073240	0.000093
C104	C	1.358831	0.426760	0.500093
C105	C	0.857858	-0.132685	0.000086
C106	C	1.357858	0.367315	0.500086
C107	C	0.928838	-0.165934	0.000087
C108	C	1.428838	0.334066	0.500087
O109	O	0.795583	-0.223733	0.000090
O110	O	1.295583	0.276267	0.500090
O111	O	1.060004	-0.236831	0.000079
O112	O	1.560004	0.263169	0.500079
C113	C	1.068641	0.122420	0.000095
C114	C	1.568641	0.622420	0.500095
C115	C	1.155645	0.127504	0.000098
C116	C	1.655645	0.627504	0.500098
C117	C	0.918772	0.223877	0.000060
C118	C	1.418772	0.723877	0.500060
C119	C	0.919827	0.287146	0.000048
C120	C	1.419827	0.787146	0.500048
N121	N	0.915462	0.126692	0.205377
N122	N	1.415462	0.626692	0.705377
N123	N	0.935153	0.113412	-0.205216
N124	N	1.435153	0.613412	0.294784
C125	C	0.966893	0.091901	0.250784
C126	C	1.466893	0.591901	0.750784
C127	C	0.962551	0.094840	0.341591
C128	C	1.462551	0.594840	0.841591
C129	C	0.906782	0.132574	0.386989
C130	C	1.406782	0.632574	0.886989
C131	C	0.855345	0.167366	0.341576
C132	C	1.355345	0.667366	0.841576
C133	C	0.859684	0.164424	0.250771
C134	C	1.359684	0.664424	0.750771
C135	C	0.888055	0.145261	0.658566
C136	C	1.388055	0.645261	1.158566
C137	C	0.883722	0.148203	0.749378
C138	C	1.383722	0.648203	1.249378
C139	C	0.990928	0.075676	0.749386
C140	C	1.490928	0.575676	1.249386
C141	C	0.995265	0.072738	0.658579
C142	C	1.495265	0.572738	1.158579
C143	C	0.943825	0.107529	0.613174
C144	C	1.443825	0.607529	1.113174
N145	N	0.902344	0.135581	0.479808
N146	N	1.402344	0.635581	0.979808
N147	N	0.948260	0.104518	0.520356
N148	N	1.448260	0.604518	1.020356
H149	H	0.145546	0.221267	0.000069
H150	H	0.645546	0.721267	0.500069
H151	H	0.329228	0.043294	0.000117
H152	H	0.829228	0.543294	0.500117
H153	H	1.127304	-0.335957	0.000099
H154	H	1.627304	0.164043	0.500099
C155	C	1.192819	-0.443416	-0.074054
C156	C	1.692819	0.056584	0.425946
C157	C	1.145754	-0.453264	0.000093
C158	C	1.645754	0.046736	0.500093
H159	H	1.240989	-0.465970	-0.074037
H160	H	1.740989	0.034030	0.425963
H161	H	1.165719	-0.453342	-0.124358
H162	H	1.665719	0.046658	0.375642
H163	H	1.203678	-0.404258	-0.074045
H164	H	1.703678	0.095742	0.425955
H165	H	1.134889	-0.492422	0.000081
H166	H	1.634889	0.007578	0.500081
H167	H	1.172859	-0.443343	0.050410
H168	H	1.672859	0.056657	0.550410
H169	H	0.809932	0.198088	0.378545
H170	H	1.309932	0.698088	0.878545
C171	C	0.455801	0.213581	0.074204
C172	C	0.955801	0.713581	0.574204
C173	C	0.506946	0.210782	0.000042
C174	C	1.006946	0.710782	0.500042
H175	H	0.421451	0.246867	0.074193
H176	H	0.921451	0.746867	0.574193
H177	H	0.425570	0.180843	0.074214
H178	H	0.925570	0.680843	0.574214
H179	H	0.485700	0.214940	0.124503
H180	H	0.985700	0.714940	0.624503
H181	H	0.477048	0.209419	-0.050258
H182	H	0.977048	0.709419	0.449742
H183	H	0.537180	0.243528	0.000024
H184	H	1.037180	0.743528	0.500024
C185	C	0.814224	0.259959	0.222775
C186	C	1.314224	0.759959	0.722775
C187	C	0.803153	0.202669	0.200855
C188	C	1.303153	0.702669	0.700855
H189	H	0.779324	0.283569	0.191954
H190	H	1.279324	0.783569	0.691954
H191	H	0.803656	0.267109	0.283344
H192	H	1.303656	0.767109	0.783344
H193	H	0.867198	0.268055	0.207878
H194	H	1.367198	0.768055	0.707878
H195	H	0.750180	0.194572	0.215757
H196	H	1.250180	0.694572	0.715757
H197	H	0.813716	0.195516	0.140272
H198	H	1.313716	0.695516	0.640272
H199	H	0.556745	0.010169	0.000113
H200	H	1.056745	0.510169	0.500113
C201	C	0.233746	-0.022756	0.000142
C202	C	0.733746	0.477244	0.500142
C203	C	0.172052	0.019288	0.000126
C204	C	0.672052	0.519288	0.500126
H205	H	0.212620	-0.059282	0.000156
H206	H	0.712620	0.440718	0.500156
H207	H	0.267633	-0.020382	-0.050162
H208	H	0.767633	0.479618	0.449838
H209	H	0.262817	-0.017122	0.050452
H210	H	0.762817	0.482878	0.550452
H211	H	0.142985	0.013656	-0.050187
H212	H	0.642985	0.513656	0.449813
H213	H	0.138151	0.016912	0.050435
H214	H	0.638151	0.516912	0.550435
C215	C	0.674909	-0.043393	0.000092
C216	C	1.174909	0.456607	0.500092
C217	C	0.719490	0.004862	0.000083
C218	C	1.219490	0.504862	0.500083
H219	H	0.709265	-0.076677	0.000090
H220	H	1.209265	0.423323	0.500090
H221	H	0.640216	-0.041492	0.050399
H222	H	1.140216	0.458508	0.550399
H223	H	0.645022	-0.044740	-0.050215
H224	H	1.145022	0.455260	0.449785
H225	H	0.749374	0.006211	0.050394
H226	H	1.249374	0.506211	0.550394
H227	H	0.754198	0.002961	-0.050228
H228	H	1.254198	0.502961	0.449772
C229	C	0.241034	0.287318	0.000059
C230	C	0.741034	0.787318	0.500059
C231	C	0.302732	0.245276	0.000060
C232	C	0.802732	0.745276	0.500060
H233	H	0.262156	0.323845	0.000057
H234	H	0.762156	0.823845	0.500057
H235	H	0.211963	0.281689	-0.050243
H236	H	0.711963	0.781689	0.449757
H237	H	0.207147	0.284936	0.050372
H238	H	0.707147	0.784936	0.550372
H239	H	0.336615	0.247655	-0.050256
H240	H	0.836615	0.747655	0.449744
H241	H	0.331816	0.250907	0.050366
H242	H	0.831816	0.750907	0.550366
C243	C	1.079043	-0.208292	0.074262
C244	C	1.579043	0.291708	0.574262
C245	C	1.078797	-0.176283	0.000107
C246	C	1.578797	0.323717	0.500107
H247	H	1.127207	-0.230854	0.074265
H248	H	1.627207	0.269146	0.574265
H249	H	1.074037	-0.183333	0.124561
H250	H	1.574037	0.316667	0.624561
H251	H	1.036057	-0.232404	0.074242
H252	H	1.536057	0.267596	0.574242
H253	H	1.121780	-0.152167	0.000131
H254	H	1.621780	0.347833	0.500131
H255	H	1.083811	-0.201244	-0.050204
H256	H	1.583811	0.298756	0.449796
H257	H	1.060342	-0.058966	0.000129
H258	H	1.560342	0.441034	0.500129
C259	C	1.133926	-0.640163	0.000070
C260	C	1.633926	-0.140163	0.500070
C261	C	1.071849	-0.598416	0.000065
C262	C	1.571849	-0.098416	0.500065
H263	H	1.182755	-0.622392	0.000065
H264	H	1.682755	-0.122392	0.500065
H265	H	1.128158	-0.661577	0.050377
H266	H	1.628158	-0.161577	0.550377
H267	H	1.132972	-0.664829	-0.050238
H268	H	1.632972	-0.164829	0.449762
H269	H	1.072800	-0.573754	0.050377
H270	H	1.572800	-0.073754	0.550377
H271	H	1.077620	-0.576994	-0.050246
H272	H	1.577620	-0.076994	0.449754
H273	H	1.049564	-0.713737	0.000063
H274	H	1.549564	-0.213737	0.500063
C275	C	0.707692	-0.666638	0.000029
C276	C	1.207692	-0.166638	0.500029
C277	C	0.769769	-0.708385	0.000035
C278	C	1.269769	-0.208385	0.500035
H279	H	0.658864	-0.684411	0.000013
H280	H	1.158864	-0.184411	0.500013
H281	H	0.708635	-0.641981	0.050336
H282	H	1.208635	-0.141981	0.550336
H283	H	0.713471	-0.645217	-0.050278
H284	H	1.213471	-0.145217	0.449722
H285	H	0.763993	-0.729804	0.050345
H286	H	1.263993	-0.229804	0.550345
H287	H	0.768824	-0.733052	-0.050278
H288	H	1.268824	-0.233052	0.449722
H289	H	0.792043	-0.593082	0.000036
H290	H	1.292043	-0.093082	0.500036
C291	C	1.068974	0.022872	0.332478
C292	C	1.568974	0.522872	0.832478
C293	C	1.019098	0.056606	0.391502
C294	C	1.519098	0.556606	0.891502
H295	H	1.103890	-0.000728	0.363292
H296	H	1.603890	0.499272	0.863292
H297	H	1.038208	-0.000259	0.297079
H298	H	1.538208	0.499741	0.797079
H299	H	1.098660	0.046728	0.297042
H300	H	1.598660	0.546728	0.797042
H301	H	0.989408	0.032750	0.426933
H302	H	1.489408	0.532750	0.926933
H303	H	1.049868	0.079739	0.426915
H304	H	1.549868	0.579739	0.926915
H305	H	0.723313	-0.423922	0.000009
H306	H	1.223313	0.076078	0.500009
H307	H	0.669678	0.205481	0.000033
H308	H	1.169678	0.705481	0.500033
H309	H	0.725094	-0.316084	0.000014
H310	H	1.225094	0.183916	0.500014
H311	H	0.799269	-0.154012	0.000097
H312	H	1.299269	0.345988	0.500097
H313	H	0.801051	-0.046156	0.000091
H314	H	1.301051	0.453844	0.500091
C315	C	1.100789	0.001337	0.667712
C316	C	1.600789	0.501337	1.167712
C317	C	1.056564	0.031257	0.608680
C318	C	1.556564	0.531257	1.108680
H319	H	1.138631	-0.024273	0.636904
H320	H	1.638631	0.475727	1.136904
H321	H	1.127105	0.027477	0.703113
H322	H	1.627105	0.527477	1.203113
H323	H	1.066624	-0.019491	0.703144
H324	H	1.566624	0.480509	1.203144
H325	H	1.090729	0.052088	0.573251
H326	H	1.590729	0.552088	1.073251
H327	H	1.030248	0.005113	0.573263
H328	H	1.530248	0.505113	1.073263
C329	C	0.778164	0.219585	0.740254
C330	C	1.278164	0.719585	1.240254
C331	C	0.822404	0.189674	0.799282
C332	C	1.322404	0.689674	1.299282
H333	H	0.740308	0.245183	0.771065
H334	H	1.240308	0.745183	1.271065
H335	H	0.812311	0.240422	0.704828
H336	H	1.312311	0.740422	1.204828
H337	H	0.751859	0.193435	0.704846
H338	H	1.251859	0.693435	1.204846
H339	H	0.848714	0.215824	0.834686
H340	H	1.348714	0.715824	1.334686
H341	H	0.788252	0.168837	0.834723
H342	H	1.288252	0.668837	1.334723
H343	H	1.012310	0.061176	0.213826
H344	H	1.512310	0.561176	0.713826
C345	C	0.875322	0.218655	0.556439
C346	C	1.375322	0.718655	1.056439
C347	C	0.831524	0.183512	0.608668
C348	C	1.331524	0.683512	1.108668
H349	H	0.840420	0.242270	0.525630
H350	H	1.340420	0.742270	1.025630
H351	H	0.906094	0.241771	0.591853
H352	H	1.406094	0.741771	1.091853
H353	H	0.909146	0.195754	0.516403
H354	H	1.409146	0.695754	1.016403
H355	H	0.797703	0.206413	0.648708
H356	H	1.297703	0.706413	1.148708
H357	H	0.800738	0.160394	0.573251
H358	H	1.300738	0.660394	1.073251
H359	H	1.032806	0.047350	0.786363
H360	H	1.532806	0.547350	1.286363
