data_functionalizedCrystal
_audit_creation_method	'MofGen! by Chris Wilmer'
_symmetry_space_group_name_H-M	'P1'
_symmetry_Int_Tables_number	1
_symmetry_cell_setting	triclinic
loop_
_symmetry_equiv_pos_as_xyz
  x,y,z
_cell_length_a	10.489741
_cell_length_b	17.038272
_cell_length_c	8.965430
_cell_angle_alpha	90.000179
_cell_angle_beta	89.998843
_cell_angle_gamma	87.825365
loop_
_atom_site_label
_atom_site_type_symbol
_atom_site_fract_x
_atom_site_fract_y
_atom_site_fract_z
O1	O	1.704377	0.110369	-0.123948
O2	O	1.334150	0.120730	-0.123972
O3	O	1.517063	0.001722	-0.123948
O4	O	1.521464	0.229378	-0.123972
O5	O	1.517047	0.001729	0.124130
O6	O	1.334134	0.120738	0.124107
O7	O	1.704361	0.110377	0.124130
Cu8	Cu	1.519246	0.115558	0.146770
Cu9	Cu	1.519265	0.115549	-0.146612
O10	O	1.521448	0.229386	0.124107
C11	C	1.286537	0.119951	0.000065
C12	C	1.144689	0.117610	0.000056
C13	C	1.069466	0.041889	0.000078
C14	C	0.980693	0.077655	-0.122238
C15	C	0.980713	0.077681	0.122348
C16	C	1.057784	0.153408	-0.122361
C17	C	1.057813	0.153423	0.122335
C18	C	0.969072	0.189244	-0.000011
C19	C	1.513053	-0.027426	0.000091
C20	C	1.501111	-0.114288	0.000089
C21	C	1.610749	-0.163767	0.000098
C22	C	1.599521	-0.245383	0.000083
C23	C	1.478654	-0.277518	0.000070
C24	C	1.369007	-0.228032	0.000057
C25	C	1.380237	-0.146418	0.000062
C26	C	1.438983	-0.523505	0.000047
C27	C	1.427762	-0.605126	0.000048
C28	C	1.658277	-0.622471	0.000071
C29	C	1.669495	-0.540855	0.000084
C30	C	1.559849	-0.491376	0.000063
C31	C	1.467174	-0.360942	0.000060
C32	C	1.571330	-0.407954	0.000063
C33	C	1.751974	0.111156	0.000091
C34	C	1.893822	0.113497	0.000089
C35	C	1.525458	0.258533	0.000065
C36	C	1.537400	0.345395	0.000056
N37	N	1.519243	0.115564	0.353119
N38	N	1.519278	0.115537	-0.352961
C39	C	1.434622	0.170583	0.450415
C40	C	1.551599	0.186413	0.549834
C41	C	1.402315	0.099741	0.549828
C42	C	1.636282	0.131430	0.450350
C43	C	1.486918	0.044727	0.450335
C44	C	1.603976	0.060527	0.549709
H45	H	1.091613	0.185419	-0.225887
H46	H	1.349700	-0.483229	0.000031
Br47	Br	0.924072	0.024265	0.294705
H48	H	1.688801	-0.285666	0.000093
Br49	Br	1.204971	-0.271642	0.000015
Br50	Br	1.723406	-0.017047	0.621931
Br51	Br	1.774791	-0.120164	0.000137
Br52	Br	1.801173	0.153831	0.377838
H53	H	1.368763	-0.387115	0.000053
H54	H	1.329333	-0.631286	0.000062
H55	H	1.113334	-0.020359	-0.000069
Br56	Br	1.735359	-0.364341	0.000067
Br57	Br	1.597214	0.286238	0.622677
Br58	Br	1.441254	-0.055071	0.377429
Br59	Br	1.833536	-0.497249	0.000053
Br60	Br	1.231436	-0.079266	0.000038
H61	H	1.363135	0.217154	0.406817
H62	H	1.747544	-0.662765	0.000085
Br63	Br	0.924021	0.024253	-0.294594
Br64	Br	1.237480	0.077454	0.622667
Br65	Br	1.114543	0.206788	0.294693
H66	H	0.925476	0.251558	-0.000084
