data_functionalizedCrystal
_audit_creation_method	'MofGen! by Chris Wilmer'
_symmetry_space_group_name_H-M	'P1'
_symmetry_Int_Tables_number	1
_symmetry_cell_setting	triclinic
loop_
_symmetry_equiv_pos_as_xyz
  x,y,z
_cell_length_a	14.519709
_cell_length_b	8.559649
_cell_length_c	7.681481
_cell_angle_alpha	85.069100
_cell_angle_beta	95.739713
_cell_angle_gamma	76.729405
loop_
_atom_site_label
_atom_site_type_symbol
_atom_site_fract_x
_atom_site_fract_y
_atom_site_fract_z
O1	O	1.199063	0.224489	-0.146196
O2	O	1.532396	0.557822	0.187138
O3	O	1.865729	0.891156	0.520471
O4	O	0.928812	0.249156	-0.146249
O5	O	1.262145	0.582489	0.187085
O6	O	1.595479	0.915822	0.520418
O7	O	1.087747	0.004288	-0.146216
O8	O	1.421080	0.337621	0.187118
O9	O	1.754413	0.670954	0.520451
O10	O	1.040128	0.469357	-0.146229
O11	O	1.373461	0.802690	0.187105
O12	O	1.706795	1.136023	0.520438
O13	O	1.107314	-0.025920	0.146646
O14	O	1.440647	0.307413	0.479979
O15	O	1.773981	0.640747	0.813313
O16	O	0.948379	0.218948	0.146613
O17	O	1.281713	0.552281	0.479946
O18	O	1.615046	0.885615	0.813280
O19	O	1.218630	0.194281	0.146666
O20	O	1.551963	0.527615	0.480000
O21	O	1.885296	0.860948	0.813333
Zn22	Zn	1.086611	0.201819	0.193138
Zn23	Zn	1.419945	0.535152	0.526471
Zn24	Zn	1.753278	0.868485	0.859804
Zn25	Zn	1.060831	0.241618	-0.192720
Zn26	Zn	1.394164	0.574952	0.140613
Zn27	Zn	1.727497	0.908285	0.473946
O28	O	1.059695	0.439149	0.146633
O29	O	1.393028	0.772483	0.479966
O30	O	1.726362	1.105816	0.813300
C31	C	1.101139	-0.070335	0.000213
C32	C	1.434472	0.262998	0.333546
C33	C	1.767805	0.596331	0.666879
C34	C	1.111880	-0.247684	0.000205
C35	C	1.445213	0.085649	0.333538
C36	C	1.778546	0.418983	0.666872
C37	C	0.904318	0.232903	0.000175
C38	C	1.237651	0.566236	0.333509
C39	C	1.570985	0.899570	0.666842
C40	C	0.802183	0.229461	0.000155
C41	C	1.135516	0.562795	0.333488
C42	C	1.468849	0.896128	0.666822
C43	C	0.428202	0.216774	0.000235
C44	C	0.761535	0.550107	0.333569
C45	C	1.094869	0.883440	0.666902
C46	C	0.532256	0.220297	0.000212
C47	C	0.865589	0.553630	0.333546
C48	C	1.198923	0.886964	0.666879
C49	C	0.615189	0.223117	0.000193
C50	C	0.948522	0.556451	0.333527
C51	C	1.281856	0.889784	0.666860
C52	C	0.719249	0.226641	0.000174
C53	C	1.052583	0.559974	0.333507
C54	C	1.385916	0.893308	0.666841
C55	C	1.243124	0.210534	0.000238
C56	C	1.576457	0.543868	0.333572
C57	C	1.909790	0.877201	0.666905
C58	C	1.345258	0.213977	0.000247
C59	C	1.678592	0.547311	0.333580
C60	C	2.011925	0.880644	0.666914
C61	C	1.046303	0.513773	0.000201
C62	C	1.379636	0.847106	0.333534
C63	C	1.712969	1.180439	0.666868
C64	C	1.035561	0.691123	0.000197
C65	C	1.368894	1.024456	0.333530
C66	C	1.702228	1.357789	0.666864
N67	N	1.104212	0.174655	0.456476
N68	N	1.437546	0.507989	0.789809
N69	N	1.770879	0.841322	1.123142
N70	N	1.043238	0.268769	-0.456058
N71	N	1.376571	0.602102	-0.122725
N72	N	1.709904	0.935436	0.210608
H73	H	0.962003	-0.225590	0.000188
H74	H	1.295337	0.107743	0.333521
H75	H	1.628670	0.441077	0.666855
C76	C	1.211262	-0.360210	0.000234
C77	C	1.544595	-0.026877	0.333568
C78	C	1.877929	0.306457	0.666901
N79	N	1.286115	-0.444965	0.000254
N80	N	1.619449	-0.111632	0.333587
N81	N	1.952782	0.221701	0.666920
H82	H	0.980995	0.364830	0.468732
H83	H	1.314329	0.698164	0.802065
H84	H	1.647662	1.031497	1.135399
H85	H	1.166465	0.078599	0.531694
H86	H	1.499798	0.411933	0.865028
H87	H	1.833131	0.745266	1.198361
