data_functionalizedCrystal
_audit_creation_method	'MofGen! by Chris Wilmer'
_symmetry_space_group_name_H-M	'P1'
_symmetry_Int_Tables_number	1
_symmetry_cell_setting	triclinic
loop_
_symmetry_equiv_pos_as_xyz
  x,y,z
_cell_length_a	12.759401
_cell_length_b	19.805399
_cell_length_c	12.759399
_cell_angle_alpha	90.025060
_cell_angle_beta	89.984458
_cell_angle_gamma	89.987127
loop_
_atom_site_label
_atom_site_type_symbol
_atom_site_fract_x
_atom_site_fract_y
_atom_site_fract_z
Zn1	Zn	1.606193	-0.382666	0.418264
Zn2	Zn	2.106193	0.117334	0.918264
Zn3	Zn	1.606103	-0.269485	0.593962
Zn4	Zn	2.106103	0.230515	1.093962
Zn5	Zn	1.430512	-0.269498	0.418299
Zn6	Zn	1.930512	0.230502	0.918299
Zn7	Zn	1.430482	-0.382640	0.593903
Zn8	Zn	1.930482	0.117360	1.093903
O9	O	1.518323	-0.326072	0.506107
O10	O	2.018323	0.173928	1.006107
O11	O	1.753202	-0.367657	0.441581
O12	O	2.253202	0.132343	0.941581
O13	O	1.582786	-0.174770	0.570699
O14	O	2.082786	0.325230	1.070699
O15	O	1.453867	-0.284526	0.271273
O16	O	1.953867	0.215474	0.771273
O17	O	1.753136	-0.284504	0.570665
O18	O	2.253136	0.215496	1.070665
O19	O	1.582938	-0.367670	0.271248
O20	O	2.082938	0.132330	0.771248
O21	O	1.453780	-0.174780	0.441640
O22	O	1.953780	0.325220	0.941640
O23	O	1.283487	-0.284501	0.441583
O24	O	1.783487	0.215499	0.941583
O25	O	1.453815	-0.477360	0.570565
O26	O	1.953815	0.022640	1.070565
O27	O	1.283465	-0.367626	0.570599
O28	O	1.783465	0.132374	1.070599
O29	O	1.582909	-0.477379	0.441524
O30	O	2.082909	0.022621	0.941524
O31	O	1.582757	-0.284479	0.740975
O32	O	2.082757	0.215521	1.240975
O33	O	1.453729	-0.367613	0.740932
O34	O	1.953729	0.132387	1.240932
C35	C	1.245355	-0.326063	0.506089
C36	C	1.745355	0.173937	1.006089
C37	C	1.128579	-0.326075	0.506106
C38	C	1.628579	0.173925	1.006106
C39	C	1.518369	-0.502615	0.506034
C40	C	2.018369	-0.002615	1.006034
C41	C	1.518388	-0.577847	0.506003
C42	C	2.018388	-0.077847	1.006003
C43	C	1.073751	-0.369439	0.439014
C44	C	1.573751	0.130561	0.939014
C45	C	0.964027	-0.369444	0.439024
C46	C	1.464027	0.130556	0.939024
C47	C	0.963967	-0.282717	0.573230
C48	C	1.463967	0.217283	1.073230
C49	C	1.073689	-0.282710	0.573213
C50	C	1.573689	0.217290	1.073213
C51	C	1.451234	-0.613196	0.438796
C52	C	1.951234	-0.113196	0.938796
C53	C	1.451249	-0.683884	0.438775
C54	C	1.951249	-0.183884	0.938775
C55	C	1.518423	-0.719223	0.505958
C56	C	2.018423	-0.219223	1.005958
C57	C	1.585581	-0.683869	0.573172
C58	C	2.085581	-0.183869	1.073172
C59	C	1.585560	-0.613182	0.573197
C60	C	2.085560	-0.113182	1.073197
C61	C	1.585664	-0.968943	0.573074
C62	C	2.085664	-0.468943	1.073074
C63	C	1.585682	-1.039635	0.573042
C64	C	2.085682	-0.539635	1.073042
C65	C	1.451352	-1.039645	0.438652
C66	C	1.951352	-0.539645	0.938652
C67	C	1.451332	-0.968958	0.438677
C68	C	1.951332	-0.468958	0.938677
C69	C	1.518485	-0.933610	0.505895
C70	C	2.018485	-0.433610	1.005895
C71	C	1.518467	-0.856962	0.505918
C72	C	2.018467	-0.356962	1.005918
C73	C	1.518447	-0.795870	0.505930
C74	C	2.018447	-0.295870	1.005930
C75	C	1.792356	-0.326082	0.506126
C76	C	2.292356	0.173918	1.006126
C77	C	1.909133	-0.326086	0.506134
C78	C	2.409133	0.173914	1.006134
C79	C	1.518258	-0.326057	0.779074
C80	C	2.018258	0.173943	1.279074
C81	C	1.518327	-0.326073	0.895851
C82	C	2.018327	0.173927	1.395851
C83	C	1.518337	-0.150216	0.506104
C84	C	2.018337	0.349784	1.006104
C85	C	1.518521	-0.074985	0.505839
C86	C	2.018521	0.425015	1.005839
C87	C	1.518416	-0.326102	0.232074
C88	C	2.018416	0.173898	0.732074
C89	C	1.518456	-0.326115	0.115297
C90	C	2.018456	0.173885	0.615297
C91	C	1.585588	-0.282834	0.950700
C92	C	2.085588	0.217166	1.450700
C93	C	1.585656	-0.282857	1.060424
C94	C	2.085656	0.217143	1.560424
C95	C	1.451191	-0.369359	1.060440
C96	C	1.951191	0.130641	1.560440
C97	C	1.451130	-0.369339	0.950718
C98	C	1.951130	0.130661	1.450718
H99	H	1.118439	-0.404748	0.384368
H100	H	1.618439	0.095252	0.884368
H101	H	1.118331	-0.247393	0.627849
H102	H	1.618331	0.252607	1.127849
H103	H	0.919392	-0.404755	0.384389
H104	H	1.419392	0.095245	0.884389
H105	H	1.640306	-0.247605	0.906030
H106	H	2.140306	0.252395	1.406030
H107	H	1.396357	-0.404553	0.906056
H108	H	1.896357	0.095447	1.406056
H109	H	0.919263	-0.247412	0.627866
H110	H	1.419263	0.252588	1.127866
H111	H	1.640333	-0.940171	0.627819
H112	H	2.140333	-0.440171	1.127819
Cl113	Cl	1.670023	-0.728295	0.657637
Cl114	Cl	2.170023	-0.228295	1.157637
H115	H	1.396561	-0.712662	0.384052
H116	H	1.896561	-0.212662	0.884052
Cl117	Cl	1.366786	-0.568777	0.354328
Cl118	Cl	1.866786	-0.068777	0.854328
H119	H	1.640429	-0.247648	1.105078
H120	H	2.140429	0.252352	1.605078
Cl121	Cl	1.366716	-0.423746	1.129423
Cl122	Cl	1.866716	0.076254	1.629423
H123	H	1.396635	-0.940188	0.383966
H124	H	1.896635	-0.440188	0.883966
H125	H	1.396670	-1.068433	0.383923
H126	H	1.896670	-0.568433	0.883923
H127	H	1.640386	-1.068405	0.627754
H128	H	2.140386	-0.568405	1.127754
H129	H	1.640252	-0.584402	0.627916
H130	H	2.140252	-0.084402	1.127916
