data_functionalizedCrystal
_audit_creation_method	'MofGen! by Chris Wilmer'
_symmetry_space_group_name_H-M	'P1'
_symmetry_Int_Tables_number	1
_symmetry_cell_setting	triclinic
loop_
_symmetry_equiv_pos_as_xyz
  x,y,z
_cell_length_a	25.639242
_cell_length_b	25.639240
_cell_length_c	19.076919
_cell_angle_alpha	87.738531
_cell_angle_beta	87.727009
_cell_angle_gamma	90.027658
loop_
_atom_site_label
_atom_site_type_symbol
_atom_site_fract_x
_atom_site_fract_y
_atom_site_fract_z
Zn1	Zn	0.787383	-0.220112	0.398053
Zn2	Zn	1.287383	0.279888	0.898053
Zn3	Zn	0.790824	-0.304033	0.280341
Zn4	Zn	1.290824	0.195967	0.780341
Zn5	Zn	0.703467	-0.216607	0.280357
Zn6	Zn	1.203467	0.283393	0.780357
Zn7	Zn	0.699916	-0.307508	0.397978
Zn8	Zn	1.199916	0.192492	0.897978
O9	O	0.745397	-0.262065	0.339182
O10	O	1.245397	0.237935	0.839182
O11	O	0.861004	-0.231257	0.382463
O12	O	1.361004	0.268743	0.882463
O13	O	0.782162	-0.289515	0.181855
O14	O	1.282162	0.210485	0.681855
O15	O	0.714645	-0.143907	0.296007
O16	O	1.214645	0.356093	0.796007
O17	O	0.863532	-0.292914	0.295981
O18	O	1.363532	0.207086	0.795981
O19	O	0.776298	-0.146483	0.382478
O20	O	1.276298	0.353517	0.882478
O21	O	0.717982	-0.225283	0.181867
O22	O	1.217982	0.274717	0.681867
O23	O	0.629832	-0.228652	0.295934
O24	O	1.129832	0.271348	0.795934
O25	O	0.708592	-0.298836	0.496476
O26	O	1.208592	0.201164	0.996476
O27	O	0.627222	-0.295437	0.382350
O28	O	1.127222	0.204563	0.882350
O29	O	0.772854	-0.234626	0.496531
O30	O	1.272854	0.265374	0.996531
O31	O	0.778718	-0.377658	0.295908
O32	O	1.278718	0.122342	0.795908
O33	O	0.711929	-0.380211	0.382335
O34	O	1.211929	0.119789	0.882335
C35	C	0.609556	-0.262042	0.339136
C36	C	1.109556	0.237958	0.839136
C37	C	0.551442	-0.262045	0.339133
C38	C	1.051442	0.237955	0.839133
C39	C	0.301595	-0.227237	0.294263
C40	C	0.801595	0.272763	0.794263
C41	C	0.356200	-0.227231	0.294254
C42	C	0.856200	0.272769	0.794254
O43	O	0.385582	-0.197604	0.256064
O44	O	0.885582	0.302396	0.756064
N45	N	0.382167	-0.262052	0.339169
N46	N	0.882167	0.237948	0.839169
C47	C	0.353528	-0.296877	0.384100
C48	C	0.853528	0.203123	0.884100
O49	O	0.380629	-0.326494	0.422303
O50	O	0.880629	0.173506	0.922303
C51	C	0.298924	-0.296879	0.384112
C52	C	0.798924	0.203121	0.884112
C53	C	0.272959	-0.262059	0.339190
C54	C	0.772959	0.237941	0.839190
C55	C	0.275630	-0.192420	0.249345
C56	C	0.775630	0.307580	0.749345
C57	C	0.221029	-0.192425	0.249353
C58	C	0.721029	0.307575	0.749353
C59	C	0.192393	-0.227248	0.294280
C60	C	0.692393	0.272752	0.794280
C61	C	0.218358	-0.262065	0.339198
C62	C	0.718358	0.237935	0.839198
C63	C	0.270285	-0.331700	0.429047
C64	C	0.770285	0.168300	0.929047
C65	C	0.215678	-0.331699	0.429055
C66	C	0.715678	0.168301	0.929055
C67	C	0.189713	-0.296880	0.384133
C68	C	0.689713	0.203120	0.884133
C69	C	0.135122	-0.296894	0.384133
C70	C	0.635122	0.203106	0.884133
N71	N	0.109154	-0.262073	0.339218
N72	N	0.609154	0.237927	0.839218
C73	C	0.137790	-0.227251	0.294292
C74	C	0.637790	0.272749	0.794292
C75	C	0.468199	-0.296869	0.384073
C76	C	0.968199	0.203131	0.884073
C77	C	0.522802	-0.296870	0.384058
C78	C	1.022802	0.203130	0.884058
C79	C	0.525470	-0.227224	0.294212
C80	C	1.025470	0.272776	0.794212
C81	C	0.470866	-0.227226	0.294224
C82	C	0.970866	0.272774	0.794224
C83	C	0.442231	-0.262048	0.339158
C84	C	0.942231	0.237952	0.839158
C85	C	0.023124	-0.227266	0.294312
C86	C	0.523124	0.272734	0.794312
C87	C	-0.031482	-0.227276	0.294322
C88	C	0.468518	0.272724	0.794322
C89	C	-0.034145	-0.296920	0.384169
C90	C	0.465855	0.203080	0.884169
C91	C	0.020456	-0.296912	0.384157
C92	C	0.520456	0.203088	0.884157
C93	C	0.049089	-0.262080	0.339226
C94	C	0.549089	0.237920	0.839226
O95	O	0.105705	-0.326505	0.422305
O96	O	0.605705	0.173495	0.922305
O97	O	0.110681	-0.197634	0.256102
O98	O	0.610681	0.302366	0.756102
C99	C	0.745325	-0.397906	0.339127
C100	C	1.245325	0.102094	0.839127
C101	C	0.745341	-0.456020	0.339127
C102	C	1.245341	0.043980	0.839127
C103	C	0.777514	-0.817690	0.384289
C104	C	1.277514	-0.317690	0.884289
C105	C	0.777529	-0.872294	0.384303
C106	C	1.277529	-0.372294	0.884303
O107	O	0.804797	-0.901640	0.422645
O108	O	1.304797	-0.401640	0.922645
N109	N	0.745468	-0.898306	0.339250
N110	N	1.245468	-0.398306	0.839250
C111	C	0.713386	-0.869710	0.294185
C112	C	1.213386	-0.369710	0.794185
O113	O	0.686116	-0.896849	0.255866
O114	O	1.186116	-0.396849	0.755866
C115	C	0.713368	-0.815107	0.294175
C116	C	1.213368	-0.315107	0.794175
C117	C	0.745436	-0.789098	0.339226
C118	C	1.245436	-0.289098	0.839226
C119	C	0.809578	-0.791681	0.429337
C120	C	1.309578	-0.291681	0.929337
C121	C	0.809564	-0.737080	0.429321
C122	C	1.309564	-0.237080	0.929321
C123	C	0.777485	-0.708488	0.384258
C124	C	1.277485	-0.208488	0.884258
C125	C	0.745421	-0.734497	0.339210
C126	C	1.245421	-0.234497	0.839210
C127	C	0.681284	-0.786512	0.249114
C128	C	1.181284	-0.286512	0.749114
C129	C	0.681269	-0.731905	0.249108
C130	C	1.181269	-0.231905	0.749108
C131	C	0.713336	-0.705896	0.294159
C132	C	1.213336	-0.205896	0.794159
C133	C	0.713328	-0.651304	0.294132
C134	C	1.213328	-0.151304	0.794132
N135	N	0.745389	-0.625292	0.339185
N136	N	1.245389	-0.125292	0.839185
C137	C	0.777468	-0.653884	0.384248
C138	C	1.277468	-0.153884	0.884248
C139	C	0.713424	-0.984382	0.294211
C140	C	1.213424	-0.484382	0.794211
C141	C	0.713444	-1.038984	0.294217
C142	C	1.213444	-0.538984	0.794217
C143	C	0.777587	-1.041564	0.384336
C144	C	1.277587	-0.541564	0.884336
C145	C	0.777569	-0.986961	0.384326
C146	C	1.277569	-0.486961	0.884326
C147	C	0.745485	-0.958370	0.339264
C148	C	1.245485	-0.458370	0.839264
C149	C	0.777436	-0.539218	0.384212
C150	C	1.277436	-0.039218	0.884212
C151	C	0.777420	-0.484612	0.384190
C152	C	1.277420	0.015388	0.884190
C153	C	0.713275	-0.482036	0.294074
C154	C	1.213275	0.017964	0.794074
C155	C	0.713293	-0.536638	0.294092
C156	C	1.213293	-0.036638	0.794092
C157	C	0.745375	-0.565227	0.339167
C158	C	1.245375	-0.065227	0.839167
O159	O	0.686072	-0.621924	0.255812
O160	O	1.186072	-0.121924	0.755812
O161	O	0.804728	-0.626738	0.422567
O162	O	1.304728	-0.126738	0.922567
C163	C	0.881769	-0.262089	0.339229
C164	C	1.381769	0.237911	0.839229
C165	C	0.939883	-0.262099	0.339248
C166	C	1.439883	0.237901	0.839248
C167	C	0.739943	-0.267510	0.522754
C168	C	1.239943	0.232490	1.022754
C169	C	0.737619	-0.269830	0.600981
C170	C	1.237619	0.230170	1.100981
C171	C	0.745484	-0.125694	0.339253
C172	C	1.245484	0.374306	0.839253
C173	C	0.745521	-0.067581	0.339283
C174	C	1.245521	0.432419	0.839283
C175	C	0.750861	-0.256604	0.156324
C176	C	1.250861	0.243396	0.656324
C177	C	0.753286	-0.254136	0.078097
C178	C	1.253286	0.245864	0.578097
C179	C	0.769983	-0.237491	0.637763
C180	C	1.269983	0.262509	1.137763
C181	C	0.767793	-0.239669	0.711266
C182	C	1.267793	0.260331	1.211266
C183	C	0.733241	-0.274190	0.747986
C184	C	1.233241	0.225810	1.247986
C185	C	0.700873	-0.306530	0.711200
C186	C	1.200873	0.193470	1.211200
C187	C	0.703061	-0.304349	0.637698
C188	C	1.203061	0.195651	1.137698
C189	C	0.723107	-0.284295	0.967809
C190	C	1.223107	0.215705	1.467809
C191	C	0.720922	-0.286475	1.041316
C192	C	1.220922	0.213525	1.541316
C193	C	0.787841	-0.219614	1.041377
C194	C	1.287841	0.280386	1.541377
C195	C	0.790029	-0.217438	0.967874
C196	C	1.290029	0.282562	1.467874
C197	C	0.757659	-0.249776	0.931094
C198	C	1.257659	0.250224	1.431094
N199	N	0.731002	-0.276418	0.823118
N200	N	1.231002	0.223582	1.323118
N201	N	0.759895	-0.247545	0.855963
N202	N	1.259895	0.252455	1.355963
H203	H	0.449729	-0.198871	0.257647
H204	H	0.949729	0.301129	0.757647
O205	O	0.187916	-0.365503	0.472804
O206	O	0.687916	0.134497	0.972804
C207	C	0.199190	-0.356223	0.542975
C208	C	0.699190	0.143777	1.042975
H209	H	0.238799	-0.336167	0.544475
H210	H	0.738799	0.163833	1.044475
H211	H	0.200118	-0.394924	0.574440
H212	H	0.700118	0.105076	1.074440
H213	H	0.167770	-0.330076	0.566753
H214	H	0.667770	0.169924	1.066753
O215	O	0.823605	-0.183857	0.932315
O216	O	1.323605	0.316143	1.432315
C217	C	0.851711	-0.155789	0.980541
C218	C	1.351711	0.344211	1.480541
H219	H	0.828737	-0.155528	1.032928
H220	H	1.328737	0.344472	1.532928
H221	H	0.857947	-0.113967	0.959328
H222	H	1.357947	0.386033	1.459328
H223	H	0.891174	-0.175175	0.988366
H224	H	1.391174	0.324825	1.488366
H225	H	0.041598	-0.325268	0.420731
H226	H	0.541598	0.174732	0.920731
O227	O	0.650044	-0.704111	0.205433
O228	O	1.150044	-0.204111	0.705433
C229	C	0.615062	-0.673712	0.245446
C230	C	1.115062	-0.173712	0.745446
H231	H	0.610159	-0.691789	0.300877
H232	H	1.110159	-0.191789	0.800877
H233	H	0.575597	-0.672379	0.219936
H234	H	1.075597	-0.172379	0.719936
H235	H	0.631141	-0.632387	0.247879
H236	H	1.131141	-0.132387	0.747879
O237	O	0.553350	-0.193464	0.250538
O238	O	1.053350	0.306536	0.750538
C239	C	0.586255	-0.221826	0.204988
C240	C	1.086255	0.278174	0.704988
H241	H	0.593686	-0.262212	0.229702
H242	H	1.093686	0.237788	0.729702
H243	H	0.624939	-0.200240	0.195612
H244	H	1.124939	0.299760	0.695612
H245	H	0.566747	-0.225960	0.152817
H246	H	1.066747	0.274040	0.652817
H247	H	0.794148	-0.213337	0.741210
H248	H	1.294148	0.286663	1.241210
H249	H	0.672738	-0.334635	0.741103
H250	H	1.172738	0.165365	1.241103
O251	O	0.687322	-0.319935	1.077061
O252	O	1.187322	0.180065	1.577061
C253	C	0.652304	-0.291417	1.119565
C254	C	1.152304	0.208583	1.619565
H255	H	0.670448	-0.252128	1.130606
H256	H	1.170448	0.247872	1.630606
H257	H	0.643741	-0.314244	1.171237
H258	H	1.143741	0.185756	1.671237
H259	H	0.614406	-0.284818	1.091224
H260	H	1.114406	0.215182	1.591224
O261	O	-0.062047	-0.330695	0.427788
O262	O	0.437953	0.169305	0.927788
C263	C	-0.115808	-0.323236	0.418147
C264	C	0.384192	0.176764	0.918147
H265	H	-0.122568	-0.282181	0.395197
H266	H	0.377432	0.217819	0.895197
H267	H	-0.138116	-0.328401	0.470857
H268	H	0.361884	0.171599	0.970857
H269	H	-0.130213	-0.353094	0.380592
H270	H	0.369787	0.146906	0.880592
H271	H	0.676702	-0.330677	0.607752
H272	H	1.176702	0.169323	1.107752
H273	H	0.835700	-0.814955	0.466037
H274	H	1.335700	-0.314955	0.966037
O275	O	-0.056622	-0.193400	0.250661
O276	O	0.443378	0.306600	0.750661
C277	C	-0.019633	-0.162672	0.210997
C278	C	0.480367	0.337328	0.710997
H279	H	0.018441	-0.161749	0.239826
H280	H	0.518441	0.338251	0.739826
H281	H	-0.035174	-0.121250	0.203599
H282	H	0.464826	0.378750	0.703599
H283	H	-0.012257	-0.180169	0.157494
H284	H	0.487743	0.319831	0.657494
O285	O	0.547938	-0.330716	0.427756
O286	O	1.047938	0.169284	0.927756
C287	C	0.510948	-0.361459	0.467394
C288	C	1.010948	0.138541	0.967394
H289	H	0.471961	-0.340121	0.469888
H290	H	0.971961	0.159879	0.969888
H291	H	0.525086	-0.368745	0.522830
H292	H	1.025086	0.131255	1.022830
H293	H	0.505886	-0.400371	0.441516
H294	H	1.005886	0.099629	0.941516
H295	H	0.046431	-0.198900	0.257728
H296	H	0.546431	0.301100	0.757728
O297	O	0.819227	-0.188219	1.077214
O298	O	1.319227	0.311781	1.577214
C299	C	0.809898	-0.197553	1.149963
C300	C	1.309898	0.302447	1.649963
H301	H	0.769240	-0.214969	1.159976
H302	H	1.269240	0.285031	1.659976
H303	H	0.812636	-0.159219	1.177918
H304	H	1.312636	0.340781	1.677918
H305	H	0.840273	-0.226018	1.170820
H306	H	1.340273	0.273982	1.670820
H307	H	0.199894	-0.164072	0.212773
H308	H	0.699894	0.335928	0.712773
O309	O	0.691638	-0.315753	0.932196
O310	O	1.191638	0.184247	1.432196
C311	C	0.660662	-0.346675	0.980371
C312	C	1.160662	0.153325	1.480371
H313	H	0.680524	-0.350055	1.032767
H314	H	1.180524	0.149945	1.532767
H315	H	0.655674	-0.387234	0.959105
H316	H	1.155674	0.112766	1.459105
H317	H	0.620740	-0.327742	0.988195
H318	H	1.120740	0.172258	1.488195
O319	O	0.808669	-1.069370	0.428192
O320	O	1.308669	-0.569370	0.928192
C321	C	0.777529	-1.102315	0.473596
C322	C	1.277529	-0.602315	0.973596
H323	H	0.736217	-1.086012	0.477878
H324	H	1.236217	-0.586012	0.977878
H325	H	0.794794	-1.104509	0.527788
H326	H	1.294794	-0.604509	1.027788
H327	H	0.776397	-1.143061	0.451838
H328	H	1.276397	-0.643061	0.951838
H329	H	0.687337	-1.060156	0.257524
H330	H	1.187337	-0.560156	0.757524
O331	O	0.682246	-0.956689	0.250361
O332	O	1.182246	-0.456689	0.750361
C333	C	0.653946	-0.991362	0.210615
C334	C	1.153946	-0.491362	0.710615
H335	H	0.675450	-1.030196	0.208224
H336	H	1.175450	-0.530196	0.708224
H337	H	0.650045	-0.973972	0.155150
H338	H	1.150045	-0.473972	0.655150
H339	H	0.613459	-0.997955	0.236331
H340	H	1.113459	-0.497955	0.736331
H341	H	0.298940	-0.164060	0.212760
H342	H	0.798940	0.335940	0.712760
H343	H	0.803556	-0.562489	0.420920
H344	H	1.303556	-0.062489	0.920920
O345	O	0.440331	-0.330726	0.427620
O346	O	0.940331	0.169274	0.927620
C347	C	0.409923	-0.363270	0.387470
C348	C	0.909923	0.136730	0.887470
H349	H	0.403311	-0.343187	0.334186
H350	H	0.903311	0.156813	0.834186
H351	H	0.370683	-0.371168	0.416132
H352	H	0.870683	0.128832	0.916132
H353	H	0.431185	-0.401771	0.379625
H354	H	0.931185	0.098229	0.879625
H355	H	0.803535	-0.463437	0.420876
H356	H	1.303535	0.036563	0.920876
O357	O	0.295553	-0.365449	0.472727
O358	O	0.795553	0.134551	0.972727
C359	C	0.325796	-0.337080	0.518269
C360	C	0.825796	0.162920	1.018269
H361	H	0.334730	-0.296699	0.493541
H362	H	0.834730	0.203301	0.993541
H363	H	0.363903	-0.358667	0.527658
H364	H	0.863903	0.141333	1.027658
H365	H	0.303211	-0.332933	0.570436
H366	H	0.803211	0.167067	1.070436
H367	H	0.655172	-0.807679	0.212428
H368	H	1.155172	-0.307679	0.712428
H369	H	0.835674	-0.715906	0.466007
H370	H	1.335674	-0.215906	0.966007
O371	O	0.808729	-0.961781	0.428160
O372	O	1.308729	-0.461781	0.928160
C373	C	0.837054	-0.998732	0.467918
C374	C	1.337054	-0.498732	0.967918
H375	H	0.815577	-1.037743	0.470324
H376	H	1.315577	-0.537743	0.970324
H377	H	0.840944	-0.984580	0.523379
H378	H	1.340944	-0.484580	1.023379
H379	H	0.877546	-1.003753	0.442205
H380	H	1.377546	-0.503753	0.942205
H381	H	0.687186	-0.557815	0.257403
H382	H	1.187186	-0.057815	0.757403
H383	H	0.687159	-0.458748	0.257382
H384	H	1.187159	0.041252	0.757382
O385	O	0.803561	-0.203912	0.602205
O386	O	1.303561	0.296088	1.102205
C387	C	0.831665	-0.175845	0.650434
C388	C	1.331665	0.324155	1.150434
H389	H	0.808690	-0.175587	0.702820
H390	H	1.308690	0.324413	1.202820
H391	H	0.837900	-0.134022	0.629223
H392	H	1.337900	0.365978	1.129223
H393	H	0.871128	-0.195230	0.658259
H394	H	1.371128	0.304770	1.158259
