data_functionalizedCrystal
_audit_creation_method	'MofGen! by Chris Wilmer'
_symmetry_space_group_name_H-M	'P1'
_symmetry_Int_Tables_number	1
_symmetry_cell_setting	triclinic
loop_
_symmetry_equiv_pos_as_xyz
  x,y,z
_cell_length_a	12.759400
_cell_length_b	10.685972
_cell_length_c	10.686551
_cell_angle_alpha	98.409768
_cell_angle_beta	85.594162
_cell_angle_gamma	85.620475
loop_
_atom_site_label
_atom_site_type_symbol
_atom_site_fract_x
_atom_site_fract_y
_atom_site_fract_z
Zn1	Zn	-0.235538	-1.995793	-0.866752
Zn2	Zn	0.264462	-1.495793	-0.366752
Zn3	Zn	-0.425867	-1.979371	-0.654488
Zn4	Zn	0.074133	-1.479371	-0.154488
Zn5	Zn	-0.264773	-1.767220	-0.638211
Zn6	Zn	0.235227	-1.267220	-0.138211
Zn7	Zn	-0.425760	-1.783495	-0.850394
Zn8	Zn	0.074240	-1.283495	-0.350394
O9	O	-0.337984	-1.881470	-0.752461
O10	O	0.162016	-1.381470	-0.252461
O11	O	-0.248595	-2.171248	-0.852252
O12	O	0.251405	-1.671248	-0.352252
O13	O	-0.416778	-1.937545	-0.474697
O14	O	0.083222	-1.437545	0.025303
O15	O	-0.113868	-1.797602	-0.668561
O16	O	0.386132	-1.297602	-0.168561
O17	O	-0.388429	-2.159184	-0.696303
O18	O	0.111571	-1.659184	-0.196303
O19	O	-0.092389	-1.965534	-0.836469
O20	O	0.407611	-1.465534	-0.336469
O21	O	-0.298422	-1.781679	-0.462738
O22	O	0.201578	-1.281679	0.037262
O23	O	-0.298318	-1.591745	-0.652699
O24	O	0.201682	-1.091745	-0.152699
O25	O	-0.388247	-1.825340	-1.030196
O26	O	0.111753	-1.325340	-0.530196
O27	O	-0.416595	-1.603702	-0.808589
O28	O	0.083405	-1.103702	-0.308589
O29	O	-0.248491	-1.981315	-1.042214
O30	O	0.251509	-1.481315	-0.542214
O31	O	-0.572880	-1.953327	-0.680442
O32	O	-0.072880	-1.453327	-0.180442
O33	O	-0.572801	-1.809417	-0.824373
O34	O	-0.072801	-1.309417	-0.324373
C35	C	-0.360618	-1.551665	-0.727104
C36	C	0.139382	-1.051665	-0.227104
C37	C	-0.370324	-1.410576	-0.716286
C38	C	0.129676	-0.910576	-0.216286
C39	C	-0.610959	-1.881392	-0.752429
C40	C	-0.110959	-1.381392	-0.252429
C41	C	-0.727727	-1.881479	-0.752466
C42	C	-0.227727	-1.381479	-0.252466
C43	C	-0.782583	-1.956509	-0.677618
C44	C	-0.282583	-1.456509	-0.177618
C45	C	-0.892299	-1.956590	-0.677663
C46	C	-0.392299	-1.456590	-0.177663
C47	C	-0.892294	-1.806599	-0.827408
C48	C	-0.392294	-1.306599	-0.327408
C49	C	-0.782580	-1.806526	-0.827368
C50	C	-0.282580	-1.306526	-0.327368
C51	C	-0.727731	-2.031462	-0.602716
C52	C	-0.227731	-1.531462	-0.102716
C53	C	-0.782587	-2.106498	-0.527861
C54	C	-0.282587	-1.606498	-0.027861
C55	C	-0.892303	-2.106579	-0.527906
C56	C	-0.392303	-1.606579	-0.027906
C57	C	-0.947163	-2.031624	-0.602806
C58	C	-0.447163	-1.531624	-0.102806
C59	C	-0.063940	-1.881584	-0.752524
C60	C	0.436060	-1.381584	-0.252524
C61	C	0.052842	-1.881633	-0.752551
C62	C	0.552842	-1.381633	-0.252551
C63	C	-0.315096	-1.906975	-1.083551
C64	C	0.184904	-1.406975	-0.583551
C65	C	-0.305342	-1.917843	-1.224642
C66	C	0.194658	-1.417843	-0.724642
C67	C	-0.315256	-1.212562	-0.777912
C68	C	0.184744	-0.712562	-0.277912
C69	C	-0.305554	-1.353652	-0.788743
C70	C	0.194446	-0.853652	-0.288743
C71	C	-0.360703	-1.856137	-0.422665
C72	C	0.139297	-1.356137	0.077335
C73	C	-0.370144	-1.845514	-0.281594
C74	C	0.129856	-1.345514	0.218406
H75	H	-0.242671	-1.412856	-0.859050
H76	H	0.257329	-0.912856	-0.359050
H77	H	-0.433206	-1.351365	-0.645965
H78	H	0.066794	-0.851365	-0.145965
N79	N	-0.609398	-2.031366	-0.602660
N80	N	-0.109398	-1.531366	-0.102660
H81	H	-0.582971	-2.090230	-0.543853
H82	H	-0.082971	-1.590230	-0.043853
H83	H	-0.575381	-2.061289	-0.691572
H84	H	-0.075381	-1.561289	-0.191572
H85	H	-0.737915	-1.745430	-0.888318
H86	H	-0.237915	-1.245430	-0.388318
N87	N	-0.723423	-2.187352	-0.447093
N88	N	-0.223423	-1.687352	0.052907
H89	H	-0.645595	-2.175918	-0.458419
H90	H	-0.145595	-1.675918	0.041581
H91	H	-0.750268	-2.160700	-0.354914
H92	H	-0.250268	-1.660700	0.145086
N93	N	-0.221951	-2.010878	-1.303029
N94	N	0.278049	-1.510878	-0.803029
H95	H	-0.180092	-2.057596	-1.244980
H96	H	0.319908	-1.557596	-0.744980
H97	H	-0.256920	-2.073799	-1.362545
H98	H	0.243080	-1.573799	-0.862545
H99	H	-0.936963	-2.167686	-0.466965
H100	H	-0.436963	-1.667686	0.033035
N101	N	-1.065498	-2.031722	-0.602871
N102	N	-0.565498	-1.531722	-0.102871
H103	H	-1.091927	-2.090633	-0.544094
H104	H	-0.591927	-1.590633	-0.044094
H105	H	-1.099512	-1.942839	-0.572822
H106	H	-0.599512	-1.442839	-0.072822
H107	H	-0.936970	-1.745574	-0.888387
H108	H	-0.436970	-1.245574	-0.388387
H109	H	-0.433089	-1.775279	-1.222414
H110	H	0.066911	-1.275279	-0.722414
