data_functionalizedCrystal
_audit_creation_method	'MofGen! by Chris Wilmer'
_symmetry_space_group_name_H-M	'P1'
_symmetry_Int_Tables_number	1
_symmetry_cell_setting	triclinic
loop_
_symmetry_equiv_pos_as_xyz
  x,y,z
_cell_length_a	16.625547
_cell_length_b	16.120484
_cell_length_c	16.120297
_cell_angle_alpha	95.614431
_cell_angle_beta	92.874036
_cell_angle_gamma	92.925712
loop_
_atom_site_label
_atom_site_type_symbol
_atom_site_fract_x
_atom_site_fract_y
_atom_site_fract_z
Zn1	Zn	1.191152	-0.356754	-0.489547
Zn2	Zn	1.524486	-0.023421	-0.156214
Zn3	Zn	1.857819	0.309913	0.177120
Zn4	Zn	1.191051	-0.489444	-0.356858
Zn5	Zn	1.524384	-0.156110	-0.023524
Zn6	Zn	1.857717	0.177223	0.309809
Zn7	Zn	1.063517	-0.349689	-0.349783
Zn8	Zn	1.396850	-0.016356	-0.016450
Zn9	Zn	1.730184	0.316977	0.316884
Zn10	Zn	1.049081	-0.496484	-0.496569
Zn11	Zn	1.382414	-0.163151	-0.163236
Zn12	Zn	1.715747	0.170182	0.170098
O13	O	1.123700	-0.423093	-0.423189
O14	O	1.457034	-0.089760	-0.089856
O15	O	1.790367	0.243574	0.243477
O16	O	1.303970	-0.374366	-0.471968
O17	O	1.637303	-0.041032	-0.138634
O18	O	1.970636	0.292301	0.194699
O19	O	1.180132	-0.465002	-0.238958
O20	O	1.513466	-0.131669	0.094376
O21	O	1.846799	0.201665	0.427709
O22	O	1.086532	-0.233661	-0.362424
O23	O	1.419866	0.099672	-0.029090
O24	O	1.753199	0.433005	0.304243
O25	O	1.303895	-0.471852	-0.374481
O26	O	1.637228	-0.138519	-0.041148
O27	O	1.970562	0.194814	0.292186
O28	O	1.180306	-0.238852	-0.465108
O29	O	1.513639	0.094482	-0.131774
O30	O	1.846972	0.427815	0.201559
O31	O	1.086434	-0.362325	-0.233760
O32	O	1.419767	-0.028992	0.099573
O33	O	1.753101	0.304342	0.432906
O34	O	0.948771	-0.369152	-0.369233
O35	O	1.282105	-0.035819	-0.035899
O36	O	1.615438	0.297515	0.297434
O37	O	1.061928	-0.483852	-0.612599
O38	O	1.395261	-0.150518	-0.279266
O39	O	1.728594	0.182815	0.054068
O40	O	0.938165	-0.477001	-0.477076
O41	O	1.271498	-0.143668	-0.143742
O42	O	1.604832	0.189665	0.189591
O43	O	1.166307	-0.381193	-0.607440
O44	O	1.499640	-0.047859	-0.274107
O45	O	1.832974	0.285474	0.059227
O46	O	1.166134	-0.607343	-0.381290
O47	O	1.499467	-0.274010	-0.047957
O48	O	1.832801	0.059324	0.285377
O49	O	1.061829	-0.612515	-0.483935
O50	O	1.395162	-0.279182	-0.150602
O51	O	1.728496	0.054151	0.182731
C52	C	0.914212	-0.423075	-0.423149
C53	C	1.247546	-0.089741	-0.089816
C54	C	1.580879	0.243592	0.243518
C55	C	0.824590	-0.423088	-0.423152
C56	C	1.157924	-0.089755	-0.089819
C57	C	1.491257	0.243579	0.243514
C58	C	0.751807	-0.423090	-0.423163
C59	C	1.085141	-0.089757	-0.089830
C60	C	1.418474	0.243577	0.243504
C61	C	0.660498	-0.423096	-0.423184
C62	C	0.993831	-0.089762	-0.089851
C63	C	1.327164	0.243571	0.243483
C64	C	0.587720	-0.423104	-0.423206
C65	C	0.921053	-0.089771	-0.089872
C66	C	1.254386	0.243562	0.243461
C67	C	0.496404	-0.423111	-0.423226
C68	C	0.829737	-0.089778	-0.089893
C69	C	1.163071	0.243556	0.243441
C70	C	1.112425	-0.640258	-0.434160
C71	C	1.445758	-0.306925	-0.100827
C72	C	1.779092	0.026409	0.232506
C73	C	1.107674	-0.733163	-0.438882
C74	C	1.441007	-0.399830	-0.105549
C75	C	1.774340	-0.066497	0.227785
C76	C	1.099003	-0.903263	-0.447519
C77	C	1.432336	-0.569930	-0.114186
C78	C	1.765669	-0.236597	0.219147
C79	C	1.148542	-0.942083	-0.398873
C80	C	1.481875	-0.608749	-0.065539
C81	C	1.815208	-0.275416	0.267794
C82	C	1.143717	-1.036732	-0.403679
C83	C	1.477050	-0.703399	-0.070345
C84	C	1.810384	-0.370065	0.262988
C85	C	1.103826	-0.808605	-0.442715
C86	C	1.437159	-0.475272	-0.109381
C87	C	1.770493	-0.141939	0.223952
C88	C	1.334006	-0.423112	-0.423230
C89	C	1.667340	-0.089778	-0.089897
C90	C	2.000673	0.243555	0.243437
C91	C	1.423626	-0.423120	-0.423248
C92	C	1.756959	-0.089787	-0.089914
C93	C	2.090293	0.243547	0.243419
C94	C	1.112518	-0.434096	-0.641194
C95	C	1.445852	-0.100762	-0.307861
C96	C	1.779185	0.232571	0.025473
C97	C	1.107753	-0.438784	-0.734095
C98	C	1.441087	-0.105451	-0.400762
C99	C	1.774420	0.227882	-0.067428
C100	C	1.135041	-0.205081	-0.412193
C101	C	1.468374	0.128253	-0.078860
C102	C	1.801707	0.461586	0.254473
C103	C	1.139873	-0.112177	-0.407508
C104	C	1.473207	0.221156	-0.074174
C105	C	1.806540	0.554490	0.259159
C106	C	1.099025	-0.447326	-0.904184
C107	C	1.432358	-0.113993	-0.570851
C108	C	1.765692	0.219341	-0.237518
C109	C	1.148547	-0.398609	-0.943033
C110	C	1.481881	-0.065276	-0.609700
C111	C	1.815214	0.268057	-0.276366
C112	C	1.143691	-0.403362	-1.037677
C113	C	1.477024	-0.070029	-0.704343
C114	C	1.810358	0.263305	-0.371010
C115	C	1.103880	-0.442574	-0.809532
C116	C	1.437214	-0.109241	-0.476199
C117	C	1.770547	0.224092	-0.142866
C118	C	1.134888	-0.412073	-0.206029
C119	C	1.468221	-0.078739	0.127304
C120	C	1.801555	0.254594	0.460637
C121	C	1.139822	-0.407149	-0.113117
C122	C	1.473155	-0.073815	0.220216
C123	C	1.806488	0.259518	0.553550
H124	H	1.194576	-0.904232	-0.353615
H125	H	1.527909	-0.570899	-0.020282
H126	H	1.861243	-0.237566	0.313051
Br127	Br	1.022278	-0.966346	-0.522946
Br128	Br	1.355611	-0.633012	-0.189613
Br129	Br	1.688945	-0.299679	0.143720
H130	H	1.052984	-0.492600	-0.942002
H131	H	1.386318	-0.159267	-0.608669
H132	H	1.719651	0.174066	-0.275335
H133	H	1.194592	-0.353331	-0.905213
H134	H	1.527925	-0.019998	-0.571880
H135	H	1.861258	0.313335	-0.238546
