data_functionalizedCrystal
_audit_creation_method	'MofGen! by Chris Wilmer'
_symmetry_space_group_name_H-M	'P1'
_symmetry_Int_Tables_number	1
_symmetry_cell_setting	triclinic
loop_
_symmetry_equiv_pos_as_xyz
  x,y,z
_cell_length_a	29.839134
_cell_length_b	25.639239
_cell_length_c	25.639233
_cell_angle_alpha	90.018747
_cell_angle_beta	89.976874
_cell_angle_gamma	89.966453
loop_
_atom_site_label
_atom_site_type_symbol
_atom_site_fract_x
_atom_site_fract_y
_atom_site_fract_z
Zn1	Zn	0.686733	0.208286	-0.295756
Zn2	Zn	1.186733	0.708286	0.204244
Zn3	Zn	0.686667	0.295705	-0.208320
Zn4	Zn	1.186667	0.795705	0.291680
Zn5	Zn	0.611615	0.208277	-0.208318
Zn6	Zn	1.111615	0.708277	0.291682
Zn7	Zn	0.611567	0.295684	-0.295708
Zn8	Zn	1.111567	0.795684	0.204292
O9	O	0.649146	0.251988	-0.252026
O10	O	1.149146	0.751988	0.247974
O11	O	0.749592	0.219895	-0.284178
O12	O	1.249592	0.719895	0.215822
O13	O	0.676704	0.284112	-0.135155
O14	O	1.176704	0.784112	0.364845
O15	O	0.621626	0.135113	-0.219936
O16	O	1.121626	0.635113	0.280064
O17	O	0.749543	0.284121	-0.219939
O18	O	1.249543	0.784121	0.280061
O19	O	0.676816	0.135120	-0.284176
O20	O	1.176816	0.635120	0.215824
O21	O	0.621563	0.219880	-0.135153
O22	O	1.121563	0.719880	0.364847
O23	O	0.548741	0.219860	-0.219890
O24	O	1.048741	0.719860	0.280110
O25	O	0.621546	0.284086	-0.368880
O26	O	1.121546	0.784086	0.131120
O27	O	0.548706	0.284078	-0.284095
O28	O	1.048706	0.784078	0.215905
O29	O	0.676770	0.219875	-0.368915
O30	O	1.176770	0.719875	0.131085
O31	O	0.676658	0.368867	-0.219893
O32	O	1.176658	0.868867	0.280107
O33	O	0.621482	0.368852	-0.284097
O34	O	1.121482	0.868852	0.215903
C35	C	0.649070	0.387831	-0.252002
C36	C	1.149070	0.887831	0.247998
C37	C	0.649079	0.445945	-0.252009
C38	C	1.149079	0.945945	0.247991
C39	C	0.532423	0.251966	-0.251988
C40	C	1.032423	0.751966	0.248012
C41	C	0.482489	0.251969	-0.251984
C42	C	0.982489	0.751969	0.248016
C43	C	0.649160	0.251979	-0.388399
C44	C	1.149160	0.751979	0.111601
C45	C	0.649166	0.251975	-0.446513
C46	C	1.149166	0.751975	0.053487
C47	C	0.172837	0.285476	-0.285416
C48	C	0.672837	0.785476	0.214584
C49	C	-0.014836	0.285490	-0.285439
C50	C	0.485164	0.785490	0.214561
O51	O	-0.039108	0.313954	-0.313842
O52	O	0.460892	0.813954	0.186158
N53	N	-0.038296	0.252007	-0.252065
N54	N	0.461704	0.752007	0.247935
C55	C	-0.014835	0.218516	-0.218685
C56	C	0.485165	0.718516	0.281315
O57	O	-0.039096	0.190033	-0.190302
O58	O	0.460904	0.690033	0.309698
C59	C	0.172837	0.218499	-0.218664
C60	C	0.672837	0.718499	0.281336
C61	C	0.196294	0.251988	-0.252037
C62	C	0.696294	0.751988	0.247963
C63	C	0.196294	0.318962	-0.318787
C64	C	0.696294	0.818962	0.181213
C65	C	0.243210	0.318960	-0.318779
C66	C	0.743210	0.818960	0.181221
C67	C	0.266668	0.285472	-0.285400
C68	C	0.766668	0.785472	0.214600
C69	C	0.243210	0.251986	-0.252029
C70	C	0.743210	0.751986	0.247971
C71	C	0.196297	0.185005	-0.185287
C72	C	0.696297	0.685005	0.314713
C73	C	0.243218	0.185003	-0.185286
C74	C	0.743218	0.685003	0.314714
C75	C	0.266676	0.218492	-0.218659
C76	C	0.766676	0.718492	0.281341
C77	C	0.313583	0.218496	-0.218642
C78	C	0.813583	0.718496	0.281358
N79	N	0.337043	0.251979	-0.252017
N80	N	0.837043	0.751979	0.247983
C81	C	0.313585	0.285467	-0.285396
C82	C	0.813585	0.785467	0.214604
C83	C	-0.113366	0.218528	-0.218697
C84	C	0.386634	0.718528	0.281303
C85	C	-0.160284	0.218533	-0.218701
C86	C	0.339716	0.718533	0.281299
C87	C	-0.160282	0.285507	-0.285457
C88	C	0.339718	0.785507	0.214543
C89	C	-0.113363	0.285504	-0.285450
C90	C	0.386637	0.785504	0.214550
C91	C	-0.089906	0.252011	-0.252071
C92	C	0.410094	0.752011	0.247929
C93	C	0.412111	0.285460	-0.285376
C94	C	0.912111	0.785460	0.214624
C95	C	0.459031	0.285457	-0.285363
C96	C	0.959031	0.785457	0.214637
C97	C	0.459025	0.218481	-0.218609
C98	C	0.959025	0.718481	0.281391
C99	C	0.412109	0.218486	-0.218620
C100	C	0.912109	0.718486	0.281380
C101	C	0.388654	0.251978	-0.252007
C102	C	0.888654	0.751978	0.247993
O103	O	0.337884	0.190043	-0.190258
O104	O	0.837884	0.690043	0.309742
O105	O	0.337854	0.313937	-0.313782
O106	O	0.837854	0.813937	0.186218
C107	C	0.125921	0.285478	-0.285424
C108	C	0.625921	0.785478	0.214576
C109	C	0.102464	0.251992	-0.252054
C110	C	0.602464	0.751992	0.247946
C111	C	0.125921	0.218504	-0.218675
C112	C	0.625921	0.718504	0.281325
C113	C	0.055546	0.251997	-0.252058
C114	C	0.555546	0.751997	0.247942
C115	C	0.032088	0.285485	-0.285437
C116	C	0.532088	0.785485	0.214563
C117	C	0.055548	0.318968	-0.318811
C118	C	0.555548	0.818968	0.181189
C119	C	0.102463	0.318966	-0.318803
C120	C	0.602463	0.818966	0.181197
C121	C	0.102461	0.185021	-0.185300
C122	C	0.602461	0.685021	0.314700
C123	C	0.055546	0.185026	-0.185311
C124	C	0.555546	0.685026	0.314689
C125	C	0.032088	0.218514	-0.218690
C126	C	0.532088	0.718514	0.281310
C127	C	0.766324	0.252011	-0.252064
C128	C	1.266324	0.752011	0.247936
C129	C	0.816258	0.252021	-0.252080
C130	C	1.316258	0.752021	0.247920
C131	C	0.649234	0.115615	-0.252061
C132	C	1.149234	0.615615	0.247939
C133	C	0.649271	0.057501	-0.252076
C134	C	1.149271	0.557501	0.247924
C135	C	0.677951	0.806303	-0.218652
C136	C	1.177951	1.306303	0.281348
C137	C	0.677968	0.860907	-0.218659
C138	C	1.177968	1.360907	0.281341
O139	O	0.702437	0.889140	-0.190271
O140	O	1.202437	1.389140	0.309729
N141	N	0.649225	0.888227	-0.252060
N142	N	1.149225	1.388227	0.247940
C143	C	0.620465	0.860940	-0.285461
C144	C	1.120465	1.360940	0.214539
O145	O	0.596018	0.889192	-0.313872
O146	O	1.096018	1.389192	0.186128
C147	C	0.620450	0.806337	-0.285456
C148	C	1.120450	1.306337	0.214544
C149	C	0.649192	0.779020	-0.252048
C150	C	1.149192	1.279020	0.247952
C151	C	0.706691	0.778986	-0.185247
C152	C	1.206691	1.278986	0.314753
C153	C	0.706673	0.724385	-0.185240
C154	C	1.206673	1.224385	0.314760
C155	C	0.677914	0.697102	-0.218636
C156	C	1.177914	1.197102	0.281364
C157	C	0.649174	0.724419	-0.252041
C158	C	1.149174	1.224419	0.247959
C159	C	0.591693	0.779050	-0.318859
C160	C	1.091693	1.279050	0.181141
C161	C	0.591681	0.724443	-0.318852
C162	C	1.091681	1.224443	0.181148
C163	C	0.620423	0.697126	-0.285444
C164	C	1.120423	1.197126	0.214556
C165	C	0.620398	0.642535	-0.285430
C166	C	1.120398	1.142535	0.214570
N167	N	0.649141	0.615215	-0.252029
N168	N	1.149141	1.115215	0.247971
C169	C	0.677900	0.642499	-0.218632
C170	C	1.177900	1.142499	0.281368
C171	C	0.620499	0.975611	-0.285469
C172	C	1.120499	1.475611	0.214531
C173	C	0.620511	1.030213	-0.285471
C174	C	1.120511	1.530213	0.214529
C175	C	0.678015	1.030177	-0.218670
C176	C	1.178015	1.530177	0.281330
C177	C	0.678000	0.975573	-0.218665
C178	C	1.178000	1.475573	0.281335
C179	C	0.649242	0.948291	-0.252067
C180	C	1.149242	1.448291	0.247933
C181	C	0.677859	0.527834	-0.218618
C182	C	1.177859	1.027834	0.281382
C183	C	0.677837	0.473228	-0.218612
C184	C	1.177837	0.973228	0.281388
C185	C	0.620335	0.473269	-0.285415
C186	C	1.120335	0.973269	0.214585
C187	C	0.620355	0.527870	-0.285420
C188	C	1.120355	1.027870	0.214580
C189	C	0.649121	0.555151	-0.252019
C190	C	1.149121	1.055151	0.247981
O191	O	0.595942	0.614268	-0.313805
O192	O	1.095942	1.114268	0.186195
O193	O	0.702346	0.614240	-0.190230
O194	O	1.202346	1.114240	0.309770
C195	C	0.677958	0.218441	-0.806900
C196	C	1.177958	0.718441	-0.306900
C197	C	0.677963	0.218427	-0.861504
C198	C	1.177963	0.718427	-0.361504
O199	O	0.702407	0.189976	-0.889761
O200	O	1.202407	0.689976	-0.389761
N201	N	0.649216	0.251853	-0.888795
N202	N	1.149216	0.751853	-0.388795
C203	C	0.620458	0.285291	-0.861480
C204	C	1.120458	0.785291	-0.361480
O205	O	0.596006	0.313721	-0.889707
O206	O	1.096006	0.813721	-0.389707
C207	C	0.620450	0.285303	-0.806876
C208	C	1.120450	0.785303	-0.306876
C209	C	0.649203	0.251878	-0.779588
C210	C	1.149203	0.751878	-0.279588
C211	C	0.706708	0.185019	-0.779611
C212	C	1.206708	0.685019	-0.279611
C213	C	0.706703	0.185034	-0.725010
C214	C	1.206703	0.685034	-0.225010
C215	C	0.677948	0.218472	-0.697698
C216	C	1.177948	0.718472	-0.197698
C217	C	0.649198	0.251894	-0.724987
C218	C	1.149198	0.751894	-0.224987
C219	C	0.591690	0.318739	-0.779562
C220	C	1.091690	0.818739	-0.279562
C221	C	0.591685	0.318747	-0.724954
C222	C	1.091685	0.818747	-0.224954
C223	C	0.620437	0.285323	-0.697666
C224	C	1.120437	0.785323	-0.197666
C225	C	0.620438	0.285346	-0.643075
C226	C	1.120438	0.785346	-0.143075
N227	N	0.649185	0.251920	-0.615783
N228	N	1.149185	0.751920	-0.115783
C229	C	0.677940	0.218483	-0.643095
C230	C	1.177940	0.718483	-0.143095
C231	C	0.620475	0.285264	-0.976150
C232	C	1.120475	0.785264	-0.476150
C233	C	0.620484	0.285256	-1.030753
C234	C	1.120484	0.785256	-0.530753
C235	C	0.677990	0.218390	-1.030773
C236	C	1.177990	0.718390	-0.530773
C237	C	0.677982	0.218402	-0.976170
C238	C	1.177982	0.718402	-0.476170
C239	C	0.649223	0.251838	-0.948859
C240	C	1.149223	0.751838	-0.448859
C241	C	0.677928	0.218518	-0.528430
C242	C	1.177928	0.718518	-0.028430
C243	C	0.677921	0.218538	-0.473825
C244	C	1.177921	0.718538	0.026175
C245	C	0.620415	0.285401	-0.473809
C246	C	1.120415	0.785401	0.026191
C247	C	0.620422	0.285384	-0.528409
C248	C	1.120422	0.785384	-0.028409
C249	C	0.649180	0.251938	-0.555719
C250	C	1.149180	0.751938	-0.055719
O251	O	0.596005	0.313781	-0.614783
O252	O	1.096005	0.813781	-0.114783
O253	O	0.702384	0.190053	-0.614861
O254	O	1.202384	0.690053	-0.114861
C255	C	0.649157	0.251960	-0.116183
C256	C	1.149157	0.751960	0.383817
C257	C	0.649238	0.251816	-0.058069
C258	C	1.149238	0.751816	0.441931
H259	H	0.478128	0.312730	-0.312540
H260	H	0.978128	0.812730	0.187460
H261	H	0.701284	0.550039	-0.191421
H262	H	1.201284	1.050039	0.308579
Cl263	Cl	0.555563	0.813378	-0.360866
Cl264	Cl	1.055563	1.313378	0.139134
Cl265	Cl	0.131944	0.142916	-0.143335
Cl266	Cl	0.631944	0.642916	0.356665
Cl267	Cl	0.714135	0.941238	-0.176666
Cl268	Cl	1.214135	1.441238	0.323334
H269	H	0.701242	0.450988	-0.191406
H270	H	1.201242	0.950988	0.308594
Cl271	Cl	0.555527	0.690149	-0.360847
Cl272	Cl	1.055527	1.190149	0.139153
H273	H	-0.094272	0.191253	-0.191514
H274	H	0.405728	0.691253	0.308486
Cl275	Cl	0.584339	0.941318	-0.327460
Cl276	Cl	1.084339	1.441318	0.172540
Cl277	Cl	0.584186	0.438960	-0.327401
Cl278	Cl	1.084186	0.938960	0.172599
Cl279	Cl	0.714129	0.176380	-0.941870
Cl280	Cl	1.214129	0.676380	-0.441870
Cl281	Cl	0.584371	1.064548	-0.327465
Cl282	Cl	1.084371	1.564548	0.172535
Cl283	Cl	0.714071	0.176516	-0.439522
Cl284	Cl	1.214071	0.676516	0.060478
Cl285	Cl	0.584320	0.327308	-0.941822
Cl286	Cl	1.084320	0.827308	-0.441822
Cl287	Cl	0.742848	0.143009	-0.690713
Cl288	Cl	1.242848	0.643009	-0.190713
Cl289	Cl	0.714079	0.176469	-0.562753
Cl290	Cl	1.214079	0.676469	-0.062753
Cl291	Cl	0.555543	0.360763	-0.813854
Cl292	Cl	1.055543	0.860763	-0.313854
Cl293	Cl	0.272704	0.142894	-0.143322
Cl294	Cl	0.772704	0.642894	0.356678
Cl295	Cl	0.555527	0.360784	-0.690624
Cl296	Cl	1.055527	0.860784	-0.190624
Cl297	Cl	0.131946	0.361068	-0.360761
Cl298	Cl	0.631946	0.861068	0.139239
Cl299	Cl	0.742849	0.813275	-0.143257
Cl300	Cl	1.242849	1.313275	0.356743
H301	H	0.393009	0.191218	-0.191444
H302	H	0.893009	0.691218	0.308556
Cl303	Cl	0.742868	0.142984	-0.813936
Cl304	Cl	1.242868	0.642984	-0.313936
H305	H	0.730078	0.702147	-0.158038
H306	H	1.230078	1.202147	0.341962
H307	H	0.597014	0.312605	-0.550629
H308	H	1.097014	0.812605	-0.050629
H309	H	0.701433	1.052401	-0.191478
H310	H	1.201433	1.552401	0.308522
Cl311	Cl	0.584343	0.327285	-1.065052
Cl312	Cl	1.084343	0.827285	-0.565052
Cl313	Cl	0.382632	0.327565	-0.327348
Cl314	Cl	0.882632	0.827565	0.172652
H315	H	0.596953	0.550113	-0.312625
H316	H	1.096953	1.050113	0.187375
Cl317	Cl	0.026049	0.361068	-0.360771
Cl318	Cl	0.526049	0.861068	0.139229
Cl319	Cl	0.714138	0.176353	-1.065118
Cl320	Cl	1.214138	0.676353	-0.565118
Cl321	Cl	0.584266	0.327433	-0.439464
Cl322	Cl	1.084266	0.827433	0.060536
H323	H	0.262305	0.346229	-0.345956
H324	H	0.762305	0.846229	0.154044
H325	H	0.177200	0.346232	-0.345971
H326	H	0.677200	0.846232	0.154029
H327	H	-0.094267	0.312773	-0.312626
H328	H	0.405733	0.812773	0.187374
H329	H	-0.179389	0.312774	-0.312635
H330	H	0.320611	0.812774	0.187365
H331	H	-0.179379	0.191268	-0.191520
H332	H	0.320621	0.691268	0.308480
H333	H	0.036451	0.157756	-0.158130
H334	H	0.536451	0.657756	0.341870
Cl335	Cl	0.166819	0.142898	-0.143333
Cl336	Cl	0.666819	0.642898	0.356667
Cl337	Cl	0.488523	0.176384	-0.176650
Cl338	Cl	0.988523	0.676384	0.323350
