data_functionalizedCrystal
_audit_creation_method	'MofGen! by Chris Wilmer'
_symmetry_space_group_name_H-M	'P1'
_symmetry_Int_Tables_number	1
_symmetry_cell_setting	triclinic
loop_
_symmetry_equiv_pos_as_xyz
  x,y,z
_cell_length_a	18.215407
_cell_length_b	29.839131
_cell_length_c	18.215399
_cell_angle_alpha	90.038527
_cell_angle_beta	90.019833
_cell_angle_gamma	90.035676
loop_
_atom_site_label
_atom_site_type_symbol
_atom_site_fract_x
_atom_site_fract_y
_atom_site_fract_z
Zn1	Zn	1.125019	-0.178853	0.416062
Zn2	Zn	1.124905	-0.253982	0.292973
Zn3	Zn	1.001952	-0.178867	0.293009
Zn4	Zn	1.001895	-0.253957	0.415998
O5	O	1.063443	-0.216415	0.354510
O6	O	1.227988	-0.188823	0.399745
O7	O	1.108571	-0.244034	0.189993
O8	O	1.018348	-0.115998	0.309374
O9	O	1.227905	-0.244020	0.309312
O10	O	1.108765	-0.115987	0.399781
O11	O	1.018238	-0.188848	0.190020
O12	O	0.898960	-0.188824	0.309312
O13	O	1.018252	-0.243978	0.518990
O14	O	0.898918	-0.243992	0.399671
O15	O	1.108710	-0.188799	0.519038
O16	O	1.108516	-0.316846	0.309250
O17	O	1.018142	-0.316827	0.399636
C18	C	0.872237	-0.216407	0.354489
C19	C	0.790438	-0.216414	0.354498
C20	C	0.602241	-0.245186	0.401489
C21	C	0.525383	-0.245187	0.401498
C22	C	0.525396	-0.187652	0.307548
C23	C	0.602254	-0.187648	0.307543
C24	C	0.640674	-0.216418	0.354512
C25	C	0.486958	-0.216423	0.354526
C26	C	0.403624	-0.216424	0.354536
C27	C	0.724013	-0.216416	0.354504
C28	C	1.063331	-0.333137	0.354448
C29	C	1.063350	-0.383072	0.354446
C30	C	1.110513	-0.692675	0.401652
C31	C	1.110593	-0.880348	0.401696
O32	O	1.150582	-0.904578	0.441786
N33	N	1.063568	-0.903857	0.354592
C34	C	1.016516	-0.880445	0.307477
O35	O	0.976515	-0.904747	0.267418
C36	C	1.016433	-0.692773	0.307437
C37	C	1.063466	-0.669266	0.354539
C38	C	1.157541	-0.669168	0.448751
C39	C	1.157524	-0.622252	0.448736
C40	C	1.110477	-0.598844	0.401623
C41	C	1.063449	-0.622350	0.354524
C42	C	0.969378	-0.669361	0.260326
C43	C	0.969361	-0.622440	0.260321
C44	C	1.016394	-0.598934	0.307423
C45	C	1.016385	-0.552026	0.307397
N46	N	1.063410	-0.528517	0.354501
C47	C	1.110456	-0.551926	0.401614
C48	C	1.016564	-0.978975	0.307500
C49	C	1.016586	-1.025893	0.307509
C50	C	1.110661	-1.025793	0.401730
C51	C	1.110643	-0.978874	0.401716
C52	C	1.063589	-0.955466	0.354604
C53	C	1.110416	-0.453400	0.401580
C54	C	1.110396	-0.406480	0.401559
C55	C	1.016318	-0.406585	0.307342
C56	C	1.016340	-0.453500	0.307360
C57	C	1.063392	-0.476907	0.354485
O58	O	0.976410	-0.527767	0.267334
O59	O	1.150439	-0.527615	0.441678
C60	C	1.110530	-0.739590	0.401666
C61	C	1.063502	-0.763097	0.354568
C62	C	1.016455	-0.739688	0.307454
C63	C	1.063523	-0.810015	0.354576
C64	C	1.110569	-0.833423	0.401690
C65	C	1.157594	-0.809914	0.448794
C66	C	1.157577	-0.762999	0.448779
C67	C	0.969430	-0.763197	0.260350
C68	C	0.969452	-0.810113	0.260368
C69	C	1.016499	-0.833521	0.307481
C70	C	1.255396	-0.216423	0.354532
C71	C	1.337195	-0.216426	0.354541
C72	C	1.063488	-0.216384	0.546463
C73	C	1.063507	-0.216370	0.628262
C74	C	1.063576	-0.099236	0.354589
C75	C	1.063632	-0.049302	0.354622
C76	C	1.063440	-0.216413	0.163304
C77	C	1.063564	-0.216300	0.081506
C78	C	1.110625	-0.187612	0.816482
C79	C	1.110634	-0.187599	0.893341
C80	C	1.016440	-0.245059	0.893281
C81	C	1.016428	-0.245070	0.816423
C82	C	1.063525	-0.216347	0.778026
C83	C	1.063546	-0.216323	0.931742
C84	C	1.063555	-0.216309	1.015076
C85	C	1.063515	-0.216360	0.694687
H86	H	0.494105	-0.164229	0.269306
H87	H	1.148987	-0.164199	0.924648
C88	C	1.152432	-0.162112	0.698692
C89	C	1.162385	-0.156036	0.774274
H90	H	1.184389	-0.142618	0.672638
H91	H	1.102995	-0.155540	0.686096
H92	H	1.163174	-0.192299	0.686082
H93	H	1.151637	-0.125849	0.786885
H94	H	1.211833	-0.162605	0.786874
H95	H	0.978097	-0.268446	0.924553
C96	C	0.891997	-1.040417	0.271552
C97	C	0.964889	-1.051729	0.255729
H98	H	0.860079	-1.056368	0.239588
H99	H	0.885262	-1.009127	0.264805
H100	H	0.881212	-1.048092	0.320991
H101	H	0.975676	-1.044050	0.206291
H102	H	0.971627	-1.083025	0.262470
H103	H	0.978068	-0.268469	0.785111
C104	C	0.917535	-0.926281	0.297155
C105	C	0.964840	-0.953250	0.255705
H106	H	0.885603	-0.910404	0.265175
H107	H	0.945533	-0.905563	0.325195
H108	H	0.889380	-0.944589	0.329197
H109	H	0.993000	-0.934943	0.223666
H110	H	0.936840	-0.973971	0.227652
C111	C	0.959196	-0.722175	0.161333
C112	C	0.917669	-0.695194	0.208560
H113	H	0.927267	-0.738121	0.129374
H114	H	0.987212	-0.742833	0.189386
H115	H	0.991264	-0.703867	0.133202
H116	H	0.885605	-0.713502	0.236695
H117	H	0.889641	-0.674533	0.180504
H118	H	0.633546	-0.164220	0.269289
C119	C	1.152153	-0.334516	0.443380
C120	C	1.162097	-0.380642	0.453339
H121	H	1.184073	-0.318567	0.475343
H122	H	1.102704	-0.326849	0.454104
H123	H	1.162952	-0.326851	0.393939
H124	H	1.151292	-0.388308	0.502778
H125	H	1.211558	-0.388312	0.442620
C126	C	0.594505	-0.302052	0.494362
C127	C	0.644474	-0.276803	0.453124
H128	H	0.620578	-0.321568	0.526245
H129	H	0.564502	-0.319214	0.462247
H130	H	0.564555	-0.282494	0.522570
H131	H	0.674421	-0.296361	0.424912
H132	H	0.674490	-0.259640	0.485243
H133	H	1.148724	-0.472452	0.439959
H134	H	1.195820	-0.603116	0.487093
C135	C	0.438995	-0.251509	0.500481
C136	C	0.483138	-0.276810	0.453135
H137	H	0.412919	-0.271033	0.532364
H138	H	0.405114	-0.234383	0.472510
H139	H	0.469017	-0.231958	0.528688
H140	H	0.453115	-0.296359	0.424925
H141	H	0.517023	-0.293944	0.481109
H142	H	1.195852	-0.688222	0.487120
H143	H	1.148969	-1.044860	0.440090
C144	C	1.203628	-0.983498	0.494852
C145	C	1.162334	-0.953038	0.453500
H146	H	1.235536	-0.967549	0.526827
H147	H	1.231806	-1.001794	0.462815
H148	H	1.171545	-1.001805	0.522968
H149	H	1.194417	-0.934733	0.425380
H150	H	1.134154	-0.934734	0.485541
C151	C	0.876364	-0.627256	0.167196
C152	C	0.917636	-0.596711	0.208532
H153	H	0.844436	-0.611372	0.135222
H154	H	0.848208	-0.645553	0.199243
H155	H	0.908459	-0.645554	0.139081
H156	H	0.885541	-0.578416	0.236652
H157	H	0.945794	-0.578407	0.176481
C158	C	0.923347	-0.448884	0.214228
C159	C	0.964643	-0.479342	0.255584
H160	H	0.891424	-0.464836	0.182271
H161	H	0.955422	-0.430587	0.186099
H162	H	0.895178	-0.430579	0.246268
H163	H	0.992816	-0.497645	0.223543
H164	H	0.932564	-0.497647	0.283714
C165	C	0.974520	-0.334703	0.265506
C166	C	0.964603	-0.380848	0.255560
H167	H	0.942586	-0.318815	0.233543
H168	H	1.023964	-0.326997	0.254772
H169	H	0.963724	-0.327003	0.314946
H170	H	0.975404	-0.388548	0.206121
H171	H	0.915148	-0.388557	0.266289
C172	C	1.250561	-0.767627	0.541914
C173	C	1.209272	-0.737164	0.500562
H174	H	1.282472	-0.751679	0.573888
H175	H	1.278735	-0.785925	0.509878
H176	H	1.218475	-0.785931	0.570032
H177	H	1.241357	-0.718862	0.472441
H178	H	1.181095	-0.718858	0.532602
H179	H	1.195904	-0.828982	0.487152
H180	H	0.931153	-0.829248	0.222005
H181	H	0.931119	-0.744141	0.221986
