data_functionalizedCrystal
_audit_creation_method	'MofGen! by Chris Wilmer'
_symmetry_space_group_name_H-M	'P1'
_symmetry_Int_Tables_number	1
_symmetry_cell_setting	triclinic
loop_
_symmetry_equiv_pos_as_xyz
  x,y,z
_cell_length_a	6.817900
_cell_length_b	9.582889
_cell_length_c	19.453114
_cell_angle_alpha	93.805745
_cell_angle_beta	101.709288
_cell_angle_gamma	111.207298
loop_
_atom_site_label
_atom_site_type_symbol
_atom_site_fract_x
_atom_site_fract_y
_atom_site_fract_z
V1	V	-4.047104	-0.208613	-0.218869
V2	V	-3.547104	0.291387	0.281131
O3	O	-3.993116	0.008421	-0.214835
O4	O	-3.493116	0.508421	0.285165
O5	O	-4.038024	-0.412102	-0.217245
O6	O	-3.538024	0.087898	0.282755
O7	O	-3.989535	-0.206108	-0.314384
O8	O	-3.489535	0.293892	0.185616
O9	O	-4.041940	-0.199000	-0.117024
O10	O	-3.541940	0.301000	0.382976
V11	V	-4.526825	-0.182570	-0.206703
V12	V	-4.026825	0.317430	0.293297
O13	O	-4.316702	-0.265740	-0.245557
O14	O	-3.816702	0.234260	0.254443
O15	O	-4.707424	-0.125443	-0.180016
O16	O	-4.207424	0.374557	0.319984
O17	O	-4.312698	0.020919	-0.208328
O18	O	-3.812698	0.520919	0.291672
O19	O	-4.698210	-0.399604	-0.210737
O20	O	-4.198210	0.100396	0.289263
O21	O	-4.649385	-0.192184	-0.308549
O22	O	-4.149385	0.307816	0.191451
O23	O	-4.361187	-0.185075	-0.111189
O24	O	-3.861187	0.314925	0.388811
C25	C	-3.892887	-0.461687	-0.213760
C26	C	-3.392887	0.038313	0.286240
C27	C	-3.966688	-0.628047	-0.213068
C28	C	-3.466688	-0.128047	0.286932
C29	C	-3.831033	-0.198918	-0.337669
C30	C	-3.331033	0.301082	0.162331
C31	C	-3.865507	-0.198216	-0.415752
C32	C	-3.365507	0.301784	0.084248
C33	C	-4.064937	-0.205398	-0.456004
C34	C	-3.564937	0.294602	0.043996
C35	C	-4.097330	-0.204739	-0.529372
C36	C	-3.597330	0.295261	-0.029372
C37	C	-3.930296	-0.196927	-0.562485
C38	C	-3.430296	0.303073	-0.062485
C39	C	-3.730834	-0.189736	-0.522223
C40	C	-3.230834	0.310264	-0.022223
C41	C	-3.698440	-0.190380	-0.448856
C42	C	-3.198440	0.309620	0.051144
N43	N	-3.885824	-0.275959	-0.681225
N44	N	-3.385824	0.224041	-0.181225
N45	N	-3.916612	-0.275351	-0.750921
N46	N	-3.416612	0.224649	-0.250921
C47	C	-4.027887	-0.194982	-0.783535
C48	C	-3.527887	0.305018	-0.283535
N49	N	-4.107251	-0.115265	-0.743821
N50	N	-3.607251	0.384735	-0.243821
N51	N	-4.076470	-0.115880	-0.674120
N52	N	-3.576470	0.384120	-0.174120
C53	C	-3.965402	-0.196227	-0.642039
C54	C	-3.465402	0.303773	-0.142039
C55	C	-4.262452	-0.201447	-0.903341
C56	C	-3.762452	0.298553	-0.403341
C57	C	-4.294834	-0.200778	-0.976708
C58	C	-3.794834	0.299222	-0.476708
C59	C	-3.928340	-0.185790	-0.969559
C60	C	-3.428340	0.314210	-0.469559
C61	C	-3.895957	-0.186444	-0.896192
C62	C	-3.395957	0.313556	-0.396192
C63	C	-4.063024	-0.194280	-0.863088
C64	C	-3.563024	0.305720	-0.363088
C65	C	-4.121179	0.070496	-0.211811
C66	C	-3.621179	0.570496	0.288189
C67	C	-4.026615	0.236854	-0.212507
C68	C	-3.526615	0.736854	0.287493
C69	C	-4.183032	-0.192270	-0.087900
C70	C	-3.683032	0.307730	0.412100
C71	C	-4.127795	-0.192964	-0.009817
C72	C	-3.627795	0.307036	0.490183
H73	H	-4.259739	-0.210595	-0.562152
H74	H	-3.759739	0.289405	-0.062152
N75	N	-3.680856	-0.178722	-0.852780
N76	N	-3.180856	0.321278	-0.352780
H77	H	-3.703959	-0.271904	-0.828941
H78	H	-3.203959	0.228096	-0.328941
H79	H	-3.614633	-0.085349	-0.815458
H80	H	-3.114633	0.414651	-0.315458
H81	H	-3.594834	-0.183371	-0.549188
H82	H	-3.094834	0.316629	-0.049188
N83	N	-4.245116	-0.213836	-0.420298
N84	N	-3.745116	0.286164	0.079702
H85	H	-4.376370	-0.218281	-0.456935
H86	H	-3.876370	0.281719	0.043065
H87	H	-4.194943	-0.121174	-0.383255
H88	H	-3.694943	0.378826	0.116745
N89	N	-3.483329	-0.182646	-0.405442
N90	N	-2.983329	0.317354	0.094558
H91	H	-3.506432	-0.275830	-0.381606
H92	H	-3.006432	0.224170	0.118394
H93	H	-3.417116	-0.089276	-0.368119
H94	H	-2.917116	0.410724	0.131881
N95	N	-4.442627	-0.209893	-0.867628
N96	N	-3.942627	0.290107	-0.367628
H97	H	-4.573881	-0.214330	-0.904263
H98	H	-4.073881	0.285670	-0.404263
H99	H	-4.392456	-0.117240	-0.830580
H100	H	-3.892456	0.382760	-0.330580
N101	N	-4.509944	-0.208503	-1.020118
N102	N	-4.009944	0.291497	-0.520118
H103	H	-4.629127	-0.305145	-1.015676
H104	H	-4.129127	0.194855	-0.515676
H105	H	-4.504930	-0.206830	-1.071600
H106	H	-4.004930	0.293170	-0.571600
N107	N	-3.748139	-0.177377	-1.005245
N108	N	-3.248139	0.322623	-0.505245
H109	H	-3.708656	-0.083530	-1.028767
H110	H	-3.208656	0.416470	-0.528767
H111	H	-3.798236	-0.270096	-1.042249
H112	H	-3.298236	0.229904	-0.542249
