data_functionalizedCrystal
_audit_creation_method	'MofGen! by Chris Wilmer'
_symmetry_space_group_name_H-M	'P1'
_symmetry_Int_Tables_number	1
_symmetry_cell_setting	triclinic
loop_
_symmetry_equiv_pos_as_xyz
  x,y,z
_cell_length_a	16.109301
_cell_length_b	15.995350
_cell_length_c	14.586319
_cell_angle_alpha	89.998440
_cell_angle_beta	89.999213
_cell_angle_gamma	83.476928
loop_
_atom_site_label
_atom_site_type_symbol
_atom_site_fract_x
_atom_site_fract_y
_atom_site_fract_z
O1	O	1.103160	0.107624	-0.076178
O2	O	1.603160	0.607624	0.423822
O3	O	0.861101	0.121018	-0.076192
O4	O	1.361101	0.621018	0.423808
O5	O	0.988747	-0.007569	-0.076184
O6	O	1.488747	0.492431	0.423816
O7	O	0.975514	0.236210	-0.076186
O8	O	1.475514	0.736210	0.423814
O9	O	0.988739	-0.007570	0.076297
O10	O	1.488739	0.492430	0.576297
O11	O	0.861093	0.121016	0.076289
O12	O	1.361093	0.621016	0.576289
O13	O	1.103151	0.107622	0.076303
O14	O	1.603151	0.607622	0.576303
Cu15	Cu	0.982121	0.114319	0.090219
Cu16	Cu	1.482121	0.614319	0.590219
Cu17	Cu	0.982131	0.114321	-0.090107
Cu18	Cu	1.482131	0.614321	0.409893
O19	O	0.975505	0.236208	0.076295
O20	O	1.475505	0.736208	0.576295
C21	C	0.830122	0.120474	0.000047
C22	C	1.330122	0.620474	0.500047
C23	C	0.737826	0.118848	0.000041
C24	C	1.237826	0.618848	0.500041
C25	C	0.515573	0.191366	0.000051
C26	C	1.015573	0.691366	0.500051
C27	C	0.428853	0.189831	0.000057
C28	C	0.928853	0.689831	0.500057
C29	C	0.448686	0.037268	0.000055
C30	C	0.948686	0.537268	0.500055
C31	C	0.535405	0.038804	0.000055
C32	C	1.035405	0.538804	0.500055
C33	C	0.568846	0.115855	0.000049
C34	C	1.068846	0.615855	0.500049
C35	C	0.395406	0.112785	0.000054
C36	C	0.895406	0.612785	0.500054
C37	C	0.301380	0.111120	0.000061
C38	C	0.801380	0.611120	0.500061
C39	C	0.662879	0.117520	0.000044
C40	C	1.162879	0.617520	0.500044
C41	C	0.988196	-0.038764	0.000055
C42	C	1.488196	0.461236	0.500055
C43	C	0.986556	-0.131714	0.000050
C44	C	1.486556	0.368286	0.500050
C45	C	0.980665	-0.469460	0.000053
C46	C	1.480665	0.030540	0.500053
C47	C	0.889758	-0.422001	-0.000295
C48	C	1.389758	0.077999	0.499705
C49	C	0.891399	-0.325311	0.000049
C50	C	1.391399	0.174689	0.500049
C51	C	0.983587	-0.301900	0.000051
C52	C	1.483587	0.198100	0.500051
C53	C	1.028421	-0.342991	0.087126
C54	C	1.528421	0.157009	0.587126
C55	C	1.026137	-0.439626	0.087198
C56	C	1.526137	0.060374	0.587198
C57	C	1.028025	-0.439983	-0.086201
C58	C	1.528025	0.060017	0.413799
C59	C	1.028003	-0.343037	-0.087351
C60	C	1.528003	0.156963	0.412649
C61	C	0.985243	-0.207203	0.000053
C62	C	1.485243	0.292797	0.500053
C63	C	0.979012	-0.564157	0.000057
C64	C	1.479012	-0.064157	0.500057
C65	C	1.134130	0.108166	0.000062
C66	C	1.634130	0.608166	0.500062
C67	C	1.226426	0.109792	0.000062
C68	C	1.726426	0.609792	0.500062
C69	C	0.976056	0.267404	0.000054
C70	C	1.476056	0.767404	0.500054
C71	C	0.977697	0.360354	0.000053
C72	C	1.477697	0.860354	0.500053
N73	N	0.982120	0.114317	0.217050
N74	N	1.482120	0.614317	0.717050
N75	N	0.982139	0.114317	-0.216939
N76	N	1.482139	0.614317	0.283061
C77	C	1.038660	0.057398	0.452061
C78	C	1.538660	0.557398	0.952061
C79	C	1.038662	0.057396	0.548042
C80	C	1.538662	0.557396	1.048042
C81	C	0.925593	0.171238	0.548044
C82	C	1.425593	0.671238	1.048044
C83	C	0.925587	0.171236	0.452064
C84	C	1.425587	0.671236	0.952064
C85	C	0.982125	0.114316	0.404075
C86	C	1.482125	0.614316	0.904075
C87	C	0.982134	0.114317	0.596036
C88	C	1.482134	0.614317	1.096036
C89	C	0.982136	0.114315	0.700103
C90	C	1.482136	0.614315	1.200103
C91	C	0.982122	0.114317	0.300001
C92	C	1.482122	0.614317	0.800001
H93	H	0.853427	-0.440522	-0.062738
H94	H	1.353427	0.059478	0.437262
N95	N	1.118132	-0.324298	0.091405
N96	N	1.618132	0.175702	0.591405
H97	H	1.127425	-0.292614	0.149721
H98	H	1.627425	0.207386	0.649721
H99	H	1.156431	-0.378855	0.090504
H100	H	1.656431	0.121145	0.590504
H101	H	1.084696	0.011050	0.412990
H102	H	1.584696	0.511050	0.912990
H103	H	1.084697	0.011047	0.587109
H104	H	1.584697	0.511047	1.087109
H105	H	0.385481	0.251320	0.000061
H106	H	0.885481	0.751320	0.500061
N107	N	0.412607	-0.045829	0.000062
N108	N	0.912607	0.454171	0.500062
H109	H	0.377070	-0.049865	-0.056463
H110	H	0.877070	0.450135	0.443537
H111	H	0.459559	-0.093387	0.000100
H112	H	0.959559	0.406613	0.500100
H113	H	0.995224	-0.315779	-0.151767
H114	H	1.495224	0.184221	0.348233
N115	N	1.117058	-0.322723	-0.094314
N116	N	1.617058	0.177277	0.405686
H117	H	1.143965	-0.349969	-0.151064
H118	H	1.643965	0.150031	0.348936
H119	H	1.117492	-0.259731	-0.098160
H120	H	1.617492	0.240269	0.401840
H121	H	0.879562	0.217582	0.587126
H122	H	1.379562	0.717582	1.087126
H123	H	0.542798	0.254106	0.000053
H124	H	1.042798	0.754106	0.500053
N125	N	0.864601	0.232622	0.400300
N126	N	1.364601	0.732622	0.900300
H127	H	0.828788	0.268684	0.445264
H128	H	1.328788	0.768684	0.945264
H129	H	0.896422	0.269647	0.360468
H130	H	1.396422	0.769647	0.860468
N131	N	0.988661	-0.467173	-0.173624
N132	N	1.488661	0.032827	0.326376
H133	H	1.020010	-0.447610	-0.228094
H134	H	1.520010	0.052390	0.271906
H135	H	0.991158	-0.530541	-0.174758
H136	H	1.491158	-0.030541	0.325242
N137	N	0.592872	-0.042644	0.000064
N138	N	1.092872	0.457356	0.500064
H139	H	0.558529	-0.091689	0.000063
H140	H	1.058529	0.408311	0.500063
H141	H	0.629289	-0.045329	-0.056460
H142	H	1.129289	0.454671	0.443540
N143	N	0.844716	-0.287647	-0.082630
N144	N	1.344716	0.212353	0.417370
H145	H	0.872251	-0.312191	-0.140348
H146	H	1.372251	0.187809	0.359652
H147	H	0.784935	-0.300908	-0.080286
H148	H	1.284935	0.199092	0.419714
N149	N	0.841831	-0.447935	0.081950
N150	N	1.341831	0.052065	0.581950
H151	H	0.878749	-0.490292	0.119433
H152	H	1.378749	0.009708	0.619433
H153	H	0.823700	-0.396820	0.120761
H154	H	1.323700	0.103180	0.620761
N155	N	0.844403	-0.288378	0.082868
N156	N	1.344403	0.211622	0.582868
H157	H	0.784655	-0.301712	0.080189
H158	H	1.284655	0.198288	0.580189
H159	H	0.871861	-0.313351	0.140429
H160	H	1.371861	0.186649	0.640429
N161	N	0.982824	-0.463867	0.173412
N162	N	1.482824	0.036133	0.673412
H163	H	0.965389	-0.411801	0.211011
H164	H	1.465389	0.088199	0.711011
H165	H	0.931796	-0.491805	0.156465
H166	H	1.431796	0.008195	0.656465
N167	N	1.114539	-0.482371	0.092466
N168	N	1.614539	0.017629	0.592466
H169	H	1.113746	-0.545419	0.092559
H170	H	1.613746	-0.045419	0.592559
H171	H	1.147260	-0.465520	0.037737
H172	H	1.647260	0.034480	0.537737
N173	N	0.987159	-0.305401	0.172960
N174	N	1.487159	0.194599	0.672960
H175	H	1.016448	-0.332250	0.228617
H176	H	1.516448	0.167750	0.728617
H177	H	0.990854	-0.242797	0.173868
H178	H	1.490854	0.257203	0.673868
N179	N	1.116808	-0.482072	-0.086981
N180	N	1.616808	0.017928	0.413019
H181	H	1.126342	-0.520053	-0.031766
H182	H	1.626342	-0.020053	0.468234
H183	H	1.126741	-0.516517	-0.144783
H184	H	1.626741	-0.016517	0.355217
