data_functionalizedCrystal
_audit_creation_method	'MofGen! by Chris Wilmer'
_symmetry_space_group_name_H-M	'P1'
_symmetry_Int_Tables_number	1
_symmetry_cell_setting	triclinic
loop_
_symmetry_equiv_pos_as_xyz
  x,y,z
_cell_length_a	19.077105
_cell_length_b	13.032721
_cell_length_c	19.076919
_cell_angle_alpha	99.138159
_cell_angle_beta	90.076224
_cell_angle_gamma	95.201395
loop_
_atom_site_label
_atom_site_type_symbol
_atom_site_fract_x
_atom_site_fract_y
_atom_site_fract_z
Zn1	Zn	1.013397	-0.505360	-0.481832
Zn2	Zn	1.003124	-0.673317	-0.378090
Zn3	Zn	0.901858	-0.491366	-0.358479
Zn4	Zn	0.881001	-0.672687	-0.490791
O5	O	0.949845	-0.585683	-0.427298
O6	O	1.109823	-0.533760	-0.472529
O7	O	0.994119	-0.643588	-0.276699
O8	O	0.929682	-0.347048	-0.362886
O9	O	1.102275	-0.657157	-0.396309
O10	O	1.011630	-0.357329	-0.453513
O11	O	0.919720	-0.509909	-0.262291
O12	O	0.801303	-0.509299	-0.371572
O13	O	0.894135	-0.656084	-0.588392
O14	O	0.785980	-0.642515	-0.468781
O15	O	0.991406	-0.533149	-0.581810
O16	O	0.973896	-0.819408	-0.404996
O17	O	0.884173	-0.818945	-0.487797
C18	C	0.768286	-0.574321	-0.419021
C19	C	0.690611	-0.569486	-0.415499
C20	C	0.646154	-0.636670	-0.464393
C21	C	0.573171	-0.632114	-0.461086
C22	C	0.544646	-0.560378	-0.408881
C23	C	0.589109	-0.493187	-0.359985
C24	C	0.662091	-0.497739	-0.363296
C25	C	0.327230	-0.539312	-0.393562
C26	C	0.254242	-0.534767	-0.390254
C27	C	0.238309	-0.673693	-0.491357
C28	C	0.311292	-0.678243	-0.494660
C29	C	0.355749	-0.611048	-0.445766
N30	N	0.470046	-0.555721	-0.405499
N31	N	0.430348	-0.615700	-0.449153
C32	C	0.925675	-0.857080	-0.449513
C33	C	0.915397	-0.973191	-0.459043
C34	C	0.955245	-1.025155	-0.422357
C35	C	0.944623	-1.145161	-0.432206
C36	C	1.132113	-0.597090	-0.435607
C37	C	1.209785	-0.601951	-0.439148
C38	C	0.941590	-0.596107	-0.611432
C39	C	0.938072	-0.600549	-0.689899
C40	C	0.974128	-0.313227	-0.405012
C41	C	0.984476	-0.197123	-0.395516
C42	C	0.987061	-0.538633	-0.723338
C43	C	0.983747	-0.542803	-0.797065
C44	C	0.931448	-0.608894	-0.837354
C45	C	0.882454	-0.670812	-0.803910
C46	C	0.885765	-0.666637	-0.730183
C47	C	0.916112	-0.628240	-1.058220
C48	C	0.912806	-0.632414	-1.131952
C49	C	1.014098	-0.504402	-1.125102
C50	C	1.017407	-0.500237	-1.051375
C51	C	0.968412	-0.562151	-1.017937
N52	N	0.928061	-0.613160	-0.912715
N53	N	0.971796	-0.557879	-0.942576
C54	C	0.958115	-0.575226	-0.243875
C55	C	0.961794	-0.570498	-0.165391
H56	H	0.202105	-0.728397	-0.531164
O57	O	0.838215	-0.726681	-0.697583
C58	C	0.798449	-0.777025	-0.587041
C59	C	0.852337	-0.708954	-0.623867
H60	H	0.809856	-0.762733	-0.527438
H61	H	0.743073	-0.755969	-0.597411
H62	H	0.802553	-0.862834	-0.609025
H63	H	0.848298	-0.623126	-0.601905
H64	H	0.907690	-0.730099	-0.613500
O65	O	1.005232	-0.972190	-0.376104
C66	C	1.029817	-0.844062	-0.271213
C67	C	0.973132	-0.903987	-0.323534
H68	H	1.003887	-0.788890	-0.228706
H69	H	1.058162	-0.901798	-0.245065
H70	H	1.069379	-0.797081	-0.301171
H71	H	0.933525	-0.950970	-0.293628
H72	H	0.944841	-0.846198	-0.349681
H73	H	0.873422	-1.017547	-0.497745
O74	O	1.034521	-1.144332	-0.349253
C75	C	1.076848	-1.106051	-0.228004
C76	C	1.020138	-1.165912	-0.280321
H77	H	1.065231	-1.123460	-0.172260
H78	H	1.130767	-1.131608	-0.244697
H79	H	1.076504	-1.018700	-0.228323
H80	H	1.020417	-1.253275	-0.280029
H81	H	0.966245	-1.140269	-0.263611
O82	O	0.831738	-0.735131	-0.843090
C83	C	0.806030	-0.880246	-0.937462
C84	C	0.863536	-0.807490	-0.893135
H85	H	0.831716	-0.938752	-0.977944
H86	H	0.771587	-0.923860	-0.900935
H87	H	0.772206	-0.831931	-0.966356
H88	H	0.897409	-0.855728	-0.864236
H89	H	0.897928	-0.763872	-0.929697
H90	H	0.363418	-0.484604	-0.353745
H91	H	0.876225	-0.678671	-1.031006
O92	O	1.061759	-0.444219	-1.157475
C93	C	1.162544	-0.316752	-1.142892
C94	C	1.108623	-0.384878	-1.106144
H95	H	1.200438	-0.268741	-1.101407
H96	H	1.193314	-0.368898	-1.182979
H97	H	1.133761	-0.262125	-1.171499
H98	H	1.137350	-0.439514	-1.077498
H99	H	1.077855	-0.332670	-1.066096
O100	O	0.673745	-0.706385	-0.515171
C101	C	0.650228	-0.843734	-0.615078
C102	C	0.618892	-0.764817	-0.557617
H103	H	0.605893	-0.891012	-0.649402
H104	H	0.686983	-0.800136	-0.649727
H105	H	0.681012	-0.898529	-0.588609
H106	H	0.588073	-0.710001	-0.584026
H107	H	0.582175	-0.808483	-0.522974
H108	H	1.029650	-0.484818	-0.690541
O109	O	0.894552	-1.198222	-0.478328
C110	C	0.838364	-1.366218	-0.530248
C111	C	0.895082	-1.306255	-0.477982
H112	H	0.838784	-1.453574	-0.529997
H113	H	0.784433	-1.340763	-0.513506
H114	H	0.849920	-1.348701	-0.585979
H115	H	0.883593	-1.323743	-0.422235
H116	H	0.948995	-1.331718	-0.494785
H117	H	0.536976	-0.686823	-0.500901
H118	H	0.870215	-0.686236	-1.164753
O119	O	0.338885	-0.747957	-0.545437
C120	C	0.315374	-0.885318	-0.645339
C121	C	0.284034	-0.806395	-0.587884
H122	H	0.271041	-0.932602	-0.679662
H123	H	0.352131	-0.841725	-0.679988
H124	H	0.346157	-0.940108	-0.618863
H125	H	0.253217	-0.751585	-0.614299
H126	H	0.247315	-0.850056	-0.553239
O127	O	1.031242	-0.482532	-0.829559
C128	C	1.049467	-0.346821	-0.901708
C129	C	0.995605	-0.415005	-0.864935
H130	H	1.020675	-0.292224	-0.930331
H131	H	1.087406	-0.298797	-0.860268
H132	H	1.080200	-0.399027	-0.941792
H133	H	0.964824	-0.362877	-0.824855
H134	H	0.957714	-0.463038	-0.906416
O135	O	0.226417	-0.465144	-0.339582
C136	C	0.121048	-0.396475	-0.289742
C137	C	0.152466	-0.475396	-0.347140
H138	H	0.061256	-0.404722	-0.295841
H139	H	0.136257	-0.412311	-0.234906
H140	H	0.142384	-0.313904	-0.296015
H141	H	0.131147	-0.557997	-0.340933
H142	H	0.137263	-0.459470	-0.401953
H143	H	0.565879	-0.434774	-0.317481
H144	H	0.698288	-0.443025	-0.323484
H145	H	1.059997	-0.446421	-1.018577
