data_functionalizedCrystal
_audit_creation_method	'MofGen! by Chris Wilmer'
_symmetry_space_group_name_H-M	'P1'
_symmetry_Int_Tables_number	1
_symmetry_cell_setting	triclinic
loop_
_symmetry_equiv_pos_as_xyz
  x,y,z
_cell_length_a	14.519731
_cell_length_b	23.532355
_cell_length_c	13.596369
_cell_angle_alpha	90.000488
_cell_angle_beta	89.993029
_cell_angle_gamma	83.258176
loop_
_atom_site_label
_atom_site_type_symbol
_atom_site_fract_x
_atom_site_fract_y
_atom_site_fract_z
O1	O	0.111722	0.755789	-0.081660
O2	O	0.445055	1.089122	0.251673
O3	O	0.778388	1.422455	0.585007
O4	O	0.127970	0.589995	-0.081691
O5	O	0.461303	0.923328	0.251642
O6	O	0.794636	1.256662	0.584975
O7	O	-0.014445	0.677281	-0.081666
O8	O	0.318889	1.010615	0.251667
O9	O	0.652222	1.343948	0.585001
O10	O	0.254136	0.668502	-0.081685
O11	O	0.587469	1.001836	0.251648
O12	O	0.920803	1.335169	0.584981
O13	O	-0.014452	0.677273	0.081917
O14	O	0.318881	1.010606	0.415250
O15	O	0.652215	1.343939	0.748584
O16	O	0.127962	0.589986	0.081891
O17	O	0.461296	0.923320	0.415225
O18	O	0.794629	1.256653	0.748558
O19	O	0.111714	0.755780	0.081923
O20	O	0.445048	1.089113	0.415256
O21	O	0.778381	1.422447	0.748590
Zn22	Zn	0.119837	0.672882	0.107880
Zn23	Zn	0.453170	1.006215	0.441213
Zn24	Zn	0.786504	1.339548	0.774546
Zn25	Zn	0.119847	0.672893	-0.107648
Zn26	Zn	0.453180	1.006227	0.225685
Zn27	Zn	0.786513	1.339560	0.559019
O28	O	0.254129	0.668494	0.081897
O29	O	0.587462	1.001827	0.415231
O30	O	0.920795	1.335160	0.748564
C31	C	0.127560	0.568772	0.000096
C32	C	0.460893	0.902106	0.333429
C33	C	0.794227	1.235439	0.666763
C34	C	0.126339	0.505548	0.000084
C35	C	0.459672	0.838881	0.333418
C36	C	0.793005	1.172215	0.666751
C37	C	0.118662	0.113495	0.089295
C38	C	0.451996	0.446828	0.422628
C39	C	0.785329	0.780161	0.755962
C40	C	0.117501	0.054090	0.089299
C41	C	0.450834	0.387423	0.422632
C42	C	0.784167	0.720757	0.755966
O43	O	0.116865	0.023364	0.165133
O44	O	0.450198	0.356698	0.498466
O45	O	0.783532	0.690031	0.831800
N46	N	0.116929	0.024384	0.000130
N47	N	0.450262	0.357717	0.333464
N48	N	0.783595	0.691050	0.666797
C49	C	0.117509	0.054086	-0.089048
C50	C	0.450842	0.387419	0.244285
C51	C	0.784176	0.720752	0.577619
O52	O	0.116915	0.023363	-0.164893
O53	O	0.450248	0.356697	0.168441
O54	O	0.783582	0.690030	0.501774
C55	C	0.118664	0.113490	-0.089051
C56	C	0.451997	0.446823	0.244282
C57	C	0.785331	0.780157	0.577616
C58	C	0.119246	0.143192	0.000124
C59	C	0.452579	0.476526	0.333457
C60	C	0.785912	0.809859	0.666790
C61	C	0.119243	0.143197	0.178462
C62	C	0.452576	0.476531	0.511796
C63	C	0.785909	0.809864	0.845129
C64	C	0.120406	0.202598	0.178458
C65	C	0.453739	0.535931	0.511791
C66	C	0.787073	0.869264	0.845125
C67	C	0.120989	0.232296	0.089287
C68	C	0.454323	0.565629	0.422620
C69	C	0.787656	0.898962	0.755953
C70	C	0.120409	0.202593	0.000119
C71	C	0.453742	0.535926	0.333453
C72	C	0.787076	0.869260	0.666786
C73	C	0.119238	0.143191	-0.178228
C74	C	0.452571	0.476525	0.155105
C75	C	0.785905	0.809858	0.488438
C76	C	0.120392	0.202600	-0.178224
C77	C	0.453726	0.535933	0.155110
C78	C	0.787059	0.869266	0.488443
C79	C	0.120974	0.232302	-0.089049
C80	C	0.454307	0.565636	0.244284
C81	C	0.787640	0.898969	0.577618
C82	C	0.122155	0.291691	-0.089057
C83	C	0.455489	0.625024	0.244277
C84	C	0.788822	0.958358	0.577610
N85	N	0.122727	0.321398	0.000112
N86	N	0.456061	0.654731	0.333446
N87	N	0.789394	0.988064	0.666779
C88	C	0.122144	0.291700	0.089284
C89	C	0.455478	0.625033	0.422617
C90	C	0.788811	0.958366	0.755950
C91	C	0.115082	-0.070667	-0.089035
C92	C	0.448415	0.262666	0.244298
C93	C	0.781748	0.596000	0.577631
C94	C	0.113933	-0.130070	-0.089033
C95	C	0.447267	0.203263	0.244300
C96	C	0.780600	0.536596	0.577633
C97	C	0.113923	-0.130062	0.089314
C98	C	0.447256	0.203271	0.422647
C99	C	0.780590	0.536605	0.755981
C100	C	0.115078	-0.070658	0.089311
C101	C	0.448412	0.262675	0.422644
C102	C	0.781745	0.596009	0.755978
C103	C	0.115654	-0.040961	0.000133
C104	C	0.448987	0.292373	0.333467
C105	C	0.782320	0.625706	0.666800
C106	C	0.124588	0.416445	0.089268
C107	C	0.457922	0.749778	0.422601
C108	C	0.791255	1.083112	0.755935
C109	C	0.125756	0.475850	0.089256
C110	C	0.459089	0.809184	0.422589
C111	C	0.792422	1.142517	0.755922
C112	C	0.125761	0.475837	-0.089091
C113	C	0.459094	0.809170	0.244242
C114	C	0.792427	1.142504	0.577576
C115	C	0.124598	0.416437	-0.089079
C116	C	0.457932	0.749770	0.244254
C117	C	0.791265	1.083103	0.577587
C118	C	0.124009	0.386742	0.000108
C119	C	0.457342	0.720075	0.333441
C120	C	0.790676	1.053409	0.666775
O121	O	0.122788	0.322455	-0.164852
O122	O	0.456121	0.655788	0.168482
O123	O	0.789455	0.989121	0.501815
O124	O	0.122726	0.322430	0.165115
O125	O	0.456060	0.655764	0.498449
O126	O	0.789393	0.989097	0.831782
C127	C	-0.048803	0.676866	0.000126
C128	C	0.284530	1.010199	0.333459
C129	C	0.617864	1.343532	0.666792
C130	C	-0.151168	0.675633	0.000126
C131	C	0.182165	1.008966	0.333459
C132	C	0.515499	1.342300	0.666793
C133	C	-0.234300	0.674631	0.000124
C134	C	0.099033	1.007965	0.333457
C135	C	0.432367	1.341298	0.666790
C136	C	-0.338594	0.673380	0.000116
C137	C	-0.005260	1.006713	0.333449
C138	C	0.328073	1.340047	0.666783
C139	C	-0.421721	0.672387	0.000109
C140	C	-0.088387	1.005720	0.333443
C141	C	0.244946	1.339053	0.666776
C142	C	-0.526021	0.671135	0.000103
C143	C	-0.192688	1.004469	0.333437
C144	C	0.140646	1.337802	0.666770
C145	C	0.288487	0.668909	0.000104
C146	C	0.621820	1.002243	0.333437
C147	C	0.955153	1.335576	0.666770
C148	C	0.390852	0.670142	0.000097
C149	C	0.724185	1.003475	0.333430
C150	C	1.057519	1.336809	0.666764
C151	C	0.112124	0.777003	0.000133
C152	C	0.445457	1.110336	0.333467
C153	C	0.778791	1.443669	0.666800
C154	C	0.113345	0.840227	0.000139
C155	C	0.446678	1.173560	0.333472
C156	C	0.780012	1.506894	0.666805
N157	N	0.119830	0.672878	0.254971
N158	N	0.453163	1.006211	0.588305
N159	N	0.786496	1.339545	0.921638
N160	N	0.119847	0.672901	-0.254740
N161	N	0.453180	1.006235	0.078594
N162	N	0.786513	1.339568	0.411927
C163	C	0.119848	0.672893	0.656262
C164	C	0.453181	1.006226	0.989596
C165	C	0.786514	1.339559	1.322929
C166	C	0.119846	0.672887	0.544611
C167	C	0.453179	1.006220	0.877944
C168	C	0.786513	1.339553	1.211278
C169	C	0.119840	0.672886	0.455620
C170	C	0.453173	1.006219	0.788954
C171	C	0.786506	1.339552	1.122287
C172	C	0.119836	0.672879	0.343962
C173	C	0.453170	1.006213	0.677295
C174	C	0.786503	1.339546	1.010629
H175	H	0.124140	0.392250	-0.161693
H176	H	0.457473	0.725584	0.171641
H177	H	0.790807	1.058917	0.504974
C178	C	0.118593	0.110529	-0.276319
C179	C	0.451927	0.443863	0.057014
C180	C	0.785260	0.777196	0.390347
H181	H	0.117826	0.070895	-0.263562
H182	H	0.451160	0.404228	0.069771
H183	H	0.784493	0.737562	0.403105
H184	H	0.064997	0.124559	-0.312946
H185	H	0.398330	0.457892	0.020388
H186	H	0.731663	0.791226	0.353721
H187	H	0.172574	0.115978	-0.312964
H188	H	0.505907	0.449311	0.020369
H189	H	0.839241	0.782644	0.353702
C190	C	0.113305	-0.162738	-0.187125
C191	C	0.446639	0.170595	0.146208
C192	C	0.779972	0.503929	0.479542
H193	H	0.113814	-0.136537	-0.240228
H194	H	0.447147	0.196796	0.093105
H195	H	0.780480	0.530129	0.426439
H196	H	0.166637	-0.190202	-0.190840
H197	H	0.499970	0.143131	0.142493
H198	H	0.833303	0.476464	0.475826
H199	H	0.059059	-0.181619	-0.190831
H200	H	0.392393	0.151715	0.142502
H201	H	0.725726	0.485048	0.475836
H202	H	0.115553	-0.046478	0.161925
H203	H	0.448886	0.286855	0.495258
H204	H	0.782219	0.620189	0.828592
C205	C	0.121033	0.235263	-0.276322
C206	C	0.454366	0.568596	0.057012
C207	C	0.787699	0.901930	0.390345
H208	H	0.120529	0.209061	-0.329423
H209	H	0.453862	0.542394	0.003910
H210	H	0.787195	0.875728	0.337243
H211	H	0.067703	0.262728	-0.280030
H212	H	0.401036	0.596061	0.053303
H213	H	0.734370	0.929395	0.386637
H214	H	0.175280	0.254143	-0.280036
H215	H	0.508614	0.587476	0.053297
H216	H	0.841947	0.920809	0.386630
C217	C	0.126394	0.508513	-0.187172
C218	C	0.459727	0.841846	0.146161
C219	C	0.793061	1.175180	0.479495
H220	H	0.127158	0.548146	-0.174395
H221	H	0.460491	0.881479	0.158938
H222	H	0.793824	1.214812	0.492272
H223	H	0.179985	0.494493	-0.223829
H224	H	0.513319	0.827826	0.109505
H225	H	0.846652	1.161159	0.442838
H226	H	0.072408	0.503068	-0.223796
H227	H	0.405741	0.836401	0.109537
H228	H	0.739074	1.169735	0.442870
C229	C	0.113545	-0.162758	0.187402
C230	C	0.446878	0.170575	0.520735
C231	C	0.780212	0.503909	0.854068
H232	H	0.112847	-0.202396	0.174625
H233	H	0.446180	0.130937	0.507958
H234	H	0.779513	0.464271	0.841291
H235	H	0.167600	-0.157259	0.223857
H236	H	0.500933	0.176074	0.557190
H237	H	0.834266	0.509407	0.890524
H238	H	0.060020	-0.148802	0.224227
H239	H	0.393354	0.184531	0.557560
H240	H	0.726687	0.517864	0.890894
H241	H	0.115559	-0.046492	-0.161659
H242	H	0.448892	0.286842	0.171674
H243	H	0.782225	0.620175	0.505008
H244	H	0.124117	0.392274	0.161893
H245	H	0.457450	0.725607	0.495226
H246	H	0.790784	1.058941	0.828560
C247	C	0.126384	0.508521	0.187352
C248	C	0.459717	0.841854	0.520685
C249	C	0.793050	1.175188	0.854018
H250	H	0.125858	0.482324	0.240457
H251	H	0.459191	0.815657	0.573790
H252	H	0.792524	1.148990	0.907124
H253	H	0.180619	0.527406	0.191063
H254	H	0.513953	0.860740	0.524396
H255	H	0.847286	1.194073	0.857730
H256	H	0.073042	0.535983	0.191057
H257	H	0.406375	0.869316	0.524390
H258	H	0.739708	1.202649	0.857724
H259	H	0.118766	0.119024	0.251081
H260	H	0.452099	0.452357	0.584414
H261	H	0.785433	0.785690	0.917747
C262	C	0.121041	0.235263	0.276551
C263	C	0.454375	0.568597	0.609884
C264	C	0.787708	0.901930	0.943217
H265	H	0.120521	0.209062	0.329651
H266	H	0.453854	0.542396	0.662984
H267	H	0.787187	0.875729	0.996318
H268	H	0.175278	0.254148	0.280260
H269	H	0.508611	0.587481	0.613593
H270	H	0.841945	0.920814	0.946926
H271	H	0.067701	0.262726	0.280268
H272	H	0.401034	0.596059	0.613601
H273	H	0.734367	0.929392	0.946934
