data_functionalizedCrystal
_audit_creation_method	'MofGen! by Chris Wilmer'
_symmetry_space_group_name_H-M	'P1'
_symmetry_Int_Tables_number	1
_symmetry_cell_setting	triclinic
loop_
_symmetry_equiv_pos_as_xyz
  x,y,z
_cell_length_a	8.559649
_cell_length_b	10.540539
_cell_length_c	7.088929
_cell_angle_alpha	83.715612
_cell_angle_beta	95.325015
_cell_angle_gamma	77.152078
loop_
_atom_site_label
_atom_site_type_symbol
_atom_site_fract_x
_atom_site_fract_y
_atom_site_fract_z
O1	O	2.103404	-0.028386	-0.158958
O2	O	1.638947	0.037097	-0.158965
O3	O	1.881772	-0.181461	-0.158959
O4	O	1.860579	0.190172	-0.158964
O5	O	1.914223	-0.210727	0.159017
O6	O	1.671397	0.007830	0.159011
O7	O	2.135855	-0.057653	0.159018
Cu8	Cu	1.906589	-0.027584	0.188048
Cu9	Cu	1.868213	0.007028	-0.187995
O10	O	1.893030	0.160905	0.159012
C11	C	1.595699	0.027426	0.000022
C12	C	1.418487	0.042198	0.000019
C13	C	1.896408	-0.243230	0.000025
C14	C	1.891652	-0.383680	0.000015
C15	C	1.709377	-0.547965	-0.000701
C16	C	1.714270	-0.401917	0.000014
C17	C	1.995547	-0.470987	0.181596
C18	C	1.989509	-0.616912	0.181749
C19	C	1.956214	-0.584526	-0.179849
C20	C	1.957603	-0.437494	-0.182250
C21	C	2.179103	-0.047981	0.000027
C22	C	2.356313	-0.062752	0.000017
C23	C	1.878394	0.222675	0.000023
C24	C	1.883148	0.363125	0.000021
N25	N	1.933593	-0.051929	0.452537
N26	N	1.841222	0.031362	-0.452484
H27	H	1.336134	0.143358	0.000007
C28	C	1.934060	-0.421876	0.364143
H29	H	1.845126	-0.348218	0.330087
H30	H	2.018224	-0.397092	0.437616
H31	H	1.900855	-0.490024	0.437328
H32	H	1.633817	-0.340301	-0.130150
H33	H	1.745490	0.117677	0.465867
C34	C	1.596750	-0.560510	-0.176590
H35	H	1.654686	-0.620089	-0.251159
H36	H	1.557862	-0.476940	-0.251368
H37	H	1.508223	-0.592278	-0.135744
H38	H	2.029343	-0.138242	0.534195
C39	C	1.632954	-0.594984	0.174226
H40	H	1.706490	-0.668560	0.247701
H41	H	1.536394	-0.619354	0.132478
H42	H	1.608861	-0.526043	0.250443
H43	H	2.084212	-0.645054	-0.181068
C44	C	1.854832	-0.356667	-0.363726
H45	H	1.772080	-0.290394	-0.328585
H46	H	1.807595	-0.412763	-0.435025
H47	H	1.921424	-0.316952	-0.439513
C48	C	1.467542	-0.199404	0.000025
H49	H	1.576053	-0.191741	0.000042
H50	H	1.436295	-0.235185	-0.110857
H51	H	1.458926	-0.255589	0.110928
H52	H	1.940273	-0.651000	0.317483
C53	C	1.640877	-0.352138	0.176141
H54	H	1.643603	-0.262601	0.177170
H55	H	1.701487	-0.402917	0.289096
H56	H	1.532237	-0.360167	0.170797
C57	C	2.162974	-0.700790	0.192917
H58	H	2.236820	-0.645614	0.197357
H59	H	2.173225	-0.745131	0.083430
H60	H	2.185901	-0.763356	0.304898
C61	C	2.172450	-0.460050	0.190742
H62	H	2.184545	-0.401996	0.083649
H63	H	2.240599	-0.544307	0.189062
H64	H	2.201334	-0.427070	0.305153
C65	C	1.859683	-0.601907	-0.365773
H66	H	1.773906	-0.641255	-0.335432
H67	H	1.928841	-0.656608	-0.436673
H68	H	1.816707	-0.518563	-0.439896
H69	H	2.085809	-0.425804	-0.193212
