data_functionalizedCrystal
_audit_creation_method	'MofGen! by Chris Wilmer'
_symmetry_space_group_name_H-M	'P1'
_symmetry_Int_Tables_number	1
_symmetry_cell_setting	triclinic
loop_
_symmetry_equiv_pos_as_xyz
  x,y,z
_cell_length_a	15.995350
_cell_length_b	16.109301
_cell_length_c	15.186229
_cell_angle_alpha	89.994833
_cell_angle_beta	90.000289
_cell_angle_gamma	83.476928
loop_
_atom_site_label
_atom_site_type_symbol
_atom_site_fract_x
_atom_site_fract_y
_atom_site_fract_z
O1	O	1.110955	0.107165	-0.073157
O2	O	0.867176	0.120399	-0.073175
O3	O	0.995762	-0.007247	-0.073157
O4	O	0.982369	0.234811	-0.073176
O5	O	0.995754	-0.007249	0.073301
O6	O	0.867168	0.120397	0.073282
O7	O	1.110946	0.107164	0.073300
Zn8	Zn	0.989056	0.113780	0.096544
Zn9	Zn	0.989067	0.113783	-0.096419
O10	O	0.982360	0.234810	0.073282
C11	C	0.995216	-0.038223	0.000072
C12	C	0.993589	-0.130519	0.000074
C13	C	0.835977	0.119851	0.000051
C14	C	0.743027	0.118211	0.000044
C15	C	1.066107	-0.352771	0.000065
C16	C	1.064573	-0.439492	0.000058
C17	C	0.912009	-0.419659	0.000050
C18	C	0.913545	-0.332940	0.000051
C19	C	0.990597	-0.299499	0.000063
C20	C	0.987526	-0.472939	0.000055
C21	C	0.985861	-0.566965	0.000047
C22	C	0.992262	-0.205466	0.000069
C23	C	0.405281	0.112320	0.000063
C24	C	0.452740	0.021413	0.000397
C25	C	0.549430	0.023054	0.000061
C26	C	0.572841	0.115242	0.000054
C27	C	0.531747	0.160082	-0.083580
C28	C	0.435112	0.157798	-0.083644
C29	C	0.434762	0.159674	0.082906
C30	C	0.531708	0.159653	0.084005
C31	C	0.667538	0.116898	0.000046
C32	C	0.310584	0.110667	0.000065
C33	C	1.142145	0.107712	0.000072
C34	C	1.235095	0.109352	0.000073
C35	C	0.982907	0.265786	0.000051
C36	C	0.984534	0.358081	0.000044
N37	N	0.989054	0.113778	0.228237
N38	N	0.989075	0.113778	-0.228112
C39	C	1.046011	0.057275	0.453968
C40	C	1.046014	0.057273	0.546158
C41	C	0.932112	0.170283	0.546150
C42	C	0.932106	0.170281	0.453962
C43	C	0.989060	0.113778	0.407874
C44	C	0.989069	0.113778	0.592251
C45	C	0.989071	0.113777	0.692208
C46	C	0.989057	0.113778	0.307911
H47	H	1.128848	-0.325547	0.000073
O48	O	0.870698	0.231234	0.595866
H49	H	0.831093	0.270520	0.548323
H50	H	1.126061	-0.482864	0.000058
O51	O	1.107450	-0.003657	0.595878
H52	H	1.147056	-0.042938	0.548338
H53	H	0.852051	-0.289563	0.000046
H54	H	0.885725	0.216292	0.416430
O55	O	0.586353	-0.023942	-0.079488
H56	H	0.655621	-0.022940	-0.080001
H57	H	0.545853	0.227810	-0.086694
H58	H	0.849277	-0.446898	0.000041
O59	O	0.587105	-0.023622	0.079478
H60	H	0.536269	-0.047578	0.118469
H61	H	1.092386	0.011266	0.416445
H62	H	0.434225	-0.014925	0.060375
H63	H	0.433160	-0.014756	-0.059244
H64	H	0.416816	0.125101	-0.146158
H65	H	0.402845	0.224541	-0.087444
O66	O	0.392659	0.248453	0.083653
H67	H	0.441371	0.292294	0.081494
O68	O	0.569331	0.118826	-0.166026
H69	H	0.638127	0.122921	-0.166989
O70	O	0.407588	0.120301	0.166882
H71	H	0.372762	0.066536	0.150507
H72	H	0.559030	0.126920	0.145877
H73	H	0.547054	0.226879	0.089052
