data_functionalizedCrystal
_audit_creation_method	'MofGen! by Chris Wilmer'
_symmetry_space_group_name_H-M	'P1'
_symmetry_Int_Tables_number	1
_symmetry_cell_setting	triclinic
loop_
_symmetry_equiv_pos_as_xyz
  x,y,z
_cell_length_a	17.000371
_cell_length_b	14.519709
_cell_length_c	13.596369
_cell_angle_alpha	90.006934
_cell_angle_beta	89.994129
_cell_angle_gamma	100.360304
loop_
_atom_site_label
_atom_site_type_symbol
_atom_site_fract_x
_atom_site_fract_y
_atom_site_fract_z
O1	O	1.056151	-0.033229	-0.081796
O2	O	1.389484	0.300104	0.251537
O3	O	1.722817	0.633438	0.584871
O4	O	0.824466	-0.066696	-0.081798
O5	O	1.157799	0.266637	0.251536
O6	O	1.491132	0.599971	0.584869
O7	O	0.946451	0.084786	-0.081788
O8	O	1.279784	0.418119	0.251545
O9	O	1.613118	0.751453	0.584879
O10	O	0.934165	-0.184711	-0.081806
O11	O	1.267499	0.148623	0.251527
O12	O	1.600832	0.481956	0.584861
O13	O	0.946439	0.084792	0.081795
O14	O	1.279772	0.418126	0.415128
O15	O	1.613105	0.751459	0.748462
O16	O	0.824453	-0.066690	0.081785
O17	O	1.157787	0.266644	0.415118
O18	O	1.491120	0.599977	0.748452
O19	O	1.056139	-0.033222	0.081787
O20	O	1.389472	0.300111	0.415120
O21	O	1.722805	0.633444	0.748453
Zn22	Zn	0.940294	-0.049955	0.107758
Zn23	Zn	1.273627	0.283378	0.441092
Zn24	Zn	1.606961	0.616712	0.774425
Zn25	Zn	0.940310	-0.049963	-0.107769
Zn26	Zn	1.273643	0.283370	0.225564
Zn27	Zn	1.606977	0.616703	0.558897
O28	O	0.934153	-0.184704	0.081777
O29	O	1.267487	0.148629	0.415110
O30	O	1.600820	0.481962	0.748444
C31	C	0.794808	-0.068490	-0.000006
C32	C	1.128142	0.264843	0.333327
C33	C	1.461475	0.598176	0.666660
C34	C	0.706457	-0.073836	-0.000007
C35	C	1.039791	0.259498	0.333327
C36	C	1.373124	0.592831	0.666660
C37	C	0.674315	0.008422	0.000000
C38	C	1.007648	0.341755	0.333334
C39	C	1.340981	0.675088	0.666667
C40	C	0.591299	0.003394	-0.000007
C41	C	0.924632	0.336727	0.333326
C42	C	1.257966	0.670060	0.666660
C43	C	0.540427	-0.083893	-0.000015
C44	C	0.873761	0.249441	0.333319
C45	C	1.207094	0.582774	0.666652
C46	C	0.572575	-0.166156	-0.000025
C47	C	0.905908	0.167177	0.333309
C48	C	1.239242	0.500511	0.666642
C49	C	0.655589	-0.161127	-0.000024
C50	C	0.988923	0.172206	0.333309
C51	C	1.322256	0.505539	0.666642
C52	C	0.289309	-0.103318	-0.000023
C53	C	0.622642	0.230016	0.333311
C54	C	0.955976	0.563349	0.666644
C55	C	0.206289	-0.108340	-0.000020
C56	C	0.539623	0.224993	0.333313
C57	C	0.872956	0.558326	0.666647
C58	C	0.225019	0.061210	-0.000004
C59	C	0.558353	0.394544	0.333329
C60	C	0.891686	0.727877	0.666663
C61	C	0.308034	0.066232	0.000002
C62	C	0.641368	0.399565	0.333336
C63	C	0.974701	0.732898	0.666669
C64	C	0.340175	-0.016032	-0.000013
C65	C	0.673508	0.317301	0.333320
C66	C	1.006842	0.650635	0.666654
C67	C	0.455571	-0.089034	-0.000019
C68	C	0.788905	0.244299	0.333314
C69	C	1.122238	0.577633	0.666648
C70	C	0.425029	-0.010890	-0.000016
C71	C	0.758362	0.322444	0.333318
C72	C	1.091696	0.655777	0.666651
C73	C	0.945872	0.119101	0.000004
C74	C	1.279206	0.452435	0.333337
C75	C	1.612539	0.785768	0.666670
C76	C	0.944157	0.221340	0.000004
C77	C	1.277490	0.554674	0.333337
C78	C	1.610823	0.888007	0.666671
C79	C	1.085796	-0.031428	-0.000007
C80	C	1.419129	0.301905	0.333327
C81	C	1.752462	0.635239	0.666660
C82	C	1.174147	-0.026083	-0.000013
C83	C	1.507480	0.307251	0.333321
C84	C	1.840813	0.640584	0.666654
C85	C	0.934732	-0.219020	-0.000017
C86	C	1.268065	0.114314	0.333317
C87	C	1.601399	0.447647	0.666650
C88	C	0.936448	-0.321259	-0.000024
C89	C	1.269781	0.012075	0.333310
C90	C	1.603114	0.345408	0.666643
N91	N	0.940289	-0.049948	0.254850
N92	N	1.273622	0.283385	0.588183
N93	N	1.606956	0.616719	0.921517
C94	C	0.937840	0.595712	-0.000021
C95	C	1.271173	0.929045	0.333312
C96	C	1.604507	1.262378	0.666645
C97	C	0.939594	0.491549	-0.000014
C98	C	1.272928	0.824883	0.333319
C99	C	1.606261	1.158216	0.666653
C100	C	0.940998	0.408529	-0.000008
C101	C	1.274331	0.741863	0.333326
C102	C	1.607665	1.075196	0.666659
C103	C	0.942753	0.304360	-0.000002
C104	C	1.276086	0.637694	0.333331
C105	C	1.609419	0.971027	0.666664
N106	N	0.940322	-0.049963	-0.254861
N107	N	1.273655	0.283371	0.078472
N108	N	1.606988	0.616704	0.411806
C109	C	0.940309	-0.049965	0.656141
C110	C	1.273642	0.283369	0.989474
C111	C	1.606976	0.616702	1.322808
C112	C	0.940301	-0.049963	0.544490
C113	C	1.273634	0.283370	0.877823
C114	C	1.606968	0.616703	1.211156
C115	C	0.940299	-0.049957	0.455499
C116	C	1.273633	0.283376	0.788832
C117	C	1.606966	0.616710	1.122166
C118	C	0.940291	-0.049954	0.343841
C119	C	1.273624	0.283379	0.677174
C120	C	1.606957	0.616712	1.010507
H121	H	0.715730	0.079500	0.000011
H122	H	1.049063	0.412833	0.333344
H123	H	1.382396	0.746167	0.666677
O124	O	0.320391	-0.183316	0.000016
O125	O	0.653725	0.150017	0.333349
O126	O	0.987058	0.483351	0.666683
C127	C	0.293046	-0.352017	-0.000047
C128	C	0.626379	-0.018684	0.333286
C129	C	0.959713	0.314650	0.666620
C130	C	0.257735	-0.261488	-0.000070
C131	C	0.591069	0.071845	0.333263
C132	C	0.924402	0.405179	0.666596
H133	H	0.242406	-0.415242	-0.000138
H134	H	0.575739	-0.081909	0.333195
H135	H	0.909072	0.251425	0.666529
H136	H	0.331409	-0.353965	0.068427
H137	H	0.664743	-0.020632	0.401761
H138	H	0.998076	0.312701	0.735094
H139	H	0.331474	-0.353857	-0.068491
H140	H	0.664807	-0.020524	0.264842
H141	H	0.998141	0.312809	0.598176
H142	H	0.219271	-0.259587	0.068327
H143	H	0.552605	0.073746	0.401660
H144	H	0.885938	0.407079	0.734994
H145	H	0.219418	-0.259576	-0.068590
H146	H	0.552751	0.073757	0.264743
H147	H	0.886084	0.407091	0.598077
O148	O	0.156840	-0.193115	0.000143
O149	O	0.490173	0.140218	0.333477
O150	O	0.823507	0.473552	0.666810
C151	C	0.052210	-0.297168	0.084855
C152	C	0.385543	0.036166	0.418189
C153	C	0.718877	0.369499	0.751522
C154	C	0.108176	-0.201146	0.084800
C155	C	0.441509	0.132188	0.418134
C156	C	0.774842	0.465521	0.751467
H157	H	0.012839	-0.303684	0.153283
H158	H	0.346172	0.029649	0.486616
H159	H	0.679506	0.362983	0.819949
H160	H	0.089404	-0.355137	0.084906
H161	H	0.422737	-0.021804	0.418240
H162	H	0.756070	0.311530	0.751573
H163	H	0.012915	-0.303743	0.016368
H164	H	0.346249	0.029590	0.349701
H165	H	0.679582	0.362923	0.683034
H166	H	0.147482	-0.194479	0.153277
H167	H	0.480815	0.138855	0.486610
H168	H	0.814148	0.472188	0.819943
H169	H	0.070934	-0.143223	0.084698
H170	H	0.404267	0.190110	0.418031
H171	H	0.737601	0.523443	0.751365
O172	O	0.474523	0.073843	-0.000139
O173	O	0.807856	0.407177	0.333194
O174	O	1.141190	0.740510	0.666527
C175	C	0.579097	0.177932	-0.084903
C176	C	0.912430	0.511266	0.248430
C177	C	1.245764	0.844599	0.581764
C178	C	0.523095	0.081935	-0.084879
C179	C	0.856428	0.415268	0.248454
C180	C	1.189762	0.748601	0.581788
H181	H	0.618370	0.184513	-0.153418
H182	H	0.951703	0.517847	0.179915
H183	H	1.285037	0.851180	0.513249
H184	H	0.618480	0.184534	-0.016490
H185	H	0.951814	0.517867	0.316843
H186	H	1.285147	0.851200	0.650176
H187	H	0.541853	0.235851	-0.084846
H188	H	0.875186	0.569185	0.248487
H189	H	1.208519	0.902518	0.581820
H190	H	0.560276	0.023959	-0.084971
H191	H	0.893610	0.357292	0.248363
H192	H	1.226943	0.690626	0.581696
H193	H	0.483709	0.075414	-0.153286
H194	H	0.817042	0.408748	0.180048
H195	H	1.150375	0.742081	0.513381
H196	H	0.565133	0.070377	-0.000002
H197	H	0.898466	0.403710	0.333331
H198	H	1.231800	0.737043	0.666665
O199	O	0.523079	-0.250892	-0.000163
O200	O	0.856412	0.082441	0.333170
O201	O	1.189745	0.415775	0.666503
C202	C	0.418523	-0.354994	-0.084944
C203	C	0.751857	-0.021660	0.248390
C204	C	1.085190	0.311673	0.581723
C205	C	0.474517	-0.258990	-0.084902
C206	C	0.807850	0.074343	0.248432
C207	C	1.141183	0.407676	0.581765
H208	H	0.379258	-0.361580	-0.153457
H209	H	0.712591	-0.028247	0.179876
H210	H	1.045925	0.305086	0.513209
H211	H	0.379132	-0.361600	-0.016530
H212	H	0.712465	-0.028267	0.316804
H213	H	1.045798	0.305066	0.650137
H214	H	0.455774	-0.412906	-0.084902
H215	H	0.789108	-0.079573	0.248431
H216	H	1.122441	0.253760	0.581764
H217	H	0.437329	-0.201021	-0.084977
H218	H	0.770662	0.132312	0.248356
H219	H	1.103995	0.465645	0.581689
H220	H	0.513911	-0.252465	-0.153310
H221	H	0.847245	0.080869	0.180024
H222	H	1.180578	0.414202	0.513357
H223	H	0.349450	0.137309	0.000013
H224	H	0.682783	0.470643	0.333346
H225	H	1.016116	0.803976	0.666679
H226	H	0.681758	-0.228110	-0.000026
H227	H	1.015091	0.105223	0.333308
H228	H	1.348424	0.438557	0.666641
H229	H	0.198841	0.128185	-0.000003
H230	H	0.532174	0.461518	0.333331
H231	H	0.865508	0.794851	0.666664
H232	H	0.414142	-0.160103	-0.000024
H233	H	0.747476	0.173231	0.333309
H234	H	1.080809	0.506564	0.666643
