data_functionalizedCrystal
_audit_creation_method	'MofGen! by Chris Wilmer'
_symmetry_space_group_name_H-M	'P1'
_symmetry_Int_Tables_number	1
_symmetry_cell_setting	triclinic
loop_
_symmetry_equiv_pos_as_xyz
  x,y,z
_cell_length_a	18.266242
_cell_length_b	19.188928
_cell_length_c	19.188924
_cell_angle_alpha	96.857113
_cell_angle_beta	90.009637
_cell_angle_gamma	89.984096
loop_
_atom_site_label
_atom_site_type_symbol
_atom_site_fract_x
_atom_site_fract_y
_atom_site_fract_z
O1	O	0.061167	-0.926138	0.087164
O2	O	0.561167	-0.426138	0.587164
O3	O	0.061107	-0.722826	0.098900
O4	O	0.561107	-0.222826	0.598900
O5	O	0.061130	-0.830352	-0.008624
O6	O	0.561130	-0.330352	0.491376
O7	O	0.061144	-0.818612	0.194688
O8	O	0.561144	-0.318612	0.694688
O9	O	-0.060632	-0.830354	-0.008635
O10	O	0.439368	-0.330354	0.491365
O11	O	-0.060655	-0.722828	0.098889
O12	O	0.439345	-0.222828	0.598889
O13	O	-0.060595	-0.926140	0.087153
O14	O	0.439405	-0.426140	0.587153
Zn15	Zn	-0.079957	-0.824485	0.093020
Zn16	Zn	0.420043	-0.324485	0.593020
Zn17	Zn	0.080470	-0.824482	0.093033
Zn18	Zn	0.580470	-0.324482	0.593033
O19	O	-0.060618	-0.818615	0.194677
O20	O	0.439382	-0.318615	0.694677
C21	C	0.000218	-0.696816	0.098515
C22	C	0.500218	-0.196816	0.598515
C23	C	0.000195	-0.619312	0.097375
C24	C	0.500195	-0.119312	0.597375
N25	N	-0.189444	-0.824492	0.093010
N26	N	0.310556	-0.324492	0.593010
N27	N	0.189957	-0.824480	0.093037
N28	N	0.689957	-0.324480	0.593037
C29	C	0.000209	-0.574386	0.160466
C30	C	0.500209	-0.074386	0.660466
C31	C	0.000213	-0.501562	0.159395
C32	C	0.500213	-0.001562	0.659395
C33	C	0.000218	-0.473667	0.095229
C34	C	0.500218	0.026333	0.595229
C35	C	0.000200	-0.518603	0.032129
C36	C	0.500200	-0.018603	0.532129
C37	C	0.000189	-0.591425	0.033202
C38	C	0.500189	-0.091425	0.533202
N39	N	0.041680	-0.365687	0.046186
N40	N	0.541680	0.134313	0.546186
N41	N	0.041692	-0.296509	0.045171
N42	N	0.541692	0.203491	0.545171
C43	C	0.000251	-0.254258	0.091993
C44	C	0.500251	0.245742	0.591993
N45	N	-0.041193	-0.283799	0.139878
N46	N	0.458807	0.216201	0.639878
N47	N	-0.041202	-0.352984	0.140895
N48	N	0.458798	0.147016	0.640895
C49	C	0.000230	-0.394705	0.094058
C50	C	0.500230	0.105295	0.594058
C51	C	0.000269	-0.130368	0.153927
C52	C	0.500269	0.369632	0.653927
C53	C	0.000268	-0.057543	0.152853
C54	C	0.500268	0.442457	0.652853
C55	C	0.000263	-0.074586	0.025586
C56	C	0.500263	0.425414	0.525586
C57	C	0.000256	-0.147409	0.026661
C58	C	0.500256	0.352591	0.526661
C59	C	0.000262	-0.175296	0.090834
C60	C	0.500262	0.324704	0.590834
C61	C	0.228276	-0.872177	0.045518
C62	C	0.728276	-0.372177	0.545518
C63	C	0.304921	-0.872183	0.045517
C64	C	0.804921	-0.372183	0.545517
C65	C	0.343244	-0.824481	0.093028
C66	C	0.843244	-0.324481	0.593028
C67	C	0.304915	-0.776780	0.140556
C68	C	0.804915	-0.276780	0.640556
C69	C	0.228272	-0.776780	0.140561
C70	C	0.728272	-0.276780	0.640561
N71	N	0.463565	-0.762673	0.101955
N72	N	0.963565	-0.262673	0.601955
N73	N	0.536373	-0.762676	0.101946
N74	N	1.036373	-0.262676	0.601946
C75	C	0.574166	-0.824479	0.093017
C76	C	1.074166	-0.324479	0.593017
N77	N	0.536400	-0.886283	0.084084
N78	N	1.036400	-0.386283	0.584084
N79	N	0.463586	-0.886280	0.084089
N80	N	0.963586	-0.386280	0.584089
C81	C	0.426350	-0.824476	0.093028
C82	C	0.926350	-0.324476	0.593028
C83	C	0.695592	-0.872187	0.045494
C84	C	1.195592	-0.372187	0.545494
C85	C	0.772239	-0.872194	0.045498
C86	C	1.272239	-0.372194	0.545498
C87	C	0.772231	-0.776785	0.140533
C88	C	1.272231	-0.276785	0.640533
C89	C	0.695587	-0.776784	0.140533
C90	C	1.195587	-0.276784	0.640533
C91	C	0.657272	-0.824484	0.093010
C92	C	1.157272	-0.324484	0.593010
C93	C	0.000249	-0.829973	-0.034641
C94	C	0.500249	-0.329973	0.465359
C95	C	0.000246	-0.828835	-0.112145
C96	C	0.500246	-0.328835	0.387855
C97	C	0.000283	0.047850	0.087540
C98	C	0.500283	0.547850	0.587540
C99	C	0.000272	-0.029654	0.088687
C100	C	0.500272	0.470346	0.588687
C101	C	0.066619	-0.828302	-0.148539
C102	C	0.566619	-0.328302	0.351461
C103	C	0.066624	-0.827222	-0.221361
C104	C	0.566624	-0.327222	0.278639
C105	C	0.000253	-0.826689	-0.257790
C106	C	0.500253	-0.326689	0.242210
C107	C	-0.066128	-0.827218	-0.221387
C108	C	0.433872	-0.327218	0.278613
C109	C	-0.066131	-0.828291	-0.148565
C110	C	0.433869	-0.328291	0.351435
N111	N	-0.049134	-0.864738	-0.377458
N112	N	0.450866	-0.364738	0.122542
N113	N	-0.049126	-0.863720	-0.446636
N114	N	0.450874	-0.363720	0.053364
C115	C	0.000259	-0.823455	-0.477199
C116	C	0.500259	-0.323455	0.022801
N117	N	0.049648	-0.784255	-0.435972
N118	N	0.549648	-0.284255	0.064028
N119	N	0.049642	-0.785276	-0.366787
N120	N	0.549642	-0.285276	0.133213
C121	C	0.000249	-0.825525	-0.336753
C122	C	0.500249	-0.325525	0.163247
C123	C	0.066642	-0.821750	-0.592555
C124	C	0.566642	-0.321750	-0.092555
C125	C	0.066644	-0.820666	-0.665378
C126	C	0.566644	-0.320666	-0.165378
C127	C	-0.066110	-0.820669	-0.665404
C128	C	0.433890	-0.320669	-0.165404
C129	C	-0.066110	-0.821746	-0.592581
C130	C	0.433890	-0.321746	-0.092581
C131	C	0.000268	-0.822290	-0.556161
C132	C	0.500268	-0.322290	-0.056161
C133	C	0.000266	-0.818993	0.220694
C134	C	0.500266	-0.318993	0.720694
C135	C	0.000273	-0.820132	0.298198
C136	C	0.500273	-0.320132	0.798198
H137	H	0.000215	-0.597086	0.212720
H138	H	0.500215	-0.097086	0.712720
F139	F	0.000245	-0.195224	-0.040490
F140	F	0.500245	0.304776	0.459510
H141	H	0.000222	-0.464977	0.210773
H142	H	0.500222	0.035023	0.710773
F143	F	0.345701	-0.726013	0.191123
F144	F	0.845701	-0.226013	0.691123
H145	H	0.197082	-0.911019	0.006824
H146	H	0.697082	-0.411019	0.506824
F147	F	0.187488	-0.726012	0.191139
F148	F	0.687488	-0.226012	0.691139
F149	F	0.654801	-0.726015	0.191106
F150	F	1.154801	-0.226015	0.691106
H151	H	0.664395	-0.911030	0.006800
H152	H	1.164395	-0.411030	0.506800
F153	F	-0.136777	-0.828856	-0.109831
F154	F	0.363223	-0.328856	0.390169
H155	H	0.120691	-0.822189	-0.562900
H156	H	0.620691	-0.322189	-0.062900
F157	F	0.345710	-0.922952	-0.005062
F158	F	0.845710	-0.422952	0.494938
F159	F	0.813022	-0.922966	-0.005077
F160	F	1.313022	-0.422966	0.494923
F161	F	0.813014	-0.726020	0.191102
F162	F	1.313014	-0.226020	0.691102
H163	H	0.120695	-0.820229	-0.695008
H164	H	0.620695	-0.320229	-0.195008
H165	H	0.120669	-0.828743	-0.118890
H166	H	0.620669	-0.328743	0.381110
F167	F	-0.136747	-0.820098	-0.704169
F168	F	0.363253	-0.320098	-0.204169
F169	F	0.137270	-0.826654	-0.260102
F170	F	0.637270	-0.326654	0.239898
F171	F	-0.136754	-0.822313	-0.553847
F172	F	0.363246	-0.322313	-0.053847
H173	H	-0.120168	-0.826782	-0.251052
H174	H	0.379832	-0.326782	0.248948
F175	F	0.000262	-0.044902	-0.042705
F176	F	0.500262	0.455098	0.457295
F177	F	0.000203	-0.488914	-0.036161
F178	F	0.500203	0.011086	0.463839
H179	H	0.000178	-0.628004	-0.018176
H180	H	0.500178	-0.128004	0.481824
F181	F	0.000270	-0.160050	0.222224
F182	F	0.500270	0.339950	0.722224
H183	H	0.000275	-0.020965	0.204232
H184	H	0.500275	0.479035	0.704232
