data_functionalizedCrystal
_audit_creation_method	'MofGen! by Chris Wilmer'
_symmetry_space_group_name_H-M	'P1'
_symmetry_Int_Tables_number	1
_symmetry_cell_setting	triclinic
loop_
_symmetry_equiv_pos_as_xyz
  x,y,z
_cell_length_a	14.971486
_cell_length_b	14.971486
_cell_length_c	14.472310
_cell_angle_alpha	89.999135
_cell_angle_beta	89.991926
_cell_angle_gamma	96.385817
loop_
_atom_site_label
_atom_site_type_symbol
_atom_site_fract_x
_atom_site_fract_y
_atom_site_fract_z
O1	O	-1.186957	0.116557	0.076731
O2	O	-0.926556	0.130515	0.076755
O3	O	-1.063736	-0.006664	0.076741
O4	O	-1.049777	0.253736	0.076745
O5	O	-1.063700	-0.006656	-0.076941
O6	O	-0.926521	0.130523	-0.076927
O7	O	-1.186921	0.116565	-0.076951
Cu8	Cu	-1.056718	0.123545	-0.090971
Cu9	Cu	-1.056760	0.123535	0.090775
O10	O	-1.049742	0.253744	-0.076937
C11	C	-0.893214	0.129895	-0.000082
C12	C	-0.793917	0.128024	-0.000073
C13	C	-1.063094	-0.039985	-0.000099
C14	C	-1.061223	-0.139282	-0.000094
C15	C	-1.220264	0.117185	-0.000112
C16	C	-1.319561	0.119056	-0.000115
C17	C	-0.736692	0.208614	-0.000073
C18	C	-0.643392	0.206850	-0.000087
C19	C	-0.607320	0.124497	-0.000094
C20	C	-0.664552	0.043902	-0.000097
C21	C	-0.757850	0.045666	-0.000090
C22	C	-0.470090	0.040231	-0.000110
C23	C	-0.376786	0.038466	-0.000115
C24	C	-0.355632	0.201415	-0.000107
C25	C	-0.448930	0.203179	-0.000099
C26	C	-0.506156	0.122584	-0.000101
N27	N	-1.056695	0.123551	-0.218802
C28	C	-1.050384	0.287065	-0.000095
C29	C	-1.052255	0.386362	-0.000094
C30	C	-1.053154	0.433004	0.083679
C31	C	-1.054923	0.526303	0.083680
C32	C	-1.055787	0.572958	-0.000093
C33	C	-1.054890	0.526309	-0.083873
C34	C	-1.053128	0.433011	-0.083873
C35	C	-1.058563	0.720771	-0.083867
C36	C	-1.060324	0.814076	-0.083867
C37	C	-1.060358	0.814063	0.083686
C38	C	-1.058595	0.720765	0.083686
C39	C	-1.057697	0.674123	-0.000094
C40	C	-1.056758	0.123532	-0.592894
C41	C	-0.983110	0.196687	-0.553720
C42	C	-0.983280	0.196954	-0.446632
C43	C	-1.056726	0.123541	-0.407302
C44	C	-1.150076	0.144025	-0.446148
C45	C	-1.149662	0.144545	-0.553270
C46	C	-1.037890	0.029676	-0.553422
C47	C	-1.035750	0.030299	-0.446295
C48	C	-1.056714	0.123545	-0.302414
C49	C	-1.056777	0.123530	-0.697782
N50	N	-1.056790	0.123522	0.218606
H51	H	-0.766054	0.275675	-0.000066
C52	C	-0.488607	0.293772	-0.000095
N53	N	-0.518492	0.362008	-0.000097
H54	H	-0.804443	-0.019958	-0.000089
H55	H	-0.913895	0.184735	-0.420369
C56	C	-1.173047	0.235453	-0.409906
N57	N	-1.190342	0.304321	-0.382614
C58	C	-1.052136	0.381706	-0.176030
N59	N	-1.051390	0.343063	-0.245445
H60	H	-0.967080	0.014756	-0.420906
H61	H	-1.052442	0.395025	0.151897
C62	C	-1.055911	0.577605	0.175837
N63	N	-1.056656	0.616246	0.245254
H64	H	-1.057887	0.682781	0.151901
H65	H	-0.596802	0.272474	-0.000086
C66	C	-0.292681	0.290072	-0.000110
N67	N	-0.245263	0.356845	-0.000110
C68	C	-0.533037	-0.048429	-0.000107
N69	N	-0.580449	-0.115207	-0.000099
C70	C	-1.061348	0.865371	0.175845
N71	N	-1.062091	0.904021	0.245256
H72	H	-1.060999	0.852064	-0.152082
C73	C	-1.103515	-0.046701	-0.410151
N74	N	-1.154568	-0.104695	-0.382936
H75	H	-1.057833	0.682798	-0.152089
H76	H	-1.206184	0.093369	-0.579182
C77	C	-1.055836	0.577634	-0.176024
N78	N	-1.056543	0.616292	-0.245434
C79	C	-1.225892	0.073966	-0.411728
N80	N	-1.282996	0.021197	-0.385801
H81	H	-1.091597	-0.024765	-0.578754
H82	H	-0.913500	0.184667	-0.579501
H83	H	-0.347419	-0.028593	-0.000122
C84	C	-0.999176	0.290248	-0.590072
N85	N	-1.011279	0.360718	-0.617453
H86	H	-0.635175	-0.023152	-0.000116
C87	C	-0.999578	0.291043	-0.411997
N88	N	-1.011859	0.361913	-0.385912
C89	C	-1.172087	0.237026	-0.587014
N90	N	-1.188971	0.306687	-0.612425
H91	H	-0.971292	0.010004	-0.580484
