data_functionalizedCrystal
_audit_creation_method	'MofGen! by Chris Wilmer'
_symmetry_space_group_name_H-M	'P1'
_symmetry_Int_Tables_number	1
_symmetry_cell_setting	triclinic
loop_
_symmetry_equiv_pos_as_xyz
  x,y,z
_cell_length_a	21.295419
_cell_length_b	18.050589
_cell_length_c	18.050582
_cell_angle_alpha	90.018205
_cell_angle_beta	90.014908
_cell_angle_gamma	90.043022
loop_
_atom_site_label
_atom_site_type_symbol
_atom_site_fract_x
_atom_site_fract_y
_atom_site_fract_z
Zn1	Zn	0.962306	-0.295413	0.419935
Zn2	Zn	1.462306	0.204587	0.919935
Zn3	Zn	0.962230	-0.419597	0.295754
Zn4	Zn	1.462230	0.080403	0.795754
Zn5	Zn	0.857047	-0.295457	0.295759
Zn6	Zn	1.357047	0.204543	0.795759
Zn7	Zn	0.857003	-0.419598	0.419903
Zn8	Zn	1.357003	0.080402	0.919903
O9	O	0.909646	-0.357516	0.357838
O10	O	1.409646	0.142484	0.857838
O11	O	1.050385	-0.311868	0.403474
O12	O	1.550385	0.188132	0.903474
O13	O	0.948264	-0.403147	0.191830
O14	O	1.448264	0.096853	0.691830
O15	O	0.871060	-0.191527	0.312247
O16	O	1.371060	0.308473	0.812247
O17	O	1.050329	-0.403105	0.312239
O18	O	1.550329	0.096895	0.812239
O19	O	0.948393	-0.191495	0.403478
O20	O	1.448393	0.308505	0.903478
O21	O	0.870986	-0.311942	0.191834
O22	O	1.370986	0.188058	0.691834
O23	O	0.768951	-0.311944	0.312216
O24	O	1.268951	0.188056	0.812216
O25	O	0.870984	-0.403107	0.523832
O26	O	1.370984	0.096893	1.023832
O27	O	0.768919	-0.403149	0.403423
O28	O	1.268919	0.096851	0.903423
O29	O	0.948350	-0.311869	0.523855
O30	O	1.448350	0.188131	1.023855
O31	O	0.948221	-0.523521	0.312208
O32	O	1.448221	-0.023521	0.812208
O33	O	0.870911	-0.523523	0.403419
O34	O	1.370911	-0.023523	0.903419
C35	C	0.909570	-0.550469	0.357825
C36	C	1.409570	-0.050469	0.857825
C37	C	0.909595	-0.633014	0.357845
C38	C	1.409595	-0.133014	0.857845
C39	C	0.746095	-0.357552	0.357817
C40	C	1.246095	0.142448	0.857817
C41	C	0.676126	-0.357585	0.357826
C42	C	1.176126	0.142415	0.857826
C43	C	0.867595	-0.832492	0.407428
C44	C	1.367595	-0.332492	0.907428
C45	C	0.852255	-0.881931	0.339661
C46	C	1.352255	-0.381931	0.839661
C47	C	0.909657	-0.784145	0.357855
C48	C	1.409657	-0.284145	0.857855
C49	C	0.925028	-0.881788	0.425630
C50	C	1.425028	-0.381788	0.925630
C51	C	0.909716	-0.930130	0.357870
C52	C	1.409716	-0.430130	0.857870
C53	C	0.894287	-0.832496	0.290051
C54	C	1.394287	-0.332496	0.790051
C55	C	0.967087	-0.832348	0.376066
C56	C	1.467087	-0.332348	0.876066
C57	C	0.951768	-0.881764	0.308252
C58	C	1.451768	-0.381764	0.808252
C59	C	0.909622	-0.700046	0.357847
C60	C	1.409622	-0.200046	0.857847
C61	C	0.909751	-1.014226	0.357870
C62	C	1.409751	-0.514226	0.857870
C63	C	0.643311	-0.310156	0.405405
C64	C	1.143311	0.189844	0.905405
C65	C	0.577569	-0.310136	0.405408
C66	C	1.077569	0.189864	0.905408
C67	C	0.544644	-0.357558	0.357839
C68	C	1.044644	0.142442	0.857839
C69	C	0.577467	-0.404991	0.310250
C70	C	1.077467	0.095009	0.810250
C71	C	0.643208	-0.405004	0.310244
C72	C	1.143208	0.094996	0.810244
N73	N	0.441372	-0.422537	0.352045
N74	N	0.941372	0.077463	0.852045
N75	N	0.378920	-0.422522	0.352056
N76	N	0.878920	0.077478	0.852056
C77	C	0.346569	-0.357520	0.357856
C78	C	0.846569	0.142480	0.857856
N79	N	0.379029	-0.292532	0.363659
N80	N	0.879029	0.207468	0.863659
N81	N	0.441486	-0.292547	0.363652
N82	N	0.941486	0.207453	0.863652
C83	C	0.473359	-0.357549	0.357841
C84	C	0.973359	0.142451	0.857841
C85	C	0.242469	-0.310065	0.405441
C86	C	0.742469	0.189935	0.905441
C87	C	0.176725	-0.310044	0.405438
C88	C	0.676725	0.189956	0.905438
C89	C	0.176624	-0.404906	0.310285
C90	C	0.676624	0.095094	0.810285
C91	C	0.242367	-0.404920	0.310283
C92	C	0.742367	0.095080	0.810283
C93	C	0.275285	-0.357501	0.357865
C94	C	0.775285	0.142499	0.857865
C95	C	1.073836	-0.357481	0.357859
C96	C	1.573836	0.142519	0.857859
C97	C	1.143805	-0.357466	0.357868
C98	C	1.643805	0.142534	0.857868
C99	C	0.909671	-0.357483	0.551543
C100	C	1.409671	0.142517	1.051543
C101	C	0.909681	-0.357469	0.634089
C102	C	1.409681	0.142531	1.134089
C103	C	0.909740	-0.163811	0.357866
C104	C	1.409740	0.336189	0.857866
C105	C	0.909779	-0.081265	0.357879
C106	C	1.409779	0.418735	0.857879
C107	C	0.909658	-0.357496	0.164886
C108	C	1.409658	0.142504	0.664886
C109	C	0.909769	-0.357300	0.082340
C110	C	1.409769	0.142700	0.582340
C111	C	0.867642	-0.407017	0.833527
C112	C	1.367642	0.092983	1.333527
C113	C	0.925073	-0.425153	0.882920
C114	C	1.425073	0.074847	1.382920
C115	C	0.909712	-0.357413	0.785220
C116	C	1.409712	0.142587	1.285220
C117	C	0.852313	-0.339256	0.882909
C118	C	1.352313	0.160744	1.382909
C119	C	0.909737	-0.357359	0.931205
C120	C	1.409737	0.142641	1.431205
C121	C	0.967174	-0.375584	0.833525
C122	C	1.467174	0.124416	1.333525
C123	C	0.894375	-0.289656	0.833510
C124	C	1.394375	0.210344	1.333510
C125	C	0.951845	-0.307766	0.882880
C126	C	1.451845	0.192234	1.382880
C127	C	0.909697	-0.357445	0.701121
C128	C	1.409697	0.142555	1.201121
C129	C	0.909759	-0.357327	1.015301
C130	C	1.409759	0.142673	1.515301
H131	H	0.831973	-0.810856	0.449292
H132	H	1.331973	-0.310856	0.949292
H133	H	0.803716	-0.903726	0.324272
H134	H	1.303716	-0.403726	0.824272
H135	H	0.550656	-0.443603	0.271519
H136	H	1.050656	0.056397	0.771519
H137	H	1.015614	-0.810555	0.391488
H138	H	1.515614	-0.310555	0.891488
H139	H	0.881253	-0.810934	0.232725
H140	H	1.381253	-0.310934	0.732725
H141	H	0.550845	-0.271509	0.444152
H142	H	1.050845	0.228491	0.944152
H143	H	0.987364	-0.903263	0.266287
H144	H	1.487364	-0.403263	0.766287
H145	H	0.803760	-0.323921	0.904602
H146	H	1.303760	0.176079	1.404602
H147	H	0.938006	-0.903440	0.482940
H148	H	1.438006	-0.403440	0.982940
H149	H	0.670109	-0.271542	0.444150
H150	H	1.170109	0.228458	0.944150
H151	H	0.669926	-0.443629	0.271498
H152	H	1.169926	0.056371	0.771498
H153	H	0.987475	-0.265795	0.904413
H154	H	1.487475	0.234205	1.404413
H155	H	1.015741	-0.390984	0.811924
H156	H	1.515741	0.109016	1.311924
H157	H	0.269272	-0.271448	0.444180
H158	H	0.769272	0.228552	0.944180
H159	H	0.881370	-0.232395	0.811790
H160	H	1.381370	0.267605	1.311790
H161	H	0.150008	-0.271417	0.444182
H162	H	0.650008	0.228583	0.944182
H163	H	0.149818	-0.443518	0.271553
H164	H	0.649818	0.056482	0.771553
H165	H	0.269085	-0.443546	0.271542
H166	H	0.769085	0.056454	0.771542
H167	H	0.832098	-0.449020	0.811858
H168	H	1.332098	0.050980	1.311858
H169	H	0.938061	-0.482431	0.904623
H170	H	1.438061	0.017569	1.404623
