data_functionalizedCrystal
_audit_creation_method	'MofGen! by Chris Wilmer'
_symmetry_space_group_name_H-M	'P1'
_symmetry_Int_Tables_number	1
_symmetry_cell_setting	triclinic
loop_
_symmetry_equiv_pos_as_xyz
  x,y,z
_cell_length_a	11.169417
_cell_length_b	13.032781
_cell_length_c	11.169409
_cell_angle_alpha	82.854210
_cell_angle_beta	90.019513
_cell_angle_gamma	97.204857
loop_
_atom_site_label
_atom_site_type_symbol
_atom_site_fract_x
_atom_site_fract_y
_atom_site_fract_z
Zn1	Zn	1.774215	-0.415913	0.739150
Zn2	Zn	1.748575	-0.590700	0.563942
Zn3	Zn	1.573491	-0.415978	0.538495
Zn4	Zn	1.547991	-0.590616	0.764575
O5	O	1.661068	-0.503302	0.651541
O6	O	1.938762	-0.439107	0.715917
O7	O	1.725291	-0.567585	0.392625
O8	O	1.621520	-0.269733	0.543823
O9	O	1.919925	-0.567522	0.587192
O10	O	1.768990	-0.269686	0.691243
O11	O	1.596658	-0.439217	0.373930
O12	O	1.402160	-0.439136	0.568476
O13	O	1.578059	-0.567379	0.929143
O14	O	1.383425	-0.567442	0.734576
O15	O	1.744264	-0.439026	0.910464
O16	O	1.700565	-0.736925	0.611846
O17	O	1.553197	-0.736863	0.759251
C18	C	1.349245	-0.503288	0.651525
C19	C	1.215843	-0.503307	0.651550
C20	C	1.621364	-0.774811	0.691095
C21	C	1.604488	-0.890964	0.708056
C22	C	1.652506	-1.062795	0.660263
C23	C	1.669951	-0.942745	0.642732
C24	C	1.974108	-0.503317	0.651557
C25	C	2.107507	-0.503323	0.651564
C26	C	1.661177	-0.503186	0.964566
C27	C	1.661224	-0.503136	1.097959
C28	C	1.700960	-0.230732	0.611858
C29	C	1.717959	-0.114579	0.594948
C30	C	1.661039	-0.503342	0.339722
C31	C	1.661268	-0.503097	0.206287
H32	H	1.583559	-1.107338	0.729165
H33	H	1.786916	-1.070037	0.526055
O34	O	1.752052	-0.889574	0.560395
C35	C	1.692858	-0.826522	0.473700
H36	H	1.593570	-0.859555	0.470996
H37	H	1.736502	-0.825208	0.381182
H38	H	1.700638	-0.743820	0.498815
H39	H	1.535536	-0.935502	0.776964
