data_functionalizedCrystal
_audit_creation_method	'MofGen! by Chris Wilmer'
_symmetry_space_group_name_H-M	'P1'
_symmetry_Int_Tables_number	1
_symmetry_cell_setting	triclinic
loop_
_symmetry_equiv_pos_as_xyz
  x,y,z
_cell_length_a	18.050591
_cell_length_b	19.121063
_cell_length_c	18.050583
_cell_angle_alpha	92.401387
_cell_angle_beta	89.979141
_cell_angle_gamma	92.465649
loop_
_atom_site_label
_atom_site_type_symbol
_atom_site_fract_x
_atom_site_fract_y
_atom_site_fract_z
Zn1	Zn	1.122689	-0.279628	-0.432602
Zn2	Zn	1.117300	-0.397099	-0.313703
Zn3	Zn	0.998505	-0.279660	-0.308417
Zn4	Zn	0.993162	-0.397034	-0.437838
O5	O	1.057914	-0.338355	-0.373140
O6	O	1.225898	-0.295224	-0.416851
O7	O	1.101522	-0.381560	-0.209079
O8	O	1.019470	-0.181372	-0.320487
O9	O	1.221939	-0.381530	-0.329496
O10	O	1.110708	-0.181348	-0.411726
O11	O	1.014244	-0.295278	-0.205196
O12	O	0.893872	-0.295216	-0.325564
O13	O	1.010363	-0.381420	-0.541066
O14	O	0.889946	-0.381451	-0.420649
O15	O	1.105527	-0.295162	-0.537220
O16	O	1.096341	-0.495374	-0.334573
O17	O	1.005137	-0.495327	-0.425774
C18	C	0.864963	-0.338330	-0.373102
C19	C	0.782417	-0.338337	-0.373104
C20	C	0.535707	-0.291394	-0.321512
C21	C	0.585912	-0.274279	-0.388517
C22	C	0.485295	-0.338373	-0.373166
C23	C	0.582174	-0.355437	-0.306133
C24	C	0.631281	-0.338353	-0.373132
C25	C	0.534414	-0.321225	-0.440206
C26	C	0.530670	-0.402412	-0.357777
C27	C	0.580852	-0.385322	-0.424830
C28	C	0.401196	-0.338382	-0.373185
C29	C	0.715378	-0.338344	-0.373121
C30	C	1.049594	-0.520834	-0.381331
C31	C	1.046103	-0.598900	-0.384861
C32	C	1.091985	-0.635576	-0.339074
C33	C	1.088706	-0.708927	-0.342398
C34	C	1.039541	-0.745600	-0.391504
C35	C	0.993657	-0.708918	-0.437296
C36	C	0.996941	-0.635569	-0.433976
C37	C	1.027253	-0.967067	-0.403907
C38	C	1.023972	-1.040422	-0.407222
C39	C	1.119022	-1.040425	-0.312324
C40	C	1.122298	-0.967075	-0.309005
C41	C	1.076417	-0.930399	-0.354799
C42	C	1.036186	-0.820576	-0.394901
C43	C	1.079776	-0.855425	-0.351406
C44	C	1.251618	-0.338380	-0.373179
C45	C	1.334164	-0.338391	-0.373195
C46	C	1.057950	-0.338280	-0.566842
C47	C	1.057965	-0.338248	-0.649387
C48	C	1.066286	-0.155163	-0.364933
C49	C	1.069854	-0.077098	-0.361436
C50	C	1.109766	-0.291318	-0.846745
C51	C	1.042808	-0.274125	-0.895359
C52	C	1.057996	-0.338236	-0.800517
C53	C	1.124983	-0.355385	-0.898982
C54	C	1.058031	-0.338223	-0.946501
C55	C	0.991003	-0.321009	-0.848043
C56	C	1.073223	-0.402300	-0.851662
C57	C	1.006217	-0.385130	-0.900255
C58	C	1.057977	-0.338242	-0.716419
C59	C	1.058043	-0.338218	-1.030598
C60	C	1.057923	-0.338379	-0.180189
C61	C	1.058060	-0.338213	-0.097636
H62	H	1.132017	-0.605722	-0.299083
H63	H	1.086113	-0.456467	-0.832357
H64	H	1.029939	-0.219942	-0.914649
O65	O	0.953854	-0.432379	-0.928011
C66	C	0.883381	-0.414040	-0.901866
H67	H	0.884629	-0.355771	-0.885486
H68	H	0.868129	-0.445703	-0.851523
C69	C	0.823786	-0.501519	-0.983559
C70	C	0.825317	-0.429950	-0.963446
H71	H	0.787967	-0.511335	-1.021542
H72	H	0.871264	-0.513876	-1.001171
H73	H	0.811078	-0.527896	-0.941600
H74	H	0.838034	-0.403575	-1.005402
H75	H	0.777838	-0.417588	-0.945842
O76	O	1.133302	-0.744446	-0.297843
C77	C	1.177409	-0.696349	-0.253798
H78	H	1.149328	-0.644088	-0.248833
H79	H	1.234148	-0.688483	-0.280691
C80	C	1.221364	-0.789219	-0.182166
C81	C	1.186872	-0.725033	-0.176061
H82	H	1.227204	-0.806913	-0.134215
H83	H	1.191650	-0.821624	-0.211841
H84	H	1.268643	-0.782656	-0.204579
H85	H	1.139590	-0.731598	-0.153657
H86	H	1.216577	-0.692630	-0.146380
H87	H	0.513501	-0.306720	-0.496895
H88	H	0.515819	-0.251643	-0.277894
O89	O	0.501903	-0.467067	-0.342326
C90	C	0.525908	-0.516663	-0.396123
H91	H	0.579252	-0.495860	-0.422775
H92	H	0.481283	-0.526367	-0.440487
C93	C	0.474832	-0.611381	-0.326221
C94	C	0.540354	-0.585833	-0.358951
H95	H	0.483741	-0.654050	-0.303293
H96	H	0.458657	-0.577968	-0.289978
H97	H	0.437652	-0.619462	-0.363197
H98	H	0.577530	-0.577744	-0.321974
H99	H	0.556536	-0.619247	-0.395187
O100	O	1.161995	-0.244056	-0.818754
C101	C	1.214177	-0.278957	-0.777335
H102	H	1.213844	-0.336482	-0.796723
H103	H	1.199086	-0.274827	-0.716020
C104	C	1.292420	-0.174298	-0.764915
C105	C	1.292017	-0.244950	-0.788732
H106	H	1.340435	-0.153320	-0.771942
H107	H	1.257264	-0.150783	-0.792818
H108	H	1.279841	-0.170866	-0.713821
H109	H	1.304586	-0.248381	-0.839828
H110	H	1.327177	-0.268465	-0.760838
H111	H	0.953629	-0.738783	-0.477283
O112	O	0.607149	-0.372589	-0.238462
C113	C	0.584242	-0.322918	-0.184199
H114	H	0.533468	-0.296195	-0.205061
H115	H	0.631083	-0.281998	-0.172708
C116	C	0.626896	-0.392859	-0.086641
C117	C	0.564530	-0.360040	-0.112263
H118	H	0.614739	-0.415756	-0.042266
H119	H	0.642331	-0.426322	-0.123199
H120	H	0.665923	-0.358753	-0.077071
H121	H	0.525507	-0.394147	-0.121841
H122	H	0.549087	-0.326584	-0.075705
O123	O	0.614719	-0.209620	-0.403911
C124	C	0.591775	-0.160254	-0.349349
H125	H	0.576616	-0.188129	-0.296481
H126	H	0.541354	-0.133018	-0.370272
C127	C	0.673921	-0.071227	-0.397837
C128	C	0.655308	-0.105463	-0.332901
H129	H	0.713109	-0.037427	-0.387692
H130	H	0.689377	-0.104484	-0.434598
H131	H	0.631897	-0.048536	-0.415266
H132	H	0.697328	-0.128160	-0.315478
H133	H	0.639861	-0.072208	-0.296136
H134	H	0.959580	-0.605707	-0.471261
H135	H	1.181619	-0.369894	-0.921333
O136	O	1.170129	-0.931561	-0.261290
C137	C	1.209912	-0.979663	-0.221578
H138	H	1.210121	-1.031924	-0.254362
H139	H	1.182406	-0.987525	-0.165501
C140	C	1.289988	-0.886801	-0.169399
C141	C	1.290250	-0.950988	-0.209668
H142	H	1.339543	-0.869112	-0.162049
H143	H	1.263183	-0.854393	-0.196152
H144	H	1.267062	-0.893361	-0.122673
H145	H	1.313167	-0.944425	-0.256397
H146	H	1.317060	-0.983394	-0.182924
H147	H	0.934354	-0.306436	-0.825782
H148	H	1.156377	-1.070294	-0.275043
H149	H	0.600605	-0.425042	-0.468546
H150	H	0.983945	-1.070279	-0.447223
H151	H	0.989894	-0.937212	-0.441193
O152	O	0.988524	-0.856280	-0.442637
C153	C	1.028882	-0.898626	-0.492574
H154	H	1.084692	-0.909586	-0.466938
H155	H	1.038265	-0.870312	-0.546340
C156	C	0.916353	-0.954863	-0.540610
C157	C	0.984898	-0.968330	-0.509121
H158	H	0.889221	-0.997859	-0.550820
H159	H	0.889162	-0.926332	-0.506969
H160	H	0.924182	-0.931267	-0.585411
H161	H	0.977068	-0.991918	-0.464316
H162	H	1.012086	-0.996866	-0.542755
H163	H	1.119809	-0.825563	-0.311426
