data_functionalizedCrystal
_audit_creation_method	'MofGen! by Chris Wilmer'
_symmetry_space_group_name_H-M	'P1'
_symmetry_Int_Tables_number	1
_symmetry_cell_setting	triclinic
loop_
_symmetry_equiv_pos_as_xyz
  x,y,z
_cell_length_a	23.532407
_cell_length_b	17.666332
_cell_length_c	19.188924
_cell_angle_alpha	89.991448
_cell_angle_beta	82.995317
_cell_angle_gamma	89.997059
loop_
_atom_site_label
_atom_site_type_symbol
_atom_site_fract_x
_atom_site_fract_y
_atom_site_fract_z
O1	O	-0.755442	0.062838	-0.084758
O2	O	-0.589604	0.062865	-0.097021
O3	O	-0.677311	0.062842	0.010782
O4	O	-0.667735	0.062862	-0.192561
O5	O	-0.677295	-0.063055	0.010787
O6	O	-0.589589	-0.063031	-0.097016
O7	O	-0.755426	-0.063058	-0.084752
Cu8	Cu	-0.672506	-0.074540	-0.090884
Cu9	Cu	-0.672524	0.074347	-0.090890
O10	O	-0.667720	-0.063035	-0.192555
C11	C	-0.568380	-0.000080	-0.096706
C12	C	-0.505161	-0.000070	-0.095767
N13	N	-0.672498	-0.179260	-0.090878
C14	C	-0.711347	-0.218880	-0.043166
C15	C	-0.711350	-0.298127	-0.043163
C16	C	-0.672510	-0.337752	-0.090884
C17	C	-0.633653	-0.298122	-0.138599
C18	C	-0.633647	-0.218876	-0.138597
N19	N	-0.665105	-0.462164	-0.152715
N20	N	-0.665114	-0.537444	-0.152715
C21	C	-0.672525	-0.576516	-0.090893
N22	N	-0.679937	-0.537463	-0.029069
N23	N	-0.679931	-0.462176	-0.029070
C24	C	-0.672512	-0.423681	-0.090891
C25	C	-0.711379	-0.702065	-0.043174
C26	C	-0.711379	-0.781314	-0.043169
C27	C	-0.633685	-0.781308	-0.138612
C28	C	-0.633683	-0.702060	-0.138610
C29	C	-0.672533	-0.662444	-0.090892
C30	C	-0.106179	-0.000089	-0.153674
C31	C	-0.046777	-0.000092	-0.152802
O32	O	-0.010146	-0.000113	-0.206482
N33	N	-0.024016	-0.000096	-0.088713
C34	C	-0.060661	-0.000105	-0.025492
O35	O	-0.035847	-0.000109	0.029101
C36	C	-0.120062	-0.000107	-0.026365
C37	C	-0.142819	-0.000095	-0.090458
C38	C	-0.128937	-0.000078	-0.217762
C39	C	-0.188335	-0.000073	-0.218634
C40	C	-0.224975	-0.000079	-0.155418
C41	C	-0.202217	-0.000090	-0.091330
C42	C	-0.156705	-0.000121	0.036855
C43	C	-0.216110	-0.000124	0.035976
C44	C	-0.238867	-0.000112	-0.028117
C45	C	-0.298255	-0.000092	-0.028986
N46	N	-0.321016	-0.000088	-0.093075
C47	C	-0.284376	-0.000082	-0.156291
C48	C	0.064085	-0.000102	-0.023664
C49	C	0.123485	-0.000094	-0.022790
C50	C	0.137365	-0.000082	-0.150100
C51	C	0.077964	-0.000085	-0.150973
C52	C	0.041324	-0.000097	-0.087753
C53	C	-0.409117	-0.000071	-0.158117
C54	C	-0.468521	-0.000063	-0.158983
C55	C	-0.482395	-0.000079	-0.031674
C56	C	-0.422997	-0.000083	-0.030807
C57	C	-0.386358	-0.000081	-0.094034
O58	O	-0.334922	-0.000074	0.024666
O59	O	-0.309199	-0.000087	-0.210874
C60	C	0.223349	-0.000105	-0.085067
C61	C	0.160130	-0.000092	-0.086006
C62	C	-0.676994	-0.000107	0.036795
C63	C	-0.676065	-0.000109	0.114296
N64	N	-0.672537	0.179067	-0.090890
C65	C	-0.668037	-0.000085	-0.218568
C66	C	-0.668966	-0.000078	-0.296070
C67	C	-0.675640	0.068518	0.150691
C68	C	-0.674759	0.068524	0.223511
C69	C	-0.674314	-0.000101	0.259935
C70	C	-0.674736	-0.068736	0.223531
C71	C	-0.675612	-0.068740	0.150712
N72	N	-0.705343	-0.051182	0.379700
N73	N	-0.704513	-0.051173	0.448875
C74	C	-0.671676	-0.000093	0.479336
N75	N	-0.639709	0.050990	0.438009
N76	N	-0.640541	0.050983	0.368827
C77	C	-0.673365	-0.000104	0.338896
C78	C	-0.670295	0.068545	0.594690
C79	C	-0.669411	0.068548	0.667511
C80	C	-0.669394	-0.068715	0.667531
C81	C	-0.670273	-0.068716	0.594711
C82	C	-0.670726	-0.000084	0.558295
H83	H	-0.742979	-0.186626	-0.004310
H84	H	-0.245939	-0.000135	0.087459
H85	H	-0.675955	-0.124626	0.121080
Cl86	Cl	-0.760194	-0.347944	0.016823
H87	H	-0.602028	-0.330389	-0.177453
Cl88	Cl	-0.670807	-0.154994	0.548955
H89	H	-0.206859	-0.000063	-0.270825
H90	H	0.142009	-0.000092	0.029401
Cl91	Cl	0.049361	-0.000072	-0.231550
Cl92	Cl	-0.584853	-0.831116	-0.198598
H93	H	0.034256	-0.000105	0.027821
H94	H	-0.743012	-0.669808	-0.004316
H95	H	-0.674409	0.124409	0.253148
H96	H	-0.674373	-0.124611	0.253193
Cl97	Cl	-0.584845	-0.652247	-0.198597
H98	H	-0.602011	-0.186617	-0.177450
Cl99	Cl	-0.528467	-0.000090	0.047793
Cl100	Cl	0.183438	-0.000079	-0.229572
H101	H	-0.404467	-0.000081	0.021383
Cl102	Cl	-0.760218	-0.831125	0.016821
H103	H	-0.670661	0.124429	0.565038
Cl104	Cl	-0.668872	0.154829	0.713264
Cl105	Cl	-0.128111	-0.000123	0.117434
Cl106	Cl	-0.497126	-0.000046	-0.239563
Cl107	Cl	-0.363066	-0.000069	-0.237604
Cl108	Cl	-0.082885	-0.000068	-0.297245
H109	H	-0.676007	0.124403	0.121045
H110	H	-0.669028	-0.124590	0.697186
