data_functionalizedCrystal
_audit_creation_method	'MofGen! by Chris Wilmer'
_symmetry_space_group_name_H-M	'P1'
_symmetry_Int_Tables_number	1
_symmetry_cell_setting	triclinic
loop_
_symmetry_equiv_pos_as_xyz
  x,y,z
_cell_length_a	21.395364
_cell_length_b	21.395361
_cell_length_c	21.395356
_cell_angle_alpha	90.030681
_cell_angle_beta	90.024640
_cell_angle_gamma	90.028209
loop_
_atom_site_label
_atom_site_type_symbol
_atom_site_fract_x
_atom_site_fract_y
_atom_site_fract_z
Zn1	Zn	-0.957853	0.249496	-0.354266
Zn2	Zn	-0.457853	0.749496	0.145734
Zn3	Zn	-0.957757	0.354273	-0.249483
Zn4	Zn	-0.457757	0.854273	0.250517
Zn5	Zn	-0.853070	0.249508	-0.249501
Zn6	Zn	-0.353070	0.749508	0.250499
Zn7	Zn	-0.853037	0.354235	-0.354221
Zn8	Zn	-0.353037	0.854235	0.145779
O9	O	-0.905429	0.301878	-0.301868
O10	O	-0.405429	0.801878	0.198132
O11	O	-1.045518	0.263406	-0.340377
O12	O	-0.545518	0.763406	0.159623
O13	O	-0.943844	0.340396	-0.161807
O14	O	-0.443844	0.840396	0.338193
O15	O	-0.867023	0.161829	-0.263424
O16	O	-0.367023	0.661829	0.236576
O17	O	-1.045448	0.340384	-0.263394
O18	O	-0.545448	0.840384	0.236606
O19	O	-0.944007	0.161820	-0.340395
O20	O	-0.444007	0.661820	0.159605
O21	O	-0.866930	0.263427	-0.161820
O22	O	-0.366930	0.763427	0.338180
O23	O	-0.765388	0.263390	-0.263381
O24	O	-0.265388	0.763390	0.236619
O25	O	-0.866968	0.340321	-0.441905
O26	O	-0.366968	0.840321	0.058095
O27	O	-0.765364	0.340333	-0.340319
O28	O	-0.265364	0.840333	0.159681
O29	O	-0.943975	0.263369	-0.441938
O30	O	-0.443975	0.763369	0.058062
O31	O	-0.943812	0.441946	-0.263351
O32	O	-0.443812	0.941946	0.236649
O33	O	-0.866875	0.441918	-0.340301
O34	O	-0.366875	0.941918	0.159699
C35	C	-0.742642	0.301859	-0.301847
C36	C	-0.242642	0.801859	0.198153
C37	C	-0.673001	0.301866	-0.301853
C38	C	-0.173001	0.801866	0.198147
C39	C	-0.171208	0.342005	-0.341879
C40	C	0.328792	0.842005	0.158121
C41	C	-0.236644	0.342006	-0.341874
C42	C	0.263356	0.842006	0.158126
C43	C	-0.269362	0.301883	-0.301878
C44	C	0.230638	0.801883	0.198122
C45	C	-0.236640	0.261767	-0.261873
C46	C	0.263360	0.761767	0.238127
C47	C	-0.171206	0.261771	-0.261876
C48	C	0.328794	0.761771	0.238124
C49	C	-0.373051	0.245420	-0.297031
C50	C	0.126949	0.745420	0.202969
C51	C	-0.438484	0.245414	-0.297033
C52	C	0.061516	0.745414	0.202967
C53	C	-0.471183	0.301869	-0.301867
C54	C	0.028817	0.801869	0.198133
C55	C	-0.438441	0.358331	-0.306712
C56	C	0.061559	0.858331	0.193288
C57	C	-0.373007	0.358336	-0.306714
C58	C	0.126993	0.858336	0.193286
C59	C	-0.340315	0.301874	-0.301871
C60	C	0.159685	0.801874	0.198129
C61	C	-0.574850	0.341987	-0.341860
C62	C	-0.074850	0.841987	0.158140
C63	C	-0.640287	0.341989	-0.341850
C64	C	-0.140287	0.841989	0.158150
C65	C	-0.640281	0.261744	-0.261853
C66	C	-0.140281	0.761744	0.238147
C67	C	-0.574846	0.261748	-0.261860
C68	C	-0.074846	0.761748	0.238140
C69	C	-0.542134	0.301868	-0.301867
C70	C	-0.042134	0.801868	0.198133
C71	C	-0.905347	0.464666	-0.301833
C72	C	-0.405347	0.964666	0.198167
C73	C	-0.905369	0.534307	-0.301839
C74	C	-0.405369	1.034307	0.198161
C75	C	-0.068853	0.301894	-0.301885
C76	C	0.431147	0.801894	0.198115
C77	C	-0.138494	0.301892	-0.301882
C78	C	0.361506	0.801892	0.198118
C79	C	-0.905479	0.301839	-0.465291
C80	C	-0.405479	0.801839	0.034709
C81	C	-0.905500	0.301823	-0.534932
C82	C	-0.405500	0.801823	-0.034932
C83	C	-0.905529	0.138455	-0.301916
C84	C	-0.405529	0.638455	0.198084
C85	C	-0.905572	0.068814	-0.301937
C86	C	-0.405572	0.568814	0.198063
C87	C	-0.945465	0.567014	-0.261812
C88	C	-0.445465	1.067014	0.238188
C89	C	-0.945495	0.632449	-0.261826
C90	C	-0.445495	1.132449	0.238174
C91	C	-0.905416	0.665175	-0.301860
C92	C	-0.405416	1.165175	0.198140
C93	C	-0.865316	0.632461	-0.341895
C94	C	-0.365316	1.132461	0.158105
C95	C	-0.865293	0.567027	-0.341885
C96	C	-0.365293	1.067027	0.158115
C97	C	-0.849001	0.768887	-0.306769
C98	C	-0.349001	1.268887	0.193231
C99	C	-0.849023	0.834320	-0.306776
C100	C	-0.349023	1.334320	0.193224
C101	C	-0.905489	0.866996	-0.301897
C102	C	-0.405489	1.366996	0.198103
C103	C	-0.961933	0.834231	-0.296999
C104	C	-0.461933	1.334231	0.203001
C105	C	-0.961910	0.768797	-0.296988
C106	C	-0.461910	1.268797	0.203012
C107	C	-0.905437	0.736128	-0.301877
C108	C	-0.405437	1.236128	0.198123
C109	C	-0.945620	0.970655	-0.261883
C110	C	-0.445620	1.470655	0.238117
C111	C	-0.945651	1.036092	-0.261901
C112	C	-0.445651	1.536092	0.238099
C113	C	-0.865467	1.036102	-0.341968
C114	C	-0.365467	1.536102	0.158032
C115	C	-0.865442	0.970667	-0.341953
C116	C	-0.365442	1.470667	0.158047
C117	C	-0.905518	0.937947	-0.301907
C118	C	-0.405518	1.437947	0.198093
C119	C	-0.865462	0.261740	-0.567642
C120	C	-0.365462	0.761740	-0.067642
C121	C	-0.865459	0.261728	-0.633078
C122	C	-0.365459	0.761728	-0.133078
C123	C	-0.905507	0.301793	-0.665801
C124	C	-0.405507	0.801793	-0.165801
C125	C	-0.945548	0.341884	-0.633083
C126	C	-0.445548	0.841884	-0.133083
C127	C	-0.945544	0.341898	-0.567649
C128	C	-0.445544	0.841898	-0.067649
C129	C	-0.961959	0.306721	-0.769488
C130	C	-0.461959	0.806721	-0.269488
C131	C	-0.961963	0.306702	-0.834921
C132	C	-0.461963	0.806702	-0.334921
C133	C	-0.905517	0.301751	-0.867622
C134	C	-0.405517	0.801751	-0.367622
C135	C	-0.849065	0.296805	-0.834881
C136	C	-0.349065	0.796805	-0.334881
C137	C	-0.849061	0.296820	-0.769447
C138	C	-0.349061	0.796820	-0.269447
C139	C	-0.905515	0.301782	-0.736753
C140	C	-0.405515	0.801782	-0.236753
C141	C	-0.865473	0.261653	-0.971284
C142	C	-0.365473	0.761653	-0.471284
C143	C	-0.865470	0.261646	-1.036721
C144	C	-0.365470	0.761646	-0.536721
C145	C	-0.945564	0.341798	-1.036725
C146	C	-0.445564	0.841798	-0.536725
C147	C	-0.945561	0.341808	-0.971289
C148	C	-0.445561	0.841808	-0.471289
C149	C	-0.905517	0.301733	-0.938573
C150	C	-0.405517	0.801733	-0.438573
C151	C	-0.905416	0.301872	-0.139080
C152	C	-0.405416	0.801872	0.360920
C153	C	-0.905517	0.301712	-0.069439
C154	C	-0.405517	0.801712	0.430561
H155	H	-0.263283	0.229099	-0.229307
H156	H	0.236717	0.729099	0.270693
N157	N	-1.022780	0.733451	-0.291714
N158	N	-0.522780	1.233451	0.208286
H159	H	-1.044131	0.744844	-0.251188
H160	H	-0.544131	1.244844	0.248812
H161	H	-1.050757	0.744800	-0.328003
H162	H	-0.550757	1.244800	0.171997
N163	N	-0.988752	0.385031	-0.935999
N164	N	-0.488752	0.885031	-0.435999
H165	H	-0.963269	0.414068	-0.908832
H166	H	-0.463269	0.914068	-0.408832
H167	H	-1.014116	0.410370	-0.966692
H168	H	-0.514116	0.910370	-0.466692
N169	N	-0.135929	0.385286	-0.385019
N170	N	0.364071	0.885286	0.114981
H171	H	-0.089511	0.379204	-0.378952
H172	H	0.410489	0.879204	0.121048
H173	H	-0.147390	0.375590	-0.429784
H174	H	0.352610	0.875590	0.070216
H175	H	-0.978255	0.944014	-0.229277
H176	H	-0.478255	1.444014	0.270723
H177	H	-0.978172	0.374418	-1.063367
H178	H	-0.478172	0.874418	-0.563367
H179	H	-0.832857	0.229085	-0.659716
H180	H	-0.332857	0.729085	-0.159716
H181	H	-1.007930	0.310726	-0.861573
H182	H	-0.507930	0.810726	-0.361573
H183	H	-0.978151	0.374538	-0.541016
H184	H	-0.478151	0.874538	-0.041016
H185	H	-1.007913	0.860834	-0.293027
H186	H	-0.507913	1.360834	0.206973
H187	H	-0.263285	0.374671	-0.374446
H188	H	0.236715	0.874671	0.125554
N189	N	-0.675555	0.218458	-0.218717
N190	N	-0.175555	0.718458	0.281283
H191	H	-0.664142	0.228130	-0.173933
H192	H	-0.164142	0.728130	0.326067
H193	H	-0.721962	0.224557	-0.224835
H194	H	-0.221962	0.724557	0.275165
H195	H	-0.465138	0.199439	-0.293095
H196	H	0.034862	0.699439	0.206905
H197	H	-0.978099	0.540375	-0.229206
H198	H	-0.478099	1.040375	0.270794
N199	N	-0.788180	0.291480	-0.734133
N200	N	-0.288180	0.791480	-0.234133
H201	H	-0.752420	0.288337	-0.764773
H202	H	-0.252420	0.788337	-0.264773
H203	H	-0.782334	0.329657	-0.706967
H204	H	-0.282334	0.829657	-0.206967
H205	H	-0.144570	0.229105	-0.229305
H206	H	0.355430	0.729105	0.270695
N207	N	-0.539569	0.385267	-0.385003
N208	N	-0.039569	0.885267	0.114997
H209	H	-0.512394	0.414269	-0.359488
H210	H	-0.012394	0.914269	0.140512
H211	H	-0.512483	0.359801	-0.414081
H212	H	-0.012483	0.859801	0.085919
H213	H	-0.548210	0.229081	-0.229292
H214	H	-0.048210	0.729081	0.270708
N215	N	-0.822183	0.935388	-0.385116
N216	N	-0.322183	1.435388	0.114884
H217	H	-0.828249	0.888970	-0.379034
H218	H	-0.328249	1.388970	0.120966
H219	H	-0.831914	0.946784	-0.429875
H220	H	-0.331914	1.446784	0.070125
H221	H	-0.978148	0.659084	-0.229231
H222	H	-0.478148	1.159084	0.270769
N223	N	-0.988903	1.071372	-0.218730
N224	N	-0.488903	1.571372	0.281270
H225	H	-1.014285	1.040712	-0.193361
H226	H	-0.514285	1.540712	0.306639
H227	H	-0.963422	1.098565	-0.189719
H228	H	-0.463422	1.598565	0.310281
N229	N	-0.788097	0.733642	-0.312024
N230	N	-0.288097	1.233642	0.187976
H231	H	-0.788908	0.706464	-0.350628
H232	H	-0.288908	1.206464	0.149372
H233	H	-0.752376	0.764362	-0.315094
H234	H	-0.252376	1.264362	0.184906
H235	H	-1.007928	0.310748	-0.742868
H236	H	-0.507928	0.810748	-0.242868
H237	H	-0.832685	0.659111	-0.374493
H238	H	-0.332685	1.159111	0.125507
N239	N	-0.675575	0.385261	-0.384986
N240	N	-0.175575	0.885261	0.115014
H241	H	-0.644920	0.410676	-0.410329
H242	H	-0.144920	0.910676	0.089671
H243	H	-0.702752	0.359793	-0.414024
H244	H	-0.202752	0.859793	0.085976
N245	N	-0.822273	0.218510	-0.532365
N246	N	-0.322273	0.718510	-0.032365
H247	H	-0.777500	0.228228	-0.543734
H248	H	-0.277500	0.728228	-0.043734
H249	H	-0.828394	0.224613	-0.485959
H250	H	-0.328394	0.724613	0.014041
N251	N	-0.788174	0.291498	-0.870140
N252	N	-0.288174	0.791498	-0.370140
H253	H	-0.796738	0.292254	-0.916560
H254	H	-0.296738	0.792254	-0.416560
H255	H	-0.760165	0.327744	-0.858663
H256	H	-0.260165	0.827744	-0.358663
H257	H	-0.346433	0.199445	-0.293084
H258	H	0.153567	0.699445	0.206916
N259	N	-0.988737	0.385102	-0.668372
N260	N	-0.488737	0.885102	-0.168372
H261	H	-0.982664	0.379010	-0.714788
H262	H	-0.482664	0.879010	-0.214788
H263	H	-1.033491	0.375363	-0.656955
H264	H	-0.533491	0.875363	-0.156955
H265	H	-0.832836	1.062747	-0.374568
H266	H	-0.332836	1.562747	0.125432
N267	N	-0.788147	0.869657	-0.312049
N268	N	-0.288147	1.369657	0.187951
H269	H	-0.752374	0.839030	-0.315144
H270	H	-0.252374	1.339030	0.184856
H271	H	-0.789038	0.896782	-0.350657
H272	H	-0.289038	1.396782	0.149343
N273	N	-0.473694	0.419231	-0.311919
N274	N	0.026306	0.919231	0.188081
H275	H	-0.462318	0.440604	-0.352430
H276	H	0.037682	0.940604	0.147570
H277	H	-0.520103	0.410619	-0.311151
H278	H	-0.020103	0.910619	0.188849
H279	H	-0.832640	0.540396	-0.374480
H280	H	-0.332640	1.040396	0.125520
H281	H	-0.832866	0.229022	-0.944645
H282	H	-0.332866	0.729022	-0.444645
N283	N	-0.822278	0.218413	-1.071999
N284	N	-0.322278	0.718413	-0.571999
H285	H	-0.832042	0.173650	-1.060631
H286	H	-0.332042	0.673650	-0.560631
H287	H	-0.828371	0.224537	-1.118405
H288	H	-0.328371	0.724537	-0.618405
N289	N	-0.337691	0.419229	-0.311934
N290	N	0.162309	0.919229	0.188066
H291	H	-0.368329	0.454995	-0.314995
H292	H	0.131671	0.954995	0.185005
H293	H	-0.310523	0.424995	-0.273747
H294	H	0.189477	0.924995	0.226253
