data_functionalizedCrystal
_audit_creation_method	'MofGen! by Chris Wilmer'
_symmetry_space_group_name_H-M	'P1'
_symmetry_Int_Tables_number	1
_symmetry_cell_setting	triclinic
loop_
_symmetry_equiv_pos_as_xyz
  x,y,z
_cell_length_a	14.971486
_cell_length_b	10.654541
_cell_length_c	13.448316
_cell_angle_alpha	89.993648
_cell_angle_beta	89.998199
_cell_angle_gamma	84.049029
loop_
_atom_site_label
_atom_site_type_symbol
_atom_site_fract_x
_atom_site_fract_y
_atom_site_fract_z
O1	O	1.187837	0.163659	-0.082577
O2	O	1.687837	0.663659	0.417423
O3	O	0.927543	0.183258	-0.082604
O4	O	1.427543	0.683258	0.417396
O5	O	1.063676	-0.009345	-0.082584
O6	O	1.563676	0.490655	0.417416
O7	O	1.051704	0.356262	-0.082597
O8	O	1.551704	0.856262	0.417403
O9	O	1.063659	-0.009357	0.082800
O10	O	1.563659	0.490643	0.582800
O11	O	0.927526	0.183246	0.082780
O12	O	1.427526	0.683246	0.582780
O13	O	1.187820	0.163648	0.082807
O14	O	1.687820	0.663648	0.582807
Cu15	Cu	1.057671	0.173446	0.097894
Cu16	Cu	1.557671	0.673446	0.597894
Cu17	Cu	1.057692	0.173460	-0.097691
Cu18	Cu	1.557692	0.673460	0.402309
O19	O	1.051687	0.356251	0.082787
O20	O	1.551687	0.856251	0.582787
C21	C	0.894205	0.182376	0.000085
C22	C	1.394205	0.682376	0.500085
C23	C	0.794894	0.179749	0.000074
C24	C	1.294894	0.679749	0.500074
C25	C	0.738284	0.292898	0.000072
C26	C	1.238284	0.792898	0.500072
C27	C	0.644971	0.290423	0.000087
C28	C	1.144971	0.790423	0.500087
C29	C	0.608270	0.174797	0.000097
C30	C	1.108270	0.674797	0.500097
C31	C	0.664887	0.061639	0.000103
C32	C	1.164887	0.561639	0.500103
C33	C	0.758199	0.064116	0.000095
C34	C	1.258199	0.564116	0.500095
C35	C	0.470397	0.056485	0.000117
C36	C	0.970397	0.556485	0.500117
C37	C	0.377079	0.054008	0.000123
C38	C	0.877079	0.554008	0.500123
C39	C	0.357169	0.282792	0.000108
C40	C	0.857169	0.782792	0.500108
C41	C	0.450480	0.285268	0.000100
C42	C	0.950480	0.785268	0.500100
C43	C	0.507091	0.172110	0.000104
C44	C	1.007091	0.672110	0.500104
C45	C	1.062789	-0.056140	0.000107
C46	C	1.562789	0.443860	0.500107
C47	C	1.060160	-0.195555	0.000106
C48	C	1.560160	0.304445	0.500106
C49	C	1.222944	-0.225272	0.000135
C50	C	1.722944	0.274728	0.500135
C51	C	1.303097	-0.305626	0.000152
C52	C	1.803097	0.194374	0.500152
C53	C	1.300621	-0.436618	0.000148
C54	C	1.800621	0.063382	0.500148
C55	C	1.217984	-0.487256	0.000125
C56	C	1.717984	0.012744	0.500125
C57	C	1.137831	-0.406902	0.000109
C58	C	1.637831	0.093098	0.500109
C59	C	1.140315	-0.275909	0.000115
C60	C	1.640315	0.224091	0.500115
C61	C	0.975050	-0.377185	0.000072
C62	C	1.475050	0.122815	0.500072
C63	C	0.977523	-0.246194	0.000083
C64	C	1.477523	0.253806	0.500083
C65	C	0.892412	-0.427824	0.000049
C66	C	1.392412	0.072176	0.500049
C67	C	0.812257	-0.347470	0.000040
C68	C	1.312257	0.152530	0.500040
C69	C	0.814736	-0.216471	0.000044
C70	C	1.314736	0.283529	0.500044
C71	C	0.897370	-0.165839	0.000066
C72	C	1.397370	0.334161	0.500066
C73	C	1.221158	0.164530	0.000116
C74	C	1.721158	0.664530	0.500116
C75	C	1.320469	0.167157	0.000120
C76	C	1.820469	0.667157	0.500120
C77	C	1.052574	0.403045	0.000093
C78	C	1.552574	0.903045	0.500093
C79	C	1.055203	0.542460	0.000089
C80	C	1.555203	1.042460	0.500089
N81	N	1.057663	0.173435	0.235458
N82	N	1.557663	0.673435	0.735458
N83	N	1.057707	0.173461	-0.235256
N84	N	1.557707	0.673461	0.264744
C85	C	1.117962	0.088186	0.287508
C86	C	1.617962	0.588186	0.787508
C87	C	1.117968	0.088185	0.391611
C88	C	1.617968	0.588185	0.891611
C89	C	1.057678	0.173440	0.443663
C90	C	1.557678	0.673440	0.943663
C91	C	0.997373	0.258694	0.391606
C92	C	1.497373	0.758694	0.891606
C93	C	0.997364	0.258688	0.287505
C94	C	1.497364	0.758688	0.787505
C95	C	0.997398	0.258702	0.608587
C96	C	1.497398	0.758702	1.108587
C97	C	0.997408	0.258710	0.712695
C98	C	1.497408	0.758710	1.212695
C99	C	1.118002	0.088199	0.712692
C100	C	1.618002	0.588199	1.212692
C101	C	1.117992	0.088193	0.608591
C102	C	1.617992	0.588193	1.108591
C103	C	1.057688	0.173449	0.556542
C104	C	1.557688	0.673449	1.056542
H105	H	0.480359	0.379421	0.000082
H106	H	0.980359	0.879421	0.500082
Cl107	Cl	1.226062	-0.060597	0.000162
Cl108	Cl	1.726062	0.439403	0.500162
H109	H	0.804290	-0.028022	0.000097
H110	H	1.304290	0.471978	0.500097
H111	H	1.370379	-0.264381	0.000179
H112	H	1.870379	0.235619	0.500179
H113	H	0.311071	0.374929	0.000109
H114	H	0.811071	0.874929	0.500109
Cl115	Cl	0.330942	-0.091353	0.000169
Cl116	Cl	0.830942	0.408647	0.500169
H117	H	1.365889	-0.502043	0.000154
H118	H	1.865889	-0.002043	0.500154
Cl119	Cl	0.541564	-0.085774	0.000123
Cl120	Cl	1.041564	0.414226	0.500123
Cl121	Cl	1.214875	-0.651933	0.000054
Cl122	Cl	1.714875	-0.151933	0.500054
Cl123	Cl	0.889300	-0.592500	-0.000018
Cl124	Cl	1.389300	-0.092500	0.499982
Cl125	Cl	1.193763	-0.018994	0.222082
Cl126	Cl	1.693763	0.481006	0.722082
H127	H	1.167089	0.018778	0.566211
H128	H	1.667089	0.518778	1.066211
Cl129	Cl	1.193812	-0.018975	0.778129
Cl130	Cl	1.693812	0.481025	1.278129
H131	H	0.744981	-0.388711	0.000014
H132	H	1.244981	0.111289	0.500014
Cl133	Cl	0.921583	0.365881	0.543157
Cl134	Cl	1.421583	0.865881	1.043157
H135	H	1.167066	0.018767	0.433989
H136	H	1.667066	0.518767	0.933989
H137	H	0.749465	-0.151052	0.000026
H138	H	1.249465	0.348948	0.500026
Cl139	Cl	0.921610	0.365891	0.778124
Cl140	Cl	1.421610	0.865891	1.278124
H141	H	0.899396	-0.059181	0.000076
H142	H	1.399396	0.440819	0.500076
Cl143	Cl	0.921575	0.365868	0.457041
Cl144	Cl	1.421575	0.865868	0.957041
H145	H	0.768157	0.387054	0.000062
H146	H	1.268157	0.887054	0.500062
Cl147	Cl	0.573807	0.432674	0.000077
Cl148	Cl	1.073807	0.932674	0.500077
H149	H	0.634998	-0.032506	0.000126
H150	H	1.134998	0.467494	0.500126
Cl151	Cl	0.921553	0.365859	0.222073
Cl152	Cl	1.421553	0.865859	0.722073
