data_functionalizedCrystal
_audit_creation_method	'MofGen! by Chris Wilmer'
_symmetry_space_group_name_H-M	'P1'
_symmetry_Int_Tables_number	1
_symmetry_cell_setting	triclinic
loop_
_symmetry_equiv_pos_as_xyz
  x,y,z
_cell_length_a	23.532409
_cell_length_b	19.188930
_cell_length_c	17.666332
_cell_angle_alpha	89.976766
_cell_angle_beta	89.996569
_cell_angle_gamma	82.997171
loop_
_atom_site_label
_atom_site_type_symbol
_atom_site_fract_x
_atom_site_fract_y
_atom_site_fract_z
O1	O	0.071102	0.925923	-0.063187
O2	O	0.080673	0.722582	-0.063134
O3	O	-0.007031	0.830383	-0.063163
O4	O	0.158806	0.818121	-0.063158
O5	O	-0.007036	0.830365	0.062734
O6	O	0.080669	0.722563	0.062763
O7	O	0.071097	0.925905	0.062710
Cu8	Cu	0.075883	0.824232	0.074232
Cu9	Cu	0.075888	0.824254	-0.074656
O10	O	0.158802	0.818103	0.062739
C11	C	0.080361	0.696562	-0.000179
C12	C	0.079431	0.619061	-0.000159
C13	C	-0.028250	0.830062	-0.000216
C14	C	-0.091469	0.829122	-0.000221
C15	C	0.130893	0.573973	-0.000169
C16	C	0.130019	0.501152	-0.000178
C17	C	0.077679	0.473422	-0.000191
C18	C	0.026211	0.518519	-0.000176
C19	C	0.027086	0.591339	-0.000160
N20	N	0.037674	0.365575	-0.043071
N21	N	0.036846	0.296399	-0.043088
C22	C	0.075038	0.254022	-0.000237
N23	N	0.114099	0.283432	0.042621
N24	N	0.114928	0.352614	0.042634
C25	C	0.076724	0.394462	-0.000208
C26	C	0.125556	0.129973	-0.000256
C27	C	0.124680	0.057151	-0.000259
C28	C	0.020870	0.074520	-0.000266
C29	C	0.021748	0.147340	-0.000254
C30	C	0.074092	0.175062	-0.000253
C31	C	-0.364720	0.825137	-0.068850
C32	C	-0.305318	0.826009	-0.068850
O33	O	-0.274590	0.826494	-0.127212
N34	N	-0.275617	0.826431	-0.000223
C35	C	-0.305323	0.825987	0.068409
O36	O	-0.274606	0.826427	0.126782
C37	C	-0.364724	0.825120	0.068409
C38	C	-0.394421	0.824691	-0.000223
C39	C	-0.394417	0.824709	-0.137476
C40	C	-0.453815	0.823835	-0.137476
C41	C	-0.483516	0.823390	-0.068849
C42	C	-0.453819	0.823817	-0.000222
C43	C	-0.394429	0.824681	0.137040
C44	C	-0.453835	0.823814	0.137034
C45	C	-0.483531	0.823385	0.068402
C46	C	-0.542918	0.822498	0.068405
N47	N	-0.572618	0.822076	-0.000222
C48	C	-0.542917	0.822522	-0.068849
C49	C	-0.180576	0.827810	0.068405
C50	C	-0.121175	0.828672	0.068406
C51	C	-0.121174	0.828696	-0.068854
C52	C	-0.180576	0.827829	-0.068854
C53	C	-0.210276	0.827389	-0.000223
C54	C	-0.667657	0.820687	-0.068843
C55	C	-0.727059	0.819810	-0.068836
C56	C	-0.727055	0.819790	0.068424
C57	C	-0.667657	0.820663	0.068417
C58	C	-0.637960	0.821114	-0.000222
O59	O	-0.573683	0.822016	0.126737
O60	O	-0.573642	0.822092	-0.127212
C61	C	0.180021	0.818425	-0.000209
C62	C	0.243240	0.819364	-0.000209
C63	C	0.071410	0.951924	-0.000246
C64	C	0.072340	1.029426	-0.000271
N65	N	0.075878	0.824221	0.178951
N66	N	0.075888	0.824270	-0.179375
C67	C	0.037062	0.871971	0.218548
C68	C	0.037059	0.871975	0.297796
C69	C	0.075883	0.824236	0.337444
C70	C	0.114702	0.776477	0.297837
C71	C	0.114700	0.776470	0.218591
N72	N	0.126298	0.815000	0.461865
N73	N	0.126298	0.815011	0.537146
C74	C	0.075891	0.824255	0.576208
N75	N	0.025481	0.833501	0.537145
N76	N	0.025482	0.833493	0.461858
C77	C	0.075889	0.824239	0.423373
C78	C	0.037068	0.872012	0.701734
C79	C	0.037064	0.872011	0.780983
C80	C	0.114712	0.776516	0.781022
C81	C	0.114711	0.776513	0.701775
C82	C	0.075889	0.824265	0.662135
H83	H	0.173515	0.596539	-0.000170
H84	H	0.005452	0.910892	0.813223
H85	H	0.171926	0.464434	-0.000184
Cl86	Cl	-0.083823	0.829242	-0.155129
H87	H	0.146312	0.737606	0.330122
H88	H	-0.751248	0.819424	0.124298
Cl89	Cl	0.191359	0.164826	-0.000246
H90	H	-0.204754	0.827446	0.124296
Cl91	Cl	-0.357110	0.825212	0.223326
H92	H	-0.020158	0.184052	-0.000250
H93	H	0.166588	0.020440	-0.000263
Cl94	Cl	-0.011744	0.931997	0.168716
Cl95	Cl	-0.357089	0.825269	-0.223762
H96	H	-0.478014	0.823456	0.192923
Cl97	Cl	0.163515	0.716496	0.830860
H98	H	0.005449	0.910860	0.330042
H99	H	-0.096999	0.829008	0.124293
H100	H	-0.643484	0.821054	-0.124735
Cl101	Cl	-0.491140	0.823305	-0.223761
H102	H	-0.204751	0.827478	-0.124740
Cl103	Cl	-0.630323	0.821201	0.154698
H104	H	-0.751236	0.819458	-0.124727
H105	H	-0.021745	0.051943	-0.000323
H106	H	0.146310	0.737585	0.186350
H107	H	-0.016404	0.495937	-0.000198
Cl108	Cl	-0.037614	0.648024	-0.000148
Cl109	Cl	-0.011739	0.932038	0.651900
Cl110	Cl	0.163514	0.716486	0.651991
