data_functionalizedCrystal
_audit_creation_method	'MofGen! by Chris Wilmer'
_symmetry_space_group_name_H-M	'P1'
_symmetry_Int_Tables_number	1
_symmetry_cell_setting	triclinic
loop_
_symmetry_equiv_pos_as_xyz
  x,y,z
_cell_length_a	19.288864
_cell_length_b	16.109301
_cell_length_c	18.366186
_cell_angle_alpha	89.992337
_cell_angle_beta	89.977106
_cell_angle_gamma	83.298863
loop_
_atom_site_label
_atom_site_type_symbol
_atom_site_fract_x
_atom_site_fract_y
_atom_site_fract_z
O1	O	0.921600	0.103716	-0.060785
O2	O	1.254934	0.437049	0.272548
O3	O	1.588267	0.770383	0.605881
O4	O	0.719373	0.117707	-0.060736
O5	O	1.052706	0.451040	0.272597
O6	O	1.386040	0.784374	0.605931
O7	O	0.826042	-0.010339	-0.060755
O8	O	1.159375	0.322995	0.272579
O9	O	1.492709	0.656328	0.605912
O10	O	0.814931	0.231761	-0.060767
O11	O	1.148265	0.565095	0.272567
O12	O	1.481598	0.898428	0.605900
O13	O	0.826024	-0.010345	0.060345
O14	O	1.159357	0.322988	0.393678
O15	O	1.492691	0.656322	0.727011
O16	O	0.719355	0.117701	0.060363
O17	O	1.052688	0.451034	0.393697
O18	O	1.386022	0.784367	0.727030
O19	O	0.921582	0.103710	0.060314
O20	O	1.254916	0.437043	0.393647
O21	O	1.588249	0.770376	0.726981
Zn22	Zn	0.820466	0.110704	0.079566
Zn23	Zn	1.153799	0.444037	0.412899
Zn24	Zn	1.487132	0.777371	0.746232
Zn25	Zn	0.820490	0.110712	-0.079988
Zn26	Zn	1.153823	0.444046	0.253345
Zn27	Zn	1.487156	0.777379	0.586679
O28	O	0.814913	0.231755	0.060333
O29	O	1.148247	0.565088	0.393666
O30	O	1.481580	0.898422	0.726999
C31	C	0.693487	0.117254	-0.000180
C32	C	1.026820	0.450587	0.333153
C33	C	1.360153	0.783920	0.666487
C34	C	0.616380	0.115902	-0.000161
C35	C	0.949713	0.449236	0.333173
C36	C	1.283046	0.782569	0.666506
C37	C	0.571863	0.191034	-0.000176
C38	C	0.905196	0.524367	0.333157
C39	C	1.238530	0.857700	0.666491
C40	C	0.499413	0.189764	-0.000184
C41	C	0.832746	0.523097	0.333149
C42	C	1.166079	0.856431	0.666483
C43	C	0.471483	0.113359	-0.000191
C44	C	0.804816	0.446692	0.333142
C45	C	1.138149	0.780025	0.666475
C46	C	0.516009	0.038218	-0.000172
C47	C	0.849343	0.371551	0.333161
C48	C	1.182676	0.704884	0.666495
C49	C	0.588458	0.039489	-0.000157
C50	C	0.921791	0.372823	0.333177
C51	C	1.255125	0.706156	0.666510
C52	C	0.363084	0.053298	-0.042639
C53	C	0.696417	0.386631	0.290694
C54	C	1.029750	0.719965	0.624027
C55	C	0.290636	0.052029	-0.042659
C56	C	0.623970	0.385363	0.290674
C57	C	0.957303	0.718696	0.624008
C58	C	0.248028	0.109433	-0.000235
C59	C	0.581361	0.442766	0.333098
C60	C	0.914694	0.776100	0.666431
C61	C	0.277874	0.168120	0.042199
C62	C	0.611208	0.501453	0.375532
C63	C	0.944541	0.834786	0.708866
C64	C	0.350323	0.169391	0.042214
C65	C	0.683656	0.502725	0.375548
C66	C	1.016989	0.836058	0.708881
C67	C	0.392925	0.111971	-0.000207
C68	C	0.726259	0.445305	0.333126
C69	C	1.059592	0.778638	0.666459
C70	C	0.124952	0.183193	-0.000258
C71	C	0.458285	0.516526	0.333075
C72	C	0.791618	0.849860	0.666409
C73	C	0.052501	0.181920	-0.000262
C74	C	0.385834	0.515254	0.333072
C75	C	0.719167	0.848587	0.666405
C76	C	0.069099	0.030372	-0.000257
C77	C	0.402432	0.363705	0.333076
C78	C	0.735766	0.697038	0.666410
C79	C	0.141548	0.031647	-0.000246
C80	C	0.474882	0.364980	0.333087
C81	C	0.808215	0.698313	0.666421
C82	C	0.169470	0.108060	-0.000250
C83	C	0.502804	0.441393	0.333083
C84	C	0.836137	0.774726	0.666417
C85	C	0.825583	-0.041315	-0.000205
C86	C	1.158916	0.292018	0.333129
C87	C	1.492250	0.625352	0.666462
C88	C	0.824234	-0.133606	-0.000203
C89	C	1.157567	0.199728	0.333130
C90	C	1.490900	0.533061	0.666464
C91	C	0.884391	-0.356084	-0.000229
C92	C	1.217725	-0.022751	0.333104
C93	C	1.551058	0.310583	0.666437
C94	C	0.883118	-0.442800	-0.000235
C95	C	1.216452	-0.109467	0.333098
C96	C	1.549785	0.223867	0.666432
C97	C	0.756559	-0.422493	-0.000201
C98	C	1.089892	-0.089159	0.333132
C99	C	1.423226	0.244174	0.666465
C100	C	0.757833	-0.335778	-0.000201
C101	C	1.091166	-0.002445	0.333133
C102	C	1.424500	0.330888	0.666466
C103	C	0.821751	-0.302577	-0.000211
C104	C	1.155085	0.030757	0.333122
C105	C	1.488418	0.364090	0.666456
C106	C	0.819204	-0.476007	-0.000217
C107	C	1.152537	-0.142674	0.333116
C108	C	1.485871	0.190660	0.666449
C109	C	0.817823	-0.570028	-0.000223
C110	C	1.151156	-0.236695	0.333110
C111	C	1.484490	0.096638	0.666443
C112	C	0.823133	-0.208549	-0.000206
C113	C	1.156466	0.124784	0.333127
C114	C	1.489799	0.458117	0.666460
C115	C	0.947469	0.104163	-0.000244
C116	C	1.280802	0.437496	0.333090
C117	C	1.614136	0.770830	0.666423
C118	C	1.024576	0.105514	-0.000268
C119	C	1.357909	0.438848	0.333066
C120	C	1.691242	0.772181	0.666399
C121	C	0.815372	0.262732	-0.000219
C122	C	1.148706	0.596065	0.333114
C123	C	1.482039	0.929398	0.666448
C124	C	0.816722	0.355022	-0.000225
C125	C	1.150055	0.688356	0.333108
C126	C	1.483388	1.021689	0.666441
N127	N	0.820455	0.110698	0.188457
N128	N	1.153788	0.444031	0.521790
N129	N	1.487121	0.777365	0.855124
N130	N	0.820506	0.110712	-0.188879
N131	N	1.153840	0.444045	0.144454
N132	N	1.487173	0.777379	0.477788
C133	C	0.867703	0.054027	0.226549
C134	C	1.201036	0.387361	0.559882
C135	C	1.534370	0.720694	0.893216
C136	C	0.867707	0.054023	0.302777
C137	C	1.201041	0.387357	0.636110
C138	C	1.534374	0.720690	0.969444
C139	C	0.820470	0.110705	0.340910
C140	C	1.153803	0.444038	0.674243
C141	C	1.487137	0.777372	1.007576
C142	C	0.773213	0.167380	0.302808
C143	C	1.106546	0.500713	0.636142
C144	C	1.439879	0.834047	0.969475
C145	C	0.773205	0.167377	0.226582
C146	C	1.106538	0.500710	0.559915
C147	C	1.439871	0.834043	0.893249
C148	C	0.811353	0.186459	0.461668
C149	C	1.144686	0.519792	0.795001
C150	C	1.478019	0.853125	1.128334
C151	C	0.811365	0.186463	0.537893
C152	C	1.144698	0.519796	0.871226
C153	C	1.478032	0.853130	1.204559
C154	C	0.820490	0.110715	0.576017
C155	C	1.153823	0.444049	0.909351
C156	C	1.487156	0.777382	1.242684
C157	C	0.829616	0.034960	0.537908
C158	C	1.162950	0.368293	0.871241
C159	C	1.496283	0.701626	1.204574
C160	C	0.829609	0.034956	0.461681
C161	C	1.162942	0.368290	0.795014
C162	C	1.496275	0.701623	1.128348
C163	C	0.820473	0.110715	0.423564
C164	C	1.153806	0.444048	0.756898
C165	C	1.487139	0.777381	1.090231
C166	C	0.867746	0.054036	0.696764
C167	C	1.201079	0.387369	1.030098
C168	C	1.534412	0.720702	1.363431
C169	C	0.867745	0.054031	0.772993
C170	C	1.201078	0.387364	1.106327
C171	C	1.534412	0.720698	1.439660
C172	C	0.773254	0.167395	0.773023
C173	C	1.106587	0.500728	1.106357
C174	C	1.439920	0.834061	1.439690
C175	C	0.773251	0.167392	0.696796
C176	C	1.106584	0.500726	1.030129
C177	C	1.439917	0.834059	1.363462
C178	C	0.820500	0.110714	0.658671
C179	C	1.153834	0.444047	0.992004
C180	C	1.487167	0.777380	1.325337
H181	H	0.594592	0.253255	-0.000181
H182	H	0.927925	0.586588	0.333153
H183	H	1.261258	0.919922	0.666486
H184	H	0.734779	0.213542	0.665779
H185	H	1.068113	0.546876	0.999112
H186	H	1.401446	0.880209	1.332446
Br187	Br	0.478107	-0.065476	-0.000175
Br188	Br	0.811440	0.267857	0.333159
Br189	Br	1.144773	0.601190	0.666492
Br190	Br	0.968134	-0.515415	-0.000264
Br191	Br	1.301467	-0.182082	0.333069
Br192	Br	1.634800	0.151252	0.666403
Br193	Br	0.971137	-0.311026	-0.000243
Br194	Br	1.304470	0.022307	0.333090
Br195	Br	1.637804	0.355640	0.666424
H196	H	0.906218	0.007878	0.804009
H197	H	1.239552	0.341212	1.137342
H198	H	1.572885	0.674545	1.470675
H199	H	0.803938	0.248148	0.568916
H200	H	1.137271	0.581481	0.902249
H201	H	1.470605	0.914814	1.235582
Br202	Br	0.672815	-0.263154	-0.000186
Br203	Br	1.006148	0.070179	0.333147
Br204	Br	1.339482	0.403512	0.666481
Br205	Br	0.220057	0.246033	0.099776
Br206	Br	0.553391	0.579367	0.433110
Br207	Br	0.886724	0.912700	0.766443
H208	H	0.016255	0.243104	-0.000270
H209	H	0.349588	0.576437	0.333064
H210	H	0.682921	0.909770	0.666397
H211	H	0.704519	-0.449537	-0.000191
H212	H	1.037852	-0.116203	0.333142
H213	H	1.371186	0.217130	0.666475
H214	H	0.837038	-0.026726	0.430655
H215	H	1.170371	0.306607	0.763989
H216	H	1.503705	0.639940	1.097322
Br217	Br	0.250136	-0.027605	-0.100258
Br218	Br	0.583470	0.305729	0.233076
Br219	Br	0.916803	0.639062	0.566409
H220	H	0.734750	0.213530	0.333860
H221	H	1.068083	0.546863	0.667193
H222	H	1.401417	0.880196	1.000527
Br223	Br	0.390828	0.249031	0.099802
Br224	Br	0.724161	0.582364	0.433136
Br225	Br	1.057495	0.915697	0.766469
Br226	Br	0.031202	-0.073323	-0.000255
Br227	Br	0.364536	0.260010	0.333079
Br228	Br	0.697869	0.593343	0.666412
Br229	Br	0.709138	0.244311	0.824769
Br230	Br	1.042471	0.577645	1.158102
Br231	Br	1.375804	0.910978	1.491435
Br232	Br	0.799038	0.289271	0.409935
Br233	Br	1.132371	0.622604	0.743268
Br234	Br	1.465705	0.955938	1.076601
H235	H	0.734729	0.213526	0.195567
H236	H	1.068062	0.546859	0.528900
H237	H	1.401395	0.880192	0.862233
Br238	Br	0.931823	-0.022894	0.174807
Br239	Br	1.265157	0.310439	0.508141
Br240	Br	1.598490	0.643773	0.841474
Br241	Br	0.162850	0.286893	-0.000258
Br242	Br	0.496183	0.620227	0.333075
Br243	Br	0.829517	0.953560	0.666408
H244	H	0.463160	0.250947	-0.000194
H245	H	0.796493	0.584280	0.333139
H246	H	1.129827	0.917613	0.666472
H247	H	0.177795	-0.029534	-0.000238
H248	H	0.511129	0.303800	0.333096
H249	H	0.844462	0.637133	0.666429
Br250	Br	0.420903	-0.024616	-0.100218
Br251	Br	0.754236	0.308717	0.233116
Br252	Br	1.087570	0.642050	0.566449
H253	H	0.624704	-0.021694	-0.000145
H254	H	0.958038	0.311640	0.333189
H255	H	1.291371	0.644973	0.666522
Br256	Br	0.931835	-0.022895	0.354483
Br257	Br	1.265168	0.310439	0.687816
Br258	Br	1.598502	0.643772	1.021149
Br259	Br	0.842009	-0.067849	0.589638
Br260	Br	1.175342	0.265485	0.922971
Br261	Br	1.508676	0.598818	1.256305
H262	H	0.906217	0.007882	0.665722
H263	H	1.239551	0.341215	0.999055
H264	H	1.572884	0.674549	1.332388
