data_functionalizedCrystal
_audit_creation_method	'MofGen! by Chris Wilmer'
_symmetry_space_group_name_H-M	'P1'
_symmetry_Int_Tables_number	1
_symmetry_cell_setting	triclinic
loop_
_symmetry_equiv_pos_as_xyz
  x,y,z
_cell_length_a	17.077404
_cell_length_b	18.050583
_cell_length_c	17.077402
_cell_angle_alpha	90.037051
_cell_angle_beta	89.979147
_cell_angle_gamma	89.985226
loop_
_atom_site_label
_atom_site_type_symbol
_atom_site_fract_x
_atom_site_fract_y
_atom_site_fract_z
Zn1	Zn	1.200027	-0.419884	0.312494
Zn2	Zn	1.199942	-0.295692	0.443786
Zn3	Zn	1.068767	-0.295711	0.312533
Zn4	Zn	1.068727	-0.419843	0.443717
O5	O	1.134366	-0.357783	0.378133
O6	O	1.309863	-0.403419	0.329923
O7	O	1.182523	-0.191770	0.426420
O8	O	1.086231	-0.312207	0.202681
O9	O	1.309800	-0.312176	0.426382
O10	O	1.182667	-0.403437	0.202653
O11	O	1.086149	-0.191784	0.329989
O12	O	0.958915	-0.312168	0.329923
O13	O	1.086163	-0.523773	0.426266
O14	O	0.958885	-0.403368	0.426303
O15	O	1.182628	-0.523803	0.329856
O16	O	1.182484	-0.312136	0.553624
O17	O	1.086080	-0.403350	0.553574
C18	C	0.930418	-0.357766	0.378111
C19	C	0.843168	-0.357776	0.378120
C20	C	0.802211	-0.405359	0.327983
C21	C	0.720231	-0.405363	0.327988
C22	C	0.679209	-0.357786	0.378135
C23	C	0.720171	-0.310198	0.428274
C24	C	0.802150	-0.310192	0.428264
C25	C	0.549301	-0.310217	0.428292
C26	C	0.467317	-0.310224	0.428303
C27	C	0.467382	-0.405388	0.328015
C28	C	0.549360	-0.405381	0.328006
C29	C	0.590318	-0.357794	0.378146
C30	C	1.134400	-0.551488	0.378049
C31	C	1.134415	-0.634034	0.378013
C32	C	1.186926	-0.833501	0.325561
C33	C	1.115330	-0.882898	0.306346
C34	C	1.134447	-0.785164	0.378000
C35	C	1.206071	-0.882850	0.397165
C36	C	1.134483	-0.931150	0.377985
C37	C	1.062813	-0.833474	0.358748
C38	C	1.153602	-0.833422	0.449600
C39	C	1.081957	-0.882796	0.430413
C40	C	1.134426	-0.701066	0.378006
C41	C	1.134495	-1.015246	0.377979
C42	C	1.339110	-0.357800	0.378156
C43	C	1.426360	-0.357807	0.378165
C44	C	1.134290	-0.357753	0.582081
C45	C	1.134329	-0.357765	0.669330
C46	C	1.134376	-0.164830	0.378160
C47	C	1.134514	-0.082285	0.377974
C48	C	1.134463	-0.357829	0.173388
C49	C	1.134505	-0.357848	0.086139
C50	C	1.184578	-0.310321	0.710321
C51	C	1.184616	-0.310340	0.792301
C52	C	1.134401	-0.357800	0.833290
C53	C	1.084151	-0.405249	0.792294
C54	C	1.084117	-0.405233	0.710315
C55	C	1.084223	-0.405277	0.963164
C56	C	1.084256	-0.405292	1.045148
C57	C	1.184723	-0.310384	1.045150
C58	C	1.184689	-0.310368	0.963171
C59	C	1.134437	-0.357817	0.922181
H60	H	0.582646	-0.271464	0.469119
H61	H	1.043200	-0.443868	0.676941
O62	O	0.680289	-0.264089	0.477070
C63	C	0.587668	-0.253927	0.583019
C64	C	0.632797	-0.306229	0.527816
H65	H	0.549247	-0.287976	0.624049
H66	H	0.630989	-0.219928	0.618909
H67	H	0.549315	-0.215146	0.546921
H68	H	0.671151	-0.345055	0.563853
H69	H	0.589433	-0.340176	0.491923
O70	O	0.427550	-0.264044	0.477118
C71	C	0.402368	-0.227790	0.610599
C72	C	0.447468	-0.280122	0.555404
H73	H	0.418442	-0.240781	0.673905
H74	H	0.418475	-0.167916	0.596799
H75	H	0.336745	-0.235965	0.601950
H76	H	0.513101	-0.272014	0.564023
H77	H	0.431295	-0.339977	0.569217
O78	O	1.035264	-0.451317	0.832020
C79	C	0.901722	-0.487232	0.857207
C80	C	0.957002	-0.435025	0.812157
H81	H	0.838435	-0.474069	0.841177
H82	H	0.915397	-0.547135	0.841008
H83	H	0.910415	-0.479107	0.922837
H84	H	0.948340	-0.443084	0.746517
H85	H	0.943313	-0.375141	0.828421
O86	O	0.990554	-0.807626	0.339425
C87	C	0.879101	-0.734915	0.379339
C88	C	0.960931	-0.764124	0.401318
H89	H	0.855119	-0.699750	0.429374
H90	H	0.883426	-0.699740	0.324086
H91	H	0.838152	-0.783683	0.368303
H92	H	1.001924	-0.715401	0.412394
H93	H	0.956543	-0.799322	0.456549
O94	O	0.841817	-0.263949	0.477045
C95	C	0.833106	-0.169533	0.576487
C96	C	0.788088	-0.221880	0.521297
H97	H	0.789686	-0.135495	0.612267
H98	H	0.871468	-0.203520	0.617621
H99	H	0.871503	-0.130790	0.540383
H100	H	0.749649	-0.260633	0.557337
H101	H	0.749776	-0.187846	0.480161
O102	O	1.028924	-0.908552	0.483209
C103	C	0.912735	-0.981597	0.504289
C104	C	0.972754	-0.952491	0.444424
H105	H	0.867297	-1.017115	0.472951
H106	H	0.944052	-1.016393	0.550336
H107	H	0.882391	-0.932779	0.533895
H108	H	1.003116	-1.001264	0.414760
H109	H	0.941393	-0.917673	0.398426
O110	O	1.035523	-0.451446	0.923307
C111	C	1.024856	-0.551651	0.830627
C112	C	1.080098	-0.499429	0.875731
H113	H	1.060872	-0.590448	0.792139
H114	H	0.988981	-0.585630	0.873964
H115	H	0.983805	-0.517494	0.792343
H116	H	1.121196	-0.533529	0.914016
H117	H	1.115918	-0.465448	0.832352
O118	O	0.841935	-0.451602	0.279198
C119	C	0.833337	-0.546023	0.179762
C120	C	0.788256	-0.493679	0.234960
H121	H	0.789957	-0.580067	0.143993
H122	H	0.871695	-0.512031	0.138617
H123	H	0.871742	-0.584759	0.215857
H124	H	0.749808	-0.454932	0.198928
H125	H	0.749947	-0.527716	0.276107
O126	O	0.427722	-0.451681	0.279278
C127	C	0.436437	-0.546038	0.179774
C128	C	0.481453	-0.493662	0.234935
H129	H	0.479860	-0.579982	0.143896
H130	H	0.398080	-0.584860	0.215825
H131	H	0.398037	-0.512002	0.138722
H132	H	0.519896	-0.527637	0.275998
H133	H	0.519761	-0.454837	0.198835
H134	H	1.231233	-0.811854	0.281187
H135	H	0.582758	-0.444126	0.287176
H136	H	1.099140	-0.904630	0.245789
H137	H	1.169814	-0.811675	0.510140
O138	O	1.278371	-0.908637	0.416424
C139	C	1.415367	-0.912872	0.382865
C140	C	1.333533	-0.883607	0.360984
H141	H	1.459985	-0.892660	0.338044
H142	H	1.432175	-0.891652	0.443460
H143	H	1.414509	-0.976022	0.383264
H144	H	1.334328	-0.820459	0.360539
H145	H	1.316757	-0.904884	0.300403
O146	O	1.035570	-0.451504	1.084934
C147	C	0.997385	-0.577805	1.109917
C148	C	1.052580	-0.525553	1.064823
H149	H	1.011107	-0.637683	1.093661
H150	H	1.006048	-0.569723	1.175558
H151	H	0.934093	-0.564680	1.093874
H152	H	1.115894	-0.538646	1.080800
H153	H	1.043849	-0.533644	0.999192
H154	H	1.225465	-0.271671	0.676953
O155	O	1.233450	-0.264181	0.831997
C156	C	1.333123	-0.170070	0.823348
C157	C	1.277843	-0.222297	0.778295
H158	H	1.369041	-0.136205	0.779949
H159	H	1.297163	-0.131168	0.861771
H160	H	1.374132	-0.204218	0.861685
H161	H	1.236823	-0.188209	0.739915
H162	H	1.313852	-0.261202	0.739921
O163	O	1.233598	-0.264442	1.085085
C164	C	1.278338	-0.222553	1.211378
C165	C	1.222914	-0.274582	1.166247
H166	H	1.269708	-0.230721	1.277006
H167	H	1.341595	-0.235749	1.195191
H168	H	1.264704	-0.162626	1.195341
H169	H	1.236477	-0.334526	1.182260
H170	H	1.159673	-0.261322	1.182438
H171	H	1.225573	-0.271720	0.929798
H172	H	0.686887	-0.444111	0.287163
