data_functionalizedCrystal
_audit_creation_method	'MofGen! by Chris Wilmer'
_symmetry_space_group_name_H-M	'P1'
_symmetry_Int_Tables_number	1
_symmetry_cell_setting	triclinic
loop_
_symmetry_equiv_pos_as_xyz
  x,y,z
_cell_length_a	18.050589
_cell_length_b	16.625548
_cell_length_c	16.625539
_cell_angle_alpha	89.979432
_cell_angle_beta	89.975176
_cell_angle_gamma	90.029289
loop_
_atom_site_label
_atom_site_type_symbol
_atom_site_fract_x
_atom_site_fract_y
_atom_site_fract_z
Zn1	Zn	-0.295637	1.232648	-0.455929
Zn2	Zn	0.037696	1.565982	-0.122596
Zn3	Zn	0.371030	1.899315	0.210738
Zn4	Zn	-0.419835	1.232538	-0.321104
Zn5	Zn	-0.086501	1.565871	0.012229
Zn6	Zn	0.246832	1.899205	0.345562
Zn7	Zn	-0.295665	1.097810	-0.321109
Zn8	Zn	0.037668	1.431143	0.012224
Zn9	Zn	0.371001	1.764477	0.345557
Zn10	Zn	-0.419792	1.097767	-0.455894
Zn11	Zn	-0.086459	1.431100	-0.122561
Zn12	Zn	0.246875	1.764434	0.210773
O13	O	-0.357732	1.165191	-0.388509
O14	O	-0.024399	1.498524	-0.055176
O15	O	0.308934	1.831857	0.278158
O16	O	-0.312118	1.345466	-0.438056
O17	O	0.021215	1.678799	-0.104723
O18	O	0.354549	2.012133	0.228610
O19	O	-0.403393	1.214638	-0.208272
O20	O	-0.070060	1.547971	0.125061
O21	O	0.263274	1.881305	0.458394
O22	O	-0.191737	1.115761	-0.339010
O23	O	0.141596	1.449094	-0.005677
O24	O	0.474930	1.782428	0.327657
O25	O	-0.403366	1.345385	-0.339001
O26	O	-0.070032	1.678718	-0.005668
O27	O	0.263301	2.012052	0.327665
O28	O	-0.191716	1.214826	-0.438061
O29	O	0.141617	1.548159	-0.104728
O30	O	0.474951	1.881493	0.228605
O31	O	-0.312166	1.115654	-0.208276
O32	O	0.021167	1.448987	0.125057
O33	O	0.354500	1.782321	0.458390
O34	O	-0.312125	0.984972	-0.338976
O35	O	0.021208	1.318305	-0.005643
O36	O	0.354542	1.651639	0.327690
O37	O	-0.403293	1.115687	-0.568731
O38	O	-0.069960	1.449021	-0.235398
O39	O	0.263374	1.782354	0.097936
O40	O	-0.403320	0.984940	-0.438002
O41	O	-0.069987	1.318274	-0.104669
O42	O	0.263346	1.651607	0.228664
O43	O	-0.312077	1.214784	-0.568757
O44	O	0.021257	1.548117	-0.235423
O45	O	0.354590	1.881451	0.097910
O46	O	-0.523754	1.214596	-0.338968
O47	O	-0.190420	1.547929	-0.005634
O48	O	0.142913	1.881263	0.327699
O49	O	-0.523722	1.115580	-0.437997
O50	O	-0.190389	1.448914	-0.104664
O51	O	0.142944	1.782247	0.228669
C52	C	-0.357722	0.955700	-0.388487
C53	C	-0.024388	1.289033	-0.055153
C54	C	0.308945	1.622367	0.278180
C55	C	-0.357735	0.866079	-0.388496
C56	C	-0.024402	1.199412	-0.055163
C57	C	0.308932	1.532746	0.278171
C58	C	-0.550684	1.165093	-0.388496
C59	C	-0.217351	1.498427	-0.055162
C60	C	0.115982	1.831760	0.278171
C61	C	-0.633230	1.165126	-0.388517
C62	C	-0.299897	1.498459	-0.055184
C63	C	0.033437	1.831792	0.278150
C64	C	-0.357740	0.537903	-0.388531
C65	C	-0.024406	0.871237	-0.055197
C66	C	0.308927	1.204570	0.278136
C67	C	-0.357736	0.629212	-0.388518
C68	C	-0.024403	0.962545	-0.055185
C69	C	0.308930	1.295878	0.278148
C70	C	-0.357738	0.701988	-0.388513
C71	C	-0.024404	1.035321	-0.055179
C72	C	0.308929	1.368655	0.278154
C73	C	-0.357734	0.793302	-0.388502
C74	C	-0.024400	1.126636	-0.055168
C75	C	0.308933	1.459969	0.278165
C76	C	-0.832691	1.111334	-0.442350
C77	C	-0.499357	1.444667	-0.109017
C78	C	-0.166024	1.778000	0.224316
C79	C	-0.882133	1.091677	-0.368775
C80	C	-0.548799	1.425011	-0.035441
C81	C	-0.215466	1.758344	0.297892
C82	C	-0.784360	1.165205	-0.388528
C83	C	-0.451027	1.498538	-0.055194
C84	C	-0.117694	1.831871	0.278139
C85	C	-0.882000	1.184901	-0.462112
C86	C	-0.548667	1.518234	-0.128779
C87	C	-0.215333	1.851567	0.204555
C88	C	-0.930346	1.165280	-0.388544
C89	C	-0.597012	1.498613	-0.055211
C90	C	-0.263679	1.831946	0.278123
C91	C	-0.832715	1.145510	-0.314913
C92	C	-0.499382	1.478843	0.018421
C93	C	-0.166049	1.812176	0.351754
C94	C	-0.832578	1.238767	-0.408300
C95	C	-0.499245	1.572101	-0.074966
C96	C	-0.165912	1.905434	0.258367
C97	C	-0.881998	1.219139	-0.334673
C98	C	-0.548665	1.552472	-0.001340
C99	C	-0.215331	1.885806	0.331994
C100	C	-0.700262	1.165160	-0.388519
C101	C	-0.366929	1.498493	-0.055186
C102	C	-0.033596	1.831826	0.278148
C103	C	-1.014442	1.165325	-0.388544
C104	C	-0.681109	1.498659	-0.055211
C105	C	-0.347775	1.831992	0.278122
C106	C	-0.164027	1.165310	-0.388540
C107	C	0.169307	1.498644	-0.055207
C108	C	0.502640	1.831977	0.278126
C109	C	-0.081481	1.165361	-0.388553
C110	C	0.251853	1.498695	-0.055220
C111	C	0.585186	1.832028	0.278113
C112	C	-0.357677	1.165243	-0.598818
C113	C	-0.024344	1.498577	-0.265485
C114	C	0.308990	1.831910	0.067849
C115	C	-0.357653	1.165266	-0.688439
C116	C	-0.024320	1.498599	-0.355106
C117	C	0.309013	1.831932	-0.021773
C118	C	-0.357743	1.375500	-0.388532
C119	C	-0.024410	1.708833	-0.055199
C120	C	0.308923	2.042166	0.278134
C121	C	-0.357748	1.465121	-0.388542
C122	C	-0.024415	1.798454	-0.055209
C123	C	0.308919	2.131787	0.278125
C124	C	-0.357570	1.165303	-1.016615
C125	C	-0.024237	1.498636	-0.683282
C126	C	0.309097	1.831969	-0.349948
C127	C	-0.357596	1.165290	-0.925307
C128	C	-0.024262	1.498624	-0.591973
C129	C	0.309071	1.831957	-0.258640
C130	C	-0.357612	1.165285	-0.852530
C131	C	-0.024279	1.498618	-0.519197
C132	C	0.309054	1.831951	-0.185863
C133	C	-0.357637	1.165271	-0.761216
C134	C	-0.024303	1.498604	-0.427882
C135	C	0.309030	1.831938	-0.094549
C136	C	-0.357734	1.165185	-0.179018
C137	C	-0.024400	1.498518	0.154315
C138	C	0.308933	1.831852	0.487648
C139	C	-0.357548	1.165319	-0.089398
C140	C	-0.024215	1.498652	0.243936
C141	C	0.309119	1.831986	0.577269
H142	H	-0.903916	1.029503	-0.352066
H143	H	-0.570582	1.362836	-0.018733
H144	H	-0.237249	1.696170	0.314600
F145	F	-0.804390	1.051703	-0.501760
F146	F	-0.471056	1.385036	-0.168427
F147	F	-0.137723	1.718369	0.164906
F148	F	-0.804539	1.123682	-0.233559
F149	F	-0.471205	1.457016	0.099774
F150	F	-0.137872	1.790349	0.433107
F151	F	-0.910119	1.278729	-0.275123
F152	F	-0.576785	1.612063	0.058210
F153	F	-0.243452	1.945396	0.391543
F154	F	-0.804107	1.320016	-0.430184
F155	F	-0.470773	1.653349	-0.096851
F156	F	-0.137440	1.986682	0.236483
F157	F	-0.910300	1.206636	-0.543440
F158	F	-0.576967	1.539969	-0.210107
F159	F	-0.243633	1.873302	0.123227
