data_functionalizedCrystal
_audit_creation_method	'MofGen! by Chris Wilmer'
_symmetry_space_group_name_H-M	'P1'
_symmetry_Int_Tables_number	1
_symmetry_cell_setting	triclinic
loop_
_symmetry_equiv_pos_as_xyz
  x,y,z
_cell_length_a	19.188933
_cell_length_b	18.266242
_cell_length_c	10.540539
_cell_angle_alpha	89.997057
_cell_angle_beta	96.164470
_cell_angle_gamma	90.007525
loop_
_atom_site_label
_atom_site_type_symbol
_atom_site_fract_x
_atom_site_fract_y
_atom_site_fract_z
O1	O	0.927205	0.060853	-0.158481
O2	O	0.724036	0.060860	-0.179811
O3	O	0.830256	0.060855	0.015663
O4	O	0.820985	0.060857	-0.353955
O5	O	0.830237	-0.060907	0.015668
O6	O	0.724018	-0.060902	-0.179806
O7	O	0.927187	-0.060909	-0.158476
Zn8	Zn	0.825599	-0.080238	-0.169140
Zn9	Zn	0.825623	0.080189	-0.169147
O10	O	0.820967	-0.060905	-0.353949
C11	C	0.698011	-0.000021	-0.179117
C12	C	0.620493	-0.000018	-0.177043
C13	C	0.067149	0.066346	-0.162238
C14	C	0.139986	0.066349	-0.164179
C15	C	0.176400	-0.000023	-0.165153
C16	C	0.139972	-0.066403	-0.164153
C17	C	0.067137	-0.066404	-0.162198
N18	N	0.285914	-0.049426	-0.240449
N19	N	0.355104	-0.049421	-0.242309
C20	C	0.395847	-0.000024	-0.171040
N21	N	0.364786	0.049378	-0.097857
N22	N	0.295589	0.049375	-0.096003
C23	C	0.255377	-0.000029	-0.167272
C24	C	0.511245	0.066355	-0.174137
C25	C	0.584084	0.066355	-0.176071
C26	C	0.584068	-0.066399	-0.176057
C27	C	0.511231	-0.066397	-0.174110
C28	C	0.474824	-0.000018	-0.173156
N29	N	0.825588	-0.189725	-0.169134
C30	C	0.868309	-0.228029	-0.245936
C31	C	0.868320	-0.304673	-0.245933
C32	C	0.825598	-0.343012	-0.169142
C33	C	0.782874	-0.304699	-0.092324
C34	C	0.782869	-0.228055	-0.092320
N35	N	0.764429	-0.463362	-0.166014
N36	N	0.764436	-0.536170	-0.166025
C37	C	0.825612	-0.573934	-0.169146
N38	N	0.886782	-0.536139	-0.172282
N39	N	0.886774	-0.463325	-0.172277
C40	C	0.825599	-0.426119	-0.169137
C41	C	0.868349	-0.695345	-0.245949
C42	C	0.868362	-0.771991	-0.245936
C43	C	0.782909	-0.772015	-0.092334
C44	C	0.782903	-0.695370	-0.092340
C45	C	0.825622	-0.657040	-0.169154
C46	C	0.953211	-0.000027	-0.159169
C47	C	1.030730	-0.000025	-0.161244
C48	C	0.829551	-0.000024	0.062953
C49	C	0.827471	-0.000020	0.203855
N50	N	0.825640	0.189676	-0.169143
C51	C	0.821671	-0.000023	-0.401240
C52	C	0.823751	-0.000022	-0.542142
C53	C	0.747770	0.000255	0.385527
C54	C	0.749879	-0.000019	0.238955
C55	C	0.864802	-0.069554	0.266338
C56	C	0.862154	-0.069612	0.412824
C57	C	0.863753	0.068854	0.413371
C58	C	0.864467	0.069773	0.266405
H59	H	0.613736	0.120405	-0.176870
N60	N	0.474036	-0.134202	-0.173097
N61	N	0.506554	-0.193459	-0.173960
H62	H	0.480286	-0.241350	-0.173240
N63	N	0.739214	-0.188927	-0.013889
N64	N	0.693295	-0.146172	-0.063666
H65	H	0.662461	-0.118536	-0.008276
N66	N	0.029966	0.134150	-0.161219
N67	N	-0.004676	0.148963	-0.070668
H68	H	-0.030937	0.196850	-0.069941
N69	N	0.474062	0.134162	-0.173154
N70	N	0.506593	0.193420	-0.174025
H71	H	0.480335	0.241310	-0.173330
H72	H	0.903109	-0.335866	-0.308478
N73	N	0.912008	-0.656189	-0.324367
N74	N	0.976994	-0.664736	-0.308844
H75	H	1.007833	-0.637081	-0.364216
H76	H	0.838855	-0.121296	0.223170
H77	H	0.169644	0.120398	-0.164995
N78	N	0.177175	-0.134194	-0.165136
N79	N	0.242206	-0.134185	-0.166882
H80	H	0.268482	-0.182065	-0.167570
H81	H	0.613715	-0.120441	-0.176845
H82	H	0.903156	-0.803177	-0.308474
N83	N	0.739264	-0.656230	-0.013898
N84	N	0.766106	-0.613459	0.070148
H85	H	0.735285	-0.585815	0.125553
H86	H	0.720504	0.049826	0.195703
H87	H	0.717127	0.050119	0.413450
N88	N	0.911937	-0.188888	-0.324424
N89	N	0.950072	-0.223103	-0.393006
H90	H	0.980882	-0.195459	-0.448447
H91	H	0.748090	-0.335919	-0.029799
H92	H	0.037485	-0.120453	-0.161394
H93	H	0.838648	0.121556	0.444369
N94	N	0.739277	-0.811178	-0.013893
N95	N	0.739288	-0.879609	-0.013903
H96	H	0.708472	-0.907273	0.041501
H97	H	0.837153	0.121212	0.224943
H98	H	0.834549	-0.121588	0.440419
N99	N	0.932157	-0.073595	0.474536
N100	N	0.970145	-0.127080	0.454708
H101	H	1.019584	-0.129899	0.498287
H102	H	0.921039	0.073970	0.243429
N103	N	0.709470	-0.061945	0.422590
N104	N	0.737890	-0.106478	0.502043
H105	H	0.710842	-0.150409	0.528224
H106	H	0.720283	-0.049944	0.196550
H107	H	0.921783	-0.072141	0.245239
N108	N	0.934062	0.069425	0.474152
N109	N	0.954702	0.019380	0.549922
H110	H	1.004357	0.019776	0.592849
