data_functionalizedCrystal
_audit_creation_method	'MofGen! by Chris Wilmer'
_symmetry_space_group_name_H-M	'P1'
_symmetry_Int_Tables_number	1
_symmetry_cell_setting	triclinic
loop_
_symmetry_equiv_pos_as_xyz
  x,y,z
_cell_length_a	13.032721
_cell_length_b	13.032831
_cell_length_c	11.169409
_cell_angle_alpha	82.804574
_cell_angle_beta	97.146003
_cell_angle_gamma	90.902885
loop_
_atom_site_label
_atom_site_type_symbol
_atom_site_fract_x
_atom_site_fract_y
_atom_site_fract_z
Zn1	Zn	-0.609291	1.520321	-0.988812
Zn2	Zn	-0.781285	1.498349	-0.809996
Zn3	Zn	-0.587479	1.348321	-0.759912
Zn4	Zn	-0.759339	1.326469	-0.982404
O5	O	-0.684348	1.423365	-0.885281
O6	O	-0.650420	1.661321	-0.988734
O7	O	-0.755632	1.478397	-0.635403
O8	O	-0.446468	1.389478	-0.771997
O9	O	-0.776783	1.645178	-0.857358
O10	O	-0.462494	1.515845	-0.940169
O11	O	-0.613243	1.368172	-0.598607
O12	O	-0.591963	1.201507	-0.765784
O13	O	-0.739379	1.352234	-1.151203
O14	O	-0.718228	1.185452	-0.929248
O15	O	-0.629139	1.494656	-1.155911
O16	O	-0.922277	1.457208	-0.851145
O17	O	-0.906154	1.330928	-0.977813
C18	C	-0.650348	1.156164	-0.841387
C19	C	-0.635827	1.041851	-0.822640
C20	C	-0.691927	0.982958	-0.895065
C21	C	-0.676920	0.864810	-0.875691
C22	C	-0.951532	1.389340	-0.919249
C23	C	-1.065846	1.374879	-0.933836
C24	C	-1.124761	1.430967	-0.877731
C25	C	-1.242911	1.416022	-0.892806
C26	C	-0.416125	1.457550	-0.851211
C27	C	-0.301824	1.472118	-0.836693
C28	C	-0.684244	1.423458	-1.198322
C29	C	-0.684200	1.423498	-1.331722
C30	C	-0.718482	1.691609	-0.929348
C31	C	-0.733028	1.805918	-0.948126
C32	C	-0.684385	1.423340	-0.573458
C33	C	-0.684165	1.423536	-0.440055
H34	H	-0.792165	0.842961	-1.024486
H35	H	-0.751062	1.020007	-0.971417
C36	C	-1.252267	1.550817	-0.757756
C37	C	-1.144930	1.549972	-0.758459
C38	C	-1.099243	1.622444	-0.685745
H39	H	-1.278420	1.617772	-0.788862
H40	H	-1.267921	1.533582	-0.676834
H41	H	-1.129283	1.567214	-0.839365
H42	H	-1.118748	1.483035	-0.727343
H43	H	-1.114897	1.605208	-0.604822
H44	H	-1.125403	1.689393	-0.716857
H45	H	-1.026409	1.621873	-0.686203
H46	H	-1.102877	1.315799	-0.993037
C47	C	-1.292461	1.337249	-0.971644
C48	C	-1.399794	1.338062	-0.970892
C49	C	-1.445473	1.265504	-1.043489
H50	H	-1.276861	1.354396	-1.052585
H51	H	-1.266249	1.270322	-0.940441
H52	H	-1.425997	1.404974	-1.002100
H53	H	-1.415424	1.320903	-0.889970
H54	H	-1.419261	1.198576	-1.012286
H55	H	-1.429866	1.282657	-1.124425
H56	H	-1.518302	1.266038	-1.042979
H57	H	-0.617773	0.827767	-0.799342
C58	C	-0.557070	0.992262	-0.720850
C59	C	-0.557876	0.884930	-0.721837
C60	C	-0.485353	0.839216	-0.628068
H61	H	-0.490143	1.018489	-0.732502
H62	H	-0.574269	1.007820	-0.644911
H63	H	-0.540671	0.869380	-0.797758
H64	H	-0.624786	0.858675	-0.710170
H65	H	-0.502552	0.854774	-0.552129
H66	H	-0.418431	0.865451	-0.639728
H67	H	-0.485897	0.766387	-0.628718
H68	H	-1.087734	1.490056	-0.818541
