data_functionalizedCrystal
_audit_creation_method	'MofGen! by Chris Wilmer'
_symmetry_space_group_name_H-M	'P1'
_symmetry_Int_Tables_number	1
_symmetry_cell_setting	triclinic
loop_
_symmetry_equiv_pos_as_xyz
  x,y,z
_cell_length_a	17.019383
_cell_length_b	16.098524
_cell_length_c	16.109301
_cell_angle_alpha	86.933289
_cell_angle_beta	96.569407
_cell_angle_gamma	96.939080
loop_
_atom_site_label
_atom_site_type_symbol
_atom_site_fract_x
_atom_site_fract_y
_atom_site_fract_z
O1	O	1.053217	0.144720	-0.112909
O2	O	1.553217	0.644720	0.387091
O3	O	0.822801	0.128213	-0.125613
O4	O	1.322801	0.628213	0.374387
O5	O	0.944338	0.136912	0.001754
O6	O	1.444338	0.636912	0.501754
O7	O	0.931680	0.136022	-0.240276
O8	O	1.431680	0.636022	0.259724
O9	O	0.938011	-0.002056	0.008409
O10	O	1.438011	0.497944	0.508409
O11	O	0.816474	-0.010754	-0.118958
O12	O	1.316474	0.489246	0.381042
O13	O	1.046890	0.005753	-0.106254
O14	O	1.546890	0.505753	0.393746
Zn15	Zn	0.930678	-0.024565	-0.111549
Zn16	Zn	1.430678	0.475435	0.388451
Zn17	Zn	0.939014	0.158531	-0.120318
Zn18	Zn	1.439014	0.658531	0.379682
O19	O	0.925353	-0.002945	-0.233621
O20	O	1.425353	0.497055	0.266379
C21	C	0.790153	0.056617	-0.121670
C22	C	1.290153	0.556617	0.378330
C23	C	0.702298	0.050323	-0.119828
C24	C	1.202298	0.550323	0.380172
C25	C	0.664465	0.123111	-0.122592
C26	C	1.164465	0.623111	0.377408
C27	C	0.581914	0.117185	-0.120873
C28	C	1.081914	0.617185	0.379127
C29	C	0.537198	0.038470	-0.116385
C30	C	1.037198	0.538470	0.383615
C31	C	0.575036	-0.034323	-0.113623
C32	C	1.075036	0.465677	0.386377
C33	C	0.657585	-0.028396	-0.115348
C34	C	1.157585	0.471604	0.384652
C35	C	0.287781	0.016784	-0.111002
C36	C	0.787781	0.516784	0.388998
C37	C	0.205226	0.010862	-0.109276
C38	C	0.705226	0.510862	0.390724
C39	C	0.212109	0.162371	-0.116527
C40	C	0.712109	0.662371	0.383473
C41	C	0.294660	0.168291	-0.118246
C42	C	0.794660	0.668291	0.381754
C43	C	0.332491	0.095498	-0.115489
C44	C	0.832491	0.595498	0.384511
C45	C	0.452818	0.032410	-0.114626
C46	C	0.952818	0.532410	0.385374
C47	C	0.416869	0.101558	-0.117254
C48	C	0.916869	0.601558	0.382746
N49	N	0.924994	-0.149522	-0.105564
N50	N	1.424994	0.350478	0.394436
C51	C	0.970989	-0.189805	-0.154038
C52	C	1.470989	0.310195	0.345962
C53	C	0.967024	-0.277278	-0.149846
C54	C	1.467024	0.222722	0.350154
C55	C	0.917059	-0.324468	-0.097184
C56	C	1.417059	0.175532	0.402816
C57	C	0.871063	-0.284179	-0.048705
C58	C	1.371063	0.215821	0.451295
C59	C	0.875032	-0.196706	-0.052893
C60	C	1.375032	0.303294	0.447107
C61	C	0.902676	-0.588750	-0.082005
C62	C	1.402676	-0.088750	0.417995
C63	C	0.898708	-0.676229	-0.077822
C64	C	1.398708	-0.176229	0.422178
C65	C	0.994671	-0.669322	-0.178962
C66	C	1.494671	-0.169322	0.321038
C67	C	0.998633	-0.581849	-0.183150
C68	C	1.498633	-0.081849	0.316850
C69	C	0.952640	-0.541567	-0.134667
C70	C	1.452640	-0.041567	0.365333
C71	C	0.913003	-0.413880	-0.092900
C72	C	1.413003	0.086120	0.407100
C73	C	0.956700	-0.452156	-0.138948
C74	C	1.456700	0.047844	0.361052
C75	C	1.079538	0.077351	-0.110197
C76	C	1.579538	0.577351	0.389803
C77	C	1.167393	0.083650	-0.112039
C78	C	1.667393	0.583650	0.387961
C79	C	0.940662	0.067391	0.036058
C80	C	1.440662	0.567391	0.536058
C81	C	0.939125	0.067280	0.128357
C82	C	1.439125	0.567280	0.628357
N83	N	0.944703	0.283488	-0.126296
N84	N	1.444703	0.783488	0.373704
C85	C	0.929029	0.066577	-0.267925
C86	C	1.429029	0.566577	0.232075
C87	C	0.930567	0.066694	-0.360224
C88	C	1.430567	0.566694	0.139776
C89	C	1.007668	0.072203	0.350452
C90	C	1.507668	0.572203	0.850452
C91	C	1.006218	0.072106	0.437175
C92	C	1.506218	0.572106	0.937175
C93	C	0.862018	0.061772	0.417674
C94	C	1.362018	0.561772	0.917674
C95	C	0.863469	0.061876	0.330952
C96	C	1.363469	0.561876	0.830952
C97	C	0.936297	0.067087	0.297343
C98	C	1.436297	0.567087	0.797343
C99	C	0.933395	0.066887	0.470790
C100	C	1.433395	0.566887	0.970790
C101	C	0.931822	0.066781	0.564819
C102	C	1.431822	0.566781	1.064819
C103	C	0.937870	0.067194	0.203307
C104	C	1.437870	0.567194	0.703307
H105	H	0.181298	0.221635	-0.118774
H106	H	0.681298	0.721635	0.381226
C107	C	1.084733	0.077727	0.495592
C108	C	1.584733	0.577727	0.995592
N109	N	1.143873	0.081959	0.539591
N110	N	1.643873	0.581959	1.039591
H111	H	0.997384	-0.413730	-0.181822
H112	H	1.497384	0.086270	0.318178
H113	H	0.805346	0.057711	0.287708
H114	H	1.305346	0.557711	0.787708
C115	C	1.087781	0.077945	0.313485
C116	C	1.587781	0.577945	0.813485
N117	N	1.148125	0.082274	0.285644
N118	N	1.648125	0.582274	0.785644
C119	C	1.053604	-0.529946	-0.241076
C120	C	1.553604	-0.029946	0.258924
N121	N	1.095008	-0.490853	-0.284707
N122	N	1.595008	0.009147	0.215293
C123	C	0.540303	0.197258	-0.123902
C124	C	1.040303	0.697258	0.376098
N125	N	0.508963	0.257573	-0.126180
N126	N	1.008963	0.757573	0.373820
H127	H	0.802724	0.057528	0.445049
H128	H	1.302724	0.557528	0.945049
C129	C	0.699201	-0.108469	-0.112305
C130	C	1.199201	0.391531	0.387695
N131	N	0.730545	-0.168782	-0.110014
N132	N	1.230545	0.331218	0.389986
C133	C	0.156041	-0.075734	-0.104335
C134	C	0.656041	0.424266	0.395665
N135	N	0.118994	-0.140955	-0.100611
N136	N	0.618994	0.359045	0.399389
H137	H	0.700867	0.187209	-0.126244
H138	H	1.200867	0.687209	0.373756
C139	C	0.329385	-0.063292	-0.107960
C140	C	0.829385	0.436708	0.392040
N141	N	0.360724	-0.123609	-0.105665
N142	N	0.860724	0.376391	0.394335
H143	H	0.538622	-0.098415	-0.109974
H144	H	1.038622	0.401585	0.390026
H145	H	1.032117	-0.702129	-0.218433
H146	H	1.532117	-0.202129	0.281567
H147	H	0.331063	0.232389	-0.121895
H148	H	0.831063	0.732389	0.378105
H149	H	0.872321	-0.452311	-0.050023
H150	H	1.372321	0.047689	0.449977
C151	C	1.025955	-0.137904	-0.211970
C152	C	1.525955	0.362096	0.288030
N153	N	1.067360	-0.098814	-0.255603
N154	N	1.567360	0.401186	0.244397
H155	H	0.416401	-0.031680	-0.110969
H156	H	0.916401	0.468320	0.389031
C157	C	1.017591	-0.321588	-0.203204
C158	C	1.517591	0.178412	0.296796
N159	N	1.055670	-0.354961	-0.243408
N160	N	1.555670	0.145039	0.256592
C161	C	0.843748	-0.728135	-0.019880
C162	C	1.343748	-0.228135	0.480120
N163	N	0.802355	-0.767231	0.023761
N164	N	1.302355	-0.267231	0.523761
H165	H	0.453279	0.165648	-0.120913
H166	H	0.953279	0.665648	0.379087
H167	H	0.865225	-0.555964	-0.042527
H168	H	1.365225	-0.055964	0.457473
C169	C	0.824432	-0.152396	0.000430
C170	C	1.324432	0.347604	0.500430
N171	N	0.786320	-0.119023	0.040596
N172	N	1.286320	0.380977	0.540596
C173	C	0.816099	-0.336091	0.009222
C174	C	1.316099	0.163909	0.509222
N175	N	0.774696	-0.375190	0.052850
N176	N	1.274696	0.124810	0.552850
