data_functionalizedCrystal
_audit_creation_method	'MofGen! by Chris Wilmer'
_symmetry_space_group_name_H-M	'P1'
_symmetry_Int_Tables_number	1
_symmetry_cell_setting	triclinic
loop_
_symmetry_equiv_pos_as_xyz
  x,y,z
_cell_length_a	19.288864
_cell_length_b	10.065875
_cell_length_c	19.288865
_cell_angle_alpha	81.246539
_cell_angle_beta	83.136245
_cell_angle_gamma	98.729957
loop_
_atom_site_label
_atom_site_type_symbol
_atom_site_fract_x
_atom_site_fract_y
_atom_site_fract_z
O1	O	0.931584	0.113949	0.076365
O2	O	0.729315	0.113858	0.088062
O3	O	0.836292	0.113879	-0.018915
O4	O	0.824607	0.113928	0.183341
O5	O	0.815893	-0.113113	0.001566
O6	O	0.708916	-0.113134	0.108542
O7	O	0.911185	-0.113043	0.096845
Zn8	Zn	0.806812	-0.149129	0.105946
Zn9	Zn	0.833688	0.149944	0.078962
O10	O	0.804208	-0.113064	0.203822
C11	C	0.693238	0.000350	0.097927
C12	C	0.616131	0.000314	0.096801
N13	N	0.788474	-0.353238	0.124361
C14	C	0.571438	0.000350	0.159566
C15	C	0.498992	0.000365	0.158504
C16	C	0.471245	0.000371	0.094671
C17	C	0.515948	0.000327	0.031899
C18	C	0.588390	0.000298	0.032964
C19	C	0.370133	0.079930	0.037314
C20	C	0.297692	0.079967	0.036251
C21	C	0.247807	0.000453	0.091384
C22	C	0.270372	-0.079081	0.147591
C23	C	0.342815	-0.079110	0.148656
C24	C	0.392694	0.000401	0.093509
C25	C	0.124559	0.000503	0.153002
C26	C	0.052112	0.000510	0.151938
C27	C	0.069070	0.000485	0.025330
C28	C	0.141515	0.000465	0.026397
C29	C	0.169255	0.000481	0.090234
C30	C	0.827304	-0.421009	0.085365
C31	C	0.813196	-0.578179	0.099543
C32	C	0.947262	0.000468	0.086980
C33	C	1.024370	0.000513	0.088105
C34	C	0.825716	0.000379	-0.034551
C35	C	0.824586	0.000366	-0.111653
N36	N	0.852032	0.354053	0.060541
C37	C	0.887355	0.000388	-0.156351
C38	C	0.886297	0.000409	-0.228800
C39	C	0.822462	0.000381	-0.256545
C40	C	0.759685	0.000367	-0.211838
C41	C	0.760746	0.000360	-0.139392
C42	C	0.765135	-0.079152	-0.357657
C43	C	0.764075	-0.079153	-0.430101
C44	C	0.819185	0.000410	-0.479993
C45	C	0.875365	0.079957	-0.457433
C46	C	0.876427	0.079950	-0.384986
C47	C	0.821304	0.000390	-0.335100
C48	C	0.880811	0.000457	-0.603250
C49	C	0.879751	0.000486	-0.675701
C50	C	0.753135	0.000431	-0.658735
C51	C	0.754199	0.000415	-0.586288
C52	C	0.818038	0.000421	-0.558549
C53	C	0.814785	0.000439	0.219458
C54	C	0.815915	0.000461	0.296559
H55	H	0.594020	0.000366	0.211547
N56	N	0.947456	0.000515	-0.723916
H57	H	0.988055	0.000514	-0.695347
H58	H	0.942205	-0.083628	-0.746760
H59	H	0.015722	0.000532	0.203051
N60	N	0.703480	-0.164949	-0.454423
H61	H	0.678684	-0.104041	-0.485976
H62	H	0.722481	-0.232945	-0.481732
N63	N	0.216576	-0.164871	0.207054
H64	H	0.241863	-0.215260	0.242819
H65	H	0.188018	-0.103869	0.230895
N66	N	0.909910	-0.568705	0.002409
H67	H	0.899712	-0.593524	-0.044603
H68	H	0.911760	-0.467402	0.000581
N69	N	0.885170	-0.343727	0.027236
H70	H	0.932273	-0.368464	0.037184
H71	H	0.874909	-0.368566	-0.019753
H72	H	0.361184	-0.143873	0.194420
H73	H	0.624780	0.000269	-0.018148
N74	N	0.039152	0.000475	-0.043519
H75	H	-0.013523	0.000494	-0.034670
H76	H	0.063096	0.084612	-0.078569
N77	N	0.949663	0.000466	-0.573328
H78	H	0.940810	0.000440	-0.520648
H79	H	0.969552	-0.083674	-0.582116
N80	N	0.953996	0.000425	-0.277027
H81	H	0.989427	0.084574	-0.275716
H82	H	0.974230	-0.083774	-0.260516
H83	H	0.177906	0.000442	-0.024714
N84	N	0.690831	0.000335	-0.241752
H85	H	0.695129	0.084480	-0.279018
H86	H	0.680040	-0.083869	-0.263806
N87	N	0.154482	0.000511	0.221853
H88	H	0.130591	-0.083628	0.256933
H89	H	0.207157	0.000550	0.212942
H90	H	0.701161	0.000415	-0.681325
H91	H	0.462596	0.000391	0.209616
H92	H	0.703084	0.000390	-0.549892
N93	N	0.705689	-0.164964	-0.303847
H94	H	0.669942	-0.215361	-0.329130
H95	H	0.725584	-0.232882	-0.271090
H96	H	0.769502	-0.636509	0.143426
H97	H	0.744783	-0.411573	0.168242
H98	H	0.279326	0.144734	-0.009514
N99	N	0.423935	0.165693	-0.022157
H100	H	0.398650	0.216088	-0.057920
H101	H	0.456688	0.233612	-0.002283
N102	N	0.486024	0.000316	-0.036949
H103	H	0.433350	0.000341	-0.028100
H104	H	0.509970	0.084449	-0.072001
N105	N	0.956207	0.000398	-0.126433
H106	H	0.995812	0.000415	-0.165747
H107	H	0.966971	0.084545	-0.104329
H108	H	0.922169	0.144722	-0.366621
N109	N	0.693038	0.000305	-0.091175
H110	H	0.703396	0.000294	-0.041071
H111	H	0.672765	0.084441	-0.107712
N112	N	0.934813	0.165775	-0.511234
H113	H	0.925616	0.153719	-0.560552
H114	H	0.937419	0.264964	-0.506637
