data_functionalizedCrystal
_audit_creation_method	'MofGen! by Chris Wilmer'
_symmetry_space_group_name_H-M	'P1'
_symmetry_Int_Tables_number	1
_symmetry_cell_setting	triclinic
loop_
_symmetry_equiv_pos_as_xyz
  x,y,z
_cell_length_a	25.639239
_cell_length_b	21.395364
_cell_length_c	21.395355
_cell_angle_alpha	89.974702
_cell_angle_beta	90.019334
_cell_angle_gamma	89.944613
loop_
_atom_site_label
_atom_site_type_symbol
_atom_site_fract_x
_atom_site_fract_y
_atom_site_fract_z
Zn1	Zn	-0.207978	-0.957825	0.354270
Zn2	Zn	0.125355	-0.624491	0.687604
Zn3	Zn	0.458688	-0.291158	1.020937
Zn4	Zn	-0.295398	-0.957712	0.249491
Zn5	Zn	0.037935	-0.624379	0.582825
Zn6	Zn	0.371269	-0.291046	0.916158
Zn7	Zn	-0.208004	-0.853040	0.249506
Zn8	Zn	0.125329	-0.519706	0.582839
Zn9	Zn	0.458663	-0.186373	0.916172
Zn10	Zn	-0.295410	-0.852994	0.354230
Zn11	Zn	0.037923	-0.519661	0.687564
Zn12	Zn	0.371257	-0.186327	1.020897
O13	O	-0.251698	-0.905393	0.301874
O14	O	0.081636	-0.572059	0.635208
O15	O	0.414969	-0.238726	0.968541
O16	O	-0.219559	-1.045488	0.340382
O17	O	0.113774	-0.712154	0.673715
O18	O	0.447108	-0.378821	1.007049
O19	O	-0.283811	-0.943799	0.161815
O20	O	0.049523	-0.610466	0.495149
O21	O	0.382856	-0.277133	0.828482
O22	O	-0.134835	-0.867005	0.263426
O23	O	0.198498	-0.533672	0.596759
O24	O	0.531831	-0.200339	0.930092
O25	O	-0.283786	-1.045405	0.263401
O26	O	0.049547	-0.712072	0.596735
O27	O	0.382881	-0.378739	0.930068
O28	O	-0.134817	-0.943990	0.340396
O29	O	0.198517	-0.610657	0.673729
O30	O	0.531850	-0.277324	1.007063
O31	O	-0.219603	-0.866897	0.161826
O32	O	0.113731	-0.533563	0.495159
O33	O	0.447064	-0.200230	0.828493
O34	O	-0.219614	-0.765356	0.263387
O35	O	0.113719	-0.432022	0.596720
O36	O	0.447052	-0.098689	0.930054
O37	O	-0.283806	-0.866928	0.441913
O38	O	0.049527	-0.533595	0.775247
O39	O	0.382860	-0.200261	1.108580
O40	O	-0.283831	-0.765322	0.340327
O41	O	0.049502	-0.431989	0.673661
O42	O	0.382835	-0.098656	1.006994
O43	O	-0.219571	-0.943946	0.441943
O44	O	0.113763	-0.610613	0.775276
O45	O	0.447096	-0.277280	1.108610
O46	O	-0.368565	-0.943755	0.263362
O47	O	-0.035232	-0.610422	0.596696
O48	O	0.298102	-0.277089	0.930029
O49	O	-0.368574	-0.866819	0.340314
O50	O	-0.035240	-0.533486	0.673647
O51	O	0.298093	-0.200153	1.006980
C52	C	-0.251727	-0.742605	0.301855
C53	C	0.081606	-0.409272	0.635188
C54	C	0.414939	-0.075938	0.968521
C55	C	-0.251752	-0.672964	0.301861
C56	C	0.081581	-0.339630	0.635194
C57	C	0.414914	-0.006297	0.968528
C58	C	-0.218365	-0.640316	0.342006
C59	C	0.114968	-0.306983	0.675340
C60	C	0.448302	0.026351	1.008673
C61	C	-0.218353	-0.574880	0.342008
C62	C	0.114980	-0.241547	0.675341
C63	C	0.448314	0.091786	1.008675
C64	C	-0.251737	-0.542095	0.301871
C65	C	0.081596	-0.208762	0.635204
C66	C	0.414929	0.124571	0.968538
C67	C	-0.285127	-0.574751	0.261718
C68	C	0.048206	-0.241418	0.595051
C69	C	0.381540	0.091915	0.928384
C70	C	-0.285135	-0.640185	0.261713
C71	C	0.048199	-0.306852	0.595046
C72	C	0.381532	0.026481	0.928380
C73	C	-0.298825	-0.438363	0.296831
C74	C	0.034508	-0.105030	0.630164
C75	C	0.367842	0.228303	0.963498
C76	C	-0.298818	-0.372930	0.296840
C77	C	0.034515	-0.039597	0.630174
C78	C	0.367848	0.293736	0.963507
C79	C	-0.251714	-0.340275	0.301882
C80	C	0.081620	-0.006941	0.635215
C81	C	0.414953	0.326392	0.968549
C82	C	-0.204614	-0.373060	0.306928
C83	C	0.128719	-0.039727	0.640261
C84	C	0.462052	0.293607	0.973595
C85	C	-0.204622	-0.438494	0.306923
C86	C	0.128712	-0.105161	0.640256
C87	C	0.462045	0.228172	0.973590
C88	C	-0.251733	-0.471143	0.301871
C89	C	0.081601	-0.137810	0.635205
C90	C	0.414934	0.195524	0.968538
C91	C	-0.218310	-0.236674	0.342031
C92	C	0.115023	0.096659	0.675365
C93	C	0.448356	0.429992	1.008698
C94	C	-0.218297	-0.171238	0.342029
C95	C	0.115036	0.162096	0.675362
C96	C	0.448370	0.495429	1.008695
C97	C	-0.285076	-0.171110	0.261741
C98	C	0.048257	0.162224	0.595075
C99	C	0.381591	0.495557	0.928408
C100	C	-0.285084	-0.236545	0.261741
C101	C	0.048249	0.096788	0.595074
C102	C	0.381582	0.430122	0.928408
C103	C	-0.251702	-0.269323	0.301889
C104	C	0.081631	0.064010	0.635223
C105	C	0.414964	0.397343	0.968556
C106	C	-0.387540	-0.905287	0.301846
C107	C	-0.054207	-0.571954	0.635179
C108	C	0.279126	-0.238621	0.968512
C109	C	-0.445654	-0.905300	0.301854
C110	C	-0.112321	-0.571966	0.635188
C111	C	0.221012	-0.238633	0.968521
C112	C	-0.806000	-0.945558	0.261874
C113	C	-0.472667	-0.612224	0.595208
C114	C	-0.139333	-0.278891	0.928541
C115	C	-0.860604	-0.945582	0.261883
C116	C	-0.527271	-0.612249	0.595216
C117	C	-0.193938	-0.278915	0.928549
O118	O	-0.888827	-0.979702	0.227859
O119	O	-0.555493	-0.646369	0.561192
O120	O	-0.222160	-0.313035	0.894525
N121	N	-0.887937	-0.905503	0.301916
N122	N	-0.554603	-0.572169	0.635249
N123	N	-0.221270	-0.238836	0.968583
C124	C	-0.860662	-0.865401	0.341948
C125	C	-0.527328	-0.532068	0.675281
C126	C	-0.193995	-0.198734	1.008615
O127	O	-0.888924	-0.831313	0.376001
O128	O	-0.555591	-0.497980	0.709334
O129	O	-0.222257	-0.164646	1.042667
C130	C	-0.806058	-0.865380	0.341942
C131	C	-0.472725	-0.532047	0.675276
C132	C	-0.139392	-0.198714	1.008609
C133	C	-0.778729	-0.905458	0.301902
C134	C	-0.445396	-0.572125	0.635235
C135	C	-0.112062	-0.238791	0.968569
C136	C	-0.778671	-0.985633	0.221838
C137	C	-0.445337	-0.652299	0.555171
C138	C	-0.112004	-0.318966	0.888504
C139	C	-0.724070	-0.985607	0.221829
C140	C	-0.390737	-0.652274	0.555162
C141	C	-0.057403	-0.318941	0.888495
C142	C	-0.696799	-0.945507	0.261856
C143	C	-0.363466	-0.612174	0.595189
C144	C	-0.030132	-0.278841	0.928523
C145	C	-0.724129	-0.905433	0.301893
C146	C	-0.390795	-0.572099	0.635226
C147	C	-0.057462	-0.238766	0.968559
C148	C	-0.778785	-0.825282	0.381977
C149	C	-0.445451	-0.491949	0.715310
C150	C	-0.112118	-0.158616	1.048644
C151	C	-0.724178	-0.825265	0.381968
C152	C	-0.390844	-0.491932	0.715302
C153	C	-0.057511	-0.158599	1.048635
C154	C	-0.696848	-0.865343	0.341928
C155	C	-0.363515	-0.532010	0.675261
C156	C	-0.030181	-0.198676	1.008594
C157	C	-0.642257	-0.865307	0.341911
C158	C	-0.308924	-0.531974	0.675245
C159	C	0.024410	-0.198641	1.008578
N160	N	-0.614925	-0.905387	0.301878
N161	N	-0.281591	-0.572053	0.635211
N162	N	0.051742	-0.238720	0.968545
C163	C	-0.642196	-0.945487	0.261850
C164	C	-0.308862	-0.612153	0.595184
C165	C	0.024471	-0.278820	0.928517
C166	C	-0.975332	-0.865448	0.341958
C167	C	-0.641999	-0.532115	0.675291
C168	C	-0.308666	-0.198782	1.008624
C169	C	-1.029935	-0.865465	0.341961
C170	C	-0.696601	-0.532132	0.675294
C171	C	-0.363268	-0.198799	1.008627
C172	C	-1.029874	-0.945647	0.261896
C173	C	-0.696540	-0.612314	0.595229
C174	C	-0.363207	-0.278981	0.928563
C175	C	-0.975270	-0.945627	0.261890
C176	C	-0.641937	-0.612293	0.595224
C177	C	-0.308604	-0.278960	0.928557
C178	C	-0.948000	-0.905528	0.301924
C179	C	-0.614667	-0.572194	0.635258
C180	C	-0.281333	-0.238861	0.968591
C181	C	-0.527531	-0.945430	0.261834
C182	C	-0.194197	-0.612097	0.595167
C183	C	0.139136	-0.278764	0.928501
C184	C	-0.472925	-0.945399	0.261827
C185	C	-0.139592	-0.612066	0.595160
C186	C	0.193741	-0.278733	0.928493
C187	C	-0.472991	-0.865220	0.341894
C188	C	-0.139658	-0.531887	0.675227
C189	C	0.193675	-0.198553	1.008560
C190	C	-0.527592	-0.865248	0.341899
C191	C	-0.194258	-0.531915	0.675232
C192	C	0.139075	-0.198581	1.008565
C193	C	-0.554860	-0.905358	0.301867
C194	C	-0.221527	-0.572025	0.635200
C195	C	0.111806	-0.238692	0.968534
O196	O	-0.614000	-0.831207	0.375920
O197	O	-0.280667	-0.497873	0.709253
O198	O	0.052667	-0.164540	1.042587
O199	O	-0.613927	-0.979575	0.227809
O200	O	-0.280594	-0.646241	0.561143
O201	O	0.052740	-0.312908	0.894476
C202	C	-0.115325	-0.905516	0.301917
C203	C	0.218009	-0.572182	0.635250
C204	C	0.551342	-0.238849	0.968584
C205	C	-0.057210	-0.905568	0.301935
C206	C	0.276123	-0.572235	0.635268
C207	C	0.609456	-0.238901	0.968602
C208	C	-0.251687	-0.905445	0.465298
C209	C	0.081646	-0.572111	0.798631
C210	C	0.414980	-0.238778	1.131964
C211	C	-0.251683	-0.905467	0.534939
C212	C	0.081651	-0.572133	0.868272
C213	C	0.414984	-0.238800	1.201606
C214	C	-0.251675	-0.068816	0.301891
C215	C	0.081659	0.264517	0.635225
C216	C	0.414992	0.597851	0.968558
C217	C	-0.251681	-0.138457	0.301890
C218	C	0.081652	0.194876	0.635223
C219	C	0.414985	0.528209	0.968557
C220	C	-0.251670	-0.905377	0.139087
C221	C	0.081663	-0.572044	0.472420
C222	C	0.414996	-0.238710	0.805754
C223	C	-0.251528	-0.905476	0.069446
C224	C	0.081806	-0.572143	0.402779
C225	C	0.415139	-0.238810	0.736113
C226	C	-0.218234	-0.945569	0.567669
C227	C	0.115100	-0.612235	0.901002
C228	C	0.448433	-0.278902	1.234335
C229	C	-0.218211	-0.945568	0.633104
C230	C	0.115122	-0.612234	0.966437
C231	C	0.448456	-0.278901	1.299771
C232	C	-0.251647	-0.905472	0.665807
C233	C	0.081686	-0.572138	0.999141
C234	C	0.415020	-0.238805	1.332474
C235	C	-0.285098	-0.865362	0.633070
C236	C	0.048235	-0.532029	0.966403
C237	C	0.381568	-0.198695	1.299737
C238	C	-0.285116	-0.865360	0.567636
C239	C	0.048217	-0.532026	0.900969
C240	C	0.381551	-0.198693	1.234303
C241	C	-0.298725	-0.900488	0.769472
C242	C	0.034608	-0.567155	1.102805
C243	C	0.367941	-0.233821	1.436139
C244	C	-0.298708	-0.900495	0.834905
C245	C	0.034625	-0.567161	1.168238
C246	C	0.367958	-0.233828	1.501572
C247	C	-0.251592	-0.905476	0.867628
C248	C	0.081742	-0.572142	1.200962
C249	C	0.415075	-0.238809	1.534295
C250	C	-0.204490	-0.910463	0.834910
C251	C	0.128843	-0.577129	1.168244
C252	C	0.462176	-0.243796	1.501577
C253	C	-0.204508	-0.910460	0.769476
C254	C	0.128825	-0.577127	1.102810
C255	C	0.462159	-0.243794	1.436143
C256	C	-0.251631	-0.905470	0.736760
C257	C	0.081702	-0.572136	1.070093
C258	C	0.415036	-0.238803	1.403427
C259	C	-0.218115	-0.945579	0.971310
C260	C	0.115218	-0.612245	1.304644
C261	C	0.448551	-0.278912	1.637977
C262	C	-0.218092	-0.945573	1.036747
C263	C	0.115241	-0.612240	1.370080
C264	C	0.448575	-0.278907	1.703414
C265	C	-0.284984	-0.865371	1.036712
C266	C	0.048349	-0.532038	1.370045
C267	C	0.381683	-0.198704	1.703378
C268	C	-0.285003	-0.865373	0.971276
C269	C	0.048331	-0.532040	1.304610
C270	C	0.381664	-0.198706	1.637943
C271	C	-0.251569	-0.905480	0.938580
C272	C	0.081764	-0.572147	1.271913
C273	C	0.415098	-0.238813	1.605246
H274	H	-0.191162	-0.548293	0.374698
H275	H	0.142171	-0.214960	0.708032
H276	H	0.475504	0.118373	1.041365
H277	H	-1.052182	-0.832824	0.374560
H278	H	-0.718848	-0.499491	0.707893
H279	H	-0.385515	-0.166158	1.041226
H280	H	-0.701977	-0.792612	0.414571
H281	H	-0.368644	-0.459279	0.747904
H282	H	-0.035310	-0.125946	1.081238
H283	H	-0.800869	-1.018290	0.189242
H284	H	-0.467536	-0.684957	0.522575
H285	H	-0.134202	-0.351624	0.855909
H286	H	-0.953022	-0.978262	0.229286
H287	H	-0.619688	-0.644928	0.562620
H288	H	-0.286355	-0.311595	0.895953
H289	H	-0.801027	-0.792644	0.414579
H290	H	-0.467694	-0.459310	0.747913
H291	H	-0.134360	-0.125977	1.081246
H292	H	-0.166157	-0.914519	0.742840
H293	H	0.167177	-0.581186	1.076173
H294	H	0.500510	-0.247853	1.409507
N295	N	-0.443447	-0.988630	0.218643
N296	N	-0.110114	-0.655297	0.551977
N297	N	0.223220	-0.321964	0.885310
H298	H	-0.452979	-0.978929	0.173868
H299	H	-0.119646	-0.645596	0.507202
H300	H	0.213687	-0.312262	0.840535
H301	H	-0.452909	-1.033378	0.228475
H302	H	-0.119576	-0.700045	0.561809
H303	H	0.213757	-0.366711	0.895142
N304	N	-0.182133	-0.988821	0.668416
N305	N	0.151201	-0.655488	1.001749
N306	N	0.484534	-0.322155	1.335083
H307	H	-0.160955	-1.014227	0.637773
H308	H	0.172378	-0.680894	0.971107
H309	H	0.505711	-0.347561	1.304440
H310	H	-0.203407	-1.017795	0.695575
H311	H	0.129926	-0.684461	1.028909
H312	H	0.463259	-0.351128	1.362242
H313	H	-0.953132	-0.832790	0.374556
H314	H	-0.619798	-0.499456	0.707890
H315	H	-0.286465	-0.166123	1.041223
H316	H	-0.337061	-0.896438	0.861539
H317	H	-0.003728	-0.563104	1.194872
H318	H	0.329605	-0.229771	1.528206
H319	H	-0.450779	-0.832569	0.374482
H320	H	-0.117445	-0.499236	0.707815
H321	H	0.215888	-0.165902	1.041148
N322	N	-0.153664	-0.915828	0.870189
N323	N	0.179670	-0.582495	1.203523
N324	N	0.513003	-0.249162	1.536856
H325	H	-0.135868	-0.956393	0.858821
H326	H	0.197465	-0.623060	1.192154
H327	H	0.530799	-0.289726	1.525487
H328	H	-0.160835	-0.915041	0.916595
H329	H	0.172499	-0.581708	1.249929
H330	H	0.505832	-0.248374	1.583262
N331	N	-0.557073	-0.822017	0.385077
N332	N	-0.223739	-0.488683	0.718410
N333	N	0.109594	-0.155350	1.051743
H334	H	-0.531509	-0.796608	0.410431
H335	H	-0.198175	-0.463275	0.743764
H336	H	0.135158	-0.129941	1.077097
H337	H	-0.579685	-0.847518	0.414102
H338	H	-0.246351	-0.514185	0.747435
H339	H	0.086982	-0.180851	1.080769
N340	N	-0.349548	-0.895124	0.734181
N341	N	-0.016215	-0.561790	1.067514
N342	N	0.317119	-0.228457	1.400847
H343	H	-0.379383	-0.891974	0.764834
H344	H	-0.046050	-0.558641	1.098168
H345	H	0.287284	-0.225308	1.431501
H346	H	-0.354396	-0.933299	0.707052
H347	H	-0.021063	-0.599965	1.040385
H348	H	0.312271	-0.266632	1.373718
H349	H	-0.191009	-0.978226	0.541051
H350	H	0.142325	-0.644893	0.874384
H351	H	0.475658	-0.311560	1.207718
H352	H	-0.337186	-0.464946	0.292725
H353	H	-0.003853	-0.131613	0.626058
H354	H	0.329481	0.201721	0.959392
N355	N	-0.182056	-0.988832	0.936039
N356	N	0.151277	-0.655499	1.269372
N357	N	0.484611	-0.322165	1.602705
H358	H	-0.160859	-1.014234	0.966705
H359	H	0.172474	-0.680900	1.300038
H360	H	0.505808	-0.347567	1.633371
H361	H	-0.157874	-0.963350	0.908877
H362	H	0.175460	-0.630016	1.242210
H363	H	0.508793	-0.296683	1.575543
H364	H	-0.190851	-0.978228	1.063394
H365	H	0.142482	-0.644895	1.396728
H366	H	0.475816	-0.311561	1.730061
H367	H	-0.312203	-0.832718	1.063338
H368	H	0.021131	-0.499384	1.396672
H369	H	0.354464	-0.166051	1.730005
H370	H	-0.191182	-0.667000	0.374698
H371	H	0.142151	-0.333667	0.708031
H372	H	0.475484	-0.000333	1.041365
N373	N	-0.153827	-0.473857	0.312362
N374	N	0.179507	-0.140524	0.645695
N375	N	0.512840	0.192810	0.979028
H376	H	-0.123983	-0.443246	0.315557
H377	H	0.209351	-0.109912	0.648890
H378	H	0.542684	0.223421	0.982224
H379	H	-0.148931	-0.500992	0.274194
H380	H	0.184403	-0.167659	0.607527
H381	H	0.517736	0.165675	0.940861
N382	N	-0.321196	-0.822112	0.532323
N383	N	0.012138	-0.488779	0.865657
N384	N	0.345471	-0.155446	1.198990
H385	H	-0.299957	-0.793100	0.505162
H386	H	0.033376	-0.459767	0.838495
H387	H	0.366709	-0.126433	1.171828
H388	H	-0.342369	-0.796747	0.563001
H389	H	-0.009036	-0.463414	0.896334
H390	H	0.324298	-0.130081	1.229667
H391	H	-0.166257	-0.346473	0.311034
H392	H	0.167076	-0.013140	0.644367
H393	H	0.500410	0.320193	0.977700
H394	H	-0.312324	-0.666767	0.229021
H395	H	0.021010	-0.333434	0.562354
H396	H	0.354343	-0.000100	0.895687
H397	H	-0.701822	-1.018244	0.189226
H398	H	-0.368488	-0.684910	0.522559
H399	H	-0.035155	-0.351577	0.855893
N400	N	-0.321072	-0.822110	0.935970
N401	N	0.012262	-0.488777	1.269304
N402	N	0.345595	-0.155443	1.602637
H403	H	-0.342247	-0.796704	0.966615
H404	H	-0.008914	-0.463371	1.299948
H405	H	0.324420	-0.130038	1.633282
H406	H	-0.345274	-0.847579	0.908824
H407	H	-0.011941	-0.514245	1.242157
H408	H	0.321393	-0.180912	1.575491
N409	N	-0.556937	-0.988691	0.218659
N410	N	-0.223604	-0.655358	0.551992
N411	N	0.109730	-0.322024	0.885325
H412	H	-0.531332	-1.014070	0.193297
H413	H	-0.197998	-0.680737	0.526630
H414	H	0.135335	-0.347403	0.859964
H415	H	-0.579631	-0.963212	0.189641
H416	H	-0.246298	-0.629879	0.522974
H417	H	0.087036	-0.296546	0.856308
H418	H	-0.191125	-0.263364	0.374718
H419	H	0.142208	0.069969	0.708052
H420	H	0.475541	0.403303	1.041385
N421	N	-1.059293	-0.988900	0.218721
N422	N	-0.725959	-0.655566	0.552055
N423	N	-0.392626	-0.322233	0.885388
H424	H	-1.098030	-0.982829	0.224805
H425	H	-0.764696	-0.649496	0.558139
H426	H	-0.431363	-0.316163	0.891472
H427	H	-1.049698	-1.033639	0.228514
H428	H	-0.716365	-0.700306	0.561847
H429	H	-0.383031	-0.366972	0.895181
N430	N	-0.321153	-0.822105	0.668338
N431	N	0.012180	-0.488772	1.001672
N432	N	0.345513	-0.155438	1.335005
H433	H	-0.316066	-0.828190	0.714758
H434	H	0.017268	-0.494857	1.048091
H435	H	0.350601	-0.161523	1.381424
H436	H	-0.358498	-0.831813	0.656907
H437	H	-0.025165	-0.498480	0.990241
H438	H	0.308169	-0.165146	1.323574
H439	H	-0.191106	-0.144657	0.374719
H440	H	0.142227	0.188676	0.708052
H441	H	0.475561	0.522010	1.041385
H442	H	-0.312258	-0.144417	0.229061
H443	H	0.021075	0.188917	0.562394
H444	H	0.354409	0.522250	0.895727
H445	H	-0.337170	-0.346241	0.292735
H446	H	-0.003836	-0.012908	0.626068
H447	H	0.329497	0.320425	0.959401
N448	N	-0.321096	-0.271763	0.218442
N449	N	0.012238	0.061570	0.551775
N450	N	0.345571	0.394903	0.885108
H451	H	-0.342243	-0.241067	0.193014
H452	H	-0.008910	0.092266	0.526347
H453	H	0.324423	0.425600	0.859680
H454	H	-0.345327	-0.298894	0.243890
H455	H	-0.011993	0.034439	0.577223
H456	H	0.321340	0.367772	0.910556
H457	H	-0.312308	-0.548053	0.229037
H458	H	0.021025	-0.214720	0.562371
H459	H	0.354358	0.118613	0.895704
