data_functionalizedCrystal
_audit_creation_method	'MofGen! by Chris Wilmer'
_symmetry_space_group_name_H-M	'P1'
_symmetry_Int_Tables_number	1
_symmetry_cell_setting	triclinic
loop_
_symmetry_equiv_pos_as_xyz
  x,y,z
_cell_length_a	13.032721
_cell_length_b	18.215407
_cell_length_c	18.215399
_cell_angle_alpha	90.018561
_cell_angle_beta	97.154738
_cell_angle_gamma	82.803795
loop_
_atom_site_label
_atom_site_type_symbol
_atom_site_fract_x
_atom_site_fract_y
_atom_site_fract_z
Zn1	Zn	-0.416276	-1.087860	-0.453317
Zn2	Zn	-0.082943	-0.754526	-0.119984
Zn3	Zn	0.250391	-0.421193	0.213350
Zn4	Zn	-0.591036	-1.072146	-0.345879
Zn5	Zn	-0.257703	-0.738813	-0.012546
Zn6	Zn	0.075631	-0.405479	0.320788
Zn7	Zn	-0.416284	-0.964792	-0.330268
Zn8	Zn	-0.082950	-0.631458	0.003065
Zn9	Zn	0.250383	-0.298125	0.336399
Zn10	Zn	-0.590951	-0.949144	-0.468899
Zn11	Zn	-0.257618	-0.615810	-0.135566
Zn12	Zn	0.075715	-0.282477	0.197768
O13	O	-0.503637	-1.018485	-0.399591
O14	O	-0.170303	-0.685152	-0.066257
O15	O	0.163030	-0.351819	0.267076
O16	O	-0.439491	-1.188757	-0.439077
O17	O	-0.106157	-0.855423	-0.105744
O18	O	0.227176	-0.522090	0.227589
O19	O	-0.567893	-1.057878	-0.240827
O20	O	-0.234560	-0.724544	0.092506
O21	O	0.098773	-0.391211	0.425839
O22	O	-0.270046	-0.994242	-0.333536
O23	O	0.063287	-0.660909	-0.000203
O24	O	0.396621	-0.327575	0.333130
O25	O	-0.567886	-1.177212	-0.360143
O26	O	-0.234553	-0.843878	-0.026810
O27	O	0.098781	-0.510545	0.306524
O28	O	-0.270040	-1.084660	-0.423940
O29	O	0.063293	-0.751326	-0.090607
O30	O	0.396626	-0.417993	0.242727
O31	O	-0.439503	-0.979005	-0.229358
O32	O	-0.106170	-0.645672	0.103975
O33	O	0.227163	-0.312338	0.437309
O34	O	-0.439421	-0.859735	-0.348645
O35	O	-0.106088	-0.526401	-0.015312
O36	O	0.227245	-0.193068	0.318021
O37	O	-0.567741	-0.967572	-0.569813
O38	O	-0.234408	-0.634239	-0.236480
O39	O	0.098925	-0.300905	0.096854
O40	O	-0.567749	-0.848238	-0.450497
O41	O	-0.234416	-0.514905	-0.117164
O42	O	0.098918	-0.181571	0.216169
O43	O	-0.439408	-1.069486	-0.558365
O44	O	-0.106075	-0.736153	-0.225032
O45	O	0.227258	-0.402820	0.108302
O46	O	-0.737261	-1.042704	-0.375252
O47	O	-0.403928	-0.709371	-0.041919
O48	O	-0.070595	-0.376038	0.291414
O49	O	-0.737199	-0.952335	-0.465635
O50	O	-0.403866	-0.619002	-0.132301
O51	O	-0.070532	-0.285668	0.201032
C52	C	-0.503577	-0.827284	-0.399569
C53	C	-0.170244	-0.493951	-0.066235
C54	C	0.163089	-0.160618	0.267098
C55	C	-0.503577	-0.745485	-0.399579
C56	C	-0.170244	-0.412152	-0.066246
C57	C	0.163089	-0.078819	0.267088
C58	C	-0.775148	-0.994136	-0.423845
C59	C	-0.441814	-0.660803	-0.090511
C60	C	-0.108481	-0.327470	0.242822
C61	C	-0.891301	-0.983787	-0.434245
C62	C	-0.557968	-0.650454	-0.100912
C63	C	-0.224635	-0.317120	0.232422
C64	C	-0.436873	-0.486420	-0.440768
C65	C	-0.103540	-0.153087	-0.107435
C66	C	0.229794	0.180247	0.225899
C67	C	-0.436861	-0.563280	-0.440766
C68	C	-0.103528	-0.229947	-0.107432
C69	C	0.229805	0.103387	0.225901
C70	C	-0.570365	-0.551295	-0.358413
C71	C	-0.237032	-0.217961	-0.025080
C72	C	0.096301	0.115372	0.308253
C73	C	-0.570382	-0.474436	-0.358420
C74	C	-0.237048	-0.141103	-0.025087
C75	C	0.096285	0.192231	0.308246
C76	C	-0.503629	-0.442001	-0.399596
C77	C	-0.170296	-0.108668	-0.066263
C78	C	0.163037	0.224666	0.267071
C79	C	-0.503602	-0.595720	-0.399587
C80	C	-0.170268	-0.262386	-0.066253
C81	C	0.163065	0.070947	0.267080
C82	C	-0.503590	-0.679054	-0.399584
C83	C	-0.170256	-0.345721	-0.066251
C84	C	0.163077	-0.012388	0.267083
C85	C	-0.503643	-0.358661	-0.399600
C86	C	-0.170309	-0.025328	-0.066267
C87	C	0.163024	0.308006	0.267066
C88	C	-0.943082	-1.023926	-0.394196
C89	C	-0.609749	-0.690592	-0.060863
C90	C	-0.276416	-0.357259	0.272471
C91	C	-1.063133	-1.013230	-0.404944
C92	C	-0.729800	-0.679897	-0.071611
C93	C	-0.396467	-0.346564	0.261722
C94	C	-0.231065	-1.042949	-0.375259
C95	C	0.102268	-0.709616	-0.041925
C96	C	0.435601	-0.376283	0.291408
C97	C	-0.114912	-1.053374	-0.364890
C98	C	0.218422	-0.720041	-0.031556
C99	C	0.551755	-0.386708	0.301777
C100	C	-0.503565	-1.018536	-0.591537
C101	C	-0.170231	-0.685203	-0.258204
C102	C	0.163102	-0.351870	0.075129
C103	C	-0.503534	-1.018558	-0.673334
C104	C	-0.170201	-0.685225	-0.340000
C105	C	0.163133	-0.351892	-0.006667
C106	C	-0.503680	-0.210434	-0.399609
C107	C	-0.170346	0.122899	-0.066275
C108	C	0.162987	0.456232	0.267058
C109	C	-0.503654	-0.292235	-0.399604
C110	C	-0.170320	0.041098	-0.066271
C111	C	0.163013	0.374431	0.267063
C112	C	-0.436648	-1.071648	-0.855562
C113	C	-0.103315	-0.738314	-0.522229
C114	C	0.230018	-0.404981	-0.188896
C115	C	-0.436618	-1.071659	-0.932418
C116	C	-0.103285	-0.738326	-0.599085
C117	C	0.230049	-0.404992	-0.265752
C118	C	-0.570258	-0.965536	-0.944328
C119	C	-0.236925	-0.632202	-0.610995
C120	C	0.096409	-0.298869	-0.277662
C121	C	-0.570282	-0.965521	-0.867473
C122	C	-0.236949	-0.632188	-0.534140
C123	C	0.096384	-0.298855	-0.200807
C124	C	-0.503479	-1.018582	-0.823092
C125	C	-0.170146	-0.685248	-0.489759
C126	C	0.163188	-0.351915	-0.156426
C127	C	-0.503424	-1.018607	-0.976804
C128	C	-0.170091	-0.685274	-0.643470
C129	C	0.163242	-0.351940	-0.310137
C130	C	-0.503392	-1.018619	-1.060134
C131	C	-0.170058	-0.685286	-0.726801
C132	C	0.163275	-0.351953	-0.393468
C133	C	-0.503510	-1.018569	-0.739756
C134	C	-0.170177	-0.685235	-0.406423
C135	C	0.163157	-0.351902	-0.073089
C136	C	-0.503633	-1.018483	-0.208384
C137	C	-0.170300	-0.685150	0.124949
C138	C	0.163034	-0.351817	0.458282
C139	C	-0.503369	-1.018630	-0.126562
C140	C	-0.170036	-0.685297	0.206771
C141	C	0.163297	-0.351964	0.540104
H142	H	-0.382519	-0.460014	-0.474296
H143	H	-0.049185	-0.126681	-0.140962
H144	H	0.284148	0.206652	0.192371
H145	H	-0.382250	-1.114851	-0.819429
H146	H	-0.048917	-0.781517	-0.486095
H147	H	0.284417	-0.448184	-0.152762
H148	H	-0.624749	-0.438268	-0.324893
H149	H	-0.291415	-0.104935	0.008440
H150	H	0.041918	0.228399	0.341773
H151	H	-0.898540	-1.066211	-0.351953
H152	H	-0.565206	-0.732878	-0.018620
H153	H	-0.231873	-0.399544	0.314713
H154	H	-0.624703	-0.922303	-0.841036
H155	H	-0.291370	-0.588970	-0.507703
H156	H	0.041964	-0.255637	-0.174369
H157	H	-0.624649	-0.922337	-0.980473
H158	H	-0.291316	-0.589004	-0.647139
H159	H	0.042018	-0.255671	-0.313806
H160	H	-0.382502	-0.599443	-0.474293
H161	H	-0.049169	-0.266110	-0.140960
H162	H	0.284164	0.067224	0.192374
C163	C	-1.123303	-0.956103	-0.462019
C164	C	-0.789970	-0.622770	-0.128685
C165	C	-0.456636	-0.289437	0.204648
N166	N	-1.168624	-0.913075	-0.505005
N167	N	-0.835291	-0.579741	-0.171672
N168	N	-0.501958	-0.246408	0.161662
H169	H	-0.624711	-0.577713	-0.324888
H170	H	-0.291377	-0.244380	0.008445
H171	H	0.041956	0.088954	0.341779
C172	C	-1.054744	-1.110501	-0.307814
C173	C	-0.721411	-0.777167	0.025520
C174	C	-0.388078	-0.443834	0.358853
N175	N	-1.009425	-1.153527	-0.264824
N176	N	-0.676092	-0.820193	0.068510
N177	N	-0.342759	-0.486860	0.401843
H178	H	-0.382196	-1.114870	-0.958851
H179	H	-0.048863	-0.781536	-0.625518
H180	H	0.284471	-0.448203	-0.292184
H181	H	-0.935847	-0.941508	-0.476493
H182	H	-0.602513	-0.608175	-0.143159
H183	H	-0.269180	-0.274841	0.190174
