data_functionalizedCrystal
_audit_creation_method	'MofGen! by Chris Wilmer'
_symmetry_space_group_name_H-M	'P1'
_symmetry_Int_Tables_number	1
_symmetry_cell_setting	triclinic
loop_
_symmetry_equiv_pos_as_xyz
  x,y,z
_cell_length_a	12.645330
_cell_length_b	19.805407
_cell_length_c	19.805399
_cell_angle_alpha	90.019197
_cell_angle_beta	89.978279
_cell_angle_gamma	89.986158
loop_
_atom_site_label
_atom_site_type_symbol
_atom_site_fract_x
_atom_site_fract_y
_atom_site_fract_z
Zn1	Zn	-0.422173	-1.034777	-0.382740
Zn2	Zn	0.077827	-0.534777	0.117260
Zn3	Zn	-0.599451	-1.034709	-0.269564
Zn4	Zn	-0.099451	-0.534709	0.230436
Zn5	Zn	-0.422190	-0.921591	-0.269566
Zn6	Zn	0.077810	-0.421591	0.230434
Zn7	Zn	-0.599383	-0.921572	-0.382711
Zn8	Zn	-0.099383	-0.421572	0.117289
O9	O	-0.510799	-0.978162	-0.326145
O10	O	-0.010799	-0.478162	0.173855
O11	O	-0.445710	-1.129484	-0.367739
O12	O	0.054290	-0.629484	0.132261
O13	O	-0.575973	-1.019683	-0.174847
O14	O	-0.075973	-0.519683	0.325153
O15	O	-0.273841	-0.936642	-0.284592
O16	O	0.226159	-0.436642	0.215408
O17	O	-0.575956	-1.129434	-0.284588
O18	O	-0.075956	-0.629434	0.215412
O19	O	-0.273828	-1.019799	-0.367741
O20	O	0.226172	-0.519799	0.132259
O21	O	-0.445740	-0.936576	-0.174849
O22	O	0.054260	-0.436576	0.325151
O23	O	-0.445674	-0.826872	-0.284563
O24	O	0.054326	-0.326872	0.215437
O25	O	-0.575840	-0.936609	-0.477432
O26	O	-0.075840	-0.436609	0.022568
O27	O	-0.575856	-0.826858	-0.367691
O28	O	-0.075856	-0.326858	0.132309
O29	O	-0.445644	-1.019780	-0.477453
O30	O	0.054356	-0.519780	0.022547
O31	O	-0.747789	-1.019664	-0.284560
O32	O	-0.247789	-0.519664	0.215440
O33	O	-0.747739	-0.936543	-0.367689
O34	O	-0.247739	-0.436543	0.132311
C35	C	-0.510760	-0.802306	-0.326125
C36	C	-0.010760	-0.302306	0.173875
C37	C	-0.510769	-0.727074	-0.326132
C38	C	-0.010769	-0.227074	0.173868
C39	C	-0.443069	-0.691757	-0.369493
C40	C	0.056931	-0.191757	0.130507
C41	C	-0.443073	-0.621068	-0.369494
C42	C	0.056927	-0.121068	0.130506
C43	C	-0.510782	-0.585699	-0.326136
C44	C	-0.010782	-0.085699	0.173864
C45	C	-0.578485	-0.621021	-0.282770
C46	C	-0.078485	-0.121021	0.217230
C47	C	-0.578476	-0.691708	-0.282766
C48	C	-0.078476	-0.191708	0.217234
C49	C	-0.578524	-0.335948	-0.282784
C50	C	-0.078524	0.164052	0.217216
C51	C	-0.578530	-0.265256	-0.282793
C52	C	-0.078530	0.234744	0.217207
C53	C	-0.443121	-0.265308	-0.369512
C54	C	0.056879	0.234692	0.130488
C55	C	-0.443111	-0.335995	-0.369508
C56	C	0.056889	0.164005	0.130492
C57	C	-0.510810	-0.371311	-0.326139
C58	C	-0.010810	0.128689	0.173861
C59	C	-0.510804	-0.447960	-0.326138
C60	C	-0.010804	0.052040	0.173862
C61	C	-0.510794	-0.509051	-0.326141
C62	C	-0.010794	-0.009051	0.173859
C63	C	-0.786229	-0.978113	-0.326136
C64	C	-0.286229	-0.478113	0.173864
C65	C	-0.904059	-0.978154	-0.326154
C66	C	-0.404059	-0.478154	0.173846
C67	C	-1.071636	-0.926078	-0.378612
C68	C	-0.571636	-0.426078	0.121388
C69	C	-0.949076	-0.925811	-0.378443
C70	C	-0.449076	-0.425811	0.121557
C71	C	-0.948645	-0.958847	-0.254822
C72	C	-0.448645	-0.458847	0.245178
C73	C	-1.071243	-0.958529	-0.255141
C74	C	-0.571243	-0.458529	0.244859
C75	C	-1.071157	-1.049854	-0.344450
C76	C	-0.571157	-0.549854	0.155550
C77	C	-0.948551	-1.049415	-0.346010
C78	C	-0.448551	-0.549415	0.153990
C79	C	-0.234294	-0.978230	-0.326170
C80	C	0.265706	-0.478230	0.173830
C81	C	-0.116464	-0.978259	-0.326180
C82	C	0.383536	-0.478259	0.173820
C83	C	-0.510732	-0.978200	-0.502688
C84	C	-0.010732	-0.478200	-0.002688
C85	C	-0.510704	-0.978216	-0.577920
C86	C	-0.010704	-0.478216	-0.077920
C87	C	-0.510831	-0.154705	-0.326160
C88	C	-0.010831	0.345295	0.173840
C89	C	-0.510824	-0.229937	-0.326151
C90	C	-0.010824	0.270063	0.173849
C91	C	-0.442908	-1.021524	-0.613277
C92	C	0.057092	-0.521524	-0.113277
C93	C	-0.442877	-1.021531	-0.683965
C94	C	0.057123	-0.521531	-0.183965
C95	C	-0.510649	-0.978233	-0.719296
C96	C	-0.010649	-0.478233	-0.219296
C97	C	-0.578448	-0.934920	-0.683934
C98	C	-0.078448	-0.434920	-0.183934
C99	C	-0.578472	-0.934910	-0.613247
C100	C	-0.078472	-0.434910	-0.113247
C101	C	-0.578349	-0.934958	-0.969008
C102	C	-0.078349	-0.434958	-0.469008
C103	C	-0.578321	-0.934973	-1.039700
C104	C	-0.078321	-0.434973	-0.539700
C105	C	-0.442754	-1.021579	-1.039726
C106	C	0.057246	-0.521579	-0.539726
C107	C	-0.442778	-1.021570	-0.969038
C108	C	0.057222	-0.521570	-0.469038
C109	C	-0.510573	-0.978254	-0.933683
C110	C	-0.010573	-0.478254	-0.433683
C111	C	-0.510604	-0.978247	-0.857035
C112	C	-0.010604	-0.478247	-0.357035
C113	C	-0.510624	-0.978244	-0.795943
C114	C	-0.010624	-0.478244	-0.295943
C115	C	-0.510789	-0.978163	-0.150289
C116	C	-0.010789	-0.478163	0.349711
C117	C	-0.510519	-0.978278	-0.075058
C118	C	-0.010519	-0.478278	0.424942
H119	H	-0.633649	-0.364694	-0.247472
H120	H	-0.133649	0.135306	0.252528
H121	H	-0.633625	-0.899664	-0.712706
H122	H	-0.133625	-0.399664	-0.212706
F123	F	-1.109064	-1.100671	-0.294544
F124	F	-0.609064	-0.600671	0.205456
H125	H	-1.100901	-0.994887	-0.214742
H126	H	-0.600901	-0.494887	0.285258
F127	F	-0.908631	-0.891152	-0.234226
F128	F	-0.408631	-0.391152	0.265774
H129	H	-0.919835	-0.872734	-0.366339
H130	H	-0.419835	-0.372734	0.133661
F131	F	-0.650628	-0.888814	-0.575619
F132	F	-0.150628	-0.388814	-0.075619
F133	F	-0.650541	-0.583376	-0.236622
F134	F	-0.150541	-0.083376	0.263378
H135	H	-0.387979	-0.364789	-0.404816
H136	H	0.112021	0.135211	0.095184
F137	F	-0.371007	-0.729393	-0.415644
F138	F	0.128993	-0.229393	0.084356
F139	F	-1.111479	-1.072875	-0.411283
F140	F	-0.611479	-0.572875	0.088717
H141	H	-1.099928	-0.906193	-0.239663
H142	H	-0.599928	-0.406193	0.260337
F143	F	-0.650532	-0.729295	-0.236616
F144	F	-0.150532	-0.229295	0.263384
H145	H	-0.919406	-1.063974	-0.398507
H146	H	-0.419406	-0.563974	0.101493
H147	H	-0.387947	-0.592316	-0.404805
H148	H	0.112053	-0.092316	0.095195
H149	H	-0.633670	-0.236460	-0.247483
H150	H	-0.133670	0.263540	0.252517
F151	F	-0.370756	-1.067649	-0.721591
F152	F	0.129244	-0.567649	-0.221591
F153	F	-0.370780	-1.067613	-0.575681
F154	F	0.129220	-0.567613	-0.075681
F155	F	-0.371066	-0.227716	-0.415667
F156	F	0.128934	0.272284	0.084333
H157	H	-0.918928	-0.937890	-0.431336
H158	H	-0.418928	-0.437890	0.068664
H159	H	-0.387595	-1.056830	-0.940276
H160	H	0.112405	-0.556830	-0.440276
F161	F	-0.910536	-1.006949	-0.202363
F162	F	-0.410536	-0.506949	0.297637
H163	H	-0.917901	-1.090340	-0.310602
H164	H	-0.417901	-0.590340	0.189398
H165	H	-1.102530	-0.873332	-0.366662
H166	H	-0.602530	-0.373332	0.133338
H167	H	-1.101053	-0.938046	-0.431678
H168	H	-0.601053	-0.438046	0.068322
H169	H	-0.387548	-1.056846	-1.068520
H170	H	0.112452	-0.556846	-0.568520
H171	H	-0.633511	-0.899712	-1.068464
H172	H	-0.133511	-0.399712	-0.568464
H173	H	-0.633567	-0.899699	-0.940230
H174	H	-0.133567	-0.399699	-0.440230
