data_functionalizedCrystal
_audit_creation_method	'MofGen! by Chris Wilmer'
_symmetry_space_group_name_H-M	'P1'
_symmetry_Int_Tables_number	1
_symmetry_cell_setting	triclinic
loop_
_symmetry_equiv_pos_as_xyz
  x,y,z
_cell_length_a	14.908571
_cell_length_b	16.625546
_cell_length_c	14.908803
_cell_angle_alpha	86.716477
_cell_angle_beta	89.810884
_cell_angle_gamma	86.718495
loop_
_atom_site_label
_atom_site_type_symbol
_atom_site_fract_x
_atom_site_fract_y
_atom_site_fract_z
Zn1	Zn	1.345147	-0.420950	0.587549
Zn2	Zn	1.845147	0.079050	1.087549
Zn3	Zn	1.353757	-0.548440	0.437183
Zn4	Zn	1.853757	-0.048440	0.937183
Zn5	Zn	1.203499	-0.405416	0.428549
Zn6	Zn	1.703499	0.094584	0.928549
Zn7	Zn	1.194752	-0.547524	0.578833
Zn8	Zn	1.694752	-0.047524	1.078833
O9	O	1.274289	-0.480583	0.508029
O10	O	1.774289	0.019417	1.008029
O11	O	1.472113	-0.444746	0.574863
O12	O	1.972113	0.055254	1.074863
O13	O	1.341088	-0.523351	0.310215
O14	O	1.841088	-0.023351	0.810215
O15	O	1.222346	-0.294649	0.449675
O16	O	1.722346	0.205351	0.949675
O17	O	1.478439	-0.538413	0.464390
O18	O	1.978439	-0.038413	0.964390
O19	O	1.326414	-0.306062	0.566491
O20	O	1.826414	0.193938	1.066491
O21	O	1.230694	-0.418272	0.303872
O22	O	1.730694	0.081728	0.803872
O23	O	1.076514	-0.417383	0.441224
O24	O	1.576514	0.082617	0.941224
O25	O	1.207439	-0.536851	0.705812
O26	O	1.707439	-0.036851	1.205812
O27	O	1.070089	-0.521789	0.551637
O28	O	1.570089	-0.021789	1.051637
O29	O	1.317933	-0.443858	0.712215
O30	O	1.817933	0.056142	1.212215
O31	O	1.332607	-0.661147	0.455939
O32	O	1.832607	-0.161147	0.955939
O33	O	1.215787	-0.660473	0.560009
O34	O	1.715787	-0.160473	1.060009
C35	C	1.040677	-0.467801	0.494548
C36	C	1.540677	0.032199	0.994548
C37	C	0.940735	-0.462354	0.488803
C38	C	1.440735	0.037646	0.988803
C39	C	0.746300	-0.560988	0.592824
C40	C	1.246300	-0.060988	1.092824
C41	C	0.652396	-0.555872	0.587429
C42	C	1.152396	-0.055872	1.087429
C43	C	0.659021	-0.447004	0.472622
C44	C	1.159021	0.052996	0.972622
C45	C	0.752925	-0.452119	0.478017
C46	C	1.252925	0.047881	0.978017
C47	C	0.796561	-0.509114	0.538120
C48	C	1.296561	-0.009114	1.038120
C49	C	0.890468	-0.514233	0.543510
C50	C	1.390468	-0.014233	1.043510
C51	C	0.897090	-0.405361	0.428708
C52	C	1.397090	0.094639	0.928708
C53	C	0.803186	-0.400246	0.423312
C54	C	1.303186	0.099754	0.923312
C55	C	1.274206	-0.690067	0.507986
C56	C	1.774206	-0.190067	1.007986
C57	C	1.274251	-0.779691	0.508003
C58	C	1.774251	-0.279691	1.008003
C59	C	1.274402	-1.107880	0.508105
C60	C	1.774402	-0.607880	1.008105
C61	C	1.274357	-1.016568	0.508079
C62	C	1.774357	-0.516568	1.008079
C63	C	1.274326	-0.943789	0.508053
C64	C	1.774326	-0.443789	1.008053
C65	C	1.274282	-0.852471	0.508028
C66	C	1.774282	-0.352471	1.008028
C67	C	1.508813	-0.493415	0.521562
C68	C	2.008813	0.006585	1.021562
C69	C	1.608753	-0.498883	0.527329
C70	C	2.108753	0.001117	1.027329
C71	C	1.260750	-0.491985	0.742550
C72	C	1.760750	0.008015	1.242550
C73	C	1.254981	-0.496844	0.842489
C74	C	1.754981	0.003156	1.342489
C75	C	1.274395	-0.270283	0.508092
C76	C	1.774395	0.229717	1.008092
C77	C	1.274441	-0.180665	0.508120
C78	C	1.774441	0.319335	1.008120
C79	C	1.359194	-0.409121	1.036954
C80	C	1.859194	0.090879	1.536954
C81	C	1.353776	-0.413684	1.130856
C82	C	1.853776	0.086316	1.630856
C83	C	1.238722	-0.510527	1.124196
C84	C	1.738722	-0.010527	1.624196
C85	C	1.244141	-0.505965	1.030294
C86	C	1.744141	-0.005965	1.530294
C87	C	1.304379	-0.455261	0.986677
C88	C	1.804379	0.044739	1.486677
C89	C	1.309801	-0.450703	0.892773
C90	C	1.809801	0.049297	1.392773
C91	C	1.194744	-0.547541	0.886115
C92	C	1.694744	-0.047541	1.386115
C93	C	1.189326	-0.552104	0.980016
C94	C	1.689326	-0.052104	1.480016
C95	C	1.287770	-0.469243	1.274419
C96	C	1.787770	0.030757	1.774419
C97	C	1.293543	-0.464386	1.174480
C98	C	1.793543	0.035614	1.674480
H99	H	0.925995	-0.560643	0.592447
H100	H	1.425995	-0.060643	1.092447
H101	H	0.767644	-0.353840	0.374381
H102	H	1.267644	0.146160	0.874381
H103	H	0.938023	-0.363123	0.384161
H104	H	1.438023	0.136877	0.884161
H105	H	1.358852	-0.409418	0.857262
H106	H	1.858852	0.090582	1.357262
H107	H	0.611477	-0.598112	0.631977
H108	H	1.111477	-0.098112	1.131977
H109	H	1.140279	-0.593384	1.015542
H110	H	1.640279	-0.093384	1.515542
C111	C	1.425450	-0.353350	0.988972
C112	C	1.925450	0.146650	1.488972
H113	H	1.457318	-0.326521	1.032366
H114	H	1.957318	0.173479	1.532366
H115	H	1.466725	-0.384552	0.954588
H116	H	1.966725	0.115448	1.454588
H117	H	1.393176	-0.314556	0.950371
H118	H	1.893176	0.185444	1.450371
H119	H	0.623475	-0.400596	0.423695
H120	H	1.123475	0.099404	0.923695
C121	C	0.794304	-0.623680	0.658929
C122	C	1.294304	-0.123680	1.158929
H123	H	0.750920	-0.653841	0.690739
H124	H	1.250920	-0.153841	1.190739
H125	H	0.832910	-0.659081	0.626568
H126	H	1.332910	-0.159081	1.126568
H127	H	0.828685	-0.596789	0.700276
H128	H	1.328685	-0.096789	1.200276
C129	C	1.414077	-0.362935	1.186159
C130	C	1.914077	0.137065	1.686159
H131	H	1.450731	-0.332091	1.146730
H132	H	1.950731	0.167909	1.646730
H133	H	1.377587	-0.327705	1.220818
H134	H	1.877587	0.172295	1.720818
H135	H	1.451130	-0.397706	1.225038
H136	H	1.951130	0.102294	1.725038
C137	C	1.134444	-0.598296	0.830808
C138	C	1.634444	-0.098296	1.330808
H139	H	1.146293	-0.588315	0.768635
H140	H	1.646293	-0.088315	1.268635
H141	H	1.146690	-0.653935	0.846944
H142	H	1.646690	-0.153935	1.346944
H143	H	1.073144	-0.583936	0.842713
H144	H	1.573144	-0.083936	1.342713
C145	C	1.172459	-0.566287	1.172185
C146	C	1.672459	-0.066287	1.672185
H147	H	1.177086	-0.562393	1.235310
H148	H	1.677086	-0.062393	1.735310
H149	H	1.112941	-0.550434	1.153311
H150	H	1.612941	-0.050434	1.653311
H151	H	1.186481	-0.620438	1.157551
H152	H	1.686481	-0.120438	1.657551
