data_functionalizedCrystal
_audit_creation_method	'MofGen! by Chris Wilmer'
_symmetry_space_group_name_H-M	'P1'
_symmetry_Int_Tables_number	1
_symmetry_cell_setting	triclinic
loop_
_symmetry_equiv_pos_as_xyz
  x,y,z
_cell_length_a	10.654558
_cell_length_b	14.971493
_cell_length_c	13.448316
_cell_angle_alpha	90.001296
_cell_angle_beta	90.009684
_cell_angle_gamma	84.052703
loop_
_atom_site_label
_atom_site_type_symbol
_atom_site_fract_x
_atom_site_fract_y
_atom_site_fract_z
O1	O	-1.666500	-0.125661	-0.082717
O2	O	-1.300895	-0.137623	-0.082713
O3	O	-1.493492	-0.001496	-0.082711
O4	O	-1.473903	-0.261788	-0.082719
O5	O	-1.493459	-0.001499	0.082673
O6	O	-1.300862	-0.137626	0.082671
O7	O	-1.666467	-0.125665	0.082667
Cu8	Cu	-1.483662	-0.131646	0.097770
Cu9	Cu	-1.483700	-0.131642	-0.097816
O10	O	-1.473871	-0.261792	0.082665
C11	C	-1.254090	-0.136745	-0.000020
C12	C	-1.114676	-0.134113	-0.000019
C13	C	-0.933024	-0.049013	-0.000028
C14	C	-1.064019	-0.051486	-0.000018
C15	C	-1.034330	-0.214272	-0.000018
C16	C	-0.903337	-0.211798	-0.000020
C17	C	-0.950165	0.044970	-0.000032
C18	C	-1.081160	0.042498	-0.000023
C19	C	-1.492598	0.031832	-0.000020
C20	C	-1.489967	0.131143	-0.000023
C21	C	-0.713272	-0.126541	-0.000026
C22	C	-0.852688	-0.129166	-0.000030
C23	C	-1.488752	0.177796	-0.090174
C24	C	-1.486273	0.271109	-0.090174
C25	C	-1.485017	0.317767	-0.000021
C26	C	-1.486229	0.271107	0.090137
C27	C	-1.488699	0.177795	0.090136
C28	C	-1.481083	0.465598	0.090133
C29	C	-1.478614	0.558917	0.090135
C30	C	-1.478656	0.558912	-0.090176
C31	C	-1.481127	0.465600	-0.090177
C32	C	-1.482340	0.418947	-0.000019
C33	C	-1.474766	0.704881	-0.000024
C34	C	-1.477399	0.605570	-0.000016
N35	N	-1.483644	-0.131648	0.235334
N36	N	-1.483728	-0.131632	-0.235380
C37	C	-1.569022	-0.071380	0.712554
C38	C	-1.569012	-0.071386	0.608450
C39	C	-1.483700	-0.131641	0.556416
C40	C	-1.398402	-0.191899	0.608489
C41	C	-1.398419	-0.191897	0.712591
C42	C	-1.398369	-0.191899	0.391509
C43	C	-1.398350	-0.191900	0.287401
C44	C	-1.568962	-0.071388	0.287369
C45	C	-1.568979	-0.071386	0.391470
C46	C	-1.483679	-0.131643	0.443537
H47	H	-1.075585	-0.281548	-0.000009
N48	N	-1.485106	0.321397	-0.187436
H49	H	-1.407806	0.298405	-0.226916
H50	H	-1.563437	0.311847	-0.226674
H51	H	-0.837932	-0.277067	-0.000010
N52	N	-1.661008	-0.006404	0.447588
H53	H	-1.612987	0.033528	0.490795
H54	H	-1.715019	0.031699	0.398738
H55	H	-1.127088	0.070896	0.071389
N56	N	-0.911757	0.093657	0.091637
H57	H	-0.989100	0.113595	0.132551
H58	H	-0.851438	0.052021	0.132469
N59	N	-1.660970	-0.006397	0.231219
H60	H	-1.648024	-0.015543	0.157376
H61	H	-1.750070	-0.017324	0.249401
H62	H	-1.328882	-0.240967	0.245039
H63	H	-1.482044	0.427614	0.163550
N64	N	-1.490025	0.127469	0.187367
H65	H	-1.413260	0.081989	0.191386
H66	H	-1.488906	0.171242	0.244425
N67	N	-1.306386	-0.256884	0.552364
H68	H	-1.217251	-0.245987	0.570506
H69	H	-1.321047	-0.320438	0.570494
N70	N	-1.306374	-0.256893	0.447670
H71	H	-1.252323	-0.295063	0.398912
H72	H	-1.250821	-0.222276	0.490876
H73	H	-1.482158	0.427614	-0.163587
H74	H	-0.914871	0.074899	-0.071441
H75	H	-1.328966	-0.240962	0.754982
N76	N	-1.136997	0.089399	-0.091699
H77	H	-1.181759	0.045821	-0.132605
H78	H	-1.199156	0.141691	-0.071215
N79	N	-1.490118	0.127476	-0.187411
H80	H	-1.488969	0.171193	-0.244520
H81	H	-1.413353	0.081993	-0.191340
N82	N	-1.661040	-0.006392	0.768673
H83	H	-1.715076	0.031772	0.719888
H84	H	-1.716606	-0.041013	0.811849
H85	H	-1.477665	0.596901	-0.163586
H86	H	-1.477582	0.596903	0.163545
H87	H	-1.485199	0.309103	0.163541
N88	N	-1.661009	-0.006400	0.552293
H89	H	-1.750149	-0.017295	0.570398
H90	H	-1.646347	0.057152	0.570436
