data_functionalizedCrystal
_audit_creation_method	'MofGen! by Chris Wilmer'
_symmetry_space_group_name_H-M	'P1'
_symmetry_Int_Tables_number	1
_symmetry_cell_setting	triclinic
loop_
_symmetry_equiv_pos_as_xyz
  x,y,z
_cell_length_a	11.792254
_cell_length_b	11.792254
_cell_length_c	15.186229
_cell_angle_alpha	89.996078
_cell_angle_beta	89.996693
_cell_angle_gamma	84.198598
loop_
_atom_site_label
_atom_site_type_symbol
_atom_site_fract_x
_atom_site_fract_y
_atom_site_fract_z
O1	O	1.506906	0.155634	-0.073228
O2	O	1.176567	0.171652	-0.073230
O3	O	1.349745	-0.001526	-0.073223
O4	O	1.333727	0.328812	-0.073236
O5	O	1.349734	-0.001529	0.073234
O6	O	1.176555	0.171649	0.073227
O7	O	1.506894	0.155631	0.073229
Zn8	Zn	1.341723	0.163640	0.096481
Zn9	Zn	1.341738	0.163643	-0.096483
O10	O	1.333716	0.328810	0.073222
C11	C	1.134271	0.170642	-0.000002
C12	C	1.008257	0.167621	-0.000002
C13	C	1.348730	-0.043818	0.000005
C14	C	1.345710	-0.169832	0.000005
C15	C	0.905921	0.165168	-0.000006
C16	C	0.777534	0.162099	-0.000007
C17	C	1.343256	-0.272168	0.000001
C18	C	1.340188	-0.400555	-0.000007
C19	C	1.549190	0.156642	-0.000001
C20	C	1.675204	0.159662	-0.000007
C21	C	1.334731	0.371102	-0.000009
C22	C	1.337751	0.497115	-0.000014
N23	N	1.341721	0.163637	0.228174
N24	N	1.341749	0.163637	-0.228175
C25	C	1.418430	0.086980	0.453900
C26	C	1.418434	0.086977	0.546090
C27	C	1.265031	0.240298	0.546092
C28	C	1.265023	0.240294	0.453904
C29	C	1.341729	0.163637	0.407811
C30	C	1.341741	0.163638	0.592188
C31	C	1.341744	0.163635	0.692144
C32	C	1.341725	0.163637	0.307848
H33	H	1.480887	0.024559	0.416373
N34	N	1.182319	0.322989	0.595811
H35	H	1.133727	0.371550	0.552622
H36	H	1.131878	0.279203	0.634072
N37	N	1.182281	0.322976	0.404193
H38	H	1.195846	0.403624	0.420225
H39	H	1.193949	0.311240	0.338814
H40	H	1.480889	0.024555	0.583613
