data_functionalizedCrystal
_audit_creation_method	'MofGen! by Chris Wilmer'
_symmetry_space_group_name_H-M	'P1'
_symmetry_Int_Tables_number	1
_symmetry_cell_setting	triclinic
loop_
_symmetry_equiv_pos_as_xyz
  x,y,z
_cell_length_a	12.759401
_cell_length_b	12.594516
_cell_length_c	12.594509
_cell_angle_alpha	89.973801
_cell_angle_beta	89.982176
_cell_angle_gamma	90.016214
loop_
_atom_site_label
_atom_site_type_symbol
_atom_site_fract_x
_atom_site_fract_y
_atom_site_fract_z
Zn1	Zn	1.606239	-0.423705	-0.601776
Zn2	Zn	2.106239	0.076295	-0.101776
Zn3	Zn	1.606131	-0.601716	-0.423803
Zn4	Zn	2.106131	-0.101716	0.076197
Zn5	Zn	1.430543	-0.423752	-0.423815
Zn6	Zn	1.930543	0.076248	0.076185
Zn7	Zn	1.430525	-0.601643	-0.601744
Zn8	Zn	1.930525	-0.101643	-0.101744
O9	O	1.518359	-0.512704	-0.512785
O10	O	2.018359	-0.012704	-0.012785
O11	O	1.753245	-0.447330	-0.578175
O12	O	2.253245	0.052670	-0.078175
O13	O	1.582801	-0.578158	-0.274859
O14	O	2.082801	-0.078158	0.225141
O15	O	1.453901	-0.274800	-0.447440
O16	O	1.953901	0.225200	0.052560
O17	O	1.753166	-0.578113	-0.447420
O18	O	2.253166	-0.078113	0.052580
O19	O	1.582985	-0.274766	-0.578187
O20	O	2.082985	0.225234	-0.078187
O21	O	1.453797	-0.447409	-0.274868
O22	O	1.953797	0.052591	0.225132
O23	O	1.283519	-0.447339	-0.447410
O24	O	1.783519	0.052661	0.052590
O25	O	1.453872	-0.577989	-0.750694
O26	O	1.953872	-0.077989	-0.250694
O27	O	1.283506	-0.578034	-0.578134
O28	O	1.783506	-0.078034	-0.078134
O29	O	1.582968	-0.447259	-0.750717
O30	O	2.082968	0.052741	-0.250717
O31	O	1.582784	-0.750652	-0.447390
O32	O	2.082784	-0.250652	0.052610
O33	O	1.453767	-0.750598	-0.578122
O34	O	1.953767	-0.250598	-0.078122
C35	C	1.245392	-0.512684	-0.512770
C36	C	1.745392	-0.012684	-0.012770
C37	C	1.128615	-0.512702	-0.512789
C38	C	1.628615	-0.012702	-0.012789
C39	C	1.518290	-0.789245	-0.512774
C40	C	2.018290	-0.289245	-0.012774
C41	C	1.518357	-0.907550	-0.512805
C42	C	2.018357	-0.407550	-0.012805
C43	C	1.073774	-0.580864	-0.580744
C44	C	1.573774	-0.080864	-0.080744
C45	C	0.964050	-0.580877	-0.580756
C46	C	1.464050	-0.080877	-0.080756
C47	C	0.964018	-0.444564	-0.444848
C48	C	1.464018	0.055436	0.055152
C49	C	1.073740	-0.444546	-0.444843
C50	C	1.573740	0.055454	0.055157
C51	C	1.073792	-0.659567	-0.659207
C52	C	1.573792	-0.159567	-0.159207
C53	C	0.964067	-0.659580	-0.659218
C54	C	1.464067	-0.159580	-0.159218
C55	C	1.448178	-0.976813	-0.583861
C56	C	1.948178	-0.476813	-0.083861
C57	C	1.422580	-1.047679	-0.486739
C58	C	1.922580	-0.547679	0.013261
C59	C	1.544051	-1.047484	-0.609944
C60	C	2.044051	-0.547484	-0.109944
C61	C	1.492708	-0.976858	-0.415632
C62	C	1.992708	-0.476858	0.084368
C63	C	1.614224	-0.976657	-0.538902
C64	C	2.114224	-0.476657	-0.038902
C65	C	1.588662	-1.047490	-0.441714
C66	C	2.088662	-0.547490	0.058286
C67	C	1.792392	-0.512725	-0.512800
C68	C	2.292392	-0.012725	-0.012800
C69	C	1.909169	-0.512733	-0.512806
C70	C	2.409169	-0.012733	-0.012806
C71	C	1.518430	-0.512611	-0.790406
C72	C	2.018430	-0.012611	-0.290406
C73	C	1.518460	-0.512571	-0.908711
C74	C	2.018460	-0.012571	-0.408711
C75	C	1.518457	-0.235083	-0.512818
C76	C	2.018457	0.264917	-0.012818
C77	C	1.518499	-0.116778	-0.512833
C78	C	2.018499	0.383222	-0.012833
C79	C	1.448266	-0.583635	-0.977952
C80	C	1.948266	-0.083635	-0.477952
C81	C	1.544132	-0.609640	-1.048737
C82	C	2.044132	-0.109640	-0.548737
C83	C	1.422669	-0.486501	-1.048725
C84	C	1.922669	0.013499	-0.548725
C85	C	1.614375	-0.538628	-0.977938
C86	C	2.114375	-0.038628	-0.477938
C87	C	1.492848	-0.415443	-0.977920
C88	C	1.992848	0.084557	-0.477920
C89	C	1.588779	-0.441412	-1.048673
C90	C	2.088779	0.058588	-0.548673
C91	C	1.518350	-0.512720	-0.236244
C92	C	2.018350	-0.012720	0.263756
C93	C	1.518523	-0.512460	-0.117939
C94	C	2.018523	-0.012460	0.382061
H95	H	1.118388	-0.389034	-0.389514
H96	H	1.618388	0.110966	0.110486
H97	H	1.648071	-1.078328	-0.381567
H98	H	2.148071	-0.578328	0.118433
H99	H	1.695213	-0.945440	-0.560999
H100	H	2.195213	-0.445440	-0.060999
H101	H	1.470940	-0.945962	-0.333472
H102	H	1.970940	-0.445962	0.166528
H103	H	1.341573	-1.078898	-0.464689
H104	H	1.841573	-0.578898	0.035311
H105	H	1.565726	-1.078508	-0.692081
H106	H	2.065726	-0.578508	-0.192081
H107	H	1.648235	-0.381269	-1.079530
H108	H	2.148235	0.118731	-0.579530
H109	H	0.919325	-0.389072	-0.389529
H110	H	1.419325	0.110928	0.110471
H111	H	0.930069	-0.630160	-0.737582
H112	H	1.430069	-0.130160	-0.237582
H113	H	1.103599	-0.637588	-0.741678
H114	H	1.603599	-0.137588	-0.241678
H115	H	1.565829	-0.691732	-1.079844
H116	H	2.065829	-0.191732	-0.579844
H117	H	0.934270	-0.741994	-0.637002
H118	H	1.434270	-0.241994	-0.137002
H119	H	1.388724	-0.945779	-0.643863
H120	H	1.888724	-0.445779	-0.143863
H121	H	1.471122	-0.333376	-0.946790
H122	H	1.971122	0.166624	-0.446790
H123	H	1.107804	-0.737829	-0.629542
H124	H	1.607804	-0.237829	-0.129542
H125	H	1.341633	-0.464497	-1.079819
H126	H	1.841633	0.035503	-0.579819
H127	H	1.388953	-0.643824	-0.946900
H128	H	1.888953	-0.143824	-0.446900
H129	H	1.695434	-0.560725	-0.946975
H130	H	2.195434	-0.060725	-0.446975
