data_functionalizedCrystal
_audit_creation_method	'MofGen! by Chris Wilmer'
_symmetry_space_group_name_H-M	'P1'
_symmetry_Int_Tables_number	1
_symmetry_cell_setting	triclinic
loop_
_symmetry_equiv_pos_as_xyz
  x,y,z
_cell_length_a	16.109301
_cell_length_b	14.586319
_cell_length_c	16.109304
_cell_angle_alpha	89.999019
_cell_angle_beta	83.462059
_cell_angle_gamma	89.999213
loop_
_atom_site_label
_atom_site_type_symbol
_atom_site_fract_x
_atom_site_fract_y
_atom_site_fract_z
O1	O	1.103132	-0.076177	0.106866
O2	O	1.603132	0.423823	0.606866
O3	O	0.861070	-0.076190	0.120165
O4	O	1.361070	0.423810	0.620165
O5	O	0.988749	-0.076184	-0.007515
O6	O	1.488749	0.423816	0.492485
O7	O	0.975453	-0.076183	0.234546
O8	O	1.475453	0.423817	0.734546
O9	O	0.988741	0.076297	-0.007517
O10	O	1.488741	0.576297	0.492483
O11	O	0.861061	0.076290	0.120163
O12	O	1.361061	0.576290	0.620163
O13	O	1.103123	0.076304	0.106864
O14	O	1.603123	0.576304	0.606864
Cu15	Cu	0.982091	0.090220	0.113514
Cu16	Cu	1.482091	0.590220	0.613514
Cu17	Cu	0.982102	-0.090106	0.113516
Cu18	Cu	1.482102	0.409894	0.613516
O19	O	0.975444	0.076297	0.234545
O20	O	1.475444	0.576297	0.734545
C21	C	0.830091	0.000048	0.119626
C22	C	1.330091	0.500048	0.619626
C23	C	0.737795	0.000043	0.118010
C24	C	1.237795	0.500043	0.618010
N25	N	0.982090	0.217052	0.113511
N26	N	1.482090	0.717052	0.613511
N27	N	0.982110	-0.216938	0.113511
N28	N	1.482110	0.283062	0.613511
C29	C	0.515524	0.000053	0.190018
C30	C	1.015524	0.500053	0.690018
C31	C	0.428803	0.000059	0.188494
C32	C	0.928803	0.500059	0.688494
C33	C	0.448676	0.000055	0.037005
C34	C	0.948676	0.500055	0.537005
C35	C	0.535395	0.000056	0.038530
C36	C	1.035395	0.500056	0.538530
C37	C	0.568816	0.000050	0.115039
C38	C	1.068816	0.500050	0.615039
C39	C	0.395377	0.000055	0.111990
C40	C	0.895377	0.500055	0.611990
C41	C	0.301351	0.000062	0.110337
C42	C	0.801351	0.500062	0.610337
C43	C	0.662848	0.000046	0.116693
C44	C	1.162848	0.500046	0.616693
C45	C	1.134102	0.000064	0.107404
C46	C	1.634102	0.500064	0.607404
C47	C	1.226398	0.000063	0.109019
C48	C	1.726398	0.500063	0.609019
C49	C	0.988206	0.000055	-0.038491
C50	C	1.488206	0.500055	0.461509
C51	C	0.986590	0.000048	-0.130786
C52	C	1.486590	0.500048	0.369214
C53	C	1.038645	0.452061	0.056993
C54	C	1.538645	0.952061	0.556993
C55	C	1.038647	0.548042	0.056991
C56	C	1.538647	1.048042	0.556991
C57	C	0.925549	0.548046	0.170032
C58	C	1.425549	1.048046	0.670032
C59	C	0.925543	0.452066	0.170029
C60	C	1.425543	0.952066	0.670029
C61	C	0.982096	0.404077	0.113511
C62	C	1.482096	0.904077	0.613511
C63	C	0.982104	0.596037	0.113512
C64	C	1.482104	1.096037	0.613512
C65	C	0.982106	0.700104	0.113510
C66	C	1.482106	1.200104	0.613510
C67	C	0.982093	0.300003	0.113512
C68	C	1.482093	0.800003	0.613512
C69	C	0.982861	-0.083066	-0.343123
C70	C	1.482861	0.416934	0.156877
C71	C	0.981335	-0.083065	-0.429843
C72	C	1.481335	0.416935	0.070157
C73	C	0.981330	0.083178	-0.429842
C74	C	1.481330	0.583178	0.070158
C75	C	0.982850	0.083176	-0.343122
C76	C	1.482850	0.583176	0.156878
C77	C	0.983620	0.000052	-0.299766
C78	C	1.483620	0.500052	0.200234
C79	C	0.980573	0.000054	-0.473205
C80	C	1.480573	0.500054	0.026795
C81	C	0.978919	0.000056	-0.567231
C82	C	1.478919	0.500056	-0.067231
C83	C	0.985273	0.000050	-0.205734
C84	C	1.485273	0.500050	0.294266
C85	C	0.975987	0.000057	0.265520
C86	C	1.475987	0.500057	0.765520
C87	C	0.977603	0.000057	0.357816
C88	C	1.477603	0.500057	0.857816
H89	H	0.385416	0.000064	0.249550
H90	H	0.885416	0.500064	0.749550
H91	H	0.980704	0.150855	-0.465154
H92	H	1.480704	0.650855	0.034846
H93	H	1.084694	0.587109	0.010969
H94	H	1.584694	1.087109	0.510969
O95	O	0.983448	-0.163837	-0.301028
O96	O	1.483448	0.336163	0.198972
C97	C	0.911121	-0.214401	-0.312809
C98	C	1.411121	0.285599	0.187191
H99	H	0.860410	-0.165757	-0.330048
H100	H	1.360410	0.334243	0.169952
H101	H	0.887961	-0.252114	-0.252617
H102	H	1.387961	0.247886	0.247383
H103	H	0.926506	-0.266221	-0.365286
H104	H	1.426506	0.233779	0.134714
H105	H	0.983463	0.150864	-0.307820
H106	H	1.483463	0.650864	0.192180
H107	H	0.542732	0.000056	0.252316
H108	H	1.042732	0.500056	0.752316
H109	H	0.980716	-0.150748	-0.465140
H110	H	1.480716	0.349252	0.034860
H111	H	0.421454	0.000065	-0.025285
H112	H	0.921454	0.500065	0.474715
O113	O	0.587051	0.000011	-0.034386
O114	O	1.087051	0.500011	0.465614
C115	C	0.538959	0.000031	-0.102241
C116	C	1.038959	0.500031	0.397759
H117	H	0.474230	-0.028839	-0.081127
H118	H	0.974230	0.471161	0.418873
H119	H	0.570969	-0.044238	-0.154772
H120	H	1.070969	0.455762	0.345228
H121	H	0.532790	0.073183	-0.125695
H122	H	1.032790	0.573183	0.374305
H123	H	0.879505	0.587129	0.216049
H124	H	1.379505	1.087129	0.716049
O125	O	1.093604	0.405585	0.002009
O126	O	1.593604	0.905585	0.502009
C127	C	1.143529	0.468525	-0.047862
C128	C	1.643529	0.968525	0.452138
H129	H	1.109447	0.536945	-0.048806
H130	H	1.609447	1.036945	0.451194
H131	H	1.156227	0.440797	-0.114257
H132	H	1.656227	0.940797	0.385743
H133	H	1.205282	0.478726	-0.020851
H134	H	1.705282	0.978726	0.479149
H135	H	0.879490	0.412995	0.216053
H136	H	1.379490	0.912995	0.716053
