data_functionalizedCrystal
_audit_creation_method	'MofGen! by Chris Wilmer'
_symmetry_space_group_name_H-M	'P1'
_symmetry_Int_Tables_number	1
_symmetry_cell_setting	triclinic
loop_
_symmetry_equiv_pos_as_xyz
  x,y,z
_cell_length_a	6.817900
_cell_length_b	11.102289
_cell_length_c	9.514088
_cell_angle_alpha	88.634869
_cell_angle_beta	118.843545
_cell_angle_gamma	108.605707
loop_
_atom_site_label
_atom_site_type_symbol
_atom_site_fract_x
_atom_site_fract_y
_atom_site_fract_z
V1	V	-4.243923	-0.178092	-0.500743
O2	O	-4.200435	0.006240	-0.491211
O3	O	-4.219794	-0.350897	-0.497318
O4	O	-4.278445	-0.176370	-0.719134
O5	O	-4.141379	-0.169496	-0.267859
V6	V	-4.713661	-0.155924	-0.472888
O7	O	-4.535420	-0.226720	-0.561844
O8	O	-4.872362	-0.107296	-0.411786
O9	O	-4.514583	0.016881	-0.476313
O10	O	-4.874545	-0.340255	-0.482420
O11	O	-4.933602	-0.164520	-0.705772
O12	O	-4.455932	-0.157646	-0.254497
C13	C	-4.068017	-0.392991	-0.489418
C14	C	-4.130128	-0.534268	-0.488074
C15	C	-4.142830	-0.170363	-0.772365
C16	C	-4.252499	-0.170099	-0.950901
C17	C	-4.345434	-0.607149	-0.495454
C18	C	-4.403792	-0.739895	-0.494204
C19	C	-4.031512	-0.726865	-0.478188
C20	C	-3.973165	-0.594123	-0.479449
C21	C	-4.560363	-0.614672	-0.504693
C22	C	-4.618720	-0.747418	-0.503444
C23	C	-4.329702	0.058969	-0.484208
C24	C	-4.246833	0.200244	-0.485563
C25	C	-4.254888	-0.163657	-0.201257
C26	C	-4.124455	-0.163915	-0.022720
H27	H	-3.903728	-0.775616	-0.471167
O28	O	-4.645448	-0.776855	-0.372661
C29	C	-4.734079	-0.943693	-0.223230
C30	C	-4.703984	-0.910542	-0.371433
H31	H	-4.781360	-1.051774	-0.222169
H32	H	-4.883309	-0.913542	-0.230580
H33	H	-4.559656	-0.890274	-0.107146
H34	H	-4.878281	-0.963945	-0.487591
H35	H	-4.554647	-0.940663	-0.363940
H36	H	-4.703110	-0.595977	-0.621495
H37	H	-3.930937	-0.158835	-0.947624
O38	O	-4.483528	-0.176403	-1.040468
C39	C	-4.896362	-0.297916	-1.127811
C40	C	-4.634838	-0.290949	-1.026340
H41	H	-5.018764	-0.390505	-1.116396
H42	H	-4.946823	-0.296699	-1.260708
H43	H	-4.917084	-0.211638	-1.081353
H44	H	-4.613922	-0.377208	-1.072656
H45	H	-4.584497	-0.292103	-0.893459
O46	O	-3.763944	-0.523168	-0.472077
C47	C	-3.387783	-0.347923	-0.324368
C48	C	-3.624663	-0.428155	-0.332542
H49	H	-3.275087	-0.271104	-0.211546
H50	H	-3.427089	-0.299792	-0.437395
H51	H	-3.285733	-0.413548	-0.318061
H52	H	-3.726832	-0.362618	-0.338796
H53	H	-3.585193	-0.476300	-0.219517
O54	O	-4.813591	-0.816907	-0.645458
C55	C	-5.119780	-0.811507	-0.913687
C56	C	-4.899168	-0.732653	-0.752933
H57	H	-5.189004	-0.743421	-1.000637
H58	H	-5.265714	-0.873323	-0.888888
H59	H	-5.067833	-0.876170	-0.970587
H60	H	-4.950887	-0.667917	-0.695950
H61	H	-4.753292	-0.670921	-0.777835
H62	H	-4.530492	-0.560936	-0.391457
