data_functionalizedCrystal
_audit_creation_method	'MofGen! by Chris Wilmer'
_symmetry_space_group_name_H-M	'P1'
_symmetry_Int_Tables_number	1
_symmetry_cell_setting	triclinic
loop_
_symmetry_equiv_pos_as_xyz
  x,y,z
_cell_length_a	16.120530
_cell_length_b	16.120484
_cell_length_c	13.897441
_cell_angle_alpha	92.866498
_cell_angle_beta	87.083121
_cell_angle_gamma	90.167327
loop_
_atom_site_label
_atom_site_type_symbol
_atom_site_fract_x
_atom_site_fract_y
_atom_site_fract_z
Zn1	Zn	1.254474	-0.395582	-0.642096
Zn2	Zn	1.754474	0.104418	-0.142096
Zn3	Zn	1.247317	-0.534648	-0.488526
Zn4	Zn	1.747317	-0.034648	0.011474
Zn5	Zn	1.115414	-0.388556	-0.472251
Zn6	Zn	1.615414	0.111444	0.027749
Zn7	Zn	1.108327	-0.527535	-0.641214
Zn8	Zn	1.608327	-0.027535	-0.141214
O9	O	1.181383	-0.461580	-0.561022
O10	O	1.681383	0.038420	-0.061022
O11	O	1.369891	-0.419947	-0.628905
O12	O	1.869891	0.080053	-0.128905
O13	O	1.229791	-0.515304	-0.351386
O14	O	1.729791	-0.015304	0.148614
O15	O	1.139822	-0.273125	-0.488340
O16	O	1.639822	0.226875	0.011660
O17	O	1.364632	-0.522118	-0.516078
O18	O	1.864632	-0.022118	-0.016078
O19	O	1.241989	-0.278287	-0.613124
O20	O	1.741989	0.221713	-0.113124
O21	O	1.132882	-0.407971	-0.339429
O22	O	1.632882	0.092029	0.160571
O23	O	0.998108	-0.401074	-0.487484
O24	O	1.498108	0.098926	0.012516
O25	O	1.127743	-0.509995	-0.776312
O26	O	1.627743	-0.009995	-0.276312
O27	O	0.992901	-0.503182	-0.611620
O28	O	1.492901	-0.003182	-0.111620
O29	O	1.235117	-0.413050	-0.776961
O30	O	1.735117	0.086950	-0.276961
O31	O	1.222919	-0.650067	-0.515222
O32	O	1.722919	-0.150067	-0.015222
O33	O	1.120803	-0.644842	-0.627401
O34	O	1.620803	-0.144842	-0.127401
C35	C	0.965332	-0.450595	-0.547691
C36	C	1.465332	0.049405	-0.047691
C37	C	0.872904	-0.445915	-0.542012
C38	C	1.372904	0.054085	-0.042012
C39	C	0.703677	-0.437352	-0.531651
C40	C	1.203677	0.062648	-0.031651
C41	C	0.659927	-0.485870	-0.590466
C42	C	1.159927	0.014130	-0.090466
C43	C	0.565763	-0.481105	-0.584701
C44	C	1.065763	0.018895	-0.084701
C45	C	0.797849	-0.442115	-0.537415
C46	C	1.297849	0.057885	-0.037415
C47	C	1.170338	-0.677627	-0.573004
C48	C	1.670338	-0.177627	-0.073004
C49	C	1.165688	-0.770057	-0.578167
C50	C	1.665688	-0.270057	-0.078167
C51	C	1.157205	-0.939287	-0.587613
C52	C	1.657205	-0.439287	-0.087613
C53	C	1.205710	-0.983040	-0.534455
C54	C	1.705710	-0.483040	-0.034455
C55	C	1.200990	-1.077206	-0.539711
C56	C	1.700990	-0.577206	-0.039711
C57	C	1.161924	-0.845113	-0.582359
C58	C	1.661924	-0.345113	-0.082359
C59	C	1.398277	-0.472609	-0.574405
C60	C	1.898277	0.027391	-0.074405
C61	C	1.490705	-0.477309	-0.580108
C62	C	1.990705	0.022691	-0.080108
C63	C	1.181437	-0.461513	-0.812614
C64	C	1.681437	0.038487	-0.312614
C65	C	1.181461	-0.461484	-0.919828
C66	C	1.681461	0.038516	-0.419828
C67	C	1.192494	-0.244691	-0.549015
C68	C	1.692494	0.255309	-0.049015
C69	C	1.197229	-0.152265	-0.543899
C70	C	1.697229	0.347735	-0.043899
C71	C	1.181479	-0.461462	-1.006897
C72	C	1.681479	0.038538	-0.506897
C73	C	1.181505	-0.461425	-1.116129
C74	C	1.681505	0.038575	-0.616129
C75	C	1.181380	-0.461590	-0.310408
C76	C	1.681380	0.038410	0.189592
C77	C	1.181529	-0.461392	-0.203192
C78	C	1.681529	0.038608	0.296808
H79	H	0.670415	-0.392240	-0.476971
H80	H	1.170415	0.107760	0.023029
H81	H	0.693190	-0.530985	-0.645151
H82	H	1.193190	-0.030985	-0.145151
C83	C	1.096311	-0.984222	-0.654414
C84	C	1.596311	-0.484222	-0.154414
N85	N	1.050442	-1.018076	-0.704722
N86	N	1.550442	-0.518076	-0.204722
C87	C	1.266594	-0.938105	-0.467632
C88	C	1.766594	-0.438105	0.032368
N89	N	1.312446	-0.904256	-0.417299
N90	N	1.812446	-0.404256	0.082701
