data_functionalizedCrystal
_audit_creation_method	'MofGen! by Chris Wilmer'
_symmetry_space_group_name_H-M	'P1'
_symmetry_Int_Tables_number	1
_symmetry_cell_setting	triclinic
loop_
_symmetry_equiv_pos_as_xyz
  x,y,z
_cell_length_a	10.654550
_cell_length_b	17.038272
_cell_length_c	9.130313
_cell_angle_alpha	89.998262
_cell_angle_beta	89.996220
_cell_angle_gamma	87.798229
loop_
_atom_site_label
_atom_site_type_symbol
_atom_site_fract_x
_atom_site_fract_y
_atom_site_fract_z
O1	O	1.678036	0.109874	-0.121922
O2	O	1.313530	0.120343	-0.121899
O3	O	1.493617	0.001281	-0.121899
O4	O	1.497950	0.228936	-0.121923
O5	O	1.493615	0.001284	0.121700
O6	O	1.313528	0.120346	0.121700
O7	O	1.678034	0.109878	0.121676
Cu8	Cu	1.495781	0.115112	0.143931
Cu9	Cu	1.495783	0.115108	-0.144153
O10	O	1.497948	0.228939	0.121676
C11	C	1.266660	0.119576	-0.000097
C12	C	1.127003	0.117276	-0.000087
C13	C	1.489675	-0.027867	-0.000100
C14	C	1.477918	-0.114726	-0.000099
C15	C	1.054026	0.187378	-0.000116
C16	C	0.922804	0.185212	-0.000141
C17	C	0.937548	0.042837	-0.000115
C18	C	1.068767	0.045004	-0.000080
C19	C	1.112262	0.259650	-0.000124
C20	C	1.039285	0.329758	-0.000154
C21	C	0.908063	0.327592	-0.000179
C22	C	0.849818	0.255319	-0.000174
C23	C	1.585862	-0.164237	-0.000105
C24	C	1.574808	-0.245850	-0.000118
C25	C	1.455808	-0.277949	-0.000115
C26	C	1.347856	-0.228431	-0.000114
C27	C	1.358911	-0.146821	-0.000111
C28	C	1.416750	-0.523925	-0.000133
C29	C	1.405702	-0.605542	-0.000131
C30	C	1.632656	-0.622955	-0.000137
C31	C	1.643701	-0.541342	-0.000126
C32	C	1.535749	-0.491831	-0.000133
C33	C	1.444505	-0.361370	-0.000124
C34	C	1.547052	-0.408412	-0.000134
C35	C	1.724905	0.110645	-0.000129
C36	C	1.864562	0.112944	-0.000148
C37	C	1.501889	0.258088	-0.000126
C38	C	1.513646	0.344947	-0.000136
N39	N	1.495788	0.115114	0.346553
N40	N	1.495785	0.115100	-0.346776
C41	C	1.575554	0.062412	0.423205
C42	C	1.575550	0.062403	0.576542
C43	C	1.416010	0.167805	0.576561
C44	C	1.416009	0.167810	0.423227
C45	C	1.655334	0.009716	0.346531
C46	C	1.735107	-0.042990	0.423183
C47	C	1.735103	-0.042999	0.576520
C48	C	1.655325	0.009698	0.653205
H49	H	1.219109	0.261422	-0.000110
N50	N	1.655329	0.009692	0.818590
H51	H	1.592696	0.051075	0.855533
H52	H	1.631417	-0.043596	0.855410
N53	N	1.714215	-0.129622	-0.000103
H54	H	1.704844	-0.070408	-0.000093
H55	H	1.761826	-0.147696	0.090202
H56	H	0.742968	0.253562	-0.000172
N57	N	0.829383	0.403216	-0.000191
H58	H	0.774625	0.405503	-0.090499
H59	H	0.774677	0.405457	0.090165
N60	N	1.102097	0.407706	-0.000143
H61	H	1.196298	0.398442	-0.000125
H62	H	1.075959	0.438411	-0.090456
N63	N	1.821142	-0.099840	0.659199
H64	H	1.879956	-0.069615	0.722815
H65	H	1.769348	-0.134750	0.722735
N66	N	0.874733	-0.035110	-0.000104
H67	H	0.780532	-0.025844	-0.000132
H68	H	0.900909	-0.065822	-0.090396
N69	N	1.147489	-0.030603	-0.000042
H70	H	1.090688	-0.076716	-0.000053
H71	H	1.202279	-0.032807	-0.090330
N72	N	1.691232	-0.299252	-0.000115
H73	H	1.768295	-0.266533	-0.000103
H74	H	1.691576	-0.333493	0.090190
N75	N	1.655328	0.009717	0.181149
H76	H	1.592687	0.051099	0.144224
H77	H	1.741955	0.021573	0.144323
H78	H	1.740603	-0.515213	-0.000128
N79	N	1.329970	0.224639	0.659263
H80	H	1.342076	0.216639	0.768031
H81	H	1.350406	0.280223	0.632463
H82	H	1.351055	0.210724	0.360817
H83	H	1.720544	-0.663275	-0.000135
H84	H	1.328847	-0.483623	-0.000138
N85	N	1.277343	-0.640161	-0.000137
H86	H	1.267710	-0.673636	-0.090436
H87	H	1.267776	-0.673593	0.090228
H88	H	1.250963	-0.254573	-0.000121
N89	N	1.242487	-0.093415	-0.000115
H90	H	1.165423	-0.126132	-0.000112
H91	H	1.242126	-0.059175	0.090189
N92	N	1.675397	-0.373792	-0.000121
H93	H	1.742110	-0.417539	-0.000118
H94	H	1.684932	-0.340308	-0.090423
H95	H	1.800053	-0.085898	0.360739
N96	N	1.316155	-0.395989	-0.000108
H97	H	1.306512	-0.429459	-0.090411
H98	H	1.306599	-0.429425	0.090253
