data_functionalizedCrystal
_audit_creation_method	'MofGen! by Chris Wilmer'
_symmetry_space_group_name_H-M	'P1'
_symmetry_Int_Tables_number	1
_symmetry_cell_setting	triclinic
loop_
_symmetry_equiv_pos_as_xyz
  x,y,z
_cell_length_a	21.395362
_cell_length_b	18.050590
_cell_length_c	21.395355
_cell_angle_alpha	89.981964
_cell_angle_beta	89.956060
_cell_angle_gamma	90.034430
loop_
_atom_site_label
_atom_site_type_symbol
_atom_site_fract_x
_atom_site_fract_y
_atom_site_fract_z
Zn1	Zn	0.957912	-0.295431	-0.354588
Zn2	Zn	0.957837	-0.419603	-0.249811
Zn3	Zn	0.853127	-0.295465	-0.249789
Zn4	Zn	0.853119	-0.419618	-0.354516
O5	O	0.905499	-0.357529	-0.302176
O6	O	1.045580	-0.311881	-0.340728
O7	O	0.943919	-0.403143	-0.162130
O8	O	0.867062	-0.191536	-0.263712
O9	O	1.045525	-0.403110	-0.263749
O10	O	0.944048	-0.191511	-0.340707
O11	O	0.866989	-0.311940	-0.162114
O12	O	0.765448	-0.311955	-0.263642
O13	O	0.867048	-0.403136	-0.442203
O14	O	0.765442	-0.403170	-0.340584
O15	O	0.944039	-0.311896	-0.442256
O16	O	0.943911	-0.523529	-0.263680
O17	O	0.866975	-0.523540	-0.340606
C18	C	0.742711	-0.357568	-0.302103
C19	C	0.673070	-0.357603	-0.302087
C20	C	0.640370	-0.405161	-0.342091
C21	C	0.574935	-0.405143	-0.342119
C22	C	0.542202	-0.357574	-0.302132
C23	C	0.574910	-0.310007	-0.262125
C24	C	0.640344	-0.310021	-0.262103
C25	C	0.438476	-0.351592	-0.245726
C26	C	0.373043	-0.351583	-0.245748
C27	C	0.340381	-0.357526	-0.302201
C28	C	0.373160	-0.363494	-0.358634
C29	C	0.438594	-0.363508	-0.358612
C30	C	0.471249	-0.357553	-0.302152
C31	C	0.236728	-0.405067	-0.342238
C32	C	0.171292	-0.405044	-0.342267
C33	C	0.171268	-0.309911	-0.262268
C34	C	0.236703	-0.309931	-0.262245
C35	C	0.269430	-0.357513	-0.302229
C36	C	0.905451	-0.550481	-0.302151
C37	C	0.905487	-0.633027	-0.302161
C38	C	0.947412	-0.832444	-0.260387
C39	C	0.962722	-0.881784	-0.317576
C40	C	0.905523	-0.784157	-0.302186
C41	C	0.890277	-0.881899	-0.245023
C42	C	0.905559	-0.930142	-0.302205
C43	C	0.920862	-0.832410	-0.359405
C44	C	0.848390	-0.832520	-0.286813
C45	C	0.863678	-0.881838	-0.344042
C46	C	0.905504	-0.700059	-0.302174
C47	C	0.905577	-1.014239	-0.302224
C48	C	1.068922	-0.357490	-0.302249
C49	C	1.138563	-0.357474	-0.302281
C50	C	0.905551	-0.357514	-0.465599
C51	C	0.905573	-0.357508	-0.535241
C52	C	0.905564	-0.163823	-0.302215
C53	C	0.905592	-0.081278	-0.302231
C54	C	0.945661	-0.309997	-0.567982
C55	C	0.945660	-0.309965	-0.633418
C56	C	0.905578	-0.357457	-0.666109
C57	C	0.865482	-0.404971	-0.633359
C58	C	0.865480	-0.404996	-0.567925
C59	C	0.900614	-0.424328	-0.769773
C60	C	0.900621	-0.424304	-0.835206
C61	C	0.905582	-0.357379	-0.867930
C62	C	0.910549	-0.290475	-0.835212
C63	C	0.910547	-0.290501	-0.769778
C64	C	0.905576	-0.357434	-0.737061
C65	C	0.945671	-0.309829	-0.971624
C66	C	0.945665	-0.309796	-1.037061
C67	C	0.865491	-0.404808	-1.037001
C68	C	0.865493	-0.404835	-0.971566
C69	C	0.905586	-0.357346	-0.938881
C70	C	0.905483	-0.357490	-0.139388
C71	C	0.905582	-0.357288	-0.069747
H72	H	0.548305	-0.443870	-0.374697
Br73	Br	0.126852	-0.245346	-0.208004
Br74	Br	0.942482	-0.796338	-0.440015
H75	H	0.832833	-0.443684	-0.541267
H76	H	0.263376	-0.443807	-0.374799
Br77	Br	0.804659	-0.917761	-0.403036
H78	H	0.896406	-0.478812	-0.743135
Br79	Br	1.000079	-0.245380	-0.927262
H80	H	0.800073	-0.810862	-0.273781
H81	H	0.877367	-0.903637	-0.196673
H82	H	0.465064	-0.346749	-0.199752
Br83	Br	1.000070	-0.245546	-0.523627
Br84	Br	0.811086	-0.469319	-0.927127
Br85	Br	0.811085	-0.469254	-1.081361
Br86	Br	0.483079	-0.371605	-0.435196
Br87	Br	0.328564	-0.343485	-0.169161
Br88	Br	0.530488	-0.245443	-0.207861
H89	H	0.978303	-0.271272	-0.660081
H90	H	0.667012	-0.443905	-0.374650
H91	H	0.914590	-0.236026	-0.743142
H92	H	0.982849	-0.810757	-0.225076
H93	H	0.144669	-0.443770	-0.374847
H94	H	0.666968	-0.271291	-0.229527
Br95	Br	0.917288	-0.199642	-0.879614
H96	H	0.896580	-0.478780	-0.861840
Br97	Br	1.043280	-0.917836	-0.339283
H98	H	0.978309	-0.271103	-1.063718
Br99	Br	0.811081	-0.469420	-0.677724
H100	H	0.346568	-0.368332	-0.404604
Br101	Br	0.281085	-0.245384	-0.207950
