data_functionalizedCrystal
_audit_creation_method	'MofGen! by Chris Wilmer'
_symmetry_space_group_name_H-M	'P1'
_symmetry_Int_Tables_number	1
_symmetry_cell_setting	triclinic
loop_
_symmetry_equiv_pos_as_xyz
  x,y,z
_cell_length_a	19.188925
_cell_length_b	19.188924
_cell_length_c	9.130313
_cell_angle_alpha	89.996698
_cell_angle_beta	89.998826
_cell_angle_gamma	83.142256
loop_
_atom_site_label
_atom_site_type_symbol
_atom_site_fract_x
_atom_site_fract_y
_atom_site_fract_z
O1	O	0.926141	0.087147	-0.121837
O2	O	0.722829	0.098885	-0.121834
O3	O	0.830355	-0.008640	-0.121819
O4	O	0.818615	0.194672	-0.121853
O5	O	0.830353	-0.008637	0.121780
O6	O	0.722828	0.098888	0.121764
O7	O	0.926140	0.087150	0.121761
Cu8	Cu	0.824484	0.093019	0.144005
Cu9	Cu	0.824485	0.093016	-0.144078
O10	O	0.818614	0.194675	0.121746
C11	C	0.696817	0.098507	-0.000034
C12	C	0.619313	0.097368	-0.000033
C13	C	0.057541	0.152832	-0.000045
C14	C	0.130364	0.153908	-0.000053
C15	C	0.175300	0.090816	-0.000040
C16	C	0.147408	0.026642	-0.000056
C17	C	0.074586	0.025568	-0.000063
N18	N	0.295978	0.045141	0.082890
N19	N	0.365155	0.046166	0.082900
C20	C	0.394709	0.094050	-0.000023
N21	N	0.352471	0.140881	-0.082938
N22	N	0.283287	0.139858	-0.082941
C23	C	0.254264	0.091974	-0.000034
C24	C	0.501557	0.159387	-0.000026
C25	C	0.574381	0.160461	-0.000043
C26	C	0.591424	0.033193	-0.000032
C27	C	0.518600	0.032121	-0.000029
C28	C	0.473671	0.095220	-0.000020
C29	C	0.829975	-0.034650	-0.000018
C30	C	0.828836	-0.112155	-0.000014
C31	C	0.828305	-0.148555	-0.132800
C32	C	0.827225	-0.221378	-0.132811
C33	C	0.826690	-0.257799	-0.000029
C34	C	0.827217	-0.221389	0.132775
C35	C	0.828290	-0.148567	0.132782
N36	N	0.864737	-0.377462	0.098798
N37	N	0.863720	-0.446640	0.098782
C38	C	0.823456	-0.477208	-0.000043
N39	N	0.784257	-0.435986	-0.098873
N40	N	0.785278	-0.366802	-0.098861
C41	C	0.825526	-0.336763	-0.000022
C42	C	0.821753	-0.592571	-0.132850
C43	C	0.820669	-0.665395	-0.132856
C44	C	0.820668	-0.665406	0.132734
C45	C	0.821745	-0.592583	0.132736
C46	C	0.822291	-0.556170	-0.000060
C47	C	0.952151	0.087528	-0.000042
C48	C	1.029656	0.088667	-0.000053
C49	C	0.818994	0.220684	-0.000058
C50	C	0.820133	0.298189	-0.000072
N51	N	0.824488	0.093021	0.346628
N52	N	0.824487	0.093008	-0.346701
C53	C	0.872112	0.045425	0.423287
C54	C	0.872110	0.045416	0.576624
C55	C	0.776857	0.140606	0.576629
C56	C	0.776856	0.140611	0.423295
C57	C	0.919743	-0.002165	0.346620
C58	C	0.967372	-0.049765	0.423279
C59	C	0.967370	-0.049773	0.576616
C60	C	0.919740	-0.002182	0.653293
H61	H	0.020963	0.204212	-0.000045
Br62	Br	0.829007	-0.099162	0.313006
Br63	Br	1.032002	-0.114358	0.319223
Br64	Br	0.829043	-0.099141	-0.313022
Br65	Br	0.208390	-0.058984	-0.000051
H66	H	0.826789	-0.251020	-0.240945
Br67	Br	0.822462	-0.543178	0.312956
H68	H	0.919737	-0.002198	0.778151
H69	H	0.738075	0.179368	0.360879
H70	H	0.919750	-0.002162	0.221765
Br71	Br	0.036739	-0.061520	-0.000083
H72	H	0.464973	0.210766	-0.000021
H73	H	0.628010	-0.018178	-0.000032
Br74	Br	0.480753	-0.054965	-0.000052
Br75	Br	1.032000	-0.114378	0.680653
H76	H	0.738079	0.179354	0.639070
Br77	Br	0.826482	-0.270815	0.312981
H78	H	0.153073	0.206161	-0.000033
H79	H	0.822194	-0.562922	-0.240981
H80	H	0.597083	0.212714	-0.000049
H81	H	0.820233	-0.695030	-0.240990
Br82	Br	0.819935	-0.714826	0.312943
