data_functionalizedCrystal
_audit_creation_method	'MofGen! by Chris Wilmer'
_symmetry_space_group_name_H-M	'P1'
_symmetry_Int_Tables_number	1
_symmetry_cell_setting	triclinic
loop_
_symmetry_equiv_pos_as_xyz
  x,y,z
_cell_length_a	18.050591
_cell_length_b	18.050590
_cell_length_c	12.759393
_cell_angle_alpha	90.039509
_cell_angle_beta	89.972302
_cell_angle_gamma	89.981503
loop_
_atom_site_label
_atom_site_type_symbol
_atom_site_fract_x
_atom_site_fract_y
_atom_site_fract_z
Zn1	Zn	1.135372	0.295695	-0.594181
Zn2	Zn	1.135280	0.419905	-0.418477
Zn3	Zn	1.011176	0.295725	-0.418492
Zn4	Zn	1.011151	0.419839	-0.594090
O5	O	1.073245	0.357791	-0.506310
O6	O	1.239284	0.312187	-0.570905
O7	O	1.118790	0.403472	-0.271458
O8	O	1.027700	0.191796	-0.441842
O9	O	1.239217	0.403443	-0.441816
O10	O	1.118946	0.191774	-0.570920
O11	O	1.027611	0.312238	-0.271469
O12	O	0.907248	0.312173	-0.441754
O13	O	1.027657	0.403331	-0.741123
O14	O	0.907230	0.403360	-0.570765
O15	O	1.118922	0.312122	-0.741190
O16	O	1.118765	0.523821	-0.441728
O17	O	1.027569	0.523772	-0.570750
C18	C	0.880293	0.357763	-0.506252
C19	C	0.797747	0.357769	-0.506252
C20	C	0.598285	0.308125	-0.436258
C21	C	0.548870	0.375864	-0.410395
C22	C	0.646617	0.357792	-0.506300
C23	C	0.548950	0.290075	-0.532159
C24	C	0.500632	0.357807	-0.506344
C25	C	0.598289	0.425567	-0.480387
C26	C	0.598373	0.339732	-0.602196
C27	C	0.548981	0.407519	-0.576370
C28	C	0.730715	0.357782	-0.506272
C29	C	0.416535	0.357825	-0.506372
C30	C	1.073175	0.550743	-0.506250
C31	C	1.073212	0.633289	-0.506260
C32	C	1.122895	0.832739	-0.436177
C33	C	1.141035	0.882064	-0.532063
C34	C	1.073244	0.784419	-0.506288
C35	C	1.055170	0.882175	-0.410431
C36	C	1.073276	0.930404	-0.506306
C37	C	1.091419	0.832657	-0.602224
C38	C	1.005522	0.832764	-0.480528
C39	C	1.023637	0.882067	-0.576480
C40	C	1.073228	0.700321	-0.506276
C41	C	1.073293	1.014501	-0.506329
C42	C	1.266950	0.357819	-0.506369
C43	C	1.349496	0.357831	-0.506394
C44	C	1.073297	0.357716	-0.780344
C45	C	1.073319	0.357684	-0.897120
C46	C	1.073319	1.164085	-0.506370
C47	C	1.073306	1.081539	-0.506336
C48	C	1.120847	0.310187	-0.952019
C49	C	1.120865	0.310160	-1.061743
C50	C	1.025825	0.405133	-1.061661
C51	C	1.025804	0.405156	-0.951938
C52	C	1.175720	0.255358	-0.952068
C53	C	1.175738	0.255331	-1.061792
C54	C	1.073236	0.357812	-0.233343
C55	C	1.073358	0.357635	-0.116567
H56	H	0.619933	0.266168	-0.376961
H57	H	1.155165	0.200682	-1.095846
H58	H	0.987099	0.443829	-0.907244
C59	C	1.179643	0.803467	-0.356176
N60	N	1.222387	0.781416	-0.295926
C61	C	0.928159	0.803474	-0.451029
N62	N	0.869889	0.781410	-0.428797
C63	C	0.519910	0.464335	-0.656410
N64	N	0.498010	0.507132	-0.716690
H65	H	1.106663	0.810999	-0.683366
H66	H	1.233254	0.270739	-1.091580
C67	C	0.519674	0.212701	-0.561688
N68	N	0.497626	0.154421	-0.583922
C69	C	0.627779	0.319050	-0.711694
N70	N	0.649932	0.303462	-0.794167
H71	H	1.230338	0.275980	-0.918040
C72	C	0.519489	0.396513	-0.300863
N73	N	0.497361	0.412059	-0.218362
H74	H	0.981663	0.903590	-0.635847
H75	H	0.987138	0.443781	-1.106307
H76	H	1.160340	0.197843	-0.922319
H77	H	0.619871	0.482858	-0.458443
C78	C	1.218422	0.911327	-0.561514
N79	N	1.276712	0.933367	-0.583689
H80	H	1.039869	0.903926	-0.329359
