data_functionalizedCrystal
_audit_creation_method	'MofGen! by Chris Wilmer'
_symmetry_space_group_name_H-M	'P1'
_symmetry_Int_Tables_number	1
_symmetry_cell_setting	triclinic
loop_
_symmetry_equiv_pos_as_xyz
  x,y,z
_cell_length_a	16.109301
_cell_length_b	15.186229
_cell_length_c	16.109301
_cell_angle_alpha	90.007249
_cell_angle_beta	96.538519
_cell_angle_gamma	90.002208
loop_
_atom_site_label
_atom_site_type_symbol
_atom_site_fract_x
_atom_site_fract_y
_atom_site_fract_z
O1	O	-1.103127	0.073176	0.106869
O2	O	-0.861065	0.073190	0.120168
O3	O	-0.988746	0.073174	-0.007512
O4	O	-0.975446	0.073192	0.234550
O5	O	-0.988745	-0.073284	-0.007520
O6	O	-0.861064	-0.073267	0.120161
O7	O	-1.103126	-0.073282	0.106861
Zn8	Zn	-0.982095	-0.096528	0.113510
Zn9	Zn	-0.982096	0.096436	0.113520
O10	O	-0.975445	-0.073265	0.234542
C11	C	-0.830090	-0.000037	0.119626
C12	C	-0.737794	-0.000032	0.118011
N13	N	-0.982097	0.228129	0.113521
C14	C	-0.988206	-0.000056	-0.038491
C15	C	-0.986591	-0.000057	-0.130786
C16	C	-1.134101	-0.000053	0.107404
C17	C	-1.226397	-0.000052	0.109019
C18	C	-0.515522	-0.000036	0.190018
C19	C	-0.428801	-0.000042	0.188494
C20	C	-0.448676	-0.000050	0.037006
C21	C	-0.535394	-0.000051	0.038530
C22	C	-0.568815	-0.000039	0.115039
C23	C	-0.395376	-0.000045	0.111990
C24	C	-0.301350	-0.000051	0.110337
C25	C	-0.662847	-0.000035	0.116693
N26	N	-0.982100	-0.228220	0.113502
C27	C	-1.038743	0.453844	0.057093
C28	C	-1.038746	0.546034	0.057091
C29	C	-0.925451	0.546058	0.169936
C30	C	-0.925453	0.453870	0.169942
C31	C	-0.982099	0.407765	0.113515
C32	C	-0.982099	0.592143	0.113508
C33	C	-0.982101	0.692099	0.113506
C34	C	-0.982098	0.307803	0.113518
C35	C	-1.058599	-0.000047	-0.353059
C36	C	-1.057075	-0.000040	-0.439779
C37	C	-0.905586	-0.000034	-0.419905
C38	C	-0.907111	-0.000035	-0.333186
C39	C	-0.983620	-0.000046	-0.299766
C40	C	-0.980571	-0.000038	-0.473205
C41	C	-0.978918	-0.000030	-0.567231
C42	C	-0.985273	-0.000052	-0.205734
C43	C	-0.975984	-0.000034	0.265521
C44	C	-0.977600	-0.000027	0.357816
H45	H	-0.385413	-0.000041	0.249550
H46	H	-1.118130	-0.000039	-0.483168
H47	H	-1.084869	0.416308	0.011148
C48	C	-0.863983	0.596275	0.231096
C49	C	-0.876087	0.686873	0.219000
C50	C	-0.819467	0.733158	0.275317
H51	H	-0.872828	0.581287	0.286657
H52	H	-0.808515	0.581214	0.221931
H53	H	-0.931542	0.701928	0.228172
H54	H	-0.867236	0.701887	0.163451
H55	H	-0.763999	0.718096	0.266152
H56	H	-0.828316	0.718163	0.330874
H57	H	-0.827667	0.794633	0.267112
C58	C	-0.412437	-0.000232	-0.046083
C59	C	-0.439509	-0.075593	-0.091409
C60	C	-0.406137	-0.075792	-0.167952
H61	H	-0.430710	0.050780	-0.077048
H62	H	-0.353154	-0.000275	-0.036291
H63	H	-0.498779	-0.075542	-0.101204
H64	H	-0.421237	-0.126618	-0.060470
H65	H	-0.346854	-0.075836	-0.158159
H66	H	-0.424412	-0.024777	-0.198909
H67	H	-0.424494	-0.126927	-0.198711
C68	C	-0.825764	-0.000170	-0.275219
C69	C	-0.822226	-0.075506	-0.224845
C70	C	-0.747312	-0.075650	-0.171428
H71	H	-0.779911	-0.000214	-0.307436
H72	H	-0.823207	0.050878	-0.240923
H73	H	-0.824775	-0.126541	-0.259137
H74	H	-0.868062	-0.075478	-0.192610
H75	H	-0.744755	-0.024602	-0.137133
H76	H	-0.701464	-0.075691	-0.203652
H77	H	-0.744905	-0.126759	-0.137238
C78	C	-0.593222	0.000129	-0.042907
C79	C	-0.578139	0.075488	-0.088960
C80	C	-0.631401	0.075686	-0.163975
H81	H	-0.583145	-0.050885	-0.074383
H82	H	-0.649667	0.000175	-0.031075
H83	H	-0.521707	0.075434	-0.100794
H84	H	-0.588222	0.126514	-0.057510
H85	H	-0.687846	0.075732	-0.152143
H86	H	-0.621319	0.024669	-0.195443
H87	H	-0.621180	0.126819	-0.195228
C88	C	-1.100149	0.595937	-0.004371
C89	C	-1.086762	0.573419	-0.086075
C90	C	-1.143305	0.619344	-0.142747
H91	H	-1.155637	0.580840	0.004650
H92	H	-1.092084	0.657468	0.003580
H93	H	-1.094833	0.511902	-0.094023
H94	H	-1.031284	0.588518	-0.095123
H95	H	-1.135241	0.680875	-0.134795
H96	H	-1.198790	0.604244	-0.133718
H97	H	-1.134225	0.604079	-0.198189
C98	C	-0.864041	0.403675	0.231166
C99	C	-0.876185	0.313073	0.219108
C100	C	-0.819640	0.266807	0.275499
H101	H	-0.808550	0.418672	0.222065
H102	H	-0.872949	0.418742	0.286705
H103	H	-0.867270	0.298012	0.163583
H104	H	-0.931664	0.298050	0.228216
H105	H	-0.828548	0.281874	0.331038
H106	H	-0.764153	0.281811	0.266393
H107	H	-0.827877	0.205329	0.267331
H108	H	-0.843295	-0.000027	-0.447127
C109	C	-0.551647	-0.000078	0.273167
C110	C	-0.486409	-0.000101	0.338503
C111	C	-0.519653	-0.000154	0.415113
H112	H	-0.585048	0.050981	0.277037
H113	H	-0.585041	-0.051171	0.276950
H114	H	-0.453029	0.050988	0.334722
H115	H	-0.453003	-0.051156	0.334661
H116	H	-0.553047	-0.051247	0.418896
H117	H	-0.553053	0.050906	0.418974
H118	H	-0.475395	-0.000178	0.459453
C119	C	-1.141748	-0.000001	-0.316934
C120	C	-1.207084	0.000026	-0.382171
C121	C	-1.283694	0.000085	-0.348928
H122	H	-1.145617	-0.051059	-0.283536
H123	H	-1.145531	0.051093	-0.283536
H124	H	-1.203302	-0.051063	-0.415555
H125	H	-1.203242	0.051080	-0.415574
H126	H	-1.287477	0.051179	-0.315530
H127	H	-1.287554	-0.050974	-0.315531
H128	H	-1.328033	0.000111	-0.393186
