data_functionalizedCrystal
_audit_creation_method	'MofGen! by Chris Wilmer'
_symmetry_space_group_name_H-M	'P1'
_symmetry_Int_Tables_number	1
_symmetry_cell_setting	triclinic
loop_
_symmetry_equiv_pos_as_xyz
  x,y,z
_cell_length_a	11.026607
_cell_length_b	14.971482
_cell_length_c	13.448316
_cell_angle_alpha	89.993798
_cell_angle_beta	90.003018
_cell_angle_gamma	83.900688
loop_
_atom_site_label
_atom_site_type_symbol
_atom_site_fract_x
_atom_site_fract_y
_atom_site_fract_z
O1	O	-0.158159	1.212291	-0.082674
O2	O	0.175175	1.545624	0.250659
O3	O	0.508508	1.878957	0.583993
O4	O	-0.177106	0.954926	-0.082678
O5	O	0.156228	1.288259	0.250655
O6	O	0.489561	1.621593	0.583989
O7	O	0.009051	1.062278	-0.082675
O8	O	0.342385	1.395612	0.250658
O9	O	0.675718	1.728945	0.583992
O10	O	-0.344316	1.104939	-0.082677
O11	O	-0.010983	1.438272	0.250656
O12	O	0.322351	1.771605	0.583990
O13	O	0.009063	1.062259	0.082709
O14	O	0.342396	1.395592	0.416042
O15	O	0.675730	1.728926	0.749375
O16	O	-0.177094	0.954907	0.082706
O17	O	0.156239	1.288240	0.416039
O18	O	0.489572	1.621574	0.749372
O19	O	-0.158147	1.212272	0.082710
O20	O	0.175186	1.545605	0.416043
O21	O	0.508519	1.878938	0.749377
Cu22	Cu	-0.167620	1.083588	0.097809
Cu23	Cu	0.165714	1.416921	0.431142
Cu24	Cu	0.499047	1.750254	0.764475
Cu25	Cu	-0.167633	1.083610	-0.097777
Cu26	Cu	0.165700	1.416943	0.235556
Cu27	Cu	0.499033	1.750277	0.568890
O28	O	-0.344304	1.104919	0.082707
O29	O	-0.010971	1.438253	0.416040
O30	O	0.322362	1.771586	0.749373
C31	C	-0.176254	0.921456	0.000013
C32	C	0.157080	1.254789	0.333346
C33	C	0.490413	1.588123	0.666680
C34	C	-0.173717	0.821752	0.000011
C35	C	0.159617	1.155086	0.333345
C36	C	0.492950	1.488419	0.666678
C37	C	-0.172516	0.774906	0.090163
C38	C	0.160818	1.108239	0.423497
C39	C	0.494151	1.441573	0.756830
C40	C	-0.170113	0.681222	0.090164
C41	C	0.163221	1.014556	0.423498
C42	C	0.496554	1.347889	0.756831
C43	C	-0.168919	0.634388	0.000013
C44	C	0.164414	0.967721	0.333346
C45	C	0.497747	1.301054	0.666679
C46	C	-0.170117	0.681240	-0.090146
C47	C	0.163216	1.014574	0.243187
C48	C	0.496550	1.347907	0.576520
C49	C	-0.172511	0.774922	-0.090146
C50	C	0.160822	1.108255	0.243187
C51	C	0.494155	1.441588	0.576520
C52	C	-0.165129	0.485979	-0.090140
C53	C	0.168204	0.819313	0.243194
C54	C	0.501537	1.152646	0.576527
C55	C	-0.162737	0.392292	-0.090140
C56	C	0.170596	0.725625	0.243193
C57	C	0.503929	1.058958	0.576527
C58	C	-0.162731	0.392280	0.090171
C59	C	0.170602	0.725613	0.423504
C60	C	0.503936	1.058947	0.756837
C61	C	-0.165125	0.485961	0.090171
C62	C	0.168208	0.819295	0.423504
C63	C	0.501542	1.152628	0.756837
C64	C	-0.166325	0.532808	0.000012
C65	C	0.167009	0.866141	0.333345
C66	C	0.500342	1.199474	0.666678
C67	C	-0.389532	1.112799	0.000015
C68	C	-0.056199	1.446132	0.333348
C69	C	0.277134	1.779466	0.666681
C70	C	-0.524280	1.136260	0.000014
C71	C	-0.190947	1.469593	0.333347
C72	C	0.142387	1.802927	0.666680
C73	C	-0.597993	1.071480	0.000012
C74	C	-0.264659	1.404814	0.333345
C75	C	0.068674	1.738147	0.666679
C76	C	-0.737262	1.095727	0.000011
C77	C	-0.403928	1.429060	0.333344
C78	C	-0.070595	1.762393	0.666678
C79	C	0.054279	1.054399	0.000015
C80	C	0.387613	1.387732	0.333348
C81	C	0.720946	1.721065	0.666682
C82	C	0.189027	1.030938	0.000009
C83	C	0.522360	1.364271	0.333343
C84	C	0.855694	1.697604	0.666676
C85	C	-0.158999	1.245742	0.000016
C86	C	0.174334	1.579075	0.333350
C87	C	0.507667	1.912408	0.666683
C88	C	-0.161536	1.345445	0.000012
C89	C	0.171797	1.678779	0.333345
C90	C	0.505130	2.012112	0.666678
N91	N	-0.167609	1.083578	0.235373
N92	N	0.165724	1.416911	0.568706
N93	N	0.499057	1.750245	0.902040
N94	N	-0.167634	1.083625	-0.235341
N95	N	0.165699	1.416958	0.097992
N96	N	0.499033	1.750292	0.431325
C97	C	-0.085213	1.131138	0.287415
C98	C	0.248120	1.464471	0.620748
C99	C	0.581454	1.797805	0.954081
C100	C	-0.085212	1.131143	0.391518
C101	C	0.248121	1.464477	0.724851
C102	C	0.581455	1.797810	1.058185
C103	C	-0.167614	1.083594	0.443578
C104	C	0.165719	1.416927	0.776911
C105	C	0.499052	1.750260	1.110244
C106	C	-0.250015	1.036028	0.391528
C107	C	0.083319	1.369361	0.724862
C108	C	0.416652	1.702695	1.058195
C109	C	-0.250009	1.036018	0.287427
C110	C	0.083325	1.369351	0.620760
C111	C	0.416658	1.702684	0.954094
C112	C	-0.250023	1.036054	0.608509
C113	C	0.083311	1.369387	0.941842
C114	C	0.416644	1.702721	1.275175
C115	C	-0.250030	1.036065	0.712617
C116	C	0.083303	1.369399	1.045950
C117	C	0.416636	1.702732	1.379284
C118	C	-0.085226	1.131180	0.712599
C119	C	0.248107	1.464513	1.045933
C120	C	0.581441	1.797846	1.379266
C121	C	-0.085220	1.131170	0.608498
C122	C	0.248113	1.464503	0.941831
C123	C	0.581447	1.797836	1.275165
C124	C	-0.167622	1.083605	0.556456
C125	C	0.165711	1.416938	0.889789
C126	C	0.499044	1.750272	1.223123
H127	H	-0.173491	0.813063	-0.163557
H128	H	0.159842	1.146396	0.169776
H129	H	0.493175	1.479730	0.503109
H130	H	-0.018131	1.169908	0.754978
H131	H	0.315202	1.503241	1.088311
H132	H	0.648535	1.836575	1.421645
H133	H	-0.317120	0.997318	0.566140
H134	H	0.016214	1.330652	0.899473
H135	H	0.349547	1.663985	1.232806
H136	H	-0.317130	0.997344	0.754999
H137	H	0.016204	1.330678	1.088332
H138	H	0.349537	1.664011	1.421665
H139	H	-0.317103	0.997288	0.245056
H140	H	0.016231	1.330622	0.578389
H141	H	0.349564	1.663955	0.911722
Cl142	Cl	-0.174023	0.833775	0.203504
Cl143	Cl	0.159310	1.167108	0.536837
Cl144	Cl	0.492643	1.500442	0.870170
Cl145	Cl	-0.168625	0.622335	0.203503
Cl146	Cl	0.164709	0.955668	0.536837
Cl147	Cl	0.498042	1.289002	0.870170
H148	H	-0.166104	0.524092	0.163580
H149	H	0.167229	0.857425	0.496914
H150	H	0.500562	1.190759	0.830247
Cl151	Cl	-0.536252	0.958137	-0.000003
Cl152	Cl	-0.202919	1.291470	0.333331
Cl153	Cl	0.130414	1.624803	0.666664
Cl154	Cl	-0.586020	1.249604	0.000007
Cl155	Cl	-0.252687	1.582937	0.333340
Cl156	Cl	0.080646	1.916271	0.666674
Cl157	Cl	-0.798996	1.209075	0.000005
Cl158	Cl	-0.465663	1.542409	0.333338
Cl159	Cl	-0.132330	1.875742	0.666671
Cl160	Cl	-0.161234	0.333415	-0.203475
Cl161	Cl	0.172099	0.666748	0.129858
Cl162	Cl	0.505433	1.000081	0.463191
H163	H	-0.018118	1.169869	0.433890
H164	H	0.315215	1.503203	0.767223
H165	H	0.648549	1.836536	1.100557
Cl166	Cl	-0.353602	0.976245	0.456973
Cl167	Cl	-0.020269	1.309578	0.790306
Cl168	Cl	0.313064	1.642911	1.123639
H169	H	-0.770984	0.957522	0.000004
H170	H	-0.437650	1.290855	0.333337
H171	H	-0.104317	1.624189	0.666671
H172	H	-0.018117	1.169863	0.245035
H173	H	0.315217	1.503196	0.578368
H174	H	0.648550	1.836530	0.911701
Cl175	Cl	-0.166635	0.544870	-0.203485
Cl176	Cl	0.166699	0.878204	0.129849
Cl177	Cl	0.500032	1.211537	0.463182
Cl178	Cl	-0.161223	0.333388	0.203514
Cl179	Cl	0.172110	0.666722	0.536847
Cl180	Cl	0.505443	1.000055	0.870180
Cl181	Cl	-0.168572	0.622359	-0.203481
Cl182	Cl	0.164761	0.955693	0.129853
Cl183	Cl	0.498095	1.289026	0.463186
Cl184	Cl	0.018364	1.190953	0.543050
Cl185	Cl	0.351697	1.524286	0.876383
Cl186	Cl	0.685031	1.857620	1.209716
