data_functionalizedCrystal
_audit_creation_method	'MofGen! by Chris Wilmer'
_symmetry_space_group_name_H-M	'P1'
_symmetry_Int_Tables_number	1
_symmetry_cell_setting	triclinic
loop_
_symmetry_equiv_pos_as_xyz
  x,y,z
_cell_length_a	14.908795
_cell_length_b	14.908178
_cell_length_c	14.908694
_cell_angle_alpha	89.840902
_cell_angle_beta	96.796463
_cell_angle_gamma	96.402092
loop_
_atom_site_label
_atom_site_type_symbol
_atom_site_fract_x
_atom_site_fract_y
_atom_site_fract_z
Zn1	Zn	1.394304	-0.311873	0.572660
Zn2	Zn	1.894304	0.188127	1.072660
Zn3	Zn	1.376741	-0.454534	0.412549
Zn4	Zn	1.876741	0.045466	0.912549
Zn5	Zn	1.234199	-0.311896	0.412564
Zn6	Zn	1.734199	0.188104	0.912564
Zn7	Zn	1.233165	-0.470918	0.554116
Zn8	Zn	1.733165	0.029082	1.054116
O9	O	1.309602	-0.387305	0.487972
O10	O	1.809602	0.112695	0.987972
O11	O	1.519065	-0.323931	0.559176
O12	O	2.019065	0.176069	1.059176
O13	O	1.350915	-0.428766	0.286304
O14	O	1.850915	0.071234	0.786304
O15	O	1.263220	-0.185638	0.441567
O16	O	1.763220	0.314362	0.941567
O17	O	1.506162	-0.428744	0.441543
O18	O	2.006162	0.071256	0.941543
O19	O	1.380848	-0.185621	0.559190
O20	O	1.880848	0.314379	1.059190
O21	O	1.246190	-0.323971	0.286314
O22	O	1.746190	0.176029	0.786314
O23	O	1.106970	-0.339857	0.423586
O24	O	1.606970	0.160143	0.923586
O25	O	1.261458	-0.456667	0.682823
O26	O	1.761458	0.043333	1.182823
O27	O	1.106210	-0.456690	0.527584
O28	O	1.606210	0.043310	1.027584
O29	O	1.379846	-0.339818	0.696447
O30	O	1.879846	0.160182	1.196447
O31	O	1.349912	-0.582963	0.423561
O32	O	1.849912	-0.082963	0.923561
O33	O	1.244428	-0.595000	0.527570
O34	O	1.744428	-0.095000	1.027570
C35	C	1.073637	-0.400054	0.473575
C36	C	1.573637	0.099946	0.973575
C37	C	0.972690	-0.405531	0.467436
C38	C	1.472690	0.094469	0.967436
C39	C	0.823694	-0.467720	0.397455
C40	C	1.323694	0.032280	0.897455
C41	C	0.918542	-0.462577	0.403222
C42	C	1.418542	0.037423	0.903222
C43	C	0.931982	-0.353622	0.525884
C44	C	1.431982	0.146378	1.025884
C45	C	0.837134	-0.358764	0.520116
C46	C	1.337134	0.141236	1.020116
C47	C	0.782993	-0.415816	0.455900
C48	C	1.282993	0.084184	0.955900
C49	C	0.688143	-0.420963	0.450138
C50	C	1.188143	0.079037	0.950138
C51	C	0.701584	-0.312003	0.572794
C52	C	1.201584	0.187997	1.072794
C53	C	0.796433	-0.306861	0.578562
C54	C	1.296433	0.193139	1.078562
C55	C	1.295178	-0.621717	0.473573
C56	C	1.795178	-0.121717	0.973573
C57	C	1.289092	-0.721997	0.467448
C58	C	1.789092	-0.221997	0.967448
C59	C	1.400061	-0.910277	0.578538
C60	C	1.900061	-0.410277	1.078538
C61	C	1.394346	-1.004498	0.572786
C62	C	1.894346	-0.504498	1.072786
C63	C	1.271943	-1.004664	0.450199
C64	C	1.771943	-0.504664	0.950199
C65	C	1.277658	-0.910442	0.455950
C66	C	1.777658	-0.410442	0.955950
C67	C	1.341720	-0.863252	0.520121
C68	C	1.841720	-0.363252	1.020121
C69	C	1.347439	-0.769028	0.525868
C70	C	1.847439	-0.269028	1.025868
C71	C	1.225032	-0.769196	0.403285
C72	C	1.725032	-0.269196	0.903285
C73	C	1.219317	-0.863418	0.397533
C74	C	1.719317	-0.363418	0.897533
C75	C	1.546488	-0.374507	0.502426
C76	C	2.046488	0.125493	1.002426
C77	C	1.647435	-0.369054	0.508586
C78	C	2.147435	0.130946	1.008586
C79	C	1.322495	-0.400068	0.723285
C80	C	1.822495	0.099932	1.223285
C81	C	1.327990	-0.405506	0.823561
C82	C	1.827990	0.094494	1.323561
C83	C	1.324108	-0.151978	0.502449
C84	C	1.824108	0.348022	1.002449
C85	C	1.330290	-0.051695	0.508618
C86	C	1.830290	0.448305	1.008618
C87	C	1.296815	-0.374525	0.253582
C88	C	1.796815	0.125475	0.753582
C89	C	1.291512	-0.368823	0.153332
C90	C	1.791512	0.131177	0.653332
C91	C	1.229243	-0.306606	1.012003
C92	C	1.729243	0.193394	1.512003
C93	C	1.234403	-0.311713	1.106221
C94	C	1.734403	0.188287	1.606221
C95	C	1.343463	-0.420832	1.106218
C96	C	1.843463	0.079168	1.606218
C97	C	1.338304	-0.415725	1.012000
C98	C	1.838304	0.084275	1.512000
C99	C	1.281193	-0.358609	0.964895
C100	C	1.781193	0.141391	1.464895
C101	C	1.276039	-0.353497	0.870676
C102	C	1.776039	0.146503	1.370676
C103	C	1.385094	-0.462620	0.870674
C104	C	1.885094	0.037380	1.370674
C105	C	1.390253	-0.467728	0.964892
C106	C	1.890253	0.032272	1.464892
H107	H	0.951677	-0.504842	0.355629
H108	H	1.451677	-0.004842	0.855629
H109	H	1.436748	-0.514233	1.003257
H110	H	1.936748	-0.014233	1.503257
H111	H	1.452228	-0.871853	0.630782
H112	H	1.952228	-0.371853	1.130782
H113	H	1.441849	-1.042783	0.620359
H114	H	1.941849	-0.542783	1.120359
H115	H	0.840527	-0.260409	0.630842
H116	H	1.340527	0.239591	1.130842
H117	H	1.219783	-1.043103	0.397958
H118	H	1.719783	-0.543103	0.897958
H119	H	0.976080	-0.307168	0.578160
H120	H	1.476080	0.192832	1.078160
H121	H	1.389947	-0.467345	1.144586
H122	H	1.889947	0.032655	1.644586
H123	H	1.427398	-0.504962	0.832310
H124	H	1.927398	-0.004962	1.332310
H125	H	1.177530	-0.730897	0.355715
H126	H	1.677530	-0.230897	0.855715
C127	C	1.213213	-0.290671	0.818862
C128	C	1.713213	0.209329	1.318862
N129	N	1.165888	-0.243352	0.779838
N130	N	1.665888	0.256648	1.279838
H131	H	1.167158	-0.901853	0.345290
H132	H	1.667158	-0.401853	0.845290
C133	C	0.656806	-0.254911	0.637094
C134	C	1.156806	0.245089	1.137094
N135	N	0.623077	-0.211914	0.685526
N136	N	1.123077	0.288086	1.185526
C137	C	0.628589	-0.483717	0.379496
C138	C	1.128589	0.016283	0.879496
N139	N	0.583735	-0.530982	0.326284
N140	N	1.083735	-0.030982	0.826284
C141	C	1.177258	-0.254501	1.158036
C142	C	1.677258	0.245499	1.658036
N143	N	1.134216	-0.211405	1.197063
N144	N	1.634216	0.288595	1.697063
C145	C	0.764137	-0.530481	0.326822
C146	C	1.264137	-0.030481	0.826822
N147	N	0.719279	-0.577754	0.273619
N148	N	1.219279	-0.077754	0.773619
C149	C	1.417907	-0.717120	0.596457
C150	C	1.917907	-0.217120	1.096457
N151	N	1.470983	-0.678026	0.649629
N152	N	1.970983	-0.178026	1.149629
C153	C	1.166425	-0.243775	0.960186
C154	C	1.666425	0.256225	1.460186
N155	N	1.119109	-0.196450	0.921159
N156	N	1.619109	0.303550	1.421159
