data_functionalizedCrystal
_audit_creation_method	'MofGen! by Chris Wilmer'
_symmetry_space_group_name_H-M	'P1'
_symmetry_Int_Tables_number	1
_symmetry_cell_setting	triclinic
loop_
_symmetry_equiv_pos_as_xyz
  x,y,z
_cell_length_a	18.215407
_cell_length_b	19.805405
_cell_length_c	18.215399
_cell_angle_alpha	89.968971
_cell_angle_beta	89.983584
_cell_angle_gamma	90.023870
loop_
_atom_site_label
_atom_site_type_symbol
_atom_site_fract_x
_atom_site_fract_y
_atom_site_fract_z
Zn1	Zn	1.125061	-0.269513	-0.416045
Zn2	Zn	1.625061	0.230487	0.083955
Zn3	Zn	1.124967	-0.382705	-0.292973
Zn4	Zn	1.624967	0.117295	0.207027
Zn5	Zn	1.001994	-0.269530	-0.292998
Zn6	Zn	1.501994	0.230470	0.207002
Zn7	Zn	1.001956	-0.382661	-0.416004
Zn8	Zn	1.501956	0.117339	0.083996
O9	O	1.063494	-0.326102	-0.354505
O10	O	1.563494	0.173898	0.145495
O11	O	1.228032	-0.284540	-0.399725
O12	O	1.728032	0.215460	0.100275
O13	O	1.108631	-0.367718	-0.189992
O14	O	1.608631	0.132282	0.310008
O15	O	1.018375	-0.174811	-0.309348
O16	O	1.518375	0.325189	0.190652
O17	O	1.227963	-0.367701	-0.309305
O18	O	1.727963	0.132299	0.190695
O19	O	1.108791	-0.174799	-0.399750
O20	O	1.608791	0.325201	0.100250
O21	O	1.018284	-0.284569	-0.190011
O22	O	1.518284	0.215431	0.309989
O23	O	0.899005	-0.284526	-0.309309
O24	O	1.399005	0.215474	0.190691
O25	O	1.018309	-0.367626	-0.518994
O26	O	1.518309	0.132374	-0.018994
O27	O	0.898977	-0.367642	-0.399681
O28	O	1.398977	0.132358	0.100319
O29	O	1.108754	-0.284497	-0.519024
O30	O	1.608754	0.215503	-0.019024
O31	O	1.108594	-0.477416	-0.309265
O32	O	1.608594	0.022584	0.190735
O33	O	1.018218	-0.477383	-0.399656
O34	O	1.518218	0.022617	0.100344
C35	C	0.872288	-0.326082	-0.354494
C36	C	1.372288	0.173918	0.145506
C37	C	0.790489	-0.326089	-0.354506
C38	C	1.290489	0.173911	0.145494
C39	C	0.525436	-0.369452	-0.401497
C40	C	1.025436	0.130548	0.098503
C41	C	0.602295	-0.369446	-0.401493
C42	C	1.102295	0.130554	0.098507
C43	C	0.602294	-0.282768	-0.307526
C44	C	1.102294	0.217232	0.192474
C45	C	0.525436	-0.282777	-0.307526
C46	C	1.025436	0.217223	0.192474
C47	C	0.487010	-0.326119	-0.354516
C48	C	0.987010	0.173881	0.145484
C49	C	0.640726	-0.326103	-0.354512
C50	C	1.140726	0.173897	0.145488
C51	C	0.724059	-0.326097	-0.354508
C52	C	1.224059	0.173903	0.145492
C53	C	0.403671	-0.326126	-0.354519
C54	C	0.903671	0.173874	0.145481
C55	C	1.063412	-0.501958	-0.354469
C56	C	1.563412	-0.001958	0.145531
C57	C	1.063443	-0.577190	-0.354479
C58	C	1.563443	-0.077190	0.145521
C59	C	1.110548	-0.612529	-0.307462
C60	C	1.610548	-0.112529	0.192538
C61	C	1.110579	-0.683217	-0.307478
C62	C	1.610579	-0.183217	0.192522
C63	C	1.063502	-0.718566	-0.354508
C64	C	1.563502	-0.218566	0.145492
C65	C	1.016395	-0.683222	-0.401530
C66	C	1.516395	-0.183222	0.098470
C67	C	1.016368	-0.612535	-0.401517
C68	C	1.516368	-0.112535	0.098483
C69	C	1.016504	-0.968296	-0.401585
C70	C	1.516504	-0.468296	0.098415
C71	C	1.016533	-1.038988	-0.401593
C72	C	1.516533	-0.538988	0.098407
C73	C	1.110715	-1.038978	-0.307545
C74	C	1.610715	-0.538978	0.192455
C75	C	1.110688	-0.968291	-0.307532
C76	C	1.610688	-0.468291	0.192468
C77	C	1.063584	-0.932953	-0.354557
C78	C	1.563584	-0.432953	0.145443
C79	C	1.063552	-0.856305	-0.354540
C80	C	1.563552	-0.356305	0.145460
C81	C	1.063530	-0.795213	-0.354522
C82	C	1.563530	-0.295213	0.145478
C83	C	1.255447	-0.326124	-0.354517
C84	C	1.755447	0.173876	0.145483
C85	C	1.337246	-0.326133	-0.354522
C86	C	1.837246	0.173867	0.145478
C87	C	1.063538	-0.326054	-0.546458
C88	C	1.563538	0.173946	-0.046458
C89	C	1.063556	-0.326034	-0.628257
C90	C	1.563556	0.173966	-0.128257
C91	C	1.063598	-0.149560	-0.354557
C92	C	1.563598	0.350440	0.145443
C93	C	1.063641	-0.074328	-0.354579
C94	C	1.563641	0.425672	0.145421
C95	C	1.110678	-0.282690	-0.893331
C96	C	1.610678	0.217310	-0.393331
C97	C	1.110669	-0.282709	-0.816473
C98	C	1.610669	0.217291	-0.316473
C99	C	1.016494	-0.369279	-0.816431
C100	C	1.516494	0.130721	-0.316431
C101	C	1.016507	-0.369264	-0.893288
C102	C	1.516507	0.130736	-0.393288
C103	C	1.063598	-0.325966	-0.931737
C104	C	1.563598	0.174034	-0.431737
C105	C	1.063576	-0.325999	-0.778020
C106	C	1.563576	0.174001	-0.278020
C107	C	1.063566	-0.326019	-0.694687
C108	C	1.563566	0.173981	-0.194687
C109	C	1.063609	-0.325946	-1.015076
C110	C	1.563609	0.174054	-0.515076
C111	C	1.063494	-0.326101	-0.163299
C112	C	1.563494	0.173899	0.336701
C113	C	1.063618	-0.325931	-0.081500
C114	C	1.563618	0.174069	0.418500
H115	H	0.494149	-0.247489	-0.269265
H116	H	0.994149	0.252511	0.230735
H117	H	1.149007	-0.247470	-0.785206
H118	H	1.649007	0.252530	-0.285206
H119	H	0.978153	-0.404530	-0.785117
H120	H	1.478153	0.095470	-0.285117
O121	O	1.156319	-0.240564	-0.930713
O122	O	1.656319	0.259436	-0.430713
C123	C	1.166286	-0.149189	-1.017550
C124	C	1.666286	0.350811	-0.517550
C125	C	1.114511	-0.196844	-0.975252
C126	C	1.614511	0.303156	-0.475252
H127	H	1.132507	-0.113838	-1.053582
H128	H	1.632507	0.386162	-0.553582
H129	H	1.199922	-0.118214	-0.976928
H130	H	1.699922	0.381786	-0.476928
H131	H	1.204772	-0.180272	-1.053495
H132	H	1.704772	0.319728	-0.553495
H133	H	1.075982	-0.165812	-0.939307
H134	H	1.575982	0.334188	-0.439307
H135	H	1.080928	-0.227821	-1.015914
H136	H	1.580928	0.272179	-0.515914
H137	H	0.494151	-0.404743	-0.439758
H138	H	0.994151	0.095257	0.060242
H139	H	0.633578	-0.404733	-0.439749
H140	H	1.133578	0.095267	0.060251
O141	O	0.639540	-0.240572	-0.261919
O142	O	1.139540	0.259428	0.238081
C143	C	0.663108	-0.125395	-0.226435
C144	C	1.163108	0.374605	0.273565
C145	C	0.620873	-0.173107	-0.278121
C146	C	1.120873	0.326893	0.221879
H147	H	0.648044	-0.070840	-0.239526
H148	H	1.148044	0.429160	0.260474
H149	H	0.647959	-0.137165	-0.167061
H150	H	1.147959	0.362835	0.332939
H151	H	0.724638	-0.132863	-0.234489
H152	H	1.224638	0.367137	0.265511
H153	H	0.559333	-0.165666	-0.270132
H154	H	1.059333	0.334334	0.229868
H155	H	0.636084	-0.161326	-0.337476
H156	H	1.136084	0.338674	0.162524
H157	H	0.978067	-0.712009	-0.439826
H158	H	1.478067	-0.212009	0.060174
O159	O	0.970701	-0.411325	-0.930486
O160	O	1.470701	0.088675	-0.430486
C161	C	0.877323	-0.497224	-0.922341
C162	C	1.377323	0.002776	-0.422341
C163	C	0.929142	-0.449613	-0.880123
C164	C	1.429142	0.050387	-0.380123
H165	H	0.843720	-0.528202	-0.881641
H166	H	1.343720	-0.028202	-0.381641
H167	H	0.838816	-0.466172	-0.958311
H168	H	1.338816	0.033828	-0.458311
H169	H	0.911114	-0.532579	-0.958334
H170	H	1.411114	-0.032579	-0.458334
H171	H	0.895411	-0.414249	-0.844090
H172	H	1.395411	0.085751	-0.344090
H173	H	0.967651	-0.480707	-0.844199
H174	H	1.467651	0.019293	-0.344199
H175	H	1.148880	-0.583753	-0.269161
H176	H	1.648880	-0.083753	0.230839
H177	H	1.148935	-0.711987	-0.269191
H178	H	1.648935	-0.211987	0.230809
H179	H	1.149071	-1.067758	-0.269258
H180	H	1.649071	-0.567758	0.230742
O181	O	1.156383	-0.934029	-0.261745
O182	O	1.656383	-0.434029	0.238255
C183	C	1.192148	-0.912423	-0.136589
C184	C	1.692148	-0.412423	0.363411
C185	C	1.140360	-0.951277	-0.188358
C186	C	1.640360	-0.451277	0.311642
H187	H	1.179201	-0.926343	-0.077244
H188	H	1.679201	-0.426343	0.422756
H189	H	1.251498	-0.926285	-0.149509
H190	H	1.751498	-0.426285	0.350491
H191	H	1.184050	-0.855834	-0.144694
H192	H	1.684050	-0.355834	0.355306
H193	H	1.148392	-1.007874	-0.180282
H194	H	1.648392	-0.507874	0.319718
H195	H	1.081028	-0.937359	-0.175426
H196	H	1.581028	-0.437359	0.324574
O197	O	0.970780	-1.073222	-0.447354
O198	O	1.470780	-0.573222	0.052646
C199	C	0.877336	-1.065776	-0.540617
C200	C	1.377336	-0.565776	-0.040617
C201	C	0.929122	-1.026922	-0.488847
C202	C	1.429122	-0.526922	0.011153
H203	H	0.843631	-1.028360	-0.574167
H204	H	1.343631	-0.528360	-0.074167
H205	H	0.911085	-1.098804	-0.579176
H206	H	1.411085	-0.598804	-0.079176
H207	H	0.838917	-1.098937	-0.506792
H208	H	1.338917	-0.598937	-0.006792
H209	H	0.967552	-0.993725	-0.522613
H210	H	1.467552	-0.493725	-0.022613
H211	H	0.895328	-0.993937	-0.450286
H212	H	1.395328	-0.493937	0.049714
H213	H	0.978149	-0.939529	-0.439872
H214	H	1.478149	-0.439529	0.060128
H215	H	0.978012	-0.583763	-0.439804
H216	H	1.478012	-0.083763	0.060196
