data_functionalizedCrystal
_audit_creation_method	'MofGen! by Chris Wilmer'
_symmetry_space_group_name_H-M	'P1'
_symmetry_Int_Tables_number	1
_symmetry_cell_setting	triclinic
loop_
_symmetry_equiv_pos_as_xyz
  x,y,z
_cell_length_a	6.817900
_cell_length_b	11.102289
_cell_length_c	16.305550
_cell_angle_alpha	93.871858
_cell_angle_beta	103.455250
_cell_angle_gamma	108.605707
loop_
_atom_site_label
_atom_site_type_symbol
_atom_site_fract_x
_atom_site_fract_y
_atom_site_fract_z
V1	V	-4.052585	-0.176912	-0.263031
O2	O	-4.012740	0.007398	-0.258024
O3	O	-4.029765	-0.349724	-0.261232
O4	O	-4.003658	-0.174675	-0.377748
O5	O	-4.039028	-0.168864	-0.140702
V6	V	-4.532967	-0.154809	-0.248400
O7	O	-4.320734	-0.225396	-0.295127
O8	O	-4.715015	-0.106325	-0.216304
O9	O	-4.332580	0.018004	-0.250199
O10	O	-4.690209	-0.339118	-0.253407
O11	O	-4.663921	-0.162856	-0.370729
O12	O	-4.358687	-0.157046	-0.133683
C13	C	-3.881006	-0.391837	-0.257083
C14	C	-3.943631	-0.533117	-0.256376
C15	C	-4.156117	-0.605981	-0.260253
C16	C	-4.214952	-0.738730	-0.259597
C17	C	-3.848793	-0.725738	-0.251183
C18	C	-3.789964	-0.592993	-0.251846
C19	C	-4.367515	-0.613483	-0.265106
C20	C	-4.426350	-0.746231	-0.264450
C21	C	-3.847703	-0.168542	-0.405710
C22	C	-3.889152	-0.167857	-0.499491
C23	C	-4.039843	-0.165201	-0.840237
C24	C	-3.802622	-0.157314	-0.799308
C25	C	-3.759612	-0.158554	-0.701813
C26	C	-3.965082	-0.166518	-0.671189
C27	C	-4.150803	-0.292033	-0.721815
C28	C	-4.192560	-0.291323	-0.819365
C29	C	-4.077235	-0.048574	-0.794394
C30	C	-4.029158	-0.047581	-0.696551
C31	C	-3.922844	-0.167267	-0.575651
C32	C	-4.082092	-0.164460	-0.935776
C33	C	-4.144682	0.060110	-0.254346
C34	C	-4.061295	0.201389	-0.255058
C35	C	-4.177985	-0.163182	-0.105717
C36	C	-4.115773	-0.163861	-0.011934
H37	H	-4.380913	-0.560013	-0.205625
F38	F	-3.685265	-0.789473	-0.246362
H39	H	-4.305502	-0.302400	-0.702903
F40	F	-4.303038	-0.054661	-0.829446
F41	F	-4.421906	-0.305688	-0.855952
H42	H	-3.682983	-0.066643	-0.811672
F43	F	-4.580123	-0.822209	-0.346176
H44	H	-4.108517	-0.380346	-0.705003
F45	F	-4.510290	-0.778567	-0.189129
H46	H	-3.619679	-0.068308	-0.666790
H47	H	-3.770006	-0.241106	-0.830820
F48	F	-4.495746	-0.588680	-0.345300
H49	H	-3.894289	0.045258	-0.662173
H50	H	-3.705805	-0.243312	-0.685520
H51	H	-4.169561	-0.379613	-0.849746
F52	F	-3.939266	0.075732	-0.811868
F53	F	-4.221359	-0.045529	-0.668642
H54	H	-3.616948	-0.533674	-0.248699
