data_functionalizedCrystal
_audit_creation_method	'MofGen! by Chris Wilmer'
_symmetry_space_group_name_H-M	'P1'
_symmetry_Int_Tables_number	1
_symmetry_cell_setting	triclinic
loop_
_symmetry_equiv_pos_as_xyz
  x,y,z
_cell_length_a	15.944493
_cell_length_b	15.944493
_cell_length_c	14.421503
_cell_angle_alpha	90.010165
_cell_angle_beta	89.992936
_cell_angle_gamma	83.475044
loop_
_atom_site_label
_atom_site_type_symbol
_atom_site_fract_x
_atom_site_fract_y
_atom_site_fract_z
O1	O	1.114537	0.108091	-0.077087
O2	O	1.614537	0.608091	0.422913
O3	O	0.869978	0.121499	-0.077090
O4	O	1.369978	0.621499	0.422910
O5	O	0.998961	-0.007484	-0.077096
O6	O	1.498961	0.492516	0.422904
O7	O	0.985554	0.237075	-0.077081
O8	O	1.485554	0.737075	0.422919
O9	O	0.998940	-0.007465	0.077127
O10	O	1.498940	0.492535	0.577127
O11	O	0.869957	0.121518	0.077133
O12	O	1.369957	0.621518	0.577133
O13	O	1.114516	0.108111	0.077136
O14	O	1.614516	0.608111	0.577136
Cu15	Cu	0.992234	0.114816	0.091217
Cu16	Cu	1.492234	0.614816	0.591217
Cu17	Cu	0.992260	0.114793	-0.091170
Cu18	Cu	1.492260	0.614793	0.408830
O19	O	0.985532	0.237094	0.077142
O20	O	1.485532	0.737094	0.577142
C21	C	0.838673	0.120961	0.000021
C22	C	1.338673	0.620961	0.500021
C23	C	0.745424	0.119318	0.000019
C24	C	1.245424	0.619318	0.500019
C25	C	0.509649	0.195240	0.000023
C26	C	1.009649	0.695240	0.500023
C27	C	0.459088	0.154308	0.076065
C28	C	0.959088	0.654308	0.576065
C29	C	0.574704	0.116273	0.000021
C30	C	1.074704	0.616273	0.500021
C31	C	0.459114	0.154270	-0.075987
C32	C	0.959114	0.654270	0.424013
C33	C	0.409795	0.113339	0.000018
C34	C	0.909795	0.613339	0.500018
C35	C	0.525372	0.075362	0.076125
C36	C	1.025372	0.575362	0.576125
C37	C	0.525401	0.075336	-0.075995
C38	C	1.025401	0.575336	0.424005
C39	C	0.474873	0.034346	0.000065
C40	C	0.974873	0.534346	0.500065
C41	C	0.669704	0.117966	0.000023
C42	C	1.169704	0.617966	0.500023
C43	C	0.314798	0.111640	0.000023
C44	C	0.814798	0.611640	0.500023
C45	C	0.998403	-0.038769	0.000011
C46	C	1.498403	0.461231	0.500011
C47	C	0.996760	-0.132018	-0.000000
C48	C	1.496760	0.367982	0.500000
C49	C	1.072682	-0.367793	0.000018
C50	C	1.572682	0.132207	0.500018
C51	C	1.031751	-0.418362	-0.076022
C52	C	1.531751	0.081638	0.423978
C53	C	0.993716	-0.302738	0.000011
C54	C	1.493716	0.197262	0.500011
C55	C	1.031711	-0.418320	0.076030
C56	C	1.531711	0.081680	0.576030
C57	C	0.990781	-0.467647	0.000026
C58	C	1.490781	0.032353	0.500026
C59	C	0.952805	-0.352079	-0.076092
C60	C	1.452805	0.147921	0.423908
C61	C	0.952777	-0.352033	0.076029
C62	C	1.452777	0.147967	0.576029
C63	C	0.911788	-0.402569	-0.000030
C64	C	1.411788	0.097431	0.499970
C65	C	0.995408	-0.207739	0.000002
C66	C	1.495408	0.292261	0.500002
C67	C	0.989082	-0.562644	0.000029
C68	C	1.489082	-0.062644	0.500029
C69	C	1.145821	0.108649	0.000023
C70	C	1.645821	0.608649	0.500023
C71	C	1.239069	0.110292	0.000019
C72	C	1.739069	0.610292	0.500019
C73	C	0.986091	0.268379	0.000033
C74	C	1.486091	0.768379	0.500033
C75	C	0.987734	0.361627	0.000038
C76	C	1.487734	0.861627	0.500038
N77	N	0.992223	0.114832	0.219498
N78	N	1.492223	0.614832	0.719498
N79	N	0.992278	0.114771	-0.219452
N80	N	1.492278	0.614771	0.280548
C81	C	0.932570	0.174447	0.469154
C82	C	1.432570	0.674447	0.969154
C83	C	1.008469	0.190739	0.530959
C84	C	1.508469	0.690739	1.030959
C85	C	0.992243	0.114812	0.408659
C86	C	1.492243	0.614812	0.908659
C87	C	0.916364	0.098539	0.530948
C88	C	1.416364	0.598539	1.030948
C89	C	0.992256	0.114794	0.591381
C90	C	1.492256	0.614794	1.091381
C91	C	1.068180	0.131141	0.469103
C92	C	1.568180	0.631141	0.969103
C93	C	0.976025	0.038909	0.469087
C94	C	1.476025	0.538909	0.969087
C95	C	1.051979	0.055169	0.530864
C96	C	1.551979	0.555169	1.030864
C97	C	0.992234	0.114824	0.303398
C98	C	1.492234	0.614824	0.803398
C99	C	0.992273	0.114781	0.696640
C100	C	1.492273	0.614781	1.196640
H101	H	0.459422	-0.033727	0.000104
H102	H	0.959422	0.466273	0.500104
H103	H	1.132369	0.144974	0.442052
H104	H	1.632369	0.644974	0.942052
Br105	Br	1.136184	-0.028905	0.575749
Br106	Br	1.636184	0.471095	1.075749
H107	H	0.554198	0.042042	0.140476
H108	H	1.054198	0.542042	0.640476
H109	H	0.554363	0.042005	-0.140289
H110	H	1.054363	0.542005	0.359711
Br111	Br	1.186051	-0.341766	-0.000101
Br112	Br	1.686051	0.158234	0.499899
H113	H	0.852189	0.084784	0.558116
H114	H	1.352189	0.584784	1.058116
H115	H	0.525258	0.263261	0.000099
H116	H	1.025258	0.763261	0.500099
Br117	Br	0.798330	-0.428326	-0.000095
Br118	Br	1.298330	0.071674	0.499905
Br119	Br	1.087346	-0.466634	-0.183171
Br120	Br	1.587346	0.033366	0.316829
H121	H	0.430177	0.187627	-0.140266
H122	H	0.930177	0.687627	0.359734
H123	H	0.962272	-0.025252	0.441889
H124	H	1.462272	0.474748	0.941889
Br125	Br	0.897244	-0.303713	0.183183
Br126	Br	1.397244	0.196287	0.683183
Br127	Br	0.848546	0.258565	0.423987
Br128	Br	1.348546	0.758565	0.923987
H129	H	0.430135	0.187664	0.140356
H130	H	0.930135	0.687664	0.640356
Br131	Br	0.897270	-0.304053	-0.183357
Br132	Br	1.397270	0.195947	0.316643
H133	H	1.065067	-0.447250	0.140312
H134	H	1.565067	0.052750	0.640312
Br135	Br	1.031356	0.297710	0.576255
Br136	Br	1.531356	0.797710	1.076255
