data_functionalizedCrystal
_audit_creation_method	'MofGen! by Chris Wilmer'
_symmetry_space_group_name_H-M	'P1'
_symmetry_Int_Tables_number	1
_symmetry_cell_setting	triclinic
loop_
_symmetry_equiv_pos_as_xyz
  x,y,z
_cell_length_a	19.077236
_cell_length_b	13.897447
_cell_length_c	19.077271
_cell_angle_alpha	87.710805
_cell_angle_beta	90.102669
_cell_angle_gamma	92.312415
loop_
_atom_site_label
_atom_site_type_symbol
_atom_site_fract_x
_atom_site_fract_y
_atom_site_fract_z
Zn1	Zn	1.058231	-0.350310	0.440550
Zn2	Zn	1.558231	0.149690	0.940550
Zn3	Zn	1.062902	-0.504847	0.323049
Zn4	Zn	1.562902	-0.004847	0.823049
Zn5	Zn	0.945469	-0.349759	0.318331
Zn6	Zn	1.445469	0.150241	0.818331
Zn7	Zn	0.940702	-0.517758	0.435787
Zn8	Zn	1.440702	-0.017758	0.935787
O9	O	1.001826	-0.430668	0.379429
O10	O	1.501826	0.069332	0.879429
O11	O	1.157183	-0.365637	0.428931
O12	O	1.657183	0.134363	0.928931
O13	O	1.051275	-0.478641	0.224093
O14	O	1.551275	0.021359	0.724093
O15	O	0.960468	-0.214849	0.334562
O16	O	1.460468	0.285151	0.834562
O17	O	1.160615	-0.479175	0.342604
O18	O	1.660615	0.020825	0.842604
O19	O	1.043313	-0.215254	0.424356
O20	O	1.543313	0.284746	0.924356
O21	O	0.964997	-0.364698	0.220626
O22	O	1.464997	0.135302	0.720626
O23	O	0.846504	-0.377217	0.329944
O24	O	1.346504	0.122783	0.829944
O25	O	0.952342	-0.501179	0.534749
O26	O	1.452342	-0.001179	1.034749
O27	O	0.843001	-0.500645	0.416238
O28	O	1.343001	-0.000645	0.916238
O29	O	1.038690	-0.378156	0.538248
O30	O	1.538690	0.121844	1.038248
O31	O	1.046652	-0.641543	0.337985
O32	O	1.546652	-0.141543	0.837985
O33	O	0.956871	-0.651028	0.420813
O34	O	1.456871	-0.151028	0.920813
C35	C	0.819256	-0.440273	0.372062
C36	C	1.319256	0.059727	0.872062
C37	C	0.741151	-0.444405	0.368927
C38	C	1.241151	0.055595	0.868927
C39	C	0.702669	-0.387336	0.412469
C40	C	1.202669	0.112664	0.912469
C41	C	0.629281	-0.391214	0.409518
C42	C	1.129281	0.108786	0.909518
C43	C	0.594377	-0.452168	0.363027
C44	C	1.094377	0.047832	0.863027
C45	C	0.632866	-0.509240	0.319481
C46	C	1.132866	-0.009240	0.819481
C47	C	0.706252	-0.505356	0.322429
C48	C	1.206252	-0.005356	0.822429
C49	C	0.375088	-0.470107	0.349379
C50	C	0.875088	0.029893	0.849379
C51	C	0.301696	-0.473989	0.346435
C52	C	0.801696	0.026011	0.846435
C53	C	0.298116	-0.355961	0.436471
C54	C	0.798116	0.144039	0.936471
C55	C	0.371504	-0.352087	0.439419
C56	C	0.871504	0.147913	0.939419
C57	C	0.409986	-0.409155	0.395870
C58	C	0.909986	0.090845	0.895870
N59	N	0.519363	-0.456136	0.360011
N60	N	1.019363	0.043864	0.860011
N61	N	0.484999	-0.405182	0.398883
N62	N	0.984999	0.094818	0.898883
C63	C	1.001770	-0.681285	0.379410
C64	C	1.501770	-0.181285	0.879410
C65	C	1.001809	-0.788498	0.379429
C66	C	1.501809	-0.288498	0.879429
C67	C	1.001842	-0.875567	0.379446
C68	C	1.501842	-0.375567	0.879446
C69	C	1.001891	-0.984797	0.379466
C70	C	1.501891	-0.484797	0.879466
C71	C	1.185109	-0.421028	0.386825
C72	C	1.685109	0.078972	0.886825
C73	C	1.263213	-0.416919	0.389977
C74	C	1.763213	0.083081	0.889977
C75	C	0.994463	-0.441169	0.562707
C76	C	1.494463	0.058831	1.062707
C77	C	0.991326	-0.445644	0.640809
C78	C	1.491326	0.054356	1.140809
C79	C	1.001901	-0.179073	0.379464
C80	C	1.501901	0.320927	0.879464
C81	C	1.001933	-0.071858	0.379479
C82	C	1.501933	0.428142	0.879479
C83	C	1.034806	-0.383697	0.679325
C84	C	1.534806	0.116303	1.179325
C85	C	1.031849	-0.387899	0.752710
C86	C	1.531849	0.112101	1.252710
C87	C	0.985415	-0.454052	0.787578
C88	C	1.485415	0.045948	1.287578
C89	C	0.941930	-0.516001	0.749057
C90	C	1.441930	-0.016001	1.249057
C91	C	0.944883	-0.511794	0.675674
C92	C	1.444883	-0.011794	1.175674
C93	C	0.971757	-0.473497	1.006857
C94	C	1.471757	0.026503	1.506857
C95	C	0.968808	-0.477701	1.080246
C96	C	1.468808	0.022299	1.580246
C97	C	1.058728	-0.349597	1.083893
C98	C	1.558728	0.150403	1.583893
C99	C	1.061680	-0.345400	1.010508
C100	C	1.561680	0.154600	1.510508
C101	C	1.018192	-0.407345	0.971993
C102	C	1.518192	0.092655	1.471993
N103	N	0.982393	-0.458350	0.862590
N104	N	1.482393	0.041650	1.362590
N105	N	1.021211	-0.403042	0.896983
N106	N	1.521211	0.096958	1.396983
C107	C	1.009154	-0.420230	1.196864
C108	C	1.509154	0.079770	1.696864
C109	C	1.012289	-0.415754	1.118761
C110	C	1.512289	0.084246	1.618761
H111	H	0.737584	-0.551827	0.286972
H112	H	1.237584	-0.051827	0.786972
H113	H	0.604441	-0.558865	0.281624
H114	H	1.104441	-0.058865	0.781624
H115	H	0.399918	-0.302456	0.477279
H116	H	0.899918	0.197544	0.977279
O117	O	0.923636	-0.541992	1.114006
O118	O	1.423636	-0.041992	1.614006
C119	C	0.834788	-0.668647	1.102650
C120	C	1.334788	-0.168647	1.602650
C121	C	0.885895	-0.595871	1.064327
C122	C	1.385895	-0.095871	1.564327
H123	H	0.804270	-0.712241	1.062501
H124	H	1.304270	-0.212241	1.562501
H125	H	0.796634	-0.628308	1.135511
H126	H	1.296634	-0.128308	1.635511
H127	H	0.865664	-0.719317	1.138320
H128	H	1.365664	-0.219317	1.638320
H129	H	0.855076	-0.545182	1.028621
H130	H	1.355076	-0.045182	1.528621
H131	H	0.924048	-0.636272	1.031510
H132	H	1.424048	-0.136272	1.531510
H133	H	0.266777	-0.309499	0.471925
H134	H	0.766777	0.190501	0.971925
O135	O	1.074112	-0.327858	0.790207
O136	O	1.574112	0.172142	1.290207
C137	C	1.165666	-0.314626	0.876881
C138	C	1.665666	0.185374	1.376881
C139	C	1.117840	-0.382739	0.834471
C140	C	1.617840	0.117261	1.334471
H141	H	1.201043	-0.358970	0.912667
H142	H	1.701043	0.141030	1.412667
H143	H	1.132065	-0.267875	0.909983
H144	H	1.632065	0.232125	1.409983
H145	H	1.199333	-0.266598	0.839346
H146	H	1.699333	0.233402	1.339346
H147	H	1.084164	-0.430828	0.871955
H148	H	1.584164	0.069172	1.371955
H149	H	1.151482	-0.429425	0.801360
H150	H	1.651482	0.070575	1.301360
H151	H	1.072620	-0.329831	0.650941
H152	H	1.572620	0.170169	1.150941
O153	O	0.591823	-0.335921	0.451851
O154	O	1.091823	0.164079	0.951851
C155	C	0.505211	-0.332978	0.543444
C156	C	1.005211	0.167022	1.043444
C157	C	0.547573	-0.395714	0.495529
C158	C	1.047573	0.104286	0.995529
H159	H	0.469436	-0.381296	0.578781
H160	H	0.969436	0.118704	1.078781
H161	H	0.472100	-0.282458	0.509910
H162	H	0.972100	0.217542	1.009910
H163	H	0.542781	-0.288731	0.577149
H164	H	1.042781	0.211269	1.077149
H165	H	0.510054	-0.440021	0.461816
H166	H	1.010054	0.059979	0.961816
H167	H	0.580693	-0.446173	0.529104
H168	H	1.080693	0.053827	1.029104
H169	H	0.936357	-0.523951	0.975507
H170	H	1.436357	-0.023951	1.475507
H171	H	1.094132	-0.299163	1.115260
H172	H	1.594132	0.200837	1.615260
O173	O	1.106803	-0.281049	0.976749
O174	O	1.606803	0.218951	1.476749
C175	C	1.195707	-0.154470	0.988115
C176	C	1.695707	0.345530	1.488115
C177	C	1.144624	-0.227282	1.026435
C178	C	1.644624	0.272718	1.526435
H179	H	1.226310	-0.110994	1.028269
H180	H	1.726310	0.389006	1.528269
H181	H	1.164877	-0.103695	0.952482
H182	H	1.664877	0.396305	1.452482
H183	H	1.233789	-0.194873	0.955217
H184	H	1.733789	0.305127	1.455217
H185	H	1.106531	-0.186960	1.059370
H186	H	1.606531	0.313040	1.559370
H187	H	1.175500	-0.278054	1.062025
H188	H	1.675500	0.221946	1.562025
O189	O	0.896883	-0.580233	0.783037
O190	O	1.396883	-0.080233	1.283037
C191	C	0.852452	-0.643449	0.894469
C192	C	1.352452	-0.143449	1.394469
C193	C	0.903510	-0.570674	0.856078
C194	C	1.403510	-0.070674	1.356078
H195	H	0.857782	-0.635733	0.953528
H196	H	1.357782	-0.135733	1.453528
H197	H	0.865346	-0.719778	0.880579
H198	H	1.365346	-0.219778	1.380579
H199	H	0.796387	-0.628668	0.877710
H200	H	1.296387	-0.128668	1.377710
H201	H	0.959593	-0.585367	0.872815
H202	H	1.459593	-0.085367	1.372815
H203	H	0.890556	-0.494370	0.869969
H204	H	1.390556	0.005630	1.369969
H205	H	0.273280	-0.523630	0.308576
H206	H	0.773280	-0.023630	0.808576
H207	H	0.909470	-0.562229	0.644315
H208	H	1.409470	-0.062229	1.144315
H209	H	0.731081	-0.337703	0.450329
H210	H	1.231081	0.162297	0.950329
H211	H	0.406411	-0.516577	0.313918
H212	H	0.906411	-0.016577	0.813918
