data_functionalizedCrystal
_audit_creation_method	'MofGen! by Chris Wilmer'
_symmetry_space_group_name_H-M	'P1'
_symmetry_Int_Tables_number	1
_symmetry_cell_setting	triclinic
loop_
_symmetry_equiv_pos_as_xyz
  x,y,z
_cell_length_a	19.077241
_cell_length_b	19.077396
_cell_length_c	19.077271
_cell_angle_alpha	94.526463
_cell_angle_beta	89.928553
_cell_angle_gamma	89.927536
loop_
_atom_site_label
_atom_site_type_symbol
_atom_site_fract_x
_atom_site_fract_y
_atom_site_fract_z
Zn1	Zn	-1.067464	0.220067	-0.432117
Zn2	Zn	-0.567464	0.720067	0.067883
Zn3	Zn	-1.077196	0.342286	-0.309912
Zn4	Zn	-0.577196	0.842286	0.190088
Zn5	Zn	-0.955073	0.229517	-0.309529
Zn6	Zn	-0.455073	0.729517	0.190471
Zn7	Zn	-0.955030	0.342613	-0.422637
Zn8	Zn	-0.455030	0.842613	0.077363
O9	O	-1.013691	0.283621	-0.368549
O10	O	-0.513691	0.783621	0.131451
O11	O	-1.166918	0.232187	-0.420034
O12	O	-0.666918	0.732187	0.079966
O13	O	-1.065087	0.331145	-0.211382
O14	O	-0.565087	0.831145	0.288618
O15	O	-0.965927	0.129784	-0.329598
O16	O	-0.465927	0.629784	0.170402
O17	O	-1.174068	0.321981	-0.330250
O18	O	-0.674068	0.821981	0.169750
O19	O	-1.048500	0.122840	-0.419663
O20	O	-0.548500	0.622840	0.080337
O21	O	-0.975363	0.248295	-0.211101
O22	O	-0.475363	0.748295	0.288899
O23	O	-0.856904	0.248612	-0.320406
O24	O	-0.356904	0.748612	0.179594
O25	O	-0.965854	0.322538	-0.522374
O26	O	-0.465854	0.822538	-0.022374
O27	O	-0.856873	0.331702	-0.403505
O28	O	-0.356873	0.831702	0.096495
O29	O	-1.048459	0.232504	-0.529339
O30	O	-0.548459	0.732504	-0.029339
O31	O	-1.065046	0.440809	-0.321058
O32	O	-0.565046	0.940809	0.178942
O33	O	-0.975291	0.441049	-0.403876
O34	O	-0.475291	0.941049	0.096124
C35	C	-0.831436	0.291219	-0.360886
C36	C	-0.331436	0.791219	0.139114
C37	C	-0.753466	0.294485	-0.357623
C38	C	-0.253466	0.794485	0.142377
C39	C	-0.713114	0.249338	-0.402902
C40	C	-0.213114	0.749338	0.097098
C41	C	-0.639853	0.252405	-0.399831
C42	C	-0.139853	0.752405	0.100169
C43	C	-0.606946	0.300622	-0.351484
C44	C	-0.106946	0.800622	0.148516
C45	C	-0.647304	0.345771	-0.306200
C46	C	-0.147304	0.845771	0.193800
C47	C	-0.720563	0.342701	-0.309268
C48	C	-0.220563	0.842701	0.190732
C49	C	-0.388244	0.314807	-0.337284
C50	C	0.111756	0.814807	0.162716
C51	C	-0.314980	0.317876	-0.334220
C52	C	0.185020	0.817876	0.165780
C53	C	-0.307534	0.224508	-0.427851
C54	C	0.192466	0.724508	0.072149
C55	C	-0.380795	0.221444	-0.430918
C56	C	0.119205	0.721444	0.069082
C57	C	-0.421146	0.266591	-0.385632
C58	C	0.078854	0.766591	0.114368
N59	N	-0.532062	0.303759	-0.348345
N60	N	-0.032062	0.803759	0.151655
N61	N	-0.496029	0.263450	-0.388768
N62	N	0.003971	0.763450	0.111232
C63	C	-1.021238	0.466462	-0.361496
C64	C	-0.521238	0.966462	0.138504
C65	C	-1.024530	0.544679	-0.358505
C66	C	-0.524530	1.044679	0.141495
C67	C	-0.196658	0.275990	-0.376237
C68	C	0.303342	0.775990	0.123763
C69	C	-0.274627	0.272728	-0.379499
C70	C	0.225373	0.772728	0.120501
C71	C	-1.048095	0.984941	-0.337025
C72	C	-0.548095	1.484941	0.162975
C73	C	-1.044996	0.911448	-0.339837
C74	C	-0.544996	1.411448	0.160163
C75	C	-0.996686	0.874858	-0.384326
C76	C	-0.496686	1.374858	0.115674
C77	C	-0.951467	0.911764	-0.426002
C78	C	-0.451467	1.411764	0.073998
C79	C	-0.954563	0.985256	-0.423186
C80	C	-0.454563	1.485256	0.076814
C81	C	-0.982408	0.655077	-0.397364
C82	C	-0.482408	1.155077	0.102636
C83	C	-0.979316	0.581580	-0.400178
C84	C	-0.479316	1.081580	0.099822
C85	C	-1.072845	0.581270	-0.314012
C86	C	-0.572845	1.081270	0.185988
C87	C	-1.075940	0.654763	-0.311204
C88	C	-0.575940	1.154763	0.188796
C89	C	-1.030718	0.691663	-0.352876
C90	C	-0.530718	1.191663	0.147124
N91	N	-0.993518	0.799736	-0.387203
N92	N	-0.493518	1.299736	0.112797
N93	N	-1.033883	0.766784	-0.349995
N94	N	-0.533883	1.266784	0.150005
C95	C	-1.006066	0.276504	-0.552105
C96	C	-0.506066	0.776504	-0.052105
C97	C	-1.002817	0.273471	-0.630326
C98	C	-0.502817	0.773471	-0.130326
C99	C	-1.006125	1.100063	-0.375653
C100	C	-0.506125	1.600063	0.124347
C101	C	-1.002882	1.021842	-0.378699
C102	C	-0.502882	1.521842	0.121301
C103	C	-0.979515	0.251774	-1.070611
C104	C	-0.479515	0.751774	-0.570611
C105	C	-0.982572	0.254621	-0.997114
C106	C	-0.482572	0.754621	-0.497114
C107	C	-1.030810	0.299184	-0.960511
C108	C	-0.530810	0.799184	-0.460511
C109	C	-1.076001	0.340898	-0.997409
C110	C	-0.576001	0.840898	-0.497409
C111	C	-1.072947	0.338047	-1.070904
C112	C	-0.572947	0.838047	-0.570904
C113	C	-1.044954	0.312333	-0.740719
C114	C	-0.544954	0.812333	-0.240719
C115	C	-1.048002	0.315183	-0.667218
C116	C	-0.548002	0.815183	-0.167218
C117	C	-0.954574	0.228905	-0.666929
C118	C	-0.454574	0.728905	-0.166929
C119	C	-0.951522	0.226061	-0.740426
C120	C	-0.451522	0.726061	-0.240426
C121	C	-0.996715	0.267772	-0.777317
C122	C	-0.496715	0.767772	-0.277317
N123	N	-1.033934	0.302097	-0.885386
N124	N	-0.533934	0.802097	-0.385386
N125	N	-0.993594	0.264855	-0.852441
N126	N	-0.493594	0.764855	-0.352441
C127	C	-1.021324	0.290657	-0.185710
C128	C	-0.521324	0.790657	0.314290
C129	C	-1.024701	0.293486	-0.107503
C130	C	-0.524701	0.793486	0.392497
H131	H	-0.274673	0.187751	-0.464720
H132	H	0.225327	0.687751	0.035280
Br133	Br	-0.913749	0.531921	-0.460563
Br134	Br	-0.413749	1.031921	0.039437
H135	H	-0.945580	0.685113	-0.431291
H136	H	-0.445580	1.185113	0.068709
Br137	Br	-0.885900	0.862106	-0.486380
Br138	Br	-0.385900	1.362106	0.013620
Br139	Br	-0.893253	0.172291	-0.616859
Br140	Br	-0.393253	0.672291	-0.116859
H141	H	-1.087300	0.351458	-0.637419
H142	H	-0.587300	0.851458	-0.137419
H143	H	-1.115278	0.684550	-0.274974
H144	H	-0.615278	1.184550	0.225026
H145	H	-0.421089	0.351570	-0.300409
H146	H	0.078911	0.851570	0.199591
H147	H	-1.081812	0.881404	-0.305902
H148	H	-0.581812	1.381404	0.194098
H149	H	-1.081751	0.346299	-0.770747
H150	H	-0.581751	0.846299	-0.270747
Br151	Br	-1.141476	0.401369	-0.947735
Br152	Br	-0.641476	0.901369	-0.447735
H153	H	-0.753417	0.379464	-0.272397
H154	H	-0.253417	0.879464	0.227603
H155	H	-0.917749	1.015300	-0.457125
H156	H	-0.417749	1.515300	0.042875
Br157	Br	-0.914044	0.191294	-1.120279
Br158	Br	-0.414044	0.691294	-0.620279
Br159	Br	-1.134279	0.394652	-1.120974
Br160	Br	-0.634279	0.894652	-0.620974
Br161	Br	-0.425450	0.156010	-0.496541
Br162	Br	0.074550	0.656010	0.003459
Br163	Br	-0.886007	0.165630	-0.790092
Br164	Br	-0.386007	0.665630	-0.290092
Br165	Br	-0.757766	0.183902	-0.468525
Br166	Br	-0.257766	0.683902	0.031475
H167	H	-0.620505	0.385028	-0.266831
H168	H	-0.120505	0.885028	0.233169
Br169	Br	-1.113668	1.034592	-0.276649
Br170	Br	-0.613668	1.534592	0.223351
H171	H	-0.607002	0.215642	-0.436703
H172	H	-0.107002	0.715642	0.063297
Br173	Br	-1.134212	0.531188	-0.257459
Br174	Br	-0.634212	1.031188	0.242541
H175	H	-0.945776	0.220656	-0.967080
H176	H	-0.445776	0.720656	-0.467080
H177	H	-0.288189	0.357144	-0.294850
H178	H	0.211811	0.857144	0.205150
