data_functionalizedCrystal
_audit_creation_method	'MofGen! by Chris Wilmer'
_symmetry_space_group_name_H-M	'P1'
_symmetry_Int_Tables_number	1
_symmetry_cell_setting	triclinic
loop_
_symmetry_equiv_pos_as_xyz
  x,y,z
_cell_length_a	25.639242
_cell_length_b	25.639239
_cell_length_c	25.639233
_cell_angle_alpha	90.018747
_cell_angle_beta	90.022166
_cell_angle_gamma	90.034213
loop_
_atom_site_label
_atom_site_type_symbol
_atom_site_fract_x
_atom_site_fract_y
_atom_site_fract_z
Zn1	Zn	0.799225	-0.208277	0.295742
Zn2	Zn	1.299225	0.291723	0.795742
Zn3	Zn	0.799149	-0.295696	0.208307
Zn4	Zn	1.299149	0.204304	0.708307
Zn5	Zn	0.711801	-0.208269	0.208306
Zn6	Zn	1.211801	0.291731	0.708306
Zn7	Zn	0.711746	-0.295676	0.295696
Zn8	Zn	1.211746	0.204324	0.795696
O9	O	0.755480	-0.251979	0.252013
O10	O	1.255480	0.248021	0.752013
O11	O	0.872380	-0.219884	0.284163
O12	O	1.372380	0.280116	0.784163
O13	O	0.787553	-0.284103	0.135141
O14	O	1.287553	0.215897	0.635141
O15	O	0.723453	-0.135105	0.219924
O16	O	1.223453	0.364895	0.719924
O17	O	0.872324	-0.284111	0.219924
O18	O	1.372324	0.215889	0.719924
O19	O	0.787683	-0.135111	0.284163
O20	O	1.287683	0.364889	0.784163
O21	O	0.723379	-0.219871	0.135141
O22	O	1.223379	0.280129	0.635141
O23	O	0.638629	-0.219853	0.219880
O24	O	1.138629	0.280147	0.719880
O25	O	0.723360	-0.284078	0.368868
O26	O	1.223360	0.215922	0.868868
O27	O	0.638589	-0.284070	0.284085
O28	O	1.138589	0.215930	0.784085
O29	O	0.787630	-0.219866	0.368901
O30	O	1.287630	0.280134	0.868901
O31	O	0.787499	-0.368858	0.219880
O32	O	1.287499	0.131142	0.719880
O33	O	0.723286	-0.368844	0.284085
O34	O	1.223286	0.131156	0.784085
C35	C	0.755392	-0.387822	0.251989
C36	C	1.255392	0.112178	0.751989
C37	C	0.755403	-0.445936	0.251996
C38	C	1.255403	0.054064	0.751996
C39	C	0.619638	-0.251959	0.251977
C40	C	1.119638	0.248041	0.751977
C41	C	0.561524	-0.251963	0.251975
C42	C	1.061524	0.248037	0.751975
C43	C	0.789004	-0.806294	0.218638
C44	C	1.289004	-0.306294	0.718638
C45	C	0.789024	-0.860898	0.218645
C46	C	1.289024	-0.360898	0.718645
O47	O	0.817502	-0.889131	0.190257
O48	O	1.317502	-0.389131	0.690257
N49	N	0.755572	-0.888218	0.252048
N50	N	1.255572	-0.388218	0.752048
C51	C	0.722102	-0.860932	0.285449
C52	C	1.222102	-0.360932	0.785449
O53	O	0.693651	-0.889184	0.313861
O54	O	1.193651	-0.389184	0.813861
C55	C	0.722085	-0.806328	0.285444
C56	C	1.222085	-0.306328	0.785444
C57	C	0.755535	-0.779011	0.252036
C58	C	1.255535	-0.279011	0.752036
C59	C	0.822452	-0.778976	0.185233
C60	C	1.322452	-0.278976	0.685233
C61	C	0.822431	-0.724376	0.185226
C62	C	1.322431	-0.224376	0.685226
C63	C	0.788962	-0.697093	0.218623
C64	C	1.288962	-0.197093	0.718623
C65	C	0.755514	-0.724410	0.252028
C66	C	1.255514	-0.224410	0.752028
C67	C	0.688617	-0.779042	0.318847
C68	C	1.188617	-0.279042	0.818847
C69	C	0.688603	-0.724435	0.318840
C70	C	1.188603	-0.224435	0.818840
C71	C	0.722053	-0.697118	0.285432
C72	C	1.222053	-0.197118	0.785432
C73	C	0.722024	-0.642527	0.285418
C74	C	1.222024	-0.142527	0.785418
N75	N	0.755475	-0.615206	0.252016
N76	N	1.255475	-0.115206	0.752016
C77	C	0.788944	-0.642490	0.218618
C78	C	1.288944	-0.142490	0.718618
C79	C	0.722141	-0.975602	0.285457
C80	C	1.222141	-0.475602	0.785457
C81	C	0.722155	-1.030204	0.285459
C82	C	1.222155	-0.530204	0.785459
C83	C	0.789078	-1.030167	0.218656
C84	C	1.289078	-0.530167	0.718656
C85	C	0.789061	-0.975564	0.218652
C86	C	1.289061	-0.475564	0.718652
C87	C	0.755593	-0.948282	0.252055
C88	C	1.255593	-0.448282	0.752055
C89	C	0.788897	-0.527824	0.218605
C90	C	1.288897	-0.027824	0.718605
C91	C	0.788872	-0.473219	0.218599
C92	C	1.288872	0.026781	0.718599
C93	C	0.721951	-0.473261	0.285403
C94	C	1.221951	0.026739	0.785403
C95	C	0.721974	-0.527862	0.285408
C96	C	1.221974	-0.027862	0.785408
C97	C	0.755452	-0.555142	0.252007
C98	C	1.255452	-0.055142	0.752007
O99	O	0.693562	-0.614260	0.313793
O100	O	1.193562	-0.114260	0.813793
O101	O	0.817396	-0.614231	0.190216
O102	O	1.317396	-0.114231	0.690216
C103	C	0.201149	-0.285473	0.285413
C104	C	0.701149	0.214527	0.785413
C105	C	0.146544	-0.285477	0.285421
C106	C	0.646544	0.214523	0.785421
O107	O	0.118297	-0.313943	0.313821
O108	O	0.618297	0.186057	0.813821
N109	N	0.119241	-0.251994	0.252047
N110	N	0.619241	0.248006	0.752047
C111	C	0.146545	-0.218502	0.218666
C112	C	0.646545	0.281498	0.718666
O113	O	0.118308	-0.190022	0.190280
O114	O	0.618308	0.309978	0.690280
C115	C	0.201149	-0.218496	0.218661
C116	C	0.701149	0.281504	0.718661
C117	C	0.228449	-0.251985	0.252034
C118	C	0.728449	0.248015	0.752034
C119	C	0.228449	-0.318959	0.318783
C120	C	0.728449	0.181041	0.818783
C121	C	0.283049	-0.318956	0.318774
C122	C	0.783049	0.181044	0.818774
C123	C	0.310350	-0.285468	0.285395
C124	C	0.810350	0.214532	0.785395
C125	C	0.283049	-0.251983	0.252024
C126	C	0.783049	0.248017	0.752024
C127	C	0.228452	-0.185002	0.185283
C128	C	0.728452	0.314998	0.685283
C129	C	0.283059	-0.185000	0.185281
C130	C	0.783059	0.315000	0.685281
C131	C	0.310359	-0.218488	0.218654
C132	C	0.810359	0.281512	0.718654
C133	C	0.364950	-0.218492	0.218636
C134	C	0.864950	0.281508	0.718636
N135	N	0.392253	-0.251974	0.252010
N136	N	0.892253	0.248026	0.752010
C137	C	0.364953	-0.285463	0.285389
C138	C	0.864953	0.214537	0.785389
C139	C	0.031875	-0.218515	0.218680
C140	C	0.531875	0.281485	0.718680
C141	C	-0.022728	-0.218523	0.218683
C142	C	0.477272	0.281477	0.718683
C143	C	-0.022725	-0.285497	0.285438
C144	C	0.477275	0.214503	0.785438
C145	C	0.031878	-0.285492	0.285433
C146	C	0.531878	0.214508	0.785433
C147	C	0.059178	-0.251998	0.252054
C148	C	0.559178	0.248002	0.752054
C149	C	0.479618	-0.285455	0.285368
C150	C	0.979618	0.214545	0.785368
C151	C	0.534223	-0.285451	0.285354
C152	C	1.034223	0.214549	0.785354
C153	C	0.534216	-0.218475	0.218601
C154	C	1.034216	0.281525	0.718601
C155	C	0.479615	-0.218481	0.218612
C156	C	0.979615	0.281519	0.718612
C157	C	0.452318	-0.251972	0.252000
C158	C	0.952318	0.248028	0.752000
O159	O	0.393232	-0.190038	0.190252
O160	O	0.893232	0.309962	0.690252
O161	O	0.393197	-0.313933	0.313776
O162	O	0.893197	0.186067	0.813776
C163	C	0.891853	-0.252000	0.252049
C164	C	1.391853	0.248000	0.752049
C165	C	0.949967	-0.252009	0.252064
C166	C	1.449967	0.247991	0.752064
C167	C	0.755497	-0.251970	0.388386
C168	C	1.255497	0.248030	0.888386
C169	C	0.755504	-0.251966	0.446500
C170	C	1.255504	0.248034	0.946500
C171	C	0.755583	-0.115606	0.252048
C172	C	1.255583	0.384394	0.752048
C173	C	0.755627	-0.057492	0.252064
C174	C	1.255627	0.442508	0.752064
C175	C	0.755494	-0.251951	0.116170
C176	C	1.255494	0.248049	0.616170
C177	C	0.755588	-0.251807	0.058057
C178	C	1.255588	0.248193	0.558057
C179	C	0.789012	-0.218432	0.806886
C180	C	1.289012	0.281568	1.306886
C181	C	0.789019	-0.218417	0.861491
C182	C	1.289019	0.281583	1.361491
O183	O	0.817466	-0.189967	0.889747
O184	O	1.317466	0.310033	1.389747
N185	N	0.755562	-0.251844	0.888783
N186	N	1.255562	0.248156	1.388783
C187	C	0.722093	-0.285283	0.861468
C188	C	1.222093	0.214717	1.361468
O189	O	0.693636	-0.313713	0.889695
O190	O	1.193636	0.186287	1.389695
C191	C	0.722084	-0.285294	0.806864
C192	C	1.222084	0.214706	1.306864
C193	C	0.755547	-0.251870	0.779575
C194	C	1.255547	0.248130	1.279575
C195	C	0.822472	-0.185009	0.779597
C196	C	1.322472	0.314991	1.279597
C197	C	0.822466	-0.185025	0.724997
C198	C	1.322466	0.314975	1.224997
C199	C	0.789000	-0.218462	0.697685
C200	C	1.289000	0.281538	1.197685
C201	C	0.755541	-0.251885	0.724974
C202	C	1.255541	0.248115	1.224974
C203	C	0.688613	-0.318731	0.779550
C204	C	1.188613	0.181269	1.279550
C205	C	0.688607	-0.318739	0.724943
C206	C	1.188607	0.181261	1.224943
C207	C	0.722069	-0.285314	0.697654
C208	C	1.222069	0.214686	1.197654
C209	C	0.722070	-0.285338	0.643063
C210	C	1.222070	0.214662	1.143063
N211	N	0.755526	-0.251912	0.615771
N212	N	1.255526	0.248088	1.115771
C213	C	0.788992	-0.218474	0.643082
C214	C	1.288992	0.281526	1.143082
C215	C	0.722113	-0.285256	0.976138
C216	C	1.222113	0.214744	1.476138
C217	C	0.722124	-0.285247	1.030741
C218	C	1.222124	0.214753	1.530741
C219	C	0.789049	-0.218381	1.030760
C220	C	1.289049	0.281619	1.530760
C221	C	0.789041	-0.218392	0.976157
C222	C	1.289041	0.281608	1.476157
C223	C	0.755570	-0.251829	0.948846
C224	C	1.255570	0.248171	1.448846
C225	C	0.788977	-0.218509	0.528417
C226	C	1.288977	0.281491	1.028417
C227	C	0.788970	-0.218529	0.473811
C228	C	1.288970	0.281471	0.973811
C229	C	0.722043	-0.285393	0.473797
C230	C	1.222043	0.214607	0.973797
C231	C	0.722052	-0.285375	0.528397
C232	C	1.222052	0.214625	1.028397
C233	C	0.755521	-0.251929	0.555706
C234	C	1.255521	0.248071	1.055706
O235	O	0.693635	-0.313773	0.614771
O236	O	1.193635	0.186227	1.114771
O237	O	0.817439	-0.190044	0.614847
O238	O	1.317439	0.309956	1.114847
H239	H	0.816111	-0.450979	0.191392
H240	H	1.316111	0.049021	0.691392
O241	O	0.821469	-0.185893	0.949594
O242	O	1.321469	0.314107	1.449594
C243	C	0.791721	-0.152113	0.918021
C244	C	1.291721	0.347887	1.418021
H245	H	0.752085	-0.170550	0.909824
H246	H	1.252085	0.329450	1.409824
H247	H	0.786005	-0.113366	0.939074
H248	H	1.286005	0.386634	1.439074
C249	C	0.869171	-0.120006	0.876231
C250	C	1.369171	0.379994	1.376231
C251	C	0.820491	-0.142653	0.866160
C252	C	1.320491	0.357347	1.366160
H253	H	0.886918	-0.114168	0.844242
H254	H	1.386918	0.385832	1.344242
H255	H	0.889213	-0.142762	0.897504
H256	H	1.389213	0.357238	1.397504
H257	H	0.864401	-0.087719	0.893777
H258	H	1.364401	0.412281	1.393777
H259	H	0.825262	-0.174942	0.848621
H260	H	1.325262	0.325058	1.348621
H261	H	0.800450	-0.119902	0.844883
H262	H	1.300450	0.380098	1.344883
H263	H	0.054099	-0.191241	0.191496
H264	H	0.554099	0.308759	0.691496
O265	O	0.854954	-0.697785	0.152850
O266	O	1.354954	-0.197785	0.652850
C267	C	0.888702	-0.666167	0.182651
C268	C	1.388702	-0.166167	0.682651
H269	H	0.870230	-0.657982	0.222251
H270	H	1.370230	-0.157982	0.722251
H271	H	0.927448	-0.687177	0.188444
H272	H	1.427448	-0.187177	0.688444
C273	C	0.920867	-0.624360	0.105248
C274	C	1.420867	-0.124360	0.605248
C275	C	0.898177	-0.614303	0.153884
C276	C	1.398177	-0.114303	0.653884
H277	H	0.926715	-0.592368	0.087503
H278	H	1.426715	-0.092368	0.587503
H279	H	0.898132	-0.645662	0.085170
H280	H	1.398132	-0.145662	0.585170
H281	H	0.953153	-0.641869	0.110083
H282	H	1.453153	-0.141869	0.610083
H283	H	0.865889	-0.596800	0.149049
H284	H	1.365889	-0.096800	0.649049
H285	H	0.920907	-0.592996	0.173961
H286	H	1.420907	-0.092996	0.673961
O287	O	0.309599	-0.152408	0.152929
O288	O	0.809599	0.347592	0.652929
C289	C	0.341229	-0.118689	0.182749
C290	C	0.841229	0.381311	0.682749
H291	H	0.324801	-0.115523	0.223938
H292	H	0.824801	0.384477	0.723938
H293	H	0.382605	-0.134852	0.184510
H294	H	0.882605	0.365148	0.684510
C295	C	0.362254	-0.068186	0.106716
C296	C	0.862254	0.431814	0.606716
C297	C	0.342075	-0.064294	0.157304
C298	C	0.842075	0.435706	0.657304
H299	H	0.362778	-0.034633	0.091019
H300	H	0.862778	0.465367	0.591019
H301	H	0.340946	-0.090904	0.086625
H302	H	0.840946	0.409096	0.586625
H303	H	0.396732	-0.081657	0.108190
H304	H	0.896732	0.418343	0.608190
H305	H	0.307595	-0.050829	0.155828
H306	H	0.807595	0.449171	0.655828
H307	H	0.363377	-0.041572	0.177394
H308	H	0.863377	0.458428	0.677394
H309	H	0.661364	-0.345949	0.801759
H310	H	1.161364	0.154051	1.301759
H311	H	0.661376	-0.801275	0.346049
H312	H	1.161376	-0.301275	0.846049
O313	O	0.821503	-0.185909	1.057377
O314	O	1.321503	0.314091	1.557377
C315	C	0.814338	-0.193076	1.111421
C316	C	1.314338	0.306924	1.611421
H317	H	0.773978	-0.210199	1.118860
H318	H	1.273978	0.289801	1.618860
H319	H	0.845334	-0.220915	1.126926
H320	H	1.345334	0.279085	1.626926
C321	C	0.868728	-0.119137	1.130327
C322	C	1.368728	0.380863	1.630327
C323	C	0.819156	-0.140164	1.139464
C324	C	1.319156	0.359836	1.639464
H325	H	0.871703	-0.086500	1.147626
H326	H	1.371703	0.413500	1.647626
H327	H	0.873558	-0.114310	1.093916
H328	H	1.373558	0.385690	1.593916
H329	H	0.894553	-0.142341	1.143248
H330	H	1.394553	0.357659	1.643248
H331	H	0.793333	-0.116964	1.126537
H332	H	1.293333	0.383036	1.626537
H333	H	0.814323	-0.144987	1.175873
H334	H	1.314323	0.355013	1.675873
O335	O	0.689573	-0.317737	1.057165
O336	O	1.189573	0.182263	1.557165
C337	C	0.660048	-0.347261	1.021344
C338	C	1.160048	0.152739	1.521344
H339	H	0.658252	-0.325852	0.982423
H340	H	1.158252	0.174148	1.482423
H341	H	0.679165	-0.386974	1.015538
H342	H	1.179165	0.113026	1.515538
C343	C	0.606602	-0.381079	1.090436
C344	C	1.106602	0.118921	1.590436
C345	C	0.604393	-0.354783	1.042634
C346	C	1.104393	0.145217	1.542634
H347	H	0.572272	-0.385722	1.103569
H348	H	1.072272	0.114278	1.603569
H349	H	0.626495	-0.361191	1.114570
H350	H	1.126495	0.138809	1.614570
H351	H	0.622535	-0.414171	1.085591
H352	H	1.122535	0.085829	1.585591
H353	H	0.588466	-0.321690	1.047480
H354	H	1.088466	0.178310	1.547480
H355	H	0.584496	-0.374667	1.018501
H356	H	1.084496	0.125333	1.518501
O357	O	0.202022	-0.152419	0.152851
O358	O	0.702022	0.347581	0.652851
C359	C	0.237838	-0.122871	0.123387
C360	C	0.737838	0.377129	0.623387
H361	H	0.276771	-0.121101	0.144805
H362	H	0.776771	0.378899	0.644805
H363	H	0.243615	-0.141953	0.083640
H364	H	0.743615	0.358047	0.583640
C365	C	0.168746	-0.069385	0.089655
C366	C	0.668746	0.430615	0.589655
C367	C	0.216563	-0.067207	0.115964
C368	C	0.716563	0.432793	0.615964
H369	H	0.155622	-0.035049	0.085073
H370	H	0.655622	0.464951	0.585073
H371	H	0.144615	-0.089293	0.109504
H372	H	0.644615	0.410707	0.609504
H373	H	0.173567	-0.085289	0.056536
H374	H	0.673567	0.414711	0.556536
H375	H	0.211740	-0.051309	0.149085
H376	H	0.711740	0.448691	0.649085
H377	H	0.240692	-0.047295	0.096120
H378	H	0.740692	0.452705	0.596120
O379	O	0.453187	-0.318037	0.317817
O380	O	0.953187	0.181963	0.817817
C381	C	0.489001	-0.347578	0.347275
C382	C	0.989001	0.152422	0.847275
H383	H	0.527909	-0.349350	0.325845
H384	H	1.027909	0.150650	0.825845
H385	H	0.494843	-0.328488	0.387016
H386	H	0.994843	0.171512	0.887016
C387	C	0.419884	-0.401061	0.381038
C388	C	0.919884	0.098939	0.881038
C389	C	0.467670	-0.403242	0.354715
C390	C	0.967670	0.096758	0.854715
H391	H	0.406726	-0.435397	0.385630
H392	H	0.906726	0.064603	0.885630
H393	H	0.395755	-0.381158	0.361193
H394	H	0.895755	0.118842	0.861193
H395	H	0.424759	-0.385151	0.414153
H396	H	0.924759	0.114849	0.914153
H397	H	0.462793	-0.419145	0.321598
H398	H	0.962793	0.080855	0.821598
H399	H	0.491798	-0.423149	0.374554
H400	H	0.991798	0.076851	0.874554
O401	O	0.656082	-0.351277	0.698495
O402	O	1.156082	0.148723	1.198495
C403	C	0.626546	-0.380765	0.734295
C404	C	1.126546	0.119235	1.234295
H405	H	0.647963	-0.382560	0.773225
H406	H	1.147963	0.117440	1.273225
H407	H	0.586849	-0.361616	0.740089
H408	H	1.086849	0.138384	1.240089
C409	C	0.592669	-0.434216	0.665172
C410	C	1.092669	0.065784	1.165172
C411	C	0.618977	-0.436424	0.712985
C412	C	1.118977	0.063576	1.212985
H413	H	0.587998	-0.468548	0.652027
H414	H	1.087998	0.031452	1.152027
H415	H	0.612567	-0.414348	0.641053
H416	H	1.112567	0.085652	1.141053
H417	H	0.559591	-0.418256	0.670007
H418	H	1.059591	0.081744	1.170007
H419	H	0.652057	-0.452377	0.708149
H420	H	1.152057	0.047623	1.208149
H421	H	0.599085	-0.456296	0.737104
H422	H	1.099085	0.043704	1.237104
H423	H	0.457387	-0.191213	0.191436
H424	H	0.957387	0.308787	0.691436
H425	H	0.849709	-0.801185	0.158037
H426	H	1.349709	-0.301185	0.658037
H427	H	0.816229	-0.191272	0.550645
H428	H	1.316229	0.308728	1.050645
H429	H	0.694912	-1.052442	0.312659
H430	H	1.194912	-0.552442	0.812659
H431	H	0.816221	-0.191310	0.451595
H432	H	1.316221	0.308690	0.951595
H433	H	0.816333	-1.052391	0.191464
H434	H	1.316333	-0.552391	0.691464
H435	H	0.816300	-0.953325	0.191448
H436	H	1.316300	-0.453325	0.691448
O437	O	0.689518	-0.446727	0.317901
O438	O	1.189518	0.053273	0.817901
C439	C	0.719261	-0.415091	0.351682
C440	C	1.219261	0.084909	0.851682
H441	H	0.760441	-0.431513	0.354953
H442	H	1.260441	0.068487	0.854953
H443	H	0.721064	-0.373716	0.335508
H444	H	1.221064	0.126284	0.835508
C445	C	0.643110	-0.394072	0.401993
C446	C	1.143110	0.105928	0.901993
C447	C	0.693687	-0.414244	0.406014
C448	C	1.193687	0.085756	0.906014
H449	H	0.627334	-0.393547	0.435507
H450	H	1.127334	0.106453	0.935507
H451	H	0.623071	-0.415384	0.379233
H452	H	1.123071	0.084616	0.879233
H453	H	0.644620	-0.359594	0.388513
H454	H	1.144620	0.140406	0.888513
H455	H	0.692177	-0.448723	0.419488
H456	H	1.192177	0.051277	0.919488
H457	H	0.713726	-0.392937	0.428778
H458	H	1.213726	0.107063	0.928778
O459	O	0.560800	-0.186019	0.186153
O460	O	1.060800	0.313981	0.686153
C461	C	0.592344	-0.215735	0.152319
C462	C	1.092344	0.284265	0.652319
H463	H	0.600504	-0.255388	0.170683
H464	H	1.100504	0.244612	0.670683
H465	H	0.571282	-0.221417	0.113561
H466	H	1.071282	0.278583	0.613561
C467	C	0.634204	-0.138254	0.120353
C468	C	1.134204	0.361746	0.620353
C469	C	0.644231	-0.186955	0.142911
C470	C	1.144231	0.313045	0.642911
H471	H	0.666209	-0.120501	0.114547
H472	H	1.166209	0.379499	0.614547
H473	H	0.612951	-0.118234	0.143146
H474	H	1.112951	0.381766	0.643146
H475	H	0.616651	-0.142996	0.088057
H476	H	1.116651	0.357004	0.588057
H477	H	0.661777	-0.182212	0.175208
H478	H	1.161777	0.317788	0.675208
H479	H	0.665487	-0.206974	0.120123
H480	H	1.165487	0.293026	0.620123
H481	H	0.556449	-0.312723	0.312530
H482	H	1.056449	0.187277	0.812530
H483	H	0.694883	-0.953392	0.312656
H484	H	1.194883	-0.453392	0.812656
H485	H	0.305272	-0.346225	0.345950
H486	H	0.805272	0.153775	0.845950
H487	H	0.694809	-0.312597	0.550617
H488	H	1.194809	0.187403	1.050617
H489	H	0.849714	-0.157806	0.702783
H490	H	1.349714	0.342194	1.202783
H491	H	0.661350	-0.702225	0.346042
H492	H	1.161350	-0.202225	0.846042
O493	O	0.689463	-0.554320	0.317907
O494	O	1.189463	-0.054320	0.817907
C495	C	0.659907	-0.518527	0.347371
C496	C	1.159907	-0.018527	0.847371
H497	H	0.681304	-0.479581	0.349193
H498	H	1.181304	0.020419	0.849193
H499	H	0.620208	-0.512773	0.328183
H500	H	1.120208	-0.012773	0.828183
C501	C	0.626067	-0.587648	0.400777
C502	C	1.126067	-0.087648	0.900777
C503	C	0.652349	-0.539815	0.403019
C504	C	1.152349	-0.039815	0.903019
H505	H	0.621402	-0.600780	0.435103
H506	H	1.121402	-0.100780	0.935103
H507	H	0.645977	-0.611763	0.380926
H508	H	1.145977	-0.111763	0.880926
H509	H	0.592986	-0.582846	0.384785
H510	H	1.092986	-0.082846	0.884785
H511	H	0.685431	-0.544618	0.419005
H512	H	1.185431	-0.044618	0.919005
H513	H	0.632444	-0.515701	0.422875
H514	H	1.132444	-0.015701	0.922875
H515	H	0.816159	-0.550030	0.191408
H516	H	1.316159	-0.050030	0.691408
O517	O	0.202015	-0.351543	0.351226
O518	O	0.702015	0.148457	0.851226
C519	C	0.237831	-0.381082	0.380683
C520	C	0.737831	0.118918	0.880683
H521	H	0.276740	-0.382847	0.359256
H522	H	0.776740	0.117153	0.859256
H523	H	0.243668	-0.361997	0.420427
H524	H	0.743668	0.138003	0.920427
C525	C	0.168719	-0.434579	0.414435
C526	C	0.668719	0.065421	0.914435
C527	C	0.216507	-0.436750	0.388115
C528	C	0.716507	0.063250	0.888115
H529	H	0.155565	-0.468917	0.419022
H530	H	0.655565	0.031083	0.919022
H531	H	0.144588	-0.414677	0.394591
H532	H	0.644588	0.085323	0.894591
H533	H	0.173589	-0.418672	0.447552
H534	H	0.673589	0.081328	0.947552
H535	H	0.211634	-0.452651	0.354996
H536	H	0.711634	0.047349	0.854996
H537	H	0.240636	-0.456656	0.407954
H538	H	0.740636	0.043344	0.907954
H539	H	0.694857	-0.312487	0.953905
H540	H	1.194857	0.187513	1.453905
O541	O	0.854959	-0.152453	0.806063
O542	O	1.354959	0.347547	1.306063
C543	C	0.843562	-0.100344	0.792728
C544	C	1.343562	0.399656	1.292728
H545	H	0.823449	-0.099271	0.753082
H546	H	1.323449	0.400729	1.253082
H547	H	0.816708	-0.082716	0.823458
H548	H	1.316708	0.417284	1.323458
C549	C	0.919262	-0.070005	0.838897
C550	C	1.419262	0.429995	1.338897
C551	C	0.894562	-0.068686	0.790201
C552	C	1.394562	0.431314	1.290201
H553	H	0.950721	-0.050476	0.837340
H554	H	1.450721	0.449524	1.337340
H555	H	0.926939	-0.105111	0.847883
H556	H	1.426939	0.394889	1.347883
H557	H	0.896878	-0.055316	0.864500
H558	H	1.396878	0.444684	1.364500
H559	H	0.916943	-0.083381	0.764600
H560	H	1.416943	0.416619	1.264600
H561	H	0.886890	-0.033582	0.781210
H562	H	1.386890	0.466418	1.281210
O563	O	0.058315	-0.318036	0.317903
O564	O	0.558315	0.181964	0.817903
C565	C	0.022503	-0.347602	0.347352
C566	C	0.522503	0.152398	0.847352
H567	H	-0.016408	-0.326192	0.349200
H568	H	0.483592	0.173808	0.849200
H569	H	0.016667	-0.387284	0.328134
H570	H	0.516667	0.112716	0.828134
C571	C	0.091620	-0.381516	0.400716
C572	C	0.591620	0.118484	0.900716
C573	C	0.043831	-0.355217	0.402989
C574	C	0.543831	0.144783	0.902989
H575	H	0.104777	-0.386215	0.435035
H576	H	0.604777	0.113785	0.935035
H577	H	0.115748	-0.361598	0.380874
H578	H	0.615748	0.138402	0.880874
H579	H	0.086751	-0.414581	0.384699
H580	H	0.586751	0.085419	0.884699
H581	H	0.048702	-0.322150	0.419000
H582	H	0.548702	0.177850	0.919000
H583	H	0.019704	-0.375129	0.422835
H584	H	0.519704	0.124871	0.922835
H585	H	-0.044963	-0.312763	0.312619
H586	H	0.455037	0.187237	0.812619
H587	H	-0.044951	-0.191258	0.191502
H588	H	0.455049	0.308742	0.691502
H589	H	0.694798	-0.312619	0.451550
H590	H	1.194798	0.187381	0.951550
