data_functionalizedCrystal
_audit_creation_method	'MofGen! by Chris Wilmer'
_symmetry_space_group_name_H-M	'P1'
_symmetry_Int_Tables_number	1
_symmetry_cell_setting	triclinic
loop_
_symmetry_equiv_pos_as_xyz
  x,y,z
_cell_length_a	6.817900
_cell_length_b	15.301126
_cell_length_c	16.015572
_cell_angle_alpha	77.749409
_cell_angle_beta	104.485554
_cell_angle_gamma	104.177575
loop_
_atom_site_label
_atom_site_type_symbol
_atom_site_fract_x
_atom_site_fract_y
_atom_site_fract_z
V1	V	-3.992611	-0.036345	-0.269469
O2	O	-3.977237	0.092637	-0.264070
O3	O	-3.947763	-0.159481	-0.267886
O4	O	-3.927764	0.004096	-0.386876
O5	O	-3.997375	-0.072072	-0.144256
V6	V	-4.477910	-0.025629	-0.254461
O7	O	-4.249974	-0.059850	-0.302391
O8	O	-4.670744	-0.002124	-0.221540
O9	O	-4.299551	0.097507	-0.256045
O10	O	-4.610680	-0.154612	-0.259861
O11	O	-4.590543	0.010098	-0.379674
O12	O	-4.319550	-0.066070	-0.137055
C13	C	-3.794160	-0.190745	-0.263702
C14	C	-3.838669	-0.291154	-0.263190
C15	C	-4.041212	-0.341503	-0.267266
C16	C	-4.083023	-0.435847	-0.266790
C17	C	-3.922286	-0.479841	-0.262232
C18	C	-3.719727	-0.429485	-0.258159
C19	C	-3.677921	-0.335142	-0.258641
C20	C	-3.806875	-0.626126	-0.257152
C21	C	-3.848682	-0.720476	-0.256668
C22	C	-4.211977	-0.726831	-0.265301
C23	C	-4.170171	-0.632488	-0.265783
C24	C	-3.967614	-0.582139	-0.261708
C25	C	-3.768649	0.017914	-0.415484
C26	C	-3.796936	0.050164	-0.511466
C27	C	-4.093828	-0.236085	-0.889702
C28	C	-4.120412	-0.205752	-0.979887
C29	C	-4.038897	-0.048820	-0.954850
C30	C	-4.012295	-0.079140	-0.864660
C31	C	-4.039767	-0.172773	-0.832094
C32	C	-3.958234	-0.015828	-0.807052
C33	C	-3.931646	-0.046146	-0.716871
C34	C	-3.959118	-0.139775	-0.684297
C35	C	-4.013179	-0.203091	-0.741912
C36	C	-3.930778	0.077805	-0.839621
C37	C	-3.876717	0.141116	-0.782013
C38	C	-3.850113	0.110799	-0.691829
C39	C	-3.877586	0.017170	-0.659256
C40	C	-3.796053	0.174115	-0.634214
C41	C	-3.769465	0.143797	-0.544033
C42	C	-3.850997	-0.013148	-0.569074
C43	C	-4.116496	0.128766	-0.260226
C44	C	-4.051225	0.229175	-0.260744
C45	C	-4.142008	-0.079893	-0.108442
C46	C	-4.092959	-0.112138	-0.012459
H47	H	-4.376903	-0.767832	-0.268607
H48	H	-3.641937	-0.585133	-0.253840
Cl49	Cl	-3.646617	-0.775778	-0.250959
Cl50	Cl	-4.047667	-0.320803	-0.700964
Cl51	Cl	-4.372237	-0.577185	-0.271493
H52	H	-3.952399	0.102487	-0.913053
Cl53	Cl	-3.517657	-0.484791	-0.252434
Cl54	Cl	-4.004366	0.068886	-0.995800
Cl55	Cl	-3.885486	-0.130860	-0.528126
H56	H	-3.512994	-0.294148	-0.255325
H57	H	-3.937473	-0.164459	-0.610865
Cl58	Cl	-3.842186	0.258823	-0.822963
Cl59	Cl	-3.701588	0.223388	-0.471609
H60	H	-4.247950	-0.476837	-0.270111
H61	H	-4.116171	-0.312330	-0.863184
H62	H	-3.773712	0.250351	-0.660745
H63	H	-4.164427	-0.257315	-1.026790
H64	H	-4.172106	-0.305692	-0.270969
