data_functionalizedCrystal
_audit_creation_method	'MofGen! by Chris Wilmer'
_symmetry_space_group_name_H-M	'P1'
_symmetry_Int_Tables_number	1
_symmetry_cell_setting	triclinic
loop_
_symmetry_equiv_pos_as_xyz
  x,y,z
_cell_length_a	15.995350
_cell_length_b	11.792241
_cell_length_c	10.868271
_cell_angle_alpha	90.005281
_cell_angle_beta	90.000670
_cell_angle_gamma	83.842895
loop_
_atom_site_label
_atom_site_type_symbol
_atom_site_fract_x
_atom_site_fract_y
_atom_site_fract_z
O1	O	-1.111649	-0.146296	-0.102218
O2	O	-0.611649	0.353704	0.397782
O3	O	-0.867956	-0.164362	-0.102244
O4	O	-0.367956	0.335638	0.397756
O5	O	-0.995716	0.009891	-0.102222
O6	O	-0.495716	0.509891	0.397778
O7	O	-0.983889	-0.320549	-0.102240
O8	O	-0.483889	0.179451	0.397760
O9	O	-0.995706	0.009898	0.102423
O10	O	-0.495706	0.509898	0.602423
O11	O	-0.867946	-0.164355	0.102401
O12	O	-0.367946	0.335645	0.602401
O13	O	-1.111639	-0.146289	0.102426
O14	O	-0.611639	0.353711	0.602426
Zn15	Zn	-0.989790	-0.155321	0.134905
Zn16	Zn	-0.489790	0.344679	0.634905
Zn17	Zn	-0.989804	-0.155330	-0.134723
Zn18	Zn	-0.489804	0.344670	0.365277
O19	O	-0.983878	-0.320542	0.102404
O20	O	-0.483878	0.179458	0.602404
C21	C	-0.836753	-0.163612	0.000075
C22	C	-0.336753	0.336388	0.500075
C23	C	-0.743792	-0.161372	0.000066
C24	C	-0.243792	0.338628	0.500066
C25	C	-0.994968	0.052179	0.000100
C26	C	-0.494968	0.552179	0.500100
C27	C	-0.992745	0.178174	0.000099
C28	C	-0.492745	0.678174	0.500099
C29	C	-1.142842	-0.147040	0.000104
C30	C	-0.642842	0.352960	0.500104
C31	C	-1.235803	-0.149279	0.000106
C32	C	-0.735803	0.350721	0.500106
C33	C	-0.406008	-0.153331	0.000092
C34	C	0.093992	0.346669	0.500092
C35	C	-0.452879	-0.029232	0.000555
C36	C	0.047121	0.470768	0.500555
C37	C	-0.549579	-0.031471	0.000085
C38	C	-0.049579	0.468529	0.500085
C39	C	-0.573587	-0.157320	0.000080
C40	C	-0.073587	0.342680	0.500080
C41	C	-0.532784	-0.218534	-0.116781
C42	C	-0.032784	0.281466	0.383219
C43	C	-0.436134	-0.215416	-0.116870
C44	C	0.063866	0.284584	0.383130
C45	C	-0.435794	-0.217973	0.115849
C46	C	0.064206	0.282027	0.615849
C47	C	-0.532740	-0.217943	0.117385
C48	C	-0.032740	0.282057	0.617385
C49	C	-0.668295	-0.159581	0.000069
C50	C	-0.168295	0.340419	0.500069
C51	C	-0.311300	-0.151074	0.000095
C52	C	0.188700	0.348926	0.500095
C53	C	-0.984627	-0.362830	0.000080
C54	C	-0.484627	0.137170	0.500080
C55	C	-0.986850	-0.488825	0.000073
C56	C	-0.486850	0.011175	0.500073
N57	N	-0.989787	-0.155314	0.318919
N58	N	-0.489787	0.344686	0.818919
C59	C	-0.988655	0.408852	0.000078
C60	C	-0.488655	0.908852	0.500078
C61	C	-0.990927	0.280486	0.000089
C62	C	-0.490927	0.780486	0.500089
N63	N	-0.989814	-0.155328	-0.318737
N64	N	-0.489814	0.344672	0.181263
C65	C	-0.989800	-0.155328	0.569925
C66	C	-0.489800	0.344672	1.069925
C67	C	-0.989790	-0.155324	0.430248
C68	C	-0.489790	0.344676	0.930248
H69	H	-0.577785	0.016646	0.083857
H70	H	-0.077785	0.516646	0.583857
F71	F	-0.408711	-0.164937	0.231627
F72	F	0.091289	0.335063	0.731627
F73	F	-0.411942	-0.157076	-0.231044
F74	F	0.088058	0.342924	0.268956
H75	H	-0.548521	-0.309716	0.124439
H76	H	-0.048521	0.190284	0.624439
H77	H	-0.404448	-0.309470	0.116635
H78	H	0.095552	0.190530	0.616635
H79	H	-0.434127	0.020377	0.084361
H80	H	0.065873	0.520377	0.584361
F81	F	-0.426977	0.035311	-0.108366
F82	F	0.073023	0.535311	0.391634
F83	F	-0.585690	0.031582	-0.109767
F84	F	-0.085690	0.531582	0.390233
F85	F	-0.394521	-0.334503	-0.123808
F86	F	0.105479	0.165497	0.376192
H87	H	-0.547328	-0.310992	-0.121130
H88	H	-0.047328	0.189008	0.378870
F89	F	-0.569622	-0.162970	-0.230454
F90	F	-0.069622	0.337030	0.269546
H91	H	-0.559849	-0.173257	0.203838
H92	H	-0.059849	0.326743	0.703838
