data_functionalizedCrystal
_audit_creation_method	'MofGen! by Chris Wilmer'
_symmetry_space_group_name_H-M	'P1'
_symmetry_Int_Tables_number	1
_symmetry_cell_setting	triclinic
loop_
_symmetry_equiv_pos_as_xyz
  x,y,z
_cell_length_a	13.339071
_cell_length_b	15.944493
_cell_length_c	12.376457
_cell_angle_alpha	101.280268
_cell_angle_beta	75.590460
_cell_angle_gamma	99.552161
loop_
_atom_site_label
_atom_site_type_symbol
_atom_site_fract_x
_atom_site_fract_y
_atom_site_fract_z
O1	O	1.361601	0.409517	-0.093971
O2	O	1.067085	0.354246	-0.093976
O3	O	1.222418	0.261483	-0.093983
O4	O	1.206268	0.502279	-0.093964
O5	O	1.183599	0.284633	0.094031
O6	O	1.028266	0.377396	0.094038
O7	O	1.322782	0.432667	0.094043
Zn8	Zn	1.169360	0.408707	0.123892
Zn9	Zn	1.220507	0.378206	-0.123825
O10	O	1.167449	0.525429	0.094050
C11	C	1.009988	0.356484	0.000030
C12	C	0.897692	0.328654	0.000027
C13	C	0.857010	0.241870	0.000025
C14	C	0.751504	0.215720	0.000017
C15	C	0.686667	0.276352	0.000021
C16	C	0.727347	0.363139	0.000031
C17	C	0.832865	0.389291	0.000030
C18	C	0.662522	0.423772	0.000026
C19	C	0.703202	0.510560	0.000036
C20	C	0.808710	0.536707	0.000036
C21	C	0.873547	0.476075	0.000033
C22	C	0.557004	0.397620	0.000027
C23	C	0.532858	0.545041	0.000032
C24	C	0.638365	0.571192	0.000040
C25	C	1.202350	0.241609	0.000019
C26	C	1.200374	0.147898	0.000005
C27	C	1.291801	-0.066554	0.000028
C28	C	1.261635	-0.140026	-0.092673
C29	C	1.196705	-0.023676	0.000019
C30	C	1.223340	-0.117183	0.092694
C31	C	1.193167	-0.189407	0.000037
C32	C	1.166581	-0.095922	-0.092759
C33	C	1.128283	-0.073063	0.092691
C34	C	1.098052	-0.146520	-0.000032
C35	C	1.198746	0.071797	0.000007
C36	C	1.191121	-0.284880	0.000040
C37	C	1.379879	0.430428	0.000034
C38	C	1.492177	0.458257	0.000030
C39	C	1.187518	0.545303	0.000045
C40	C	1.189495	0.639014	0.000052
N41	N	1.134462	0.429524	0.292951
N42	N	1.255413	0.357384	-0.292885
C43	C	1.336424	0.309043	0.647928
C44	C	1.360844	0.294472	0.529587
C45	C	1.304250	0.328233	0.470422
C46	C	1.223233	0.376569	0.529610
C47	C	1.198816	0.391148	0.647962
C48	C	1.166642	0.410338	0.470457
C49	C	1.085625	0.458674	0.529645
C50	C	1.061211	0.473250	0.647986
C51	C	1.117805	0.439488	0.707150
C52	C	1.191059	0.395759	0.352104
C53	C	1.053451	0.477864	0.352139
C54	C	1.029031	0.492436	0.470480
H55	H	0.959459	0.497364	0.000044
H56	H	1.097920	0.451349	0.803513
O57	O	0.584191	0.250814	0.000070
C58	C	0.562194	0.161210	0.000034
H59	H	0.622491	0.138922	0.035619
H60	H	0.481071	0.145958	0.054623
H61	H	0.565230	0.126294	-0.090168
H62	H	0.480068	0.594413	0.000034
O63	O	0.517643	0.313280	-0.000128
C64	C	0.570860	0.262841	-0.097518
H65	H	0.650736	0.298792	-0.129983
H66	H	0.581000	0.199004	-0.075621
H67	H	0.523878	0.249941	-0.165702
O68	O	0.712147	0.131395	0.000064
C69	C	0.791999	0.083484	0.000036
H70	H	0.856324	0.128117	0.035631
H71	H	0.758688	0.031100	0.054622
H72	H	0.825556	0.052490	-0.090163
O73	O	1.137853	-0.084278	-0.186282
C74	C	1.036098	-0.126109	-0.186518
H75	H	0.993185	-0.134067	-0.096468
H76	H	0.992365	-0.085866	-0.221588
H77	H	1.040461	-0.192218	-0.241688
H78	H	1.016084	-0.181095	-0.000084
O79	O	0.982646	0.520329	0.705535
C80	C	1.022677	0.593220	0.774005
H81	H	1.109808	0.608879	0.738323
H82	H	0.981106	0.650509	0.775363
H83	H	1.009486	0.579216	0.863694
H84	H	0.963065	0.531793	0.518686
H85	H	1.373735	-0.031850	-0.000064
H86	H	1.317978	-0.169263	-0.171044
O87	O	1.060984	-0.038143	0.186070
C88	C	0.984517	-0.003947	0.152840
H89	H	0.977822	-0.037099	0.064103
H90	H	0.906181	-0.015293	0.214367
H91	H	1.007714	0.068200	0.153179
H92	H	0.671501	0.641855	0.000048
H93	H	1.247341	-0.127102	0.171060
O94	O	0.998557	0.510809	0.294732
C95	C	1.008992	0.601359	0.323671
H96	H	1.083269	0.624690	0.356188
H97	H	1.013402	0.631209	0.245845
H98	H	0.938745	0.621398	0.392377
O99	O	0.920125	0.183098	0.000068
C100	C	1.021981	0.224788	0.000035
H101	H	1.018661	0.296089	0.035634
H102	H	1.058531	0.194378	0.054614
H103	H	1.071114	0.217609	-0.090167
O104	O	0.848133	0.621017	-0.000118
C105	C	0.835121	0.647459	-0.097507
H106	H	0.768650	0.603507	-0.129965
H107	H	0.815934	0.716689	-0.075610
H108	H	0.910255	0.643564	-0.165695
O109	O	1.269630	0.348651	0.294707
C110	C	1.247202	0.265250	0.323708
H111	H	1.159494	0.249962	0.356229
H112	H	1.274910	0.216195	0.245914
H113	H	1.289066	0.262152	0.392431
H114	H	1.382501	0.281564	0.696107
O115	O	1.328070	0.313962	0.355467
C116	C	1.411728	0.264078	0.315912
H117	H	1.415322	0.226567	0.384110
H118	H	1.399574	0.217064	0.236745
H119	H	1.487934	0.308263	0.294896
O120	O	1.439536	0.247468	0.472271
C121	C	1.484267	0.220811	0.549863
H122	H	1.425390	0.220567	0.634232
H123	H	1.506775	0.153125	0.515663
H124	H	1.556807	0.267185	0.562438
