data_functionalizedCrystal
_audit_creation_method	'MofGen! by Chris Wilmer'
_symmetry_space_group_name_H-M	'P1'
_symmetry_Int_Tables_number	1
_symmetry_cell_setting	triclinic
loop_
_symmetry_equiv_pos_as_xyz
  x,y,z
_cell_length_a	14.044220
_cell_length_b	11.026607
_cell_length_c	10.065875
_cell_angle_alpha	100.732634
_cell_angle_beta	99.550528
_cell_angle_gamma	79.112553
loop_
_atom_site_label
_atom_site_type_symbol
_atom_site_fract_x
_atom_site_fract_y
_atom_site_fract_z
O1	O	-1.319580	0.281448	-0.113330
O2	O	-0.819580	0.781448	0.386670
O3	O	-1.041779	0.270687	-0.113365
O4	O	-0.541779	0.770687	0.386635
O5	O	-1.157655	0.096922	-0.113348
O6	O	-0.657655	0.596922	0.386652
O7	O	-1.203703	0.455213	-0.113346
O8	O	-0.703703	0.955213	0.386654
O9	O	-1.135584	0.130202	0.113637
O10	O	-0.635584	0.630202	0.613637
O11	O	-1.019707	0.303967	0.113621
O12	O	-0.519707	0.803967	0.613621
O13	O	-1.297508	0.314728	0.113656
O14	O	-0.797508	0.814728	0.613656
Zn15	Zn	-1.155103	0.314632	0.149677
Zn16	Zn	-0.655103	0.814632	0.649677
Zn17	Zn	-1.184183	0.270784	-0.149386
Zn18	Zn	-0.684183	0.770784	0.350614
O19	O	-1.181632	0.488493	0.113639
O20	O	-0.681632	0.988493	0.613639
C21	C	-1.138125	0.067431	0.000141
C22	C	-0.638125	0.567431	0.500141
C23	C	-1.112801	-0.070026	0.000131
C24	C	-0.612801	0.429974	0.500131
C25	C	-0.994626	0.282618	0.000123
C26	C	-0.494626	0.782618	0.500123
C27	C	-0.887005	0.268572	0.000109
C28	C	-0.387005	0.768572	0.500109
C29	C	-1.344662	0.302797	0.000165
C30	C	-0.844662	0.802797	0.500165
C31	C	-1.452283	0.316841	0.000170
C32	C	-0.952283	0.816841	0.500170
C33	C	-0.689960	0.242901	0.000136
C34	C	-0.189960	0.742901	0.500136
C35	C	-0.649322	0.342507	0.000143
C36	C	-0.149322	0.842507	0.500143
C37	C	-0.539679	0.328223	0.000158
C38	C	-0.039679	0.828223	0.500158
C39	C	-0.799612	0.257183	0.000121
C40	C	-0.299612	0.757183	0.500121
C41	C	-1.201163	0.517984	0.000147
C42	C	-0.701163	1.017984	0.500147
C43	C	-1.226487	0.655439	0.000148
C44	C	-0.726487	1.155439	0.500148
N45	N	-1.135264	0.344556	0.353780
N46	N	-0.635264	0.844556	0.853780
C47	C	-1.156563	0.721674	0.000139
C48	C	-0.656563	1.221674	0.500139
C49	C	-1.182735	0.863742	0.000140
C50	C	-0.682735	1.363742	0.500140
N51	N	-1.204029	0.240850	-0.353489
N52	N	-0.704029	0.740850	0.146511
C53	C	-1.177273	0.281187	0.421565
C54	C	-0.677273	0.781187	0.921565
C55	C	-1.162013	0.304228	0.578730
C56	C	-0.662013	0.804228	1.078730
H57	H	-0.696875	0.438509	0.000137
H58	H	-0.196875	0.938509	0.500137
C59	C	-1.071398	0.440875	0.432547
C60	C	-0.571398	0.940875	0.932547
H61	H	-1.047010	0.477633	0.369638
H62	H	-0.547010	0.977633	0.869638
H63	H	-1.109621	0.504133	0.488299
H64	H	-0.609621	1.004133	0.988299
H65	H	-1.018139	0.400266	0.488280
H66	H	-0.518139	0.900266	0.988280
H67	H	-0.642410	0.146907	0.000143
H68	H	-0.142410	0.646907	0.500143
H69	H	-1.305731	0.703902	0.000109
H70	H	-0.805731	1.203902	0.500109
C71	C	-1.267909	0.144540	0.567746
C72	C	-0.767909	0.644540	1.067746
H73	H	-1.269804	0.141705	0.472447
H74	H	-0.769804	0.641705	0.972447
H75	H	-1.240942	0.064320	0.591082
H76	H	-0.740942	0.564320	1.091082
H77	H	-1.332410	0.168208	0.591104
H78	H	-0.832410	0.668208	1.091104
H79	H	-1.077324	0.673203	0.000122
H80	H	-0.577324	1.173203	0.500122
C81	C	-1.289790	0.929198	0.000152
C82	C	-0.789790	1.429198	0.500152
H83	H	-1.330266	0.869219	0.000149
H84	H	-0.830266	1.369219	0.500149
H85	H	-1.294880	0.990981	0.079306
H86	H	-0.794880	1.490981	0.579306
H87	H	-1.310272	0.967761	-0.079014
H88	H	-0.810272	1.467761	0.420986
C89	C	-1.005748	0.864515	0.000116
C90	C	-0.505748	1.364515	0.500116
H91	H	-1.002198	0.777618	0.000125
H92	H	-0.502198	1.277618	0.500125
H93	H	-0.982197	0.876162	-0.079041
H94	H	-0.482197	1.376162	0.420959
H95	H	-0.966806	0.899371	0.079279
H96	H	-0.466806	1.399371	0.579279
C97	C	-1.098144	0.400552	0.657491
C98	C	-0.598144	0.900552	1.157491
H99	H	-1.073757	0.437310	0.594583
H100	H	-0.573757	0.937310	1.094583
H101	H	-1.136368	0.463810	0.713243
H102	H	-0.636368	0.963810	1.213243
H103	H	-1.044886	0.359942	0.713225
H104	H	-0.544886	0.859942	1.213225
H105	H	-1.224532	0.209871	0.363247
H106	H	-0.724532	0.709871	0.863247
