data_functionalizedCrystal
_audit_creation_method	'MofGen! by Chris Wilmer'
_symmetry_space_group_name_H-M	'P1'
_symmetry_Int_Tables_number	1
_symmetry_cell_setting	triclinic
loop_
_symmetry_equiv_pos_as_xyz
  x,y,z
_cell_length_a	15.021413
_cell_length_b	14.044220
_cell_length_c	14.044220
_cell_angle_alpha	93.188878
_cell_angle_beta	90.003392
_cell_angle_gamma	89.996894
loop_
_atom_site_label
_atom_site_type_symbol
_atom_site_fract_x
_atom_site_fract_y
_atom_site_fract_z
O1	O	0.073941	-1.277172	-0.230155
O2	O	0.407274	-0.943839	0.103178
O3	O	0.740608	-0.610506	0.436511
O4	O	0.073963	-1.000501	-0.221850
O5	O	0.407297	-0.667167	0.111484
O6	O	0.740630	-0.333834	0.444817
O7	O	0.073944	-1.134684	-0.087667
O8	O	0.407277	-0.801350	0.245667
O9	O	0.740610	-0.468017	0.579000
O10	O	0.073961	-1.142989	-0.364338
O11	O	0.407294	-0.809656	-0.031005
O12	O	0.740627	-0.476323	0.302329
O13	O	-0.074121	-1.134662	-0.087686
O14	O	0.259213	-0.801329	0.245648
O15	O	0.592546	-0.467995	0.578981
O16	O	-0.074101	-1.000479	-0.221869
O17	O	0.259232	-0.667146	0.111465
O18	O	0.592566	-0.333813	0.444798
O19	O	-0.074123	-1.277151	-0.230174
O20	O	0.259210	-0.943817	0.103159
O21	O	0.592543	-0.610484	0.436492
Zn22	Zn	-0.097620	-1.138811	-0.226024
Zn23	Zn	0.235713	-0.805478	0.107309
Zn24	Zn	0.569046	-0.472145	0.440642
Zn25	Zn	0.097460	-1.138840	-0.225999
Zn26	Zn	0.430794	-0.805507	0.107334
Zn27	Zn	0.764127	-0.472173	0.440667
O28	O	-0.074104	-1.142968	-0.364357
O29	O	0.259230	-0.809634	-0.031024
O30	O	0.592563	-0.476301	0.302310
C31	C	-0.000066	-0.964868	-0.218223
C32	C	0.333267	-0.631535	0.115110
C33	C	0.666601	-0.298201	0.448443
C34	C	-0.000058	-0.858725	-0.207379
C35	C	0.333276	-0.525392	0.125955
C36	C	0.666609	-0.192059	0.459288
C37	C	-0.000092	-1.312783	-0.233800
C38	C	0.333241	-0.979450	0.099533
C39	C	0.666575	-0.646117	0.432866
C40	C	-0.000094	-1.418926	-0.244645
C41	C	0.333239	-1.085593	0.088688
C42	C	0.666572	-0.752259	0.422022
N43	N	-0.230758	-1.138799	-0.226041
N44	N	0.102575	-0.805466	0.107292
N45	N	0.435909	-0.472132	0.440625
C46	C	-0.470432	-1.076740	-0.288055
C47	C	-0.137099	-0.743406	0.045278
C48	C	0.196234	-0.410073	0.378612
C49	C	-0.529772	-1.164574	-0.313879
C50	C	-0.196439	-0.831241	0.019455
C51	C	0.136894	-0.497907	0.352788
C52	C	-0.412365	-1.138821	-0.226020
C53	C	-0.079032	-0.805488	0.107314
C54	C	0.254302	-0.472155	0.440647
C55	C	-0.529767	-1.051012	-0.200219
C56	C	-0.196433	-0.717679	0.133114
C57	C	0.136900	-0.384346	0.466448
C58	C	-0.587789	-1.138836	-0.226000
C59	C	-0.254456	-0.805502	0.107333
C60	C	0.078878	-0.472169	0.440667
C61	C	-0.470399	-1.226703	-0.251890
C62	C	-0.137065	-0.893369	0.081443
C63	C	0.196268	-0.560036	0.414777
C64	C	-0.470388	-1.113081	-0.138188
C65	C	-0.137054	-0.779748	0.195145
C66	C	0.196279	-0.446415	0.528479
C67	C	-0.529701	-1.200975	-0.163981
C68	C	-0.196368	-0.867641	0.169353
C69	C	0.136966	-0.534308	0.502686
C70	C	-0.311308	-1.138812	-0.226033
C71	C	0.022026	-0.805479	0.107300
C72	C	0.355359	-0.472145	0.440633
C73	C	-0.688844	-1.138855	-0.225987
C74	C	-0.355511	-0.805521	0.107347
C75	C	-0.022178	-0.472188	0.440680
N76	N	0.230598	-1.138859	-0.225975
N77	N	0.563931	-0.805526	0.107358
N78	N	0.897265	-0.472193	0.440691
C79	C	-0.000089	-1.131037	-0.052054
C80	C	0.333245	-0.797704	0.281279
C81	C	0.666578	-0.464371	0.614612
C82	C	-0.000089	-1.120193	0.054088
C83	C	0.333245	-0.786859	0.387422
C84	C	0.666578	-0.453526	0.720755
C85	C	-0.000077	-0.664388	-0.187553
C86	C	0.333257	-0.331054	0.145781
C87	C	0.666590	0.002279	0.479114
C88	C	-0.000076	-0.613258	-0.264467
C89	C	0.333258	-0.279924	0.068866
C90	C	0.666591	0.053409	0.402200
C91	C	-0.000086	-0.505122	-0.253435
C92	C	0.333247	-0.171788	0.079898
C93	C	0.666581	0.161545	0.413231
C94	C	-0.000066	-0.772534	-0.198583
C95	C	0.333267	-0.439200	0.134751
C96	C	0.666601	-0.105867	0.468084
C97	C	-0.000069	-1.146614	-0.399969
C98	C	0.333264	-0.813281	-0.066636
C99	C	0.666597	-0.479948	0.266697
C100	C	-0.000063	-1.157459	-0.506112
C101	C	0.333270	-0.824125	-0.172779
C102	C	0.666603	-0.490792	0.160554
C103	C	-0.000074	-1.100366	0.248426
C104	C	0.333259	-0.767033	0.581759
C105	C	0.666592	-0.433700	0.915093
C106	C	-0.000078	-1.177281	0.299556
C107	C	0.333255	-0.843947	0.632889
C108	C	0.666589	-0.510614	0.966223
C109	C	-0.000070	-1.166249	0.407692
C110	C	0.333264	-0.832916	0.741026
C111	C	0.666597	-0.499582	1.074359
C112	C	-0.000082	-1.111397	0.140280
C113	C	0.333251	-0.778063	0.473613
C114	C	0.666584	-0.444730	0.806947
H115	H	-0.555857	-1.186358	-0.388148
H116	H	-0.222523	-0.853024	-0.054815
H117	H	0.110810	-0.519691	0.278519
O118	O	-0.000069	-1.002174	0.298014
O119	O	0.333264	-0.668841	0.631348
O120	O	0.666597	-0.335507	0.964681
H121	H	-0.000065	-0.947525	0.243881
H122	H	0.333268	-0.614192	0.577214
H123	H	0.666602	-0.280859	0.910547
O124	O	-0.435958	-1.007277	-0.357609
O125	O	-0.102625	-0.673944	-0.024276
O126	O	0.230708	-0.340611	0.309057
H127	H	-0.395315	-0.951712	-0.318765
H128	H	-0.061982	-0.618379	0.014568
H129	H	0.271352	-0.285045	0.347902
H130	H	-0.000086	-0.626951	-0.113425
H131	H	0.333247	-0.293617	0.219908
H132	H	0.666581	0.039716	0.553242
H133	H	-0.444430	-1.300991	-0.273792
H134	H	-0.111097	-0.967657	0.059542
H135	H	0.222236	-0.634324	0.392875
O136	O	-0.563975	-1.270600	-0.094484
O137	O	-0.230642	-0.937266	0.238850
O138	O	0.102692	-0.603933	0.572183
H139	H	-0.540071	-1.343399	-0.116116
H140	H	-0.206738	-1.010066	0.217217
H141	H	0.126596	-0.676733	0.550550
O142	O	-0.000094	-1.275486	0.249980
O143	O	0.333239	-0.942152	0.583313
O144	O	0.666572	-0.608819	0.916646
H145	H	-0.060453	-1.284163	0.204735
H146	H	0.272881	-0.950830	0.538069
H147	H	0.606214	-0.617496	0.871402
O148	O	-0.435796	-1.084200	-0.039840
O149	O	-0.102463	-0.750867	0.293493
O150	O	0.230871	-0.417533	0.626827
H151	H	-0.459529	-1.011243	-0.018588
H152	H	-0.126196	-0.677910	0.314745
H153	H	0.207138	-0.344576	0.648078
H154	H	-0.555847	-0.976748	-0.178407
H155	H	-0.222513	-0.643415	0.154927
H156	H	0.110820	-0.310081	0.488260
H157	H	-0.000067	-0.650697	-0.338600
H158	H	0.333267	-0.317364	-0.005267
H159	H	0.666600	0.015970	0.328066
