data_functionalizedCrystal
_audit_creation_method	'MofGen! by Chris Wilmer'
_symmetry_space_group_name_H-M	'P1'
_symmetry_Int_Tables_number	1
_symmetry_cell_setting	triclinic
loop_
_symmetry_equiv_pos_as_xyz
  x,y,z
_cell_length_a	17.699083
_cell_length_b	9.198806
_cell_length_c	17.699092
_cell_angle_alpha	90.001497
_cell_angle_beta	83.284691
_cell_angle_gamma	89.997911
loop_
_atom_site_label
_atom_site_type_symbol
_atom_site_fract_x
_atom_site_fract_y
_atom_site_fract_z
O1	O	1.004078	0.120683	0.095709
O2	O	1.504078	0.620683	0.595709
O3	O	0.783700	0.120730	0.108162
O4	O	1.283700	0.620730	0.608162
O5	O	0.900112	0.120702	-0.008253
O6	O	1.400112	0.620702	0.491747
O7	O	0.887666	0.120711	0.212124
O8	O	1.387666	0.620711	0.712124
O9	O	0.900103	-0.121083	-0.008254
O10	O	1.400103	0.378917	0.491746
O11	O	0.783691	-0.121055	0.108161
O12	O	1.283691	0.378945	0.608161
O13	O	1.004069	-0.121102	0.095709
O14	O	1.504069	0.378898	0.595709
Cu15	Cu	0.893879	-0.143155	0.101935
Cu16	Cu	1.393879	0.356845	0.601935
Cu17	Cu	0.893890	0.142784	0.101935
Cu18	Cu	1.393890	0.642784	0.601935
O19	O	0.887657	-0.121074	0.212124
O20	O	1.387657	0.378926	0.712124
C21	C	0.755499	-0.000156	0.107715
C22	C	1.255499	0.499844	0.607715
C23	C	0.671480	-0.000138	0.106377
C24	C	1.171480	0.499862	0.606377
N25	N	0.893877	-0.344269	0.101934
N26	N	1.393877	0.155731	0.601934
C27	C	0.622862	-0.000136	0.174710
C28	C	1.122862	0.499864	0.674710
C29	C	0.543918	-0.000155	0.173448
C30	C	1.043918	0.499845	0.673448
C31	C	0.513595	-0.000166	0.103851
C32	C	1.013595	0.499834	0.603851
C33	C	0.562220	-0.000172	0.035513
C34	C	1.062220	0.499828	0.535513
C35	C	0.641162	-0.000164	0.036776
C36	C	1.141162	0.499836	0.536776
C37	C	0.243857	-0.000209	0.030418
C38	C	0.743857	0.499791	0.530418
C39	C	0.164909	-0.000213	0.029160
C40	C	0.664909	0.499787	0.529160
C41	C	0.146613	-0.000199	0.167089
C42	C	0.646613	0.499801	0.667089
C43	C	0.225555	-0.000191	0.168352
C44	C	0.725555	0.499809	0.668352
C45	C	0.274173	-0.000205	0.100014
C46	C	0.774173	0.499795	0.600014
C47	C	0.359772	-0.000188	0.101384
C48	C	0.859772	0.499812	0.601384
C49	C	0.427998	-0.000173	0.102481
C50	C	0.927998	0.499827	0.602481
C51	C	0.942757	-0.416478	0.052842
C52	C	1.442757	0.083522	0.552842
C53	C	0.942769	-0.583890	0.052839
C54	C	1.442769	-0.083890	0.552839
C55	C	1.032271	-0.000212	0.096155
C56	C	1.532271	0.499788	0.596155
C57	C	1.116289	-0.000221	0.097494
C58	C	1.616289	0.499779	0.597494
C59	C	0.899661	-0.000188	-0.036450
C60	C	1.399661	0.499812	0.463550
C61	C	0.898319	-0.000181	-0.120468
C62	C	1.398319	0.499819	0.379532
N63	N	0.893898	0.343898	0.101930
N64	N	1.393898	0.843898	0.601930
C65	C	0.897696	0.131618	-0.159935
C66	C	1.397696	0.631618	0.340065
C67	C	0.896431	0.131620	-0.238878
C68	C	1.396431	0.631620	0.261122
C69	C	0.895795	-0.000179	-0.278353
C70	C	1.395795	0.499821	0.221647
C71	C	0.896416	-0.131988	-0.238880
C72	C	1.396416	0.368012	0.261120
C73	C	0.897676	-0.131988	-0.159938
C74	C	1.397676	0.368012	0.340062
C75	C	0.891336	-0.131989	-0.557245
C76	C	1.391336	0.368011	-0.057245
C77	C	0.890078	-0.131978	-0.636193
C78	C	1.390078	0.368022	-0.136193
C79	C	0.890091	0.131619	-0.636186
C80	C	1.390091	0.631619	-0.136186
C81	C	0.891351	0.131619	-0.557243
C82	C	1.391351	0.631619	-0.057243
C83	C	0.891968	-0.000189	-0.517777
C84	C	1.391968	0.499811	-0.017777
C85	C	0.893338	-0.000190	-0.432178
C86	C	1.393338	0.499810	0.067822
C87	C	0.894430	-0.000180	-0.363952
C88	C	1.394430	0.499820	0.136048
C89	C	0.888109	-0.000180	0.240321
C90	C	1.388109	0.499820	0.740321
C91	C	0.889450	-0.000178	0.324339
C92	C	1.389450	0.499822	0.824339
H93	H	0.647544	-0.000126	0.231383
H94	H	1.147544	0.499874	0.731383
H95	H	0.504335	-0.000151	0.229091
H96	H	1.004335	0.499849	0.729091
F97	F	0.891983	-0.272271	-0.515251
F98	F	1.391983	0.227729	-0.015251
F99	F	0.839199	-0.574951	0.156874
F100	F	1.339199	-0.074951	0.656874
H101	H	0.283433	-0.000222	-0.025227
H102	H	0.783433	0.499778	0.474773
F103	F	0.889432	0.271903	-0.678195
F104	F	1.389432	0.771903	-0.178195
H105	H	0.537525	-0.000202	-0.021154
H106	H	1.037525	0.499798	0.478846
H107	H	0.895893	-0.239300	-0.271026
H108	H	1.395893	0.260700	0.228974
H109	H	0.107018	-0.000195	0.222733
H110	H	0.607018	0.499805	0.722733
F111	F	0.257822	-0.000170	0.242426
F112	F	0.757822	0.499830	0.742426
F113	F	0.132640	-0.000225	-0.044918
F114	F	0.632640	0.499775	0.455082
H115	H	0.898172	-0.239312	-0.127803
H116	H	1.398172	0.260688	0.372197
F117	F	0.839184	-0.425456	0.156866
F118	F	1.339184	0.074544	0.656866
H119	H	0.895927	0.238943	-0.271010
H120	H	1.395927	0.738943	0.228990
F121	F	0.692906	-0.000172	-0.035954
F122	F	1.192906	0.499828	0.464046
H123	H	0.891873	0.238942	-0.525107
H124	H	1.391873	0.738942	-0.025107
F125	F	0.997473	-0.665051	-0.002096
F126	F	1.497473	-0.165051	0.497904
H127	H	0.898218	0.238943	-0.127801
H128	H	1.398218	0.738943	0.372199
F129	F	0.889400	-0.272263	-0.678204
F130	F	1.389400	0.227737	-0.178204
H131	H	0.984595	-0.354362	0.010810
H132	H	1.484595	0.145638	0.510810
