data_functionalizedCrystal
_audit_creation_method	'MofGen! by Chris Wilmer'
_symmetry_space_group_name_H-M	'P1'
_symmetry_Int_Tables_number	1
_symmetry_cell_setting	triclinic
loop_
_symmetry_equiv_pos_as_xyz
  x,y,z
_cell_length_a	12.645331
_cell_length_b	29.839131
_cell_length_c	12.645323
_cell_angle_alpha	89.959633
_cell_angle_beta	89.984262
_cell_angle_gamma	90.034465
loop_
_atom_site_label
_atom_site_type_symbol
_atom_site_fract_x
_atom_site_fract_y
_atom_site_fract_z
Zn1	Zn	1.620602	-0.178859	-0.599136
Zn2	Zn	1.620429	-0.253991	-0.421828
Zn3	Zn	1.443317	-0.178875	-0.421902
Zn4	Zn	1.443244	-0.253962	-0.599065
O5	O	1.531898	-0.216421	-0.510483
O6	O	1.768926	-0.188831	-0.575614
O7	O	1.596893	-0.244045	-0.273490
O8	O	1.466936	-0.116005	-0.445473
O9	O	1.768799	-0.244030	-0.445347
O10	O	1.597187	-0.115994	-0.575686
O11	O	1.466769	-0.188857	-0.273545
O12	O	1.294960	-0.188829	-0.445404
O13	O	1.466813	-0.243981	-0.747422
O14	O	1.294906	-0.243996	-0.575565
O15	O	1.597117	-0.188803	-0.747474
O16	O	1.596823	-0.316854	-0.445278
O17	O	1.466645	-0.316833	-0.575493
C18	C	1.256468	-0.216411	-0.510485
C19	C	1.138638	-0.216418	-0.510512
C20	C	0.971076	-0.251313	-0.591969
C21	C	1.093636	-0.251201	-0.592310
C22	C	1.094194	-0.169100	-0.541063
C23	C	0.971596	-0.169313	-0.541637
C24	C	0.971384	-0.228459	-0.398245
C25	C	1.093989	-0.229494	-0.398849
C26	C	1.531736	-0.333144	-0.510393
C27	C	1.531764	-0.383079	-0.510390
C28	C	1.599705	-0.692681	-0.578381
C29	C	1.599820	-0.880354	-0.578445
O30	O	1.657427	-0.904584	-0.636187
N31	N	1.532078	-0.903864	-0.510600
C32	C	1.464298	-0.880452	-0.442740
O33	O	1.406674	-0.904754	-0.385043
C34	C	1.464178	-0.692780	-0.442682
C35	C	1.531932	-0.669273	-0.510524
C36	C	1.667452	-0.669174	-0.646218
C37	C	1.667427	-0.622259	-0.646197
C38	C	1.599654	-0.598850	-0.578340
C39	C	1.531907	-0.622357	-0.510503
C40	C	1.396393	-0.669369	-0.374828
C41	C	1.396367	-0.622448	-0.374821
C42	C	1.464121	-0.598941	-0.442663
C43	C	1.464108	-0.552033	-0.442625
N44	N	1.531850	-0.528524	-0.510469
C45	C	1.599623	-0.551932	-0.578327
C46	C	1.464367	-0.978982	-0.442773
C47	C	1.464398	-1.025900	-0.442786
C48	C	1.599919	-1.025799	-0.578493
C49	C	1.599892	-0.978881	-0.578474
C50	C	1.532109	-0.955473	-0.510618
C51	C	1.599565	-0.453406	-0.578278
C52	C	1.599537	-0.406487	-0.578248
C53	C	1.464012	-0.406592	-0.442546
C54	C	1.464044	-0.453507	-0.442571
C55	C	1.531824	-0.476914	-0.510446
O56	O	1.406523	-0.527774	-0.384922
O57	O	1.657221	-0.527622	-0.636032
C58	C	1.599730	-0.739596	-0.578402
C59	C	1.531983	-0.763104	-0.510565
C60	C	1.464210	-0.739695	-0.442707
C61	C	1.532014	-0.810021	-0.510578
C62	C	1.599787	-0.833430	-0.578435
C63	C	1.667528	-0.809920	-0.646280
C64	C	1.667503	-0.763005	-0.646259
C65	C	1.396468	-0.763205	-0.374863
C66	C	1.396500	-0.810120	-0.374888
C67	C	1.464273	-0.833528	-0.442746
C68	C	1.808403	-0.216432	-0.510480
C69	C	1.926233	-0.216436	-0.510480
C70	C	1.531976	-0.216387	-0.786988
C71	C	1.532009	-0.216372	-0.904818
C72	C	1.532089	-0.099243	-0.510595
C73	C	1.532171	-0.049309	-0.510644
C74	C	1.449782	-0.250921	-1.072350
C75	C	1.449997	-0.251092	-0.949790
C76	C	1.643700	-0.229221	-0.949316
C77	C	1.643249	-0.229438	-1.071914
C78	C	1.503602	-0.168781	-1.072050
C79	C	1.501110	-0.169066	-0.949443
C80	C	1.531881	-0.216424	-0.235053
C81	C	1.532053	-0.216312	-0.117223
H82	H	1.123047	-0.264312	-0.375808
H83	H	1.124927	-0.158717	-0.622224
C84	C	1.675829	-0.276374	-1.110543
H85	H	1.675847	-0.276920	-1.185660
H86	H	1.627060	-0.297969	-1.084584
H87	H	1.744696	-0.283189	-1.085223
H88	H	1.468776	-0.286328	-0.920451
C89	C	1.674131	-0.479147	-0.652929
H90	H	1.714477	-0.458422	-0.693314
H91	H	1.633579	-0.497448	-0.699102
H92	H	1.720358	-0.497445	-0.612411
C93	C	1.674466	-1.051552	-0.653140
H94	H	1.714814	-1.030835	-0.693547
H95	H	1.633891	-1.069854	-0.699293
H96	H	1.720693	-1.069852	-0.612626
C97	C	0.931150	-0.298869	-0.566436
H98	H	0.959094	-0.319413	-0.616529
H99	H	0.856105	-0.299387	-0.569576
H100	H	0.953620	-0.307151	-0.497459
H101	H	1.468378	-0.285937	-1.103144
C102	C	0.929581	-0.274275	-0.360735
H103	H	0.884196	-0.286501	-0.413180
H104	H	0.891386	-0.270584	-0.296637
H105	H	0.987384	-0.294010	-0.349277
H106	H	1.418916	-0.159376	-0.920360
C107	C	1.135359	-0.197665	-0.312422
H108	H	1.180599	-0.175886	-0.343445
H109	H	1.173623	-0.214373	-0.261190
H110	H	1.077370	-0.183090	-0.279323
C111	C	1.728875	-0.196873	-1.112024
H112	H	1.763787	-0.183572	-1.053389
H113	H	1.696881	-0.174142	-1.153773
H114	H	1.778800	-0.212821	-1.153641
C115	C	1.576205	-0.132393	-0.908180
H116	H	1.555695	-0.104196	-0.936416
H117	H	1.646520	-0.139002	-0.929508
H118	H	1.572737	-0.131356	-0.833174
H119	H	1.341221	-0.688500	-0.319583
C120	C	1.133305	-0.240453	-0.704649
H121	H	1.208432	-0.240353	-0.705244
H122	H	1.107928	-0.211833	-0.725572
H123	H	1.108040	-0.262552	-0.752440
C124	C	1.741945	-0.596405	-0.720832
H125	H	1.732236	-0.565108	-0.711109
H126	H	1.726391	-0.604078	-0.792045
H127	H	1.813188	-0.604075	-0.705373
H128	H	1.654714	-0.387349	-0.633493
C129	C	1.728735	-0.196250	-0.909973
H130	H	1.795639	-0.204637	-0.937818
H131	H	1.731347	-0.196962	-0.834916
H132	H	1.711687	-0.166807	-0.932933
H133	H	1.668233	-0.263603	-0.918603
C134	C	1.321964	-0.835975	-0.300263
H135	H	1.331680	-0.867271	-0.309983
H136	H	1.250729	-0.828300	-0.315726
H137	H	1.337511	-0.828307	-0.229039
H138	H	1.123346	-0.142408	-0.483566
C139	C	1.742016	-0.694916	-0.720862
H140	H	1.782358	-0.674190	-0.761248
H141	H	1.701468	-0.713220	-0.767033
H142	H	1.788247	-0.713212	-0.680343
C143	C	1.395499	-0.152957	-1.113820
H144	H	1.366702	-0.175193	-1.159203
H145	H	1.404209	-0.125779	-1.152014
H146	H	1.348884	-0.148146	-1.056009
C147	C	1.742074	-0.835676	-0.720924
H148	H	1.732373	-0.866984	-0.711217
H149	H	1.813309	-0.827970	-0.705473
H150	H	1.726507	-0.827968	-0.792140
C151	C	0.932188	-0.194150	-0.316214
H152	H	0.888520	-0.172602	-0.350141
H153	H	0.991131	-0.179525	-0.284944
H154	H	0.892701	-0.209159	-0.262960
H155	H	1.341278	-0.744149	-0.319606
H156	H	1.341166	-0.603392	-0.319566
H157	H	1.408882	-0.472648	-0.387320
H158	H	1.563525	-0.142996	-1.101073
H159	H	1.367174	-0.243051	-0.919703
C160	C	0.929506	-0.240702	-0.703663
H161	H	0.884943	-0.215109	-0.700851
H162	H	0.890480	-0.265590	-0.729571
H163	H	0.987456	-0.234852	-0.749473
H164	H	1.123683	-0.286289	-0.573159
H165	H	1.655063	-0.959744	-0.633717
C166	C	1.337559	-0.240163	-1.112174
H167	H	1.339870	-0.214470	-1.156531
H168	H	1.292628	-0.234431	-1.053513
H169	H	1.310950	-0.264950	-1.151072
H170	H	0.943029	-0.159116	-0.623687
H171	H	0.941935	-0.142396	-0.485007
H172	H	1.409237	-1.045036	-0.387531
H173	H	1.409168	-0.959927	-0.387514
H174	H	1.722674	-0.743869	-0.701503
C175	C	1.389464	-0.380837	-0.367913
H176	H	1.399149	-0.349528	-0.377632
H177	H	1.405007	-0.388543	-0.296696
H178	H	1.318230	-0.388545	-0.383388
