data_functionalizedCrystal
_audit_creation_method	'MofGen! by Chris Wilmer'
_symmetry_space_group_name_H-M	'P1'
_symmetry_Int_Tables_number	1
_symmetry_cell_setting	triclinic
loop_
_symmetry_equiv_pos_as_xyz
  x,y,z
_cell_length_a	14.519709
_cell_length_b	16.109301
_cell_length_c	14.586319
_cell_angle_alpha	89.998390
_cell_angle_beta	89.999755
_cell_angle_gamma	83.570813
loop_
_atom_site_label
_atom_site_type_symbol
_atom_site_fract_x
_atom_site_fract_y
_atom_site_fract_z
O1	O	-1.223638	-0.108980	0.076124
O2	O	-0.890305	0.224354	0.409457
O3	O	-0.556971	0.557687	0.742791
O4	O	-0.955134	-0.121814	0.076152
O5	O	-0.621800	0.211519	0.409486
O6	O	-0.288467	0.544852	0.742819
O7	O	-1.096762	0.005621	0.076128
O8	O	-0.763428	0.338955	0.409461
O9	O	-0.430095	0.672288	0.742795
O10	O	-1.082010	-0.236415	0.076148
O11	O	-0.748676	0.096918	0.409482
O12	O	-0.415343	0.430252	0.742815
O13	O	-1.096745	0.005614	-0.076353
O14	O	-0.763411	0.338947	0.256981
O15	O	-0.430078	0.672280	0.590314
O16	O	-0.955116	-0.121822	-0.076328
O17	O	-0.621783	0.211512	0.257005
O18	O	-0.288450	0.544845	0.590338
O19	O	-1.223621	-0.108987	-0.076357
O20	O	-0.890287	0.224346	0.256977
O21	O	-0.556954	0.557679	0.590310
Cu22	Cu	-1.089367	-0.115405	-0.090265
Cu23	Cu	-0.756034	0.217928	0.243068
Cu24	Cu	-0.422700	0.551261	0.576401
Cu25	Cu	-1.089387	-0.115396	0.090061
Cu26	Cu	-0.756054	0.217937	0.423394
Cu27	Cu	-0.422721	0.551270	0.756728
O28	O	-1.081992	-0.236423	-0.076333
O29	O	-0.748659	0.096911	0.257001
O30	O	-0.415326	0.430244	0.590334
C31	C	-0.920766	-0.121220	-0.000085
C32	C	-0.587433	0.212114	0.333249
C33	C	-0.254100	0.545447	0.666582
C34	C	-0.818389	-0.119427	-0.000074
C35	C	-0.485056	0.213906	0.333259
C36	C	-0.151722	0.547239	0.666593
C37	C	-1.096156	0.036593	-0.000113
C38	C	-0.762822	0.369927	0.333221
C39	C	-0.429489	0.703260	0.666554
C40	C	-1.094364	0.128892	-0.000114
C41	C	-0.761031	0.462225	0.333219
C42	C	-0.427697	0.795558	0.666553
C43	C	-1.257988	-0.109582	-0.000118
C44	C	-0.924654	0.223752	0.333215
C45	C	-0.591321	0.557085	0.666549
C46	C	-1.360365	-0.111374	-0.000122
C47	C	-1.027032	0.221959	0.333211
C48	C	-0.693698	0.555293	0.666544
C49	C	-0.443507	-0.112829	-0.000116
C50	C	-0.110174	0.220505	0.333217
C51	C	0.223159	0.553838	0.666550
C52	C	-0.547811	-0.114661	-0.000104
C53	C	-0.214478	0.218672	0.333229
C54	C	0.118855	0.552005	0.666562
C55	C	-0.630945	-0.116128	-0.000094
C56	C	-0.297612	0.217205	0.333239
C57	C	0.035722	0.550539	0.666572
C58	C	-0.735256	-0.117961	-0.000084
C59	C	-0.401922	0.215373	0.333249
C60	C	-0.068589	0.548706	0.666583
C61	C	-1.082599	-0.267395	-0.000090
C62	C	-0.749265	0.065938	0.333244
C63	C	-0.415932	0.399272	0.666577
C64	C	-1.084390	-0.359693	-0.000083
C65	C	-0.751057	-0.026360	0.333251
C66	C	-0.417724	0.306973	0.666584
N67	N	-1.089359	-0.115411	-0.217097
N68	N	-0.756026	0.217922	0.116236
N69	N	-0.422693	0.551256	0.449570
C70	C	-1.174238	0.351026	-0.000108
C71	C	-0.840904	0.684359	0.333226
C72	C	-0.507571	1.017693	0.666559
C73	C	-1.172547	0.437749	-0.000100
C74	C	-0.839214	0.771083	0.333233
C75	C	-0.505880	1.104416	0.666567
C76	C	-1.004510	0.418166	-0.000086
C77	C	-0.671177	0.751499	0.333247
C78	C	-0.337843	1.084832	0.666581
C79	C	-1.006202	0.331444	-0.000087
C80	C	-0.672868	0.664778	0.333246
C81	C	-0.339535	0.998111	0.666580
C82	C	-1.091068	0.297877	-0.000103
C83	C	-0.757735	0.631210	0.333231
C84	C	-0.424401	0.964543	0.666564
C85	C	-1.087686	0.471322	-0.000094
C86	C	-0.754353	0.804655	0.333240
C87	C	-0.421019	1.137988	0.666573
C88	C	-1.085852	0.565351	-0.000085
C89	C	-0.752519	0.898684	0.333248
C90	C	-0.419186	1.232018	0.666581
C91	C	-1.092902	0.203842	-0.000109
C92	C	-0.759569	0.537175	0.333224
C93	C	-0.426236	0.870508	0.666557
C94	C	-1.145290	-0.165936	-0.452105
C95	C	-0.811957	0.167397	-0.118772
C96	C	-0.478623	0.500730	0.214561
C97	C	-1.145300	-0.165931	-0.548087
C98	C	-0.811966	0.167403	-0.214753
C99	C	-0.478633	0.500736	0.118580
C100	C	-1.033469	-0.064853	-0.548093
C101	C	-0.700136	0.268481	-0.214759
C102	C	-0.366802	0.601814	0.118574
C103	C	-1.033465	-0.064855	-0.452113
C104	C	-0.700132	0.268479	-0.118780
C105	C	-0.366798	0.601812	0.214554
C106	C	-1.089374	-0.115401	-0.404122
C107	C	-0.756041	0.217932	-0.070789
C108	C	-0.422707	0.551265	0.262545
C109	C	-1.089388	-0.115394	-0.596083
C110	C	-0.756054	0.217940	-0.262749
C111	C	-0.422721	0.551273	0.070584
C112	C	-1.089398	-0.115387	-0.700150
C113	C	-0.756064	0.217946	-0.366816
C114	C	-0.422731	0.551280	-0.033483
C115	C	-1.089365	-0.115407	-0.300048
C116	C	-0.756032	0.217926	0.033285
C117	C	-0.422699	0.551260	0.366619
N118	N	-1.089402	-0.115384	0.216893
N119	N	-0.756069	0.217949	0.550226
N120	N	-0.422736	0.551283	0.883559
H121	H	-1.240272	0.481020	-0.000102
H122	H	-0.906939	0.814354	0.333231
H123	H	-0.573606	1.147687	0.666564
H124	H	-0.938471	0.288168	-0.000080
H125	H	-0.605137	0.621501	0.333253
H126	H	-0.271804	0.954834	0.666587
O127	O	-1.205595	-0.220445	-0.400339
O128	O	-0.872262	0.112889	-0.067005
O129	O	-0.538929	0.446222	0.266328
H130	H	-1.244485	-0.255578	-0.449834
H131	H	-0.911152	0.077756	-0.116500
H132	H	-0.577818	0.411089	0.216833
H133	H	-1.190833	-0.207080	-0.587150
H134	H	-0.857500	0.126253	-0.253817
H135	H	-0.524167	0.459586	0.079516
O136	O	-0.973158	-0.010345	-0.599853
O137	O	-0.639825	0.322988	-0.266519
O138	O	-0.306492	0.656322	0.066814
H139	H	-0.982545	-0.018840	-0.674655
H140	H	-0.649212	0.314493	-0.341322
H141	H	-0.315879	0.647827	-0.007989
H142	H	-0.987931	-0.023699	-0.413044
H143	H	-0.654597	0.309635	-0.079711
H144	H	-0.321264	0.642968	0.253623
O145	O	-0.912977	0.454369	-0.000089
O146	O	-0.579644	0.787703	0.333245
O147	O	-0.246311	1.121036	0.666578
H148	H	-0.925772	0.523602	-0.000102
H149	H	-0.592438	0.856935	0.333231
H150	H	-0.259105	1.190269	0.666565
H151	H	-1.243341	0.323699	-0.000119
H152	H	-0.910008	0.657032	0.333215
H153	H	-0.576675	0.990365	0.666548
