data_functionalizedCrystal
_audit_creation_method	'MofGen! by Chris Wilmer'
_symmetry_space_group_name_H-M	'P1'
_symmetry_Int_Tables_number	1
_symmetry_cell_setting	triclinic
loop_
_symmetry_equiv_pos_as_xyz
  x,y,z
_cell_length_a	16.625548
_cell_length_b	16.625548
_cell_length_c	21.395361
_cell_angle_alpha	89.983559
_cell_angle_beta	89.968224
_cell_angle_gamma	90.008236
loop_
_atom_site_label
_atom_site_type_symbol
_atom_site_fract_x
_atom_site_fract_y
_atom_site_fract_z
Zn1	Zn	1.232536	0.455880	0.249525
Zn2	Zn	1.482536	0.705880	0.499525
Zn3	Zn	1.732536	0.955880	0.749525
Zn4	Zn	1.982536	1.205880	0.999525
Zn5	Zn	1.232449	0.321036	0.354275
Zn6	Zn	1.482449	0.571036	0.604275
Zn7	Zn	1.732449	0.821036	0.854275
Zn8	Zn	1.982449	1.071036	1.104275
Zn9	Zn	1.097727	0.321061	0.249517
Zn10	Zn	1.347727	0.571061	0.499517
Zn11	Zn	1.597727	0.821061	0.749517
Zn12	Zn	1.847727	1.071061	0.999517
Zn13	Zn	1.097649	0.455825	0.354270
Zn14	Zn	1.347649	0.705825	0.604270
Zn15	Zn	1.597649	0.955825	0.854270
Zn16	Zn	1.847649	1.205825	1.104270
O17	O	1.165090	0.388451	0.301897
O18	O	1.415090	0.638451	0.551897
O19	O	1.665090	0.888451	0.801897
O20	O	1.915090	1.138451	1.051897
O21	O	1.345357	0.438005	0.263425
O22	O	1.595357	0.688005	0.513425
O23	O	1.845357	0.938005	0.763425
O24	O	2.095357	1.188005	1.013425
O25	O	1.214574	0.208207	0.340378
O26	O	1.464574	0.458207	0.590378
O27	O	1.714574	0.708207	0.840378
O28	O	1.964574	0.958207	1.090378
O29	O	1.115679	0.338979	0.161840
O30	O	1.365679	0.588979	0.411840
O31	O	1.615679	0.838979	0.661840
O32	O	1.865679	1.088979	0.911840
O33	O	1.345293	0.338935	0.340385
O34	O	1.595293	0.588935	0.590385
O35	O	1.845293	0.838935	0.840385
O36	O	2.095293	1.088935	1.090385
O37	O	1.214722	0.438030	0.161846
O38	O	1.464722	0.688030	0.411846
O39	O	1.714722	0.938030	0.661846
O40	O	1.964722	1.188030	0.911846
O41	O	1.115594	0.208225	0.263413
O42	O	1.365594	0.458225	0.513413
O43	O	1.615594	0.708225	0.763413
O44	O	1.865594	0.958225	1.013413
O45	O	0.984884	0.338925	0.263408
O46	O	1.234884	0.588925	0.513408
O47	O	1.484884	0.838925	0.763408
O48	O	1.734884	1.088925	1.013408
O49	O	1.115546	0.568665	0.340377
O50	O	1.365546	0.818665	0.590377
O51	O	1.615546	1.068665	0.840377
O52	O	1.865546	1.318665	1.090377
O53	O	0.984827	0.437936	0.340370
O54	O	1.234827	0.687936	0.590370
O55	O	1.484827	0.937936	0.840370
O56	O	1.734827	1.187936	1.090370
O57	O	1.214647	0.568705	0.263420
O58	O	1.464647	0.818705	0.513420
O59	O	1.714647	1.068705	0.763420
O60	O	1.964647	1.318705	1.013420
O61	O	1.214498	0.338882	0.441952
O62	O	1.464498	0.588882	0.691952
O63	O	1.714498	0.838882	0.941952
O64	O	1.964498	1.088882	1.191952
O65	O	1.115461	0.437912	0.441949
O66	O	1.365461	0.687912	0.691949
O67	O	1.615461	0.937912	0.941949
O68	O	1.865461	1.187912	1.191949
C69	C	0.955599	0.388428	0.301888
C70	C	1.205599	0.638428	0.551888
C71	C	1.455599	0.888428	0.801888
C72	C	1.705599	1.138428	1.051888
C73	C	0.865978	0.388437	0.301899
C74	C	1.115978	0.638437	0.551899
C75	C	1.365978	0.888437	0.801899
C76	C	1.615978	1.138437	1.051899
C77	C	0.537803	0.388472	0.301903
C78	C	0.787803	0.638472	0.551903
C79	C	1.037803	0.888472	0.801903
C80	C	1.287803	1.138472	1.051903
C81	C	0.629111	0.388460	0.301900
C82	C	0.879111	0.638460	0.551900
C83	C	1.129111	0.888460	0.801900
C84	C	1.379111	1.138460	1.051900
C85	C	0.701888	0.388454	0.301902
C86	C	0.951888	0.638454	0.551902
C87	C	1.201888	0.888454	0.801902
C88	C	1.451888	1.138454	1.051902
C89	C	0.793202	0.388443	0.301898
C90	C	1.043202	0.638443	0.551898
C91	C	1.293202	0.888443	0.801898
C92	C	1.543202	1.138443	1.051898
C93	C	1.165097	0.598759	0.301899
C94	C	1.415097	0.848759	0.551899
C95	C	1.665097	1.098759	0.801899
C96	C	1.915097	1.348759	1.051899
C97	C	1.165100	0.688380	0.301899
C98	C	1.415100	0.938380	0.551899
C99	C	1.665100	1.188380	0.801899
C100	C	1.915100	1.438380	1.051899
C101	C	1.165067	1.016556	0.301905
C102	C	1.415067	1.266556	0.551905
C103	C	1.665067	1.516556	0.801905
C104	C	1.915067	1.766556	1.051905
C105	C	1.165074	0.925248	0.301905
C106	C	1.415074	1.175248	0.551905
C107	C	1.665074	1.425248	0.801905
C108	C	1.915074	1.675248	1.051905
C109	C	1.165084	0.852471	0.301903
C110	C	1.415084	1.102471	0.551903
C111	C	1.665084	1.352471	0.801903
C112	C	1.915084	1.602471	1.051903
C113	C	1.165090	0.761157	0.301902
C114	C	1.415090	1.011157	0.551902
C115	C	1.665090	1.261157	0.801902
C116	C	1.915090	1.511157	1.051902
C117	C	1.375399	0.388474	0.301906
C118	C	1.625399	0.638474	0.551906
C119	C	1.875399	0.888474	0.801906
C120	C	2.125399	1.138474	1.051906
C121	C	1.465020	0.388483	0.301910
C122	C	1.715020	0.638483	0.551910
C123	C	1.965020	0.888483	0.801910
C124	C	2.215020	1.138483	1.051910
C125	C	1.164984	0.388406	0.464685
C126	C	1.414984	0.638406	0.714685
C127	C	1.664984	0.888406	0.964685
C128	C	1.914984	1.138406	1.214685
C129	C	1.165012	0.388413	0.534326
C130	C	1.415012	0.638413	0.784326
C131	C	1.665012	0.888413	1.034326
C132	C	1.915012	1.138413	1.284326
C133	C	1.165075	1.178960	0.301908
C134	C	1.415075	1.428960	0.551908
C135	C	1.665075	1.678960	0.801908
C136	C	1.915075	1.928960	1.051908
C137	C	1.165067	1.089339	0.301903
C138	C	1.415067	1.339339	0.551903
C139	C	1.665067	1.589339	0.801903
C140	C	1.915067	1.839339	1.051903
C141	C	1.165219	0.388513	0.138474
C142	C	1.415219	0.638513	0.388474
C143	C	1.665219	0.888513	0.638474
C144	C	1.915219	1.138513	0.888474
C145	C	1.165274	0.388540	0.068832
C146	C	1.415274	0.638540	0.318832
C147	C	1.665274	0.888540	0.568832
C148	C	1.915274	1.138540	0.818832
C149	C	1.216626	0.336902	0.567020
C150	C	1.466626	0.586902	0.817020
C151	C	1.716626	0.836902	1.067020
C152	C	1.966626	1.086902	1.317020
C153	C	1.216664	0.336920	0.632455
C154	C	1.466664	0.586920	0.882455
C155	C	1.716664	0.836920	1.132455
C156	C	1.966664	1.086920	1.382455
C157	C	1.165073	0.388441	0.665194
C158	C	1.415073	0.638441	0.915194
C159	C	1.665073	0.888441	1.165194
C160	C	1.915073	1.138441	1.415194
C161	C	1.113455	0.439963	0.632492
C162	C	1.363455	0.689963	0.882492
C163	C	1.613455	0.939963	1.132492
C164	C	1.863455	1.189963	1.382492
C165	C	1.113424	0.439949	0.567058
C166	C	1.363424	0.689949	0.817058
C167	C	1.613424	0.939949	1.067058
C168	C	1.863424	1.189949	1.317058
C169	C	1.092471	0.394760	0.768911
C170	C	1.342471	0.644760	1.018911
C171	C	1.592471	0.894760	1.268911
C172	C	1.842471	1.144760	1.518911
C173	C	1.092500	0.394768	0.834344
C174	C	1.342500	0.644768	1.084344
C175	C	1.592500	0.894768	1.334344
C176	C	1.842500	1.144768	1.584344
C177	C	1.165167	0.388488	0.867015
C178	C	1.415167	0.638488	1.117015
C179	C	1.665167	0.888488	1.367015
C180	C	1.915167	1.138488	1.617015
C181	C	1.237806	0.382184	0.834245
C182	C	1.487806	0.632184	1.084245
C183	C	1.737806	0.882184	1.334245
C184	C	1.987806	1.132184	1.584245
C185	C	1.237776	0.382170	0.768811
C186	C	1.487776	0.632170	1.018811
C187	C	1.737776	0.882170	1.268811
C188	C	1.987776	1.132170	1.518811
C189	C	1.165100	0.388462	0.736146
C190	C	1.415100	0.638462	0.986146
C191	C	1.665100	0.888462	1.236146
C192	C	1.915100	1.138462	1.486146
C193	C	1.216826	0.336993	0.970662
C194	C	1.466826	0.586993	1.220662
C195	C	1.716826	0.836993	1.470662
C196	C	1.966826	1.086993	1.720662
C197	C	1.216865	0.337017	1.036098
C198	C	1.466865	0.587017	1.286098
C199	C	1.716865	0.837017	1.536098
C200	C	1.966865	1.087017	1.786098
C201	C	1.113648	0.440056	1.036133
C202	C	1.363648	0.690056	1.286133
C203	C	1.613648	0.940056	1.536133
C204	C	1.863648	1.190056	1.786133
C205	C	1.113617	0.440037	0.970698
C206	C	1.363617	0.690037	1.220698
C207	C	1.613617	0.940037	1.470698
C208	C	1.863617	1.190037	1.720698
C209	C	1.165204	0.388501	0.937966
C210	C	1.415204	0.638501	1.187966
C211	C	1.665204	0.888501	1.437966
C212	C	1.915204	1.138501	1.687966
H213	H	1.258634	0.294940	0.540371
H214	H	1.508634	0.544940	0.790371
H215	H	1.758634	0.794940	1.040371
H216	H	2.008634	1.044940	1.290371
C217	C	1.056645	0.496610	0.531090
C218	C	1.306645	0.746610	0.781090
C219	C	1.556645	0.996610	1.031090
C220	C	1.806645	1.246610	1.281090
H221	H	1.064019	0.489225	0.487431
H222	H	1.314019	0.739225	0.737431
H223	H	1.564019	0.989225	0.987431
H224	H	1.814019	1.239225	1.237431
H225	H	1.002484	0.484767	0.541857
H226	H	1.252484	0.734767	0.791857
H227	H	1.502484	0.984767	1.041857
H228	H	1.752484	1.234767	1.291857
H229	H	1.068417	0.550802	0.541784
H230	H	1.318417	0.800802	0.791784
H231	H	1.568417	1.050802	1.041784
H232	H	1.818417	1.300802	1.291784
C233	C	1.273435	0.280248	0.668427
C234	C	1.523435	0.530248	0.918427
C235	C	1.773435	0.780248	1.168427
C236	C	2.023435	1.030248	1.418427
H237	H	1.304150	0.249550	0.639561
H238	H	1.554150	0.499550	0.889561
H239	H	1.804150	0.749550	1.139561
H240	H	2.054150	0.999550	1.389561
H241	H	1.308556	0.311122	0.693920
H242	H	1.558556	0.561122	0.943920
H243	H	1.808556	0.811122	1.193920
H244	H	2.058556	1.061122	1.443920
H245	H	1.242616	0.245095	0.693983
H246	H	1.492616	0.495095	0.943983
H247	H	1.742616	0.745095	1.193983
H248	H	1.992616	0.995095	1.443983
C249	C	1.056830	0.496690	0.934733
C250	C	1.306830	0.746690	1.184733
C251	C	1.556830	0.996690	1.434733
C252	C	1.806830	1.246690	1.684733
H253	H	1.026104	0.527373	0.963601
H254	H	1.276104	0.777373	1.213601
H255	H	1.526104	1.027373	1.463601
H256	H	1.776104	1.277373	1.713601
H257	H	1.087631	0.531845	0.909170
H258	H	1.337631	0.781845	1.159170
H259	H	1.587631	1.031845	1.409170
H260	H	1.837631	1.281845	1.659170
H261	H	1.021709	0.465800	0.909245
H262	H	1.271709	0.715800	1.159245
H263	H	1.521709	0.965800	1.409245
H264	H	1.771709	1.215800	1.659245
C265	C	1.317671	0.375248	0.732763
C266	C	1.567671	0.625248	0.982763
C267	C	1.817671	0.875248	1.232763
C268	C	2.067671	1.125248	1.482763
H269	H	1.307242	0.376136	0.689115
H270	H	1.557242	0.626136	0.939115
H271	H	1.807242	0.876136	1.189115
H272	H	2.057242	1.126136	1.439115
H273	H	1.351556	0.419145	0.743447
H274	H	1.601556	0.669145	0.993447
H275	H	1.851556	0.919145	1.243447
H276	H	2.101556	1.169145	1.493447
H277	H	1.343500	0.326184	0.743482
H278	H	1.593500	0.576184	0.993482
H279	H	1.843500	0.826184	1.243482
H280	H	2.093500	1.076184	1.493482
C281	C	1.317745	0.375283	0.870174
C282	C	1.567745	0.625283	1.120174
C283	C	1.817745	0.875283	1.370174
C284	C	2.067745	1.125283	1.620174
H285	H	1.307363	0.376204	0.913837
H286	H	1.557363	0.626204	1.163837
H287	H	1.807363	0.876204	1.413837
H288	H	2.057363	1.126204	1.663837
H289	H	1.343564	0.326219	0.859453
H290	H	1.593564	0.576219	1.109453
H291	H	1.843564	0.826219	1.359453
H292	H	2.093564	1.076219	1.609453
H293	H	1.351617	0.419181	0.859406
H294	H	1.601617	0.669181	1.109406
H295	H	1.851617	0.919181	1.359406
H296	H	2.101617	1.169181	1.609406
H297	H	1.258834	0.295032	0.944010
H298	H	1.508834	0.545032	1.194010
H299	H	1.758834	0.795032	1.444010
H300	H	2.008834	1.045032	1.694010
C301	C	1.056705	0.496633	0.668502
C302	C	1.306705	0.746633	0.918502
C303	C	1.556705	0.996633	1.168502
C304	C	1.806705	1.246633	1.418502
H305	H	1.064109	0.489258	0.712155
H306	H	1.314109	0.739258	0.962155
H307	H	1.564109	0.989258	1.212155
H308	H	1.814109	1.239258	1.462155
H309	H	1.068457	0.550817	0.657752
H310	H	1.318457	0.800817	0.907752
H311	H	1.568457	1.050817	1.157752
H312	H	1.818457	1.300817	1.407752
H313	H	1.002531	0.484776	0.657819
H314	H	1.252531	0.734776	0.907819
H315	H	1.502531	0.984776	1.157819
H316	H	1.752531	1.234776	1.407819
H317	H	1.258900	0.295071	1.062717
H318	H	1.508900	0.545071	1.312717
H319	H	1.758900	0.795071	1.562717
H320	H	2.008900	1.045071	1.812717
H321	H	1.033292	0.399876	0.742316
H322	H	1.283292	0.649876	0.992316
H323	H	1.533292	0.899876	1.242316
H324	H	1.783292	1.149876	1.492316
C325	C	1.056903	0.496733	1.072138
C326	C	1.306903	0.746733	1.322138
C327	C	1.556903	0.996733	1.572138
C328	C	1.806903	1.246733	1.822138
H329	H	1.064311	0.489362	1.115791
H330	H	1.314311	0.739362	1.365791
H331	H	1.564311	0.989362	1.615791
H332	H	1.814311	1.239362	1.865791
H333	H	1.068657	0.550915	1.061385
H334	H	1.318657	0.800915	1.311385
H335	H	1.568657	1.050915	1.561385
H336	H	1.818657	1.300915	1.811385
H337	H	1.002728	0.484877	1.061459
H338	H	1.252728	0.734877	1.311459
H339	H	1.502728	0.984877	1.561459
H340	H	1.752728	1.234877	1.811459
C341	C	1.012604	0.401709	0.870387
C342	C	1.262604	0.651709	1.120387
C343	C	1.512604	0.901709	1.370387
C344	C	1.762604	1.151709	1.620387
H345	H	1.023027	0.400810	0.914036
H346	H	1.273027	0.650810	1.164036
H347	H	1.523027	0.900810	1.414036
H348	H	1.773027	1.150810	1.664036
H349	H	0.986787	0.450774	0.859664
H350	H	1.236787	0.700774	1.109664
H351	H	1.486787	0.950774	1.359664
H352	H	1.736787	1.200774	1.609664
H353	H	0.978709	0.357814	0.859704
H354	H	1.228709	0.607814	1.109704
H355	H	1.478709	0.857814	1.359704
H356	H	1.728709	1.107814	1.609704
