data_functionalizedCrystal
_audit_creation_method	'MofGen! by Chris Wilmer'
_symmetry_space_group_name_H-M	'P1'
_symmetry_Int_Tables_number	1
_symmetry_cell_setting	triclinic
loop_
_symmetry_equiv_pos_as_xyz
  x,y,z
_cell_length_a	19.121063
_cell_length_b	16.625548
_cell_length_c	19.120904
_cell_angle_alpha	92.421026
_cell_angle_beta	85.258387
_cell_angle_gamma	87.531074
loop_
_atom_site_label
_atom_site_type_symbol
_atom_site_fract_x
_atom_site_fract_y
_atom_site_fract_z
Zn1	Zn	-0.297115	-1.197998	0.409803
Zn2	Zn	-0.409762	-1.197899	0.297153
Zn3	Zn	-0.292115	-1.069176	0.292152
Zn4	Zn	-0.414741	-1.057114	0.414770
O5	O	-0.353433	-1.130547	0.353470
O6	O	-0.312066	-1.310816	0.394874
O7	O	-0.389979	-1.185830	0.198030
O8	O	-0.194315	-1.091355	0.303587
O9	O	-0.394827	-1.310743	0.312111
O10	O	-0.197989	-1.186000	0.390024
O11	O	-0.303545	-1.091258	0.194355
O12	O	-0.308373	-0.954745	0.308403
O13	O	-0.403314	-1.070797	0.512571
O14	O	-0.398466	-0.945883	0.398490
O15	O	-0.316894	-1.174304	0.508922
O16	O	-0.508885	-1.174133	0.316928
O17	O	-0.512543	-1.070700	0.403340
C18	C	-0.353418	-0.921058	0.353444
C19	C	-0.353429	-0.831436	0.353450
C20	C	-0.353429	-0.503259	0.353471
C21	C	-0.353427	-0.594568	0.353463
C22	C	-0.353429	-0.667345	0.353460
C23	C	-0.353427	-0.758660	0.353453
C24	C	-0.536245	-1.121118	0.361231
C25	C	-0.614454	-1.117157	0.364575
C26	C	-0.649270	-1.169186	0.321193
C27	C	-0.722756	-1.165466	0.324342
C28	C	-0.761424	-1.109711	0.370870
C29	C	-0.726603	-1.057679	0.414256
C30	C	-0.653118	-1.061404	0.411111
C31	C	-0.983395	-1.095770	0.382621
C32	C	-1.056884	-1.092047	0.385762
C33	C	-1.053032	-1.199835	0.295847
C34	C	-0.979547	-1.203552	0.292703
C35	C	-0.944732	-1.151523	0.336092
C36	C	-0.836538	-1.105904	0.374088
C37	C	-0.869619	-1.155334	0.332877
C38	C	-0.169908	-1.140034	0.345693
C39	C	-0.091700	-1.144076	0.342380
C40	C	-0.361218	-1.121216	0.536990
C41	C	-0.364535	-1.117239	0.615196
C42	C	-0.353444	-0.340854	0.353489
C43	C	-0.353436	-0.430476	0.353479
C44	C	-0.345628	-1.139891	0.170661
C45	C	-0.342113	-1.144033	0.092447
C46	C	-0.321101	-1.169259	0.650038
C47	C	-0.324215	-1.165513	0.723520
C48	C	-0.370767	-1.109751	0.762159
C49	C	-0.414203	-1.057726	0.727312
C50	C	-0.411084	-1.061468	0.653831
C51	C	-0.382430	-1.095751	0.984119
C52	C	-0.385546	-1.092014	1.057605
C53	C	-0.295558	-1.199801	1.053808
C54	C	-0.292447	-1.203542	0.980326
C55	C	-0.335879	-1.151514	0.945485
C56	C	-0.373953	-1.105922	0.837270
C57	C	-0.332689	-1.155339	0.870376
H58	H	-0.751099	-1.207833	0.289015
O59	O	-1.094529	-1.037992	0.431001
C60	C	-1.181473	-1.018036	0.529552
C61	C	-1.138897	-1.079335	0.478362
H62	H	-1.217343	-1.051439	0.567866
H63	H	-1.214595	-0.975812	0.498726
H64	H	-1.143956	-0.981472	0.559993
H65	H	-1.176362	-1.115955	0.447908
H66	H	-1.105766	-1.121504	0.509228
H67	H	-0.868030	-1.060507	0.411970
H68	H	-0.955055	-1.053404	0.417949
O69	O	-0.832026	-1.209382	0.287604
C70	C	-0.745024	-1.229333	0.189102
C71	C	-0.787574	-1.168041	0.240319
H72	H	-0.709063	-1.195935	0.150869
H73	H	-0.782492	-1.265874	0.158576
H74	H	-0.711980	-1.271579	0.219981
H75	H	-0.820621	-1.125744	0.209494
H76	H	-0.750067	-1.131560	0.270846
O77	O	-0.611676	-1.223237	0.275918
C78	C	-0.524685	-1.243210	0.177408
C79	C	-0.567224	-1.181908	0.228624
H80	H	-0.488725	-1.209821	0.139167
H81	H	-0.562161	-1.279749	0.146890
H82	H	-0.491641	-1.285456	0.208288
H83	H	-0.600272	-1.139610	0.197798
H84	H	-0.529711	-1.145427	0.259142
H85	H	-0.423456	-1.046603	1.089063
O86	O	-0.942095	-1.257792	0.247493
C87	C	-0.946030	-1.364288	0.158623
C88	C	-0.988531	-1.302913	0.209802
H89	H	-0.983556	-1.400774	0.128125
H90	H	-0.912975	-1.406572	0.189459
H91	H	-0.910087	-1.330908	0.120359
H92	H	-1.024513	-1.336225	0.248077
H93	H	-1.021540	-1.260631	0.178920
O94	O	-0.764269	-1.003542	0.459393
C95	C	-0.879181	-0.950060	0.504115
C96	C	-0.836612	-1.011399	0.452956
H97	H	-0.937679	-0.956403	0.498939
H98	H	-0.864308	-0.886396	0.491090
H99	H	-0.867064	-0.962009	0.560232
H100	H	-0.848707	-0.999524	0.396821
H101	H	-0.851491	-1.075042	0.466042
H102	H	-0.624772	-1.019037	0.446438
O103	O	-0.275818	-1.223451	0.612613
C104	C	-0.186918	-1.329994	0.616612
C105	C	-0.238160	-1.268648	0.659078
H106	H	-0.156468	-1.366563	0.654162
H107	H	-0.148617	-1.296670	0.580662
H108	H	-0.217775	-1.372203	0.583568
H109	H	-0.207361	-1.226422	0.692163
H110	H	-0.276460	-1.302024	0.694984
O111	O	-0.281944	-1.215930	0.757388
C112	C	-0.190479	-1.227455	0.836342
C113	C	-0.238306	-1.170268	0.798020
H114	H	-0.155196	-1.190560	0.869213
H115	H	-0.156626	-1.267936	0.796127
H116	H	-0.224250	-1.266214	0.872095
H117	H	-0.204590	-1.131458	0.762268
H118	H	-0.272164	-1.129842	0.838272
H119	H	-0.417806	-1.053397	0.955761
H120	H	-1.081386	-1.242195	0.260523
H121	H	-0.446446	-1.019100	0.625463
H122	H	-0.452104	-1.012320	0.758777
O123	O	-0.247162	-1.257731	0.942901
C124	C	-0.158264	-1.364277	0.946893
C125	C	-0.209502	-1.302931	0.989363
H126	H	-0.127813	-1.400850	0.984440
H127	H	-0.119964	-1.330954	0.910942
H128	H	-0.189124	-1.406484	0.913849
H129	H	-0.178701	-1.260708	1.022447
H130	H	-0.247802	-1.336307	1.025269
H131	H	-0.260196	-1.242158	1.082184
H132	H	-0.294784	-1.200737	0.838913
O133	O	-0.419250	-1.051869	0.874842
C134	C	-0.517727	-1.031891	0.961872
C135	C	-0.466488	-1.093195	0.919352
H136	H	-0.555922	-1.065278	0.997880
H137	H	-0.548294	-0.995359	0.924388
H138	H	-0.486857	-0.989638	0.994863
H139	H	-0.497304	-1.135499	0.886358
H140	H	-0.435920	-1.129668	0.956875
