data_functionalizedCrystal
_audit_creation_method	'MofGen! by Chris Wilmer'
_symmetry_space_group_name_H-M	'P1'
_symmetry_Int_Tables_number	1
_symmetry_cell_setting	triclinic
loop_
_symmetry_equiv_pos_as_xyz
  x,y,z
_cell_length_a	19.077236
_cell_length_b	14.908178
_cell_length_c	19.076919
_cell_angle_alpha	91.159747
_cell_angle_beta	90.112677
_cell_angle_gamma	95.467067
loop_
_atom_site_label
_atom_site_type_symbol
_atom_site_fract_x
_atom_site_fract_y
_atom_site_fract_z
Zn1	Zn	1.044195	-0.327444	0.425224
Zn2	Zn	1.377529	0.005890	0.758558
Zn3	Zn	1.710862	0.339223	1.091891
Zn4	Zn	1.042613	-0.472002	0.300956
Zn5	Zn	1.375946	-0.138669	0.634289
Zn6	Zn	1.709279	0.194665	0.967622
Zn7	Zn	0.931431	-0.326971	0.303027
Zn8	Zn	1.264765	0.006363	0.636360
Zn9	Zn	1.598098	0.339696	0.969693
Zn10	Zn	0.919914	-0.484036	0.413131
Zn11	Zn	1.253247	-0.150703	0.746464
Zn12	Zn	1.586580	0.182630	1.079797
O13	O	0.984538	-0.402613	0.360584
O14	O	1.317872	-0.069280	0.693918
O15	O	1.651205	0.264054	1.027251
O16	O	1.142528	-0.341781	0.412934
O17	O	1.475861	-0.008448	0.746268
O18	O	1.809194	0.324886	1.079601
O19	O	1.032022	-0.447529	0.203144
O20	O	1.365355	-0.114196	0.536478
O21	O	1.698688	0.219138	0.869811
O22	O	0.951872	-0.200803	0.325164
O23	O	1.285206	0.132531	0.658498
O24	O	1.618539	0.465864	0.991831
O25	O	1.141364	-0.447988	0.321635
O26	O	1.474698	-0.114654	0.654968
O27	O	1.808031	0.218679	0.988301
O28	O	1.034720	-0.201150	0.414943
O29	O	1.368053	0.132183	0.748276
O30	O	1.701386	0.465517	1.081609
O31	O	0.950338	-0.340975	0.204666
O32	O	1.283671	-0.007642	0.537999
O33	O	1.617004	0.325692	0.871333
O34	O	0.831362	-0.352644	0.313438
O35	O	1.164695	-0.019311	0.646771
O36	O	1.498028	0.314023	0.980104
O37	O	0.932242	-0.468498	0.512821
O38	O	1.265576	-0.135165	0.846154
O39	O	1.598909	0.198168	1.179488
O40	O	0.822900	-0.468040	0.394331
O41	O	1.156233	-0.134706	0.727664
O42	O	1.489566	0.198627	1.060997
O43	O	1.023552	-0.353450	0.521706
O44	O	1.356885	-0.020117	0.855039
O45	O	1.690218	0.313216	1.188373
O46	O	1.020854	-0.599829	0.309908
O47	O	1.354187	-0.266496	0.643241
O48	O	1.687520	0.066837	0.976575
O49	O	0.930707	-0.608671	0.392322
O50	O	1.264041	-0.275337	0.725656
O51	O	1.597374	0.057996	1.058989
C52	C	0.801580	-0.411597	0.352797
C53	C	1.134913	-0.078264	0.686130
C54	C	1.468246	0.255070	1.019464
C55	C	0.723308	-0.415463	0.349481
C56	C	1.056641	-0.082130	0.682814
C57	C	1.389974	0.251204	1.016148
C58	C	0.687134	-0.362079	0.395522
C59	C	1.020468	-0.028745	0.728856
C60	C	1.353801	0.304588	1.062189
C61	C	0.613590	-0.365706	0.392401
C62	C	0.946923	-0.032373	0.725734
C63	C	1.280257	0.300960	1.059068
C64	C	0.576219	-0.422724	0.343241
C65	C	0.909553	-0.089391	0.676574
C66	C	1.242886	0.243943	1.009908
C67	C	0.612398	-0.476111	0.297195
C68	C	0.945731	-0.142777	0.630528
C69	C	1.279064	0.190556	0.963862
C70	C	0.685941	-0.472478	0.300314
C71	C	1.019275	-0.139144	0.633647
C72	C	1.352608	0.194189	0.966980
C73	C	0.356204	-0.439505	0.328807
C74	C	0.689537	-0.106172	0.662140
C75	C	1.022870	0.227162	0.995473
C76	C	0.282655	-0.443136	0.325693
C77	C	0.615988	-0.109803	0.659026
C78	C	0.949322	0.223530	0.992360
C79	C	0.283852	-0.332730	0.420898
C80	C	0.617185	0.000603	0.754232
C81	C	0.950519	0.333937	1.087565
C82	C	0.357397	-0.329106	0.424015
C83	C	0.690730	0.004227	0.757349
C84	C	1.024063	0.337561	1.090682
C85	C	0.393569	-0.382489	0.377967
C86	C	0.726902	-0.049156	0.711300
C87	C	1.060236	0.284178	1.044634
N88	N	0.501045	-0.426436	0.340051
N89	N	0.834378	-0.093103	0.673384
N90	N	1.167712	0.240231	1.006717
N91	N	0.468742	-0.378772	0.381155
N92	N	0.802076	-0.045439	0.714488
N93	N	1.135409	0.287895	1.047821
C94	C	0.974377	-0.636980	0.349594
C95	C	1.307711	-0.303647	0.682928
C96	C	1.641044	0.029687	1.016261
C97	C	0.970094	-0.737241	0.344919
C98	C	1.303427	-0.403908	0.678252
C99	C	1.636760	-0.070575	1.011585
C100	C	1.048241	-0.925863	0.429712
C101	C	1.381575	-0.592530	0.763046
C102	C	1.714908	-0.259197	1.096379
C103	C	1.044219	-1.020068	0.425322
C104	C	1.377552	-0.686734	0.758655
C105	C	1.710886	-0.353401	1.091988
C106	C	0.958023	-1.019857	0.331751
C107	C	1.291357	-0.686523	0.665084
C108	C	1.624690	-0.353190	0.998418
C109	C	0.962046	-0.925652	0.336142
C110	C	1.295379	-0.592319	0.669475
C111	C	1.628712	-0.258986	1.002808
C112	C	1.007157	-0.878659	0.385123
C113	C	1.340490	-0.545325	0.718456
C114	C	1.673824	-0.211992	1.051790
C115	C	1.011183	-0.784452	0.389510
C116	C	1.344516	-0.451119	0.722843
C117	C	1.677849	-0.117786	1.056176
C118	C	0.924984	-0.784243	0.295943
C119	C	1.258317	-0.450910	0.629276
C120	C	1.591651	-0.117577	0.962610
C121	C	0.920962	-0.878448	0.291552
C122	C	1.254295	-0.545114	0.624886
C123	C	1.587628	-0.211781	0.958219
C124	C	1.168211	-0.393595	0.368402
C125	C	1.501545	-0.060261	0.701736
C126	C	1.834878	0.273072	1.035069
C127	C	1.246482	-0.389752	0.371734
C128	C	1.579815	-0.056418	0.705067
C129	C	1.913148	0.276915	1.038401
C130	C	0.976789	-0.412369	0.543407
C131	C	1.310122	-0.079036	0.876741
C132	C	1.643455	0.254297	1.210074
C133	C	0.973486	-0.416527	0.621315
C134	C	1.306820	-0.083194	0.954649
C135	C	1.640153	0.250140	1.287982
C136	C	0.994757	-0.167331	0.371634
C137	C	1.328091	0.166002	0.704967
C138	C	1.661424	0.499336	1.038300
C139	C	0.999112	-0.067068	0.376342
C140	C	1.332446	0.266266	0.709675
C141	C	1.665779	0.599599	1.043009
C142	C	0.992301	-0.392828	0.178477
C143	C	1.325634	-0.059494	0.511811
C144	C	1.658968	0.273839	0.845144
C145	C	0.995751	-0.388409	0.100587
C146	C	1.329084	-0.055076	0.433921
C147	C	1.662417	0.278257	0.767254
C148	C	1.019472	-0.358584	0.662544
C149	C	1.352806	-0.025250	0.995877
C150	C	1.686139	0.308083	1.329211
C151	C	1.016361	-0.362487	0.735747
C152	C	1.349694	-0.029154	1.069080
C153	C	1.683027	0.304180	1.402413
C154	C	0.967266	-0.424339	0.767720
C155	C	1.300600	-0.091005	1.101053
C156	C	1.633933	0.242328	1.434386
C157	C	0.921276	-0.482285	0.726486
C158	C	1.254609	-0.148951	1.059819
C159	C	1.587942	0.184382	1.393153
C160	C	0.924384	-0.478376	0.653284
C161	C	1.257717	-0.145043	0.986618
C162	C	1.591051	0.188290	1.319951
C163	C	0.952869	-0.442447	0.986152
C164	C	1.286202	-0.109114	1.319485
C165	C	1.619535	0.224220	1.652819
C166	C	0.949765	-0.446353	1.059359
C167	C	1.283098	-0.113019	1.392692
C168	C	1.616432	0.220314	1.726026
C169	C	1.044850	-0.326553	1.068615
C170	C	1.378183	0.006780	1.401948
C171	C	1.711516	0.340113	1.735281
C172	C	1.047957	-0.322654	0.995411
C173	C	1.381290	0.010679	1.328745
C174	C	1.714623	0.344013	1.662078
C175	C	1.001964	-0.380597	0.954184
C176	C	1.335297	-0.047263	1.287517
C177	C	1.668630	0.286070	1.620851
N178	N	0.964086	-0.428332	0.842545
N179	N	1.297420	-0.094999	1.175878
N180	N	1.630753	0.238335	1.509211
N181	N	1.005141	-0.376598	0.879361
N182	N	1.338474	-0.043265	1.212694
N183	N	1.671807	0.290068	1.546027
H184	H	0.252230	-0.489571	0.285660
H185	H	0.585563	-0.156238	0.618994
H186	H	0.918896	0.177095	0.952327
H187	H	0.385646	-0.482974	0.291311
H188	H	0.718979	-0.149641	0.624645
H189	H	1.052313	0.183692	0.957978
H190	H	0.921293	-1.058135	0.291876
H191	H	1.254626	-0.724802	0.625209
H192	H	1.587960	-0.391469	0.958542
Cl193	Cl	1.095868	-1.079408	0.481381
Cl194	Cl	1.429201	-0.746075	0.814714
Cl195	Cl	1.762535	-0.412741	1.148048
Cl196	Cl	0.866569	-0.551220	0.601454
Cl197	Cl	1.199902	-0.217887	0.934787
Cl198	Cl	1.533235	0.115447	1.268121
Cl199	Cl	1.067895	-0.725376	0.451084
Cl200	Cl	1.401228	-0.392042	0.784417
Cl201	Cl	1.734561	-0.058709	1.117751
H202	H	0.584141	-0.322237	0.429894
H203	H	0.917474	0.011097	0.763227
H204	H	1.250808	0.344430	1.096561
H205	H	0.884232	-0.916723	0.251675
H206	H	1.217565	-0.583389	0.585008
H207	H	1.550898	-0.250056	0.918341
Cl208	Cl	1.074204	-0.289678	0.787573
Cl209	Cl	1.407537	0.043655	1.120907
Cl210	Cl	1.740871	0.376988	1.454240
H211	H	1.059452	-0.308220	0.636517
H212	H	1.392786	0.025114	0.969851
H213	H	1.726119	0.358447	1.303184
Cl214	Cl	0.565418	-0.547786	0.235390
Cl215	Cl	0.898751	-0.214452	0.568723
Cl216	Cl	1.232085	0.118881	0.902057
H217	H	0.881299	-0.532643	0.752524
H218	H	1.214633	-0.199309	1.085857
H219	H	1.547966	0.134024	1.419191
Cl220	Cl	0.873338	-0.724895	0.239879
Cl221	Cl	1.206671	-0.391561	0.573213
Cl222	Cl	1.540004	-0.058228	0.906546
Cl223	Cl	0.238375	-0.265622	0.478782
Cl224	Cl	0.571708	0.067711	0.812116
Cl225	Cl	0.905041	0.401044	1.145449
Cl226	Cl	0.734107	-0.290399	0.457330
Cl227	Cl	1.067440	0.042934	0.790663
Cl228	Cl	1.400774	0.376267	1.123996
H229	H	0.715393	-0.515948	0.262821
H230	H	1.048726	-0.182615	0.596155
H231	H	1.382059	0.150718	0.929488
Cl232	Cl	1.109678	-0.244895	0.955222
Cl233	Cl	1.443012	0.088439	1.288556
Cl234	Cl	1.776345	0.421772	1.621889
Cl235	Cl	1.102663	-0.253713	1.120447
Cl236	Cl	1.435997	0.079620	1.453781
Cl237	Cl	1.769330	0.412954	1.787114
H238	H	0.909784	-0.496722	1.085389
H239	H	1.243117	-0.163389	1.418722
H240	H	1.576451	0.169944	1.752055
Cl241	Cl	1.104959	-0.866782	0.491279
Cl242	Cl	1.438292	-0.533448	0.824613
Cl243	Cl	1.771626	-0.200115	1.157946
H244	H	0.915427	-0.489641	0.952593
H245	H	1.248761	-0.156307	1.285926
H246	H	1.582094	0.177026	1.619260
H247	H	0.387819	-0.282680	0.464049
H248	H	0.721152	0.050654	0.797382
H249	H	1.054485	0.383987	1.130716
