data_functionalizedCrystal
_audit_creation_method	'MofGen! by Chris Wilmer'
_symmetry_space_group_name_H-M	'P1'
_symmetry_Int_Tables_number	1
_symmetry_cell_setting	triclinic
loop_
_symmetry_equiv_pos_as_xyz
  x,y,z
_cell_length_a	17.038272
_cell_length_b	17.699083
_cell_length_c	16.176319
_cell_angle_alpha	90.007696
_cell_angle_beta	89.994711
_cell_angle_gamma	92.802715
loop_
_atom_site_label
_atom_site_type_symbol
_atom_site_fract_x
_atom_site_fract_y
_atom_site_fract_z
O1	O	1.037102	-0.164337	-0.068717
O2	O	0.809476	-0.161728	-0.068725
O3	O	0.929720	-0.053269	-0.068713
O4	O	0.916858	-0.272796	-0.068729
O5	O	0.929703	-0.053261	0.068780
O6	O	0.809459	-0.161720	0.068768
O7	O	1.037086	-0.164329	0.068777
Cu8	Cu	0.923271	-0.163023	0.081326
Cu9	Cu	0.923290	-0.163033	-0.081275
O10	O	0.916841	-0.272788	0.068765
C11	C	0.780343	-0.159350	0.000020
C12	C	0.693562	-0.152270	0.000017
C13	C	0.929251	-0.025037	0.000033
C14	C	0.927868	0.059072	0.000034
C15	C	1.066218	-0.166707	0.000029
C16	C	1.153000	-0.173787	0.000027
C17	C	1.203220	-0.108777	0.000029
C18	C	1.284759	-0.115435	0.000031
C19	C	1.316078	-0.187103	0.000026
C20	C	1.265851	-0.252119	0.000027
C21	C	1.184313	-0.245460	0.000030
C22	C	1.561797	-0.210626	0.000021
C23	C	1.643342	-0.217280	0.000015
C24	C	1.662245	-0.080595	0.000021
C25	C	1.580704	-0.073943	0.000020
C26	C	1.530485	-0.138958	0.000025
C27	C	1.399424	-0.193910	0.000026
C28	C	1.447140	-0.132151	0.000031
C29	C	0.917311	-0.301020	0.000016
C30	C	0.918693	-0.385129	0.000010
N31	N	0.923263	-0.163016	0.195692
C32	C	0.998449	0.103023	0.000037
C33	C	0.997145	0.182053	0.000030
C34	C	0.925260	0.217130	0.000025
C35	C	0.854674	0.173173	0.000018
C36	C	0.855978	0.094145	0.000020
C37	C	0.849411	0.491885	0.000011
C38	C	0.848112	0.570919	0.000012
C39	C	0.990578	0.579792	0.000022
C40	C	0.991882	0.500764	0.000023
C41	C	0.921297	0.456814	0.000012
C42	C	0.922711	0.371121	0.000019
C43	C	0.923844	0.302821	0.000024
N44	N	0.923305	-0.163035	-0.195640
C45	C	0.976523	-0.115013	0.238961
C46	C	0.976527	-0.115012	0.325508
C47	C	0.923274	-0.163020	0.368784
C48	C	0.870008	-0.211025	0.325509
C49	C	0.870001	-0.211021	0.238963
C50	C	0.870035	-0.211041	0.674537
C51	C	0.870048	-0.211043	0.761089
C52	C	0.976561	-0.115032	0.761082
C53	C	0.976554	-0.115028	0.674536
C54	C	0.923286	-0.163031	0.631268
C55	C	0.923281	-0.163030	0.537424
C56	C	0.923282	-0.163025	0.462627
H57	H	1.177728	-0.050417	0.000028
H58	H	1.703141	-0.027664	0.000018
H59	H	1.143424	-0.298399	0.000032
H60	H	1.291356	-0.310473	0.000028
H61	H	1.019891	-0.075923	0.203731
H62	H	1.048052	0.615585	0.000026
Br63	Br	1.352913	-0.027202	0.000042
H64	H	1.019920	-0.075939	0.639304
H65	H	0.798504	0.058361	0.000016
Br66	Br	1.441934	-0.291173	0.000011
Br67	Br	0.797746	-0.276187	0.615821
H68	H	1.050419	0.472208	0.000032
H69	H	1.555211	-0.015583	0.000024
Br70	Br	1.685844	-0.314551	0.000006
Br71	Br	1.096013	0.055426	0.000057
Br72	Br	1.092938	0.241698	0.000035
Br73	Br	0.750546	0.618523	0.000006
Br74	Br	0.753615	0.432249	-0.000008
Br75	Br	1.048807	-0.049861	0.384234
Br76	Br	0.757113	0.220777	-0.000003
H77	H	1.019933	-0.075943	0.796320
H78	H	0.826680	-0.250138	0.796322
H79	H	0.826645	-0.250111	0.360749
H80	H	0.826630	-0.250110	0.203734
H81	H	1.520918	-0.263567	0.000021
H82	H	1.421637	-0.073798	0.000025
