data_functionalizedCrystal
_audit_creation_method	'MofGen! by Chris Wilmer'
_symmetry_space_group_name_H-M	'P1'
_symmetry_Int_Tables_number	1
_symmetry_cell_setting	triclinic
loop_
_symmetry_equiv_pos_as_xyz
  x,y,z
_cell_length_a	15.995300
_cell_length_b	19.188924
_cell_length_c	14.472310
_cell_angle_alpha	89.996838
_cell_angle_beta	89.985388
_cell_angle_gamma	83.306886
loop_
_atom_site_label
_atom_site_type_symbol
_atom_site_fract_x
_atom_site_fract_y
_atom_site_fract_z
O1	O	1.110691	0.089824	-0.076879
O2	O	0.866869	0.100974	-0.076874
O3	O	0.995819	-0.006240	-0.076866
O4	O	0.981741	0.197038	-0.076887
O5	O	0.995786	-0.006234	0.076816
O6	O	0.866836	0.100981	0.076808
O7	O	1.110658	0.089831	0.076803
Cu8	Cu	0.988744	0.095406	0.090838
Cu9	Cu	0.988783	0.095399	-0.090909
O10	O	0.981708	0.197045	0.076795
C11	C	0.835659	0.100523	-0.000032
C12	C	0.742711	0.099159	-0.000030
C13	C	0.572537	0.096642	-0.000037
C14	C	0.524790	0.172980	-0.000043
C15	C	0.428107	0.171588	-0.000394
C16	C	0.404990	0.094163	-0.000042
C17	C	0.446281	0.056286	-0.087625
C18	C	0.542907	0.058217	-0.087697
C19	C	0.543153	0.057094	0.087075
C20	C	0.446209	0.057101	0.088224
C21	C	0.310300	0.092759	-0.000049
C22	C	0.667228	0.098044	-0.000037
C23	C	0.995348	-0.032249	-0.000024
C24	C	0.993982	-0.109757	-0.000021
C25	C	0.993363	-0.146161	-0.083794
C26	C	0.992068	-0.218986	-0.083801
C27	C	0.991409	-0.255408	-0.000031
C28	C	0.992023	-0.218994	0.083753
C29	C	0.993310	-0.146169	0.083757
N30	N	1.037024	-0.374959	0.062316
N31	N	1.035804	-0.444140	0.062306
C32	C	0.987530	-0.474826	-0.000039
N33	N	0.940534	-0.433718	-0.062389
N34	N	0.941758	-0.364531	-0.062382
C35	C	0.990013	-0.334374	-0.000026
C36	C	0.985505	-0.590196	-0.083825
C37	C	0.984205	-0.663022	-0.083829
C38	C	0.984169	-0.663030	0.083727
C39	C	0.985461	-0.590204	0.083728
C40	C	0.986133	-0.553791	-0.000050
C41	C	1.141868	0.090282	-0.000041
C42	C	1.234816	0.091646	-0.000049
C43	C	0.982179	0.223054	-0.000049
C44	C	0.983545	0.300562	-0.000058
N45	N	0.988722	0.095411	0.218669
N46	N	0.988811	0.095389	-0.218740
C47	C	0.988782	0.095396	0.592760
C48	C	0.919553	0.152572	0.553590
C49	C	0.919712	0.152780	0.446502
C50	C	0.988752	0.095403	0.407169
C51	C	1.076060	0.111302	0.446002
C52	C	1.075670	0.111708	0.553124
C53	C	0.971483	0.022152	0.553298
C54	C	0.969477	0.022641	0.446170
C55	C	0.988740	0.095406	0.302281
C56	C	0.988799	0.095395	0.697648
H57	H	0.993907	-0.116518	-0.152013
H58	H	0.983697	-0.692661	-0.152049
H59	H	0.909215	0.006861	0.580368
H60	H	0.854436	0.143257	0.579380
H61	H	0.993811	-0.116529	0.151977
H62	H	1.090956	0.165124	0.578093
H63	H	0.905254	0.010575	0.420791
N64	N	0.583284	-0.013511	0.088169
N65	N	0.568321	-0.054025	0.152158
H66	H	0.596666	-0.103888	0.152926
H67	H	0.854805	0.143310	0.420248
N68	N	1.142218	0.061450	0.585619
N69	N	1.188804	0.026190	0.529180
H70	H	1.235806	-0.009303	0.552125
H71	H	1.091717	0.164109	0.419159
H72	H	1.016646	-0.021899	0.419400
N73	N	0.549242	0.210890	-0.078731
N74	N	0.495263	0.234480	-0.136659
H75	H	0.512532	0.261252	-0.192235
N76	N	0.410627	0.088875	-0.169721
N77	N	0.435289	0.066245	-0.247231
H78	H	0.410111	0.089265	-0.305211
H79	H	0.543154	0.203661	0.062753
N80	N	1.142210	0.060445	0.414037
N81	N	1.125706	0.011800	0.362154
H82	H	1.172423	-0.024120	0.339577
H83	H	0.983627	-0.692682	0.151934
H84	H	0.400163	0.201217	-0.063549
H85	H	1.021971	-0.020396	0.578627
N86	N	0.933171	0.220374	0.587348
N87	N	0.932135	0.232120	0.672318
H88	H	0.941754	0.280004	0.696163
N89	N	0.392253	0.208920	0.078355
N90	N	0.438628	0.236190	0.133959
H91	H	0.413310	0.262560	0.189577
H92	H	0.985973	-0.560564	0.151945
N93	N	0.991342	-0.256183	0.169330
N94	N	0.932461	-0.241605	0.225420
H95	H	0.931974	-0.267868	0.285863
H96	H	0.561140	0.085511	-0.153420
H97	H	0.930731	0.207134	0.420861
H98	H	0.986048	-0.560547	-0.152043
H99	H	0.431078	0.000654	0.093777
H100	H	0.575388	0.002161	-0.091433
H101	H	0.563546	0.082230	0.153479
N102	N	0.428857	-0.015082	-0.091387
N103	N	0.385708	-0.038879	-0.029413
H104	H	0.373400	-0.089283	-0.032067
N105	N	0.411771	0.091812	0.169503
N106	N	0.357071	0.143652	0.162522
H107	H	0.332747	0.168171	0.219925
H108	H	0.991558	-0.248632	-0.152020
