data_functionalizedCrystal
_audit_creation_method	'MofGen! by Chris Wilmer'
_symmetry_space_group_name_H-M	'P1'
_symmetry_Int_Tables_number	1
_symmetry_cell_setting	triclinic
loop_
_symmetry_equiv_pos_as_xyz
  x,y,z
_cell_length_a	12.827893
_cell_length_b	12.827892
_cell_length_c	12.827885
_cell_angle_alpha	89.969834
_cell_angle_beta	89.980538
_cell_angle_gamma	90.015552
loop_
_atom_site_label
_atom_site_type_symbol
_atom_site_fract_x
_atom_site_fract_y
_atom_site_fract_z
Zn1	Zn	1.597672	-0.415976	-0.590847
Zn2	Zn	1.597565	-0.590754	-0.416107
Zn3	Zn	1.422912	-0.416028	-0.416121
Zn4	Zn	1.422898	-0.590676	-0.590807
O5	O	1.510262	-0.503359	-0.503471
O6	O	1.743893	-0.439171	-0.567679
O7	O	1.574358	-0.567630	-0.269873
O8	O	1.446145	-0.269785	-0.439321
O9	O	1.743815	-0.567580	-0.439298
O10	O	1.574540	-0.269747	-0.567692
O11	O	1.446042	-0.439260	-0.269883
O12	O	1.276674	-0.439185	-0.439282
O13	O	1.446121	-0.567448	-0.737048
O14	O	1.276664	-0.567498	-0.567623
O15	O	1.574526	-0.439096	-0.737078
O16	O	1.574345	-0.736980	-0.439259
O17	O	1.446018	-0.736923	-0.567610
C18	C	1.238752	-0.503339	-0.503451
C19	C	1.122599	-0.503356	-0.503467
C20	C	1.070853	-0.439928	-0.567093
C21	C	0.950802	-0.439944	-0.567111
C22	C	1.510196	-0.774868	-0.503451
C23	C	1.510264	-0.891022	-0.503478
C24	C	1.573770	-0.942704	-0.567057
C25	C	1.573841	-1.062754	-0.567086
C26	C	1.782832	-0.503379	-0.503491
C27	C	1.898985	-0.503387	-0.503500
C28	C	1.510334	-0.503257	-0.776041
C29	C	1.510365	-0.503214	-0.892194
C30	C	1.510356	-0.230788	-0.503513
C31	C	1.510396	-0.114635	-0.503531
C32	C	1.573941	-0.439646	-1.064038
C33	C	1.573910	-0.439689	-0.943987
C34	C	1.510250	-0.503384	-0.231961
C35	C	1.510422	-0.503133	-0.115808
H36	H	1.628083	-0.898077	-0.621473
H37	H	0.943479	-0.557699	-0.449030
O38	O	1.638651	-1.115657	-0.632175
C39	C	1.689211	-1.149130	-0.809963
C40	C	1.615767	-1.089131	-0.736363
H41	H	1.670721	-1.127723	-0.894215
H42	H	1.773511	-1.127656	-0.791794
H43	H	1.677726	-1.236498	-0.798360
H44	H	1.627159	-1.001750	-0.747924
H45	H	1.531493	-1.110692	-0.754549
H46	H	1.456023	-0.557522	-1.071254
O47	O	1.445636	-1.061675	-0.438439
C48	C	1.394966	-1.028306	-0.260662
C49	C	1.468389	-1.088339	-0.334257
H50	H	1.413321	-1.049858	-0.176418
H51	H	1.406468	-0.940920	-0.272117
H52	H	1.310694	-1.049752	-0.278983
H53	H	1.552689	-1.066980	-0.315983
H54	H	1.456796	-1.175711	-0.322789
H55	H	1.628348	-0.385265	-1.108592
H56	H	1.455943	-0.935651	-0.449072
H57	H	1.628286	-0.385332	-0.899466
H58	H	1.455974	-0.557563	-0.936708
H59	H	1.115427	-0.385610	-0.621548
O60	O	0.897884	-0.375125	-0.632200
C61	C	0.909247	-0.242647	-0.764967
C62	C	0.969308	-0.316021	-0.691323
H63	H	0.966967	-0.194827	-0.812772
H64	H	0.858197	-0.290693	-0.819560
H65	H	0.858099	-0.188047	-0.717028
H66	H	1.020512	-0.370635	-0.739178
H67	H	1.020292	-0.267910	-0.636727
O68	O	1.069385	-0.568270	-0.438644
C69	C	0.945952	-0.709205	-0.424476
C70	C	1.006165	-0.635769	-0.498008
H71	H	0.894808	-0.763781	-0.472441
H72	H	1.003537	-0.757036	-0.376587
H73	H	0.894878	-0.661102	-0.369948
H74	H	1.057241	-0.683791	-0.552600
H75	H	0.948524	-0.587934	-0.545824
