data_functionalizedCrystal
_audit_creation_method	'MofGen! by Chris Wilmer'
_symmetry_space_group_name_H-M	'P1'
_symmetry_Int_Tables_number	1
_symmetry_cell_setting	triclinic
loop_
_symmetry_equiv_pos_as_xyz
  x,y,z
_cell_length_a	15.186229
_cell_length_b	9.065218
_cell_length_c	9.065218
_cell_angle_alpha	85.015885
_cell_angle_beta	89.998095
_cell_angle_gamma	89.996565
loop_
_atom_site_label
_atom_site_type_symbol
_atom_site_fract_x
_atom_site_fract_y
_atom_site_fract_z
O1	O	0.073227	-1.960399	-0.216355
O2	O	0.573227	-1.460399	0.283645
O3	O	0.073228	-1.531114	-0.234101
O4	O	0.573228	-1.031114	0.265899
O5	O	0.073226	-1.754630	-0.010586
O6	O	0.573226	-1.254630	0.489414
O7	O	0.073229	-1.736884	-0.439871
O8	O	0.573229	-1.236884	0.060129
O9	O	-0.073232	-1.754615	-0.010582
O10	O	0.426768	-1.254615	0.489418
O11	O	-0.073229	-1.531099	-0.234098
O12	O	0.426771	-1.031099	0.265902
O13	O	-0.073230	-1.960384	-0.216352
O14	O	0.426770	-1.460384	0.283648
Zn15	Zn	-0.096483	-1.745739	-0.225224
Zn16	Zn	0.403517	-1.245739	0.274776
Zn17	Zn	0.096481	-1.745759	-0.225229
Zn18	Zn	0.596481	-1.245759	0.274771
O19	O	-0.073228	-1.736868	-0.439867
O20	O	0.426772	-1.236868	0.060133
C21	C	-0.000001	-1.476120	-0.232394
C22	C	0.499999	-0.976120	0.267606
C23	C	-0.000000	-1.312277	-0.227294
C24	C	0.500000	-0.812277	0.272706
N25	N	-0.228176	-1.745736	-0.225220
N26	N	0.271824	-1.245736	0.274780
C27	C	-0.000002	-1.752917	0.044403
C28	C	0.499998	-1.252917	0.544403
C29	C	0.000003	-1.747817	0.208245
C30	C	0.500003	-1.247817	0.708245
C31	C	-0.453900	-1.844744	-0.126282
C32	C	0.046100	-1.344744	0.373718
C33	C	-0.546089	-1.844748	-0.126278
C34	C	-0.046089	-1.344748	0.373722
C35	C	-0.546096	-1.646756	-0.324164
C36	C	-0.046096	-1.146756	0.175836
C37	C	-0.453908	-1.646745	-0.324159
C38	C	0.046092	-1.146745	0.175841
C39	C	-0.407812	-1.745747	-0.225220
C40	C	0.092188	-1.245747	0.274780
C41	C	-0.592190	-1.745763	-0.225221
C42	C	-0.092190	-1.245763	0.274779
C43	C	-0.692146	-1.745767	-0.225218
C44	C	-0.192146	-1.245767	0.274782
C45	C	-0.307850	-1.745742	-0.225221
C46	C	0.192150	-1.245742	0.274779
N47	N	0.228173	-1.745774	-0.225221
N48	N	0.728173	-1.245774	0.274779
C49	C	0.000000	-2.015378	-0.218059
C50	C	0.500000	-1.515378	0.281941
C51	C	0.000005	-2.179221	-0.223158
C52	C	0.500005	-1.679221	0.276842
C53	C	0.000001	-1.738582	-0.494855
C54	C	0.500001	-1.238582	0.005145
C55	C	0.000003	-1.743681	-0.658698
C56	C	0.500003	-1.243681	-0.158698
H57	H	-0.416370	-1.925355	-0.045717
H58	H	0.083630	-1.425355	0.454283
H59	H	-0.583637	-1.566152	-0.404720
H60	H	-0.083637	-1.066152	0.095280
F61	F	-0.404855	-1.541369	-0.429462
F62	F	0.095145	-1.041369	0.070538
H63	H	-0.583611	-1.925358	-0.045712
H64	H	-0.083611	-1.425358	0.454288
