data_functionalizedCrystal
_audit_creation_method	'MofGen! by Chris Wilmer'
_symmetry_space_group_name_H-M	'P1'
_symmetry_Int_Tables_number	1
_symmetry_cell_setting	triclinic
loop_
_symmetry_equiv_pos_as_xyz
  x,y,z
_cell_length_a	10.654550
_cell_length_b	15.995350
_cell_length_c	9.130313
_cell_angle_alpha	90.000982
_cell_angle_beta	89.996220
_cell_angle_gamma	83.988639
loop_
_atom_site_label
_atom_site_type_symbol
_atom_site_fract_x
_atom_site_fract_y
_atom_site_fract_z
O1	O	1.666298	0.117599	-0.121912
O2	O	1.300673	0.128803	-0.121888
O3	O	1.493480	0.001371	-0.121899
O4	O	1.473491	0.245030	-0.121900
O5	O	1.493478	0.001375	0.121700
O6	O	1.300671	0.128807	0.121711
O7	O	1.666295	0.117602	0.121687
Cu8	Cu	1.483483	0.123205	0.143942
Cu9	Cu	1.483486	0.123201	-0.144142
O10	O	1.473488	0.245034	0.121698
C11	C	1.253885	0.127982	-0.000085
C12	C	1.114473	0.125521	-0.000076
C13	C	1.034008	0.200551	-0.000098
C14	C	0.903017	0.198233	-0.000123
C15	C	0.932971	0.045849	-0.000111
C16	C	1.063959	0.048168	-0.000075
C17	C	1.084522	0.277904	-0.000099
C18	C	1.004055	0.352940	-0.000122
C19	C	0.873064	0.350622	-0.000147
C20	C	0.822541	0.273268	-0.000149
C21	C	1.492652	-0.029827	-0.000102
C22	C	1.490175	-0.122791	-0.000110
C23	C	1.481278	-0.460591	-0.000105
C24	C	1.343964	-0.413954	-0.000642
C25	C	1.346442	-0.317249	-0.000093
C26	C	1.485691	-0.293004	-0.000108
C27	C	1.553417	-0.333687	0.138991
C28	C	1.549968	-0.430342	0.139108
C29	C	1.552807	-0.430688	-0.137910
C30	C	1.552775	-0.333743	-0.139748
C31	C	1.488192	-0.198292	-0.000106
C32	C	1.478780	-0.555303	-0.000098
C33	C	1.713084	0.118423	-0.000119
C34	C	1.852495	0.120884	-0.000137
C35	C	1.474316	0.276232	-0.000101
C36	C	1.476793	0.369197	-0.000103
N37	N	1.483490	0.123207	0.346564
N38	N	1.483488	0.123192	-0.346765
C39	C	1.568887	0.066800	0.423211
C40	C	1.568883	0.066789	0.576548
C41	C	1.398083	0.179602	0.576578
C42	C	1.398081	0.179607	0.423244
C43	C	1.654296	0.010399	0.346532
C44	C	1.739700	-0.046012	0.423179
C45	C	1.739697	-0.046022	0.576516
C46	C	1.654289	0.010379	0.653206
H47	H	1.289082	-0.432806	-0.100393
C48	C	1.492957	-0.458253	-0.278615
C49	C	1.451083	-0.387327	-0.362040
C50	C	1.395945	-0.412687	-0.491666
H51	H	1.423383	-0.488464	-0.255573
H52	H	1.553548	-0.493348	-0.333013
H53	H	1.390497	-0.352246	-0.307653
H54	H	1.520634	-0.357108	-0.385121
H55	H	1.456536	-0.447782	-0.546065
H56	H	1.326376	-0.442899	-0.468610
H57	H	1.367537	-0.364569	-0.548292
C58	C	1.059146	0.436836	-0.000193
C59	C	1.191083	0.422810	-0.000208
C60	C	1.241872	0.500077	-0.000295
H61	H	1.031649	0.467832	0.084724
H62	H	1.031612	0.467765	-0.085183
H63	H	1.218606	0.391895	0.084773
H64	H	1.218615	0.391828	-0.085120
H65	H	1.214338	0.531006	-0.085285
H66	H	1.214365	0.531067	0.084624
H67	H	1.331395	0.490571	-0.000318
H68	H	1.292844	-0.289694	0.099796
H69	H	1.654285	0.010361	0.778063
H70	H	1.289324	-0.433864	0.098560
C71	C	1.305515	0.240986	0.340090
C72	C	1.325889	0.323394	0.377360
C73	C	1.240648	0.379957	0.300771
H74	H	1.221651	0.231485	0.365157
H75	H	1.317753	0.232964	0.237775
H76	H	1.313640	0.331413	0.479652
H77	H	1.409736	0.332922	0.352289
H78	H	1.252887	0.371935	0.198456
H79	H	1.156790	0.370448	0.325844
H80	H	1.254468	0.435877	0.326038
H81	H	0.807551	0.411720	-0.000152
H82	H	0.715878	0.271387	-0.000147
C83	C	1.832194	-0.107323	0.339770
C84	C	1.765272	-0.158974	0.251742
C85	C	1.850424	-0.215474	0.174890
H86	H	1.883060	-0.141000	0.407241
H87	H	1.884478	-0.076932	0.279851
H88	H	1.713011	-0.189363	0.311656
H89	H	1.714411	-0.125320	0.184243
H90	H	1.902708	-0.185082	0.114971
H91	H	1.901285	-0.249145	0.242372
H92	H	1.805030	-0.250520	0.115144
H93	H	1.500580	-0.448929	0.243098
C94	C	1.684472	-0.472410	0.147610
C95	C	1.768482	-0.410767	0.152615
C96	C	1.892392	-0.449483	0.160476
H97	H	1.701969	-0.506822	0.063762
H98	H	1.694047	-0.506068	0.233421
H99	H	1.758913	-0.377123	0.066814
H100	H	1.751026	-0.376351	0.236460
H101	H	1.901967	-0.483141	0.246287
H102	H	1.909876	-0.483894	0.076626
H103	H	1.949407	-0.407664	0.163887
H104	H	1.129477	-0.012928	-0.000061
C105	C	1.688085	-0.312280	-0.150880
C106	C	1.688655	-0.224923	-0.159406
C107	C	1.813280	-0.205110	-0.169619
H108	H	1.726420	-0.337597	-0.236154
H109	H	1.733901	-0.332771	-0.066727
H110	H	1.642858	-0.204442	-0.243551
H111	H	1.650344	-0.199586	-0.074143
H112	H	1.859096	-0.225601	-0.085465
H113	H	1.851605	-0.230432	-0.254892
H114	H	1.813684	-0.145837	-0.175391
C115	C	1.275339	-0.279913	-0.133083
C116	C	1.229765	-0.344425	-0.214664
C117	C	1.164235	-0.310066	-0.337172
H118	H	1.330567	-0.251313	-0.192107
H119	H	1.206554	-0.241453	-0.101814
H120	H	1.298541	-0.382870	-0.245934
H121	H	1.174520	-0.373030	-0.155684
H122	H	1.095449	-0.271605	-0.305904
H123	H	1.219471	-0.281466	-0.396184
H124	H	1.133295	-0.353830	-0.392533
C125	C	1.832553	-0.107305	0.659471
C126	C	1.907365	-0.156679	0.559493
C127	C	1.992936	-0.213133	0.635853
H128	H	1.787535	-0.142525	0.719287
H129	H	1.884890	-0.076881	0.719258
H130	H	1.855034	-0.187100	0.499731
H131	H	1.952410	-0.121481	0.499673
H132	H	2.045273	-0.182709	0.695640
H133	H	1.947907	-0.248348	0.695667
H134	H	2.043713	-0.246635	0.568030
C135	C	1.490904	-0.296123	0.277087
C136	C	1.579554	-0.257718	0.359722
C137	C	1.522001	-0.223098	0.486930
H138	H	1.459497	-0.339351	0.333338
H139	H	1.423144	-0.255448	0.251066
H140	H	1.647292	-0.298389	0.385746
H141	H	1.610968	-0.214480	0.303515
H142	H	1.454240	-0.182423	0.460910
H143	H	1.490595	-0.266331	0.543169
H144	H	1.582137	-0.197030	0.543007
C145	C	1.687774	-0.472294	-0.139492
C146	C	1.708288	-0.519892	-0.267587
C147	C	1.832602	-0.558226	-0.269093
H148	H	1.701420	-0.507985	-0.056615
H149	H	1.744545	-0.430312	-0.136525
H150	H	1.651534	-0.561869	-0.270541
H151	H	1.694668	-0.484220	-0.350486
H152	H	1.889373	-0.516244	-0.266125
H153	H	1.846237	-0.593913	-0.186210
H154	H	1.846540	-0.590519	-0.356010
H155	H	0.891824	-0.017129	-0.000137
H156	H	1.328548	0.225522	0.639028
H157	H	1.503258	-0.306783	-0.242650
H158	H	1.655720	-0.318967	0.144153
H159	H	1.191179	0.279800	-0.000085
H160	H	1.654308	0.010404	0.221678
