data_functionalizedCrystal
_audit_creation_method	'MofGen! by Chris Wilmer'
_symmetry_space_group_name_H-M	'P1'
_symmetry_Int_Tables_number	1
_symmetry_cell_setting	triclinic
loop_
_symmetry_equiv_pos_as_xyz
  x,y,z
_cell_length_a	16.974800
_cell_length_b	19.188930
_cell_length_c	16.053802
_cell_angle_alpha	92.551696
_cell_angle_beta	91.074188
_cell_angle_gamma	83.267966
loop_
_atom_site_label
_atom_site_type_symbol
_atom_site_fract_x
_atom_site_fract_y
_atom_site_fract_z
O1	O	1.048771	0.089000	0.001451
O2	O	1.548771	0.589000	0.501451
O3	O	0.819273	0.099688	-0.014064
O4	O	1.319273	0.599688	0.485936
O5	O	0.940644	-0.007281	-0.005843
O6	O	1.440644	0.492719	0.494157
O7	O	0.927400	0.195969	-0.006771
O8	O	1.427400	0.695969	0.493229
O9	O	0.933963	-0.001417	0.132564
O10	O	1.433963	0.498583	0.632564
O11	O	0.812592	0.105551	0.124342
O12	O	1.312592	0.605551	0.624342
O13	O	1.042090	0.094863	0.139857
O14	O	1.542090	0.594863	0.639857
Zn15	Zn	0.926281	0.101138	0.154075
Zn16	Zn	1.426281	0.601138	0.654075
Zn17	Zn	0.935082	0.093413	-0.028282
Zn18	Zn	1.435082	0.593413	0.471718
O19	O	0.920719	0.201832	0.131636
O20	O	1.420719	0.701832	0.631636
C21	C	0.786571	0.102106	0.053154
C22	C	1.286571	0.602106	0.553154
C23	C	0.699084	0.100566	0.047240
C24	C	1.199084	0.600566	0.547240
C25	C	0.654345	0.103037	0.119909
C26	C	1.154345	0.603037	0.619909
C27	C	0.572143	0.101580	0.114355
C28	C	1.072143	0.601580	0.614355
C29	C	0.534680	0.097656	0.036131
C30	C	1.034680	0.597656	0.536131
C31	C	0.579425	0.095182	-0.036544
C32	C	1.079425	0.595182	0.463456
C33	C	0.661626	0.096635	-0.030988
C34	C	1.161626	0.596635	0.469012
C35	C	0.289226	0.092964	0.011426
C36	C	0.789226	0.592964	0.511426
C37	C	0.207018	0.091513	0.005877
C38	C	0.707018	0.591513	0.505877
C39	C	0.199742	0.097910	0.156776
C40	C	0.699742	0.597910	0.656776
C41	C	0.281944	0.099366	0.162324
C42	C	0.781944	0.599366	0.662324
C43	C	0.326683	0.096889	0.089650
C44	C	0.826683	0.596889	0.589650
N45	N	0.450656	0.096168	0.030451
N46	N	0.950656	0.596168	0.530451
N47	N	0.410706	0.098372	0.095330
N48	N	0.910706	0.598372	0.595330
C49	C	0.936874	-0.030362	0.063334
C50	C	1.436874	0.469638	0.563334
C51	C	0.935587	-0.107872	0.063254
C52	C	1.435587	0.392128	0.563254
C53	C	1.006803	-0.152471	0.068073
C54	C	1.506803	0.347529	0.568073
C55	C	1.005594	-0.225301	0.067978
C56	C	1.505594	0.274699	0.567978
C57	C	0.933164	-0.253528	0.063080
C58	C	1.433164	0.246472	0.563080
C59	C	0.861937	-0.208919	0.058256
C60	C	1.361937	0.291081	0.558256
C61	C	0.863149	-0.136091	0.058343
C62	C	1.363149	0.363909	0.558343
N63	N	0.875525	-0.359790	0.106440
N64	N	1.375525	0.140210	0.606440
N65	N	0.874379	-0.428974	0.106359
N66	N	1.374379	0.071026	0.606359
C67	C	0.929509	-0.472954	0.062816
C68	C	1.429509	0.027046	0.562816
N69	N	0.985840	-0.445138	0.019368
N70	N	1.485840	0.054862	0.519368
N71	N	0.986988	-0.375947	0.019453
N72	N	1.486988	0.124053	0.519453
C73	C	0.931842	-0.332497	0.062985
C74	C	1.431842	0.167503	0.562985
C75	C	0.999420	-0.596524	0.067531
C76	C	1.499420	-0.096524	0.567531
C77	C	0.998208	-0.669355	0.067431
C78	C	1.498208	-0.169355	0.567431
C79	C	0.854549	-0.652971	0.057717
C80	C	1.354549	-0.152971	0.557717
C81	C	0.855763	-0.580142	0.057810
C82	C	1.355763	-0.080142	0.557810
C83	C	0.928201	-0.551923	0.062721
C84	C	1.428201	-0.051923	0.562721
C85	C	1.074792	0.092445	0.072637
C86	C	1.574792	0.592445	0.572637
C87	C	1.162280	0.093985	0.078546
C88	C	1.662280	0.593985	0.578546
C89	C	0.924489	0.224913	0.062457
C90	C	1.424489	0.724913	0.562457
C91	C	0.925777	0.302423	0.062532
C92	C	1.425777	0.802423	0.562532
N93	N	0.920279	0.106410	0.278529
N94	N	1.420279	0.606410	0.778529
N95	N	0.941090	0.088135	-0.152735
N96	N	1.441090	0.588135	0.347265
C97	C	0.971942	0.060911	0.325722
C98	C	1.471942	0.560911	0.825722
C99	C	0.967751	0.064606	0.412845
C100	C	1.467751	0.564606	0.912845
C101	C	0.911901	0.113803	0.452773
C102	C	1.411901	0.613803	0.952773
C103	C	0.860233	0.159304	0.405573
C104	C	1.360233	0.659304	0.905573
C105	C	0.864421	0.155606	0.318451
C106	C	1.364421	0.655606	0.818451
C107	C	0.893610	0.129938	0.712944
C108	C	1.393610	0.629938	1.212944
C109	C	0.889428	0.133634	0.800072
C110	C	1.389428	0.633634	1.300072
C111	C	0.996945	0.038935	0.807337
C112	C	1.496945	0.538935	1.307337
C113	C	1.001130	0.035243	0.720214
C114	C	1.501130	0.535243	1.220214
C115	C	0.949460	0.080742	0.673022
C116	C	1.449460	0.580742	1.173022
N117	N	0.907618	0.117582	0.541827
N118	N	1.407618	0.617582	1.041827
N119	N	0.953740	0.076959	0.583969
N120	N	1.453740	0.576959	1.083969
H121	H	0.176519	0.088320	-0.057826
H122	H	0.676519	0.588320	0.442174
Br123	Br	1.037862	0.002854	0.476896
Br124	Br	1.537862	0.502854	0.976896
Br125	Br	1.094869	-0.729886	0.073962
Br126	Br	1.594869	-0.229886	0.573962
H127	H	0.325642	0.090944	-0.047750
H128	H	0.825642	0.590944	0.452250
H129	H	0.684840	0.106238	0.183608
H130	H	1.184840	0.606238	0.683608
Br131	Br	1.067064	-0.022812	0.871387
Br132	Br	1.567064	0.477188	1.371387
H133	H	0.163307	0.099925	0.215943
H134	H	0.663307	0.599925	0.715943
H135	H	0.843946	0.173700	0.832576
H136	H	1.343946	0.673700	1.332576
H137	H	1.017424	0.020852	0.293219
H138	H	1.517424	0.520852	0.793219
Br139	Br	0.759106	-0.519611	0.051271
Br140	Br	1.259106	-0.019611	0.551271
H141	H	0.795574	-0.675953	0.053726
H142	H	1.295574	-0.175953	0.553726
H143	H	1.046608	-0.004817	0.687707
H144	H	1.546608	0.495183	1.187707
Br145	Br	1.102253	-0.285841	0.074514
Br146	Br	1.602253	0.214159	0.574514
Br147	Br	0.511427	0.104945	0.212982
Br148	Br	1.011427	0.604945	0.712982
H149	H	0.548917	0.091982	-0.100235
H150	H	1.048917	0.591982	0.399765
Br151	Br	0.823489	0.191685	0.648901
Br152	Br	1.323489	0.691685	1.148901
Br153	Br	0.784429	0.226069	0.459757
Br154	Br	1.284429	0.726069	0.959757
H155	H	0.698052	0.094624	-0.090163
H156	H	1.198052	0.594624	0.409837
H157	H	0.312441	0.102558	0.226022
H158	H	0.812441	0.602558	0.726022
Br159	Br	1.105112	-0.114178	0.074714
Br160	Br	1.605112	0.385822	0.574714
H161	H	0.802964	-0.231906	0.054267
H162	H	1.302964	0.268094	0.554267
H163	H	0.805154	-0.099778	0.054419
H164	H	1.305154	0.400222	0.554419
H165	H	1.058403	-0.573547	0.071526
H166	H	1.558403	-0.073547	0.571526
Br167	Br	0.794299	0.217353	0.254402
Br168	Br	1.294299	0.717353	0.754402
