data_functionalizedCrystal
_audit_creation_method	'MofGen! by Chris Wilmer'
_symmetry_space_group_name_H-M	'P1'
_symmetry_Int_Tables_number	1
_symmetry_cell_setting	triclinic
loop_
_symmetry_equiv_pos_as_xyz
  x,y,z
_cell_length_a	14.560438
_cell_length_b	21.606444
_cell_length_c	21.606444
_cell_angle_alpha	59.998659
_cell_angle_beta	90.003018
_cell_angle_gamma	60.002109
loop_
_atom_site_label
_atom_site_type_symbol
_atom_site_fract_x
_atom_site_fract_y
_atom_site_fract_z
Zr1	Zr	0.884800	0.677436	-0.081207
O2	O	0.738151	0.806560	-0.180038
O3	O	0.929751	0.548317	-0.050909
O4	O	0.929748	0.677440	-0.180033
O5	O	0.738161	0.677432	0.050940
O6	O	1.080889	0.677438	-0.180029
O7	O	0.738154	0.677437	-0.050914
O8	O	1.080894	0.446460	0.050949
O9	O	0.738157	0.908410	-0.180038
O10	O	1.061723	0.601422	-0.037986
O11	O	0.948934	0.601421	0.038024
O12	O	0.948931	0.753447	-0.114002
O13	O	0.836142	0.753445	-0.037992
Zr14	Zr	1.125865	0.677426	0.081244
Zr15	Zr	1.125853	0.677433	-0.081201
Zr16	Zr	0.884812	0.677429	0.081239
Zr17	Zr	0.884809	0.839876	-0.081208
Zr18	Zr	1.125856	0.514987	0.081245
O19	O	1.080914	0.806546	0.050947
O20	O	1.080897	0.806556	-0.180030
O21	O	0.738169	0.806550	0.050939
O22	O	1.272514	0.548302	0.180075
O23	O	1.272496	0.548312	-0.050902
O24	O	0.929768	0.548307	0.180067
O25	O	1.272504	0.677430	-0.050903
O26	O	1.080917	0.677423	0.180070
O27	O	0.929776	0.677425	0.180067
O28	O	1.272511	0.677426	0.050952
O29	O	0.929761	0.908408	-0.180034
O30	O	1.080904	0.446455	0.180071
O31	O	1.272508	0.446452	0.180075
O32	O	1.272498	0.446458	0.050953
O33	O	0.738167	0.908405	-0.050916
O34	O	0.929771	0.908402	-0.050911
O35	O	1.061734	0.601416	0.114039
O36	O	1.174523	0.601418	0.038029
O37	O	1.061731	0.753442	-0.037987
O38	O	0.948942	0.753440	0.038023
C39	C	1.005321	0.474244	0.000020
C40	C	1.005317	0.405285	0.000020
C41	C	1.064224	-0.018023	-0.039658
C42	C	1.064216	0.046777	-0.039661
C43	C	1.005337	0.079173	0.000016
C44	C	0.946454	0.046772	0.039692
C45	C	0.946456	-0.018023	0.039690
C46	C	0.946442	0.308083	0.039699
C47	C	0.946447	0.372880	0.039700
C48	C	1.064202	0.372883	-0.039652
C49	C	1.064204	0.308088	-0.039654
C50	C	1.005316	0.275696	0.000019
C51	C	1.005324	0.205433	0.000021
C52	C	1.005335	0.149430	0.000019
C53	C	0.703813	0.677435	0.000012
C54	C	0.601480	0.677436	0.000010
C55	C	0.553392	0.677440	-0.056101
C56	C	0.457246	0.677432	-0.056091
C57	C	0.457282	0.677420	0.056144
C58	C	0.553430	0.677422	0.056136
C59	C	0.601442	0.677455	-0.112228
C60	C	0.553353	0.677460	-0.168344
C61	C	0.457207	0.677451	-0.168334
C62	C	0.409150	0.677438	-0.112208
C63	C	1.306852	0.677427	0.000025
C64	C	1.409185	0.677426	0.000028
C65	C	1.005317	0.677440	-0.203176
C66	C	1.005312	0.677443	-0.272138
C67	C	1.005344	0.880618	0.000018
C68	C	1.005348	0.949578	0.000017
C69	C	0.946435	0.756797	-0.344217
C70	C	0.946445	0.756795	-0.409011
C71	C	1.005325	0.677437	-0.401727
C72	C	1.064210	0.598077	-0.329641
C73	C	1.064206	0.598080	-0.264847
C74	C	1.064227	0.598061	-0.590944
C75	C	1.064224	0.598064	-0.655745
C76	C	0.946466	0.756776	-0.735108
C77	C	0.946463	0.756780	-0.670314
C78	C	1.005351	0.677420	-0.598235
C79	C	1.005342	0.677423	-0.527977
C80	C	1.005329	0.677433	-0.471982
C81	C	1.005348	0.677423	0.203213
C82	C	1.005353	0.677420	0.272176
C83	C	1.306841	0.474241	0.000026
C84	C	1.409170	0.405279	0.000029
C85	C	1.005336	0.474236	0.203214
C86	C	1.005338	0.405273	0.272177
C87	C	1.306856	0.474232	0.203221
C88	C	1.409191	0.405268	0.272186
C89	C	0.703809	0.880631	-0.203184
C90	C	0.601474	0.949595	-0.272149
C91	C	0.703824	0.880622	0.000011
C92	C	0.601495	0.949583	0.000008
C93	C	1.005329	0.880627	-0.203177
C94	C	1.005327	0.949590	-0.272140
C95	C	1.398344	0.372897	-0.039656
C96	C	1.494484	0.308110	-0.039668
C97	C	1.601449	0.275702	0.000008
C98	C	1.612273	0.308090	0.039694
C99	C	1.516134	0.372881	0.039702
C100	C	1.064219	0.372885	0.344249
C101	C	1.064216	0.308096	0.409053
C102	C	1.005338	0.275692	0.401784
C103	C	0.946449	0.308087	0.329704
C104	C	0.946446	0.372879	0.264902
C105	C	1.516133	0.372882	0.264896
C106	C	1.612296	0.308092	0.329690
C107	C	1.601515	0.275684	0.401773
C108	C	1.494561	0.308076	0.409061
C109	C	1.398400	0.372869	0.344268
C110	C	0.494532	0.981988	-0.264859
C111	C	0.398369	1.046798	-0.329653
C112	C	0.409150	1.079210	-0.401736
C113	C	0.516104	1.046814	-0.409024
C114	C	0.612265	0.982009	-0.344231
C115	C	0.612321	0.981972	0.039686
C116	C	0.516181	1.046778	0.039681
C117	C	0.409216	1.079188	0.000002
C118	C	0.398392	1.046796	-0.039681
C119	C	0.494531	0.981996	-0.039680
C120	C	1.064217	0.981973	-0.264846
C121	C	1.064238	1.046762	-0.329638
C122	C	1.005361	1.079171	-0.401722
C123	C	0.946470	1.046782	-0.409014
C124	C	0.946456	0.981989	-0.344223
H125	H	1.112147	0.399267	-0.071958
H126	H	0.592492	0.677463	-0.214037
C127	C	0.606061	0.752265	0.083793
C128	C	0.606302	0.677427	0.117804
H129	H	0.638713	0.752262	0.121865
H130	H	0.530889	0.803020	0.056093
H131	H	0.648435	0.752256	0.050365
H132	H	0.563921	0.677438	0.151228
H133	H	0.681487	0.626659	0.145517
C134	C	1.803363	0.182875	0.451360
C135	C	1.707224	0.204455	0.472990
H136	H	1.868624	0.138896	0.495325
H137	H	1.803344	0.233431	0.422053
H138	H	1.803327	0.161649	0.422041
H139	H	1.707256	0.225688	0.502304
H140	H	1.707243	0.153889	0.502310
C141	C	0.719066	0.988486	0.118122
C142	C	0.729889	0.946357	0.083305
H143	H	0.791646	0.966505	0.145047
H144	H	0.679116	0.977865	0.152366
H145	H	0.679108	1.049659	0.080563
H146	H	0.769840	0.885184	0.120865
H147	H	0.769856	0.956970	0.049059
C148	C	0.739153	0.677471	-0.173349
C149	C	0.707129	0.677459	-0.112238
H150	H	0.804403	0.677470	-0.173350
H151	H	0.679731	0.728237	-0.219446
H152	H	0.755062	0.626704	-0.168685
H153	H	0.691212	0.728230	-0.116905
H154	H	0.766565	0.626688	-0.066129
C155	C	1.707082	0.129974	0.031315
C156	C	1.707121	0.204474	0.000003
H157	H	1.772320	0.085999	0.031315
H158	H	1.641831	0.144650	0.002003
H159	H	1.707088	0.108739	0.081870
H160	H	1.707106	0.225713	-0.050553
H161	H	1.772389	0.189797	0.029315
C162	C	0.924749	-0.090979	0.160279
C163	C	0.881815	-0.053703	0.083337
H164	H	0.884862	-0.113026	0.187232
H165	H	0.916276	-0.047747	0.165957
H166	H	1.002224	-0.137456	0.179832
H167	H	0.804341	-0.007222	0.063782
H168	H	0.890278	-0.096939	0.077654
H169	H	0.330841	1.131977	-0.454488
H170	H	0.311292	1.073164	-0.323704
C171	C	1.421025	0.472211	0.130324
C172	C	1.528002	0.408500	0.185667
H173	H	1.428362	0.494194	0.081414
H174	H	1.381080	0.518720	0.136008
H175	H	1.381088	0.446921	0.136012
H176	H	1.567936	0.433792	0.179983
H177	H	1.567964	0.361983	0.179980
C178	C	1.069484	0.182882	0.537812
C179	C	1.005357	0.204465	0.473021
H180	H	1.069504	0.138905	0.581791
H181	H	1.037954	0.233438	0.537797
H182	H	1.144490	0.161652	0.537793
H183	H	0.930348	0.225701	0.473037
H184	H	1.036883	0.153899	0.473036
C185	C	0.830042	0.913682	-0.429181
C186	C	0.881712	0.844032	-0.352229
H187	H	0.790092	0.967537	-0.434128
H188	H	0.779227	0.910381	-0.452803
H189	H	0.885771	0.910370	-0.452796
H190	H	0.825982	0.847340	-0.328615
H191	H	0.932532	0.847334	-0.328597
C192	C	0.476405	1.066705	0.138651
C193	C	0.528097	1.082362	0.083314
H194	H	0.483759	1.088675	0.165586
H195	H	0.511450	1.005538	0.172885
H196	H	0.398940	1.095297	0.115006
H197	H	0.605563	1.053764	0.106960
H198	H	0.493054	1.143541	0.049075
H199	H	0.330943	1.131952	0.000007
C200	C	1.589718	0.208724	0.543622
C201	C	1.482722	0.272439	0.488299
H202	H	1.582408	0.186716	0.592540
H203	H	1.629646	0.234012	0.537934
H204	H	1.629654	0.162224	0.537917
H205	H	1.442789	0.318942	0.494001
H206	H	1.442777	0.247151	0.493990
C207	C	0.368428	0.988521	-0.118106
C208	C	0.482619	0.946388	-0.083287
H209	H	0.361071	0.966535	-0.145024
H210	H	0.333389	1.049685	-0.152355
H211	H	0.333386	0.977903	-0.080548
H212	H	0.517660	0.957011	-0.120846
H213	H	0.517673	0.885209	-0.049035
H214	H	0.418061	0.677447	-0.214021
H215	H	1.112161	0.955596	-0.206158
C216	C	0.420947	1.146152	-0.543585
C217	C	0.527943	1.082439	-0.488262
H218	H	0.428257	1.168139	-0.592503
H219	H	0.381024	1.192659	-0.537896
H220	H	0.381006	1.120863	-0.537881
H221	H	0.567882	1.107730	-0.493962
H222	H	0.567882	1.035925	-0.493953
C223	C	1.086044	0.462792	-0.503384
C224	C	1.128940	0.510823	-0.511725
H225	H	1.125991	0.408932	-0.454474
H226	H	1.094465	0.451455	-0.540937
H227	H	1.008584	0.495413	-0.509071
H228	H	1.206398	0.478204	-0.506044
H229	H	1.120529	0.522158	-0.474161
C230	C	0.198725	1.146129	-0.074896
C231	C	0.280810	1.082421	-0.083287
H232	H	0.126134	1.168115	-0.101810
H233	H	0.207169	1.192636	-0.094497
H234	H	0.207194	1.120836	-0.022689
H235	H	0.272346	1.107716	-0.135494
H236	H	0.272363	1.035906	-0.063690
C237	C	1.198660	0.472223	-0.074896
C238	C	1.280775	0.408514	-0.083275
H239	H	1.126081	0.494206	-0.101825
H240	H	1.207097	0.518732	-0.094485
H241	H	1.207103	0.446930	-0.022691
H242	H	1.272337	0.433809	-0.135480
H243	H	1.272334	0.361997	-0.063689
H244	H	1.112157	0.533462	-0.323714
H245	H	0.898512	0.281694	0.323797
C246	C	1.180612	1.040245	-0.244656
C247	C	1.128961	1.082366	-0.321610
H248	H	1.220560	1.062230	-0.239701
H249	H	1.231426	0.979078	-0.221032
H250	H	1.124872	1.050873	-0.221049
H251	H	1.184701	1.071732	-0.345216
H252	H	1.078142	1.143547	-0.345244
C253	C	1.368378	0.314629	-0.118094
C254	C	1.482569	0.272508	-0.083285
H255	H	1.361022	0.292646	-0.145015
H256	H	1.333325	0.375796	-0.152338
H257	H	1.333348	0.303998	-0.080530
H258	H	1.517597	0.283145	-0.120850
H259	H	1.517636	0.211327	-0.049037
C260	C	1.198709	0.472175	0.280201
C261	C	1.280849	0.408458	0.352288
H262	H	1.126140	0.494147	0.285159
H263	H	1.207137	0.446900	0.253284
H264	H	1.207133	0.518698	0.253278
H265	H	1.272430	0.361932	0.379209
H266	H	1.272417	0.433733	0.379217
H267	H	1.524964	0.399238	0.072023
C268	C	1.811940	0.208742	0.074925
C269	C	1.729855	0.272454	0.083313
H270	H	1.884531	0.186734	0.101860
H271	H	1.803495	0.234033	0.022727
H272	H	1.803472	0.162242	0.094511
H273	H	1.738318	0.318957	0.063721
H274	H	1.738303	0.247163	0.135521
H275	H	0.330868	0.677423	-0.112200
C276	C	0.830016	0.366390	0.118125
C277	C	0.881711	0.408499	0.083308
H278	H	0.790049	0.388385	0.145041
H279	H	0.885724	0.305223	0.152377
H280	H	0.779202	0.377017	0.080567
H281	H	0.932532	0.397867	0.120867
H282	H	0.825997	0.469681	0.049054
H283	H	0.699339	0.955635	-0.350175
H284	H	1.112175	0.533438	-0.649805
H285	H	0.898502	0.399240	0.206220
C286	C	1.718993	0.314610	0.244713
C287	C	1.729850	0.272488	0.321666
H288	H	1.791565	0.292625	0.239760
H289	H	1.679043	0.375776	0.221089
H290	H	1.679024	0.303981	0.221104
H291	H	1.769812	0.283122	0.345274
H292	H	1.769818	0.211307	0.345300
H293	H	0.898496	0.955630	-0.350172
H294	H	1.112175	-0.044400	-0.071963
H295	H	1.005381	1.131930	-0.454473
H296	H	0.418146	0.677410	0.101839
C297	C	0.589640	0.882647	-0.130287
C298	C	0.482663	0.946373	-0.185630
H299	H	0.582303	0.860663	-0.081376
H300	H	0.629591	0.907918	-0.135970
H301	H	0.629571	0.836134	-0.135975
H302	H	0.442735	0.992889	-0.179945
H303	H	0.442695	0.921102	-0.179944
C304	C	1.053994	0.288135	-0.138606
C305	C	1.128924	0.272475	-0.083266
H306	H	1.093952	0.266145	-0.165527
H307	H	0.998291	0.349304	-0.172851
H308	H	1.018936	0.259562	-0.114966
H309	H	1.163976	0.301054	-0.106906
H310	H	1.184647	0.211295	-0.049015
H311	H	1.112156	0.073157	-0.071968
C312	C	0.956530	0.182356	0.138671
C313	C	0.881671	0.272530	0.083304
H314	H	0.916523	0.160422	0.165586
H315	H	1.012253	0.171724	0.172917
H316	H	0.991570	0.153765	0.115053
H317	H	0.846638	0.301121	0.106922
H318	H	0.825928	0.283169	0.049053
C319	C	0.956657	0.848878	-0.527911
C320	C	0.881726	0.844027	-0.488239
H321	H	0.916701	0.902738	-0.576821
H322	H	0.991712	0.801626	-0.532850
H323	H	1.012365	0.845576	-0.500970
H324	H	0.826022	0.847323	-0.515177
H325	H	0.846652	0.891293	-0.483303
H326	H	0.898534	1.073179	-0.467714
H327	H	1.112165	0.399261	0.350182
C328	C	0.830072	0.913666	-0.755274
C329	C	0.881744	0.844012	-0.678324
H330	H	0.790126	0.967519	-0.760218
H331	H	0.779253	0.910369	-0.778898
H332	H	0.885800	0.910354	-0.778891
H333	H	0.826015	0.847320	-0.654708
H334	H	0.932567	0.847311	-0.654691
H335	H	0.898508	0.073158	0.071994
H336	H	0.898520	0.821395	-0.793805
C337	C	1.180598	0.441194	-0.192902
C338	C	1.128920	0.510851	-0.185615
H339	H	1.220547	0.387342	-0.143986
H340	H	1.231415	0.444493	-0.219820
H341	H	1.124873	0.444501	-0.219831
H342	H	1.184646	0.507548	-0.158691
H343	H	1.078098	0.507551	-0.158685
H344	H	1.112174	0.281728	0.467736
