data_functionalizedCrystal
_audit_creation_method	'MofGen! by Chris Wilmer'
_symmetry_space_group_name_H-M	'P1'
_symmetry_Int_Tables_number	1
_symmetry_cell_setting	triclinic
loop_
_symmetry_equiv_pos_as_xyz
  x,y,z
_cell_length_a	21.395362
_cell_length_b	18.101395
_cell_length_c	18.101389
_cell_angle_alpha	89.983159
_cell_angle_beta	89.961604
_cell_angle_gamma	90.046983
loop_
_atom_site_label
_atom_site_type_symbol
_atom_site_fract_x
_atom_site_fract_y
_atom_site_fract_z
Zn1	Zn	0.957823	-0.294593	-0.419125
Zn2	Zn	1.207823	-0.044593	-0.169125
Zn3	Zn	1.457823	0.205407	0.080875
Zn4	Zn	1.707823	0.455407	0.330875
Zn5	Zn	0.957735	-0.418419	-0.295287
Zn6	Zn	1.207735	-0.168419	-0.045287
Zn7	Zn	1.457735	0.081581	0.204713
Zn8	Zn	1.707735	0.331581	0.454713
Zn9	Zn	0.853049	-0.294630	-0.295256
Zn10	Zn	1.103049	-0.044630	-0.045256
Zn11	Zn	1.353049	0.205370	0.204744
Zn12	Zn	1.603049	0.455370	0.454744
Zn13	Zn	0.853007	-0.418432	-0.419045
Zn14	Zn	1.103007	-0.168432	-0.169045
Zn15	Zn	1.353007	0.081568	0.080955
Zn16	Zn	1.603007	0.331568	0.330955
O17	O	0.905404	-0.356519	-0.357178
O18	O	1.155404	-0.106519	-0.107178
O19	O	1.405404	0.143481	0.142822
O20	O	1.655404	0.393481	0.392822
O21	O	1.045490	-0.310998	-0.402744
O22	O	1.295490	-0.060998	-0.152744
O23	O	1.545490	0.189002	0.097256
O24	O	1.795490	0.439002	0.347256
O25	O	0.943829	-0.402008	-0.191650
O26	O	1.193829	-0.152008	0.058350
O27	O	1.443829	0.097992	0.308350
O28	O	1.693829	0.347992	0.558350
O29	O	0.867001	-0.190992	-0.311708
O30	O	1.117001	0.059008	-0.061708
O31	O	1.367001	0.309008	0.188292
O32	O	1.617001	0.559008	0.438292
O33	O	1.045425	-0.401973	-0.311761
O34	O	1.295425	-0.151973	-0.061761
O35	O	1.545425	0.098027	0.188239
O36	O	1.795425	0.348027	0.438239
O37	O	0.943979	-0.190965	-0.402714
O38	O	1.193979	0.059035	-0.152714
O39	O	1.443979	0.309035	0.097286
O40	O	1.693979	0.559035	0.347286
O41	O	0.866916	-0.311061	-0.191627
O42	O	1.116916	-0.061061	0.058373
O43	O	1.366916	0.188939	0.308373
O44	O	1.616916	0.438939	0.558373
O45	O	0.765365	-0.311074	-0.311630
O46	O	1.015365	-0.061074	-0.061630
O47	O	1.265365	0.188926	0.188370
O48	O	1.515365	0.438926	0.438370
O49	O	0.866930	-0.401994	-0.522689
O50	O	1.116930	-0.151994	-0.272689
O51	O	1.366930	0.098006	-0.022689
O52	O	1.616930	0.348006	0.227311
O53	O	0.765334	-0.402030	-0.402578
O54	O	1.015334	-0.152030	-0.152578
O55	O	1.265334	0.097970	0.097422
O56	O	1.515334	0.347970	0.347422
O57	O	0.943939	-0.311011	-0.522747
O58	O	1.193939	-0.061011	-0.272747
O59	O	1.443939	0.188989	-0.022747
O60	O	1.693939	0.438989	0.227253
O61	O	0.943789	-0.522054	-0.311683
O62	O	1.193789	-0.272054	-0.061683
O63	O	1.443789	-0.022054	0.188317
O64	O	1.693789	0.227946	0.438317
O65	O	0.866845	-0.522063	-0.402608
O66	O	1.116845	-0.272063	-0.152608
O67	O	1.366845	-0.022063	0.097392
O68	O	1.616845	0.227937	0.347392
C69	C	0.742616	-0.356558	-0.357092
C70	C	0.992616	-0.106558	-0.107092
C71	C	1.242616	0.143442	0.142908
C72	C	1.492616	0.393442	0.392908
C73	C	0.672975	-0.356592	-0.357073
C74	C	0.922975	-0.106592	-0.107073
C75	C	1.172975	0.143408	0.142927
C76	C	1.422975	0.393408	0.392927
C77	C	0.905320	-0.548929	-0.357156
C78	C	1.155320	-0.298929	-0.107156
C79	C	1.405320	-0.048929	0.142844
C80	C	1.655320	0.201071	0.392844
C81	C	0.905341	-0.631243	-0.357172
C82	C	1.155341	-0.381243	-0.107172
C83	C	1.405341	-0.131243	0.142828
C84	C	1.655341	0.118757	0.392828
C85	C	0.640262	-0.404016	-0.404358
C86	C	0.890262	-0.154016	-0.154358
C87	C	1.140262	0.095984	0.095642
C88	C	1.390262	0.345984	0.345642
C89	C	0.574827	-0.403998	-0.404391
C90	C	0.824827	-0.153998	-0.154391
C91	C	1.074827	0.096002	0.095609
C92	C	1.324827	0.346002	0.345609
C93	C	0.542106	-0.356564	-0.357126
C94	C	0.792106	-0.106564	-0.107126
C95	C	1.042106	0.143436	0.142874
C96	C	1.292106	0.393436	0.392874
C97	C	0.574827	-0.309131	-0.309837
C98	C	0.824827	-0.059131	-0.059837
C99	C	1.074827	0.190869	0.190163
C100	C	1.324827	0.440869	0.440163
C101	C	0.640261	-0.309145	-0.309811
C102	C	0.890261	-0.059145	-0.059811
C103	C	1.140261	0.190855	0.190189
C104	C	1.390261	0.440855	0.440189
C105	C	0.438387	-0.350599	-0.290456
C106	C	0.688387	-0.100599	-0.040456
C107	C	0.938387	0.149401	0.209544
C108	C	1.188387	0.399401	0.459544
C109	C	0.372954	-0.350590	-0.290481
C110	C	0.622954	-0.100590	-0.040481
C111	C	0.872954	0.149410	0.209519
C112	C	1.122954	0.399410	0.459519
C113	C	0.340286	-0.356516	-0.357208
C114	C	0.590286	-0.106516	-0.107208
C115	C	0.840286	0.143484	0.142792
C116	C	1.090286	0.393484	0.392792
C117	C	0.373058	-0.362466	-0.423911
C118	C	0.623058	-0.112466	-0.173911
C119	C	0.873058	0.137534	0.076089
C120	C	1.123058	0.387534	0.326089
C121	C	0.438492	-0.362480	-0.423884
C122	C	0.688492	-0.112480	-0.173884
C123	C	0.938492	0.137520	0.076116
C124	C	1.188492	0.387520	0.326116
C125	C	0.471154	-0.356543	-0.357149
C126	C	0.721154	-0.106543	-0.107149
C127	C	0.971154	0.143457	0.142851
C128	C	1.221154	0.393457	0.392851
C129	C	0.236620	-0.403922	-0.404533
C130	C	0.486620	-0.153922	-0.154533
C131	C	0.736620	0.096078	0.095467
C132	C	0.986620	0.346078	0.345467
C133	C	0.171184	-0.403899	-0.404567
C134	C	0.421184	-0.153899	-0.154567
C135	C	0.671184	0.096101	0.095433
C136	C	0.921184	0.346101	0.345433
C137	C	0.171185	-0.309036	-0.310006
C138	C	0.421185	-0.059036	-0.060006
C139	C	0.671185	0.190964	0.189994
C140	C	0.921185	0.440964	0.439994
C141	C	0.236621	-0.309055	-0.309978
C142	C	0.486621	-0.059055	-0.059978
C143	C	0.736621	0.190945	0.190022
C144	C	0.986621	0.440945	0.440022
C145	C	0.269334	-0.356502	-0.357241
C146	C	0.519334	-0.106502	-0.107241
C147	C	0.769334	0.143498	0.142759
C148	C	1.019334	0.393498	0.392759
C149	C	0.905479	-0.930334	-0.357212
C150	C	1.155479	-0.680334	-0.107212
C151	C	1.405479	-0.430334	0.142788
C152	C	1.655479	-0.180334	0.392788
C153	C	0.857180	-0.899046	-0.414561
C154	C	1.107180	-0.649046	-0.164561
C155	C	1.357180	-0.399046	0.085439
C156	C	1.607180	-0.149046	0.335439
C157	C	0.856951	-0.813428	-0.414382
C158	C	1.106951	-0.563428	-0.164382
C159	C	1.356951	-0.313428	0.085618
C160	C	1.606951	-0.063428	0.335618
C161	C	0.905410	-0.781952	-0.357193
C162	C	1.155410	-0.531952	-0.107193
C163	C	1.405410	-0.281952	0.142807
C164	C	1.655410	-0.031952	0.392807
C165	C	0.887534	-0.813095	-0.279136
C166	C	1.137534	-0.563095	-0.029136
C167	C	1.387534	-0.313095	0.220864
C168	C	1.637534	-0.063095	0.470864
C169	C	0.887223	-0.898740	-0.279479
C170	C	1.137223	-0.648740	-0.029479
C171	C	1.387223	-0.398740	0.220521
C172	C	1.637223	-0.148740	0.470521
C173	C	0.971759	-0.898660	-0.377232
C174	C	1.221759	-0.648660	-0.127232
C175	C	1.471759	-0.398660	0.122768
C176	C	1.721759	-0.148660	0.372768
C177	C	0.971369	-0.813009	-0.378943
C178	C	1.221369	-0.563009	-0.128943
C179	C	1.471369	-0.313009	0.121057
C180	C	1.721369	-0.063009	0.371057
C181	C	0.905373	-0.698092	-0.357177
C182	C	1.155373	-0.448092	-0.107177
C183	C	1.405373	-0.198092	0.142823
C184	C	1.655373	0.051908	0.392823
C185	C	0.905515	-1.014194	-0.357222
C186	C	1.155515	-0.764194	-0.107222
C187	C	1.405515	-0.514194	0.142778
C188	C	1.655515	-0.264194	0.392778
C189	C	1.068827	-0.356480	-0.357265
C190	C	1.318827	-0.106480	-0.107265
C191	C	1.568827	0.143520	0.142735
C192	C	1.818827	0.393520	0.392735
C193	C	1.138468	-0.356463	-0.357302
C194	C	1.388468	-0.106463	-0.107302
C195	C	1.638468	0.143537	0.142698
C196	C	1.888468	0.393537	0.392698
C197	C	0.905440	-0.356500	-0.550340
C198	C	1.155440	-0.106500	-0.300340
C199	C	1.405440	0.143500	-0.050340
C200	C	1.655440	0.393500	0.199660
C201	C	0.905455	-0.356492	-0.632654
C202	C	1.155455	-0.106492	-0.382654
C203	C	1.405455	0.143508	-0.132654
C204	C	1.655455	0.393508	0.117346
C205	C	0.905505	-0.163357	-0.357216
C206	C	1.155505	0.086643	-0.107216
C207	C	1.405505	0.336643	0.142784
C208	C	1.655505	0.586643	0.392784
C209	C	0.905548	-0.081043	-0.357232
C210	C	1.155548	0.168957	-0.107232
C211	C	1.405548	0.418957	0.142768
C212	C	1.655548	0.668957	0.392768
C213	C	0.905492	-0.356353	-0.931745
C214	C	1.155492	-0.106353	-0.681745
C215	C	1.405492	0.143647	-0.431745
C216	C	1.655492	0.393647	-0.181745
C217	C	0.856873	-0.413416	-0.900383
C218	C	1.106873	-0.163416	-0.650383
C219	C	1.356873	0.086584	-0.400383
C220	C	1.606873	0.336584	-0.150383
C221	C	0.857005	-0.413680	-0.814765
C222	C	1.107005	-0.163680	-0.564765
C223	C	1.357005	0.086320	-0.314765
C224	C	1.607005	0.336320	-0.064765
C225	C	0.905473	-0.356422	-0.783363
C226	C	1.155473	-0.106422	-0.533363
C227	C	1.405473	0.143578	-0.283363
C228	C	1.655473	0.393578	-0.033363
C229	C	0.971486	-0.377584	-0.814488
C230	C	1.221486	-0.127584	-0.564488
C231	C	1.471486	0.122416	-0.314488
C232	C	1.721486	0.372416	-0.064488
C233	C	0.971215	-0.377959	-0.900133
C234	C	1.221215	-0.127959	-0.650133
C235	C	1.471215	0.122041	-0.400133
C236	C	1.721215	0.372041	-0.150133
C237	C	0.888671	-0.278001	-0.900163
C238	C	1.138671	-0.028001	-0.650163
C239	C	1.388671	0.221999	-0.400163
C240	C	1.638671	0.471999	-0.150163
C241	C	0.887202	-0.278454	-0.814511
C242	C	1.137202	-0.028454	-0.564511
C243	C	1.387202	0.221546	-0.314511
C244	C	1.637202	0.471546	-0.064511
C245	C	0.905467	-0.356460	-0.699503
C246	C	1.155467	-0.106460	-0.449503
C247	C	1.405467	0.143540	-0.199503
C248	C	1.655467	0.393540	0.050497
C249	C	0.905503	-0.356317	-1.015605
C250	C	1.155503	-0.106317	-0.765605
C251	C	1.405503	0.143683	-0.515605
C252	C	1.655503	0.393683	-0.265605
C253	C	0.905404	-0.356484	-0.164768
C254	C	1.155404	-0.106484	0.085232
C255	C	1.405404	0.143516	0.335232
C256	C	1.655404	0.393516	0.585232
C257	C	0.905510	-0.356283	-0.082454
C258	C	1.155510	-0.106283	0.167546
C259	C	1.405510	0.143717	0.417546
C260	C	1.655510	0.393717	0.667546
H261	H	0.666893	-0.442651	-0.442844
H262	H	0.916893	-0.192651	-0.192844
H263	H	1.166893	0.057349	0.057156
H264	H	1.416893	0.307349	0.307156
Cl265	Cl	0.781065	-0.393182	-0.932136
Cl266	Cl	1.031065	-0.143182	-0.682136
Cl267	Cl	1.281065	0.106818	-0.432136
Cl268	Cl	1.531065	0.356818	-0.182136
Cl269	Cl	0.781099	-0.781912	-0.393907
Cl270	Cl	1.031099	-0.531912	-0.143907
Cl271	Cl	1.281099	-0.281912	0.106093
Cl272	Cl	1.531099	-0.031912	0.356093
H273	H	0.984850	-0.792652	-0.436389
H274	H	1.234850	-0.542652	-0.186389
H275	H	1.484850	-0.292652	0.063611
H276	H	1.734850	-0.042652	0.313611
Cl277	Cl	0.331997	-0.369911	-0.507802
Cl278	Cl	0.581997	-0.119911	-0.257802
Cl279	Cl	0.831997	0.130089	-0.007802
Cl280	Cl	1.081997	0.380089	0.242198
Cl281	Cl	1.029870	-0.779916	-0.319162
Cl282	Cl	1.279870	-0.529916	-0.069162
Cl283	Cl	1.529870	-0.279916	0.180838
Cl284	Cl	1.779870	-0.029916	0.430838
Cl285	Cl	0.815642	-0.248228	-0.933463
Cl286	Cl	1.065642	0.001772	-0.683463
Cl287	Cl	1.315642	0.251772	-0.433463
Cl288	Cl	1.565642	0.501772	-0.183463
H289	H	0.838772	-0.918796	-0.262523
H290	H	1.088772	-0.668796	-0.012523
H291	H	1.338772	-0.418796	0.237477
H292	H	1.588772	-0.168796	0.487477
H293	H	1.008683	-0.337328	-0.794152
H294	H	1.258683	-0.087328	-0.544152
H295	H	1.508683	0.162672	-0.294152
H296	H	1.758683	0.412672	-0.044152
Cl297	Cl	0.277748	-0.249435	-0.250528
Cl298	Cl	0.527748	0.000565	-0.000528
Cl299	Cl	0.777748	0.250565	0.249472
Cl300	Cl	1.027748	0.500565	0.499472
Cl301	Cl	1.029004	-0.316534	-0.932173
Cl302	Cl	1.279004	-0.066534	-0.682173
Cl303	Cl	1.529004	0.183466	-0.432173
Cl304	Cl	1.779004	0.433466	-0.182173
Cl305	Cl	0.781428	-0.393235	-0.782266
Cl306	Cl	1.031428	-0.143235	-0.532266
Cl307	Cl	1.281428	0.106765	-0.282266
Cl308	Cl	1.531428	0.356765	-0.032266
Cl309	Cl	0.993885	-0.465074	-0.781395
Cl310	Cl	1.243885	-0.215074	-0.531395
Cl311	Cl	1.493885	0.034926	-0.281395
Cl312	Cl	1.743885	0.284926	-0.031395
Cl313	Cl	0.874215	-0.780914	-0.503741
Cl314	Cl	1.124215	-0.530914	-0.253741
Cl315	Cl	1.374215	-0.280914	-0.003741
Cl316	Cl	1.624215	-0.030914	0.246259
Cl317	Cl	0.813521	-0.780104	-0.252487
Cl318	Cl	1.063521	-0.530104	-0.002487
Cl319	Cl	1.313521	-0.280104	0.247513
Cl320	Cl	1.563521	-0.030104	0.497513
H321	H	1.007743	-0.918890	-0.335463
H322	H	1.257743	-0.668890	-0.085463
H323	H	1.507743	-0.418890	0.164537
H324	H	1.757743	-0.168890	0.414537
H325	H	0.867868	-0.471139	-0.921913
H326	H	1.117868	-0.221139	-0.671913
H327	H	1.367868	0.028861	-0.421913
H328	H	1.617868	0.278861	-0.171913
H329	H	0.666895	-0.270525	-0.271305
H330	H	0.916895	-0.020525	-0.021305
H331	H	1.166895	0.229475	0.228695
H332	H	1.416895	0.479475	0.478695
Cl333	Cl	0.939171	-0.930700	-0.211251
Cl334	Cl	1.189171	-0.680700	0.038749
Cl335	Cl	1.439171	-0.430700	0.288749
Cl336	Cl	1.689171	-0.180700	0.538749
Cl337	Cl	0.996922	-0.931934	-0.463616
Cl338	Cl	1.246922	-0.681934	-0.213616
Cl339	Cl	1.496922	-0.431934	0.036384
Cl340	Cl	1.746922	-0.181934	0.286384
Cl341	Cl	0.874271	-0.930783	-0.504212
Cl342	Cl	1.124271	-0.680783	-0.254212
Cl343	Cl	1.374271	-0.430783	-0.004212
Cl344	Cl	1.624271	-0.180783	0.245788
H345	H	0.808350	-0.920646	-0.401464
H346	H	1.058350	-0.670646	-0.151464
H347	H	1.308350	-0.420646	0.098536
H348	H	1.558350	-0.170646	0.348536
H349	H	0.985475	-0.435235	-0.920122
H350	H	1.235475	-0.185235	-0.670122
H351	H	1.485475	0.064765	-0.420122
H352	H	1.735475	0.314765	-0.170122
H353	H	0.921606	-0.792705	-0.235240
H354	H	1.171606	-0.542705	0.014760
H355	H	1.421606	-0.292705	0.264760
H356	H	1.671606	-0.042705	0.514760
H357	H	0.924083	-0.235487	-0.920448
H358	H	1.174083	0.014513	-0.670448
H359	H	1.424083	0.264513	-0.420448
H360	H	1.674083	0.514513	-0.170448
H361	H	0.868110	-0.471758	-0.794287
H362	H	1.118110	-0.221758	-0.544287
H363	H	1.368110	0.028242	-0.294287
H364	H	1.618110	0.278242	-0.044287
H365	H	0.263257	-0.442553	-0.443020
H366	H	0.513257	-0.192553	-0.193020
H367	H	0.763257	0.057447	0.056980
H368	H	1.013257	0.307447	0.306980
Cl369	Cl	0.812195	-0.253816	-0.783108
Cl370	Cl	1.062195	-0.003816	-0.533108
Cl371	Cl	1.312195	0.246184	-0.283108
Cl372	Cl	1.562195	0.496184	-0.033108
H373	H	0.548187	-0.442616	-0.442900
H374	H	0.798187	-0.192616	-0.192900
H375	H	1.048187	0.057384	0.057100
H376	H	1.298187	0.307384	0.307100
Cl377	Cl	0.479690	-0.369955	-0.507736
Cl378	Cl	0.729690	-0.119955	-0.257736
Cl379	Cl	0.979690	0.130045	-0.007736
Cl380	Cl	1.229690	0.380045	0.242264
H381	H	0.144550	-0.442516	-0.443077
H382	H	0.394550	-0.192516	-0.193077
H383	H	0.644550	0.057484	0.056923
H384	H	0.894550	0.307484	0.306923
Cl385	Cl	0.130058	-0.249399	-0.250590
Cl386	Cl	0.380058	0.000601	-0.000590
Cl387	Cl	0.630058	0.250601	0.249410
Cl388	Cl	0.880058	0.500601	0.499410
H389	H	0.346276	-0.345750	-0.236167
H390	H	0.596276	-0.095750	0.013833
H391	H	0.846276	0.154250	0.263833
H392	H	1.096276	0.404250	0.513833
Cl393	Cl	0.937892	-0.209332	-0.781521
Cl394	Cl	1.187892	0.040668	-0.531521
Cl395	Cl	1.437892	0.290668	-0.281521
Cl396	Cl	1.687892	0.540668	-0.031521
Cl397	Cl	0.479449	-0.343152	-0.206563
Cl398	Cl	0.729449	-0.093152	0.043437
Cl399	Cl	0.979449	0.156848	0.293437
Cl400	Cl	1.229449	0.406848	0.543437
Cl401	Cl	0.533694	-0.249496	-0.250421
Cl402	Cl	0.783694	0.000504	-0.000421
Cl403	Cl	1.033694	0.250504	0.249579
Cl404	Cl	1.283694	0.500504	0.499579
