data_functionalizedCrystal
_audit_creation_method	'MofGen! by Chris Wilmer'
_symmetry_space_group_name_H-M	'P1'
_symmetry_Int_Tables_number	1
_symmetry_cell_setting	triclinic
loop_
_symmetry_equiv_pos_as_xyz
  x,y,z
_cell_length_a	12.759400
_cell_length_b	12.759401
_cell_length_c	19.076919
_cell_angle_alpha	92.283553
_cell_angle_beta	92.274856
_cell_angle_gamma	90.014668
loop_
_atom_site_label
_atom_site_type_symbol
_atom_site_fract_x
_atom_site_fract_y
_atom_site_fract_z
Zn1	Zn	-0.442153	1.582346	-0.397919
Zn2	Zn	0.057847	2.082346	0.102081
Zn3	Zn	-0.610789	1.589312	-0.280231
Zn4	Zn	-0.110789	2.089312	0.219769
Zn5	Zn	-0.435125	1.413719	-0.280243
Zn6	Zn	0.064875	1.913719	0.219757
Zn7	Zn	-0.617789	1.406638	-0.397892
Zn8	Zn	-0.117789	1.906638	0.102108
O9	O	-0.526464	1.498004	-0.339071
O10	O	-0.026464	1.998004	0.160929
O11	O	-0.464535	1.730291	-0.382314
O12	O	0.035465	2.230291	0.117686
O13	O	-0.581616	1.571897	-0.181743
O14	O	-0.081616	2.071897	0.318257
O15	O	-0.289038	1.436135	-0.295869
O16	O	0.210962	1.936135	0.204131
O17	O	-0.588431	1.735408	-0.295849
O18	O	-0.088431	2.235408	0.204151
O19	O	-0.294201	1.560025	-0.382325
O20	O	0.205799	2.060025	0.117675
O21	O	-0.452557	1.442890	-0.181752
O22	O	0.047443	1.942890	0.318248
O23	O	-0.459345	1.265759	-0.295843
O24	O	0.040655	1.765759	0.204157
O25	O	-0.600361	1.424068	-0.496385
O26	O	-0.100361	1.924068	0.003615
O27	O	-0.593547	1.260557	-0.382279
O28	O	-0.093547	1.760557	0.117721
O29	O	-0.471322	1.553160	-0.496405
O30	O	0.028678	2.053160	0.003595
O31	O	-0.758738	1.565032	-0.295823
O32	O	-0.258738	2.065032	0.204177
O33	O	-0.763881	1.430822	-0.382268
O34	O	-0.263881	1.930822	0.117732
C35	C	-0.526443	1.225037	-0.339060
C36	C	-0.026443	1.725037	0.160940
C37	C	-0.526461	1.108260	-0.339072
C38	C	-0.026461	1.608260	0.160928
C39	C	-0.799431	1.497942	-0.339057
C40	C	-0.299431	1.997942	0.160943
C41	C	-0.916208	1.498011	-0.339074
C42	C	-0.416208	1.998011	0.160926
C43	C	-0.462087	0.940999	-0.384170
C44	C	0.037913	1.440999	0.115830
C45	C	-0.462073	1.050723	-0.384163
C46	C	0.037927	1.550723	0.115837
C47	C	-0.590876	1.056066	-0.293989
C48	C	-0.090876	1.556066	0.206011
C49	C	-0.590896	0.946344	-0.293999
C50	C	-0.090896	1.446344	0.206001
C51	C	-0.397687	0.883468	-0.429259
C52	C	0.102313	1.383468	0.070741
C53	C	-0.333273	0.935654	-0.474343
C54	C	0.166727	1.435654	0.025657
C55	C	-0.333258	1.045378	-0.474337
C56	C	0.166742	1.545378	0.025663
C57	C	-0.397657	1.102917	-0.429246
C58	C	0.102343	1.602917	0.070754
C59	C	-0.968361	1.567965	-0.294112
C60	C	-0.468361	2.067965	0.205888
C61	C	-1.078086	1.568028	-0.294134
C62	C	-0.578086	2.068028	0.205866
C63	C	-1.083497	1.428174	-0.384082
C64	C	-0.583497	1.928174	0.115918
C65	C	-0.973774	1.428116	-0.384063
C66	C	-0.473774	1.928116	0.115937
C67	C	-0.910795	1.637860	-0.249123
C68	C	-0.410795	2.137860	0.250877
C69	C	-0.962947	1.707819	-0.204157
C70	C	-0.462947	2.207819	0.295843
C71	C	-1.072672	1.707882	-0.204178
C72	C	-0.572672	2.207882	0.295822
C73	C	-1.130246	1.637986	-0.249167
C74	C	-0.630246	2.137986	0.250833
C75	C	-0.252433	1.498093	-0.339102
C76	C	0.247567	1.998093	0.160898
C77	C	-0.135657	1.498131	-0.339114
C78	C	0.364343	1.998131	0.160886
C79	C	-0.537407	1.487047	-0.522646
C80	C	-0.037407	1.987047	-0.022646
C81	C	-0.542070	1.482378	-0.600875
C82	C	-0.042070	1.982378	-0.100875
C83	C	-0.526486	1.772036	-0.339083
C84	C	-0.026486	2.272036	0.160917
C85	C	-0.526495	1.888813	-0.339088
C86	C	-0.026495	2.388813	0.160912
C87	C	-0.477080	1.547392	-0.637639
C88	C	0.022920	2.047392	-0.137639
C89	C	-0.481457	1.542992	-0.711143
C90	C	0.018543	2.042992	-0.211143
C91	C	-0.550830	1.473583	-0.747882
C92	C	-0.050830	1.973583	-0.247882
C93	C	-0.615823	1.408561	-0.711114
C94	C	-0.115823	1.908561	-0.211114
C95	C	-0.611439	1.412957	-0.637611
C96	C	-0.111439	1.912957	-0.137611
C97	C	-0.571139	1.453225	-0.967711
C98	C	-0.071139	1.953225	-0.467711
C99	C	-0.575520	1.448837	-1.041219
C100	C	-0.075520	1.948837	-0.541219
C101	C	-0.441152	1.583267	-1.041243
C102	C	0.058848	2.083267	-0.541243
C103	C	-0.436779	1.587660	-0.967739
C104	C	0.063221	2.087660	-0.467739
C105	C	-0.501768	1.522635	-0.930977
C106	C	-0.001768	2.022635	-0.430977
N107	N	-0.555309	1.469086	-0.823015
N108	N	-0.055309	1.969086	-0.323015
N109	N	-0.497283	1.527128	-0.855845
N110	N	0.002717	2.027128	-0.355845
C111	C	-0.515489	1.508978	-0.156211
C112	C	-0.015489	2.008978	0.343789
C113	C	-0.510530	1.513851	-0.077982
C114	C	-0.010530	2.013851	0.422018
H115	H	-0.397687	0.794124	-0.429266
H116	H	0.102313	1.294124	0.070734
H117	H	-0.280848	0.888798	-0.511058
H118	H	0.219152	1.388798	-0.011058
H119	H	-0.420592	1.603916	-0.607731
H120	H	0.079408	2.103916	-0.107731
N121	N	-0.660317	1.118117	-0.245348
N122	N	-0.160317	1.618117	0.254652
H123	H	-0.736061	1.098378	-0.256192
H124	H	-0.236061	1.598378	0.243808
H125	H	-0.650441	1.195525	-0.252202
H126	H	-0.150441	1.695525	0.247798
H127	H	-1.115132	1.764853	-0.167570
H128	H	-0.615132	2.264853	0.332430
N129	N	-0.792451	1.637792	-0.249105
N130	N	-0.292451	2.137792	0.250895
H131	H	-0.765319	1.566492	-0.236126
H132	H	-0.265319	2.066492	0.263874
H133	H	-0.763976	1.692729	-0.213791
H134	H	-0.263976	2.192729	0.286209
N135	N	-0.397638	1.221262	-0.429244
N136	N	0.102362	1.721262	0.070756
H137	H	-0.375333	1.250564	-0.380984
H138	H	0.124667	1.750564	0.119016
H139	H	-0.470519	1.246835	-0.442127
H140	H	0.029481	1.746835	0.057873
N141	N	-0.900859	1.783214	-0.155643
N142	N	-0.400859	2.283214	0.344357
H143	H	-0.823435	1.772561	-0.162451
H144	H	-0.323435	2.272561	0.337549
H145	H	-0.917089	1.769935	-0.105372
H146	H	-0.417089	2.269935	0.394628
H147	H	-0.672304	1.352043	-0.741033
H148	H	-0.172304	1.852043	-0.241033
N149	N	-1.248592	1.638060	-0.249183
N150	N	-0.748592	2.138060	0.250817
H151	H	-1.274315	1.566793	-0.236208
H152	H	-0.774315	2.066793	0.263792
H153	H	-1.277776	1.654491	-0.297489
H154	H	-0.777776	2.154491	0.202511
H155	H	-1.130382	1.371267	-0.420708
H156	H	-0.630382	1.871267	0.079292
H157	H	-0.931312	1.371154	-0.420676
H158	H	-0.431312	1.871154	0.079324
N159	N	-0.681525	1.342825	-0.597955
N160	N	-0.181525	1.842825	-0.097955
H161	H	-0.726137	1.298186	-0.632381
H162	H	-0.226137	1.798186	-0.132381
H163	H	-0.728332	1.387390	-0.567452
H164	H	-0.228332	1.887390	-0.067452
H165	H	-0.643344	0.903853	-0.257291
H166	H	-0.143344	1.403853	0.242709
N167	N	-0.411341	1.613093	-0.750796
N168	N	0.088659	2.113093	-0.250796
H169	H	-0.366727	1.657729	-0.716368
H170	H	0.133273	2.157729	-0.216368
H171	H	-0.455911	1.659879	-0.781301
H172	H	0.044089	2.159879	-0.281301
N173	N	-0.263791	1.101660	-0.522965
N174	N	0.236209	1.601660	-0.022965
H175	H	-0.213331	1.148888	-0.494416
H176	H	0.286669	1.648888	0.005584
H177	H	-0.308570	1.145181	-0.555522
H178	H	0.191430	1.645181	-0.055522
H179	H	-0.632014	1.392312	-1.071130
H180	H	-0.132014	1.892312	-0.571130
H181	H	-0.380291	1.644184	-0.937831
H182	H	0.119709	2.144184	-0.437831
H183	H	-0.388241	1.636205	-1.071183
H184	H	0.111759	2.136205	-0.571183
N185	N	-0.641196	1.383060	-0.928066
N186	N	-0.141196	1.883060	-0.428066
H187	H	-0.685798	1.338416	-0.962495
H188	H	-0.185798	1.838416	-0.462495
H189	H	-0.688014	1.427594	-0.897551
H190	H	-0.188014	1.927594	-0.397551
