data_functionalizedCrystal
_audit_creation_method	'MofGen! by Chris Wilmer'
_symmetry_space_group_name_H-M	'P1'
_symmetry_Int_Tables_number	1
_symmetry_cell_setting	triclinic
loop_
_symmetry_equiv_pos_as_xyz
  x,y,z
_cell_length_a	22.010155
_cell_length_b	8.559649
_cell_length_c	8.559649
_cell_angle_alpha	69.778664
_cell_angle_beta	89.994743
_cell_angle_gamma	90.007067
loop_
_atom_site_label
_atom_site_type_symbol
_atom_site_fract_x
_atom_site_fract_y
_atom_site_fract_z
O1	O	-0.050516	-2.126896	0.055059
O2	O	-0.050518	-1.651411	-0.028722
O3	O	-0.050516	-1.931044	0.250911
O4	O	-0.050518	-1.847263	-0.224574
O5	O	0.050534	-1.930994	0.250868
O6	O	0.050532	-1.651361	-0.028765
O7	O	0.050535	-2.126846	0.055016
Cu8	Cu	0.059760	-1.889099	0.013122
Cu9	Cu	-0.059743	-1.889158	0.013172
O10	O	0.050533	-1.847213	-0.224617
C11	C	0.000007	-1.591077	-0.035093
C12	C	0.000006	-1.411378	-0.053992
N13	N	0.143813	-1.889070	0.013088
N14	N	-0.143796	-1.889202	0.013220
C15	C	0.563593	-2.012984	0.136979
C16	C	0.627201	-2.012993	0.136991
O17	O	0.660093	-2.118282	0.242298
N18	N	0.659020	-1.889161	0.013206
C19	C	0.627228	-1.765303	-0.110589
O20	O	0.660134	-1.659974	-0.215876
C21	C	0.563622	-1.765289	-0.110593
C22	C	0.531806	-1.889138	0.013190
C23	C	0.531777	-2.136823	0.260753
C24	C	0.468174	-2.136815	0.260739
C25	C	0.436387	-2.012969	0.136950
C26	C	0.468203	-1.889131	0.013176
C27	C	0.531831	-1.641425	-0.234380
C28	C	0.468220	-1.641421	-0.234372
C29	C	0.436405	-1.765270	-0.110589
C30	C	0.372812	-1.765277	-0.110627
N31	N	0.340993	-1.889109	0.013158
C32	C	0.372780	-2.012955	0.136947
C33	C	0.760806	-1.765341	-0.110570
C34	C	0.824411	-1.765360	-0.110575
C35	C	0.824379	-2.013049	0.137008
C36	C	0.760773	-2.013035	0.137004
C37	C	0.728987	-1.889172	0.013215
C38	C	0.239209	-2.012930	0.136906
C39	C	0.175600	-2.012916	0.136877
C40	C	0.175637	-1.765223	-0.110699
C41	C	0.239241	-1.765242	-0.110676
C42	C	0.271025	-1.889103	0.013141
O43	O	0.339880	-1.660038	-0.215877
O44	O	0.339867	-2.118253	0.242228
C45	C	0.000008	-1.937369	0.311198
C46	C	0.000005	-1.956268	0.490898
C47	C	0.000009	-2.187180	0.061387
C48	C	0.000006	-2.366879	0.080286
C49	C	0.000007	-1.840889	-0.284904
C50	C	0.000007	-1.821990	-0.464604
H51	H	0.265080	-2.113788	0.237731
C52	C	0.274240	-1.629014	-0.246847
C53	C	0.265498	-1.444639	-0.266681
C54	C	0.300490	-1.308397	-0.402845
C55	C	0.344225	-1.356531	-0.519174
C56	C	0.352969	-1.540916	-0.499343
C57	C	0.317977	-1.677157	-0.363179
H58	H	0.233121	-1.408999	-0.180565
H59	H	0.294017	-1.171903	-0.417525
H60	H	0.370129	-1.255677	-0.619970
H61	H	0.385346	-1.576555	-0.585459
H62	H	0.324450	-1.813651	-0.348499
H63	H	0.000010	-2.085696	0.590286
H64	H	0.149697	-2.113775	0.237677
H65	H	0.442273	-2.237660	0.361538
H66	H	0.557653	-2.237674	0.361564
C67	C	0.725779	-2.149261	0.273176
C68	C	0.734523	-2.169220	0.457582
C69	C	0.699533	-2.305450	0.593762
C70	C	0.655798	-2.421723	0.545537
C71	C	0.647051	-2.401768	0.361122
C72	C	0.682042	-2.265537	0.224941
H73	H	0.766900	-2.083145	0.493289
H74	H	0.706008	-2.320221	0.730278
H75	H	0.629896	-2.522568	0.646346
H76	H	0.614674	-2.487843	0.325415
H77	H	0.675567	-2.250767	0.088425
H78	H	0.000002	-1.311990	-0.183420
H79	H	0.850272	-2.113889	0.237805
H80	H	0.000003	-1.466258	0.209705
H81	H	0.850311	-1.664526	-0.211385
H82	H	0.734929	-1.664479	-0.211387
H83	H	0.557727	-1.540575	-0.335174
H84	H	0.000008	-1.692570	0.436018
H85	H	0.442343	-1.540552	-0.335176
H86	H	0.149746	-1.664393	-0.211491
