data_functionalizedCrystal
_audit_creation_method	'MofGen! by Chris Wilmer'
_symmetry_space_group_name_H-M	'P1'
_symmetry_Int_Tables_number	1
_symmetry_cell_setting	triclinic
loop_
_symmetry_equiv_pos_as_xyz
  x,y,z
_cell_length_a	15.500227
_cell_length_b	9.065218
_cell_length_c	17.019370
_cell_angle_alpha	84.203467
_cell_angle_beta	96.696782
_cell_angle_gamma	87.113422
loop_
_atom_site_label
_atom_site_type_symbol
_atom_site_fract_x
_atom_site_fract_y
_atom_site_fract_z
O1	O	0.063571	-1.963337	-0.112469
O2	O	0.062863	-1.533727	-0.121992
O3	O	0.071788	-1.761334	-0.002055
O4	O	0.054645	-1.735730	-0.232407
O5	O	-0.072640	-1.747523	-0.009304
O6	O	-0.081565	-1.519916	-0.129241
O7	O	-0.080857	-1.949525	-0.119719
Cu8	Cu	-0.094399	-1.733459	-0.125142
Cu9	Cu	0.076404	-1.749793	-0.116569
O10	O	-0.089783	-1.721918	-0.239656
C11	C	-0.009283	-1.471866	-0.124701
C12	C	-0.009079	-1.308117	-0.121965
N13	N	-0.214532	-1.721982	-0.131171
C14	C	0.001772	-1.753730	0.023826
C15	C	0.008320	-1.751630	0.111743
C16	C	-0.256028	-1.818460	-0.080369
C17	C	-0.346941	-1.809793	-0.084936
C18	C	-0.396357	-1.704654	-0.140310
C19	C	-0.354854	-1.608166	-0.191115
C20	C	-0.263943	-1.616827	-0.186543
C21	C	-0.671048	-1.673455	-0.156766
C22	C	-0.761966	-1.664804	-0.161336
C23	C	-0.754046	-1.866431	-0.055156
C24	C	-0.663134	-1.875088	-0.050592
C25	C	-0.621639	-1.778595	-0.101394
C26	C	-0.489284	-1.695796	-0.144982
C27	C	-0.528713	-1.787447	-0.096718
N28	N	0.196538	-1.761282	-0.110533
C29	C	-0.008710	-2.011387	-0.117009
C30	C	-0.008908	-2.175137	-0.119745
C31	C	-0.019765	-1.729523	-0.265537
C32	C	-0.026307	-1.731624	-0.353454
C33	C	-0.067327	-1.743111	0.149103
C34	C	-0.061166	-1.741148	0.231712
C35	C	0.020642	-1.747693	0.276959
C36	C	0.096295	-1.756217	0.239594
C37	C	0.090134	-1.758190	0.156987
C38	C	0.043184	-1.742121	0.526575
C39	C	0.049340	-1.740142	0.609187
C40	C	-0.108123	-1.725077	0.601299
C41	C	-0.114277	-1.727042	0.518691
C42	C	-0.038624	-1.735573	0.481334
C43	C	0.026941	-1.745682	0.361398
C44	C	-0.044924	-1.737595	0.396897
H45	H	-0.215800	-1.904081	-0.035281
Br46	Br	-0.178359	-1.734216	0.087703
Br47	Br	0.137965	-1.754581	0.422812
H48	H	0.151734	-1.765128	0.126571
Br49	Br	-0.614739	-1.542506	-0.225711
Br50	Br	-0.421914	-1.465463	-0.266261
Br51	Br	-0.829025	-1.522109	-0.236496
H52	H	0.115962	-1.745457	0.646024
H53	H	-0.380726	-1.888352	-0.043568
H54	H	-0.122767	-1.734218	0.262126
Br55	Br	0.207324	-1.765126	0.301002
H56	H	-0.111532	-1.732274	0.360053
H57	H	-0.622901	-1.960700	-0.005502
Br58	Br	-0.225307	-1.718110	0.457286
Br59	Br	-0.210789	-1.713499	0.652002
H60	H	-0.529526	-1.610192	-0.190070
H61	H	-0.787839	-1.944990	-0.013794
H62	H	0.104787	-1.749065	0.496169
H63	H	-0.488476	-1.873046	-0.051629
Br64	Br	-0.207627	-1.485876	-0.255487
