data_functionalizedCrystal
_audit_creation_method	'MofGen! by Chris Wilmer'
_symmetry_space_group_name_H-M	'P1'
_symmetry_Int_Tables_number	1
_symmetry_cell_setting	triclinic
loop_
_symmetry_equiv_pos_as_xyz
  x,y,z
_cell_length_a	21.295418
_cell_length_b	21.295417
_cell_length_c	21.295412
_cell_angle_alpha	89.969332
_cell_angle_beta	89.957310
_cell_angle_gamma	90.046319
loop_
_atom_site_label
_atom_site_type_symbol
_atom_site_fract_x
_atom_site_fract_y
_atom_site_fract_z
Zn1	Zn	0.962349	-0.250359	-0.356234
Zn2	Zn	1.295683	0.082974	-0.022900
Zn3	Zn	1.629016	0.416308	0.310433
Zn4	Zn	0.962254	-0.355628	-0.250959
Zn5	Zn	1.295587	-0.022294	0.082374
Zn6	Zn	1.628920	0.311039	0.415708
Zn7	Zn	0.857074	-0.250405	-0.250943
Zn8	Zn	1.190408	0.082928	0.082390
Zn9	Zn	1.523741	0.416261	0.415723
Zn10	Zn	0.857042	-0.355623	-0.356155
Zn11	Zn	1.190375	-0.022290	-0.022822
Zn12	Zn	1.523709	0.311043	0.310511
O13	O	0.909680	-0.303004	-0.303573
O14	O	1.243013	0.030329	0.029760
O15	O	1.576346	0.363663	0.363094
O16	O	1.050426	-0.264306	-0.342308
O17	O	1.383759	0.069028	-0.008975
O18	O	1.717093	0.402361	0.324359
O19	O	0.948275	-0.341691	-0.162868
O20	O	1.281608	-0.008357	0.170466
O21	O	1.614942	0.324976	0.503799
O22	O	0.871093	-0.162310	-0.264937
O23	O	1.204426	0.171024	0.068397
O24	O	1.537760	0.504357	0.401730
O25	O	1.050356	-0.341646	-0.264963
O26	O	1.383689	-0.008313	0.068370
O27	O	1.717022	0.325021	0.401704
O28	O	0.948438	-0.162276	-0.342293
O29	O	1.281771	0.171058	-0.008960
O30	O	1.615105	0.504391	0.324374
O31	O	0.871000	-0.264384	-0.162856
O32	O	1.204334	0.068949	0.170477
O33	O	1.537667	0.402282	0.503811
O34	O	0.768981	-0.264380	-0.264861
O35	O	1.102314	0.068953	0.068473
O36	O	1.435647	0.402286	0.401806
O37	O	0.871038	-0.341639	-0.444255
O38	O	1.204371	-0.008306	-0.110922
O39	O	1.537704	0.325028	0.222411
O40	O	0.768957	-0.341684	-0.342160
O41	O	1.102290	-0.008350	-0.008826
O42	O	1.435623	0.324983	0.324507
O43	O	0.948406	-0.264302	-0.444313
O44	O	1.281740	0.069032	-0.110979
O45	O	1.615073	0.402365	0.222354
O46	O	0.948243	-0.443716	-0.264887
O47	O	1.281577	-0.110383	0.068446
O48	O	1.614910	0.222950	0.401779
O49	O	0.870945	-0.443713	-0.342175
O50	O	1.204278	-0.110380	-0.008841
O51	O	1.537611	0.222953	0.324492
C52	C	0.746128	-0.303037	-0.303500
C53	C	1.079461	0.030296	0.029833
C54	C	1.412795	0.363630	0.363166
C55	C	0.676160	-0.303066	-0.303484
C56	C	1.009493	0.030267	0.029849
C57	C	1.342827	0.363600	0.363182
C58	C	0.643297	-0.343371	-0.343674
C59	C	0.976631	-0.010038	-0.010340
C60	C	1.309964	0.323295	0.322993
C61	C	0.577555	-0.343356	-0.343702
C62	C	0.910888	-0.010023	-0.010369
C63	C	1.244222	0.323311	0.322965
C64	C	0.544678	-0.303042	-0.303530
C65	C	0.878011	0.030291	0.029804
C66	C	1.211344	0.363625	0.363137
C67	C	0.577548	-0.262729	-0.263337
C68	C	0.910881	0.070604	0.069996
C69	C	1.244215	0.403938	0.403329
C70	C	0.643289	-0.262741	-0.263315
C71	C	0.976623	0.070592	0.070018
C72	C	1.309956	0.403926	0.403352
N73	N	0.441403	-0.298123	-0.248472
N74	N	0.774736	0.035210	0.084861
N75	N	1.108069	0.368543	0.418195
N76	N	0.378951	-0.298116	-0.248495
N77	N	0.712284	0.035218	0.084838
N78	N	1.045618	0.368551	0.418171
C79	C	0.346603	-0.303002	-0.303596
C80	C	0.679936	0.030332	0.029737
C81	C	1.013270	0.363665	0.363070
N82	N	0.379065	-0.307908	-0.358675
N83	N	0.712399	0.025425	-0.025341
N84	N	1.045732	0.358758	0.307992
N85	N	0.441522	-0.307920	-0.358650
N86	N	0.774856	0.025414	-0.025317
N87	N	1.108189	0.358747	0.308016
C88	C	0.473392	-0.303024	-0.303550
C89	C	0.806726	0.030309	0.029783
C90	C	1.140059	0.363643	0.363117
C91	C	0.242455	-0.343292	-0.343820
C92	C	0.575788	-0.009959	-0.010486
C93	C	0.909121	0.323374	0.322847
C94	C	0.176711	-0.343272	-0.343849
C95	C	0.510044	-0.009939	-0.010516
C96	C	0.843378	0.323394	0.322818
C97	C	0.176706	-0.262649	-0.263479
C98	C	0.510039	0.070685	0.069854
C99	C	0.843372	0.404018	0.403188
C100	C	0.242448	-0.262665	-0.263455
C101	C	0.575781	0.070668	0.069878
C102	C	0.909115	0.404002	0.403211
C103	C	0.275319	-0.302990	-0.303625
C104	C	0.608652	0.030343	0.029709
C105	C	0.941985	0.363676	0.363042
C106	C	0.909597	-0.466556	-0.303538
C107	C	1.242931	-0.133222	0.029795
C108	C	1.576264	0.200111	0.363129
C109	C	0.909620	-0.536524	-0.303544
C110	C	1.242953	-0.203190	0.029789
C111	C	1.576286	0.130143	0.363123
C112	C	0.949905	-0.569371	-0.263342
C113	C	1.283238	-0.236038	0.069991
C114	C	1.616571	0.097296	0.403325
C115	C	0.949934	-0.635113	-0.263356
C116	C	1.283268	-0.301780	0.069977
C117	C	1.616601	0.031553	0.403311
C118	C	0.909667	-0.668006	-0.303566
C119	C	1.243001	-0.334673	0.029767
C120	C	1.576334	-0.001339	0.363101
C121	C	0.869379	-0.635151	-0.343776
C122	C	1.202713	-0.301818	-0.010443
C123	C	1.536046	0.031516	0.322891
C124	C	0.869355	-0.569410	-0.343765
C125	C	1.202689	-0.236076	-0.010432
C126	C	1.536022	0.097257	0.322902
N127	N	0.854600	-0.771287	-0.308340
N128	N	1.187934	-0.437954	0.024993
N129	N	1.521267	-0.104620	0.358326
N130	N	0.854625	-0.833739	-0.308347
N131	N	1.187958	-0.500405	0.024986
N132	N	1.521291	-0.167072	0.358320
C133	C	0.909738	-0.866081	-0.303602
C134	C	1.243071	-0.532747	0.029731
C135	C	1.576405	-0.199414	0.363065
N136	N	0.964827	-0.833612	-0.298838
N137	N	1.298160	-0.500279	0.034496
N138	N	1.631494	-0.166946	0.367829
N139	N	0.964802	-0.771155	-0.298828
N140	N	1.298135	-0.437822	0.034506
N141	N	1.631468	-0.104488	0.367839
C142	C	0.909689	-0.739291	-0.303582
C143	C	1.243022	-0.405958	0.029751
C144	C	1.576356	-0.072625	0.363084
C145	C	0.950058	-0.970214	-0.263413
C146	C	1.283392	-0.636880	0.069920
C147	C	1.616725	-0.303547	0.403254
C148	C	0.950089	-1.035957	-0.263431
C149	C	1.283422	-0.702624	0.069902
C150	C	1.616756	-0.369291	0.403235
C151	C	0.869528	-1.035993	-0.343848
C152	C	1.202862	-0.702660	-0.010515
C153	C	1.536195	-0.369327	0.322819
C154	C	0.869504	-0.970251	-0.343833
C155	C	1.202837	-0.636918	-0.010500
C156	C	1.536170	-0.303584	0.322834
C157	C	0.909768	-0.937365	-0.303612
C158	C	1.243101	-0.604032	0.029721
C159	C	1.576434	-0.270698	0.363055
C160	C	1.073870	-0.302971	-0.303646
C161	C	1.407203	0.030362	0.029687
C162	C	1.740537	0.363696	0.363021
C163	C	1.143838	-0.302957	-0.303677
C164	C	1.477172	0.030376	0.029656
C165	C	1.810505	0.363710	0.362990
C166	C	0.909729	-0.302965	-0.467763
C167	C	1.243062	0.030369	-0.134430
C168	C	1.576396	0.363702	0.198903
C169	C	0.909750	-0.302948	-0.537731
C170	C	1.243083	0.030385	-0.204398
C171	C	1.576417	0.363719	0.128935
C172	C	0.909780	-0.138814	-0.303622
C173	C	1.243113	0.194520	0.029712
C174	C	1.576446	0.527853	0.363045
C175	C	0.909822	-0.068845	-0.303642
C176	C	1.243156	0.264488	0.029691
C177	C	1.576489	0.597821	0.363024
C178	C	0.869524	-0.262690	-0.570582
C179	C	1.202857	0.070643	-0.237249
C180	C	1.536190	0.403977	0.096085
C181	C	0.869522	-0.262678	-0.636325
C182	C	1.202855	0.070655	-0.302991
C183	C	1.536188	0.403988	0.030342
C184	C	0.909757	-0.302918	-0.669214
C185	C	1.243090	0.030415	-0.335881
C186	C	1.576423	0.363749	-0.002547
C187	C	0.949986	-0.343184	-0.636355
C188	C	1.283319	-0.009850	-0.303022
C189	C	1.616653	0.323483	0.030311
C190	C	0.949983	-0.343199	-0.570614
C191	C	1.283316	-0.009865	-0.237281
C192	C	1.616649	0.323468	0.096053
N193	N	0.964861	-0.307710	-0.772471
N194	N	1.298195	0.025623	-0.439137
N195	N	1.631528	0.358956	-0.105804
N196	N	0.964863	-0.307692	-0.834922
N197	N	1.298196	0.025641	-0.501589
N198	N	1.631529	0.358974	-0.168255
C199	C	0.909768	-0.302876	-0.867289
C200	C	1.243102	0.030457	-0.533955
C201	C	1.576435	0.363791	-0.200622
N202	N	0.854671	-0.298066	-0.834845
N203	N	1.188005	0.035267	-0.501511
N204	N	1.521338	0.368601	-0.168178
N205	N	0.854671	-0.298081	-0.772387
N206	N	1.188004	0.035253	-0.439054
N207	N	1.521337	0.368586	-0.105721
C208	C	0.909765	-0.302906	-0.740499
C209	C	1.243098	0.030427	-0.407166
C210	C	1.576431	0.363760	-0.073833
C211	C	0.869536	-0.262603	-0.971425
C212	C	1.202870	0.070730	-0.638092
C213	C	1.536203	0.404063	-0.304758
C214	C	0.869533	-0.262596	-1.037169
C215	C	1.202866	0.070737	-0.703836
C216	C	1.536200	0.404071	-0.370502
C217	C	0.950003	-0.343098	-1.037198
C218	C	1.283336	-0.009765	-0.703865
C219	C	1.616670	0.323569	-0.370531
C220	C	0.950001	-0.343109	-0.971456
C221	C	1.283334	-0.009775	-0.638122
C222	C	1.616667	0.323558	-0.304789
C223	C	0.909768	-0.302858	-0.938573
C224	C	1.243102	0.030475	-0.605240
C225	C	1.576435	0.363809	-0.271906
C226	C	0.909667	-0.302997	-0.140021
C227	C	1.243000	0.030336	0.193312
C228	C	1.576334	0.363669	0.526645
C229	C	0.909768	-0.302837	-0.070054
C230	C	1.243101	0.030497	0.263280
C231	C	1.576435	0.363830	0.596613
H232	H	0.149955	-0.376092	-0.376580
H233	H	0.483289	-0.042759	-0.043247
H234	H	0.816622	0.290574	0.290087
O235	O	0.542093	-0.219259	-0.219993
O236	O	0.875427	0.114074	0.113340
O237	O	1.208760	0.447407	0.446673
H238	H	0.490858	-0.226031	-0.226751
H239	H	0.824191	0.107302	0.106582
H240	H	1.157524	0.440635	0.439916
H241	H	0.982759	-0.375890	-0.944708
H242	H	1.316092	-0.042556	-0.611375
H243	H	1.649426	0.290777	-0.278042
O244	O	0.826146	-0.219247	-0.671775
O245	O	1.159480	0.114086	-0.338441
O246	O	1.492813	0.447419	-0.005108
H247	H	0.776728	-0.230038	-0.659127
H248	H	1.110061	0.103295	-0.325794
H249	H	1.443394	0.436629	0.007539
O250	O	0.678747	-0.386862	-0.387003
O251	O	1.012081	-0.053528	-0.053669
O252	O	1.345414	0.279805	0.279664
H253	H	0.729983	-0.380104	-0.380233
H254	H	1.063317	-0.046771	-0.046900
H255	H	1.396650	0.286563	0.286433
H256	H	0.836550	-0.542665	-0.376503
H257	H	1.169883	-0.209331	-0.043170
H258	H	1.503217	0.124002	0.290163
O259	O	0.826147	-0.219171	-1.072606
O260	O	1.159480	0.114163	-0.739273
O261	O	1.492813	0.447496	-0.405940
H262	H	0.798177	-0.191181	-1.038693
H263	H	1.131511	0.142152	-0.705360
H264	H	1.464844	0.475485	-0.372027
O265	O	0.993383	-0.386614	-0.535181
O266	O	1.326716	-0.053280	-0.201848
O267	O	1.660050	0.280053	0.131486
H268	H	0.982564	-0.436020	-0.547776
H269	H	1.315898	-0.102686	-0.214443
H270	H	1.649231	0.230647	0.118891
H271	H	0.982846	-0.943437	-0.230664
H272	H	1.316179	-0.610103	0.102669
H273	H	1.649513	-0.276770	0.436002
H274	H	0.836595	-0.661936	-0.376516
H275	H	1.169928	-0.328603	-0.043183
H276	H	1.503262	0.004730	0.290150
H277	H	0.836697	-0.943505	-0.376567
H278	H	1.170030	-0.610172	-0.043233
H279	H	1.503364	-0.276838	0.290100
H280	H	0.269205	-0.229847	-0.230726
H281	H	0.602538	0.103486	0.102608
H282	H	0.935872	0.436819	0.435941
H283	H	0.836776	-0.229829	-0.944651
H284	H	1.170110	0.103504	-0.611317
H285	H	1.503443	0.436838	-0.277984
H286	H	0.982741	-0.661863	-0.230619
H287	H	1.316075	-0.328530	0.102715
H288	H	1.649408	0.004804	0.436048
O289	O	0.678741	-0.219280	-0.219954
O290	O	1.012074	0.114054	0.113379
O291	O	1.345407	0.447387	0.446712
H292	H	0.644837	-0.191247	-0.192019
H293	H	0.978170	0.142086	0.141315
H294	H	1.311504	0.475419	0.474648
H295	H	0.982765	-0.375861	-1.063976
H296	H	1.316098	-0.042527	-0.730643
H297	H	1.649431	0.290806	-0.397309
O298	O	0.542103	-0.386832	-0.387051
O299	O	0.875436	-0.053499	-0.053718
O300	O	1.208769	0.279834	0.279615
H301	H	0.490866	-0.380046	-0.380320
H302	H	0.824200	-0.046712	-0.046987
H303	H	1.157533	0.286621	0.286347
O304	O	0.826099	-1.071465	-0.387219
O305	O	1.159432	-0.738132	-0.053885
O306	O	1.492766	-0.404798	0.279448
H307	H	0.798082	-1.037576	-0.415175
H308	H	1.131416	-0.704242	-0.081841
H309	H	1.464749	-0.370909	0.251492
H310	H	0.149937	-0.229821	-0.230773
H311	H	0.483271	0.103512	0.102560
H312	H	0.816604	0.436846	0.435894
O313	O	0.993339	-0.533899	-0.219972
O314	O	1.326672	-0.200566	0.113362
O315	O	1.660006	0.132767	0.446695
H316	H	1.021362	-0.567789	-0.192024
H317	H	1.354695	-0.234456	0.141310
H318	H	1.688029	0.098877	0.474643
H319	H	0.982898	-1.062700	-0.230695
H320	H	1.316231	-0.729367	0.102638
H321	H	1.649565	-0.396034	0.435971
H322	H	0.836761	-0.229917	-0.543813
H323	H	1.170094	0.103416	-0.210480
H324	H	1.503428	0.436750	0.122853
O325	O	0.277916	-0.386774	-0.387150
O326	O	0.611249	-0.053441	-0.053817
O327	O	0.944583	0.279892	0.279516
H328	H	0.244016	-0.414791	-0.415111
H329	H	0.577350	-0.081458	-0.081778
H330	H	0.910683	0.251875	0.251556
H331	H	0.982746	-0.375947	-0.663138
H332	H	1.316079	-0.042614	-0.329805
H333	H	1.649412	0.290719	0.003529
