data_functionalizedCrystal
_audit_creation_method	'MofGen! by Chris Wilmer'
_symmetry_space_group_name_H-M	'P1'
_symmetry_Int_Tables_number	1
_symmetry_cell_setting	triclinic
loop_
_symmetry_equiv_pos_as_xyz
  x,y,z
_cell_length_a	18.101398
_cell_length_b	18.050589
_cell_length_c	18.101389
_cell_angle_alpha	90.013815
_cell_angle_beta	89.990255
_cell_angle_gamma	89.969746
loop_
_atom_site_label
_atom_site_type_symbol
_atom_site_fract_x
_atom_site_fract_y
_atom_site_fract_z
Zn1	Zn	1.132102	0.295825	-0.418574
Zn2	Zn	1.131991	0.420000	-0.294743
Zn3	Zn	1.008261	0.295818	-0.294767
Zn4	Zn	1.008204	0.419968	-0.418563
O5	O	1.070140	0.357903	-0.356662
O6	O	1.235720	0.312313	-0.402142
O7	O	1.115555	0.403537	-0.191113
O8	O	1.024760	0.191895	-0.311205
O9	O	1.235638	0.403544	-0.311164
O10	O	1.115745	0.191900	-0.402166
O11	O	1.024651	0.312301	-0.191131
O12	O	0.904621	0.312271	-0.311194
O13	O	1.024663	0.403491	-0.522197
O14	O	0.904579	0.403484	-0.402146
O15	O	1.115690	0.312283	-0.522206
O16	O	1.115499	0.523920	-0.311153
O17	O	1.024554	0.523897	-0.402123
C18	C	0.877729	0.357874	-0.356672
C19	C	0.795415	0.357879	-0.356694
C20	C	0.496324	0.357923	-0.356663
C21	C	0.527648	0.415589	-0.413605
C22	C	0.613266	0.415408	-0.413839
C23	C	0.644707	0.357902	-0.356678
C24	C	0.613657	0.279684	-0.378000
C25	C	0.528012	0.280030	-0.378405
C26	C	0.527870	0.377786	-0.278262
C27	C	0.613520	0.379502	-0.278681
C28	C	0.728566	0.357885	-0.356686
C29	C	0.412465	0.357934	-0.356657
C30	C	1.070028	0.550855	-0.356650
C31	C	1.070049	0.633401	-0.356670
C32	C	1.020619	0.832866	-0.406123
C33	C	1.002561	0.882294	-0.338549
C34	C	1.070104	0.784531	-0.356680
C35	C	1.088182	0.882185	-0.424262
C36	C	1.070157	0.930516	-0.356696
C37	C	1.052012	0.832872	-0.289070
C38	C	1.137663	0.832759	-0.374829
C39	C	1.119631	0.882164	-0.307209
C40	C	1.070072	0.700433	-0.356672
C41	C	1.070189	1.014613	-0.356696
C42	C	1.263301	0.357933	-0.356652
C43	C	1.345616	0.357946	-0.356648
C44	C	1.070182	0.357884	-0.549824
C45	C	1.070201	0.357876	-0.632138
C46	C	1.070243	1.164197	-0.356690
C47	C	1.070215	1.081652	-0.356705
C48	C	1.070244	0.357737	-0.931229
C49	C	1.012775	0.414940	-0.899898
C50	C	1.012930	0.415205	-0.814280
C51	C	1.070222	0.357806	-0.782846
C52	C	1.148246	0.379056	-0.813934
C53	C	1.147926	0.379431	-0.899579
C54	C	1.050367	0.279157	-0.899652
C55	C	1.048631	0.279611	-0.814001
C56	C	1.070214	0.357844	-0.698987
C57	C	1.070257	0.357701	-1.015088
C58	C	1.070140	0.357868	-0.164251
C59	C	1.070265	0.357667	-0.081937
H60	H	0.634257	0.473412	-0.400477
H61	H	1.161502	0.903674	-0.265355
H62	H	0.945454	0.904068	-0.323212
C63	C	0.642417	0.326877	-0.218285
H64	H	0.622699	0.341230	-0.171790
H65	H	0.627571	0.277614	-0.229229
H66	H	0.694813	0.329328	-0.216572
H67	H	1.026052	0.473451	-0.793799
H68	H	0.955072	0.401907	-0.793261
C69	C	1.031293	0.803740	-0.211847
H70	H	1.022689	0.844389	-0.179620
H71	H	0.987819	0.774481	-0.215225
H72	H	1.070598	0.774385	-0.193051
H73	H	0.507029	0.473782	-0.400392
C74	C	0.642646	0.256506	-0.454585
H75	H	0.623550	0.209096	-0.466997
H76	H	0.627198	0.291676	-0.490434
H77	H	0.695079	0.254437	-0.453569
H78	H	0.978716	0.811219	-0.447876
C79	C	1.214805	0.803368	-0.395577
H80	H	1.227563	0.820231	-0.443625
H81	H	1.250080	0.821000	-0.360940
H82	H	1.214361	0.750744	-0.394979
C83	C	0.500491	0.321058	-0.220941
H84	H	0.469984	0.285439	-0.244634
H85	H	0.541669	0.296881	-0.199088
H86	H	0.472909	0.345861	-0.183748
C87	C	0.498670	0.453517	-0.252082
H88	H	0.466963	0.473731	-0.288727
H89	H	0.471989	0.447407	-0.207304
H90	H	0.539050	0.486143	-0.244085
C91	C	0.640951	0.457250	-0.256948
H92	H	0.671286	0.476472	-0.295242
H93	H	0.599789	0.489091	-0.249664
H94	H	0.668726	0.454145	-0.212530
H95	H	1.103451	0.903847	-0.481410
C96	C	1.101054	0.218977	-0.785104
H97	H	1.136958	0.240655	-0.753524
H98	H	1.073483	0.183145	-0.758350
H99	H	1.125079	0.195735	-0.825618
C100	C	1.106902	0.221579	-0.927033
H101	H	1.142449	0.245272	-0.957561
H102	H	1.130981	0.199645	-0.885856
H103	H	1.082152	0.184307	-0.954595
H104	H	0.954742	0.401778	-0.920498
C105	C	1.171404	0.455834	-0.784978
H106	H	1.133634	0.475041	-0.753952
H107	H	1.215969	0.451421	-0.757622
H108	H	1.178880	0.488413	-0.825502
C109	C	0.500018	0.220014	-0.324834
H110	H	0.540990	0.195526	-0.302924
H111	H	0.470841	0.242409	-0.287344
H112	H	0.470962	0.185069	-0.351195
H113	H	0.994461	0.259798	-0.921251
H114	H	1.025767	0.472830	-0.921425
H115	H	0.991213	0.263587	-0.793683
H116	H	1.192196	0.339576	-0.920305
C117	C	0.498603	0.398060	-0.491629
H118	H	0.467472	0.355749	-0.489654
H119	H	0.471339	0.439203	-0.509742
H120	H	0.539084	0.388397	-0.523626
H121	H	1.192214	0.338701	-0.793574
C122	C	0.640970	0.397645	-0.492310
H123	H	0.599880	0.390504	-0.524167
H124	H	0.670099	0.437649	-0.509995
H125	H	0.670013	0.353808	-0.491179
H126	H	0.634024	0.235554	-0.337819
C127	C	0.501043	0.257279	-0.455832
H128	H	0.542430	0.247916	-0.486744
H129	H	0.471829	0.213734	-0.452154
H130	H	0.472244	0.296166	-0.476373
C131	C	1.170682	0.457031	-0.926579
H132	H	1.180031	0.488030	-0.885206
H133	H	1.214111	0.453264	-0.955810
H134	H	1.131930	0.477680	-0.955369
