data_functionalizedCrystal
_audit_creation_method	'MofGen! by Chris Wilmer'
_symmetry_space_group_name_H-M	'P1'
_symmetry_Int_Tables_number	1
_symmetry_cell_setting	triclinic
loop_
_symmetry_equiv_pos_as_xyz
  x,y,z
_cell_length_a	12.827893
_cell_length_b	12.827892
_cell_length_c	10.686551
_cell_angle_alpha	85.594922
_cell_angle_beta	85.605088
_cell_angle_gamma	90.015363
loop_
_atom_site_label
_atom_site_type_symbol
_atom_site_fract_x
_atom_site_fract_y
_atom_site_fract_z
Zn1	Zn	1.643030	-0.370628	-0.713447
Zn2	Zn	1.629509	-0.558819	-0.502448
Zn3	Zn	1.454858	-0.384091	-0.502465
Zn4	Zn	1.468254	-0.545330	-0.713400
O5	O	1.548913	-0.464717	-0.607940
O6	O	1.787474	-0.395602	-0.685470
O7	O	1.595076	-0.546920	-0.325869
O8	O	1.479871	-0.236067	-0.530479
O9	O	1.777540	-0.533865	-0.530450
O10	O	1.618121	-0.226176	-0.685487
O11	O	1.466760	-0.418549	-0.325881
O12	O	1.310398	-0.405469	-0.530433
O13	O	1.502704	-0.510876	-0.889987
O14	O	1.320240	-0.523931	-0.685406
O15	O	1.631111	-0.382523	-0.890022
O16	O	1.608066	-0.703267	-0.530404
O17	O	1.489593	-0.693357	-0.685390
C18	C	1.277402	-0.464698	-0.607917
C19	C	1.161250	-0.464713	-0.607937
C20	C	1.548846	-0.736228	-0.607918
C21	C	1.548916	-0.852379	-0.607950
C22	C	0.994345	-0.396419	-0.684785
C23	C	1.114394	-0.396402	-0.684766
C24	C	1.607621	-0.909028	-0.531344
C25	C	1.607694	-1.029076	-0.531376
C26	C	1.821485	-0.464736	-0.607964
C27	C	1.937638	-0.464745	-0.607974
C28	C	1.569910	-0.443693	-0.937070
C29	C	1.578858	-0.434734	-1.077326
C30	C	1.549010	-0.192144	-0.607990
C31	C	1.549052	-0.075989	-0.608011
C32	C	1.528058	-0.485584	-0.280090
C33	C	1.519312	-0.494248	-0.139835
H34	H	1.163141	-0.337901	-0.750520
H35	H	0.954018	-0.337939	-0.750564
H36	H	0.977966	-0.523233	-0.542206
H37	H	1.498785	-1.027299	-0.673596
O38	O	1.674154	-0.855559	-0.444455
H39	H	1.663663	-0.769658	-0.458073
H40	H	1.112509	-0.523211	-0.542171
O41	O	1.655446	-0.358135	-1.148559
H42	H	1.650681	-0.362865	-1.251239
H43	H	1.657951	-1.077774	-0.465786
O44	O	1.482400	-0.905855	-0.694850
H45	H	1.533294	-0.951431	-0.759054
O46	O	1.442706	-0.570821	-1.068608
H47	H	1.447455	-0.566071	-0.965928
