data_functionalizedCrystal
_audit_creation_method	'MofGen! by Chris Wilmer'
_symmetry_space_group_name_H-M	'P1'
_symmetry_Int_Tables_number	1
_symmetry_cell_setting	triclinic
loop_
_symmetry_equiv_pos_as_xyz
  x,y,z
_cell_length_a	15.995350
_cell_length_b	15.995343
_cell_length_c	14.472310
_cell_angle_alpha	89.991294
_cell_angle_beta	90.001162
_cell_angle_gamma	83.490779
loop_
_atom_site_label
_atom_site_type_symbol
_atom_site_fract_x
_atom_site_fract_y
_atom_site_fract_z
O1	O	0.107890	1.111001	-0.076744
O2	O	0.607890	1.611001	0.423256
O3	O	0.121224	0.867224	-0.076765
O4	O	0.621224	1.367224	0.423235
O5	O	-0.007331	0.995776	-0.076753
O6	O	0.492669	1.495776	0.423247
O7	O	0.236445	0.982449	-0.076756
O8	O	0.736445	1.482449	0.423244
O9	O	-0.007323	0.995743	0.076929
O10	O	0.492677	1.495743	0.576929
O11	O	0.121232	0.867191	0.076917
O12	O	0.621232	1.367191	0.576917
O13	O	0.107897	1.110968	0.076938
O14	O	0.607897	1.610968	0.576938
Cu15	Cu	0.114565	0.989076	0.090960
Cu16	Cu	0.614565	1.489076	0.590960
Cu17	Cu	0.114556	0.989116	-0.090787
Cu18	Cu	0.614556	1.489116	0.409213
O19	O	0.236452	0.982416	0.076926
O20	O	0.736452	1.482416	0.576926
C21	C	0.120678	0.836013	0.000073
C22	C	0.620678	1.336013	0.500073
C23	C	0.119028	0.743062	0.000065
C24	C	0.619028	1.243062	0.500065
C25	C	0.116035	0.572876	0.000077
C26	C	0.616035	1.072876	0.500077
C27	C	0.023238	0.549530	0.000078
C28	C	0.523238	1.049530	0.500078
C29	C	0.021492	0.452852	0.000432
C30	C	0.521492	0.952852	0.500432
C31	C	0.113086	0.405316	0.000088
C32	C	0.613086	0.905316	0.500088
C33	C	0.159750	0.434389	0.087673
C34	C	0.659750	0.934389	0.587673
C35	C	0.160851	0.531181	0.087741
C36	C	0.660851	1.031181	0.587741
C37	C	0.162201	0.531129	-0.087030
C38	C	0.662201	1.031129	0.412970
C39	C	0.158776	0.434635	-0.088176
C40	C	0.658776	0.934635	0.411824
C41	C	0.111425	0.310618	0.000098
C42	C	0.611425	0.810618	0.500098
C43	C	0.117699	0.667574	0.000074
C44	C	0.617699	1.167574	0.500074
C45	C	-0.038522	0.995209	0.000086
C46	C	0.461478	1.495209	0.500086
C47	C	-0.131472	0.993557	0.000081
C48	C	0.368528	1.493557	0.500081
C49	C	-0.469220	0.987625	0.000083
C50	C	0.030780	1.487625	0.500083
C51	C	-0.421783	0.896073	-0.000269
C52	C	0.078217	1.396073	0.499731
C53	C	-0.325093	0.897725	0.000077
C54	C	0.174907	1.397725	0.500077
C55	C	-0.301659	0.990567	0.000082
C56	C	0.198341	1.490567	0.500082
C57	C	-0.342734	1.035705	0.087844
C58	C	0.157266	1.535705	0.587844
C59	C	-0.439369	1.033405	0.087917
C60	C	0.060631	1.533405	0.587917
C61	C	-0.439736	1.035334	-0.086848
C62	C	0.060264	1.535334	0.413152
C63	C	-0.342791	1.035313	-0.088008
C64	C	0.157209	1.535313	0.411992
C65	C	-0.206962	0.992235	0.000084
C66	C	0.293038	1.492235	0.500084
C67	C	-0.563917	0.985960	0.000088
C68	C	-0.063917	1.485960	0.500088
C69	C	0.267643	0.982983	0.000085
C70	C	0.767643	1.482983	0.500085
C71	C	0.360594	0.984635	0.000084
C72	C	0.860594	1.484635	0.500084
C73	C	0.108444	1.142179	0.000098
C74	C	0.608444	1.642179	0.500098
C75	C	0.110093	1.235130	0.000101
C76	C	0.610093	1.735130	0.500101
N77	N	0.114571	0.989055	0.218791
N78	N	0.614571	1.489055	0.718791
N79	N	0.114544	0.989144	-0.218618
N80	N	0.614544	1.489144	0.281382
C81	C	0.114553	0.989114	0.592882
C82	C	0.614553	1.489114	1.092882
C83	C	0.183109	0.920098	0.553710
C84	C	0.683109	1.420098	1.053710
C85	C	0.183359	0.920257	0.446622
C86	C	0.683359	1.420257	0.946622
C87	C	0.114562	0.989084	0.407291
C88	C	0.614562	1.489084	0.907291
C89	C	0.133641	1.076449	0.446136
C90	C	0.633641	1.576449	0.946136
C91	C	0.134128	1.076061	0.553257
C92	C	0.634128	1.576061	1.053257
C93	C	0.026714	0.971545	0.553410
C94	C	0.526714	1.471545	1.053410
C95	C	0.027299	0.969541	0.446283
C96	C	0.527299	1.469541	0.946283
C97	C	0.114565	0.989073	0.302403
C98	C	0.614565	1.489073	0.802403
C99	C	0.114551	0.989132	0.697770
C100	C	0.614551	1.489132	1.197770
H101	H	-0.012734	0.577551	-0.062720
H102	H	0.487266	1.077551	0.437280
H103	H	-0.471619	1.100621	0.091902
H104	H	0.028381	1.600621	0.591902
H105	H	-0.296673	0.862242	-0.062835
H106	H	0.203327	1.362242	0.437165
F107	F	0.246135	0.391567	-0.095441
F108	F	0.746135	0.891567	0.404559
F109	F	-0.288662	0.850996	0.082438
F110	F	0.211338	1.350996	0.582438
H111	H	0.171929	0.854948	0.579492
H112	H	0.671929	1.354948	1.079492
F113	F	-0.463287	0.990344	0.173659
F114	F	0.036713	1.490344	0.673659
F115	F	0.251489	0.549416	-0.088116
F116	F	0.751489	1.049416	0.411884
F117	F	-0.447670	0.848315	0.081302
F118	F	0.052330	1.348315	0.581302
F119	F	-0.042508	1.030984	0.411303
F120	F	0.457492	1.530984	0.911303
H121	H	0.228902	0.545754	0.091485
H122	H	0.728902	1.045754	0.591485
H123	H	0.124793	0.416091	-0.152972
H124	H	0.624793	0.916091	0.347028
H125	H	-0.315544	1.002311	-0.152932
H126	H	0.184456	1.502311	0.347068
H127	H	0.085036	1.129033	0.420657
H128	H	0.585036	1.629033	0.920657
F129	F	-0.324274	1.124859	0.092118
F130	F	0.175726	1.624859	0.592118
H131	H	-0.460278	1.005416	-0.153366
H132	H	0.039722	1.505416	0.346634
H133	H	-0.314348	1.004327	0.153150
H134	H	0.185652	1.504327	0.653150
F135	F	-0.026007	0.428731	0.082987
F136	F	0.473993	0.928731	0.582987
F137	F	-0.039970	1.037329	0.586520
F138	F	0.460030	1.537329	1.086520
F139	F	-0.322711	1.123809	-0.094935
F140	F	0.177289	1.623809	0.405065
F141	F	0.247862	0.392765	0.091611
F142	F	0.747862	0.892765	0.591611
H143	H	0.247926	0.931163	0.580620
H144	H	0.747926	1.431163	1.080620
F145	F	-0.481253	1.123562	-0.087617
F146	F	0.018747	1.623562	0.412383
F147	F	0.168544	0.835364	0.412293
F148	F	0.668544	1.335364	0.912293
F149	F	-0.446005	0.848258	-0.082533
F150	F	0.053995	1.348258	0.417467
H151	H	0.248543	0.931477	0.420988
H152	H	0.748543	1.431477	0.920988
F153	F	0.217860	1.096297	0.585906
F154	F	0.717860	1.596297	1.085906
F155	F	0.117910	0.408112	0.173195
F156	F	0.617910	0.908112	0.673195
H157	H	0.196971	1.092301	0.419299
H158	H	0.696971	1.592301	0.919299
F159	F	-0.026252	0.428007	-0.081616
F160	F	0.473748	0.928007	0.418384
F161	F	0.071279	1.145144	0.587128
F162	F	0.571279	1.645144	1.087128
H163	H	-0.012142	0.578501	0.062793
H164	H	0.487858	1.078501	0.562793
F165	F	0.002746	0.890070	0.588756
F166	F	0.502746	1.390070	1.088756
H167	H	0.128918	0.557953	0.153462
H168	H	0.628918	1.057953	0.653462
F169	F	0.123929	0.568097	-0.173830
F170	F	0.623929	1.068097	0.326170
H171	H	0.012820	0.905275	0.420895
H172	H	0.512820	1.405275	0.920895
