data_functionalizedCrystal
_audit_creation_method	'MofGen! by Chris Wilmer'
_symmetry_space_group_name_H-M	'P1'
_symmetry_Int_Tables_number	1
_symmetry_cell_setting	triclinic
loop_
_symmetry_equiv_pos_as_xyz
  x,y,z
_cell_length_a	19.805407
_cell_length_b	14.908178
_cell_length_c	19.805399
_cell_angle_alpha	93.324276
_cell_angle_beta	90.019573
_cell_angle_gamma	93.313831
loop_
_atom_site_label
_atom_site_type_symbol
_atom_site_fract_x
_atom_site_fract_y
_atom_site_fract_z
Zn1	Zn	1.019225	-0.359207	0.367165
Zn2	Zn	1.012625	-0.510084	0.247444
Zn3	Zn	0.906038	-0.359232	0.253989
Zn4	Zn	0.899490	-0.510036	0.360592
O5	O	0.959345	-0.434640	0.307297
O6	O	1.113065	-0.379231	0.351295
O7	O	0.998464	-0.490103	0.153594
O8	O	0.926556	-0.232974	0.274492
O9	O	1.108216	-0.490079	0.263336
O10	O	1.009713	-0.232956	0.357642
O11	O	0.920156	-0.379273	0.158402
O12	O	0.810454	-0.379227	0.268118
O13	O	0.915395	-0.489998	0.456182
O14	O	0.805643	-0.490022	0.346440
O15	O	1.003363	-0.379184	0.461011
O16	O	0.992115	-0.636332	0.256963
O17	O	0.908995	-0.636296	0.340093
C18	C	0.783489	-0.434622	0.307276
C19	C	0.708257	-0.434637	0.307282
C20	C	0.949146	-0.669050	0.297119
C21	C	0.944845	-0.769332	0.292788
C22	C	0.670421	-0.492414	0.347990
C23	C	0.599733	-0.492416	0.348000
C24	C	0.566881	-0.434644	0.307297
C25	C	0.604721	-0.376860	0.266588
C26	C	0.675409	-0.376854	0.266582
C27	C	0.319647	-0.376880	0.266609
C28	C	0.248955	-0.376891	0.266616
C29	C	0.243971	-0.492441	0.348027
C30	C	0.314659	-0.492436	0.348021
C31	C	0.352493	-0.434649	0.307315
C32	C	0.429142	-0.434647	0.307306
C33	C	0.490233	-0.434650	0.307302
C34	C	1.023290	-0.957604	0.371326
C35	C	1.019251	-1.051827	0.367258
C36	C	0.932726	-1.052005	0.280589
C37	C	0.936765	-0.957782	0.284657
C38	C	0.982049	-0.910584	0.330026
C39	C	0.986091	-0.816359	0.334089
C40	C	0.899563	-0.816538	0.247424
C41	C	0.895524	-0.910762	0.243357
C42	C	1.135886	-0.434658	0.307319
C43	C	1.211118	-0.434665	0.307328
C44	C	0.959385	-0.434583	0.483843
C45	C	0.959402	-0.434559	0.559076
C46	C	0.969601	-0.199314	0.317530
C47	C	0.973972	-0.099032	0.321891
C48	C	0.959346	-0.434631	0.131442
C49	C	0.959471	-0.434401	0.056220
C50	C	1.005209	-0.376855	0.596936
C51	C	1.005217	-0.376829	0.667625
C52	C	0.959421	-0.434511	0.700453
C53	C	0.913610	-0.492217	0.662589
C54	C	0.913599	-0.492238	0.591900
C55	C	0.913652	-0.492133	0.947666
C56	C	0.913667	-0.492110	1.018359
C57	C	1.005269	-0.376724	1.023390
C58	C	1.005258	-0.376745	0.952702
C59	C	0.959445	-0.434447	0.914844
C60	C	0.959436	-0.434474	0.838194
C61	C	0.959433	-0.434490	0.777102
H62	H	0.568930	-0.539465	0.381148
H63	H	0.341403	-0.539483	0.381163
H64	H	0.876320	-0.539180	0.689323
H65	H	0.697164	-0.539462	0.381133
H66	H	0.876292	-0.539217	0.561076
O67	O	0.356496	-0.320785	0.227124
C68	C	0.425932	-0.333177	0.235831
H69	H	0.434324	-0.362810	0.286743
H70	H	0.443888	-0.381154	0.193541
C71	C	0.455879	-0.205479	0.171163
C72	C	0.466188	-0.241867	0.233697
H73	H	0.480712	-0.149156	0.169844
H74	H	0.409100	-0.197131	0.165295
H75	H	0.470842	-0.245468	0.135928
H76	H	0.451217	-0.201883	0.268929
H77	H	0.512966	-0.250205	0.239571
O78	O	1.059282	-1.097406	0.407475
C79	C	1.045419	-1.074356	0.475914
H80	H	1.022332	-1.005972	0.480242
H81	H	1.008328	-1.127406	0.496384
C82	C	1.139921	-1.153884	0.511861
C83	C	1.111570	-1.069889	0.517177
H84	H	1.180725	-1.151132	0.537315
H85	H	1.149260	-1.169416	0.465752
H86	H	1.109006	-1.198084	0.528919
H87	H	1.142482	-1.025694	0.500112
H88	H	1.102238	-1.054350	0.563284
O89	O	0.207293	-0.548523	0.387674
C90	C	0.225439	-0.528906	0.456008
H91	H	0.278273	-0.494225	0.458952
H92	H	0.187683	-0.482560	0.480879
C93	C	0.160003	-0.659528	0.489463
C94	C	0.224897	-0.616939	0.493078
H95	H	0.159666	-0.713829	0.512331
H96	H	0.147775	-0.672743	0.443425
H97	H	0.128547	-0.620898	0.510188
H98	H	0.256350	-0.655564	0.472346
H99	H	0.237130	-0.603732	0.539113
H100	H	1.060167	-0.919175	0.408262
O101	O	0.712060	-0.320705	0.226971
C102	C	0.667909	-0.269701	0.191057
H103	H	0.615912	-0.306654	0.187069
H104	H	0.663381	-0.201221	0.218899
C105	C	0.759900	-0.211187	0.124501
C106	C	0.696038	-0.256578	0.119598
H107	H	0.777252	-0.203088	0.080423
H108	H	0.789647	-0.245547	0.148699
H109	H	0.756118	-0.154126	0.147706
H110	H	0.699823	-0.313642	0.096402
H111	H	0.666293	-0.222227	0.095395
O112	O	0.851444	-0.956574	0.199361
C113	C	0.784959	-0.933598	0.215061
H114	H	0.782615	-0.907651	0.270249
H115	H	0.769636	-0.878959	0.181111
C116	C	0.739082	-1.049229	0.135739
C117	C	0.736201	-1.017367	0.203523
H118	H	0.709004	-1.100900	0.128619
H119	H	0.783874	-1.064706	0.125159
H120	H	0.726313	-1.003689	0.107455
H121	H	0.748977	-1.062903	0.231805
H122	H	0.691410	-1.001899	0.214108
O123	O	0.859525	-0.770723	0.207373
C124	C	0.872812	-0.677437	0.220675
H125	H	0.895499	-0.664494	0.273491
H126	H	0.910030	-0.650695	0.181718
C127	C	0.778538	-0.645043	0.151617
C128	C	0.806398	-0.629145	0.216488
H129	H	0.737572	-0.615252	0.149031
H130	H	0.769588	-0.707891	0.142652
H131	H	0.809560	-0.622757	0.119160
H132	H	0.775380	-0.651440	0.248943
H133	H	0.815342	-0.566299	0.225458
O134	O	1.049781	-0.320751	0.704298
C135	C	1.090190	-0.269833	0.660166
H136	H	1.090913	-0.306806	0.608171
H137	H	1.068395	-0.201308	0.655622
C138	C	1.161911	-0.211426	0.752194
C139	C	1.162803	-0.256840	0.688334
H140	H	1.206702	-0.203407	0.769571
H141	H	1.134685	-0.245727	0.781928
H142	H	1.143745	-0.154327	0.748399
H143	H	1.180962	-0.313942	0.692132
H144	H	1.190034	-0.222548	0.658602
H145	H	0.222209	-0.329841	0.233471
O146	O	1.049769	-0.320627	0.920922
C147	C	1.090213	-0.269704	0.969497
H148	H	1.062635	-0.266563	1.020017
H149	H	1.140180	-0.302744	0.975586
C150	C	1.138017	-0.177548	0.884036
C151	C	1.104143	-0.173683	0.946085
H152	H	1.146614	-0.118319	0.869594
H153	H	1.110772	-0.211857	0.851310
H154	H	1.179653	-0.205085	0.889119
H155	H	1.062505	-0.146157	0.940999
H156	H	1.131382	-0.139367	0.978810
O157	O	1.049703	-0.320691	1.060271
C158	C	1.039906	-0.333049	1.129702
H159	H	0.986384	-0.362586	1.138063
H160	H	1.077961	-0.381092	1.147682
C161	C	1.115830	-0.205470	1.159691
C162	C	1.050092	-0.241741	1.169961
H163	H	1.122116	-0.149148	1.184527
H164	H	1.122433	-0.197145	1.112915
H165	H	1.147536	-0.245514	1.174675
H166	H	1.018388	-0.201702	1.154970
H167	H	1.043484	-0.250057	1.216737
O168	O	0.869118	-0.548257	0.910997
C169	C	0.828687	-0.599140	0.955134
H170	H	0.856291	-0.602271	1.005386
H171	H	0.778733	-0.566072	0.964094
C172	C	0.780809	-0.691317	0.861643
C173	C	0.814716	-0.695169	0.923361
H174	H	0.772188	-0.750551	0.842043
H175	H	0.808046	-0.657034	0.831906
H176	H	0.739185	-0.663756	0.869118
H177	H	0.856342	-0.722718	0.915884
H178	H	0.787485	-0.729458	0.953095
H179	H	0.577968	-0.329817	0.233450
H180	H	1.022965	-0.777931	0.371029
H181	H	0.895855	-1.090450	0.243655
H182	H	1.042503	-0.329886	0.570212
H183	H	0.876372	-0.539083	1.045085
