data_functionalizedCrystal
_audit_creation_method	'MofGen! by Chris Wilmer'
_symmetry_space_group_name_H-M	'P1'
_symmetry_Int_Tables_number	1
_symmetry_cell_setting	triclinic
loop_
_symmetry_equiv_pos_as_xyz
  x,y,z
_cell_length_a	9.065215
_cell_length_b	9.198806
_cell_length_c	9.065218
_cell_angle_alpha	89.998664
_cell_angle_beta	85.015325
_cell_angle_gamma	89.996792
loop_
_atom_site_label
_atom_site_type_symbol
_atom_site_fract_x
_atom_site_fract_y
_atom_site_fract_z
O1	O	-1.960403	0.120862	-0.216334
O2	O	-1.531118	0.120870	-0.234085
O3	O	-1.754634	0.120863	-0.010567
O4	O	-1.736887	0.120869	-0.439852
O5	O	-1.754616	-0.120922	-0.010566
O6	O	-1.531100	-0.120915	-0.234084
O7	O	-1.960385	-0.120923	-0.216334
Cu8	Cu	-1.745741	-0.142996	-0.225209
Cu9	Cu	-1.745762	0.142943	-0.225210
O10	O	-1.736869	-0.120916	-0.439851
C11	C	-1.476122	-0.000022	-0.232380
C12	C	-1.312279	-0.000019	-0.227282
N13	N	-1.745737	-0.344110	-0.225207
C14	C	-1.839582	-0.416310	-0.130943
C15	C	-1.839605	-0.583722	-0.130938
C16	C	-1.015381	-0.000027	-0.218039
C17	C	-1.179224	-0.000018	-0.223136
C18	C	-1.752919	-0.000027	0.044420
C19	C	-1.747819	-0.000020	0.208263
N20	N	-1.745778	0.344057	-0.225200
C21	C	-1.738584	-0.000023	-0.494838
C22	C	-1.743683	-0.000020	-0.658681
H23	H	-1.919906	-0.354186	-0.050237
H24	H	-1.919956	-0.645811	-0.050239
Cl25	Cl	-1.621728	-0.560098	-0.349818
H26	H	-1.665403	-0.406236	-0.305902
