data_functionalizedCrystal
_audit_creation_method	'MofGen! by Chris Wilmer'
_symmetry_space_group_name_H-M	'P1'
_symmetry_Int_Tables_number	1
_symmetry_cell_setting	triclinic
loop_
_symmetry_equiv_pos_as_xyz
  x,y,z
_cell_length_a	21.295418
_cell_length_b	29.839131
_cell_length_c	21.295412
_cell_angle_alpha	89.970612
_cell_angle_beta	89.957310
_cell_angle_gamma	90.057233
loop_
_atom_site_label
_atom_site_type_symbol
_atom_site_fract_x
_atom_site_fract_y
_atom_site_fract_z
Zn1	Zn	0.962302	-0.178675	-0.356239
Zn2	Zn	1.462302	0.321325	0.143761
Zn3	Zn	0.962186	-0.253802	-0.250967
Zn4	Zn	1.462186	0.246198	0.249033
Zn5	Zn	0.857027	-0.178708	-0.250949
Zn6	Zn	1.357027	0.321292	0.249051
Zn7	Zn	0.856974	-0.253799	-0.356163
Zn8	Zn	1.356974	0.246201	0.143837
O9	O	0.909622	-0.216246	-0.303580
O10	O	1.409622	0.283754	0.196420
O11	O	1.050376	-0.188628	-0.342314
O12	O	1.550376	0.311372	0.157686
O13	O	0.948210	-0.243856	-0.162875
O14	O	1.448210	0.256144	0.337125
O15	O	0.871062	-0.115836	-0.264940
O16	O	1.371062	0.384164	0.235060
O17	O	1.050291	-0.243824	-0.264971
O18	O	1.550291	0.256176	0.235029
O19	O	0.948407	-0.115812	-0.342296
O20	O	1.448407	0.384188	0.157704
O21	O	0.870950	-0.188684	-0.162862
O22	O	1.370950	0.311316	0.337138
O23	O	0.768930	-0.188681	-0.264867
O24	O	1.268930	0.311319	0.235133
O25	O	0.870972	-0.243819	-0.444263
O26	O	1.370972	0.256181	0.055737
O27	O	0.768892	-0.243851	-0.342167
O28	O	1.268892	0.256149	0.157833
O29	O	0.948356	-0.188625	-0.444319
O30	O	1.448356	0.311375	0.055681
O31	O	0.948159	-0.316669	-0.264897
O32	O	1.448159	0.183331	0.235103
O33	O	0.870860	-0.316667	-0.342185
O34	O	1.370860	0.183333	0.157815
C35	C	0.746070	-0.216270	-0.303507
C36	C	1.246070	0.283730	0.196493
C37	C	0.676102	-0.216291	-0.303491
C38	C	1.176102	0.283709	0.196509
C39	C	0.909508	-0.332969	-0.303548
C40	C	1.409508	0.167031	0.196452
C41	C	0.909517	-0.382903	-0.303556
C42	C	1.409517	0.117097	0.196444
C43	C	0.643232	-0.245055	-0.343681
C44	C	1.143232	0.254945	0.156319
C45	C	0.577489	-0.245044	-0.343710
C46	C	1.077489	0.254956	0.156290
C47	C	0.544620	-0.216273	-0.303536
C48	C	1.044620	0.283727	0.196464
C49	C	0.577498	-0.187503	-0.263343
C50	C	1.077498	0.312497	0.236657
C51	C	0.643239	-0.187512	-0.263321
C52	C	1.143239	0.312488	0.236679
N53	N	0.441346	-0.212763	-0.248479
N54	N	0.941346	0.287237	0.251521
N55	N	0.378894	-0.212757	-0.248502
N56	N	0.878894	0.287243	0.251498
C57	C	0.346545	-0.216245	-0.303603
C58	C	0.846545	0.283755	0.196397
N59	N	0.379007	-0.219746	-0.358681
N60	N	0.879007	0.280254	0.141319
N61	N	0.441464	-0.219754	-0.358657
N62	N	0.941464	0.280246	0.141343
C63	C	0.473334	-0.216260	-0.303557
C64	C	0.973334	0.283740	0.196443
C65	C	0.242389	-0.244999	-0.343827
C66	C	0.742389	0.255001	0.156173
C67	C	0.176646	-0.244985	-0.343857
C68	C	0.676646	0.255015	0.156143
C69	C	0.176656	-0.187445	-0.263485
C70	C	0.676656	0.312555	0.236515
C71	C	0.242398	-0.187457	-0.263461
C72	C	0.742398	0.312543	0.236539
C73	C	0.275261	-0.216236	-0.303632
C74	C	0.775261	0.283764	0.196368
C75	C	0.949945	-0.692535	-0.263395
C76	C	1.449945	-0.192535	0.236605
C77	C	0.950022	-0.880208	-0.263419
C78	C	1.450022	-0.380208	0.236581
O79	O	0.984305	-0.904463	-0.229249
O80	O	1.484305	-0.404463	0.270751
N81	N	0.909753	-0.903688	-0.303627
N82	N	1.409753	-0.403688	0.196373
C83	C	0.869463	-0.880247	-0.343835
C84	C	1.369463	-0.380247	0.156165
O85	O	0.835218	-0.904525	-0.378039
O86	O	1.335218	-0.404525	0.121961
C87	C	0.869389	-0.692575	-0.343813
C88	C	1.369389	-0.192575	0.156187
C89	C	0.909657	-0.669097	-0.303598
C90	C	1.409657	-0.169097	0.196402
C91	C	0.990210	-0.669057	-0.223184
C92	C	1.490210	-0.169057	0.276816
C93	C	0.990188	-0.622142	-0.223176
C94	C	1.490188	-0.122142	0.276824
C95	C	0.949900	-0.598704	-0.263379
C96	C	1.449900	-0.098704	0.236621
C97	C	0.909635	-0.622182	-0.303590
C98	C	1.409635	-0.122182	0.196410
C99	C	0.829104	-0.669135	-0.384023
C100	C	1.329104	-0.169135	0.115977
C101	C	0.829090	-0.622214	-0.384015
C102	C	1.329090	-0.122214	0.115985
C103	C	0.869358	-0.598736	-0.343800
C104	C	1.369358	-0.098736	0.156200
C105	C	0.869325	-0.551829	-0.343785
C106	C	1.369325	-0.051829	0.156215
N107	N	0.909595	-0.528348	-0.303577
N108	N	1.409595	-0.028348	0.196423
C109	C	0.949883	-0.551786	-0.263374
C110	C	1.449883	-0.051786	0.236626
C111	C	0.869504	-0.978778	-0.343842
C112	C	1.369504	-0.478778	0.156158
C113	C	0.869522	-1.025696	-0.343847
C114	C	1.369522	-0.525696	0.156153
C115	C	0.950082	-1.025653	-0.263432
C116	C	1.450082	-0.525653	0.236568
C117	C	0.950061	-0.978734	-0.263425
C118	C	1.450061	-0.478734	0.236575
C119	C	0.909774	-0.955298	-0.303634
C120	C	1.409774	-0.455298	0.196366
C121	C	0.949832	-0.453260	-0.263359
C122	C	1.449832	0.046740	0.236641
C123	C	0.949805	-0.406341	-0.263353
C124	C	1.449805	0.093659	0.236647
C125	C	0.869247	-0.406387	-0.343770
C126	C	1.369247	0.093613	0.156230
C127	C	0.869273	-0.453303	-0.343774
C128	C	1.369273	0.046697	0.156226
C129	C	0.909570	-0.476738	-0.303567
C130	C	1.409570	0.023262	0.196433
O131	O	0.835066	-0.527545	-0.377942
O132	O	1.335066	-0.027545	0.122058
O133	O	0.984133	-0.527500	-0.229185
O134	O	1.484133	-0.027500	0.270815
C135	C	0.949967	-0.739450	-0.263403
C136	C	1.449967	-0.239450	0.236597
C137	C	0.909702	-0.762928	-0.303614
C138	C	1.409702	-0.262928	0.196386
C139	C	0.869414	-0.739490	-0.343817
C140	C	1.369414	-0.239490	0.156183
C141	C	0.909719	-0.809846	-0.303619
C142	C	1.409719	-0.309846	0.196381
C143	C	0.950007	-0.833284	-0.263416
C144	C	1.450007	-0.333284	0.236584
C145	C	0.990277	-0.809803	-0.223208
C146	C	1.490277	-0.309803	0.276792
C147	C	0.990254	-0.762888	-0.223200
C148	C	1.490254	-0.262888	0.276800
C149	C	0.829145	-0.762971	-0.384025
C150	C	1.329145	-0.262971	0.115975
C151	C	0.829170	-0.809886	-0.384029
C152	C	1.329170	-0.309886	0.115971
C153	C	0.869457	-0.833324	-0.343826
C154	C	1.369457	-0.333324	0.156174
C155	C	1.073812	-0.216223	-0.303653
C156	C	1.573812	0.283777	0.196347
C157	C	1.143781	-0.216213	-0.303684
C158	C	1.643781	0.283787	0.196316
C159	C	0.909671	-0.216218	-0.467770
C160	C	1.409671	0.283782	0.032230
C161	C	0.909692	-0.216206	-0.537738
C162	C	1.409692	0.283794	-0.037738
C163	C	0.909753	-0.099068	-0.303625
C164	C	1.409753	0.400932	0.196375
C165	C	0.909809	-0.049133	-0.303644
C166	C	1.409809	0.450867	0.196356
C167	C	0.869474	-0.187475	-0.570588
C168	C	1.369474	0.312525	-0.070588
C169	C	0.869472	-0.187467	-0.636331
C170	C	1.369472	0.312533	-0.136331
C171	C	0.909699	-0.216185	-0.669221
C172	C	1.409699	0.283815	-0.169221
C173	C	0.949921	-0.244921	-0.636363
C174	C	1.449921	0.255079	-0.136363
C175	C	0.949917	-0.244932	-0.570622
C176	C	1.449917	0.255068	-0.070622
N177	N	0.964803	-0.219605	-0.772477
N178	N	1.464803	0.280395	-0.272477
N179	N	0.964804	-0.219592	-0.834929
N180	N	1.464804	0.280408	-0.334929
C181	C	0.909711	-0.216155	-0.867295
C182	C	1.409711	0.283845	-0.367295
N183	N	0.854615	-0.212722	-0.834851
N184	N	1.354615	0.287278	-0.334851
N185	N	0.854614	-0.212733	-0.772394
N186	N	1.354614	0.287267	-0.272394
C187	C	0.909707	-0.216177	-0.740506
C188	C	1.409707	0.283823	-0.240506
C189	C	0.869486	-0.187413	-0.971431
C190	C	1.369486	0.312587	-0.471431
C191	C	0.869483	-0.187408	-1.037175
C192	C	1.369483	0.312592	-0.537175
C193	C	0.949938	-0.244860	-1.037206
C194	C	1.449938	0.255140	-0.537206
C195	C	0.949935	-0.244868	-0.971463
C196	C	1.449935	0.255132	-0.471463
C197	C	0.909711	-0.216142	-0.938580
C198	C	1.409711	0.283858	-0.438580
C199	C	0.909609	-0.216241	-0.140028
C200	C	1.409609	0.283759	0.359972
C201	C	0.909710	-0.216127	-0.070060
C202	C	1.409710	0.283873	0.429940
H203	H	0.550721	-0.268468	-0.376440
H204	H	1.050721	0.231532	0.123560
N205	N	0.543916	-0.158114	-0.222315
N206	N	1.043916	0.341886	0.277685
N207	N	0.485219	-0.158109	-0.222341
N208	N	0.985219	0.341891	0.277659
H209	H	0.461501	-0.137351	-0.193366
H210	H	0.961501	0.362649	0.306634
H211	H	0.836732	-0.164023	-0.944656
H212	H	1.336732	0.335977	-0.444656
H213	H	0.982693	-0.268242	-1.063984
H214	H	1.482693	0.231758	-0.563984
N215	N	0.828347	-0.954848	-0.384923
N216	N	1.328347	-0.454848	0.115077
N217	N	0.792398	-0.975823	-0.420816
N218	N	1.292398	-0.475823	0.079184
H219	H	0.763328	-0.958925	-0.449829
H220	H	1.263328	-0.458925	0.050171
H221	H	0.982648	-0.472336	-0.230620
H222	H	1.482648	0.027664	0.269380
H223	H	1.023020	-0.688135	-0.190445
H224	H	1.523020	-0.188135	0.309555
H225	H	0.982687	-0.268263	-0.944717
H226	H	1.482687	0.231737	-0.444717
N227	N	0.991025	-0.274245	-0.669959
N228	N	1.491025	0.225755	-0.169959
N229	N	1.049113	-0.271254	-0.662657
N230	N	1.549113	0.228746	-0.162657
H231	H	1.078145	-0.291965	-0.686385
H232	H	1.578145	0.208035	-0.186385
H233	H	0.149884	-0.268408	-0.376588
H234	H	0.649884	0.231592	0.123412
N235	N	0.787926	-0.598275	-0.425079
N236	N	1.287926	-0.098275	0.074921
N237	N	0.747808	-0.572144	-0.402879
N238	N	1.247808	-0.072144	0.097121
H239	H	0.718735	-0.555238	-0.431878
H240	H	1.218735	-0.055238	0.068122
N241	N	0.676809	-0.158123	-0.222264
N242	N	1.176809	0.341877	0.277736
N243	N	0.647458	-0.132433	-0.186401
N244	N	1.147458	0.367567	0.313599
H245	H	0.671167	-0.111676	-0.157403
H246	H	1.171167	0.388324	0.342597
H247	H	1.023078	-0.828895	-0.190472
H248	H	1.523078	-0.328895	0.309528
H249	H	0.836728	-0.164013	-1.063920
H250	H	1.336728	0.335987	-0.563920
H251	H	1.023044	-0.743776	-0.190453
H252	H	1.523044	-0.243776	0.309547
H253	H	0.269148	-0.268430	-0.376540
H254	H	0.769148	0.231570	0.123460
N255	N	0.991195	-0.954762	-0.222341
N256	N	1.491195	-0.454762	0.277659
N257	N	1.027158	-0.975699	-0.186448
N258	N	1.527158	-0.475699	0.313552
H259	H	1.056212	-0.958771	-0.157431
H260	H	1.556212	-0.458771	0.342569
N261	N	0.676797	-0.274456	-0.384709
N262	N	1.176797	0.225544	0.115291
N263	N	0.669378	-0.315905	-0.380425
N264	N	1.169378	0.184095	0.119575
H265	H	0.693083	-0.336670	-0.409401
H266	H	1.193083	0.163330	0.090599
N267	N	0.275978	-0.158085	-0.222392
N268	N	0.775978	0.341915	0.277608
N269	N	0.312590	-0.173861	-0.182226
N270	N	0.812590	0.326139	0.317774
H271	H	0.336307	-0.153116	-0.153219
H272	H	0.836307	0.346884	0.346781
N273	N	0.143079	-0.158054	-0.222459
N274	N	0.643079	0.341946	0.277541
N275	N	0.084382	-0.158046	-0.222488
N276	N	0.584382	0.341954	0.277512
H277	H	0.060664	-0.137286	-0.193516
H278	H	0.560664	0.362714	0.306484
H279	H	0.796310	-0.688242	-0.416767
H280	H	1.296310	-0.188242	0.083233
H281	H	0.982596	-0.387227	-0.230603
H282	H	1.482596	0.112773	0.269397
H283	H	1.022979	-0.603029	-0.190431
H284	H	1.522979	-0.103029	0.309569
N285	N	0.991229	-1.049606	-0.222367
N286	N	1.491229	-0.549606	0.277633
N287	N	0.991234	-1.091496	-0.222383
N288	N	1.491234	-0.591496	0.277617
H289	H	1.020294	-1.108415	-0.193384
H290	H	1.520294	-0.608415	0.306616
H291	H	0.836485	-0.472419	-0.376522
H292	H	1.336485	0.027581	0.123478
H293	H	0.836726	-1.044807	-0.376588
H294	H	1.336726	-0.544807	0.123412
N295	N	0.788024	-0.833858	-0.425110
N296	N	1.288024	-0.333858	0.074890
N297	N	0.752059	-0.812920	-0.461001
N298	N	1.252059	-0.312920	0.038999
H299	H	0.723003	-0.829849	-0.490016
H300	H	1.223003	-0.329849	0.009984
H301	H	0.836444	-0.387297	-0.376501
H302	H	1.336444	0.112703	0.123499
N303	N	0.787997	-0.739035	-0.425103
N304	N	1.287997	-0.239035	0.074897
N305	N	0.792145	-0.744251	-0.483194
N306	N	1.292145	-0.244251	0.016806
H307	H	0.763080	-0.727348	-0.512207
H308	H	1.263080	-0.227348	-0.012207
N309	N	0.828379	-0.158133	-0.537009
N310	N	1.328379	0.341867	-0.037009
N311	N	0.792469	-0.132484	-0.566353
N312	N	1.292469	0.367516	-0.066353
H313	H	0.763443	-0.111762	-0.542637
H314	H	1.263443	0.388238	-0.042637
H315	H	0.982671	-0.268328	-0.543876
H316	H	1.482671	0.231672	-0.043876
H317	H	0.836722	-0.164068	-0.663082
H318	H	1.336722	0.335932	-0.163082
