data_functionalizedCrystal
_audit_creation_method	'MofGen! by Chris Wilmer'
_symmetry_space_group_name_H-M	'P1'
_symmetry_Int_Tables_number	1
_symmetry_cell_setting	triclinic
loop_
_symmetry_equiv_pos_as_xyz
  x,y,z
_cell_length_a	17.077404
_cell_length_b	16.120444
_cell_length_c	16.120256
_cell_angle_alpha	84.383140
_cell_angle_beta	87.120369
_cell_angle_gamma	92.924506
loop_
_atom_site_label
_atom_site_type_symbol
_atom_site_fract_x
_atom_site_fract_y
_atom_site_fract_z
Zn1	Zn	1.159632	-0.356807	0.489439
Zn2	Zn	1.492965	-0.023474	0.822772
Zn3	Zn	1.826298	0.309859	1.156105
Zn4	Zn	1.159531	-0.489494	0.356750
Zn5	Zn	1.492864	-0.156160	0.690084
Zn6	Zn	1.826197	0.177173	1.023417
Zn7	Zn	1.035374	-0.349734	0.349686
Zn8	Zn	1.368707	-0.016401	0.683020
Zn9	Zn	1.702040	0.316932	1.016353
Zn10	Zn	1.021316	-0.496534	0.496476
Zn11	Zn	1.354649	-0.163201	0.829810
Zn12	Zn	1.687983	0.170133	1.163143
O13	O	1.093963	-0.423142	0.423088
O14	O	1.427296	-0.089809	0.756421
O15	O	1.760630	0.243524	1.089755
O16	O	1.269464	-0.374422	0.471848
O17	O	1.602797	-0.041089	0.805182
O18	O	1.936131	0.292245	1.138515
O19	O	1.148902	-0.465048	0.238850
O20	O	1.482235	-0.131714	0.572184
O21	O	1.815568	0.201619	0.905517
O22	O	1.057782	-0.233707	0.362323
O23	O	1.391115	0.099626	0.695657
O24	O	1.724449	0.432960	1.028990
O25	O	1.269390	-0.471906	0.374363
O26	O	1.602723	-0.138573	0.707696
O27	O	1.936056	0.194761	1.041029
O28	O	1.149074	-0.238903	0.464999
O29	O	1.482407	0.094430	0.798332
O30	O	1.815741	0.427763	1.131665
O31	O	1.057684	-0.362367	0.233661
O32	O	1.391017	-0.029034	0.566994
O33	O	1.724351	0.304299	0.900327
O34	O	0.923663	-0.369194	0.369147
O35	O	1.256996	-0.035861	0.702481
O36	O	1.590330	0.297473	1.035814
O37	O	1.033823	-0.483905	0.612505
O38	O	1.367156	-0.150572	0.945839
O39	O	1.700490	0.182761	1.279172
O40	O	0.913335	-0.477047	0.476993
O41	O	1.246668	-0.143714	0.810327
O42	O	1.580002	0.189620	1.143660
O43	O	1.135443	-0.381249	0.607335
O44	O	1.468776	-0.047915	0.940668
O45	O	1.802110	0.285418	1.274002
O46	O	1.135271	-0.607393	0.381187
O47	O	1.468604	-0.274060	0.714520
O48	O	1.801938	0.059273	1.047853
O49	O	1.033725	-0.612566	0.483843
O50	O	1.367059	-0.279232	0.817176
O51	O	1.700392	0.054101	1.150509
C52	C	0.890017	-0.423118	0.423068
C53	C	1.223351	-0.089784	0.756401
C54	C	1.556684	0.243549	1.089735
C55	C	0.802766	-0.423128	0.423080
C56	C	1.136100	-0.089795	0.756414
C57	C	1.469433	0.243538	1.089747
C58	C	0.761807	-0.372468	0.473928
C59	C	1.095140	-0.039134	0.807261
C60	C	1.428473	0.294199	1.140594
C61	C	0.679826	-0.372473	0.473932
C62	C	1.013159	-0.039140	0.807265
C63	C	1.346492	0.294194	1.140598
C64	C	0.638806	-0.423144	0.423092
C65	C	0.972139	-0.089811	0.756426
C66	C	1.305472	0.243522	1.089759
C67	C	0.679771	-0.473807	0.372239
C68	C	1.013105	-0.140474	0.705573
C69	C	1.346438	0.192860	1.038906
C70	C	0.761751	-0.473797	0.372231
C71	C	1.095084	-0.140463	0.705565
C72	C	1.428418	0.192870	1.038898
C73	C	0.508899	-0.473827	0.372261
C74	C	0.842232	-0.140494	0.705594
C75	C	1.175566	0.192840	1.038928
C76	C	0.426914	-0.473839	0.372270
C77	C	0.760247	-0.140506	0.705603
C78	C	1.093580	0.192828	1.038937
C79	C	0.426974	-0.372504	0.473961
C80	C	0.760307	-0.039170	0.807295
C81	C	1.093641	0.294163	1.140628
C82	C	0.508954	-0.372493	0.473953
C83	C	0.842287	-0.039160	0.807287
C84	C	1.175620	0.294174	1.140620
C85	C	0.549914	-0.423157	0.423101
C86	C	0.883247	-0.089824	0.756435
C87	C	1.216580	0.243509	1.089768
C88	C	1.082982	-0.640308	0.434063
C89	C	1.416315	-0.306975	0.767397
C90	C	1.749649	0.026358	1.100730
C91	C	1.078355	-0.733214	0.438786
C92	C	1.411688	-0.399881	0.772120
C93	C	1.745021	-0.066548	1.105453
C94	C	1.118150	-0.942124	0.398766
C95	C	1.451484	-0.608791	0.732099
C96	C	1.784817	-0.275458	1.065433
C97	C	1.069921	-0.903309	0.447419
C98	C	1.403254	-0.569976	0.780752
C99	C	1.736587	-0.236643	1.114085
C100	C	1.074615	-0.808660	0.442614
C101	C	1.407948	-0.475326	0.775948
C102	C	1.741281	-0.141993	1.109281
C103	C	1.113457	-1.036783	0.403569
C104	C	1.446791	-0.703449	0.736903
C105	C	1.780124	-0.370116	1.070236
C106	C	1.298705	-0.423168	0.423108
C107	C	1.632038	-0.089834	0.756442
C108	C	1.965372	0.243499	1.089775
C109	C	1.385954	-0.423178	0.423117
C110	C	1.719287	-0.089845	0.756451
C111	C	2.052621	0.243488	1.089784
C112	C	1.083076	-0.434151	0.641095
C113	C	1.416410	-0.100818	0.974429
C114	C	1.749743	0.232515	1.307762
C115	C	1.078437	-0.438843	0.733997
C116	C	1.411770	-0.105509	1.067330
C117	C	1.745104	0.227824	1.400664
C118	C	1.105007	-0.205129	0.412088
C119	C	1.438341	0.128204	0.745421
C120	C	1.771674	0.461538	1.078755
C121	C	1.109714	-0.112225	0.407401
C122	C	1.443047	0.221108	0.740734
C123	C	1.776380	0.554442	1.074067
C124	C	1.104856	-0.412116	0.205926
C125	C	1.438189	-0.078782	0.539259
C126	C	1.771522	0.254551	0.872592
C127	C	1.109659	-0.407189	0.113012
C128	C	1.442992	-0.073856	0.446346
C129	C	1.776325	0.259478	0.779679
C130	C	1.118156	-0.398656	0.942922
C131	C	1.451489	-0.065322	1.276255
C132	C	1.784823	0.268011	1.609588
C133	C	1.069942	-0.447373	0.904082
C134	C	1.403276	-0.114040	1.237416
C135	C	1.736609	0.219293	1.570749
C136	C	1.074670	-0.442626	0.809438
C137	C	1.408004	-0.109292	1.142771
C138	C	1.741337	0.224041	1.476105
C139	C	1.113429	-0.403402	1.037574
C140	C	1.446762	-0.070069	1.370908
C141	C	1.780096	0.263264	1.704241
H142	H	0.646480	-0.331222	0.515338
H143	H	0.979813	0.002112	0.848672
H144	H	1.313147	0.335445	1.182005
H145	H	0.542350	-0.331237	0.515356
H146	H	0.875683	0.002096	0.848690
H147	H	1.209016	0.335430	1.182023
F148	F	1.011340	-0.952784	0.506577
F149	F	1.344673	-0.619451	0.839910
F150	F	1.678007	-0.286117	1.173243
F151	F	1.176724	-0.892650	0.339609
F152	F	1.510057	-0.559317	0.672942
F153	F	1.843391	-0.225984	1.006275
H154	H	1.025110	-0.492643	0.941911
H155	H	1.358444	-0.159310	1.275244
H156	H	1.691777	0.174024	1.608578
F157	F	1.176738	-0.339474	0.893479
F158	F	1.510071	-0.006140	1.226813
F159	F	1.843404	0.327193	1.560146
H160	H	0.795199	-0.331207	0.515329
H161	H	1.128533	0.002126	0.848662
H162	H	1.461866	0.335459	1.181996
H163	H	0.393517	-0.515101	0.330873
H164	H	0.726850	-0.181767	0.664206
H165	H	1.060184	0.151566	0.997539
F166	F	0.383381	-0.318581	0.528080
F167	F	0.716714	0.014752	0.861414
F168	F	1.050048	0.348086	1.194747
H169	H	0.542246	-0.515081	0.330850
H170	H	0.875580	-0.181748	0.664183
H171	H	1.208913	0.151586	0.997516
F172	F	0.636113	-0.527731	0.318127
F173	F	0.969446	-0.194398	0.651461
F174	F	1.302779	0.138936	0.984794
F175	F	0.805343	-0.527717	0.318113
F176	F	1.138676	-0.194384	0.651447
F177	F	1.472010	0.138949	0.984780
