data_functionalizedCrystal
_audit_creation_method	'MofGen! by Chris Wilmer'
_symmetry_space_group_name_H-M	'P1'
_symmetry_Int_Tables_number	1
_symmetry_cell_setting	triclinic
loop_
_symmetry_equiv_pos_as_xyz
  x,y,z
_cell_length_a	15.944499
_cell_length_b	17.038272
_cell_length_c	15.021413
_cell_angle_alpha	90.004029
_cell_angle_beta	89.990095
_cell_angle_gamma	87.294583
loop_
_atom_site_label
_atom_site_type_symbol
_atom_site_fract_x
_atom_site_fract_y
_atom_site_fract_z
O1	O	1.121741	0.100633	-0.074087
O2	O	1.621741	0.600633	0.425913
O3	O	0.878076	0.113108	-0.074077
O4	O	1.378076	0.613108	0.425923
O5	O	0.998461	-0.006945	-0.074075
O6	O	1.498461	0.493055	0.425925
O7	O	1.001357	0.220686	-0.074089
O8	O	1.501357	0.720686	0.425911
O9	O	0.998441	-0.006928	0.073989
O10	O	1.498441	0.493072	0.573989
O11	O	0.878057	0.113125	0.073987
O12	O	1.378057	0.613125	0.573987
O13	O	1.121722	0.100651	0.073977
O14	O	1.621722	0.600651	0.573977
Zn15	Zn	0.999886	0.106890	0.097491
Zn16	Zn	1.499886	0.606890	0.597491
Zn17	Zn	0.999912	0.106868	-0.097590
Zn18	Zn	1.499912	0.606868	0.402410
O19	O	1.001338	0.220703	0.073975
O20	O	1.501338	0.720703	0.573975
C21	C	0.846735	0.112606	-0.000044
C22	C	1.346735	0.612606	0.499956
C23	C	0.753378	0.111074	-0.000040
C24	C	1.253378	0.611074	0.499960
C25	C	0.466822	0.180822	-0.000057
C26	C	0.966822	0.680822	0.499943
C27	C	0.525272	0.144557	-0.073060
C28	C	1.025272	0.644557	0.426940
C29	C	0.417344	0.105512	-0.000060
C30	C	0.917344	0.605512	0.499940
C31	C	0.525237	0.144554	0.072920
C32	C	1.025237	0.644554	0.572920
C33	C	0.582448	0.108249	-0.000048
C34	C	1.082448	0.608249	0.499952
C35	C	0.474564	0.069226	-0.073123
C36	C	0.974564	0.569226	0.426877
C37	C	0.474524	0.069233	0.072922
C38	C	0.974524	0.569233	0.572922
C39	C	0.532953	0.032913	-0.000098
C40	C	1.032953	0.532913	0.499902
C41	C	0.322232	0.103937	-0.000067
C42	C	0.822232	0.603937	0.499933
C43	C	0.677559	0.109818	-0.000047
C44	C	1.177559	0.609818	0.499953
C45	C	0.995817	-0.036065	-0.000043
C46	C	1.495817	0.463935	0.499957
C47	C	0.987957	-0.122859	-0.000043
C48	C	1.487957	0.377141	0.499957
C49	C	1.060116	-0.172964	-0.000045
C50	C	1.560116	0.327036	0.499955
C51	C	1.052726	-0.254516	-0.000053
C52	C	1.552726	0.245484	0.499947
C53	C	0.973177	-0.285960	-0.000053
C54	C	1.473177	0.214040	0.499947
C55	C	0.901013	-0.235849	-0.000053
C56	C	1.401013	0.264151	0.499947
C57	C	0.908404	-0.154299	-0.000051
C58	C	1.408404	0.345701	0.499949
C59	C	0.947068	-0.531721	-0.000064
C60	C	1.447068	-0.031721	0.499936
C61	C	0.939682	-0.613278	-0.000063
C62	C	1.439682	-0.113278	0.499937
C63	C	1.091396	-0.631939	-0.000064
C64	C	1.591396	-0.131939	0.499936
C65	C	1.098780	-0.550387	-0.000057
C66	C	1.598780	-0.050387	0.499943
C67	C	1.026616	-0.500282	-0.000062
C68	C	1.526616	-0.000282	0.499938
C69	C	0.965622	-0.369319	-0.000058
C70	C	1.465622	0.130681	0.499942
C71	C	1.034172	-0.416925	-0.000063
C72	C	1.534172	0.083075	0.499937
C73	C	1.153063	0.101153	-0.000058
C74	C	1.653063	0.601153	0.499942
C75	C	1.246420	0.102684	-0.000068
C76	C	1.746420	0.602684	0.499932
C77	C	1.003981	0.249823	-0.000059
C78	C	1.503981	0.749823	0.499941
C79	C	1.011841	0.336617	-0.000065
C80	C	1.511841	0.836617	0.499935
N81	N	0.999875	0.106905	0.230628
N82	N	1.499875	0.606905	0.730628
N83	N	0.999929	0.106847	-0.230728
N84	N	1.499929	0.606847	0.269272
C85	C	0.944198	0.162392	0.470311
C86	C	1.444198	0.662392	0.970311
C87	C	1.021183	0.177557	0.529641
C88	C	1.521183	0.677557	1.029641
C89	C	0.999895	0.106886	0.412235
C90	C	1.499895	0.606886	0.912235
C91	C	0.922932	0.091738	0.529647
C92	C	1.422932	0.591738	1.029647
C93	C	0.999908	0.106869	0.587659
C94	C	1.499908	0.606869	1.087659
C95	C	1.076921	0.122087	0.470259
C96	C	1.576921	0.622087	0.970259
C97	C	0.978617	0.036236	0.470260
C98	C	1.478617	0.536236	0.970260
C99	C	1.055655	0.051372	0.529563
C100	C	1.555655	0.551372	1.029563
C101	C	0.999887	0.106898	0.311178
C102	C	1.499887	0.606898	0.811178
C103	C	0.999925	0.106856	0.688715
C104	C	1.499925	0.606856	1.188715
H105	H	0.452127	0.037413	0.134646
H106	H	0.952127	0.537413	0.634646
H107	H	1.098940	-0.391320	-0.000083
H108	H	1.598940	0.108680	0.499917
H109	H	0.452321	0.037395	-0.134910
H110	H	0.952321	0.537395	0.365090
H111	H	1.142032	0.134963	0.444282
H112	H	1.642032	0.634963	0.944282
H113	H	1.102816	0.004422	0.555416
H114	H	1.602816	0.504422	1.055416
H115	H	0.897151	0.209369	0.444294
H116	H	1.397151	0.709369	0.944294
H117	H	0.874901	-0.638876	-0.000048
H118	H	1.374901	-0.138876	0.499952
H119	H	0.888306	-0.490935	-0.000068
H120	H	1.388306	0.009065	0.499932
H121	H	1.124893	-0.147369	-0.000039
H122	H	1.624893	0.352631	0.499961
H123	H	0.960587	-0.023484	0.444156
H124	H	1.460587	0.476516	0.944156
H125	H	0.561664	-0.029643	-0.000133
H126	H	1.061664	0.470357	0.499867
H127	H	1.039192	0.237296	0.555723
H128	H	1.539192	0.737296	1.055723
H129	H	0.547580	0.176427	0.134635
H130	H	1.047580	0.676427	0.634635
H131	H	1.111485	-0.295309	-0.000052
H132	H	1.611485	0.204691	0.499948
H133	H	0.836243	-0.261457	-0.000059
H134	H	1.336243	0.238543	0.499941
H135	H	1.163557	-0.524791	-0.000057
H136	H	1.663557	-0.024791	0.499943
H137	H	0.857840	0.078933	0.555735
H138	H	1.357840	0.578933	1.055735
H139	H	1.150147	-0.672743	-0.000061
H140	H	1.650147	-0.172743	0.499939
H141	H	0.849644	-0.113503	-0.000050
H142	H	1.349644	0.386497	0.499950
H143	H	0.900852	-0.394930	-0.000056
H144	H	1.400852	0.105070	0.499944
H145	H	0.547652	0.176406	-0.134778
H146	H	1.047652	0.676406	0.365222
H147	H	0.437954	0.243322	-0.000132
H148	H	0.937954	0.743322	0.499868
