data_functionalizedCrystal
_audit_creation_method	'MofGen! by Chris Wilmer'
_symmetry_space_group_name_H-M	'P1'
_symmetry_Int_Tables_number	1
_symmetry_cell_setting	triclinic
loop_
_symmetry_equiv_pos_as_xyz
  x,y,z
_cell_length_a	10.908937
_cell_length_b	17.019294
_cell_length_c	10.065875
_cell_angle_alpha	94.957055
_cell_angle_beta	83.441416
_cell_angle_gamma	71.768120
loop_
_atom_site_label
_atom_site_type_symbol
_atom_site_fract_x
_atom_site_fract_y
_atom_site_fract_z
O1	O	1.720273	-0.133973	-0.097790
O2	O	1.347482	-0.073243	-0.104920
O3	O	1.542078	-0.218141	-0.087888
O4	O	1.525677	0.010925	-0.114822
O5	O	1.504972	-0.190419	0.135842
O6	O	1.310376	-0.045522	0.118810
O7	O	1.683168	-0.106251	0.125940
Zn8	Zn	1.490881	-0.071485	0.157897
Zn9	Zn	1.539769	-0.108009	-0.136877
O10	O	1.488572	0.038646	0.108909
C11	C	1.281188	-0.053707	0.006279
C12	C	1.138934	-0.036805	0.004295
C13	C	0.941816	-0.081018	0.009469
C14	C	1.088840	-0.098486	0.011540
C15	C	1.522171	-0.233145	0.027368
C16	C	1.518123	-0.319152	0.037472
C17	C	1.536450	-0.374665	-0.079735
C18	C	1.532637	-0.455476	-0.070237
C19	C	1.510506	-0.480773	0.056470
C20	C	1.492174	-0.425253	0.173686
C21	C	1.495978	-0.344442	0.164186
C22	C	1.498000	-0.724012	0.091253
C23	C	1.494202	-0.804831	0.100744
C24	C	1.534662	-0.835048	-0.143181
C25	C	1.538472	-0.754236	-0.152669
C26	C	1.520133	-0.698721	-0.035453
C27	C	1.506612	-0.563375	0.066181
C28	C	1.524018	-0.616119	-0.045166
C29	C	1.749462	-0.125788	0.014738
C30	C	1.891718	-0.142691	0.016713
C31	C	1.508479	0.053650	-0.006351
C32	C	1.512529	0.139656	-0.016464
N33	N	1.457526	-0.046560	0.359073
N34	N	1.573134	-0.132942	-0.338052
C35	C	1.528155	-0.099341	0.433056
C36	C	1.502494	-0.080153	0.587968
H37	H	0.957674	-0.208424	0.024439
H38	H	1.072985	0.028931	-0.003443
C39	C	1.635491	-0.179590	0.363697
N40	N	1.716332	-0.240039	0.311459
C41	C	1.395127	0.000087	0.657322
N42	N	1.314259	0.060523	0.709562
C43	C	1.177932	-0.187294	0.021994
N44	N	1.245037	-0.254182	0.029871
H45	H	1.652601	-0.192341	0.610609
C46	C	1.560795	-0.346847	-0.219124
N47	N	1.579127	-0.325895	-0.324116
H48	H	1.483093	-0.678826	0.186699
H49	H	1.378055	0.012830	0.410418
H50	H	1.547566	-0.500673	-0.165680
H51	H	1.556495	-0.733646	-0.255847
H52	H	1.549590	-0.880255	-0.238611
H53	H	0.875863	-0.015288	0.001727
H54	H	1.474147	-0.445855	0.276853
C55	C	1.475821	-0.283378	0.293124
N56	N	1.460634	-0.237384	0.390245
C57	C	1.469851	-0.832654	0.240137
N58	N	1.451512	-0.853611	0.345123
H59	H	1.488597	-0.583983	0.169347
C60	C	1.548369	-0.588289	-0.184539
N61	N	1.566718	-0.567323	-0.289516
