data_functionalizedCrystal
_audit_creation_method	'MofGen! by Chris Wilmer'
_symmetry_space_group_name_H-M	'P1'
_symmetry_Int_Tables_number	1
_symmetry_cell_setting	triclinic
loop_
_symmetry_equiv_pos_as_xyz
  x,y,z
_cell_length_a	6.817900
_cell_length_b	17.982959
_cell_length_c	11.168136
_cell_angle_alpha	94.260762
_cell_angle_beta	108.508683
_cell_angle_gamma	102.451857
loop_
_atom_site_label
_atom_site_type_symbol
_atom_site_fract_x
_atom_site_fract_y
_atom_site_fract_z
V1	V	-4.079252	-0.105424	-0.394227
O2	O	-4.070935	0.005054	-0.386179
O3	O	-4.025439	-0.209027	-0.392052
O4	O	-4.056012	-0.103808	-0.565924
O5	O	-4.040150	-0.100893	-0.211104
V6	V	-4.560321	-0.092209	-0.372260
O7	O	-4.345893	-0.134412	-0.442412
O8	O	-4.743877	-0.063221	-0.324075
O9	O	-4.390928	0.011394	-0.374435
O10	O	-4.686035	-0.202687	-0.380307
O11	O	-4.716820	-0.096740	-0.555383
O12	O	-4.360354	-0.093825	-0.200562
C13	C	-3.868309	-0.234283	-0.385968
C14	C	-3.905765	-0.318979	-0.385334
C15	C	-4.106204	-0.362651	-0.391355
C16	C	-4.141390	-0.442233	-0.390767
C17	C	-3.976129	-0.478141	-0.384150
C18	C	-3.775675	-0.434464	-0.378133
C19	C	-3.740496	-0.354884	-0.378730
C20	C	-3.917543	-0.755400	-0.375728
C21	C	-3.952736	-0.834985	-0.375128
C22	C	-4.318436	-0.842748	-0.387765
C23	C	-4.283258	-0.763168	-0.388362
C24	C	-4.082811	-0.719499	-0.382352
C25	C	-4.044662	-0.633207	-0.382991
C26	C	-4.014271	-0.564430	-0.383501
C27	C	-3.907307	-0.100064	-0.607757
C28	C	-3.969553	-0.099428	-0.748124
C29	C	-4.171094	-0.102758	-0.816833
C30	C	-4.235433	-0.102101	-0.961910
C31	C	-4.211399	0.036646	-0.380516
C32	C	-4.153183	0.121342	-0.381157
C33	C	-4.172401	-0.097571	-0.158723
C34	C	-4.089393	-0.098203	-0.018354
H35	H	-3.754328	-0.719853	-0.370827
H36	H	-3.641123	-0.463707	-0.372753
O37	O	-4.266663	-0.327703	-0.397946
C38	C	-4.311097	-0.292260	-0.508604
H39	H	-4.165000	-0.280409	-0.539851
H40	H	-4.452558	-0.332089	-0.588462
C41	C	-4.545334	-0.230306	-0.441014
C42	C	-4.365888	-0.215744	-0.479387
H43	H	-4.579141	-0.183109	-0.422996
H44	H	-4.515405	-0.254186	-0.366464
H45	H	-4.663197	-0.263498	-0.507570
H46	H	-4.248023	-0.182560	-0.412826
H47	H	-4.395798	-0.191856	-0.553925
H48	H	-4.408089	-0.104955	-1.020975
H49	H	-3.844636	-0.096085	-0.796704
O50	O	-3.883456	-0.094943	-0.948015
C51	C	-3.823948	-0.158766	-0.993739
H52	H	-3.973247	-0.207155	-1.046051
H53	H	-3.735211	-0.141058	-1.062242
C54	C	-3.493763	-0.127608	-0.816237
C55	C	-3.677134	-0.187042	-0.880478
H56	H	-3.403194	-0.145048	-0.746374
H57	H	-3.533850	-0.084607	-0.785433
H58	H	-3.419842	-0.112857	-0.873335
H59	H	-3.751065	-0.201785	-0.823384
H60	H	-3.637056	-0.230046	-0.911269
O61	O	-4.512989	-0.885235	-0.393440
C62	C	-4.490490	-0.921144	-0.283540
H63	H	-4.319066	-0.926251	-0.241325
H64	H	-4.529480	-0.885148	-0.209915
C65	C	-4.855352	-0.995823	-0.371825
C66	C	-4.644811	-1.002101	-0.319981
H67	H	-4.950550	-1.045760	-0.394300
H68	H	-4.870515	-0.971628	-0.445864
H69	H	-4.887814	-0.965823	-0.310461
H70	H	-4.612344	-1.032092	-0.381349
H71	H	-4.629647	-1.026303	-0.245952
O72	O	-4.336025	-0.484591	-0.396378
C73	C	-4.384849	-0.457144	-0.290455
H74	H	-4.230564	-0.425775	-0.210104
H75	H	-4.490579	-0.415701	-0.319583
C76	C	-4.693267	-0.564045	-0.342635
C77	C	-4.503770	-0.525524	-0.243942
H78	H	-4.766632	-0.606224	-0.313946
H79	H	-4.660380	-0.582536	-0.414000
H80	H	-4.781350	-0.529502	-0.366898
H81	H	-4.415680	-0.560065	-0.219691
H82	H	-4.536646	-0.507040	-0.172572
H83	H	-3.818153	-0.864219	-0.369748
H84	H	-4.417831	-0.733935	-0.393743
H85	H	-3.577283	-0.319328	-0.373833
H86	H	-4.296005	-0.106091	-0.768251
