data_functionalizedCrystal
_audit_creation_method	'MofGen! by Chris Wilmer'
_symmetry_space_group_name_H-M	'P1'
_symmetry_Int_Tables_number	1
_symmetry_cell_setting	triclinic
loop_
_symmetry_equiv_pos_as_xyz
  x,y,z
_cell_length_a	12.759401
_cell_length_b	13.897448
_cell_length_c	12.759393
_cell_angle_alpha	90.032272
_cell_angle_beta	90.020938
_cell_angle_gamma	90.019217
loop_
_atom_site_label
_atom_site_type_symbol
_atom_site_fract_x
_atom_site_fract_y
_atom_site_fract_z
Zn1	Zn	1.606245	-0.383929	0.594007
Zn2	Zn	2.106245	0.116071	1.094007
Zn3	Zn	1.606126	-0.545255	0.418322
Zn4	Zn	2.106126	-0.045255	0.918322
Zn5	Zn	1.430543	-0.383980	0.418342
Zn6	Zn	1.930543	0.116020	0.918342
Zn7	Zn	1.430526	-0.545188	0.593959
Zn8	Zn	1.930526	-0.045188	1.093959
O9	O	1.518360	-0.464588	0.506158
O10	O	2.018360	0.035412	1.006158
O11	O	1.753250	-0.405336	0.570714
O12	O	2.253250	0.094664	1.070714
O13	O	1.582793	-0.523912	0.271303
O14	O	2.082793	-0.023912	0.771303
O15	O	1.453907	-0.248992	0.441673
O16	O	1.953907	0.251008	0.941673
O17	O	1.753163	-0.523862	0.441638
O18	O	2.253163	-0.023862	0.941638
O19	O	1.582994	-0.248954	0.570734
O20	O	2.082994	0.251046	1.070734
O21	O	1.453793	-0.405423	0.271318
O22	O	1.953793	0.094577	0.771318
O23	O	1.283520	-0.405358	0.441627
O24	O	1.783520	0.094642	0.941627
O25	O	1.453878	-0.523747	0.740987
O26	O	1.953878	-0.023747	1.240987
O27	O	1.283507	-0.523797	0.570652
O28	O	1.783507	-0.023797	1.070652
O29	O	1.582977	-0.405271	0.741022
O30	O	2.082977	0.094729	1.241022
O31	O	1.582776	-0.680228	0.441592
O32	O	2.082776	-0.180228	0.941592
O33	O	1.453763	-0.680179	0.570632
O34	O	1.953763	-0.180179	1.070632
C35	C	1.245393	-0.464576	0.506137
C36	C	1.745393	0.035424	1.006137
C37	C	1.128616	-0.464595	0.506153
C38	C	1.628616	0.035405	1.006153
C39	C	1.073775	-0.526359	0.573230
C40	C	1.573775	-0.026359	1.073230
C41	C	0.964051	-0.526363	0.573251
C42	C	1.464051	-0.026363	1.073251
C43	C	0.964019	-0.402834	0.439108
C44	C	1.464019	0.097166	0.939108
C45	C	1.073741	-0.402827	0.439093
C46	C	1.573741	0.097173	0.939093
C47	C	1.518283	-0.715203	0.506127
C48	C	2.018283	-0.215203	1.006127
C49	C	1.518347	-0.822416	0.506149
C50	C	2.018347	-0.322416	1.006149
C51	C	1.518457	-1.018711	0.506215
C52	C	2.018457	-0.518711	1.006215
C53	C	1.518393	-0.909479	0.506182
C54	C	2.018393	-0.409479	1.006182
C55	C	1.792393	-0.464601	0.506179
C56	C	2.292393	0.035399	1.006179
C57	C	1.909170	-0.464606	0.506188
C58	C	2.409170	0.035394	1.006188
C59	C	1.518439	-0.464496	0.780191
C60	C	2.018439	0.035504	1.280191
C61	C	1.518472	-0.464456	0.896968
C62	C	2.018472	0.035544	1.396968
C63	C	1.518466	-0.212995	0.506211
C64	C	2.018466	0.287005	1.006211
C65	C	1.518511	-0.105781	0.506234
C66	C	2.018511	0.394219	1.006234
C67	C	1.518342	-0.464611	0.233190
C68	C	2.018342	0.035389	0.733190
C69	C	1.518512	-0.464379	0.116414
C70	C	2.018512	0.035621	0.616414
C71	C	1.585699	-0.402756	0.951850
C72	C	2.085699	0.097244	1.451850
C73	C	1.585717	-0.402714	1.061574
C74	C	2.085717	0.097286	1.561574
C75	C	1.451278	-0.526082	1.061524
C76	C	1.951278	-0.026082	1.561524
C77	C	1.451255	-0.526118	0.951802
C78	C	1.951255	-0.026118	1.451802
H79	H	0.919404	-0.576657	0.627874
H80	H	1.419404	-0.076657	1.127874
H81	H	1.396554	-0.576287	1.106184
H82	H	1.896554	-0.076287	1.606184
Br83	Br	1.360002	-0.609852	0.877312
Br84	Br	1.860002	-0.109852	1.377312
H85	H	1.118451	-0.576652	0.627837
H86	H	1.618451	-0.076652	1.127837
H87	H	0.919326	-0.352547	0.384509
H88	H	1.419326	0.147453	0.884509
H89	H	1.118394	-0.352524	0.384470
H90	H	1.618394	0.147476	0.884470
Br91	Br	1.676919	-0.319071	0.877435
Br92	Br	2.176919	0.180929	1.377435
H93	H	1.640459	-0.352470	1.106254
H94	H	2.140459	0.147530	1.606254
