data_functionalizedCrystal
_audit_creation_method	'MofGen! by Chris Wilmer'
_symmetry_space_group_name_H-M	'P1'
_symmetry_Int_Tables_number	1
_symmetry_cell_setting	triclinic
loop_
_symmetry_equiv_pos_as_xyz
  x,y,z
_cell_length_a	12.645331
_cell_length_b	12.645330
_cell_length_c	12.645323
_cell_angle_alpha	89.975130
_cell_angle_beta	89.984262
_cell_angle_gamma	90.016927
loop_
_atom_site_label
_atom_site_type_symbol
_atom_site_fract_x
_atom_site_fract_y
_atom_site_fract_z
Zn1	Zn	1.620731	-0.422053	-0.599250
Zn2	Zn	2.120731	0.077947	-0.099250
Zn3	Zn	1.620613	-0.599341	-0.421990
Zn4	Zn	2.120613	-0.099341	0.078010
Zn5	Zn	1.443446	-0.422089	-0.422016
Zn6	Zn	1.943446	0.077911	0.077984
Zn7	Zn	1.443428	-0.599272	-0.599227
Zn8	Zn	1.943428	-0.099272	-0.099227
O9	O	1.532054	-0.510689	-0.510621
O10	O	2.032054	-0.010689	-0.010621
O11	O	1.769063	-0.445584	-0.575735
O12	O	2.269063	0.054416	-0.075735
O13	O	1.597069	-0.575872	-0.273646
O14	O	2.097069	-0.075872	0.226354
O15	O	1.467020	-0.273737	-0.445547
O16	O	1.967020	0.226263	0.054453
O17	O	1.768976	-0.575836	-0.445503
O18	O	2.268976	-0.075836	0.054497
O19	O	1.597271	-0.273710	-0.575760
O20	O	2.097271	0.226290	-0.075760
O21	O	1.466905	-0.445646	-0.273665
O22	O	1.966905	0.054354	0.226335
O23	O	1.295096	-0.445580	-0.445524
O24	O	1.795096	0.054420	0.054476
O25	O	1.466989	-0.575720	-0.747577
O26	O	1.966989	-0.075720	-0.247577
O27	O	1.295083	-0.575755	-0.575721
O28	O	1.795083	-0.075755	-0.075721
O29	O	1.597253	-0.445517	-0.747594
O30	O	2.097253	0.054483	-0.247594
O31	O	1.597052	-0.747679	-0.445481
O32	O	2.097052	-0.247679	0.054519
O33	O	1.466874	-0.747629	-0.575696
O34	O	1.966874	-0.247629	-0.075696
C35	C	1.256625	-0.510665	-0.510623
C36	C	1.756625	-0.010665	-0.010623
C37	C	1.138795	-0.510680	-0.510650
C38	C	1.638795	-0.010680	-0.010650
C39	C	0.971258	-0.593022	-0.592129
C40	C	1.471258	-0.093022	-0.092129
C41	C	1.093818	-0.592757	-0.592470
C42	C	1.593818	-0.092757	-0.092470
C43	C	1.094316	-0.399025	-0.541171
C44	C	1.594316	0.100975	-0.041171
C45	C	0.971718	-0.399528	-0.541745
C46	C	1.471718	0.100472	-0.041745
C47	C	0.971549	-0.539093	-0.398390
C48	C	1.471549	-0.039093	0.101610
C49	C	1.094155	-0.541535	-0.398996
C50	C	1.594155	-0.041535	0.101004
C51	C	1.531977	-0.786118	-0.510606
C52	C	2.031977	-0.286118	-0.010606
C53	C	1.532041	-0.903948	-0.510635
C54	C	2.032041	-0.403948	-0.010635
C55	C	1.450484	-1.071525	-0.592806
C56	C	1.950484	-0.571525	-0.092806
C57	C	1.450067	-0.948966	-0.592542
C58	C	1.950067	-0.448966	-0.092542
C59	C	1.501796	-0.948542	-0.398917
C60	C	2.001796	-0.448542	0.101083
C61	C	1.501298	-1.071141	-0.399415
C62	C	2.001298	-0.571141	0.100585
C63	C	1.644342	-1.071039	-0.539276
C64	C	2.144342	-0.571039	-0.039276
C65	C	1.643654	-0.948432	-0.541719
C66	C	2.143654	-0.448432	-0.041719
C67	C	1.808560	-0.510714	-0.510619
C68	C	2.308560	-0.010714	-0.010619
C69	C	1.926390	-0.510724	-0.510618
C70	C	2.426390	-0.010724	-0.010618
C71	C	1.532132	-0.510607	-0.787126
C72	C	2.032132	-0.010607	-0.287126
C73	C	1.532166	-0.510572	-0.904956
C74	C	2.032166	-0.010572	-0.404956
C75	C	1.532161	-0.234183	-0.510659
C76	C	2.032161	0.265817	-0.010659
C77	C	1.532206	-0.116353	-0.510675
C78	C	2.032206	0.383647	-0.010675
C79	C	1.449964	-0.592096	-1.072510
C80	C	1.949964	-0.092096	-0.572510
C81	C	1.450179	-0.592500	-0.949950
C82	C	1.950179	-0.092500	-0.449950
C83	C	1.643865	-0.540892	-0.949463
C84	C	2.143865	-0.040892	-0.449463
C85	C	1.643414	-0.541403	-1.072061
C86	C	2.143414	-0.041403	-0.572061
C87	C	1.503724	-0.398272	-1.072158
C88	C	2.003724	0.101728	-0.572158
C89	C	1.501232	-0.398944	-0.949551
C90	C	2.001232	0.101056	-0.449551
C91	C	1.532038	-0.510694	-0.235191
C92	C	2.032038	-0.010694	0.264809
C93	C	1.532210	-0.510430	-0.117361
C94	C	2.032210	-0.010430	0.382639
H95	H	0.941766	-0.676095	-0.573212
H96	H	1.441766	-0.176095	-0.073212
F97	F	1.341374	-0.567531	-1.111037
F98	F	1.841374	-0.067531	-0.611037
H99	H	1.707747	-0.917783	-0.486255
H100	H	2.207747	-0.417783	0.013745
F101	F	0.931117	-0.643690	-0.362120
F102	F	1.431117	-0.143690	0.137880
F103	F	1.395767	-0.908536	-0.366672
F104	F	1.895767	-0.408536	0.133328
H105	H	1.558238	-1.100799	-0.336136
H106	H	2.058238	-0.600799	0.163864
H107	H	1.671932	-1.101884	-0.619356
H108	H	2.171932	-0.601884	-0.119356
H109	H	0.940466	-0.574491	-0.674802
H110	H	1.440466	-0.074491	-0.174802
F111	F	0.934366	-0.368079	-0.648981
F112	F	1.434366	0.131921	-0.148981
H113	H	1.419326	-1.099831	-0.375185
H114	H	1.919326	-0.599831	0.124815
H115	H	1.556760	-0.334882	-0.918923
H116	H	2.056760	0.165118	-0.418923
F117	F	1.582022	-0.318743	-1.110069
F118	F	2.082022	0.181257	-0.610069
H119	H	1.468983	-0.675648	-0.920633
H120	H	1.968983	-0.175648	-0.420633
H121	H	1.469234	-1.100937	-0.675916
H122	H	1.969234	-0.600937	-0.175916
F123	F	1.723928	-1.108946	-0.461102
F124	F	2.223928	-0.608946	0.038898
H125	H	1.667559	-0.623393	-1.100669
H126	H	2.167559	-0.123393	-0.600669
H127	H	1.666463	-0.919282	-0.623938
H128	H	2.166463	-0.419282	-0.123938
F129	F	1.132151	-0.648934	-0.368913
F130	F	1.632151	-0.148934	0.131087
H131	H	1.123449	-0.336041	-0.483657
H132	H	1.623449	0.163959	0.016343
F133	F	1.342506	-1.111931	-0.568375
F134	F	1.842506	-0.611931	-0.068375
F135	F	1.726182	-0.466985	-1.110846
F136	F	2.226182	0.033015	-0.610846
F137	F	1.341917	-0.567695	-0.910614
F138	F	1.841917	-0.067695	-0.410614
H139	H	1.124772	-0.485941	-0.335006
H140	H	1.624772	0.014059	0.164994
F141	F	1.133127	-0.700988	-0.567503
F142	F	1.633127	-0.200988	-0.067503
F143	F	1.474252	-0.700086	-1.112851
F144	F	1.974252	-0.200086	-0.612851
F145	F	1.341406	-0.910747	-0.567781
F146	F	1.841406	-0.410747	-0.067781
H147	H	1.123166	-0.573982	-0.675626
H148	H	1.623166	-0.073982	-0.175626
H149	H	0.942532	-0.479147	-0.337657
H150	H	1.442532	0.020853	0.162343
F151	F	1.577127	-0.910434	-0.316744
F152	F	2.077127	-0.410434	0.183256
F153	F	1.474798	-0.909549	-0.700819
F154	F	1.974798	-0.409549	-0.200819
F155	F	1.726113	-0.465605	-0.911374
F156	F	2.226113	0.034395	-0.411374
F157	F	1.675968	-0.646936	-0.909349
F158	F	2.175968	-0.146936	-0.409349
F159	F	1.399113	-0.362148	-1.112560
F160	F	1.899113	0.137852	-0.612560
F161	F	1.393784	-0.369060	-0.911542
F162	F	1.893784	0.130940	-0.411542
H163	H	0.942038	-0.336011	-0.485098
H164	H	1.442038	0.163989	0.014902
H165	H	1.125042	-0.374524	-0.622325
H166	H	1.625042	0.125476	-0.122325
