data_functionalizedCrystal
_audit_creation_method	'MofGen! by Chris Wilmer'
_symmetry_space_group_name_H-M	'P1'
_symmetry_Int_Tables_number	1
_symmetry_cell_setting	triclinic
loop_
_symmetry_equiv_pos_as_xyz
  x,y,z
_cell_length_a	17.038272
_cell_length_b	7.088638
_cell_length_c	8.559649
_cell_angle_alpha	84.664469
_cell_angle_beta	99.554890
_cell_angle_gamma	83.341953
loop_
_atom_site_label
_atom_site_type_symbol
_atom_site_fract_x
_atom_site_fract_y
_atom_site_fract_z
O1	O	1.025670	-0.158743	-0.328990
O2	O	0.798370	-0.158800	-0.323519
O3	O	0.932045	-0.158764	-0.096376
O4	O	0.891995	-0.158778	-0.556134
O5	O	0.914158	0.159221	-0.126775
O6	O	0.780483	0.159186	-0.353919
O7	O	1.007783	0.159242	-0.359389
Cu8	Cu	0.892500	0.188248	-0.359430
Cu9	Cu	0.913653	-0.187806	-0.323479
O10	O	0.874108	0.159207	-0.586533
C11	C	0.760597	0.000186	-0.333748
C12	C	0.674693	0.000164	-0.318916
C13	C	0.926137	0.000225	-0.052458
C14	C	0.935172	0.000217	0.123695
N15	N	0.877627	0.452745	-0.384715
C16	C	0.616422	0.000162	-0.455068
C17	C	0.535705	0.000188	-0.441128
C18	C	0.513263	0.000204	-0.291032
C19	C	0.571541	0.000212	-0.154870
C20	C	0.652255	0.000199	-0.168814
C21	C	0.270453	0.000257	-0.241773
C22	C	0.189733	0.000264	-0.227839
C23	C	0.153902	0.000244	-0.514098
C24	C	0.234620	0.000219	-0.528027
C25	C	0.292891	0.000237	-0.391866
C26	C	0.430758	0.000225	-0.276778
C27	C	0.375393	0.000230	-0.406123
C28	C	1.045557	0.000252	-0.349160
C29	C	1.131461	0.000261	-0.363991
N30	N	0.928533	-0.452302	-0.298182
C31	C	0.880016	0.000213	-0.630450
C32	C	0.870982	0.000209	-0.806602
H33	H	0.634687	0.000147	-0.577292
Cl34	Cl	0.796202	0.578844	-0.523141
H35	H	0.981269	0.466012	-0.208508
Cl36	Cl	0.775459	0.000189	0.077476
H37	H	0.412473	0.000292	-0.154575
Cl38	Cl	1.030698	0.000266	0.239621
H39	H	0.488262	0.000184	-0.551997
H40	H	0.252886	0.000184	-0.650248
H41	H	0.317889	0.000273	-0.130900
Cl42	Cl	0.161519	0.000327	-0.039137
H43	H	0.106450	0.000232	-0.624952
Cl44	Cl	0.403608	0.000216	-0.594808
Cl45	Cl	0.543327	0.000244	0.033821
H46	H	0.699701	0.000200	-0.057944
