data_functionalizedCrystal
_audit_creation_method	'MofGen! by Chris Wilmer'
_symmetry_space_group_name_H-M	'P1'
_symmetry_Int_Tables_number	1
_symmetry_cell_setting	triclinic
loop_
_symmetry_equiv_pos_as_xyz
  x,y,z
_cell_length_a	16.959455
_cell_length_b	16.120484
_cell_length_c	16.959447
_cell_angle_alpha	92.866589
_cell_angle_beta	89.983056
_cell_angle_gamma	92.922454
loop_
_atom_site_label
_atom_site_type_symbol
_atom_site_fract_x
_atom_site_fract_y
_atom_site_fract_z
Zn1	Zn	1.192415	-0.331957	-0.462851
Zn2	Zn	1.692415	0.168043	0.037149
Zn3	Zn	1.185616	-0.471385	-0.337369
Zn4	Zn	1.685616	0.028615	0.162631
Zn5	Zn	1.060236	-0.331983	-0.330690
Zn6	Zn	1.560236	0.168017	0.169310
Zn7	Zn	1.053495	-0.471323	-0.469504
Zn8	Zn	1.553495	0.028677	0.030496
O9	O	1.122941	-0.401662	-0.400103
O10	O	1.622941	0.098338	0.099897
O11	O	1.302123	-0.350467	-0.446216
O12	O	1.802123	0.149533	0.053784
O13	O	1.168959	-0.452930	-0.225873
O14	O	1.668959	0.047070	0.274127
O15	O	1.083437	-0.215314	-0.342642
O16	O	1.583437	0.284686	0.157358
O17	O	1.297128	-0.452905	-0.354025
O18	O	1.797128	0.047095	0.145975
O19	O	1.180548	-0.215295	-0.439740
O20	O	1.680548	0.284705	0.060260
O21	O	1.076844	-0.350512	-0.220967
O22	O	1.576844	0.149488	0.279033
O23	O	0.948732	-0.350452	-0.349093
O24	O	1.448732	0.149548	0.150907
O25	O	1.071948	-0.452798	-0.579231
O26	O	1.571948	0.047202	-0.079231
O27	O	0.943780	-0.452824	-0.451079
O28	O	1.443780	0.047176	0.048921
O29	O	1.174012	-0.350407	-0.574343
O30	O	1.674012	0.149593	-0.074343
O31	O	1.162423	-0.588042	-0.360476
O32	O	1.662423	-0.088042	0.139524
O33	O	1.065355	-0.587996	-0.457556
O34	O	1.565355	-0.087996	0.042444
C35	C	0.917576	-0.401634	-0.400084
C36	C	1.417576	0.098366	0.099916
C37	C	0.829719	-0.401643	-0.400095
C38	C	1.329719	0.098357	0.099905
C39	C	0.460799	-0.348313	-0.347103
C40	C	0.960799	0.151687	0.152897
C41	C	0.455682	-0.455079	-0.453153
C42	C	0.955682	0.044921	0.046847
C43	C	0.538229	-0.455067	-0.453147
C44	C	1.038229	0.044933	0.046853
C45	C	0.582064	-0.401678	-0.400118
C46	C	1.082064	0.098322	0.099882
C47	C	0.543353	-0.348301	-0.347094
C48	C	1.043353	0.151699	0.152906
C49	C	0.576946	-0.508449	-0.506165
C50	C	1.076946	-0.008449	-0.006165
C51	C	0.659498	-0.508440	-0.506161
C52	C	1.159498	-0.008440	-0.006161
C53	C	0.703334	-0.455046	-0.453135
C54	C	1.203334	0.044954	0.046865
C55	C	0.664618	-0.401666	-0.400109
C56	C	1.164618	0.098334	0.099891
C57	C	0.708453	-0.348277	-0.347080
C58	C	1.208453	0.151723	0.152920
C59	C	0.669739	-0.294893	-0.294058
C60	C	1.169739	0.205107	0.205942
C61	C	0.587190	-0.294907	-0.294068
C62	C	1.087190	0.205093	0.205932
C63	C	0.785884	-0.455032	-0.453125
C64	C	1.285884	0.044968	0.046875
C65	C	0.791007	-0.348266	-0.347071
C66	C	1.291007	0.151734	0.152929
C67	C	1.112441	-0.618269	-0.410480
C68	C	1.612441	-0.118269	0.089520
C69	C	1.108022	-0.710935	-0.414945
C70	C	1.608022	-0.210935	0.085055
C71	C	1.099958	-0.880595	-0.423114
C72	C	1.599958	-0.380595	0.076886
C73	C	1.146065	-0.921888	-0.377106
C74	C	1.646065	-0.421888	0.122894
C75	C	1.141578	-1.016293	-0.381651
C76	C	1.641578	-0.516293	0.118349
C77	C	1.104444	-0.786182	-0.418570
C78	C	1.604444	-0.286182	0.081430
C79	C	1.329107	-0.401690	-0.400123
C80	C	1.829107	0.098310	0.099877
C81	C	1.416963	-0.401702	-0.400132
C82	C	1.916963	0.098298	0.099868
C83	C	1.122986	-0.401593	-0.606268
C84	C	1.622986	0.098407	-0.106268
C85	C	1.123006	-0.401563	-0.694124
C86	C	1.623006	0.098437	-0.194124
C87	C	1.133503	-0.184209	-0.389704
C88	C	1.633503	0.315791	0.110296
C89	C	1.138003	-0.091543	-0.385272
C90	C	1.638003	0.408457	0.114728
C91	C	1.075119	-0.348151	-1.063047
C92	C	1.575119	0.151849	-0.563047
C93	C	1.171040	-0.454800	-1.068144
C94	C	1.671040	0.045200	-0.568144
C95	C	1.171025	-0.454819	-0.985599
C96	C	1.671025	0.045181	-0.485599
C97	C	1.123056	-0.401504	-0.941774
C98	C	1.623056	0.098496	-0.441774
C99	C	1.075101	-0.348170	-0.980494
C100	C	1.575101	0.151830	-0.480494
C101	C	1.218973	-0.508158	-0.946873
C102	C	1.718973	-0.008158	-0.446873
C103	C	1.218960	-0.508180	-0.864323
C104	C	1.718960	-0.008180	-0.364323
C105	C	1.170994	-0.454861	-0.820496
C106	C	1.670994	0.045139	-0.320496
C107	C	1.123038	-0.401524	-0.859221
C108	C	1.623038	0.098476	-0.359221
C109	C	1.075069	-0.348209	-0.815396
C110	C	1.575069	0.151791	-0.315396
C111	C	1.027116	-0.294868	-0.854120
C112	C	1.527116	0.205132	-0.354120
C113	C	1.027136	-0.294851	-0.936667
C114	C	1.527136	0.205149	-0.436667
C115	C	1.170975	-0.454878	-0.737948
C116	C	1.670975	0.045122	-0.237948
C117	C	1.075051	-0.348229	-0.732844
C118	C	1.575051	0.151771	-0.232844
C119	C	1.122944	-0.401671	-0.194738
C120	C	1.622944	0.098329	0.305262
C121	C	1.123089	-0.401465	-0.106872
C122	C	1.623089	0.098535	0.393128
H123	H	0.691012	-0.551909	-0.549336
H124	H	1.191012	-0.051909	-0.049336
F125	F	1.202063	-0.875425	-0.321156
F126	F	1.702063	-0.375425	0.178844
H127	H	1.036080	-0.304719	-1.094579
H128	H	1.536080	0.195281	-0.594579
F129	F	0.419597	-0.291496	-0.290679
F130	F	0.919597	0.208504	0.209321
F131	F	1.043961	-0.927058	-0.479056
F132	F	1.543961	-0.427058	0.020944
H133	H	1.210088	-0.498212	-1.103831
H134	H	1.710088	0.001788	-0.603831
H135	H	1.258005	-0.551615	-0.832801
H136	H	1.758005	-0.051615	-0.332801
F137	F	0.409028	-0.511911	-0.509574
F138	F	0.909028	-0.011911	-0.009574
F139	F	0.545981	-0.238097	-0.237643
F140	F	1.045981	0.261903	0.262357
H141	H	1.258018	-0.551573	-0.982561
H142	H	1.758018	-0.051573	-0.482561
H143	H	0.541249	-0.551922	-0.549333
H144	H	1.041249	-0.051922	-0.049333
F145	F	0.827083	-0.511848	-0.509547
F146	F	1.327083	-0.011848	-0.009547
H147	H	0.988056	-0.251462	-0.818427
H148	H	1.488056	0.248538	-0.318427
H149	H	1.035992	-0.304809	-0.697167
H150	H	1.535992	0.195191	-0.197167
F151	F	0.976104	-0.238088	-0.977885
F152	F	1.476104	0.261912	-0.477885
H153	H	0.826693	-0.304784	-0.303892
H154	H	1.326693	0.195216	0.196108
F155	F	0.716400	-0.238079	-0.237618
F156	F	1.216400	0.261921	0.262382
H157	H	1.210023	-0.498302	-0.706423
H158	H	1.710023	0.001698	-0.206423
