data_functionalizedCrystal
_audit_creation_method	'MofGen! by Chris Wilmer'
_symmetry_space_group_name_H-M	'P1'
_symmetry_Int_Tables_number	1
_symmetry_cell_setting	triclinic
loop_
_symmetry_equiv_pos_as_xyz
  x,y,z
_cell_length_a	12.759395
_cell_length_b	19.121063
_cell_length_c	12.759395
_cell_angle_alpha	87.574126
_cell_angle_beta	90.001380
_cell_angle_gamma	92.470426
loop_
_atom_site_label
_atom_site_type_symbol
_atom_site_fract_x
_atom_site_fract_y
_atom_site_fract_z
Zn1	Zn	1.588121	-0.279712	0.611803
Zn2	Zn	1.580536	-0.397135	0.443595
Zn3	Zn	1.412479	-0.279703	0.436139
Zn4	Zn	1.404877	-0.397132	0.619233
O5	O	1.496503	-0.338421	0.527692
O6	O	1.734136	-0.295293	0.589500
O7	O	1.558249	-0.381554	0.295584
O8	O	1.442134	-0.181418	0.453211
O9	O	1.728563	-0.381563	0.465918
O10	O	1.571178	-0.181425	0.582270
O11	O	1.434779	-0.295278	0.290107
O12	O	1.264450	-0.295276	0.460417
O13	O	1.429178	-0.381559	0.765269
O14	O	1.258865	-0.381550	0.594935
O15	O	1.563807	-0.295291	0.759810
O16	O	1.550878	-0.495420	0.473124
O17	O	1.421823	-0.495418	0.602165
C18	C	1.223536	-0.338412	0.527674
C19	C	1.106759	-0.338425	0.527692
C20	C	1.100973	-0.428408	0.667558
C21	C	1.043218	-0.473405	0.737495
C22	C	0.933496	-0.473413	0.737508
C23	C	0.881526	-0.428419	0.667579
C24	C	0.939280	-0.383422	0.597643
C25	C	1.049005	-0.383420	0.597635
C26	C	0.945067	-0.293437	0.457784
C27	C	1.054789	-0.293430	0.457763
C28	C	0.893097	-0.248442	0.387855
C29	C	0.950851	-0.203447	0.317912
C30	C	1.060580	-0.203441	0.317901
C31	C	1.112543	-0.248434	0.387827
C32	C	1.484731	-0.520904	0.539282
C33	C	1.479791	-0.598971	0.544276
C34	C	1.544715	-0.635625	0.479493
C35	C	1.540075	-0.708977	0.484195
C36	C	1.470505	-0.745674	0.553676
C37	C	1.405579	-0.709015	0.618466
C38	C	1.410225	-0.635664	0.613769
C39	C	1.453118	-0.967148	0.571224
C40	C	1.448475	-1.040504	0.575915
C41	C	1.582973	-1.040460	0.441644
C42	C	1.587608	-0.967108	0.436948
C43	C	1.522686	-0.930456	0.501742
C44	C	1.465758	-0.820652	0.558482
C45	C	1.527438	-0.855479	0.496941
C46	C	1.770536	-0.338430	0.527712
C47	C	1.887313	-0.338433	0.527720
C48	C	1.496491	-0.338426	0.801726
C49	C	1.496485	-0.338428	0.918503
C50	C	1.508350	-0.155225	0.516080
C51	C	1.513398	-0.077158	0.511132
C52	C	1.625068	-0.428277	1.143632
C53	C	1.689348	-0.473196	1.091613
C54	C	1.689344	-0.473194	0.981891
C55	C	1.625050	-0.428269	0.924186
C56	C	1.560770	-0.383350	0.976205
C57	C	1.560783	-0.383355	1.085930
C58	C	1.432205	-0.293508	0.970522
C59	C	1.432213	-0.293506	1.080244
C60	C	1.367911	-0.248583	0.912817
C61	C	1.303635	-0.203659	0.964836
C62	C	1.303643	-0.203663	1.074564
C63	C	1.367933	-0.248587	1.132263
C64	C	1.496506	-0.338432	1.254726
C65	C	1.496507	-0.338431	1.137949
H66	H	1.190314	-0.428411	0.667547
H67	H	1.251296	-0.167086	1.116912
H68	H	1.107597	-0.166794	0.260957
H69	H	1.409113	-0.850539	0.615052
H70	H	1.741692	-0.509776	1.138609
C71	C	0.870652	-0.522306	0.813273
C72	C	0.804736	-0.567249	0.756532
C73	C	0.746821	-0.612292	0.826292
H74	H	0.917191	-0.549167	0.854947
H75	H	0.829522	-0.495510	0.857403
H76	H	0.845863	-0.594043	0.712421
H77	H	0.758176	-0.540408	0.714862
H78	H	0.705690	-0.585495	0.870422
H79	H	0.793368	-0.639147	0.867962
H80	H	0.702083	-0.642787	0.787804
C81	C	1.367833	-0.248464	1.251382
C82	C	1.297797	-0.199501	1.284592
C83	C	1.297687	-0.199366	1.394318
H84	H	1.346701	-0.293748	1.279200
H85	H	1.436403	-0.236288	1.275467
H86	H	1.229241	-0.211682	1.260518
H87	H	1.318912	-0.154210	1.256803
H88	H	1.366258	-0.187189	1.418403
H89	H	1.276558	-0.244652	1.422126
H90	H	1.250177	-0.166141	1.416865
C91	C	1.099500	-0.522369	0.813361
C92	C	1.068307	-0.591836	0.794736
C93	C	1.120115	-0.636958	0.864615
H94	H	1.173128	-0.516019	0.803414
H95	H	1.082157	-0.512212	0.883352
H96	H	1.085657	-0.601990	0.724762
H97	H	0.994686	-0.598208	0.804691
H98	H	1.102772	-0.626801	0.934606
H99	H	1.193741	-0.630602	0.854662
H100	H	1.098951	-0.684096	0.851994
C101	C	1.625224	-0.428348	0.805064
C102	C	1.695291	-0.477293	0.771859
C103	C	1.695488	-0.477379	0.662130
H104	H	1.556697	-0.440513	0.780890
H105	H	1.646377	-0.383037	0.777329
H106	H	1.674134	-0.522594	0.799583
H107	H	1.763828	-0.465139	0.796005
H108	H	1.716640	-0.432068	0.634395
H109	H	1.626957	-0.489542	0.637966
H110	H	1.743034	-0.510582	0.639586
C111	C	1.662974	-0.927235	0.361378
C112	C	1.606207	-0.885191	0.291274
C113	C	1.675595	-0.848458	0.221630
H114	H	1.710558	-0.898525	0.399644
H115	H	1.700958	-0.959551	0.323408
H116	H	1.568241	-0.852877	0.329240
H117	H	1.558627	-0.913882	0.252984
H118	H	1.713578	-0.880775	0.183660
H119	H	1.723175	-0.819753	0.259905
H120	H	1.637088	-0.819932	0.174050
C121	C	1.620354	-0.595912	0.404020
C122	C	1.676237	-0.643715	0.348312
C123	C	1.745937	-0.607160	0.278787
H124	H	1.582130	-0.567331	0.356283
H125	H	1.667967	-0.567275	0.442391
H126	H	1.628630	-0.672340	0.309944
H127	H	1.714481	-0.672298	0.396021
H128	H	1.793551	-0.578524	0.317158
H129	H	1.707705	-0.578581	0.231058
H130	H	1.783869	-0.639589	0.240989
C131	C	0.773978	-0.248320	0.387968
C132	C	0.741979	-0.181491	0.410730
C133	C	0.632254	-0.181356	0.410852
H134	H	0.748245	-0.260346	0.320937
H135	H	0.746985	-0.281531	0.439660
H136	H	0.768960	-0.148290	0.359040
H137	H	0.767684	-0.169452	0.477760
H138	H	0.605261	-0.214567	0.462544
H139	H	0.606531	-0.193384	0.343820
H140	H	0.610528	-0.136015	0.426305
C141	C	0.894365	-0.154718	0.241873
C142	C	0.828819	-0.194416	0.176949
C143	C	0.776775	-0.149552	0.106878
H144	H	0.853457	-0.124147	0.280084
H145	H	0.944439	-0.127933	0.200154
H146	H	0.778751	-0.221189	0.218664
H147	H	0.869701	-0.224985	0.138715
H148	H	0.826849	-0.122767	0.065158
H149	H	0.735873	-0.118983	0.145098
H150	H	0.732303	-0.176480	0.062812
H151	H	1.741693	-0.509767	0.939538
H152	H	1.367908	-0.248587	0.823476
C153	C	1.372914	-1.080222	0.651471
C154	C	1.317073	-1.032424	0.707233
C155	C	1.247472	-1.068987	0.776850
H156	H	1.325260	-1.108875	0.613197
H157	H	1.411241	-1.108786	0.699161
H158	H	1.278748	-1.003872	0.659550
H159	H	1.364700	-1.003769	0.745528
H160	H	1.285800	-1.097551	0.824540
H161	H	1.199825	-1.097639	0.738568
H162	H	1.209583	-1.036562	0.814700
H163	H	1.635830	-1.070311	0.388894
C164	C	1.382798	-0.927327	0.641692
C165	C	1.444887	-0.885179	0.706414
C166	C	1.380139	-0.848492	0.771354
H167	H	1.338845	-0.898692	0.599753
H168	H	1.340720	-0.959671	0.683796
H169	H	1.486947	-0.852839	0.664314
H170	H	1.488838	-0.913797	0.748374
H171	H	1.338061	-0.880837	0.813458
H172	H	1.336189	-0.819861	0.729407
H173	H	1.422257	-0.819896	0.815282
H174	H	0.792185	-0.428424	0.667605
H175	H	1.348938	-0.738900	0.675044
H176	H	1.201884	-0.248435	0.387822
H177	H	1.592942	-0.738817	0.431441
H178	H	1.357358	-0.605821	0.666523
H179	H	1.584086	-0.825598	0.440373
H180	H	1.625088	-0.428277	1.232974
C181	C	1.233654	-0.154978	0.902245
C182	C	1.128715	-0.170277	0.929894
C183	C	1.064217	-0.125452	0.872242
H184	H	1.251947	-0.107761	0.917179
H185	H	1.242782	-0.161421	0.829440
H186	H	1.119593	-0.163828	1.002682
H187	H	1.110390	-0.217485	0.914957
H188	H	1.073345	-0.131895	0.799438
H189	H	1.082520	-0.078238	0.887181
H190	H	0.993009	-0.135830	0.890987
