data_functionalizedCrystal
_audit_creation_method	'MofGen! by Chris Wilmer'
_symmetry_space_group_name_H-M	'P1'
_symmetry_Int_Tables_number	1
_symmetry_cell_setting	triclinic
loop_
_symmetry_equiv_pos_as_xyz
  x,y,z
_cell_length_a	10.489741
_cell_length_b	17.699083
_cell_length_c	16.176319
_cell_angle_alpha	89.992434
_cell_angle_beta	89.994867
_cell_angle_gamma	83.911094
loop_
_atom_site_label
_atom_site_type_symbol
_atom_site_fract_x
_atom_site_fract_y
_atom_site_fract_z
O1	O	1.692076	0.106782	-0.068697
O2	O	1.320694	0.116805	-0.068710
O3	O	1.516877	0.001673	-0.068696
O4	O	1.495892	0.221914	-0.068711
O5	O	1.516848	0.001666	0.068797
O6	O	1.320665	0.116798	0.068783
O7	O	1.692047	0.106775	0.068796
Cu8	Cu	1.506353	0.111786	0.081344
Cu9	Cu	1.506387	0.111794	-0.081258
O10	O	1.495864	0.221907	0.068782
C11	C	1.516111	-0.026533	0.000051
C12	C	1.513855	-0.110565	0.000051
C13	C	1.273162	0.116044	0.000035
C14	C	1.131574	0.113779	0.000030
C15	C	1.629011	-0.158433	0.000056
C16	C	1.626883	-0.237390	0.000049
C17	C	1.509599	-0.268478	0.000042
C18	C	1.394435	-0.220605	0.000034
C19	C	1.396563	-0.141649	0.000036
C20	C	1.385848	-0.539024	0.000027
C21	C	1.383729	-0.617986	0.000028
C22	C	1.616168	-0.634765	0.000040
C23	C	1.618297	-0.555810	0.000042
C24	C	1.503133	-0.507943	0.000030
C25	C	1.505441	-0.422328	0.000036
C26	C	1.507290	-0.354091	0.000041
C27	C	1.064795	0.040524	0.000043
C28	C	0.972040	0.075133	-0.067749
C29	C	0.972045	0.075143	0.067808
C30	C	1.040684	0.148418	-0.067818
C31	C	1.040699	0.148418	0.067800
C32	C	0.947970	0.183080	-0.000008
C33	C	1.739579	0.107535	0.000049
C34	C	1.881166	0.109800	0.000048
C35	C	1.496630	0.250112	0.000033
C36	C	1.498886	0.334145	0.000028
N37	N	1.506339	0.111779	0.195709
C38	C	1.593234	0.060820	0.238979
C39	C	1.593240	0.060820	0.325526
C40	C	1.506355	0.111782	0.368801
C41	C	1.419450	0.162744	0.325525
C42	C	1.419440	0.162740	0.238979
C43	C	1.419489	0.162759	0.674553
C44	C	1.419509	0.162761	0.761105
C45	C	1.593290	0.060839	0.761100
C46	C	1.593279	0.060835	0.674555
C47	C	1.506371	0.111793	0.631286
C48	C	1.506364	0.111792	0.537441
C49	C	1.506366	0.111788	0.462644
N50	N	1.506400	0.111797	0.804377
H51	H	1.724517	-0.133128	0.000066
F52	F	1.327000	0.216994	0.628510
F53	F	0.881900	0.261875	-0.000060
H54	H	0.941613	0.044140	-0.125059
H55	H	1.348700	0.204236	0.360764
H56	H	1.070948	0.179393	-0.125196
F57	F	1.080514	0.188896	0.142712
F58	F	1.743126	-0.522728	0.000048
F59	F	1.258893	-0.651069	0.000020
F60	F	0.932294	0.034610	0.142722
H61	H	1.348752	0.204262	0.796338
F62	F	1.326949	0.216976	0.192929
F63	F	1.685717	0.006581	0.192931
F64	F	1.685722	0.006582	0.371578
F65	F	1.685783	0.006601	0.807156
F66	F	1.685758	0.006597	0.628502
H67	H	1.292075	-0.500060	0.000018
H68	H	1.298940	-0.245923	0.000024
F69	F	1.131156	-0.038200	-0.000038
F70	F	1.749448	-0.288332	0.000056
F71	F	1.273999	-0.090704	0.000028
F72	F	1.738737	-0.685715	0.000050
