data_functionalizedCrystal
_audit_creation_method	'MofGen! by Chris Wilmer'
_symmetry_space_group_name_H-M	'P1'
_symmetry_Int_Tables_number	1
_symmetry_cell_setting	triclinic
loop_
_symmetry_equiv_pos_as_xyz
  x,y,z
_cell_length_a	10.723022
_cell_length_b	15.500227
_cell_length_c	10.723024
_cell_angle_alpha	92.856340
_cell_angle_beta	95.532452
_cell_angle_gamma	92.871138
loop_
_atom_site_label
_atom_site_type_symbol
_atom_site_fract_x
_atom_site_fract_y
_atom_site_fract_z
O1	O	1.662944	0.071936	-0.169275
O2	O	1.299792	0.071939	-0.186030
O3	O	1.489745	0.071934	0.003924
O4	O	1.472992	0.071941	-0.359228
O5	O	1.478217	-0.071954	-0.007558
O6	O	1.288265	-0.071950	-0.197511
O7	O	1.651417	-0.071952	-0.180756
Cu8	Cu	1.468788	-0.085089	-0.190182
Cu9	Cu	1.482421	0.085076	-0.176604
O10	O	1.461465	-0.071948	-0.370710
C11	C	1.247529	-0.000005	-0.190552
C12	C	1.108974	-0.000004	-0.186905
N13	N	1.459209	-0.204774	-0.199731
C14	C	1.060413	-0.000005	-0.077365
C15	C	0.917211	-0.000004	-0.073593
C16	C	1.539727	-0.250052	-0.119271
C17	C	1.532494	-0.340625	-0.126505
C18	C	1.444749	-0.385917	-0.214205
C19	C	1.364222	-0.340632	-0.294669
C20	C	1.371450	-0.250061	-0.287428
C21	C	1.418711	-0.659384	-0.240268
C22	C	1.411492	-0.749961	-0.247505
C23	C	1.579763	-0.749947	-0.079339
C24	C	1.586988	-0.659375	-0.072111
C25	C	1.506457	-0.614098	-0.152570
C26	C	1.437356	-0.478497	-0.221604
C27	C	1.513845	-0.521519	-0.145164
C28	C	1.703680	-0.000006	-0.176234
C29	C	1.842235	-0.000002	-0.179881
N30	N	1.492010	0.204760	-0.167045
C31	C	1.482762	-0.000009	0.044683
C32	C	1.479114	-0.000006	0.183237
C33	C	1.468447	-0.000003	-0.411469
C34	C	1.472095	0.000000	-0.550023
C35	C	1.585402	-0.000005	0.258220
C36	C	1.581635	-0.000002	0.401424
H37	H	1.124856	-0.000003	0.013624
F38	F	1.024750	0.000005	-0.305838
H39	H	1.292771	-0.377515	-0.366072
H40	H	0.875400	0.000016	0.020196
H41	H	0.884038	-0.000006	-0.273673
H42	H	1.611184	-0.213181	-0.047862
F43	F	1.700570	-0.000008	0.485638
H44	H	1.598058	-0.377490	-0.060988
H45	H	1.385329	0.000001	0.225059
F46	F	1.707992	-0.000001	0.203564
H47	H	1.658438	-0.622499	-0.000699
F48	F	1.665461	-0.798140	0.006288
F49	F	1.318096	-0.798159	-0.340856
H50	H	1.305882	-0.213196	-0.352946
F51	F	1.333008	-0.611203	-0.325901
H52	H	1.585283	-0.484640	-0.073754
F53	F	1.353154	-0.000007	0.365770
F54	F	1.343973	-0.526706	-0.314943
