data_functionalizedCrystal
_audit_creation_method	'MofGen! by Chris Wilmer'
_symmetry_space_group_name_H-M	'P1'
_symmetry_Int_Tables_number	1
_symmetry_cell_setting	triclinic
loop_
_symmetry_equiv_pos_as_xyz
  x,y,z
_cell_length_a	20.299480
_cell_length_b	20.298645
_cell_length_c	20.294903
_cell_angle_alpha	60.007695
_cell_angle_beta	60.015306
_cell_angle_gamma	59.991039
loop_
_atom_site_label
_atom_site_type_symbol
_atom_site_fract_x
_atom_site_fract_y
_atom_site_fract_z
O1	O	0.091305	-0.962534	0.804873
O2	O	0.034397	-0.749399	0.648508
O3	O	0.169355	-0.884263	0.648401
O4	O	-0.043654	-0.827670	0.804979
O5	O	0.214132	-0.839502	0.693072
O6	O	0.079173	-0.704639	0.693178
O7	O	0.136081	-0.917774	0.849544
Zn8	Zn	0.114736	-0.804099	0.778453
Zn9	Zn	0.055742	-0.863073	0.719598
O10	O	0.001122	-0.782910	0.849650
N11	N	0.155000	-0.763857	0.818624
N12	N	0.015485	-0.903322	0.679427
C13	C	0.179343	-0.615641	0.842971
C14	C	0.179443	-0.739552	0.966834
C15	C	0.303264	-0.739536	0.842917
C16	C	0.179356	-0.739528	0.842952
C17	C	0.210353	-0.708565	0.873918
C18	C	-0.132622	-0.927446	0.654695
C19	C	-0.008595	-0.927622	0.530981
C20	C	-0.008820	-1.051459	0.654914
C21	C	-0.008800	-0.927618	0.654995
C22	C	-0.039709	-0.958538	0.623897
N23	N	0.376268	-0.763873	0.818558
O24	O	0.652281	-0.777347	0.619856
O25	O	0.652556	-0.934198	0.832777
O26	O	0.652445	-0.933836	0.697731
O27	O	0.652392	-0.777709	0.754902
O28	O	0.518259	-0.889182	0.742556
O29	O	0.518369	-0.889544	0.877602
O30	O	0.518095	-0.732693	0.664680
Zn31	Zn	0.496927	-0.804029	0.778258
Zn32	Zn	0.673724	-0.862862	0.719200
O33	O	0.518205	-0.733055	0.799726
N34	N	0.794383	-0.903019	0.678891
N35	N	0.154981	-0.542636	0.818657
O36	O	-0.043628	-0.266455	0.805024
O37	O	0.169291	-0.266451	0.648191
O38	O	0.034217	-0.266468	0.648577
O39	O	0.091446	-0.266438	0.804638
O40	O	0.078998	-0.400670	0.693303
O41	O	0.214071	-0.400653	0.692918
O42	O	0.001152	-0.400657	0.849750
Zn43	Zn	0.114722	-0.421963	0.778435
Zn44	Zn	0.055722	-0.245145	0.719506
O45	O	0.136226	-0.400640	0.849364
N46	N	0.015453	-0.124472	0.679286
N47	N	0.155155	-0.763898	1.039838
O48	O	0.141555	-0.962488	1.315987
O49	O	-0.015254	-0.749480	1.316022
O50	O	-0.014890	-0.884527	1.315962
O51	O	0.141192	-0.827441	1.316047
O52	O	0.029815	-0.839777	1.181768
O53	O	0.029452	-0.704730	1.181828
O54	O	0.186261	-0.917739	1.181793
Zn55	Zn	0.114954	-0.804130	1.160504
Zn56	Zn	0.056053	-0.863089	1.337311
O57	O	0.185897	-0.782692	1.181853
N58	N	0.015850	-0.903330	1.457977
C59	C	0.051451	-0.700162	0.649301
C60	C	0.218580	-0.867175	0.649169
C61	C	0.119026	-0.967011	0.848750
C62	C	-0.048103	-0.799998	0.848882
C63	C	0.585495	-0.933471	0.882014
C64	C	0.585361	-0.933023	0.714775
C65	C	0.585151	-0.733419	0.615444
C66	C	0.585291	-0.733869	0.782682
C67	C	0.218449	-0.333386	0.648902
C68	C	0.051232	-0.333573	0.649435
C69	C	-0.048061	-0.333556	0.848984
C70	C	0.119212	-0.333537	0.848507
C71	C	-0.014496	-0.700269	1.248929
C72	C	-0.014037	-0.867500	1.248828
C73	C	0.185503	-0.966949	1.248886
C74	C	0.185054	-0.799709	1.248957
H75	H	0.039295	-0.638935	0.600193
H76	H	-0.063051	-0.879692	1.248749
H77	H	0.131184	-1.028235	0.897860
H78	H	0.585279	-0.684826	0.794916
O79	O	0.291316	-0.333047	0.590114
C80	C	0.434965	-0.401937	0.550638
C81	C	0.352496	-0.402409	0.617286
H82	H	0.484449	-0.458018	0.572575
H83	H	0.446523	-0.345684	0.535580
H84	H	0.434965	-0.401781	0.494387
H85	H	0.352435	-0.402593	0.673579
H86	H	0.340971	-0.458656	0.632275
H87	H	-0.109285	-0.787936	0.898049
H88	H	0.279759	-0.879241	0.599998
H89	H	0.585565	-0.982710	0.943168
O90	O	0.036506	-0.333641	0.591050
C91	C	-0.059386	-0.333662	0.554173
C92	C	-0.042816	-0.333587	0.620365
H93	H	-0.123522	-0.333601	0.577844
H94	H	-0.014760	-0.389852	0.536563
H95	H	-0.052154	-0.277524	0.499081
H96	H	-0.050058	-0.389687	0.675500
H97	H	-0.087439	-0.277361	0.637907
H98	H	0.585383	-0.982069	0.702538
H99	H	-0.109209	-0.333558	0.898221
H100	H	0.585062	-0.684173	0.554297
O101	O	0.133974	-0.333578	0.906928
C102	C	0.229861	-0.333542	0.943800
C103	C	0.213255	-0.333507	0.877572
H104	H	0.293953	-0.333468	0.920085
H105	H	0.222733	-0.389724	0.998868
H106	H	0.185162	-0.277396	0.961464
H107	H	0.257940	-0.389615	0.859840
H108	H	0.220355	-0.277289	0.822548
O109	O	0.243480	-0.785000	1.248939
C110	C	0.280366	-0.689169	1.249031
C111	C	0.214134	-0.705712	1.249032
H112	H	0.256658	-0.625072	1.249123
H113	H	0.335428	-0.696335	1.192856
H114	H	0.298030	-0.733884	1.305177
H115	H	0.196401	-0.661013	1.192925
H116	H	0.159116	-0.698574	1.305244
H117	H	-0.063726	-0.639093	1.248939
O118	O	0.244139	-1.039985	1.248907
C119	C	0.281672	-1.172888	1.248801
C120	C	0.215189	-1.090219	1.248799
H121	H	0.258296	-1.213520	1.248696
H122	H	0.299273	-1.201936	1.304982
H123	H	0.336694	-1.164386	1.192662
H124	H	0.160124	-1.098651	1.304900
H125	H	0.197656	-1.061200	1.192580
