data_functionalizedCrystal
_audit_creation_method	'MofGen! by Chris Wilmer'
_symmetry_space_group_name_H-M	'P1'
_symmetry_Int_Tables_number	1
_symmetry_cell_setting	triclinic
loop_
_symmetry_equiv_pos_as_xyz
  x,y,z
_cell_length_a	12.827893
_cell_length_b	16.959453
_cell_length_c	12.827885
_cell_angle_alpha	89.965838
_cell_angle_beta	89.980538
_cell_angle_gamma	90.020148
loop_
_atom_site_label
_atom_site_type_symbol
_atom_site_fract_x
_atom_site_fract_y
_atom_site_fract_z
Zn1	Zn	1.597638	-0.314638	-0.590818
Zn2	Zn	1.597518	-0.446838	-0.416066
Zn3	Zn	1.422879	-0.314678	-0.416092
Zn4	Zn	1.422851	-0.446779	-0.590766
O5	O	1.510221	-0.380733	-0.503435
O6	O	1.743858	-0.332183	-0.567648
O7	O	1.574313	-0.429348	-0.269833
O8	O	1.446123	-0.204062	-0.439303
O9	O	1.743770	-0.429310	-0.439258
O10	O	1.574518	-0.204033	-0.567673
O11	O	1.446007	-0.332250	-0.269852
O12	O	1.276639	-0.332193	-0.439252
O13	O	1.446075	-0.429209	-0.737009
O14	O	1.276619	-0.429247	-0.567584
O15	O	1.574491	-0.332126	-0.737047
O16	O	1.574286	-0.557441	-0.439207
O17	O	1.445959	-0.557398	-0.567559
C18	C	1.238712	-0.380719	-0.503416
C19	C	1.122558	-0.380732	-0.503432
C20	C	1.070817	-0.332756	-0.567062
C21	C	0.950767	-0.332768	-0.567080
C22	C	1.510134	-0.586100	-0.503397
C23	C	1.510193	-0.673956	-0.503416
C24	C	1.577162	-1.045358	-0.570404
C25	C	1.443573	-1.045505	-0.436622
C26	C	1.443534	-0.962959	-0.436598
C27	C	1.510309	-0.921609	-0.503479
C28	C	1.577123	-0.962805	-0.570384
C29	C	1.376713	-0.921758	-0.369701
C30	C	1.376671	-0.839207	-0.369675
C31	C	1.443453	-0.797855	-0.436552
C32	C	1.510270	-0.839056	-0.503459
C33	C	1.577046	-0.797705	-0.570341
C34	C	1.643869	-0.838904	-0.637243
C35	C	1.643905	-0.921453	-0.637261
C36	C	1.443417	-0.715307	-0.436534
C37	C	1.577007	-0.715152	-0.570321
C38	C	1.782792	-0.380749	-0.503456
C39	C	1.898945	-0.380755	-0.503465
C40	C	1.510293	-0.380657	-0.776006
C41	C	1.510324	-0.380624	-0.892159
C42	C	1.510337	-0.174565	-0.503497
C43	C	1.510387	-0.086708	-0.503523
C44	C	1.446800	-0.428644	-0.943925
C45	C	1.446831	-0.428612	-1.063975
C46	C	1.510210	-0.380753	-0.231926
C47	C	1.510382	-0.380563	-0.115773
H48	H	1.115397	-0.291670	-0.621521
H49	H	1.564765	-0.339445	-1.071262
H50	H	1.322261	-0.805668	-0.315199
Br51	Br	1.734476	-0.782776	-0.728021
H52	H	1.392397	-0.469784	-0.899366
Br53	Br	1.352732	-0.659396	-0.345751
H54	H	1.392439	-0.469719	-1.108492
H55	H	1.564735	-0.339491	-0.936717
H56	H	0.906271	-0.291696	-0.621560
H57	H	1.631388	-0.681489	-0.624780
H58	H	0.943434	-0.421836	-0.448991
H59	H	1.077979	-0.421813	-0.448967
Br60	Br	1.734583	-0.977370	-0.728052
Br61	Br	1.667853	-1.101267	-0.661190
Br62	Br	1.352934	-1.101624	-0.345877
H63	H	1.322346	-0.955431	-0.315253
