data_functionalizedCrystal
_audit_creation_method	'MofGen! by Chris Wilmer'
_symmetry_space_group_name_H-M	'P1'
_symmetry_Int_Tables_number	1
_symmetry_cell_setting	triclinic
loop_
_symmetry_equiv_pos_as_xyz
  x,y,z
_cell_length_a	18.426585
_cell_length_b	17.052862
_cell_length_c	17.052862
_cell_angle_alpha	61.493325
_cell_angle_beta	90.001885
_cell_angle_gamma	70.264514
loop_
_atom_site_label
_atom_site_type_symbol
_atom_site_fract_x
_atom_site_fract_y
_atom_site_fract_z
Zr1	Zr	0.841097	0.816661	-0.200415
O2	O	0.760952	0.944557	-0.328547
O3	O	0.848020	0.665939	-0.146223
O4	O	0.886909	0.783741	-0.307034
O5	O	0.711460	0.860682	-0.057849
O6	O	1.006338	0.783737	-0.307027
O7	O	0.722063	0.826755	-0.167736
O8	O	0.936774	0.573011	-0.019366
O9	O	0.781024	1.071409	-0.345510
O10	O	0.961421	0.736384	-0.141122
O11	O	0.864379	0.761706	-0.059120
O12	O	0.910165	0.900403	-0.248454
O13	O	0.813123	0.925725	-0.166451
Zr14	Zr	1.014662	0.870765	-0.025146
Zr15	Zr	1.031573	0.816655	-0.200404
Zr16	Zr	0.824186	0.870771	-0.025157
Zr17	Zr	0.873110	1.018974	-0.227469
Zr18	Zr	0.982649	0.668452	0.001908
O19	O	1.007739	1.021487	-0.079338
O20	O	1.031784	0.944549	-0.328531
O21	O	0.736906	1.021495	-0.079354
O22	O	1.094808	0.742868	0.102986
O23	O	1.118853	0.665931	-0.146207
O24	O	0.823975	0.742876	0.102970
O25	O	1.144299	0.826743	-0.167712
O26	O	0.968851	0.903685	0.081473
O27	O	0.849421	0.903688	0.081466
O28	O	1.133696	0.860670	-0.057825
O29	O	0.932427	1.071404	-0.345501
O30	O	0.923332	0.616021	0.119940
O31	O	1.074735	0.616017	0.119949
O32	O	1.088177	0.573007	-0.019357
O33	O	0.767582	1.114419	-0.206204
O34	O	0.918985	1.114414	-0.206195
O35	O	0.945594	0.787023	0.022893
O36	O	1.042637	0.761701	-0.059110
O37	O	0.991381	0.925720	-0.166441
O38	O	0.894339	0.951042	-0.084439
C39	C	0.887836	0.590650	-0.078940
C40	C	0.874245	0.504762	-0.067455
C41	C	1.038555	0.209794	-0.206310
C42	C	1.051322	0.290492	-0.217107
C43	C	1.007055	0.344063	-0.179695
C44	C	0.950016	0.316929	-0.131484
C45	C	0.937243	0.236227	-0.120692
C46	C	0.905743	0.370497	-0.094077
C47	C	0.848705	0.343363	-0.045866
C48	C	0.835934	0.262668	-0.035076
C49	C	0.880202	0.209097	-0.072488
C50	C	0.918516	0.451198	-0.104869
C51	C	0.817204	0.477632	-0.019251
C52	C	0.804437	0.396934	-0.008454
C53	C	0.689623	0.843720	-0.112794
C54	C	0.608761	0.843722	-0.112799
C55	C	0.543091	0.843726	-0.112800
C56	C	0.460708	0.843724	-0.112791
C57	C	0.395047	0.843715	-0.112780
C58	C	0.312659	0.843712	-0.112773
C59	C	1.166136	0.843706	-0.112767
C60	C	1.246999	0.843704	-0.112762
C61	C	0.949033	0.776030	-0.332001
C62	C	0.956212	0.753058	-0.406402
C63	C	0.967923	1.096776	-0.146621
C64	C	0.981514	1.182663	-0.158106
C65	C	0.869417	1.030779	-0.840236
C66	C	0.862667	1.052365	-0.770334
C67	C	0.886053	0.977540	-0.679349
C68	C	0.916189	0.881126	-0.658270
C69	C	0.922934	0.859538	-0.728179
C70	C	0.939570	0.806299	-0.567291
C71	C	0.969707	0.709885	-0.546212
C72	C	0.976451	0.688302	-0.616116
C73	C	0.953065	0.763126	-0.707101
C74	C	0.932825	0.827887	-0.497382
C75	C	0.986343	0.656646	-0.385325
C76	C	0.993093	0.635061	-0.455227
C77	C	0.906726	0.911396	0.106440
C78	C	0.899547	0.934367	0.180841
C79	C	1.126093	0.590643	-0.078926
C80	C	1.193364	0.504753	-0.067436
C81	C	0.866683	0.658333	0.140280
C82	C	0.845913	0.595417	0.226167
C83	C	1.104939	0.658326	0.140294
C84	C	1.165032	0.595408	0.226185
C85	C	0.750820	1.029100	-0.365855
C86	C	0.690727	1.092018	-0.451746
C87	C	0.729667	1.096783	-0.146635
C88	C	0.662395	1.182672	-0.158125
C89	C	0.989077	1.029093	-0.365841
C90	C	1.009846	1.092009	-0.451728
C91	C	1.182563	0.451201	-0.104858
C92	C	1.245768	0.370505	-0.094080
C93	C	1.319772	0.343358	-0.045874
C94	C	1.330573	0.396919	-0.008453
C95	C	1.267370	0.477617	-0.019237
C96	C	0.878552	0.579088	0.309317
C97	C	0.859035	0.519985	0.390022
C98	C	0.806882	0.477206	0.387575
C99	C	0.774239	0.493540	0.304415
C100	C	0.793752	0.552648	0.223712
C101	C	1.243915	0.552643	0.223716
C102	C	1.300388	0.493533	0.304412
C103	C	1.277975	0.477184	0.387576
C104	C	1.199085	0.519957	0.390043
C105	C	1.142614	0.579071	0.309347
C106	C	0.611846	1.134793	-0.449279
C107	C	0.555377	1.193927	-0.529978
C108	C	0.577790	1.210280	-0.613143
C109	C	0.656680	1.167503	-0.615608
C110	C	0.713148	1.108375	-0.534911
C111	C	0.673199	1.236231	-0.120712
C112	C	0.609999	1.316943	-0.131512
C113	C	0.535995	1.344092	-0.179720
C114	C	0.525193	1.290529	-0.217138
C115	C	0.588394	1.209822	-0.206343
C116	C	1.062002	1.134770	-0.449251
C117	C	1.081532	1.193878	-0.529942
C118	C	1.048902	1.210229	-0.613110
C119	C	0.996744	1.167460	-0.615584
C120	C	0.977219	1.108348	-0.534893
H121	H	0.869814	0.143381	-0.063695
H122	H	1.017453	0.409771	-0.188489
Cl123	Cl	0.684843	1.188066	-0.720166
H124	H	1.262178	0.565943	0.156008
H125	H	0.464931	1.312646	-0.256390
H126	H	1.371229	0.277645	-0.037099
H127	H	0.789484	0.240585	0.004172
H128	H	1.124000	1.228697	-0.527911
H129	H	0.491145	1.228748	-0.527952
H130	H	0.531802	1.258428	-0.678845
Cl131	Cl	0.752717	0.573160	0.119184
H132	H	1.097762	0.312582	-0.256361
Cl133	Cl	0.911641	1.054606	-0.538024
Cl134	Cl	0.812312	1.054598	-0.538028
Cl135	Cl	1.094191	0.142453	-0.253347
H136	H	1.005382	0.595718	-0.311240
H137	H	1.236958	0.326904	-0.124555
H138	H	1.390836	0.374804	0.030796
Cl139	Cl	0.623595	1.384261	-0.084461
Cl140	Cl	0.944120	0.632854	0.312417
Cl141	Cl	0.732737	0.362809	0.052156
H142	H	1.017629	0.556560	-0.438076
Cl143	Cl	1.170921	0.499393	0.494601
Cl144	Cl	1.280961	0.544927	0.027822
H145	H	0.781156	0.521252	0.011211
H146	H	0.885623	0.506694	0.457725
H147	H	1.064807	1.258364	-0.678807
H148	H	0.850374	1.091691	-0.914318
Cl149	Cl	0.894943	0.949090	-0.523889
H150	H	1.364620	0.458711	0.302388
Cl151	Cl	0.990220	0.485299	-0.165473
H152	H	1.122312	0.473298	-0.144122
H153	H	0.880555	0.995121	-0.622435
H154	H	0.970181	1.180782	-0.683310
H155	H	0.733450	1.214136	-0.081451
Cl156	Cl	0.456550	1.445555	-0.193281
Cl157	Cl	0.574796	1.142494	-0.253376
H158	H	0.838130	1.130866	-0.787503
Cl159	Cl	0.782360	0.402899	0.489040
Cl160	Cl	0.583649	1.114249	-0.344739
Cl161	Cl	1.014323	0.567095	-0.589615
Cl162	Cl	0.961549	0.735994	-0.794985
Cl163	Cl	0.708678	0.439751	0.301355
Cl164	Cl	1.103034	1.114228	-0.344708
H165	H	1.078384	0.613883	0.311371
Cl166	Cl	1.348977	0.402864	0.489016
