data_functionalizedCrystal
_audit_creation_method	'MofGen! by Chris Wilmer'
_symmetry_space_group_name_H-M	'P1'
_symmetry_Int_Tables_number	1
_symmetry_cell_setting	triclinic
loop_
_symmetry_equiv_pos_as_xyz
  x,y,z
_cell_length_a	18.050582
_cell_length_b	12.759401
_cell_length_c	12.759399
_cell_angle_alpha	90.015775
_cell_angle_beta	90.016169
_cell_angle_gamma	90.014001
loop_
_atom_site_label
_atom_site_type_symbol
_atom_site_fract_x
_atom_site_fract_y
_atom_site_fract_z
Zn1	Zn	-0.419913	-1.606198	0.418283
Zn2	Zn	-0.295739	-1.606111	0.593966
Zn3	Zn	-0.295741	-1.430518	0.418306
Zn4	Zn	-0.419891	-1.430490	0.593925
O5	O	-0.357821	-1.518329	0.506120
O6	O	-0.403449	-1.753207	0.441595
O7	O	-0.191814	-1.582794	0.570691
O8	O	-0.312223	-1.453870	0.271282
O9	O	-0.312219	-1.753144	0.570669
O10	O	-0.403452	-1.582941	0.271265
O11	O	-0.191816	-1.453786	0.441635
O12	O	-0.312202	-1.283493	0.441595
O13	O	-0.523819	-1.453822	0.570599
O14	O	-0.403414	-1.283472	0.570622
O15	O	-0.523835	-1.582914	0.441555
O16	O	-0.312197	-1.582767	0.740982
O17	O	-0.403412	-1.453738	0.740952
C18	C	-0.357818	-1.518269	0.779087
C19	C	-0.357842	-1.518339	0.895864
C20	C	-0.357806	-1.245362	0.506107
C21	C	-0.357818	-1.128585	0.506127
C22	C	-0.551527	-1.518375	0.506070
C23	C	-0.634073	-1.518394	0.506049
C24	C	-0.882889	-1.448259	0.576108
C25	C	-0.833494	-1.422573	0.480282
C26	C	-0.931193	-1.518483	0.505894
C27	C	-0.833507	-1.544075	0.601792
C28	C	-0.785208	-1.518437	0.505975
C29	C	-0.882885	-1.492747	0.410017
C30	C	-0.882902	-1.614294	0.531591
C31	C	-0.833529	-1.588644	0.435699
C32	C	-1.015291	-1.518507	0.505849
C33	C	-0.701111	-1.518413	0.506010
C34	C	-0.164869	-1.518344	0.506094
C35	C	-0.082324	-1.518529	0.505819
C36	C	-0.357836	-1.792362	0.506134
C37	C	-0.357843	-1.909139	0.506140
C38	C	-0.405237	-1.073740	0.573413
C39	C	-0.405252	-0.964016	0.573417
C40	C	-0.310421	-0.963992	0.438846
C41	C	-0.310411	-1.073714	0.438837
C42	C	-0.310403	-1.585602	0.950707
C43	C	-0.310434	-1.585671	1.060431
C44	C	-0.405343	-1.451206	1.060460
C45	C	-0.405316	-1.451143	0.950738
C46	C	-0.357853	-1.518422	1.232087
C47	C	-0.357899	-1.518471	1.115310
H48	H	-0.811791	-1.341528	0.458575
H49	H	-0.443841	-1.118413	0.628202
H50	H	-0.271748	-1.640319	0.906031
O51	O	-0.264354	-1.650894	1.113852
C52	C	-0.216355	-1.591209	1.177444
H53	H	-0.242467	-1.511547	1.193898
H54	H	-0.206511	-1.634067	1.254583
H55	H	-0.161273	-1.579751	1.135274
O56	O	-0.807703	-1.659453	0.364905
C57	C	-0.729599	-1.659235	0.366306
H58	H	-0.709276	-1.627958	0.444924
H59	H	-0.708339	-1.742540	0.354584
H60	H	-0.708026	-1.607031	0.300546
O61	O	-0.451382	-1.385961	1.113929
C62	C	-0.441246	-1.400454	1.222533
H63	H	-0.383959	-1.434924	1.237540
H64	H	-0.446243	-1.321776	1.264294
H65	H	-0.485340	-1.456379	1.253586
O66	O	-0.264266	-0.910800	0.373543
C67	C	-0.190218	-0.937547	0.396372
H68	H	-0.188622	-1.017206	0.436746
H69	H	-0.157006	-0.941294	0.320481
H70	H	-0.165147	-0.875772	0.450345
H71	H	-0.904621	-1.695316	0.553327
O72	O	-0.908770	-1.466747	0.313353
C73	C	-0.986875	-1.467066	0.314483
H74	H	-1.007325	-1.455369	0.398195
H75	H	-1.008437	-1.400808	0.262905
H76	H	-1.008022	-1.545275	0.283262
O77	O	-0.807722	-1.569811	0.698580
C78	C	-0.832860	-1.495574	0.772303
H79	H	-0.884855	-1.455577	0.741141
H80	H	-0.846180	-1.536747	0.849311
H81	H	-0.787871	-1.434370	0.786073
H82	H	-0.443867	-0.919366	0.628207
H83	H	-0.904563	-1.388848	0.635376
O84	O	-0.264307	-1.127113	0.373619
C85	C	-0.216253	-1.190525	0.433337
H86	H	-0.242350	-1.206956	0.513008
H87	H	-0.206347	-1.267687	0.390520
H88	H	-0.161206	-1.148211	0.444773
O89	O	-0.451424	-1.385700	0.897619
C90	C	-0.493341	-1.326417	0.969577
H91	H	-0.462941	-1.322844	1.047822
H92	H	-0.501206	-1.243617	0.937933
H93	H	-0.549769	-1.364850	0.981164
