data_functionalizedCrystal
_audit_creation_method	'MofGen! by Chris Wilmer'
_symmetry_space_group_name_H-M	'P1'
_symmetry_Int_Tables_number	1
_symmetry_cell_setting	triclinic
loop_
_symmetry_equiv_pos_as_xyz
  x,y,z
_cell_length_a	15.944545
_cell_length_b	15.944493
_cell_length_c	9.798715
_cell_angle_alpha	90.002726
_cell_angle_beta	89.999098
_cell_angle_gamma	83.485608
loop_
_atom_site_label
_atom_site_type_symbol
_atom_site_fract_x
_atom_site_fract_y
_atom_site_fract_z
O1	O	1.114504	0.108308	-0.113385
O2	O	0.869951	0.121670	-0.113405
O3	O	0.998931	-0.007289	-0.113405
O4	O	0.985524	0.237267	-0.113384
O5	O	0.998922	-0.007289	0.113577
O6	O	0.869941	0.121670	0.113578
O7	O	1.114495	0.108308	0.113598
Zn8	Zn	0.992216	0.114989	0.149626
Zn9	Zn	0.992229	0.114989	-0.149433
O10	O	0.985514	0.237267	0.113598
C11	C	0.838652	0.121116	0.000084
C12	C	0.745406	0.119456	0.000075
C13	C	0.474791	0.034560	0.000082
C14	C	0.525360	0.075490	0.112003
C15	C	0.409764	0.113535	0.000098
C16	C	0.525350	0.075511	-0.111783
C17	C	0.574677	0.116440	0.000085
C18	C	0.459104	0.154444	0.112111
C19	C	0.459090	0.154454	-0.111776
C20	C	0.509626	0.195442	0.000173
C21	C	0.314762	0.111859	0.000107
C22	C	0.669676	0.118122	0.000085
C23	C	0.998378	-0.038584	0.000080
C24	C	0.996735	-0.131833	0.000062
C25	C	1.072656	-0.367594	0.000094
C26	C	1.031720	-0.418161	-0.111822
C27	C	0.993691	-0.302554	0.000079
C28	C	1.031692	-0.418138	0.111964
C29	C	0.990757	-0.467463	0.000101
C30	C	0.952776	-0.351892	-0.111930
C31	C	0.952760	-0.351865	0.111957
C32	C	0.911766	-0.402400	0.000013
C33	C	0.995384	-0.207554	0.000065
C34	C	0.989058	-0.562460	0.000105
C35	C	1.145793	0.108862	0.000106
C36	C	1.239039	0.110522	0.000106
C37	C	0.986067	0.268562	0.000110
C38	C	0.987710	0.361811	0.000119
N39	N	0.992214	0.114988	0.353726
N40	N	0.992238	0.114983	-0.353533
C41	C	1.046371	0.060605	0.421502
C42	C	1.046385	0.060602	0.578665
H43	H	0.554293	0.042136	0.206617
C44	C	0.820964	-0.422908	0.000143
C45	C	0.779531	-0.387860	0.116300
C46	C	0.695883	-0.406727	0.116450
H47	H	0.820282	-0.482399	0.000968
H48	H	0.793003	-0.399973	-0.079373
H49	H	0.807484	-0.410798	0.195796
H50	H	0.780189	-0.328369	0.115499
H51	H	0.667922	-0.383793	0.036934
H52	H	0.695209	-0.466219	0.117272
H53	H	0.667758	-0.382944	0.195255
C54	C	0.420582	0.199025	-0.237890
C55	C	0.439190	0.282756	-0.238743
C56	C	0.403740	0.323830	-0.354919
H57	H	0.361112	0.198193	-0.236642
H58	H	0.443396	0.170926	-0.317373
H59	H	0.416373	0.310848	-0.159281
H60	H	0.498653	0.283613	-0.240011
H61	H	0.426554	0.295731	-0.434403
H62	H	0.344272	0.322992	-0.353662
H63	H	0.416367	0.380644	-0.355521
H64	H	0.430283	0.187772	0.206833
C65	C	1.108304	-0.001525	0.656124
C66	C	1.158266	-0.051682	0.563102
C67	C	1.215323	-0.108918	0.634410
H68	H	1.078056	-0.036461	0.711874
H69	H	1.143378	0.028614	0.711832
H70	H	1.123197	-0.081819	0.507418
H71	H	1.188532	-0.016769	0.507349
H72	H	1.250397	-0.078779	0.690118
H73	H	1.185069	-0.143848	0.690158
H74	H	1.249235	-0.142951	0.571306
H75	H	0.945872	0.161548	0.588191
H76	H	0.525104	0.263508	0.000244
H77	H	1.065052	-0.447070	0.206575
H78	H	0.459152	-0.033454	0.000185
H79	H	0.945855	0.161542	0.412050
C80	C	0.563823	0.030890	-0.237900
C81	C	0.546497	-0.053252	-0.237381
C82	C	0.581912	-0.094386	-0.353539
H83	H	0.623177	0.032615	-0.237549
H84	H	0.540231	0.058335	-0.317407
H85	H	0.570092	-0.080689	-0.157895
H86	H	0.487150	-0.055002	-0.237752
H87	H	0.558320	-0.066941	-0.433045
H88	H	0.641265	-0.092654	-0.353178
H89	H	0.570155	-0.151478	-0.353209
C90	C	1.163350	-0.346760	-0.000358
C91	C	1.204317	-0.380446	-0.117826
C92	C	1.287853	-0.361242	-0.118320
H93	H	1.191800	-0.370408	0.078239
H94	H	1.163776	-0.287226	0.000369
H95	H	1.203896	-0.439968	-0.118540
H96	H	1.175893	-0.356803	-0.196441
H97	H	1.288278	-0.301708	-0.117593
H98	H	1.316294	-0.384891	-0.039718
H99	H	1.315657	-0.384088	-0.198026
H100	H	1.065072	-0.447108	-0.206435
H101	H	0.919451	-0.323072	-0.206648
H102	H	0.919437	-0.322904	0.206573
H103	H	1.092725	0.014044	0.363179
