data_functionalizedCrystal
_audit_creation_method	'MofGen! by Chris Wilmer'
_symmetry_space_group_name_H-M	'P1'
_symmetry_Int_Tables_number	1
_symmetry_cell_setting	triclinic
loop_
_symmetry_equiv_pos_as_xyz
  x,y,z
_cell_length_a	14.853567
_cell_length_b	9.065218
_cell_length_c	8.140239
_cell_angle_alpha	89.998314
_cell_angle_beta	90.000249
_cell_angle_gamma	84.325408
loop_
_atom_site_label
_atom_site_type_symbol
_atom_site_fract_x
_atom_site_fract_y
_atom_site_fract_z
O1	O	1.197788	0.192614	-0.136493
O2	O	0.935498	0.215559	-0.136521
O3	O	1.072065	-0.010663	-0.136503
O4	O	1.061222	0.418836	-0.136511
O5	O	1.072057	-0.010666	0.136724
O6	O	0.935491	0.215556	0.136706
O7	O	1.197780	0.192611	0.136734
Zn8	Zn	1.066634	0.204083	0.180101
Zn9	Zn	1.066644	0.204087	-0.179888
O10	O	1.061214	0.418834	0.136716
C11	C	1.071019	-0.065631	0.000108
C12	C	1.067903	-0.229412	0.000100
C13	C	0.901898	0.214518	0.000089
C14	C	0.801791	0.211403	0.000079
C15	C	0.388166	0.063852	0.000118
C16	C	0.368873	0.332609	0.000112
C17	C	0.462929	0.335539	0.000106
C18	C	0.519607	0.202622	0.000104
C19	C	0.482230	0.066777	0.000108
C20	C	0.500313	0.471382	0.000086
C21	C	0.594374	0.474316	0.000079
C22	C	0.651054	0.341399	0.000089
C23	C	0.613672	0.205548	0.000094
C24	C	0.670350	0.072632	0.000092
C25	C	0.632969	-0.063221	0.000109
C26	C	0.538910	-0.066141	0.000118
C27	C	0.745113	0.344319	0.000081
C28	C	0.764414	0.075557	0.000082
C29	C	1.231381	0.193652	0.000120
C30	C	1.331487	0.196768	0.000120
C31	C	1.062260	0.473801	0.000102
C32	C	1.065376	0.637582	0.000099
N33	N	1.066634	0.204080	0.425783
N34	N	1.066652	0.204078	-0.425570
H35	H	0.810556	-0.032681	0.000087
H36	H	0.357726	-0.046756	0.000138
O37	O	0.688160	-0.192195	0.000176
C38	C	0.841622	-0.306770	0.000042
C39	C	0.779220	-0.160604	0.000006
H40	H	0.915257	-0.281280	-0.000131
H41	H	0.827970	-0.373633	0.114421
H42	H	0.827828	-0.373617	-0.114269
H43	H	0.792978	-0.093638	0.114239
H44	H	0.792884	-0.093853	-0.114449
H45	H	0.508466	-0.176745	0.000171
H46	H	0.322721	0.440823	0.000099
H47	H	0.454159	0.579594	0.000071
O48	O	0.781574	0.476139	-0.000006
C49	C	0.917926	0.599759	0.000085
C50	C	0.876755	0.450361	0.000139
H51	H	0.994885	0.578969	0.000237
H52	H	0.894740	0.665469	-0.114292
H53	H	0.894620	0.665451	0.114398
H54	H	0.900042	0.384548	-0.114097
H55	H	0.899937	0.384763	0.114592
H56	H	0.624801	0.584935	0.000065
