data_functionalizedCrystal
_audit_creation_method	'MofGen! by Chris Wilmer'
_symmetry_space_group_name_H-M	'P1'
_symmetry_Int_Tables_number	1
_symmetry_cell_setting	triclinic
loop_
_symmetry_equiv_pos_as_xyz
  x,y,z
_cell_length_a	19.288864
_cell_length_b	19.288859
_cell_length_c	18.366186
_cell_angle_alpha	90.003625
_cell_angle_beta	90.022894
_cell_angle_gamma	83.134987
loop_
_atom_site_label
_atom_site_type_symbol
_atom_site_fract_x
_atom_site_fract_y
_atom_site_fract_z
O1	O	0.921351	0.086649	0.060779
O2	O	1.254684	0.419982	0.394112
O3	O	1.588018	0.753316	0.727446
O4	O	0.719090	0.098338	0.060729
O5	O	1.052423	0.431671	0.394062
O6	O	1.385757	0.765004	0.727395
O7	O	0.826067	-0.008637	0.060755
O8	O	1.159400	0.324696	0.394089
O9	O	1.492734	0.658029	0.727422
O10	O	0.814374	0.193624	0.060752
O11	O	1.147707	0.526957	0.394086
O12	O	1.481040	0.860291	0.727419
O13	O	0.826049	-0.008643	-0.060344
O14	O	1.159382	0.324691	0.272989
O15	O	1.492716	0.658024	0.606323
O16	O	0.719072	0.098332	-0.060371
O17	O	1.052405	0.431666	0.272963
O18	O	1.385738	0.764999	0.606296
O19	O	0.921333	0.086644	-0.060320
O20	O	1.254666	0.419977	0.273013
O21	O	1.587999	0.753310	0.606346
Zn22	Zn	0.820199	0.092487	-0.079573
Zn23	Zn	1.153533	0.425821	0.253761
Zn24	Zn	1.486866	0.759154	0.587094
Zn25	Zn	0.820223	0.092494	0.079981
Zn26	Zn	1.153557	0.425827	0.413314
Zn27	Zn	1.486890	0.759161	0.746648
O28	O	0.814356	0.193619	-0.060347
O29	O	1.147689	0.526952	0.272986
O30	O	1.481022	0.860285	0.606320
C31	C	0.693204	0.097959	0.000173
C32	C	1.026538	0.431292	0.333506
C33	C	1.359871	0.764626	0.666839
C34	C	0.616101	0.096830	0.000153
C35	C	0.949434	0.430163	0.333487
C36	C	1.282768	0.763497	0.666820
C37	C	0.571403	0.159598	0.000164
C38	C	0.904737	0.492931	0.333497
C39	C	1.238070	0.826265	0.666831
C40	C	0.498956	0.158537	0.000172
C41	C	0.832289	0.491871	0.333505
C42	C	1.165623	0.825204	0.666839
C43	C	0.471210	0.094705	0.000184
C44	C	0.804543	0.428038	0.333518
C45	C	1.137877	0.761372	0.666851
C46	C	0.515918	0.031929	0.000170
C47	C	0.849251	0.365262	0.333503
C48	C	1.182584	0.698595	0.666836
C49	C	0.588363	0.032991	0.000154
C50	C	0.921696	0.366324	0.333488
C51	C	1.255030	0.699658	0.666821
C52	C	0.362955	0.044528	0.042636
C53	C	0.696289	0.377861	0.375969
C54	C	1.029622	0.711194	0.709303
C55	C	0.290511	0.043468	0.042656
C56	C	0.623844	0.376801	0.375989
C57	C	0.957178	0.710134	0.709322
C58	C	0.247765	0.091425	0.000228
C59	C	0.581098	0.424759	0.333562
C60	C	0.914431	0.758092	0.666895
C61	C	0.277470	0.140455	-0.042210
C62	C	0.610803	0.473788	0.291124
C63	C	0.944136	0.807121	0.624457
C64	C	0.349915	0.141517	-0.042225
C65	C	0.683249	0.474851	0.291108
C66	C	1.016582	0.808184	0.624442
C67	C	0.392656	0.093546	0.000200
C68	C	0.725989	0.426879	0.333534
C69	C	1.059323	0.760213	0.666867
C70	C	0.124511	0.153048	0.000247
C71	C	0.457844	0.486381	0.333580
C72	C	0.791178	0.819714	0.666913
C73	C	0.052063	0.151984	0.000250
C74	C	0.385396	0.485318	0.333583
C75	C	0.718730	0.818651	0.666917
C76	C	0.069026	0.025374	0.000255
C77	C	0.402359	0.358707	0.333588
C78	C	0.735693	0.692041	0.666922
C79	C	0.141472	0.026439	0.000244
C80	C	0.474806	0.359772	0.333577
C81	C	0.808139	0.693106	0.666911
C82	C	0.169210	0.090278	0.000243
C83	C	0.502544	0.423611	0.333577
C84	C	0.835877	0.756944	0.666910
C85	C	0.825682	-0.034516	0.000207
C86	C	1.159016	0.298817	0.333540
C87	C	1.492349	0.632150	0.666874
C88	C	0.824555	-0.111620	0.000212
C89	C	1.157888	0.221713	0.333545
C90	C	1.491222	0.555046	0.666878
C91	C	0.947218	0.087022	0.000237
C92	C	1.280552	0.420356	0.333571
C93	C	1.613885	0.753689	0.666904
C94	C	1.024322	0.088151	0.000261
C95	C	1.357655	0.421485	0.333594
C96	C	1.690988	0.754818	0.666928
C97	C	0.814740	0.219498	0.000203
C98	C	1.148074	0.552831	0.333536
C99	C	1.481407	0.886164	0.666869
C100	C	0.815868	0.296602	0.000203
C101	C	1.149201	0.629935	0.333536
C102	C	1.482534	0.963268	0.666870
N103	N	0.820188	0.092482	-0.188464
N104	N	1.153522	0.425815	0.144869
N105	N	1.486855	0.759149	0.478203
C106	C	0.760724	0.860642	0.000204
C107	C	1.094058	1.193976	0.333537
C108	C	1.427391	1.527309	0.666871
C109	C	0.759659	0.788196	0.000198
C110	C	1.092992	1.121529	0.333531
C111	C	1.426326	1.454863	0.666864
C112	C	0.822428	0.743489	0.000214
C113	C	1.155762	1.076822	0.333547
C114	C	1.489095	1.410156	0.666881
C115	C	0.886268	0.771234	0.000217
C116	C	1.219601	1.104567	0.333551
C117	C	1.552934	1.437901	0.666884
C118	C	0.887331	0.843679	0.000216
C119	C	1.220664	1.177013	0.333549
C120	C	1.553998	1.510346	0.666883
C121	C	0.869248	0.622219	0.042651
C122	C	1.202581	0.955552	0.375985
C123	C	1.535914	1.288886	0.709318
C124	C	0.868181	0.549775	0.042657
C125	C	1.201515	0.883109	0.375990
C126	C	1.534848	1.216442	0.709324
C127	C	0.819151	0.520043	0.000214
C128	C	1.152484	0.853377	0.333547
C129	C	1.485817	1.186710	0.666881
C130	C	0.771174	0.562765	-0.042225
C131	C	1.104508	0.896098	0.291108
C132	C	1.437841	1.229432	0.624442
C133	C	0.772238	0.635210	-0.042226
C134	C	1.105571	0.968544	0.291107
C135	C	1.438904	1.301877	0.624440
C136	C	0.821282	0.664933	0.000215
C137	C	1.154615	0.998267	0.333548
C138	C	1.487949	1.331600	0.666881
C139	C	0.754160	0.413752	0.000199
C140	C	1.087494	0.747085	0.333532
C141	C	1.420827	1.080418	0.666866
C142	C	0.753098	0.341303	0.000188
C143	C	1.086431	0.674637	0.333522
C144	C	1.419764	1.007970	0.666855
C145	C	0.879708	0.324343	0.000215
C146	C	1.213041	0.657676	0.333548
C147	C	1.546375	0.991010	0.666882
C148	C	0.880769	0.396790	0.000218
C149	C	1.214102	0.730123	0.333552
C150	C	1.547436	1.063457	0.666885
C151	C	0.817993	0.441490	0.000214
C152	C	1.151326	0.774824	0.333547
C153	C	1.484660	1.108157	0.666880
C154	C	0.867573	0.045137	-0.226552
C155	C	1.200906	0.378470	0.106781
C156	C	1.534240	0.711803	0.440114
C157	C	0.867577	0.045134	-0.302780
C158	C	1.200911	0.378467	0.030553
C159	C	1.534244	0.711800	0.363886
C160	C	0.820204	0.092488	-0.340917
C161	C	1.153537	0.425821	-0.007583
C162	C	1.486870	0.759154	0.325750
C163	C	0.772810	0.139837	-0.302819
C164	C	1.106143	0.473170	0.030514
C165	C	1.439476	0.806503	0.363848
C166	C	0.772802	0.139834	-0.226593
C167	C	1.106135	0.473167	0.106741
C168	C	1.439469	0.806501	0.440074
C169	C	0.810904	0.155776	-0.461679
C170	C	1.144237	0.489109	-0.128346
C171	C	1.477571	0.822443	0.204987
C172	C	0.810917	0.155780	-0.537904
C173	C	1.144250	0.489113	-0.204571
C174	C	1.477583	0.822446	0.128762
C175	C	0.820223	0.092497	-0.576024
C176	C	1.153557	0.425830	-0.242691
C177	C	1.486890	0.759163	0.090643
C178	C	0.829532	0.029207	-0.537910
C179	C	1.162866	0.362540	-0.204576
C180	C	1.496199	0.695874	0.128757
C181	C	0.829525	0.029204	-0.461683
C182	C	1.162858	0.362537	-0.128350
C183	C	1.496191	0.695871	0.204983
C184	C	0.820206	0.092496	-0.423571
C185	C	1.153540	0.425829	-0.090238
C186	C	1.486873	0.759163	0.243095
C187	C	0.867616	0.045144	-0.696768
C188	C	1.200949	0.378477	-0.363434
C189	C	1.534282	0.711811	-0.030101
C190	C	0.867615	0.045140	-0.772997
C191	C	1.200948	0.378473	-0.439664
C192	C	1.534282	0.711807	-0.106330
C193	C	0.772851	0.139849	-0.773034
C194	C	1.106184	0.473182	-0.439701
C195	C	1.439517	0.806516	-0.106367
C196	C	0.772848	0.139847	-0.696806
C197	C	1.106181	0.473180	-0.363473
C198	C	1.439515	0.806514	-0.030140
C199	C	0.820234	0.092495	-0.658678
C200	C	1.153567	0.425829	-0.325344
C201	C	1.486901	0.759162	0.007989
N202	N	0.820240	0.092494	0.188872
N203	N	1.153573	0.425827	0.522205
N204	N	1.486907	0.759160	0.855539
H205	H	0.462556	0.209652	0.000179
H206	H	0.795890	0.542986	0.333512
H207	H	1.129223	0.876319	0.666845
O208	O	0.381962	0.194368	-0.088024
O209	O	0.715295	0.527701	0.245310
O210	O	1.048629	0.861035	0.578643
H211	H	0.340074	0.227530	-0.117539
H212	H	0.673407	0.560863	0.215795
H213	H	1.006740	0.894197	0.549128
O214	O	0.039114	-0.043478	0.000263
O215	O	0.372447	0.289855	0.333596
O216	O	0.705781	0.623188	0.666930
H217	H	0.006545	-0.046996	0.049630
H218	H	0.339878	0.286338	0.382963
H219	H	0.673212	0.619671	0.716296
H220	H	0.906165	0.006578	-0.333798
H221	H	1.239498	0.339911	-0.000464
H222	H	1.572832	0.673245	0.332869
O223	O	0.258473	-0.009418	0.088416
O224	O	0.591806	0.323916	0.421749
O225	O	0.925140	0.657249	0.755082
H226	H	0.300368	-0.042599	0.117901
H227	H	0.633701	0.290734	0.451234
H228	H	0.967035	0.624068	0.784567
H229	H	0.909178	0.646420	0.077215
H230	H	1.242511	0.979753	0.410548
H231	H	1.575845	1.313086	0.743881
O232	O	0.231378	0.192183	-0.087981
O233	O	0.564711	0.525517	0.245353
O234	O	0.898044	0.858850	0.578686
H235	H	0.176012	0.183204	-0.080851
H236	H	0.509345	0.516537	0.252482
H237	H	0.842679	0.849870	0.585816
H238	H	0.906156	0.006579	-0.195510
H239	H	1.239489	0.339912	0.137823
H240	H	1.572823	0.673245	0.471156
O241	O	0.918696	-0.005955	-0.655640
O242	O	1.252029	0.327379	-0.322307
O243	O	1.585363	0.660712	0.011026
H244	H	0.910729	0.001996	-0.596236
H245	H	1.244063	0.335329	-0.262902
H246	H	1.577396	0.668662	0.070431
O247	O	0.839552	-0.039051	-0.420571
O248	O	1.172885	0.294282	-0.087237
O249	O	1.506219	0.627615	0.246096
H250	H	0.846019	-0.083059	-0.459878
H251	H	1.179353	0.250274	-0.126544
H252	H	1.512686	0.583607	0.206789
O253	O	0.839566	-0.039057	-0.579011
O254	O	1.172899	0.294276	-0.245677
O255	O	1.506232	0.627610	0.087656
H256	H	0.837997	-0.028426	-0.638419
H257	H	1.171331	0.304907	-0.305085
H258	H	1.504664	0.638241	0.028248
O259	O	0.684246	0.311385	0.000172
O260	O	1.017580	0.644719	0.333505
O261	O	1.350913	0.978052	0.666839
H262	H	0.680746	0.278778	0.049524
H263	H	1.014080	0.612112	0.382857
H264	H	1.347413	0.945445	0.716191
H265	H	0.703044	0.450149	0.000190
H266	H	1.036378	0.783482	0.333523
H267	H	1.369711	1.116815	0.666857
O268	O	0.154437	0.221897	0.000231
O269	O	0.487771	0.555231	0.333564
O270	O	0.821104	0.888564	0.666898
H271	H	0.111181	0.265368	0.000226
H272	H	0.444515	0.598701	0.333559
H273	H	0.777848	0.932034	0.666892
H274	H	0.731248	0.538559	-0.076786
H275	H	1.064582	0.871893	0.256548
H276	H	1.397915	1.205226	0.589881
O277	O	0.721748	0.190920	-0.655717
O278	O	1.055081	0.524254	-0.322384
O279	O	1.388415	0.857587	0.010950
H280	H	0.688810	0.223854	-0.695039
H281	H	1.022143	0.557187	-0.361706
H282	H	1.355476	0.890520	-0.028373
H283	H	0.177866	-0.024674	0.000240
H284	H	0.511200	0.308660	0.333573
H285	H	0.844533	0.641993	0.666906
H286	H	0.937375	0.734829	0.000229
H287	H	1.270708	1.068162	0.333562
H288	H	1.604041	1.401496	0.666896
O289	O	0.003847	0.219687	0.000259
O290	O	0.337180	0.553020	0.333592
O291	O	0.670514	0.886354	0.666925
H292	H	0.035310	0.264253	0.000262
H293	H	0.368643	0.597587	0.333595
H294	H	0.701976	0.930920	0.666928
H295	H	0.397755	0.005473	0.077190
H296	H	0.731088	0.338806	0.410523
H297	H	1.064421	0.672140	0.743857
O298	O	0.721698	0.190906	-0.185504
O299	O	1.055031	0.524240	0.147830
O300	O	1.388364	0.857573	0.481163
H301	H	0.688757	0.223838	-0.224825
H302	H	1.022090	0.557171	0.108508
H303	H	1.355424	0.890505	0.441842
H304	H	0.803341	0.207314	-0.568931
H305	H	1.136674	0.540647	-0.235598
H306	H	1.470008	0.873980	0.097736
O307	O	0.721773	0.190934	-0.814170
O308	O	1.055106	0.524267	-0.480837
O309	O	1.388439	0.857601	-0.147503
H310	H	0.730462	0.245054	-0.799522
H311	H	1.063795	0.578387	-0.466188
H312	H	1.397128	0.911721	-0.132855
H313	H	0.803313	0.207312	-0.430648
H314	H	1.136647	0.540645	-0.097315
H315	H	1.469980	0.873979	0.236018
O316	O	0.947409	0.276128	0.000229
O317	O	1.280742	0.609462	0.333563
O318	O	1.614075	0.942795	0.666896
H319	H	0.977953	0.285962	-0.049127
H320	H	1.311286	0.619295	0.284206
H321	H	1.644619	0.952629	0.617539
H322	H	0.932747	0.419373	0.000229
H323	H	1.266080	0.752706	0.333562
H324	H	1.599414	1.086040	0.666896
O325	O	0.485998	-0.036922	0.000183
O326	O	0.819332	0.296412	0.333516
O327	O	1.152665	0.629745	0.666850
H328	H	0.428112	-0.027116	0.000203
H329	H	0.761446	0.306217	0.333536
H330	H	1.094779	0.639551	0.666869
H331	H	0.707679	0.765608	0.000184
H332	H	1.041012	1.098941	0.333518
H333	H	1.374345	1.432274	0.666851
H334	H	0.734236	0.178392	-0.333873
H335	H	1.067569	0.511726	-0.000540
H336	H	1.400903	0.845059	0.332793
O337	O	0.919936	0.503697	0.088412
O338	O	1.253269	0.837030	0.421746
O339	O	1.586602	1.170363	0.755079
H340	H	0.954222	0.536538	0.117908
H341	H	1.287556	0.869872	0.451242
H342	H	1.620889	1.203205	0.784575
H343	H	0.624757	-0.018124	0.000146
H344	H	0.958090	0.315209	0.333479
H345	H	1.291423	0.648543	0.666813
H346	H	0.709607	0.897034	0.000199
H347	H	1.042940	1.230367	0.333532
H348	H	1.376274	1.563700	0.666865
H349	H	0.906200	0.006582	-0.804009
H350	H	1.239533	0.339915	-0.470676
H351	H	1.572866	0.673249	-0.137342
H352	H	0.593982	0.211581	0.000165
H353	H	0.927316	0.544914	0.333498
H354	H	1.260649	0.878247	0.666831
H355	H	0.733175	0.669992	-0.076783
H356	H	1.066509	1.003325	0.256550
H357	H	1.399842	1.336658	0.589883
O358	O	0.956180	0.873603	0.000238
O359	O	1.289513	1.206936	0.333571
O360	O	1.622846	1.540270	0.666905
H361	H	0.999650	0.830348	0.000254
H362	H	1.332984	1.163681	0.333587
H363	H	1.666317	1.497014	0.666921
