data_functionalizedCrystal
_audit_creation_method	'MofGen! by Chris Wilmer'
_symmetry_space_group_name_H-M	'P1'
_symmetry_Int_Tables_number	1
_symmetry_cell_setting	triclinic
loop_
_symmetry_equiv_pos_as_xyz
  x,y,z
_cell_length_a	12.594517
_cell_length_b	12.594516
_cell_length_c	14.908294
_cell_angle_alpha	93.270164
_cell_angle_beta	93.277210
_cell_angle_gamma	90.011248
loop_
_atom_site_label
_atom_site_type_symbol
_atom_site_fract_x
_atom_site_fract_y
_atom_site_fract_z
Zn1	Zn	1.592537	-0.458472	-0.510141
Zn2	Zn	1.602720	-0.626208	-0.359293
Zn3	Zn	1.424820	-0.448243	-0.359296
Zn4	Zn	1.414539	-0.636405	-0.510098
O5	O	1.508654	-0.542332	-0.434707
O6	O	1.742833	-0.480737	-0.490147
O7	O	1.587685	-0.594052	-0.233051
O8	O	1.447109	-0.300655	-0.379325
O9	O	1.750314	-0.603972	-0.379320
O10	O	1.570330	-0.308171	-0.490150
O11	O	1.456983	-0.463302	-0.233054
O12	O	1.274511	-0.473189	-0.379283
O13	O	1.429587	-0.621350	-0.636346
O14	O	1.266959	-0.611431	-0.490077
O15	O	1.560362	-0.490624	-0.636377
O16	O	1.577717	-0.776505	-0.379278
O17	O	1.439461	-0.783997	-0.490074
C18	C	1.232115	-0.542307	-0.434677
C19	C	1.113809	-0.542323	-0.434685
C20	C	0.977860	-0.467065	-0.374562
C21	C	1.043108	-0.446738	-0.456883
C22	C	1.050133	-0.562602	-0.352373
C23	C	0.968264	-0.521996	-0.517116
C24	C	0.975286	-0.637901	-0.412550
C25	C	1.040498	-0.617616	-0.494928
C26	C	1.508606	-0.818872	-0.434691
C27	C	1.508681	-0.937179	-0.434715
C28	C	1.583956	-1.002323	-0.374517
C29	C	1.604356	-1.078628	-0.456858
C30	C	1.488410	-1.071676	-0.352426
C31	C	1.529127	-1.011929	-0.517099
C32	C	1.413140	-1.004967	-0.412611
C33	C	1.433499	-1.081244	-0.495009
C34	C	1.786273	-0.542358	-0.434738
C35	C	1.904577	-0.542369	-0.434751
C36	C	1.492692	-0.558266	-0.670009
C37	C	1.485890	-0.565055	-0.770281
C38	C	1.508730	-0.264714	-0.434742
C39	C	1.508763	-0.146409	-0.434757
C40	C	1.408218	-0.642675	-0.911595
C41	C	1.414607	-0.636303	-0.817381
C42	C	1.550786	-0.500173	-0.817403
C43	C	1.544396	-0.506545	-0.911618
C44	C	1.473111	-0.577799	-0.958710
C45	C	1.466728	-0.584176	-1.052926
C46	C	1.602900	-0.448042	-1.052947
C47	C	1.609290	-0.441670	-0.958733
C48	C	1.524616	-0.526384	-0.200320
C49	C	1.531624	-0.519294	-0.100048
H50	H	0.932614	-0.504768	-0.586774
C51	C	1.389509	-0.661670	-1.104105
C52	C	1.446087	-0.733575	-1.158175
C53	C	1.374987	-0.804986	-1.205321
H54	H	1.340626	-0.623565	-1.140931
H55	H	1.351792	-0.699455	-1.062575
H56	H	1.483786	-0.695794	-1.199700
H57	H	1.494966	-0.771704	-1.121371
H58	H	1.337270	-0.842772	-1.163791
H59	H	1.326108	-0.766873	-1.242142
H60	H	1.413366	-0.853789	-1.242006
C61	C	1.330761	-0.719871	-0.962845
C62	C	1.258902	-0.663265	-1.016948
C63	C	1.187542	-0.734345	-1.064179
H64	H	1.292922	-0.757632	-0.921393
H65	H	1.368944	-0.768720	-0.999651
H66	H	1.220723	-0.614435	-0.980146
H67	H	1.296711	-0.625508	-1.058417
H68	H	1.225724	-0.783194	-1.100985
H69	H	1.149711	-0.772102	-1.022721
H70	H	1.138783	-0.695949	-1.100900
C71	C	1.628199	-0.422707	-0.766427
C72	C	1.683649	-0.367232	-0.827851
C73	C	1.754960	-0.295850	-0.780925
H74	H	1.677148	-0.460819	-0.729667
H75	H	1.590002	-0.373788	-0.729698
H76	H	1.721844	-0.416144	-0.864565
H77	H	1.634729	-0.329098	-0.864613
H78	H	1.716763	-0.246930	-0.744196
H79	H	1.803901	-0.333970	-0.744166
H80	H	1.792584	-0.258194	-0.822594
C81	C	1.097697	-0.585306	-0.259441
C82	C	1.066049	-0.506258	-0.196741
C83	C	1.109828	-0.527136	-0.111120
H84	H	1.173068	-0.585744	-0.260093
H85	H	1.073470	-0.652651	-0.243232
H86	H	1.090282	-0.438931	-0.212945
H87	H	0.990684	-0.505807	-0.196060
H88	H	1.085602	-0.594481	-0.094912
H89	H	1.185199	-0.527575	-0.111782
H90	H	1.088354	-0.473512	-0.068567
H91	H	1.369873	-1.115570	-0.545994
H92	H	0.945426	-0.718684	-0.393771
H93	H	1.332335	-0.972632	-0.393867
H94	H	1.471231	-1.098105	-0.282818
C95	C	0.940781	-0.382222	-0.306831
C96	C	0.829603	-0.383986	-0.307164
C97	C	0.795406	-0.305853	-0.244780
H98	H	0.963847	-0.314313	-0.322653
H99	H	0.969923	-0.395946	-0.248457
H100	H	0.800473	-0.370254	-0.365525
H101	H	0.806510	-0.451877	-0.291332
H102	H	0.824548	-0.319577	-0.186405
H103	H	0.818479	-0.237949	-0.260607
H104	H	0.719970	-0.307046	-0.244991
H105	H	1.361757	-0.689124	-0.779023
H106	H	1.647620	-0.967809	-0.323656
C107	C	1.673310	-0.377415	-1.103982
C108	C	1.651734	-0.270553	-1.081050
C109	C	1.716585	-0.205466	-1.128034
H110	H	1.659370	-0.391265	-1.166852
H111	H	1.745884	-0.391890	-1.088522
H112	H	1.579176	-0.256084	-1.096516
H113	H	1.665679	-0.256670	-1.018188
H114	H	1.789160	-0.219941	-1.112574
H115	H	1.702641	-0.219325	-1.190902
H116	H	1.701962	-0.132954	-1.112475
H117	H	1.072928	-0.365927	-0.475649
H118	H	1.667325	-0.383655	-0.920377
H119	H	1.067933	-0.681283	-0.545858
H120	H	1.546221	-0.985636	-0.586767
C121	C	1.712219	-1.121650	-0.481646
C122	C	1.790684	-1.081543	-0.418376
C123	C	1.890060	-1.121158	-0.441168
H124	H	1.727313	-1.100287	-0.539675
H125	H	1.711313	-1.197101	-0.481980
H126	H	1.791592	-1.006109	-0.418051
H127	H	1.775625	-1.102904	-0.360342
H128	H	1.889154	-1.196609	-0.441503
H129	H	1.905143	-1.099792	-0.499198
H130	H	1.943309	-1.093959	-0.398239
