data_functionalizedCrystal
_audit_creation_method	'MofGen! by Chris Wilmer'
_symmetry_space_group_name_H-M	'P1'
_symmetry_Int_Tables_number	1
_symmetry_cell_setting	triclinic
loop_
_symmetry_equiv_pos_as_xyz
  x,y,z
_cell_length_a	15.538191
_cell_length_b	19.288864
_cell_length_c	18.366186
_cell_angle_alpha	90.022894
_cell_angle_beta	89.995484
_cell_angle_gamma	114.795828
loop_
_atom_site_label
_atom_site_type_symbol
_atom_site_fract_x
_atom_site_fract_y
_atom_site_fract_z
O1	O	0.117639	-0.891965	-0.060769
O2	O	0.133508	-0.685740	-0.060717
O3	O	-0.011726	-0.828996	-0.060756
O4	O	0.262873	-0.748709	-0.060729
O5	O	-0.011734	-0.828980	0.060343
O6	O	0.133501	-0.685724	0.060382
O7	O	0.117632	-0.891949	0.060331
Zn8	Zn	0.125565	-0.788834	0.079584
Zn9	Zn	0.125574	-0.788855	-0.079970
O10	O	0.262866	-0.748693	0.060370
C11	C	0.132994	-0.659983	-0.000161
C12	C	0.131461	-0.583263	-0.000142
N13	N	0.125558	-0.788824	0.188475
C14	C	-0.046861	-0.837388	-0.000211
C15	C	-0.151541	-0.862409	-0.000225
C16	C	-0.438277	-0.613831	-0.000147
C17	C	-0.536642	-0.637359	-0.000151
C18	C	-0.559647	-0.769703	-0.000185
C19	C	-0.461281	-0.746185	-0.000184
C20	C	-0.400603	-0.668248	-0.000164
C21	C	-0.423608	-0.800603	-0.000201
C22	C	-0.325251	-0.777087	-0.000197
C23	C	-0.264567	-0.699153	-0.000175
C24	C	-0.302246	-0.644732	-0.000160
C25	C	-0.484287	-0.878540	-0.000216
C26	C	-0.446614	-0.932957	-0.000233
C27	C	-0.348255	-0.909441	-0.000234
C28	C	-0.287571	-0.831508	-0.000212
C29	C	-0.310576	-0.963863	-0.000249
C30	C	-0.212219	-0.940346	-0.000244
C31	C	-0.189214	-0.807992	-0.000207
C32	C	0.298001	-0.740301	-0.000177
C33	C	0.402681	-0.715280	-0.000168
C34	C	0.118146	-0.917706	-0.000227
C35	C	0.119679	-0.994427	-0.000251
C36	C	0.216678	-0.517278	-0.000145
C37	C	0.215238	-0.445191	-0.000153
C38	C	0.128576	-0.439092	-0.000173
C39	C	0.043348	-0.505089	-0.000166
C40	C	0.044790	-0.577175	-0.000150
C41	C	0.060453	-0.347855	-0.042631
C42	C	0.059014	-0.275770	-0.042651
C43	C	0.124123	-0.216759	-0.000218
C44	C	0.190688	-0.229837	0.042226
C45	C	0.192131	-0.301922	0.042242
C46	C	0.127002	-0.360931	-0.000189
C47	C	0.207785	-0.072607	-0.000228
C48	C	0.206341	-0.000520	-0.000232
C49	C	0.034449	-0.060421	-0.000252
C50	C	0.035895	-0.132506	-0.000241
C51	C	0.122565	-0.138594	-0.000233
N52	N	0.125574	-0.788872	-0.188861
C53	C	0.061280	-0.852266	0.226558
C54	C	0.061276	-0.852271	0.302786
C55	C	0.125566	-0.788838	0.340928
C56	C	0.189849	-0.725386	0.302835
C57	C	0.189845	-0.725380	0.226609
C58	C	0.211489	-0.758075	0.461698
C59	C	0.211494	-0.758086	0.537923
C60	C	0.125578	-0.788855	0.576035
C61	C	0.039653	-0.819627	0.537913
C62	C	0.039649	-0.819621	0.461687
C63	C	0.125577	-0.788838	0.423582
C64	C	0.061290	-0.852306	0.696773
C65	C	0.061284	-0.852307	0.773002
C66	C	0.189866	-0.725423	0.773051
C67	C	0.189863	-0.725421	0.696823
C68	C	0.125576	-0.788866	0.658689
H69	H	-0.184479	-0.680008	-0.000167
H70	H	-0.027213	-0.500120	-0.000192
H71	H	0.008940	-0.903965	0.665723
O72	O	-0.123761	-0.723929	-0.000191
H73	H	-0.078396	-0.710046	0.049169
H74	H	-0.388869	-0.550366	-0.000136
O75	O	0.263883	-0.316045	0.088047
H76	H	0.308906	-0.262911	0.117566
O77	O	-0.577280	-0.578663	-0.000139
H78	H	-0.518560	-0.520520	-0.000130
O79	O	0.260917	-0.166202	0.088003
H80	H	0.248726	-0.113882	0.080873
O81	O	-0.625098	-0.853760	-0.000201
H82	H	-0.611734	-0.880988	-0.049565
O83	O	-0.590374	-0.903903	-0.000213
H84	H	-0.626238	-0.967238	-0.000217
H85	H	-0.496031	-0.996414	-0.000246
H86	H	0.242189	-0.673717	0.195601
H87	H	-0.033498	-0.186234	-0.000242
H88	H	-0.252838	-0.581268	-0.000149
H89	H	0.007431	-0.395899	-0.077189
H90	H	-0.024606	-0.630903	-0.000148
H91	H	0.242208	-0.673763	0.665814
O92	O	0.259236	-0.657020	0.814183
H93	H	0.303943	-0.612906	0.774891
H94	H	0.278357	-0.077564	-0.000211
H95	H	0.242194	-0.673737	0.333894
H96	H	-0.359994	-1.027319	-0.000258
O97	O	0.298260	0.070654	-0.000228
H98	H	0.301712	0.104908	-0.049586
O99	O	-0.008068	-0.920691	0.185433
H100	H	0.031507	-0.944470	0.150690
O101	O	-0.059027	-0.053857	-0.000273
H102	H	-0.045715	0.007354	-0.000288
O103	O	-0.012786	-0.261667	-0.088417
H104	H	-0.057835	-0.314815	-0.117906
O105	O	-0.053014	-0.852823	0.579020
H106	H	-0.092419	-0.913956	0.564370
O107	O	-0.008038	-0.920740	0.814084
H108	H	-0.052728	-0.964857	0.774757
H109	H	0.008930	-0.903934	0.333798
O110	O	-0.171574	-0.999035	-0.000271
H111	H	-0.230290	-1.057179	-0.000294
O112	O	0.304164	-0.724912	0.579039
H113	H	0.363906	-0.703507	0.539733
O114	O	-0.053018	-0.852796	0.420566
H115	H	-0.112765	-0.874187	0.459868
O116	O	0.310154	-0.523848	-0.000115
H117	H	0.369169	-0.465849	-0.000108
H118	H	0.281457	-0.733007	0.430673
O119	O	0.307153	-0.374007	-0.000164
H120	H	0.367661	-0.390352	-0.000161
