data_functionalizedCrystal
_audit_creation_method	'MofGen! by Chris Wilmer'
_symmetry_space_group_name_H-M	'P1'
_symmetry_Int_Tables_number	1
_symmetry_cell_setting	triclinic
loop_
_symmetry_equiv_pos_as_xyz
  x,y,z
_cell_length_a	14.560438
_cell_length_b	21.606444
_cell_length_c	21.606444
_cell_angle_alpha	60.001331
_cell_angle_beta	90.003088
_cell_angle_gamma	60.000320
loop_
_atom_site_label
_atom_site_type_symbol
_atom_site_fract_x
_atom_site_fract_y
_atom_site_fract_z
Zr1	Zr	0.884736	0.677461	-0.081191
O2	O	0.738080	0.806582	-0.180015
O3	O	0.929695	0.548342	-0.050899
O4	O	0.929683	0.677466	-0.180018
O5	O	0.738100	0.677454	0.050957
O6	O	1.080822	0.677468	-0.180016
O7	O	0.738092	0.677458	-0.050897
O8	O	1.080843	0.446489	0.050953
O9	O	0.738079	0.908433	-0.180012
O10	O	1.061661	0.601451	-0.037975
O11	O	0.948874	0.601447	0.038036
O12	O	0.948860	0.753473	-0.113984
O13	O	0.836073	0.753469	-0.037973
Zr14	Zr	1.125796	0.677457	0.081257
Zr15	Zr	1.125784	0.677464	-0.081189
Zr16	Zr	0.884748	0.677454	0.081254
Zr17	Zr	0.884733	0.839901	-0.081186
Zr18	Zr	1.125799	0.515017	0.081252
O19	O	1.080837	0.806576	0.050965
O20	O	1.080820	0.806586	-0.180012
O21	O	0.738098	0.806572	0.050961
O22	O	1.272452	0.548336	0.180081
O23	O	1.272434	0.548346	-0.050895
O24	O	0.929712	0.548332	0.180077
O25	O	1.272432	0.677464	-0.050891
O26	O	1.080849	0.677452	0.180083
O27	O	0.929710	0.677451	0.180082
O28	O	1.272440	0.677460	0.050963
O29	O	0.929680	0.908435	-0.180010
O30	O	1.080852	0.446483	0.180076
O31	O	1.272453	0.446485	0.180078
O32	O	1.272444	0.446491	0.050955
O33	O	0.738088	0.908427	-0.050890
O34	O	0.929689	0.908430	-0.050887
O35	O	1.061672	0.601445	0.114050
O36	O	1.174459	0.601449	0.038039
O37	O	1.061658	0.753472	-0.037970
O38	O	0.948871	0.753467	0.038041
C39	C	1.005269	0.474271	0.000026
C40	C	1.005270	0.405311	0.000024
C41	C	0.703752	0.677456	0.000030
C42	C	0.601420	0.677454	0.000029
C43	C	1.064141	0.372916	-0.039654
C44	C	1.064145	0.308116	-0.039649
C45	C	1.005271	0.275717	0.000030
C46	C	0.946398	0.308114	0.039713
C47	C	0.946401	0.372909	0.039712
C48	C	0.946385	0.046805	0.039720
C49	C	0.946383	-0.017992	0.039716
C50	C	1.064129	-0.017988	-0.039642
C51	C	1.064132	0.046806	-0.039643
C52	C	1.005265	0.079195	0.000043
C53	C	1.005263	0.149458	0.000039
C54	C	1.005266	0.205460	0.000031
C55	C	0.612223	0.598102	0.039704
C56	C	0.516068	0.598106	0.039711
C57	C	0.398311	0.756822	-0.039640
C58	C	0.494465	0.756817	-0.039642
C59	C	0.719178	0.518739	0.079374
C60	C	0.729985	0.439380	0.119052
C61	C	0.633830	0.439384	0.119059
C62	C	0.526868	0.518747	0.079388
C63	C	1.306780	0.677463	0.000036
C64	C	1.409112	0.677464	0.000037
C65	C	1.005251	0.677468	-0.203162
C66	C	1.005246	0.677471	-0.272124
C67	C	1.005263	0.880647	0.000039
C68	C	1.005262	0.949607	0.000042
C69	C	0.946364	0.756824	-0.344199
C70	C	0.946374	0.756822	-0.408994
C71	C	1.005259	0.677465	-0.401712
C72	C	1.064148	0.598106	-0.329630
C73	C	1.064144	0.598109	-0.264837
C74	C	1.064166	0.598090	-0.590933
C75	C	1.064162	0.598093	-0.655734
C76	C	0.946395	0.756803	-0.735090
C77	C	0.946392	0.756807	-0.670297
C78	C	1.005285	0.677448	-0.598220
C79	C	1.005275	0.677451	-0.527963
C80	C	1.005263	0.677461	-0.471968
C81	C	1.005281	0.677450	0.203227
C82	C	1.005287	0.677447	0.272190
C83	C	1.306784	0.474275	0.000030
C84	C	1.409116	0.405316	0.000028
C85	C	1.005285	0.474262	0.203221
C86	C	1.005291	0.405299	0.272181
C87	C	1.306799	0.474266	0.203224
C88	C	1.409136	0.405304	0.272185
C89	C	0.703733	0.880652	-0.203158
C90	C	0.601396	0.949614	-0.272120
C91	C	0.703748	0.880644	0.000036
C92	C	0.601416	0.949603	0.000037
C93	C	1.005248	0.880656	-0.203155
C94	C	1.005241	0.949619	-0.272115
C95	C	1.398293	0.372933	-0.039657
C96	C	1.494435	0.308147	-0.039674
C97	C	1.601400	0.275742	0.000001
C98	C	1.612222	0.308131	0.039688
C99	C	1.516080	0.372920	0.039699
C100	C	1.064173	0.372912	0.344251
C101	C	1.064175	0.308123	0.409052
C102	C	1.005300	0.275718	0.401783
C103	C	0.946410	0.308111	0.329705
C104	C	0.946403	0.372903	0.264905
C105	C	1.516079	0.372921	0.264893
C106	C	1.612245	0.308133	0.329683
C107	C	1.601466	0.275725	0.401765
C108	C	1.494512	0.308114	0.409056
C109	C	1.398349	0.372905	0.344266
C110	C	0.494453	0.982005	-0.264827
C111	C	0.398287	1.046813	-0.329618
C112	C	0.409066	1.079225	-0.401699
C113	C	0.516020	1.046832	-0.408990
C114	C	0.612183	0.982029	-0.344201
C115	C	0.612240	0.981992	0.039716
C116	C	0.516097	1.046795	0.039715
C117	C	0.409132	1.079203	0.000038
C118	C	0.398310	1.046811	-0.039646
C119	C	0.494452	0.982014	-0.039648
C120	C	1.064128	0.982004	-0.264821
C121	C	1.064144	1.046794	-0.329610
C122	C	1.005266	1.079201	-0.401693
C123	C	0.946378	1.046810	-0.408985
C124	C	0.946369	0.982017	-0.344197
H125	H	1.112078	0.399295	-0.071970
H126	H	0.898429	0.821439	-0.467678
C127	C	0.303386	1.150477	0.000049
H128	H	0.325161	1.165115	0.029371
H129	H	0.259878	1.201038	-0.050499
H130	H	0.259890	1.129236	0.021301
C131	C	1.280718	0.408510	0.352297
H132	H	1.288082	0.379918	0.404507
H133	H	1.240738	0.469684	0.328675
H134	H	1.240770	0.397873	0.328677
C135	C	0.482580	0.946364	-0.185544
H136	H	0.555162	0.903125	-0.147995
H137	H	0.442637	0.992880	-0.179860
H138	H	0.442623	0.921088	-0.179864
H139	H	1.005315	0.222960	0.454553
H140	H	1.112117	0.399290	0.350184
H141	H	0.898456	0.073165	0.072038
C142	C	1.128909	1.082422	-0.321575
H143	H	1.163951	1.053850	-0.269365
H144	H	1.184638	1.071802	-0.345191
H145	H	1.078078	1.143600	-0.345202
H146	H	0.311210	1.073177	-0.323667
C147	C	1.005275	1.150478	-0.472953
H148	H	1.048772	1.165126	-0.458279
H149	H	1.036795	1.129253	-0.502274
H150	H	0.930255	1.201042	-0.502263
H151	H	1.699325	0.281737	0.071989
C152	C	0.881607	1.082472	-0.488278
H153	H	0.890042	1.125705	-0.525813
H154	H	0.910665	1.035970	-0.493979
H155	H	0.804139	1.107763	-0.493965
C156	C	1.128898	0.082439	-0.083287
H157	H	1.163971	0.053858	-0.106912
H158	H	1.078081	0.143613	-0.120834
H159	H	1.184623	0.071810	-0.049031
H160	H	1.112067	-0.044369	-0.071954
H161	H	0.330754	1.131991	-0.454449
H162	H	1.112134	0.281756	0.467734
H163	H	1.311205	0.399317	-0.071974
H164	H	0.311207	1.073208	-0.071950
C165	C	0.527862	1.082483	-0.488282
H166	H	0.455268	1.125707	-0.525818
H167	H	0.567811	1.107764	-0.493979
H168	H	0.567796	1.035967	-0.493971
C169	C	0.729814	0.946395	-0.352231
H170	H	0.722450	0.974977	-0.404441
H171	H	0.769796	0.957003	-0.328605
H172	H	0.769760	0.885221	-0.328615
H173	H	1.524908	0.399277	0.072020
H174	H	0.898405	0.821446	-0.350136
H175	H	1.485603	0.281784	-0.071991
C176	C	0.881619	0.844100	-0.814373
H177	H	0.846538	0.891361	-0.809428
H178	H	0.932433	0.847406	-0.841301
H179	H	0.825900	0.847394	-0.841298
H180	H	0.485624	0.955644	-0.071958
C181	C	1.128943	0.510799	-0.647726
H182	H	1.120497	0.522166	-0.696639
H183	H	1.206405	0.478196	-0.620806
H184	H	1.099867	0.478189	-0.620803
H185	H	0.898476	0.281717	0.323797
C186	C	1.128918	0.510815	-0.321620
H187	H	1.120478	0.522176	-0.370530
H188	H	1.206380	0.478207	-0.294695
H189	H	1.099834	0.478212	-0.294699
H190	H	1.679676	0.222986	-0.000014
C191	C	0.881626	-0.053637	0.083368
H192	H	0.890048	-0.096858	0.077676
H193	H	0.910711	-0.078921	0.135569
H194	H	0.804159	-0.007118	0.063774
C195	C	1.128861	0.510802	-0.511658
H196	H	1.120417	0.522163	-0.474109
H197	H	1.099732	0.478240	-0.506016
H198	H	1.206339	0.478153	-0.505933
C199	C	0.528020	1.082407	0.083377
H200	H	0.605495	1.053810	0.107016
H201	H	0.492974	1.143579	0.049139
H202	H	0.492961	1.071781	0.120927
H203	H	0.699327	0.955611	0.072031
C204	C	1.128903	0.946364	-0.185539
H205	H	1.163981	0.974931	-0.190485
H206	H	1.078091	0.956983	-0.158609
H207	H	1.184624	0.885186	-0.158617
H208	H	1.524877	0.399298	0.206206
H209	H	0.898436	0.821427	-0.676232
C210	C	0.881570	0.946412	-0.352226
H211	H	0.889991	0.903180	-0.303321
H212	H	0.804115	0.992943	-0.379154
H213	H	0.910643	0.921133	-0.379151
H214	H	1.112084	0.281739	-0.071957
C215	C	1.128908	0.510820	-0.185555
H216	H	1.163971	0.463557	-0.190497
H217	H	1.184622	0.507523	-0.158627
H218	H	1.078079	0.507523	-0.158633
H219	H	0.898468	0.281726	0.072025
C220	C	0.881637	0.408516	0.185633
H221	H	0.846586	0.379927	0.190591
H222	H	0.825913	0.469690	0.158696
H223	H	0.932462	0.397884	0.158710
H224	H	1.699323	0.281768	0.323734
C225	C	1.707253	0.204449	0.473027
H226	H	1.772484	0.189802	0.458353
H227	H	1.707277	0.225675	0.502347
H228	H	1.707271	0.153885	0.502336
H229	H	0.898459	0.399286	0.072020
H230	H	0.817078	0.374766	0.151356
H231	H	1.485753	0.281717	0.467753
H232	H	0.797479	0.518727	0.079372
H233	H	0.448577	0.518744	0.079401
H234	H	0.485666	0.821433	-0.071934
H235	H	0.642635	0.374767	0.151373
H236	H	0.311218	0.821436	-0.071940
