data_functionalizedCrystal
_audit_creation_method	'MofGen! by Chris Wilmer'
_symmetry_space_group_name_H-M	'P1'
_symmetry_Int_Tables_number	1
_symmetry_cell_setting	triclinic
loop_
_symmetry_equiv_pos_as_xyz
  x,y,z
_cell_length_a	6.817900
_cell_length_b	10.992668
_cell_length_c	10.992410
_cell_angle_alpha	91.832960
_cell_angle_beta	108.764651
_cell_angle_gamma	108.769342
loop_
_atom_site_label
_atom_site_type_symbol
_atom_site_fract_x
_atom_site_fract_y
_atom_site_fract_z
V1	V	-4.114280	-0.177763	-0.400588
O2	O	-4.072374	0.008542	-0.392968
O3	O	-4.091890	-0.352475	-0.397843
O4	O	-4.091871	-0.175029	-0.575300
O5	O	-4.072393	-0.170132	-0.214282
V6	V	-4.591170	-0.155479	-0.378305
O7	O	-4.390089	-0.226646	-0.449467
O8	O	-4.765558	-0.106597	-0.329425
O9	O	-4.390353	0.019232	-0.381050
O10	O	-4.750472	-0.341785	-0.385925
O11	O	-4.750453	-0.163110	-0.564611
O12	O	-4.390371	-0.158213	-0.203592
C13	C	-3.942377	-0.395066	-0.391522
C14	C	-4.005531	-0.537895	-0.390442
C15	C	-4.252012	-0.600203	-0.397771
C16	C	-4.317510	-0.748689	-0.396139
C17	C	-3.920752	-0.718266	-0.261985
C18	C	-3.856485	-0.569698	-0.263077
C19	C	-3.980036	-0.607725	-0.508433
C20	C	-4.050700	-0.756740	-0.509050
C21	C	-3.942352	-0.168714	-0.617885
C22	C	-4.005486	-0.167635	-0.760713
C23	C	-3.872608	-0.157798	-0.955837
C24	C	-3.807058	-0.159453	-0.807354
C25	C	-4.203525	-0.294317	-0.837814
C26	C	-4.267838	-0.293197	-0.986380
C27	C	-4.145561	-0.047894	-0.948356
C28	C	-4.074851	-0.047294	-0.799343
C29	C	-4.203208	0.061817	-0.387367
C30	C	-4.119294	0.204644	-0.388455
C31	C	-4.203232	-0.164532	-0.161001
C32	C	-4.119335	-0.165605	-0.018171
H33	H	-4.374121	-0.773496	-0.310189
H34	H	-4.216964	-0.045806	-0.766831
O35	O	-4.382635	-0.053978	-1.002468
H36	H	-4.451576	-0.061442	-0.923120
O37	O	-3.717307	-0.036314	-0.980775
H38	H	-3.623494	-0.063651	-1.036127
H39	H	-4.083386	-0.587355	-0.604487
O40	O	-3.731334	-0.273040	-0.774473
H41	H	-3.684176	-0.274613	-0.668183
H42	H	-4.466340	-0.802018	-0.487059
H43	H	-3.871482	-0.523419	-0.173753
H44	H	-4.194355	-0.809075	-0.602609
O45	O	-4.508920	-0.307793	-1.042868
H46	H	-4.579101	-0.315630	-0.964050
H47	H	-3.908802	-0.789286	-0.510910
H48	H	-3.801239	-0.566899	-0.504187
H49	H	-4.369609	-0.581361	-0.489305
O50	O	-3.980589	-0.752169	-0.143393
H51	H	-3.838900	-0.697059	-0.054589
H52	H	-4.353903	-0.304879	-0.809010
O53	O	-3.885074	0.076845	-0.730001
H54	H	-3.935412	0.161434	-0.757821
H55	H	-3.847685	-0.242374	-1.003827
H56	H	-3.658586	-0.068363	-0.754016
O57	O	-4.284347	-0.536640	-0.285458
H58	H	-4.125628	-0.460865	-0.224437
H59	H	-4.252292	-0.382325	-1.032648
H60	H	-4.042629	0.048305	-0.968717
H61	H	-3.674642	-0.527088	-0.252431
H62	H	-4.157779	-0.383665	-0.812206
H63	H	-3.770509	-0.747089	-0.251787
