data_functionalizedCrystal
_audit_creation_method	'MofGen! by Chris Wilmer'
_symmetry_space_group_name_H-M	'P1'
_symmetry_Int_Tables_number	1
_symmetry_cell_setting	triclinic
loop_
_symmetry_equiv_pos_as_xyz
  x,y,z
_cell_length_a	15.995350
_cell_length_b	10.723024
_cell_length_c	9.798715
_cell_angle_alpha	90.003391
_cell_angle_beta	89.999084
_cell_angle_gamma	96.019878
loop_
_atom_site_label
_atom_site_type_symbol
_atom_site_fract_x
_atom_site_fract_y
_atom_site_fract_z
O1	O	0.117435	-1.655689	-0.113475
O2	O	0.128675	-1.292393	-0.113479
O3	O	0.001224	-1.483972	-0.113475
O4	O	0.244886	-1.464110	-0.113478
O5	O	0.001224	-1.483958	0.113507
O6	O	0.128675	-1.292379	0.113503
O7	O	0.117434	-1.655675	0.113507
Zn8	Zn	0.123055	-1.474025	0.149544
Zn9	Zn	0.123055	-1.474044	-0.149515
O10	O	0.244885	-1.464096	0.113504
C11	C	0.127857	-1.245897	0.000012
C12	C	0.125410	-1.107374	0.000010
C13	C	0.118252	-1.702171	0.000014
C14	C	0.120700	-1.840694	0.000007
C15	C	-0.029975	-1.483144	0.000013
C16	C	-0.122940	-1.480682	0.000005
C17	C	-0.460738	-1.471842	0.000010
C18	C	-0.414088	-1.335403	-0.000501
C19	C	-0.317383	-1.337865	0.000011
C20	C	-0.293152	-1.476227	0.000007
C21	C	-0.333843	-1.543515	0.129623
C22	C	-0.430499	-1.540088	0.129732
C23	C	-0.430840	-1.542922	-0.128390
C24	C	-0.333895	-1.542890	-0.130103
C25	C	-0.198441	-1.478712	0.000010
C26	C	-0.555450	-1.469360	0.000016
C27	C	0.276085	-1.464924	0.000013
C28	C	0.369049	-1.467386	0.000011
N29	N	0.123054	-1.474021	0.353643
C30	C	0.196725	-1.031482	0.000008
C31	C	0.194197	-0.888310	0.000007
N32	N	0.123049	-1.474057	-0.353615
C33	C	0.069305	-1.554463	0.421422
C34	C	0.069302	-1.554483	0.578584
H35	H	-0.432932	-1.280875	-0.093451
H36	H	0.062483	-1.066355	-0.000024
N37	N	-0.282791	-1.271052	0.116757
N38	N	-0.230306	-1.177204	0.101577
H39	H	-0.205874	-1.130014	0.184034
H40	H	0.255248	-0.823099	-0.000000
H41	H	-0.462023	-1.643518	-0.129264
H42	H	0.059646	-0.905898	-0.000001
N43	N	0.011576	-1.640827	0.348247
N44	N	0.011657	-1.640684	0.220682
H45	H	-0.029116	-1.701680	0.169002
H46	H	-0.319134	-1.645166	0.134441
N47	N	0.275663	-1.082947	0.000023
N48	N	0.277605	-1.199177	0.000031
H49	H	0.333357	-1.235524	0.000042
H50	H	0.023288	-1.623357	0.636871
H51	H	0.169072	-1.405188	0.588108
N52	N	0.180780	-1.387620	0.426776
N53	N	0.179150	-1.272233	0.410943
H54	H	0.219921	-1.211207	0.462589
N55	N	-0.282106	-1.271521	-0.116553
N56	N	-0.303775	-1.307301	-0.233939
H57	H	-0.278864	-1.260438	-0.316265
N58	N	-0.439065	-1.267295	0.115454
N59	N	-0.491074	-1.318804	0.198467
H60	H	-0.508717	-1.270707	0.280363
H61	H	-0.449082	-1.491009	0.226625
H62	H	-0.462172	-1.640259	0.135610
H63	H	-0.451636	-1.498320	-0.226631
N64	N	-0.298573	-1.484864	0.250622
N65	N	-0.243481	-1.393523	0.241733
H66	H	-0.218572	-1.352092	0.327186
N67	N	-0.300001	-1.481243	-0.250387
N68	N	-0.246037	-1.388556	-0.240433
H69	H	-0.222094	-1.345014	-0.325382
H70	H	-0.317954	-1.643790	-0.137932
