data_functionalizedCrystal
_audit_creation_method	'MofGen! by Chris Wilmer'
_symmetry_space_group_name_H-M	'P1'
_symmetry_Int_Tables_number	1
_symmetry_cell_setting	triclinic
loop_
_symmetry_equiv_pos_as_xyz
  x,y,z
_cell_length_a	10.654554
_cell_length_b	10.654551
_cell_length_c	9.730223
_cell_angle_alpha	89.998425
_cell_angle_beta	89.995968
_cell_angle_gamma	84.486102
loop_
_atom_site_label
_atom_site_type_symbol
_atom_site_fract_x
_atom_site_fract_y
_atom_site_fract_z
O1	O	1.667836	0.176427	-0.114305
O2	O	1.302359	0.193226	-0.114302
O3	O	1.493500	0.002087	-0.114304
O4	O	1.476695	0.367565	-0.114302
O5	O	1.493487	0.002082	0.114276
O6	O	1.302346	0.193221	0.114278
O7	O	1.667824	0.176421	0.114275
Zn8	Zn	1.485083	0.184820	0.150569
Zn9	Zn	1.485099	0.184827	-0.150595
O10	O	1.476683	0.367560	0.114277
C11	C	1.255555	0.191989	-0.000011
C12	C	1.116112	0.188295	-0.000010
C13	C	0.933549	0.068808	-0.000029
C14	C	1.064571	0.072279	-0.000015
C15	C	1.036623	0.300848	-0.000006
C16	C	0.905604	0.297376	-0.000010
C17	C	0.949686	-0.063154	-0.000040
C18	C	1.080707	-0.059684	-0.000025
C19	C	1.492259	-0.044713	-0.000017
C20	C	1.488567	-0.184156	-0.000026
C21	C	1.486842	-0.249666	-0.124623
C22	C	1.483361	-0.380686	-0.124617
C23	C	1.483337	-0.380677	0.124594
C24	C	1.486809	-0.249658	0.124586
C25	C	1.486861	-0.249672	-0.268503
C26	C	1.483380	-0.380693	-0.268496
C27	C	1.714628	0.177659	-0.000018
C28	C	1.854071	0.181353	-0.000028
C29	C	1.477923	0.414361	-0.000012
C30	C	1.481616	0.553804	-0.000012
N31	N	1.485081	0.184815	0.356105
N32	N	1.485111	0.184823	-0.356132
C33	C	1.569748	0.100215	0.428030
C34	C	1.569760	0.100215	0.571913
C35	C	1.400436	0.269427	0.571933
C36	C	1.400418	0.269420	0.428053
H37	H	0.920318	-0.114769	0.095614
H38	H	0.840896	0.389021	0.000006
H39	H	1.331507	0.338312	0.630528
H40	H	1.400074	-0.203392	-0.323751
H41	H	0.914063	-0.105173	-0.098737
Br42	Br	1.489101	-0.160749	0.293688
Br43	Br	1.684663	-0.014610	0.669523
H44	H	1.331467	0.338312	0.369488
Br45	Br	1.330720	-0.429989	-0.342912
Br46	Br	1.106569	0.458301	0.000021
H47	H	1.126340	-0.099563	0.098673
H48	H	1.570174	-0.426981	-0.323740
H49	H	1.481904	-0.434024	0.226049
H50	H	1.578462	-0.220103	-0.313145
Br51	Br	1.150324	-0.142524	-0.159470
H52	H	1.638684	0.031322	0.369453
