data_functionalizedCrystal
_audit_creation_method	'MofGen! by Chris Wilmer'
_symmetry_space_group_name_H-M	'P1'
_symmetry_Int_Tables_number	1
_symmetry_cell_setting	triclinic
loop_
_symmetry_equiv_pos_as_xyz
  x,y,z
_cell_length_a	10.489716
_cell_length_b	10.489716
_cell_length_c	17.766277
_cell_angle_alpha	89.997726
_cell_angle_beta	89.991027
_cell_angle_gamma	84.529136
loop_
_atom_site_label
_atom_site_type_symbol
_atom_site_fract_x
_atom_site_fract_y
_atom_site_fract_z
O1	O	1.694065	0.179823	-0.062581
O2	O	1.322864	0.196749	-0.062583
O3	O	1.516927	0.002685	-0.062584
O4	O	1.500001	0.373886	-0.062579
O5	O	1.516893	0.002675	0.062604
O6	O	1.322829	0.196738	0.062606
O7	O	1.694030	0.179813	0.062608
Cu8	Cu	1.508427	0.188274	0.074037
Cu9	Cu	1.508467	0.188287	-0.074013
O10	O	1.499967	0.373876	0.062609
C11	C	1.275314	0.195472	0.000011
C12	C	1.133684	0.191667	0.000010
C13	C	1.035999	0.310673	0.000010
C14	C	0.958642	0.247783	0.061737
C15	C	0.958682	0.247764	-0.061689
C16	C	1.058192	0.128827	0.061788
C17	C	1.058238	0.128826	-0.061694
C18	C	0.980929	0.065848	0.000048
C19	C	1.515638	-0.044852	0.000007
C20	C	1.511833	-0.186483	0.000001
C21	C	1.630839	-0.284167	0.000008
C22	C	1.567971	-0.361517	-0.061715
C23	C	1.567909	-0.361491	0.061711
C24	C	1.449015	-0.261967	-0.061773
C25	C	1.448971	-0.261936	0.061708
C26	C	1.386015	-0.339237	-0.000030
C27	C	1.741580	0.181089	0.000012
C28	C	1.883210	0.184894	0.000008
C29	C	1.501256	0.421413	0.000016
C30	C	1.505061	0.563044	0.000018
N31	N	1.508407	0.188265	0.178168
N32	N	1.508497	0.188286	-0.178143
C33	C	1.594367	0.102377	0.217554
C34	C	1.594374	0.102371	0.296356
C35	C	1.508434	0.188276	0.335768
C36	C	1.422458	0.274170	0.296373
C37	C	1.422445	0.274165	0.217572
C38	C	1.492777	0.304298	0.460608
C39	C	1.492800	0.304305	0.539407
C40	C	1.508468	0.188291	0.578815
C41	C	1.524142	0.072266	0.539414
C42	C	1.524128	0.072260	0.460614
C43	C	1.508439	0.188290	0.421214
C44	C	1.594441	0.102389	0.703647
C45	C	1.594439	0.102382	0.782450
C46	C	1.422529	0.274193	0.782465
C47	C	1.422525	0.274189	0.703664
C48	C	1.508487	0.188289	0.664259
H49	H	1.734354	-0.259500	-0.000054
H50	H	1.479996	0.398777	0.428528
C51	C	0.899964	0.315666	-0.132184
N52	N	0.855742	0.366818	-0.185278
H53	H	1.618222	-0.405012	-0.113898
H54	H	1.398819	-0.218655	-0.114013
H55	H	1.282422	-0.363659	-0.000064
H56	H	1.664375	0.032427	0.328430
C57	C	1.381137	-0.203152	0.132209
N58	N	1.330050	-0.158879	0.185317
C59	C	1.117026	0.061014	-0.132199
N60	N	1.161301	0.009942	-0.185310
H61	H	0.915141	0.298016	0.113923
C62	C	1.635786	-0.420218	0.132210
N63	N	1.686919	-0.464446	0.185308
C64	C	1.688916	0.007871	0.174214
N65	N	1.760127	-0.063315	0.141568
H66	H	1.536886	-0.022212	0.428537
H67	H	1.101498	0.078614	0.114025
H68	H	0.956508	-0.037744	0.000083
C69	C	1.541375	-0.055361	0.582757
N70	N	1.554356	-0.151485	0.615406
C71	C	1.688988	0.007887	0.660299
N72	N	1.760200	-0.063296	0.627652
C73	C	1.688985	0.007871	0.825775
N74	N	1.760193	-0.063323	0.858407
C75	C	1.327995	0.368690	0.825815
N76	N	1.256788	0.439868	0.858469
H77	H	1.352533	0.344133	0.671593
C78	C	1.475546	0.431935	0.582740
N79	N	1.462543	0.528068	0.615376
C80	C	1.069336	0.450512	0.000094
N81	N	1.094449	0.555835	0.000162
C82	C	1.327918	0.368660	0.339728
N83	N	1.256703	0.439829	0.372383
H84	H	1.352444	0.344107	0.185503
