data_functionalizedCrystal
_audit_creation_method	'MofGen! by Chris Wilmer'
_symmetry_space_group_name_H-M	'P1'
_symmetry_Int_Tables_number	1
_symmetry_cell_setting	triclinic
loop_
_symmetry_equiv_pos_as_xyz
  x,y,z
_cell_length_a	14.044220
_cell_length_b	19.288865
_cell_length_c	17.766277
_cell_angle_alpha	90.011603
_cell_angle_beta	89.995720
_cell_angle_gamma	91.837437
loop_
_atom_site_label
_atom_site_type_symbol
_atom_site_fract_x
_atom_site_fract_y
_atom_site_fract_z
O1	O	1.256998	-0.167413	-0.062531
O2	O	0.981055	-0.161372	-0.062549
O3	O	1.127000	-0.063774	-0.062525
O4	O	1.111053	-0.265010	-0.062556
O5	O	1.126975	-0.063767	0.062664
O6	O	0.981029	-0.161365	0.062639
O7	O	1.256973	-0.167406	0.062658
Cu8	Cu	1.118999	-0.164385	0.074079
Cu9	Cu	1.119029	-0.164393	-0.073971
O10	O	1.111028	-0.265003	0.062633
C11	C	0.945739	-0.158724	0.000043
C12	C	0.840547	-0.150836	0.000036
N13	N	1.118984	-0.164379	0.178209
C14	C	1.126474	-0.037862	0.000072
C15	C	1.124934	0.039341	0.000078
C16	C	0.647947	-0.136416	0.000053
C17	C	0.590075	-0.192359	0.000048
C18	C	0.482906	-0.184335	0.000058
C19	C	0.755126	-0.144438	0.000044
C20	C	1.292289	-0.170054	0.000064
C21	C	1.397481	-0.177942	0.000065
C22	C	1.111554	-0.290916	0.000035
C23	C	1.113094	-0.368119	0.000023
C24	C	1.210568	0.078535	0.000088
C25	C	1.209121	0.151075	0.000076
C26	C	1.122035	0.184418	0.000069
C27	C	1.036390	0.145215	0.000056
C28	C	1.037839	0.072676	0.000060
C29	C	1.053566	0.297107	0.043916
C30	C	1.052120	0.369644	0.043916
C31	C	1.117560	0.408151	0.000052
C32	C	1.184463	0.374113	-0.043802
C33	C	1.185912	0.301574	-0.043797
C34	C	1.120453	0.263074	0.000064
C35	C	1.201631	0.526002	0.000048
C36	C	1.200181	0.598543	0.000031
C37	C	1.027447	0.592681	0.000019
C38	C	1.028900	0.520142	0.000028
C39	C	1.115995	0.486806	0.000046
N40	N	1.119051	-0.164394	-0.178101
C41	C	1.183630	-0.121187	0.217607
C42	C	1.183635	-0.121184	0.296409
C43	C	1.119004	-0.164386	0.335810
C44	C	1.054347	-0.207580	0.296403
C45	C	1.054337	-0.207577	0.217602
C46	C	1.106318	-0.226858	0.460638
C47	C	1.106335	-0.226863	0.539437
C48	C	1.119030	-0.164396	0.578856
C49	C	1.131728	-0.101922	0.539467
C50	C	1.131718	-0.101919	0.460667
C51	C	1.119008	-0.164394	0.421256
C52	C	1.183684	-0.121197	0.703700
C53	C	1.183683	-0.121193	0.782503
C54	C	1.054400	-0.207595	0.782495
C55	C	1.054396	-0.207593	0.703694
C56	C	1.119044	-0.164395	0.664301
H57	H	0.621016	-0.246280	0.000036
H58	H	1.001722	-0.242754	0.328487
H59	H	1.236267	-0.086011	0.185536
O60	O	0.606975	-0.064993	0.000064
H61	H	0.528008	-0.069821	0.000063
H62	H	0.959167	0.488229	0.000024
O63	O	1.145207	-0.034562	0.418113
H64	H	1.209636	-0.036923	0.382134
H65	H	0.997640	0.397352	0.079620
O66	O	0.982984	0.255575	0.091232
H67	H	0.936233	0.291429	0.121735
O68	O	1.304501	0.042579	0.000086
H69	H	1.363805	0.082025	0.000080
O70	O	1.301485	0.193363	0.000096
H71	H	1.362290	0.157996	0.000115
H72	H	1.001760	-0.242767	0.671614
O73	O	1.258050	0.264857	-0.091105
H74	H	1.303309	0.303814	-0.121615
O75	O	1.255048	0.415632	-0.091123
H76	H	1.242795	0.471791	-0.083769
H77	H	0.965484	0.172367	0.000049
H78	H	1.272549	0.498859	0.000059
O79	O	1.292547	0.640823	0.000047
H80	H	1.353348	0.605453	0.000070
O81	O	1.253372	-0.074576	0.661209
H82	H	1.242504	-0.081829	0.599794
O83	O	0.933514	0.628632	0.000015
H84	H	0.946891	0.685658	0.000019
H85	H	0.968103	0.040764	0.000053
O86	O	1.253371	-0.074605	0.338918
H87	H	1.298327	-0.044572	0.298286
O88	O	1.145414	-0.034538	0.581970
H89	H	1.143274	-0.045031	0.643382
H90	H	1.096001	-0.277733	0.571501
O91	O	1.253421	-0.074614	0.825003
H92	H	1.298379	-0.044585	0.784369
H93	H	1.001772	-0.242768	0.814575
H94	H	1.095964	-0.277729	0.428549
O95	O	0.984617	-0.254169	0.175101
H96	H	0.939677	-0.284214	0.215734
