data_functionalizedCrystal
_audit_creation_method	'MofGen! by Chris Wilmer'
_symmetry_space_group_name_H-M	'P1'
_symmetry_Int_Tables_number	1
_symmetry_cell_setting	triclinic
loop_
_symmetry_equiv_pos_as_xyz
  x,y,z
_cell_length_a	16.625548
_cell_length_b	21.295417
_cell_length_c	16.625539
_cell_angle_alpha	90.033373
_cell_angle_beta	90.020568
_cell_angle_gamma	90.031575
loop_
_atom_site_label
_atom_site_type_symbol
_atom_site_fract_x
_atom_site_fract_y
_atom_site_fract_z
Zn1	Zn	1.232635	-0.250590	0.455881
Zn2	Zn	1.565969	0.082743	0.789214
Zn3	Zn	1.899302	0.416077	1.122548
Zn4	Zn	1.232520	-0.355864	0.321036
Zn5	Zn	1.565853	-0.022530	0.654370
Zn6	Zn	1.899186	0.310803	0.987703
Zn7	Zn	1.097797	-0.250614	0.321061
Zn8	Zn	1.431131	0.082719	0.654395
Zn9	Zn	1.764464	0.416053	0.987728
Zn10	Zn	1.097749	-0.355827	0.455826
Zn11	Zn	1.431082	-0.022494	0.789159
Zn12	Zn	1.764415	0.310839	1.122493
O13	O	1.165175	-0.303224	0.388451
O14	O	1.498509	0.030110	0.721785
O15	O	1.831842	0.363443	1.055118
O16	O	1.345452	-0.264560	0.438006
O17	O	1.678786	0.068773	0.771339
O18	O	2.012119	0.402107	1.104673
O19	O	1.214620	-0.341927	0.208207
O20	O	1.547954	-0.008594	0.541540
O21	O	1.881287	0.324740	0.874874
O22	O	1.115753	-0.162522	0.338979
O23	O	1.449086	0.170812	0.672312
O24	O	1.782419	0.504145	1.005646
O25	O	1.345367	-0.341904	0.338936
O26	O	1.678701	-0.008571	0.672269
O27	O	2.012034	0.324763	1.005603
O28	O	1.214818	-0.162504	0.438030
O29	O	1.548151	0.170829	0.771364
O30	O	1.881484	0.504163	1.104697
O31	O	1.115640	-0.264601	0.208226
O32	O	1.448974	0.068732	0.541559
O33	O	1.782307	0.402066	0.874892
O34	O	0.984958	-0.264566	0.338926
O35	O	1.318292	0.068768	0.672259
O36	O	1.651625	0.402101	1.005593
O37	O	1.115670	-0.341842	0.568666
O38	O	1.449003	-0.008509	0.901999
O39	O	1.782337	0.324824	1.235332
O40	O	0.984923	-0.341866	0.437937
O41	O	1.318256	-0.008532	0.771270
O42	O	1.651589	0.324801	1.104604
O43	O	1.214771	-0.264525	0.568706
O44	O	1.548104	0.068808	0.902039
O45	O	1.881437	0.402142	1.235373
O46	O	1.214573	-0.443948	0.338883
O47	O	1.547907	-0.110615	0.672216
O48	O	1.881240	0.222719	1.005550
O49	O	1.115558	-0.443922	0.437912
O50	O	1.448891	-0.110588	0.771246
O51	O	1.782224	0.222745	1.104579
C52	C	0.955684	-0.303215	0.388429
C53	C	1.289018	0.030119	0.721762
C54	C	1.622351	0.363452	1.055095
C55	C	0.866063	-0.303226	0.388438
C56	C	1.199397	0.030107	0.721771
C57	C	1.532730	0.363441	1.055105
C58	C	0.537888	-0.303230	0.388473
C59	C	0.871221	0.030103	0.721806
C60	C	1.204554	0.363436	1.055139
C61	C	0.629196	-0.303227	0.388460
C62	C	0.962529	0.030106	0.721794
C63	C	1.295863	0.363439	1.055127
C64	C	0.701973	-0.303229	0.388455
C65	C	1.035306	0.030105	0.721788
C66	C	1.368639	0.363438	1.055121
C67	C	0.793287	-0.303225	0.388444
C68	C	1.126620	0.030108	0.721777
C69	C	1.459954	0.363442	1.055111
C70	C	1.165070	-0.466775	0.388407
C71	C	1.498403	-0.133442	0.721740
C72	C	1.831736	0.199891	1.055073
C73	C	1.165098	-0.536744	0.388414
C74	C	1.498431	-0.203410	0.721748
C75	C	1.831765	0.129923	1.055081
C76	C	1.216701	-0.569603	0.336903
C77	C	1.550035	-0.236270	0.670236
C78	C	1.883368	0.097064	1.003569
C79	C	1.216739	-0.635346	0.336921
C80	C	1.550073	-0.302012	0.670254
C81	C	1.883406	0.031321	1.003587
C82	C	1.165159	-0.668226	0.388442
C83	C	1.498493	-0.334893	0.721776
C84	C	1.831826	-0.001559	1.055109
C85	C	1.113552	-0.635359	0.439964
C86	C	1.446886	-0.302025	0.773297
C87	C	1.780219	0.031308	1.106631
C88	C	1.113522	-0.569617	0.439950
C89	C	1.446855	-0.236284	0.773283
C90	C	1.780188	0.097049	1.106617
N91	N	1.094624	-0.771493	0.394581
N92	N	1.427958	-0.438159	0.727915
N93	N	1.761291	-0.104826	1.061248
N94	N	1.094656	-0.833944	0.394590
N95	N	1.427989	-0.500611	0.727923
N96	N	1.761322	-0.167277	1.061257
C97	C	1.165250	-0.866301	0.388488
C98	C	1.498583	-0.532967	0.721822
C99	C	1.831916	-0.199634	1.055155
N100	N	1.235813	-0.833847	0.382362
N101	N	1.569146	-0.500513	0.715696
N102	N	1.902479	-0.167180	1.049029
N103	N	1.235780	-0.771389	0.382350
N104	N	1.569114	-0.438056	0.715683
N105	N	1.902447	-0.104723	1.049016
C106	C	1.165187	-0.739511	0.388463
C107	C	1.498520	-0.406178	0.721797
C108	C	1.831854	-0.072845	1.055130
C109	C	1.216898	-0.970446	0.336994
C110	C	1.550232	-0.637112	0.670327
C111	C	1.883565	-0.303779	1.003660
C112	C	1.216937	-1.036189	0.337017
C113	C	1.550271	-0.702856	0.670351
C114	C	1.883604	-0.369523	1.003684
C115	C	1.113743	-1.036201	0.440056
C116	C	1.447077	-0.702868	0.773390
C117	C	1.780410	-0.369534	1.106723
C118	C	1.113711	-0.970459	0.440037
C119	C	1.447045	-0.637125	0.773370
C120	C	1.780378	-0.303792	1.106704
C121	C	1.165288	-0.937585	0.388501
C122	C	1.498621	-0.604252	0.721834
C123	C	1.831954	-0.270918	1.055168
C124	C	1.375484	-0.303233	0.388474
C125	C	1.708817	0.030100	0.721808
C126	C	2.042151	0.363433	1.055141
C127	C	1.465105	-0.303237	0.388484
C128	C	1.798439	0.030096	0.721817
C129	C	2.131772	0.363429	1.055151
C130	C	1.165228	-0.303177	0.598760
C131	C	1.498561	0.030156	0.932094
C132	C	1.831894	0.363490	1.265427
C133	C	1.165250	-0.303157	0.688381
C134	C	1.498583	0.030176	1.021715
C135	C	1.831917	0.363510	1.355048
C136	C	1.165303	-0.139033	0.388514
C137	C	1.498637	0.194300	0.721847
C138	C	1.831970	0.527633	1.055180
C139	C	1.165358	-0.069065	0.388540
C140	C	1.498691	0.264268	0.721874
C141	C	1.832025	0.597601	1.055207
C142	C	1.165169	-0.303225	0.178960
C143	C	1.498503	0.030108	0.512294
C144	C	1.831836	0.363442	0.845627
C145	C	1.165303	-0.303068	0.089340
C146	C	1.498637	0.030266	0.422673
C147	C	1.831970	0.363599	0.756006
C148	C	1.165287	-0.303086	1.016557
C149	C	1.498621	0.030247	1.349891
C150	C	1.831954	0.363580	1.683224
C151	C	1.165275	-0.303108	0.925249
C152	C	1.498608	0.030225	1.258582
C153	C	1.831941	0.363559	1.591915
C154	C	1.165269	-0.303122	0.852472
C155	C	1.498602	0.030211	1.185806
C156	C	1.831936	0.363544	1.519139
C157	C	1.165256	-0.303143	0.761158
C158	C	1.498589	0.030191	1.094491
C159	C	1.831922	0.363524	1.427825
H160	H	1.258764	-0.662105	0.294974
H161	H	1.592097	-0.328772	0.628307
H162	H	1.925430	0.004562	0.961640
H163	H	1.258964	-1.062943	0.295072
H164	H	1.592297	-0.729609	0.628405
H165	H	1.925631	-0.396276	0.961738
H166	H	1.258897	-0.943679	0.295032
H167	H	1.592231	-0.610346	0.628366
H168	H	1.925564	-0.277012	0.961699
N169	N	1.061065	-1.069789	0.492685
N170	N	1.394398	-0.736456	0.826019
N171	N	1.727732	-0.403122	1.159352
N172	N	1.061100	-1.128486	0.492694
N173	N	1.394433	-0.795153	0.826027
N174	N	1.727767	-0.461819	1.159361
H175	H	1.023896	-1.152211	0.529866
H176	H	1.357230	-0.818878	0.863199
H177	H	1.690563	-0.485545	1.196533
H178	H	1.071688	-0.943703	0.481979
H179	H	1.405021	-0.610369	0.815313
H180	H	1.738354	-0.277036	1.148646
H181	H	1.258700	-0.542839	0.294941
H182	H	1.592033	-0.209506	0.628275
H183	H	1.925366	0.123827	0.961608
N184	N	1.060863	-0.668952	0.492579
N185	N	1.394196	-0.335619	0.825913
N186	N	1.727529	-0.002286	1.159246
N187	N	1.009516	-0.705689	0.464167
N188	N	1.342850	-0.372355	0.797500
N189	N	1.676183	-0.039022	1.130834
H190	H	0.972304	-0.729415	0.501330
H191	H	1.305637	-0.396082	0.834663
H192	H	1.638971	-0.062748	1.167996
N193	N	1.060805	-0.536058	0.492578
N194	N	1.394139	-0.202725	0.825912
N195	N	1.727472	0.130608	1.159245
N196	N	1.014759	-0.565419	0.538583
N197	N	1.348093	-0.232086	0.871916
N198	N	1.681426	0.101247	1.205250
H199	H	0.977527	-0.541718	0.575753
H200	H	1.310860	-0.208385	0.909086
H201	H	1.644193	0.124949	1.242420
