data_functionalizedCrystal
_audit_creation_method	'MofGen! by Chris Wilmer'
_symmetry_space_group_name_H-M	'P1'
_symmetry_Int_Tables_number	1
_symmetry_cell_setting	triclinic
loop_
_symmetry_equiv_pos_as_xyz
  x,y,z
_cell_length_a	6.817900
_cell_length_b	12.840946
_cell_length_c	9.582889
_cell_angle_alpha	82.176546
_cell_angle_beta	111.207298
_cell_angle_gamma	88.344365
loop_
_atom_site_label
_atom_site_type_symbol
_atom_site_fract_x
_atom_site_fract_y
_atom_site_fract_z
V1	V	-3.939064	0.325022	-0.210601
O2	O	-3.887067	0.319031	0.006470
O3	O	-3.930785	0.322610	-0.414076
O4	O	-3.834346	0.466861	-0.208963
O5	O	-3.984174	0.173781	-0.200062
V6	V	-4.424790	0.306955	-0.184448
O7	O	-4.195488	0.364652	-0.267971
O8	O	-4.618563	0.267325	-0.127078
O9	O	-4.209862	0.309367	0.019027
O10	O	-4.594184	0.312946	-0.401519
O11	O	-4.497077	0.458196	-0.194986
O12	O	-4.306301	0.165116	-0.186085
C13	C	-3.787369	0.317434	-0.463628
C14	C	-3.861512	0.316407	-0.629982
C15	C	-3.664362	0.501439	-0.201980
C16	C	-3.660215	0.619572	-0.201985
C17	C	-4.122667	0.012409	-0.193126
C18	C	-4.139661	0.130537	-0.193093
V19	V	-3.922043	0.811189	-0.210644
O20	O	-3.956552	0.962406	-0.200124
O21	O	-3.827455	0.664006	-0.208988
O22	O	-3.912228	0.852406	-0.414119
O23	O	-3.871193	0.772702	0.006427
V24	V	-4.405828	0.848659	-0.184503
O25	O	-4.180403	0.795610	-0.268015
O26	O	-4.596874	0.886925	-0.127142
O27	O	-4.277601	0.984594	-0.186155
O28	O	-4.488510	0.703358	-0.195026
O29	O	-4.573869	0.893062	-0.401578
O30	O	-4.192829	0.796194	0.018977
C31	C	-4.016623	0.314540	0.068572
C32	C	-3.921716	0.315574	0.234924
C33	C	-3.768361	0.859895	-0.463662
C34	C	-3.841170	0.896733	-0.630015
C35	C	-4.000627	0.771737	0.068534
C36	C	-3.907092	0.733862	0.234891
C37	C	-4.056915	0.919480	-0.715825
C38	C	-4.125353	0.954109	-0.872129
C39	C	-3.978045	0.965984	-0.942623
C40	C	-3.762281	0.943237	-0.856801
C41	C	-3.693845	0.908616	-0.700498
C42	C	-3.690590	0.703645	0.305355
C43	C	-3.602673	0.668069	0.461667
C44	C	-3.731263	0.662704	0.547510
C45	C	-3.947784	0.692928	0.477037
C46	C	-4.035695	0.728510	0.320729
H47	H	-4.176891	0.909812	-0.658451
H48	H	-3.659654	0.633727	0.674784
H49	H	-4.052463	0.688555	0.546954
C50	C	-3.367690	0.635058	0.538312
C51	C	-3.338108	0.529262	0.606497
C52	C	-3.121678	0.498818	0.677126
H53	H	-3.303481	0.643239	0.464940
H54	H	-3.305154	0.677984	0.613369
H55	H	-3.400617	0.486348	0.531448
H56	H	-3.402268	0.521054	0.679891
H57	H	-3.059142	0.541745	0.752183
H58	H	-3.057488	0.507005	0.603744
H59	H	-3.101579	0.427037	0.723410
H60	H	-4.301045	0.972622	-0.941985
C61	C	-3.602697	0.956140	-0.933644
C62	C	-3.708842	0.991296	-1.088899
C63	C	-3.561911	1.003173	-1.159744
H64	H	-3.508238	1.006251	-0.890732
H65	H	-3.525501	0.890225	-0.919318
H66	H	-3.786002	1.057201	-1.103215
H67	H	-3.803290	0.941198	-1.131854
H68	H	-3.484715	0.937258	-1.145418
H69	H	-3.467460	1.053283	-1.116820
H70	H	-3.633910	1.027018	-1.265094
C71	C	-3.550760	0.709259	0.212318
C72	C	-3.456170	0.608462	0.224613
C73	C	-3.327307	0.613598	0.138956
H74	H	-3.633866	0.734712	0.109083
H75	H	-3.444370	0.755656	0.249133
H76	H	-3.562545	0.562082	0.187791
H77	H	-3.373027	0.582992	0.327827
H78	H	-3.220917	0.659994	0.175770
H79	H	-3.410429	0.639053	0.035726
H80	H	-3.263097	0.545211	0.147297
H81	H	-4.033798	0.994175	-1.069896
H82	H	-3.518165	0.890093	-0.630644
H83	H	-4.211991	0.753106	0.263369
