data_functionalizedCrystal
_audit_creation_method	'MofGen! by Chris Wilmer'
_symmetry_space_group_name_H-M	'P1'
_symmetry_Int_Tables_number	1
_symmetry_cell_setting	triclinic
loop_
_symmetry_equiv_pos_as_xyz
  x,y,z
_cell_length_a	15.625711
_cell_length_b	19.188930
_cell_length_c	14.750779
_cell_angle_alpha	77.396187
_cell_angle_beta	59.911753
_cell_angle_gamma	96.275023
loop_
_atom_site_label
_atom_site_type_symbol
_atom_site_fract_x
_atom_site_fract_y
_atom_site_fract_z
O1	O	-1.286093	0.021569	0.367631
O2	O	-0.999051	0.051336	0.267757
O3	O	-1.150861	-0.065728	0.320596
O4	O	-1.134284	0.138632	0.314791
O5	O	-1.193775	-0.098817	0.495184
O6	O	-1.041966	0.018247	0.442344
O7	O	-1.329008	-0.011521	0.542218
Zn8	Zn	-1.192300	-0.001890	0.520001
Zn9	Zn	-1.135758	0.041706	0.289974
O10	O	-1.177198	0.105543	0.489378
C11	C	-0.983785	0.036719	0.342273
C12	C	-0.874362	0.042452	0.304201
C13	C	-0.631321	-0.028812	0.654696
C14	C	-0.528486	-0.023401	0.618872
C15	C	-0.481753	0.012668	0.428562
C16	C	-0.584585	0.007264	0.464370
C17	C	-0.659362	-0.013477	0.577438
C18	C	-0.612626	0.022599	0.387111
C19	C	-0.715450	0.017191	0.422917
C20	C	-0.790232	-0.003551	0.535981
C21	C	-0.762185	-0.018885	0.613243
C22	C	-0.537849	0.043335	0.274044
C23	C	-0.565890	0.058670	0.196786
C24	C	-0.668714	0.053268	0.232590
C25	C	-0.743497	0.032525	0.345654
C26	C	-0.696761	0.068602	0.155327
C27	C	-0.799585	0.063194	0.191133
C28	C	-0.846321	0.027117	0.381459
C29	C	-1.171782	-0.108250	0.407706
C30	C	-1.170174	-0.185655	0.407155
C31	C	-1.259249	-0.236176	0.438153
C32	C	-1.257732	-0.308902	0.437609
C33	C	-1.167140	-0.331107	0.406088
C34	C	-1.078051	-0.280574	0.375080
C35	C	-1.079568	-0.207848	0.375614
N36	N	-1.112498	-0.446022	0.441409
N37	N	-1.111063	-0.515110	0.440907
C38	C	-1.162563	-0.550224	0.404476
N39	N	-1.215569	-0.513645	0.368585
N40	N	-1.217008	-0.444552	0.369093
C41	C	-1.165484	-0.409964	0.405505
C42	C	-1.249999	-0.679603	0.434885
C43	C	-1.248476	-0.752328	0.434334
C44	C	-1.068796	-0.724001	0.371815
C45	C	-1.070318	-0.651275	0.372356
C46	C	-1.160923	-0.629082	0.403897
C47	C	-0.344278	0.003089	0.467715
C48	C	-0.453714	-0.002667	0.505828
C49	C	-1.156276	0.148066	0.402266
C50	C	-1.157883	0.225472	0.402810
N51	N	-1.230896	-0.031645	0.676990
N52	N	-1.097171	0.071454	0.132987
C53	C	-0.989379	0.154523	0.944745
C54	C	-1.016431	0.133677	1.054660
C55	C	-1.150886	0.030050	1.101421
C56	C	-1.123842	0.050885	0.991507
C57	C	-1.043088	0.113123	0.913177
C58	C	-1.177551	0.009485	0.959939
C59	C	-1.150511	0.030321	0.850035
C60	C	-1.069763	0.092557	0.771700
C61	C	-1.016049	0.133959	0.803273
C62	C	-1.258309	-0.052749	1.038273
C63	C	-1.312018	-0.094149	1.006705
C64	C	-1.284974	-0.073316	0.896798
C65	C	-1.204226	-0.011080	0.818462
C66	C	-1.338689	-0.114718	0.865224
C67	C	-1.311649	-0.093882	0.755320
C68	C	-1.177187	0.009755	0.708558
H69	H	-0.907207	0.010239	0.473530
C70	C	-0.497648	-0.040274	0.703872
N71	N	-0.474421	-0.052985	0.767893
C72	C	-0.844446	-0.041697	0.737625
N73	N	-0.906404	-0.058881	0.831305
H74	H	-0.873957	-0.007954	0.565131
C75	C	-1.040018	0.115476	0.650801
N76	N	-1.017613	0.132738	0.559739
C77	C	-0.483626	0.081486	0.072413
N78	N	-0.421664	0.098673	-0.021266
C79	C	-1.427519	-0.183175	0.951402
N80	N	-1.494426	-0.234738	1.016311
H81	H	-0.454124	0.047741	0.244894
H82	H	-0.972688	0.167397	1.080353
C83	C	-0.972328	-0.595700	0.338262
N84	N	-0.898517	-0.553840	0.312576
C85	C	-1.288050	-0.075668	1.159170
N86	N	-1.310449	-0.092930	1.250229
C87	C	-0.927175	0.202398	0.717088
N88	N	-0.860227	0.253936	0.652171
C89	C	-0.981575	-0.152273	0.341516
N90	N	-0.907766	-0.110412	0.315835
C91	C	-0.713581	-0.051625	0.779077
N92	N	-0.775539	-0.068808	0.872758
C93	C	-1.370730	-0.139426	0.720592
N94	N	-1.415232	-0.173730	0.694436
H95	H	-1.377771	-0.144822	1.070494
C96	C	-0.399489	0.035484	0.304190
N97	N	-0.337527	0.052671	0.210510
C98	C	-0.614496	0.091410	0.030956
N99	N	-0.552534	0.108589	-0.062722
H100	H	-1.323774	-0.661532	0.460563
H101	H	-0.923614	0.205198	0.880961
H102	H	-0.822415	0.075685	0.128221
C103	C	-1.346473	-0.807904	0.468441
N104	N	-1.420287	-0.849766	0.494136
H105	H	-1.333026	-0.218111	0.463832
H106	H	-1.330269	-0.350043	0.462848
H107	H	-1.004290	-0.298657	0.349413
H108	H	-0.995032	-0.742078	0.346144
H109	H	-1.111422	0.060431	0.644774
H110	H	-1.216639	-0.020622	1.165211
