data_functionalizedCrystal
_audit_creation_method	'MofGen! by Chris Wilmer'
_symmetry_space_group_name_H-M	'P1'
_symmetry_Int_Tables_number	1
_symmetry_cell_setting	triclinic
loop_
_symmetry_equiv_pos_as_xyz
  x,y,z
_cell_length_a	29.839134
_cell_length_b	29.839131
_cell_length_c	12.594509
_cell_angle_alpha	90.030796
_cell_angle_beta	90.030743
_cell_angle_gamma	90.036564
loop_
_atom_site_label
_atom_site_type_symbol
_atom_site_fract_x
_atom_site_fract_y
_atom_site_fract_z
Zn1	Zn	0.686758	-0.178901	0.602108
Zn2	Zn	1.186758	0.321099	1.102108
Zn3	Zn	0.686678	-0.254036	0.424122
Zn4	Zn	1.186678	0.245964	0.924122
Zn5	Zn	0.611629	-0.178914	0.424108
Zn6	Zn	1.111629	0.321086	0.924108
Zn7	Zn	0.611588	-0.253998	0.602023
Zn8	Zn	1.111588	0.246002	1.102023
O9	O	0.649163	-0.216462	0.513090
O10	O	1.149163	0.283538	1.013090
O11	O	0.749614	-0.188879	0.578540
O12	O	1.249614	0.311121	1.078540
O13	O	0.676706	-0.244092	0.275174
O14	O	1.176706	0.255908	0.775174
O15	O	0.621645	-0.116045	0.447750
O16	O	1.121645	0.383955	0.947750
O17	O	0.749556	-0.244080	0.447774
O18	O	1.249556	0.255920	0.947774
O19	O	0.676842	-0.116036	0.578526
O20	O	1.176842	0.383964	1.078526
O21	O	0.621568	-0.188900	0.275164
O22	O	1.121568	0.311100	0.775164
O23	O	0.548756	-0.188864	0.447667
O24	O	1.048756	0.311136	0.947667
O25	O	0.621575	-0.244015	0.750980
O26	O	1.121575	0.255985	1.250980
O27	O	0.548726	-0.244028	0.578380
O28	O	1.048726	0.255972	1.078380
O29	O	0.676802	-0.188842	0.751043
O30	O	1.176802	0.311158	1.251043
O31	O	0.676666	-0.316898	0.447691
O32	O	1.176666	0.183102	0.947691
O33	O	0.621498	-0.316870	0.578394
O34	O	1.121498	0.183130	1.078394
C35	C	0.532441	-0.216443	0.513013
C36	C	1.032441	0.283557	1.013013
C37	C	0.482506	-0.216446	0.513006
C38	C	0.982506	0.283554	1.013006
C39	C	0.172856	-0.245229	0.581069
C40	C	0.672856	0.254771	1.081069
C41	C	-0.014817	-0.245241	0.581116
C42	C	0.485183	0.254759	1.081116
O43	O	-0.039087	-0.269693	0.638941
O44	O	0.460913	0.230307	1.138941
N45	N	-0.038279	-0.216479	0.513170
N46	N	0.461721	0.283521	1.013170
C47	C	-0.014820	-0.187709	0.445212
C48	C	0.485180	0.312291	0.945212
O49	O	-0.039083	-0.163242	0.387429
O50	O	0.460917	0.336758	0.887429
C51	C	0.172852	-0.187694	0.445171
C52	C	0.672852	0.312306	0.945171
C53	C	0.196312	-0.216462	0.513114
C54	C	0.696312	0.283538	1.013114
C55	C	0.196316	-0.273994	0.649007
C56	C	0.696316	0.226006	1.149007
C57	C	0.243232	-0.273992	0.648991
C58	C	0.743232	0.226008	1.148991
C59	C	0.266687	-0.245225	0.581036
C60	C	0.766687	0.254775	1.081036
C61	C	0.243227	-0.216460	0.513098
C62	C	0.743227	0.283540	1.013098
C63	C	0.196310	-0.158923	0.377220
C64	C	0.696310	0.341077	0.877220
C65	C	0.243231	-0.158921	0.377217
C66	C	0.743231	0.341079	0.877217
C67	C	0.266691	-0.187688	0.445160
C68	C	0.766691	0.312312	0.945160
C69	C	0.313598	-0.187692	0.445126
C70	C	0.813598	0.312308	0.945126
N71	N	0.337061	-0.216455	0.513072
N72	N	0.837061	0.283545	1.013072
C73	C	0.313605	-0.245221	0.581027
C74	C	0.813605	0.254779	1.081027
C75	C	-0.113351	-0.187719	0.445237
C76	C	0.386649	0.312281	0.945237
C77	C	-0.160269	-0.187723	0.445246
C78	C	0.339731	0.312277	0.945246
C79	C	-0.160262	-0.245255	0.581152
C80	C	0.339738	0.254745	1.081152
C81	C	-0.113343	-0.245253	0.581137
C82	C	0.386657	0.254747	1.081137
C83	C	-0.089889	-0.216482	0.513183
C84	C	0.410111	0.283518	1.013183
C85	C	0.412131	-0.245216	0.580986
C86	C	0.912131	0.254784	1.080986
C87	C	0.459051	-0.245213	0.580961
C88	C	0.959051	0.254787	1.080961
C89	C	0.459040	-0.187679	0.445059
C90	C	0.959040	0.312321	0.945059
C91	C	0.412124	-0.187684	0.445081
C92	C	0.912124	0.312316	0.945081
C93	C	0.388671	-0.216453	0.513053
C94	C	0.888671	0.283547	1.013053
O95	O	0.337897	-0.163250	0.387340
O96	O	0.837897	0.336750	0.887340
O97	O	0.337876	-0.269678	0.638819
O98	O	0.837876	0.230322	1.138819
C99	C	0.125941	-0.245231	0.581086
C100	C	0.625941	0.254769	1.081086
C101	C	0.102481	-0.216466	0.513147
C102	C	0.602481	0.283534	1.013147
C103	C	0.125936	-0.187699	0.445193
C104	C	0.625936	0.312301	0.945193
C105	C	0.055563	-0.216470	0.513156
C106	C	0.555563	0.283530	1.013156
C107	C	0.032108	-0.245236	0.581111
C108	C	0.532108	0.254764	1.081111
C109	C	0.055570	-0.273999	0.649057
C110	C	0.555570	0.226001	1.149057
C111	C	0.102485	-0.273997	0.649040
C112	C	0.602485	0.226003	1.149040
C113	C	0.102474	-0.158936	0.377247
C114	C	0.602474	0.341064	0.877247
C115	C	0.055559	-0.158941	0.377268
C116	C	0.555559	0.341059	0.877268
C117	C	0.032103	-0.187707	0.445223
C118	C	0.532103	0.312293	0.945223
C119	C	0.649081	-0.333185	0.513057
C120	C	1.149081	0.166815	1.013057
C121	C	0.649088	-0.383119	0.513079
C122	C	1.149088	0.116881	1.013079
C123	C	0.620455	-0.739708	0.581143
C124	C	1.120455	-0.239708	1.081143
C125	C	0.620396	-0.552035	0.581109
C126	C	1.120396	-0.052035	1.081109
O127	O	0.595954	-0.527771	0.638959
O128	O	1.095954	-0.027771	1.138959
N129	N	0.649135	-0.528565	0.513111
N130	N	1.149135	-0.028565	1.013111
C131	C	0.677893	-0.552015	0.445121
C132	C	1.177893	-0.052015	0.945121
O133	O	0.702339	-0.527746	0.387291
O134	O	1.202339	-0.027746	0.887291
C135	C	0.677954	-0.739688	0.445160
C136	C	1.177954	-0.239688	0.945160
C137	C	0.649210	-0.763155	0.513156
C138	C	1.149210	-0.263155	1.013156
C139	C	0.591714	-0.763176	0.649133
C140	C	1.091714	-0.263176	1.149133
C141	C	0.591727	-0.810091	0.649137
C142	C	1.091727	-0.310091	1.149137
C143	C	0.620482	-0.833539	0.581150
C144	C	1.120482	-0.333539	1.081150
C145	C	0.649224	-0.810071	0.513159
C146	C	1.149224	-0.310071	1.013159
C147	C	0.706714	-0.763138	0.377177
C148	C	1.206714	-0.263138	0.877177
C149	C	0.706728	-0.810059	0.377194
C150	C	1.206728	-0.310059	0.877194
C151	C	0.677984	-0.833527	0.445190
C152	C	1.177984	-0.333527	0.945190
C153	C	0.677992	-0.880434	0.445176
C154	C	1.177992	-0.380434	0.945176
N155	N	0.649253	-0.903904	0.513174
N156	N	1.149253	-0.403904	1.013174
C157	C	0.620498	-0.880457	0.581161
C158	C	1.120498	-0.380457	1.081161
C159	C	0.677858	-0.453485	0.445104
C160	C	1.177858	0.046515	0.945104
C161	C	0.677842	-0.406567	0.445092
C162	C	1.177842	0.093433	0.945092
C163	C	0.620346	-0.406590	0.581082
C164	C	1.120346	0.093410	1.081082
C165	C	0.620360	-0.453508	0.581087
C166	C	1.120360	0.046492	1.081087
C167	C	0.649119	-0.476955	0.513102
C168	C	1.149119	0.023045	1.013102
C169	C	0.620528	-0.978982	0.581163
C170	C	1.120528	-0.478982	1.081163
C171	C	0.620543	-1.025902	0.581157
C172	C	1.120543	-0.525902	1.081157
C173	C	0.678041	-1.025875	0.445172
C174	C	1.178041	-0.525875	0.945172
C175	C	0.678025	-0.978960	0.445173
C176	C	1.178025	-0.478960	0.945173
C177	C	0.649267	-0.955515	0.513177
C178	C	1.149267	-0.455515	1.013177
O179	O	0.702425	-0.904726	0.387365
O180	O	1.202425	-0.404726	0.887365
O181	O	0.596062	-0.904734	0.638999
O182	O	1.096062	-0.404734	1.138999
C183	C	0.620442	-0.692792	0.581139
C184	C	1.120442	-0.192792	1.081139
C185	C	0.649183	-0.669325	0.513149
C186	C	1.149183	-0.169325	1.013149
C187	C	0.677938	-0.692772	0.445162
C188	C	1.177938	-0.192772	0.945162
C189	C	0.649168	-0.622407	0.513137
C190	C	1.149168	-0.122407	1.013137
C191	C	0.620413	-0.598959	0.581124
C192	C	1.120413	-0.098959	1.081124
C193	C	0.591674	-0.622429	0.649123
C194	C	1.091674	-0.122429	1.149123
C195	C	0.591687	-0.669345	0.649126
C196	C	1.091687	-0.169345	1.149126
C197	C	0.706677	-0.669302	0.377163
C198	C	1.206677	-0.169302	0.877163
C199	C	0.706661	-0.622386	0.377164
C200	C	1.206661	-0.122386	0.877164
C201	C	0.677906	-0.598939	0.445151
C202	C	1.177906	-0.098939	0.945151
C203	C	0.766341	-0.216482	0.513168
C204	C	1.266341	0.283518	1.013168
C205	C	0.816276	-0.216490	0.513201
C206	C	1.316276	0.283510	1.013201
C207	C	0.649193	-0.216423	0.790711
C208	C	1.149193	0.283577	1.290711
C209	C	0.649206	-0.216406	0.909017
C210	C	1.149206	0.283594	1.409017
C211	C	0.649257	-0.099284	0.513146
C212	C	1.149257	0.400716	1.013146
C213	C	0.649297	-0.049350	0.513170
C214	C	1.149297	0.450650	1.013170
C215	C	0.649159	-0.216469	0.236549
C216	C	1.149159	0.283531	0.736549
C217	C	0.649233	-0.216359	0.118244
C218	C	1.149233	0.283641	0.618244
C219	C	0.619177	-0.246398	0.978236
C220	C	1.119177	0.253602	1.478236
C221	C	0.660165	-0.257378	1.049041
C222	C	1.160165	0.242622	1.549041
C223	C	0.608250	-0.205399	1.049011
C224	C	1.108250	0.294601	1.549011
C225	C	0.690215	-0.227408	0.978264
C226	C	1.190215	0.272592	1.478264
C227	C	0.638272	-0.175410	0.978227
C228	C	1.138272	0.324590	1.478227
C229	C	0.679289	-0.186374	1.049001
C230	C	1.179289	0.313626	1.549001
H231	H	0.121582	-0.297423	0.704367
H232	H	0.621582	0.202577	1.204367
O233	O	0.030268	-0.305025	0.722360
O234	O	0.530268	0.194975	1.222360
H235	H	-0.006297	-0.300187	0.710954
H236	H	0.493703	0.199813	1.210954
O237	O	-0.185571	-0.156698	0.371960
O238	O	0.314429	0.343302	0.871960
H239	H	-0.161374	-0.136692	0.324718
H240	H	0.338626	0.363308	0.824718
H241	H	0.596956	-0.472613	0.636461
H242	H	1.096956	0.027387	1.136461
O243	O	0.030260	-0.127915	0.303965
O244	O	0.530260	0.372085	0.803965
H245	H	-0.006306	-0.132748	0.315375
H246	H	0.493694	0.367252	0.815375
O247	O	0.386827	-0.156664	0.371764
O248	O	0.886827	0.343336	0.871764
H249	H	0.365431	-0.176749	0.317530
H250	H	0.865431	0.323251	0.817530
O251	O	0.585565	-0.280041	0.937065
O252	O	1.085565	0.219959	1.437065
H253	H	0.585628	-0.279536	0.848945
H254	H	1.085628	0.220464	1.348945
O255	O	0.589334	-0.381296	0.654423
O256	O	1.089334	0.118704	1.154423
H257	H	0.594158	-0.344730	0.642992
H258	H	1.094158	0.155270	1.142992
O259	O	-0.088055	-0.156697	0.371915
O260	O	0.411945	0.343303	0.871915
H261	H	-0.112257	-0.136706	0.324661
H262	H	0.387743	0.363294	0.824661
H263	H	-0.179367	-0.268678	0.636483
H264	H	0.320633	0.231322	1.136483
O265	O	0.560726	-0.835397	0.722484
O266	O	1.060726	-0.335397	1.222484
H267	H	0.565560	-0.871963	0.711075
H268	H	1.065560	-0.371963	1.211075
O269	O	0.562357	-0.193086	1.090165
O270	O	1.062357	0.306914	1.590165
H271	H	0.549213	-0.220841	1.139867
H272	H	1.049213	0.279159	1.639867
O273	O	0.560689	-0.737889	0.722448
O274	O	1.060689	-0.237889	1.222448
H275	H	0.540705	-0.762097	0.769709
H276	H	1.040705	-0.262097	1.269709
O277	O	0.712976	-0.152751	1.089913
O278	O	1.212976	0.347249	1.589913
H279	H	0.746936	-0.161974	1.061426
H280	H	1.246936	0.338026	1.561426
H281	H	0.568281	-0.688448	0.704496
H282	H	1.068281	-0.188448	1.204496
H283	H	0.628998	-0.140769	0.947099
H284	H	1.128998	0.359231	1.447099
O285	O	0.484342	-0.156651	0.371771
O286	O	0.984342	0.343349	0.871771
H287	H	0.520907	-0.161481	0.383192
H288	H	1.020907	0.338519	0.883192
O289	O	0.560660	-0.597136	0.722459
O290	O	1.060660	-0.097136	1.222459
H291	H	0.565486	-0.560569	0.711030
H292	H	1.065486	-0.060569	1.211030
H293	H	0.724872	-0.236738	0.947317
H294	H	1.224872	0.263262	1.447317
O295	O	0.127763	-0.127909	0.303931
O296	O	0.627763	0.372091	0.803931
H297	H	0.149164	-0.105067	0.351637
H298	H	0.649164	0.394933	0.851637
H299	H	0.597135	-1.045007	0.636530
H300	H	1.097135	-0.545007	1.136530
H301	H	0.478150	-0.268641	0.636289
H302	H	0.978150	0.231359	1.136289
H303	H	0.701243	-0.387463	0.389712
H304	H	1.201243	0.112537	0.889712
H305	H	0.393041	-0.268642	0.636338
H306	H	0.893041	0.231358	1.136338
O307	O	-0.088038	-0.276272	0.654432
O308	O	0.411962	0.223728	1.154432
H309	H	-0.097067	-0.311524	0.636046
H310	H	0.402933	0.188476	1.136046
H311	H	0.701278	-0.472571	0.389737
H312	H	1.201278	0.027429	0.889737
H313	H	0.262329	-0.297417	0.704319
H314	H	0.762329	0.202583	1.204319
H315	H	0.730120	-0.744037	0.321810
H316	H	1.230120	-0.244037	0.821810
H317	H	0.730067	-0.603282	0.321785
H318	H	1.230067	-0.103282	0.821785
H319	H	0.177224	-0.297419	0.704350
H320	H	0.677224	0.202581	1.204350
H321	H	0.669428	-0.292029	1.080146
H322	H	1.169428	0.207971	1.580146
H323	H	0.177217	-0.135498	0.321890
H324	H	0.677217	0.364502	0.821890
H325	H	0.730149	-0.829147	0.321835
H326	H	1.230149	-0.329147	0.821835
H327	H	0.262325	-0.135488	0.321887
H328	H	0.762325	0.364512	0.821887
H329	H	0.701450	-1.044975	0.389814
H330	H	1.201450	-0.544975	0.889814
O331	O	0.589505	-0.953698	0.654491
O332	O	1.089505	-0.453698	1.154491
H333	H	0.569519	-0.977905	0.701753
H334	H	1.069519	-0.477905	1.201753
O335	O	0.709027	-0.953639	0.371850
O336	O	1.209027	-0.453639	0.871850
H337	H	0.701354	-0.962665	0.288286
H338	H	1.201354	-0.462665	0.788286
O339	O	0.737689	-0.694590	0.303823
O340	O	1.237689	-0.194590	0.803823
H341	H	0.757666	-0.670383	0.256538
H342	H	1.257666	-0.170383	0.756538
