data_functionalizedCrystal
_audit_creation_method	'MofGen! by Chris Wilmer'
_symmetry_space_group_name_H-M	'P1'
_symmetry_Int_Tables_number	1
_symmetry_cell_setting	triclinic
loop_
_symmetry_equiv_pos_as_xyz
  x,y,z
_cell_length_a	19.188930
_cell_length_b	16.992694
_cell_length_c	15.455341
_cell_angle_alpha	92.828636
_cell_angle_beta	87.005924
_cell_angle_gamma	93.093497
loop_
_atom_site_label
_atom_site_type_symbol
_atom_site_fract_x
_atom_site_fract_y
_atom_site_fract_z
O1	O	0.145124	-1.036828	0.072038
O2	O	0.478457	-0.703495	0.405372
O3	O	0.811790	-0.370161	0.738705
O4	O	0.143499	-0.808547	0.072064
O5	O	0.476832	-0.475214	0.405397
O6	O	0.810165	-0.141881	0.738730
O7	O	0.043042	-0.929276	0.072033
O8	O	0.376375	-0.595943	0.405367
O9	O	0.709708	-0.262609	0.738700
O10	O	0.245580	-0.916099	0.072069
O11	O	0.578914	-0.582766	0.405402
O12	O	0.912247	-0.249433	0.738735
O13	O	0.048834	-0.935385	-0.072227
O14	O	0.382168	-0.602051	0.261106
O15	O	0.715501	-0.268718	0.594439
O16	O	0.149291	-0.814656	-0.072197
O17	O	0.482625	-0.481323	0.261136
O18	O	0.815958	-0.147989	0.594470
O19	O	0.150916	-1.042937	-0.072223
O20	O	0.484250	-0.709603	0.261111
O21	O	0.817583	-0.376270	0.594444
Cu22	Cu	0.150633	-0.929354	-0.085382
Cu23	Cu	0.483966	-0.596021	0.247951
Cu24	Cu	0.817299	-0.262687	0.581285
Cu25	Cu	0.143782	-0.922130	0.085223
Cu26	Cu	0.477115	-0.588797	0.418557
Cu27	Cu	0.810449	-0.255463	0.751890
O28	O	0.251373	-0.922208	-0.072192
O29	O	0.584707	-0.588875	0.261141
O30	O	0.918040	-0.255541	0.594475
C31	C	0.019902	-0.931904	-0.000099
C32	C	0.353235	-0.598570	0.333234
C33	C	0.686569	-0.265237	0.666567
C34	C	-0.057677	-0.930623	-0.000107
C35	C	0.275656	-0.597290	0.333227
C36	C	0.608990	-0.263957	0.666560
C37	C	0.144306	-0.782396	-0.000064
C38	C	0.477639	-0.449063	0.333270
C39	C	0.810972	-0.115729	0.666603
C40	C	0.138072	-0.695373	-0.000055
C41	C	0.471406	-0.362040	0.333279
C42	C	0.804739	-0.028706	0.666612
C43	C	0.150109	-1.069088	-0.000093
C44	C	0.483442	-0.735754	0.333240
C45	C	0.816776	-0.402421	0.666574
C46	C	0.156342	-1.156111	-0.000096
C47	C	0.489675	-0.822777	0.333237
C48	C	0.823009	-0.489444	0.666570
C49	C	-0.098455	-1.001463	-0.000119
C50	C	0.234878	-0.668129	0.333215
C51	C	0.568211	-0.334796	0.666548
C52	C	-0.171350	-1.000259	-0.000105
C53	C	0.161983	-0.666926	0.333229
C54	C	0.495317	-0.333592	0.666562
C55	C	-0.203463	-0.928212	-0.000096
C56	C	0.129870	-0.594879	0.333237
C57	C	0.463204	-0.261546	0.666571
C58	C	-0.162676	-0.857363	-0.000079
C59	C	0.170658	-0.524030	0.333254
C60	C	0.503991	-0.190697	0.666587
C61	C	-0.089783	-0.858569	-0.000085
C62	C	0.243551	-0.525236	0.333249
C63	C	0.576884	-0.191902	0.666582
N64	N	-0.312719	-0.875220	-0.049185
N65	N	0.020614	-0.541887	0.284149
N66	N	0.353947	-0.208554	0.617482
N67	N	-0.381965	-0.874080	-0.049182
N68	N	-0.048631	-0.540747	0.284152
N69	N	0.284702	-0.207413	0.617485
C70	C	-0.423085	-0.924576	-0.000078
C71	C	-0.089752	-0.591242	0.333255
C72	C	0.243582	-0.257909	0.666588
N73	N	-0.392344	-0.976267	0.049011
N74	N	-0.059011	-0.642934	0.382344
N75	N	0.274322	-0.309601	0.715678
N76	N	-0.323092	-0.977410	0.049004
N77	N	0.010241	-0.644077	0.382337
N78	N	0.343574	-0.310744	0.715671
C79	C	-0.282503	-0.926897	-0.000090
C80	C	0.050831	-0.593564	0.333244
C81	C	0.384164	-0.260230	0.666577
C82	C	-0.542904	-0.994115	-0.000074
C83	C	-0.209571	-0.660781	0.333260
C84	C	0.123762	-0.327448	0.666593
C85	C	-0.615801	-0.992908	-0.000054
C86	C	-0.282467	-0.659574	0.333279
C87	C	0.050866	-0.326241	0.666612
C88	C	-0.607124	-0.850010	-0.000038
C89	C	-0.273791	-0.516677	0.333296
C90	C	0.059542	-0.183344	0.666629
C91	C	-0.534230	-0.851219	-0.000048
C92	C	-0.200897	-0.517886	0.333285
C93	C	0.132437	-0.184552	0.666618
C94	C	-0.502124	-0.923274	-0.000070
C95	C	-0.168791	-0.589940	0.333263
C96	C	0.164542	-0.256607	0.666596
C97	C	0.274513	-0.919580	-0.000057
C98	C	0.607846	-0.586247	0.333276
C99	C	0.941179	-0.252913	0.666609
C100	C	0.352092	-0.920860	-0.000044
C101	C	0.685425	-0.587527	0.333289
C102	C	1.018758	-0.254194	0.666622
N103	N	0.155451	-0.934441	-0.205377
N104	N	0.488784	-0.601108	0.127957
N105	N	0.822117	-0.267774	0.461290
C106	C	0.198212	-0.644926	-0.000045
C107	C	0.531545	-0.311592	0.333288
C108	C	0.864878	0.021741	0.666622
C109	C	0.192351	-0.563160	-0.000058
C110	C	0.525685	-0.229826	0.333275
C111	C	0.859018	0.103507	0.666609
C112	C	0.126351	-0.531842	-0.000075
C113	C	0.459685	-0.198509	0.333259
C114	C	0.793018	0.134824	0.666592
C115	C	0.066208	-0.582296	-0.000087
C116	C	0.399541	-0.248963	0.333246
C117	C	0.732874	0.084371	0.666580
C118	C	0.072069	-0.664061	-0.000080
C119	C	0.405402	-0.330727	0.333253
C120	C	0.738735	0.002606	0.666587
C121	C	0.102060	-0.288329	-0.000102
C122	C	0.435393	0.045004	0.333231
C123	C	0.768726	0.378338	0.666565
C124	C	0.096203	-0.206558	-0.000106
C125	C	0.429536	0.126775	0.333227
C126	C	0.762870	0.460109	0.666561
C127	C	0.222347	-0.187427	-0.000079
C128	C	0.555681	0.145906	0.333255
C129	C	0.889014	0.479239	0.666588
C130	C	0.228202	-0.269194	-0.000067
C131	C	0.561536	0.064139	0.333267
C132	C	0.894869	0.397472	0.666600
C133	C	0.168059	-0.319641	-0.000084
C134	C	0.501392	0.013692	0.333250
C135	C	0.834726	0.347026	0.666583
N136	N	0.120360	-0.448264	-0.000085
N137	N	0.453693	-0.114931	0.333248
N138	N	0.787026	0.218402	0.666582
N139	N	0.174052	-0.403217	-0.000079
N140	N	0.507385	-0.069884	0.333254
N141	N	0.840718	0.263449	0.666587
C142	C	0.182150	-0.962523	-0.749379
C143	C	0.515484	-0.629190	-0.416046
C144	C	0.848817	-0.295857	-0.082713
C145	C	0.178502	-0.958681	-0.658572
C146	C	0.511835	-0.625347	-0.325239
C147	C	0.845168	-0.292014	0.008094
C148	C	0.131658	-0.909368	-0.613169
C149	C	0.464991	-0.576034	-0.279836
C150	C	0.798324	-0.242701	0.053497
C151	C	0.088464	-0.863889	-0.658578
C152	C	0.421798	-0.530555	-0.325245
C153	C	0.755131	-0.197222	0.008088
C154	C	0.092117	-0.867727	-0.749384
C155	C	0.425450	-0.534394	-0.416051
C156	C	0.758784	-0.201061	-0.082717
C157	C	0.115910	-0.892801	-0.341591
C158	C	0.449243	-0.559467	-0.008258
C159	C	0.782577	-0.226134	0.325076
C160	C	0.112259	-0.888967	-0.250779
C161	C	0.445593	-0.555634	0.082554
C162	C	0.778926	-0.222300	0.415887
C163	C	0.202298	-0.983758	-0.250779
C164	C	0.535631	-0.650425	0.082554
C165	C	0.868965	-0.317092	0.415887
C166	C	0.205943	-0.987596	-0.341587
C167	C	0.539277	-0.654263	-0.008253
C168	C	0.872610	-0.320930	0.325080
C169	C	0.162753	-0.942114	-0.386988
C170	C	0.496086	-0.608781	-0.053654
C171	C	0.829419	-0.275448	0.279679
N172	N	0.127926	-0.905441	-0.520350
N173	N	0.461259	-0.572107	-0.187017
N174	N	0.794592	-0.238774	0.146317
N175	N	0.166489	-0.946038	-0.479806
N176	N	0.499822	-0.612704	-0.146472
N177	N	0.833155	-0.279371	0.186861
N178	N	0.138959	-0.917049	0.205218
N179	N	0.472292	-0.583716	0.538551
N180	N	0.805625	-0.250383	0.871885
H181	H	-0.204558	-1.057947	-0.000111
H182	H	0.128775	-0.724613	0.333222
H183	H	0.462108	-0.391280	0.666556
H184	H	-0.501027	-0.793534	-0.000043
H185	H	-0.167694	-0.460201	0.333290
H186	H	0.165639	-0.126867	0.666623
H187	H	0.053086	-0.329394	-0.000117
H188	H	0.386420	0.003940	0.333217
H189	H	0.719753	0.337273	0.666550
O190	O	-0.063831	-1.079178	-0.000136
O191	O	0.269502	-0.745845	0.333197
O192	O	0.602835	-0.412512	0.666531
H193	H	-0.006292	-1.068119	-0.000144
H194	H	0.327041	-0.734785	0.333189
H195	H	0.660374	-0.401452	0.666522
H196	H	0.074113	-0.848806	-0.213815
H197	H	0.407447	-0.515473	0.119519
H198	H	0.740780	-0.182139	0.452852
O199	O	0.025013	-0.172780	-0.000138
O200	O	0.358346	0.160554	0.333195
O201	O	0.691680	0.493887	0.666529
H202	H	0.016957	-0.133493	0.058660
H203	H	0.350290	0.199840	0.391993
H204	H	0.683623	0.533174	0.725327
H205	H	-0.188827	-0.798702	-0.000070
H206	H	0.144507	-0.465369	0.333263
H207	H	0.477840	-0.132036	0.666596
H208	H	0.012469	-0.556792	-0.000113
H209	H	0.345803	-0.223458	0.333220
H210	H	0.679136	0.109875	0.666554
O211	O	0.287215	-0.133020	-0.000079
O212	O	0.620549	0.200313	0.333255
O213	O	0.953882	0.533646	0.666588
H214	H	0.272056	-0.070903	-0.000096
H215	H	0.605389	0.262430	0.333237
H216	H	0.938722	0.595764	0.666570
H217	H	0.213672	-0.995712	-0.621609
H218	H	0.547005	-0.662378	-0.288276
H219	H	0.880339	-0.329045	0.045057
O220	O	-0.045797	-0.782159	-0.000088
O221	O	0.287537	-0.448826	0.333245
O222	O	0.620870	-0.115492	0.666579
H223	H	-0.060058	-0.745172	0.058711
H224	H	0.273275	-0.411838	0.392045
H225	H	0.606608	-0.078505	0.725378
H226	H	0.050326	-0.823733	-0.621604
H227	H	0.383659	-0.490400	-0.288271
H228	H	0.716993	-0.157067	0.045062
H229	H	-0.516763	-1.052786	-0.000088
H230	H	-0.183430	-0.719452	0.333245
H231	H	0.149904	-0.386119	0.666579
H232	H	-0.649002	-1.050596	-0.000059
H233	H	-0.315668	-0.717263	0.333274
H234	H	0.017665	-0.383929	0.666607
O235	O	0.299394	-0.302960	-0.000057
O236	O	0.632727	0.030374	0.333276
O237	O	0.966061	0.363707	0.666610
H238	H	0.302727	-0.337249	0.058749
H239	H	0.636060	-0.003915	0.392082
H240	H	0.969393	0.329418	0.725416
O241	O	0.069304	-0.843753	-0.390527
O242	O	0.402637	-0.510419	-0.057193
O243	O	0.735970	-0.177086	0.276140
H244	H	0.102038	-0.803230	-0.431878
H245	H	0.435372	-0.469897	-0.098545
H246	H	0.768705	-0.136563	0.234789
H247	H	0.220293	-1.002682	-0.786340
H248	H	0.553627	-0.669349	-0.453007
H249	H	0.886960	-0.336015	-0.119673
O250	O	0.007206	-0.718478	-0.000088
O251	O	0.340539	-0.385144	0.333245
O252	O	0.673872	-0.051811	0.666579
H253	H	-0.039674	-0.682966	-0.000093
H254	H	0.293659	-0.349632	0.333240
H255	H	0.626993	-0.016299	0.666574
H256	H	-0.633270	-0.791348	-0.000026
H257	H	-0.299937	-0.458015	0.333307
H258	H	0.033397	-0.124682	0.666640
H259	H	0.251956	-0.670417	-0.000031
H260	H	0.585289	-0.337084	0.333303
H261	H	0.918623	-0.003751	0.666636
O262	O	0.256470	-1.040781	-0.390558
O263	O	0.589803	-0.707448	-0.057224
O264	O	0.923136	-0.374115	0.276109
H265	H	0.285895	-1.071753	-0.343730
H266	H	0.619229	-0.738420	-0.010396
H267	H	0.952562	-0.405087	0.322937
O268	O	0.257215	-0.508746	-0.000048
O269	O	0.590548	-0.175413	0.333286
O270	O	0.923882	0.157921	0.666619
H271	H	0.304093	-0.544259	-0.000025
H272	H	0.637426	-0.210926	0.333309
H273	H	0.970759	0.122408	0.666642
O274	O	0.248891	-1.032802	-0.201814
O275	O	0.582224	-0.699468	0.131520
O276	O	0.915557	-0.366135	0.464853
H277	H	0.238489	-1.021844	-0.131043
H278	H	0.571822	-0.688510	0.202290
H279	H	0.905156	-0.355177	0.535624
H280	H	0.056947	-0.830696	-0.786350
H281	H	0.390281	-0.497362	-0.453016
H282	H	0.723614	-0.164029	-0.119683
