data_functionalizedCrystal
_audit_creation_method	'MofGen! by Chris Wilmer'
_symmetry_space_group_name_H-M	'P1'
_symmetry_Int_Tables_number	1
_symmetry_cell_setting	triclinic
loop_
_symmetry_equiv_pos_as_xyz
  x,y,z
_cell_length_a	17.699083
_cell_length_b	23.532407
_cell_length_c	16.176319
_cell_angle_alpha	90.011464
_cell_angle_beta	90.001389
_cell_angle_gamma	83.065847
loop_
_atom_site_label
_atom_site_type_symbol
_atom_site_fract_x
_atom_site_fract_y
_atom_site_fract_z
O1	O	1.003713	0.072020	0.068639
O2	O	1.503713	0.572020	0.568639
O3	O	0.783287	0.081390	0.068667
O4	O	1.283287	0.581390	0.568667
O5	O	0.900147	-0.006208	0.068637
O6	O	1.400147	0.493792	0.568637
O7	O	0.886853	0.159618	0.068669
O8	O	1.386853	0.659618	0.568669
O9	O	0.900131	-0.006213	-0.068856
O10	O	1.400131	0.493787	0.431144
O11	O	0.783271	0.081384	-0.068826
O12	O	1.283271	0.581384	0.431174
O13	O	1.003697	0.072014	-0.068854
O14	O	1.503697	0.572014	0.431146
Cu15	Cu	0.893483	0.076699	-0.081394
Cu16	Cu	1.393483	0.576699	0.418606
Cu17	Cu	0.893502	0.076705	0.081207
Cu18	Cu	1.393502	0.576705	0.581207
O19	O	0.886837	0.159612	-0.068824
O20	O	1.386837	0.659612	0.431176
C21	C	0.755084	0.081051	-0.000076
C22	C	1.255084	0.581051	0.499924
C23	C	0.671071	0.080044	-0.000066
C24	C	1.171071	0.580044	0.499934
C25	C	0.899801	-0.027427	-0.000111
C26	C	1.399801	0.472573	0.499889
C27	C	0.898783	-0.090647	-0.000118
C28	C	1.398783	0.409353	0.499882
C29	C	0.622189	0.131462	-0.000056
C30	C	1.122189	0.631462	0.499944
C31	C	0.543251	0.130512	-0.000067
C32	C	1.043251	0.630512	0.499933
C33	C	0.513196	0.078144	-0.000082
C34	C	1.013196	0.578144	0.499918
C35	C	0.562084	0.026722	-0.000094
C36	C	1.062084	0.526722	0.499906
C37	C	0.641021	0.027672	-0.000089
C38	C	1.141021	0.527672	0.499911
C39	C	0.243740	0.022888	-0.000115
C40	C	0.743740	0.522888	0.499885
C41	C	0.164797	0.021942	-0.000117
C42	C	0.664797	0.521942	0.499883
C43	C	0.145970	0.125728	-0.000093
C44	C	0.645970	0.625728	0.499907
C45	C	0.224907	0.126678	-0.000088
C46	C	0.724907	0.626678	0.499912
C47	C	0.273788	0.075257	-0.000105
C48	C	0.773788	0.575257	0.499895
C49	C	0.359382	0.076287	-0.000094
C50	C	0.859382	0.576287	0.499906
C51	C	0.427603	0.077113	-0.000086
C52	C	0.927603	0.577113	0.499914
C53	C	0.961554	-0.489570	-0.000080
C54	C	1.461554	0.010430	0.499920
C55	C	0.960609	-0.548973	-0.000074
C56	C	1.460609	-0.048973	0.499926
O57	O	1.018799	-0.585550	-0.000051
O58	O	1.518799	-0.085550	0.499949
N59	N	0.891136	-0.571799	-0.000066
N60	N	1.391136	-0.071799	0.499934
C61	C	0.822604	-0.535218	-0.000055
C62	C	1.322604	-0.035218	0.499945
O63	O	0.763424	-0.560088	-0.000047
O64	O	1.263424	-0.060088	0.499953
C65	C	0.823550	-0.475816	-0.000056
C66	C	1.323550	0.024184	0.499944
C67	C	0.893028	-0.452994	-0.000073
C68	C	1.393028	0.047006	0.499927
C69	C	1.031026	-0.466747	-0.000096
C70	C	1.531026	0.033253	0.499904
C71	C	1.031972	-0.407348	-0.000104
C72	C	1.531972	0.092652	0.499896
C73	C	0.963445	-0.370772	-0.000096
C74	C	1.463445	0.129228	0.499904
C75	C	0.893973	-0.393595	-0.000080
C76	C	1.393973	0.106405	0.499920
C77	C	0.755019	-0.439237	-0.000040
C78	C	1.255019	0.060763	0.499960
C79	C	0.755971	-0.379832	-0.000039
C80	C	1.255971	0.120168	0.499961
C81	C	0.825448	-0.357009	-0.000056
C82	C	1.325448	0.142991	0.499944
C83	C	0.826391	-0.297620	-0.000081
C84	C	1.326391	0.202380	0.499919
N85	N	0.895864	-0.274795	-0.000089
N86	N	1.395864	0.225205	0.499911
C87	C	0.964391	-0.311371	-0.000097
C88	C	1.464391	0.188629	0.499903
C89	C	0.820622	-0.659966	-0.000053
C90	C	1.320622	-0.159966	0.499947
C91	C	0.819674	-0.719367	-0.000058
C92	C	1.319674	-0.219367	0.499942
C93	C	0.957680	-0.733118	-0.000075
C94	C	1.457680	-0.233118	0.499925
C95	C	0.958626	-0.673716	-0.000076
C96	C	1.458626	-0.173716	0.499924
C97	C	0.890095	-0.637141	-0.000061
C98	C	1.390095	-0.137141	0.499939
C99	C	0.966371	-0.186628	-0.000114
C100	C	1.466371	0.313372	0.499886
C101	C	0.967310	-0.127223	-0.000125
C102	C	1.467310	0.372777	0.499875
C103	C	0.829305	-0.113478	-0.000104
C104	C	1.329305	0.386522	0.499896
C105	C	0.828365	-0.172877	-0.000097
C106	C	1.328365	0.327123	0.499903
C107	C	0.896904	-0.209452	-0.000099
C108	C	1.396904	0.290548	0.499901
O109	O	0.768232	-0.261008	-0.000100
O110	O	1.268232	0.238992	0.499900
O111	O	1.023560	-0.286493	-0.000094
O112	O	1.523560	0.213507	0.499906
C113	C	1.031901	0.072353	-0.000109
C114	C	1.531901	0.572353	0.499891
C115	C	1.115914	0.073360	-0.000114
C116	C	1.615914	0.573360	0.499886
C117	C	0.887184	0.180832	-0.000073
C118	C	1.387184	0.680832	0.499927
C119	C	0.888202	0.244052	-0.000062
C120	C	1.388202	0.744052	0.499938
N121	N	0.893475	0.076694	-0.195759
N122	N	1.393475	0.576694	0.304241
C123	C	0.945236	0.037921	-0.239037
C124	C	1.445236	0.537921	0.260963
C125	C	0.945240	0.037921	-0.325584
C126	C	1.445240	0.537921	0.174416
C127	C	0.893486	0.076696	-0.368852
C128	C	1.393486	0.576696	0.131148
C129	C	0.841719	0.115470	-0.325568
C130	C	1.341719	0.615470	0.174432
C131	C	0.841713	0.115467	-0.239023
C132	C	1.341713	0.615467	0.260977
C133	C	0.841745	0.115481	-0.674597
C134	C	1.341745	0.615481	-0.174597
C135	C	0.841758	0.115481	-0.761148
C136	C	1.341758	0.615481	-0.261148
C137	C	0.945273	0.037934	-0.761158
C138	C	1.445273	0.537934	-0.261158
C139	C	0.945266	0.037932	-0.674612
C140	C	1.445266	0.537932	-0.174612
C141	C	0.893497	0.076704	-0.631336
C142	C	1.393497	0.576704	-0.131336
C143	C	0.893493	0.076703	-0.537492
C144	C	1.393493	0.576703	-0.037492
C145	C	0.893493	0.076700	-0.462695
C146	C	1.393493	0.576700	0.037305
N147	N	0.893516	0.076706	0.195573
N148	N	1.393516	0.576706	0.695573
H149	H	0.646653	0.174106	-0.000044
H150	H	1.146653	0.674106	0.499956
Br151	Br	0.079627	0.195516	-0.000072
Br152	Br	0.579627	0.695516	0.499928
H153	H	0.987411	0.006359	-0.639386
H154	H	1.487411	0.506359	-0.139386
Br155	Br	1.052920	-0.642750	-0.000100
Br156	Br	1.552920	-0.142750	0.499900
Br157	Br	0.660721	-0.470194	-0.000014
Br158	Br	1.160721	0.029806	0.499986
H159	H	0.140330	-0.020705	-0.000130
H160	H	0.640330	0.479295	0.499870
Br161	Br	0.265692	0.197752	-0.000061
Br162	Br	0.765692	0.697752	0.499939
Br163	Br	1.126268	-0.376385	-0.000103
Br164	Br	1.626268	0.123615	0.499897
H165	H	1.013478	-0.762909	-0.000079
H166	H	1.513478	-0.262909	0.499921
Br167	Br	1.015484	-0.014701	-0.180325
Br168	Br	1.515484	0.485299	0.319675
H169	H	0.537607	-0.015917	-0.000117
H170	H	1.037607	0.484083	0.499883
Br171	Br	0.707362	-0.042112	-0.000109
Br172	Br	1.207362	0.457888	0.499891
H173	H	0.503454	0.172382	-0.000058
H174	H	1.003454	0.672382	0.499942
H175	H	0.763099	-0.737943	-0.000059
H176	H	1.263099	-0.237943	0.499941
Br177	Br	1.061607	-0.096254	-0.000149
Br178	Br	1.561607	0.403746	0.499851
Br179	Br	1.059389	-0.236256	-0.000116
Br180	Br	1.559389	0.263744	0.499884
Br181	Br	1.015485	-0.014701	-0.384321
Br182	Br	1.515485	0.485299	0.115679
Br183	Br	0.771516	0.168109	-0.819869
Br184	Br	1.271516	0.668109	-0.319869
Br185	Br	0.727605	-0.610333	-0.000040
Br186	Br	1.227605	-0.110333	0.499960
H187	H	0.700163	-0.350054	-0.000026
H188	H	1.200163	0.149946	0.499974
Br189	Br	0.771492	0.168099	-0.615870
Br190	Br	1.271492	0.668099	-0.115870
Br191	Br	1.124040	-0.516376	-0.000106
Br192	Br	1.624040	-0.016376	0.499894
H193	H	0.771791	-0.191460	-0.000106
H194	H	1.271791	0.308540	0.499894
Br195	Br	1.015531	-0.014687	-0.819893
Br196	Br	1.515531	0.485313	-0.319893
Br197	Br	0.771474	0.168091	-0.384286
Br198	Br	1.271474	0.668091	0.115714
H199	H	0.283530	-0.018983	-0.000129
H200	H	0.783530	0.481017	0.499871
H201	H	0.773512	-0.083687	-0.000101
H202	H	1.273512	0.416313	0.499899
Br203	Br	0.771457	0.168086	-0.180289
Br204	Br	1.271457	0.668086	0.319711
