data_functionalizedCrystal
_audit_creation_method	'MofGen! by Chris Wilmer'
_symmetry_space_group_name_H-M	'P1'
_symmetry_Int_Tables_number	1
_symmetry_cell_setting	triclinic
loop_
_symmetry_equiv_pos_as_xyz
  x,y,z
_cell_length_a	29.839134
_cell_length_b	21.295417
_cell_length_c	21.295411
_cell_angle_alpha	90.020597
_cell_angle_beta	90.036602
_cell_angle_gamma	90.022447
loop_
_atom_site_label
_atom_site_type_symbol
_atom_site_fract_x
_atom_site_fract_y
_atom_site_fract_z
Zn1	Zn	0.686811	-0.250803	0.356118
Zn2	Zn	1.020144	0.082531	0.689452
Zn3	Zn	1.353477	0.415864	1.022785
Zn4	Zn	0.686742	-0.356055	0.250845
Zn5	Zn	1.020075	-0.022721	0.584179
Zn6	Zn	1.353409	0.310612	0.917512
Zn7	Zn	0.611677	-0.250790	0.250841
Zn8	Zn	0.945011	0.082543	0.584174
Zn9	Zn	1.278344	0.415877	0.917508
Zn10	Zn	0.611657	-0.356025	0.356055
Zn11	Zn	0.944990	-0.022691	0.689388
Zn12	Zn	1.278323	0.310642	1.022722
O13	O	0.649222	-0.303418	0.303465
O14	O	0.982555	0.029915	0.636798
O15	O	1.315888	0.363249	0.970132
O16	O	0.749669	-0.264782	0.342182
O17	O	1.083002	0.068551	0.675515
O18	O	1.416335	0.401884	1.008848
O19	O	0.676765	-0.342098	0.162755
O20	O	1.010098	-0.008765	0.496089
O21	O	1.343431	0.324569	0.829422
O22	O	0.621681	-0.162702	0.264831
O23	O	0.955015	0.170631	0.598164
O24	O	1.288348	0.503964	0.931498
O25	O	0.749618	-0.342111	0.264838
O26	O	1.082952	-0.008777	0.598172
O27	O	1.416285	0.324556	0.931505
O28	O	0.676882	-0.162712	0.342178
O29	O	1.010215	0.170622	0.675511
O30	O	1.343548	0.503955	1.008844
O31	O	0.621615	-0.264761	0.162752
O32	O	0.954948	0.068573	0.496086
O33	O	1.288282	0.401906	0.829419
O34	O	0.548808	-0.264732	0.264770
O35	O	0.882141	0.068602	0.598103
O36	O	1.215474	0.401935	0.931436
O37	O	0.621646	-0.342060	0.444153
O38	O	0.954979	-0.008726	0.777486
O39	O	1.288313	0.324607	1.110820
O40	O	0.548792	-0.342047	0.342070
O41	O	0.882126	-0.008714	0.675403
O42	O	1.215459	0.324620	1.008737
O43	O	0.676861	-0.264754	0.444199
O44	O	1.010195	0.068580	0.777533
O45	O	1.343528	0.401913	1.110866
O46	O	0.676744	-0.444140	0.264777
O47	O	1.010078	-0.110807	0.598111
O48	O	1.343411	0.222527	0.931444
O49	O	0.621579	-0.444118	0.342074
O50	O	0.954913	-0.110785	0.675408
O51	O	1.288246	0.222549	1.008741
C52	C	0.532499	-0.303385	0.303413
C53	C	0.865832	0.029948	0.636746
C54	C	1.199166	0.363281	0.970080
C55	C	0.482565	-0.303386	0.303406
C56	C	0.815898	0.029947	0.636739
C57	C	1.149231	0.363280	0.970072
C58	C	0.649164	-0.466970	0.303433
C59	C	0.982498	-0.133636	0.636766
C60	C	1.315831	0.199697	0.970100
C61	C	0.649181	-0.536938	0.303441
C62	C	0.982514	-0.203604	0.636774
C63	C	1.315848	0.129729	0.970107
C64	C	0.125973	-0.263100	0.263297
C65	C	0.459306	0.070233	0.596630
C66	C	0.792640	0.403566	0.929964
C67	C	0.313646	-0.263082	0.263259
C68	C	0.646979	0.070251	0.596592
C69	C	0.980313	0.403584	0.929925
O70	O	0.337907	-0.228776	0.229098
O71	O	0.671240	0.104557	0.562432
O72	O	1.004573	0.437890	0.895765
N73	N	0.337120	-0.303397	0.303437
N74	N	0.670453	0.029937	0.636771
N75	N	1.003786	0.363270	0.970104
C76	C	0.313672	-0.343715	0.343631
C77	C	0.647005	-0.010382	0.676964
C78	C	0.980339	0.322952	1.010298
O79	O	0.337944	-0.378000	0.377809
O80	O	0.671277	-0.044666	0.711142
O81	O	1.004611	0.288667	1.044476
C82	C	0.126000	-0.343729	0.343672
C83	C	0.459333	-0.010396	0.677005
C84	C	0.792666	0.322937	1.010339
C85	C	0.102529	-0.303417	0.303486
C86	C	0.435862	0.029916	0.636820
C87	C	0.769195	0.363250	0.970153
C88	C	0.102502	-0.222791	0.223115
C89	C	0.435835	0.110543	0.556448
C90	C	0.769169	0.443876	0.889782
C91	C	0.055586	-0.222798	0.223123
C92	C	0.388920	0.110535	0.556456
C93	C	0.722253	0.443869	0.889789
C94	C	0.032142	-0.263115	0.263312
C95	C	0.365475	0.070219	0.596645
C96	C	0.698809	0.403552	0.929979
C97	C	0.055613	-0.303424	0.303494
C98	C	0.388947	0.029909	0.636827
C99	C	0.722280	0.363242	0.970161
C100	C	0.102553	-0.384044	0.383869
C101	C	0.435886	-0.050711	0.717202
C102	C	0.769220	0.282623	1.050535
C103	C	0.055632	-0.384043	0.383876
C104	C	0.388965	-0.050710	0.717210
C105	C	0.722299	0.282624	1.050543
C106	C	0.032161	-0.343731	0.343691
C107	C	0.365494	-0.010397	0.677024
C108	C	0.698828	0.322936	1.010357
C109	C	-0.014747	-0.343748	0.343691
C110	C	0.318587	-0.010415	0.677024
C111	C	0.651920	0.322918	1.010358
N112	N	-0.038220	-0.303434	0.303512
N113	N	0.295113	0.029899	0.636846
N114	N	0.628447	0.363233	0.970179
C115	C	-0.014776	-0.263117	0.263323
C116	C	0.318558	0.070216	0.596656
C117	C	0.651891	0.403549	0.929990
C118	C	0.412203	-0.343706	0.343606
C119	C	0.745536	-0.010372	0.676939
C120	C	1.078869	0.322961	1.010273
C121	C	0.459120	-0.343703	0.343595
C122	C	0.792454	-0.010370	0.676928
C123	C	1.125787	0.322964	1.010262
C124	C	0.459091	-0.263069	0.263223
C125	C	0.792425	0.070264	0.596557
C126	C	1.125758	0.403597	0.929890
C127	C	0.412173	-0.263076	0.263231
C128	C	0.745506	0.070258	0.596565
C129	C	1.078839	0.403591	0.929898
C130	C	0.388729	-0.303392	0.303427
C131	C	0.722062	0.029942	0.636761
C132	C	1.055396	0.363275	0.970094
C133	C	-0.113302	-0.263136	0.263341
C134	C	0.220032	0.070197	0.596675
C135	C	0.553365	0.403531	0.930008
C136	C	-0.160221	-0.263149	0.263351
C137	C	0.173112	0.070185	0.596684
C138	C	0.506445	0.403518	0.930017
C139	C	-0.160188	-0.343780	0.343724
C140	C	0.173145	-0.010446	0.677058
C141	C	0.506479	0.322887	1.010391
C142	C	-0.113272	-0.343770	0.343713
C143	C	0.220061	-0.010436	0.677046
C144	C	0.553394	0.322897	1.010380
C145	C	-0.089830	-0.303443	0.303519
C146	C	0.243503	0.029891	0.636853
C147	C	0.576836	0.363224	0.970186
O148	O	-0.039036	-0.378031	0.377838
O149	O	0.294297	-0.044698	0.711172
O150	O	0.627630	0.288635	1.044505
O151	O	-0.039056	-0.228828	0.229160
O152	O	0.294278	0.104505	0.562493
O153	O	0.627611	0.437839	0.895827
C154	C	0.172888	-0.263093	0.263289
C155	C	0.506222	0.070240	0.596623
C156	C	0.839555	0.403574	0.929956
C157	C	0.196360	-0.303402	0.303471
C158	C	0.529693	0.029931	0.636805
C159	C	0.863026	0.363264	0.970138
C160	C	0.172915	-0.343719	0.343661
C161	C	0.506249	-0.010386	0.676994
C162	C	0.839582	0.322948	1.010327
C163	C	0.243277	-0.303400	0.303460
C164	C	0.576611	0.029934	0.636794
C165	C	0.909944	0.363267	0.970127
C166	C	0.266722	-0.263083	0.263271
C167	C	0.600055	0.070250	0.596604
C168	C	0.933388	0.403584	0.929938
C169	C	0.243248	-0.222769	0.223092
C170	C	0.576582	0.110564	0.556426
C171	C	0.909915	0.443898	0.889759
C172	C	0.196333	-0.222776	0.223100
C173	C	0.529666	0.110557	0.556433
C174	C	0.862999	0.443890	0.889767
C175	C	0.196389	-0.384033	0.383839
C176	C	0.529722	-0.050700	0.717173
C177	C	0.863055	0.282633	1.050506
C178	C	0.243304	-0.384023	0.383828
C179	C	0.576638	-0.050690	0.717161
C180	C	0.909971	0.282644	1.050495
C181	C	0.266749	-0.343706	0.343638
C182	C	0.600082	-0.010373	0.676972
C183	C	0.933415	0.322960	1.010305
C184	C	0.766400	-0.303451	0.303518
C185	C	1.099733	0.029882	0.636851
C186	C	1.433067	0.363215	0.970184
C187	C	0.816334	-0.303465	0.303540
C188	C	1.149668	0.029868	0.636873
C189	C	1.483001	0.363201	0.970207
C190	C	0.677907	-0.569752	0.343744
C191	C	1.011241	-0.236419	0.677077
C192	C	1.344574	0.096915	1.010410
C193	C	0.677923	-0.635495	0.343759
C194	C	1.011257	-0.302161	0.677093
C195	C	1.344590	0.031172	1.010426
C196	C	0.649217	-0.668420	0.303460
C197	C	0.982551	-0.335087	0.636794
C198	C	1.315884	-0.001753	0.970127
C199	C	0.620486	-0.635598	0.263154
C200	C	0.953819	-0.302265	0.596488
C201	C	1.287152	0.031069	0.929821
C202	C	0.620467	-0.569857	0.263144
C203	C	0.953801	-0.236523	0.596478
C204	C	1.287134	0.096810	0.929811
N205	N	0.645821	-0.771672	0.248368
N206	N	0.979154	-0.438339	0.581702
N207	N	1.312487	-0.105005	0.915035
N208	N	0.645841	-0.834123	0.248380
N209	N	0.979174	-0.500790	0.581713
N210	N	1.312507	-0.167457	0.915046
C211	C	0.649270	-0.866495	0.303489
C212	C	0.982603	-0.533162	0.636822
C213	C	1.315937	-0.199828	0.970155
N214	N	0.652687	-0.834056	0.358588
N215	N	0.986021	-0.500722	0.691921
N216	N	1.319354	-0.167389	1.025254
N217	N	0.652670	-0.771599	0.358576
N218	N	0.986003	-0.438265	0.691909
N219	N	1.319336	-0.104932	1.025242
C220	C	0.649234	-0.739706	0.303467
C221	C	0.982567	-0.406372	0.636800
C222	C	1.315901	-0.073039	0.970134
C223	C	0.678015	-0.970595	0.343812
C224	C	1.011348	-0.637261	0.677146
C225	C	1.344682	-0.303928	1.010479
C226	C	0.678028	-1.036338	0.343829
C227	C	1.011361	-0.703005	0.677162
C228	C	1.344694	-0.369672	1.010495
C229	C	0.620592	-1.036441	0.263218
C230	C	0.953926	-0.703107	0.596552
C231	C	1.287259	-0.369774	0.929885
C232	C	0.620577	-0.970698	0.263207
C233	C	0.953911	-0.637365	0.596541
C234	C	1.287244	-0.304031	0.929874
C235	C	0.649291	-0.937779	0.303503
C236	C	0.982624	-0.604446	0.636837
C237	C	1.315958	-0.271112	0.970170
C238	C	0.649259	-0.303405	0.467655
C239	C	0.982592	0.029929	0.800989
C240	C	1.315926	0.363262	1.134322
C241	C	0.649275	-0.303399	0.537623
C242	C	0.982608	0.029934	0.870957
C243	C	1.315942	0.363268	1.204290
C244	C	0.649291	-0.139228	0.303511
C245	C	0.982625	0.194106	0.636844
C246	C	1.315958	0.527439	0.970177
C247	C	0.649321	-0.069260	0.303530
C248	C	0.982654	0.264074	0.636864
C249	C	1.315988	0.597407	0.970197
C250	C	0.649210	-0.303386	0.139913
C251	C	0.982544	0.029948	0.473247
C252	C	1.315877	0.363281	0.806580
C253	C	0.649282	-0.303214	0.069946
C254	C	0.982615	0.030119	0.403279
C255	C	1.315948	0.363453	0.736612
C256	C	0.678024	-0.263144	0.570515
C257	C	1.011358	0.070189	0.903849
C258	C	1.344691	0.403523	1.237182
C259	C	0.678024	-0.263117	0.636258
C260	C	1.011357	0.070217	0.969591
C261	C	1.344690	0.403550	1.302924
C262	C	0.649278	-0.303356	0.669106
C263	C	0.982612	0.029978	1.002439
C264	C	1.315945	0.363311	1.335773
C265	C	0.620523	-0.343614	0.636206
C266	C	0.953857	-0.010280	0.969540
C267	C	1.287190	0.323053	1.302873
C268	C	0.620522	-0.343635	0.570465
C269	C	0.953855	-0.010302	0.903798
C270	C	1.287188	0.323031	1.237132
N271	N	0.645813	-0.358423	0.772321
N272	N	0.979146	-0.025089	1.105655
N273	N	1.312479	0.308244	1.438988
N274	N	0.645817	-0.358400	0.834773
N275	N	0.979150	-0.025067	1.168106
N276	N	1.312484	0.308266	1.501440
C277	C	0.649281	-0.303292	0.867181
C278	C	0.982615	0.030042	1.200514
C279	C	1.315948	0.363375	1.533848
N280	N	0.652750	-0.248205	0.834778
N281	N	0.986083	0.085128	1.168111
N282	N	1.319416	0.418461	1.501445
N283	N	0.652748	-0.248228	0.772321
N284	N	0.986081	0.085105	1.105654
N285	N	1.319414	0.418438	1.438988
C286	C	0.649277	-0.303336	0.740391
C287	C	0.982610	0.029997	1.073725
C288	C	1.315944	0.363330	1.407058
C289	C	0.678031	-0.263004	0.971358
C290	C	1.011365	0.070330	1.304692
C291	C	1.344698	0.403663	1.638025
C292	C	0.678028	-0.262975	1.037102
C293	C	1.011361	0.070358	1.370435
C294	C	1.344694	0.403691	1.703769
C295	C	0.620530	-0.343478	1.037049
C296	C	0.953863	-0.010145	1.370383
C297	C	1.287196	0.323189	1.703716
C298	C	0.620531	-0.343501	0.971307
C299	C	0.953865	-0.010167	1.304640
C300	C	1.287198	0.323166	1.637973
C301	C	0.649284	-0.303264	0.938465
C302	C	0.982618	0.030069	1.271799
C303	C	1.315951	0.363402	1.605132
H304	H	-0.094221	-0.230295	0.230615
H305	H	0.239113	0.103038	0.563948
H306	H	0.572446	0.436372	0.897282
H307	H	0.121585	-0.189957	0.190388
H308	H	0.454919	0.143377	0.523721
H309	H	0.788252	0.476710	0.857055
H310	H	0.597120	-0.376235	1.063794
H311	H	0.930454	-0.042902	1.397127
H312	H	1.263787	0.290432	1.730460
C313	C	0.030099	-0.427749	0.427494
C314	C	0.363432	-0.094416	0.760827
C315	C	0.696765	0.238917	1.094161
C316	C	-0.016014	-0.419120	0.418916
C317	C	0.317319	-0.085787	0.752250
C318	C	0.650652	0.247546	1.085583
C319	C	-0.039548	-0.459366	0.459090
C320	C	0.293785	-0.126033	0.792423
C321	C	0.627118	0.207300	1.125757
H322	H	0.037721	-0.470056	0.418246
H323	H	0.371054	-0.136723	0.751579
H324	H	0.704388	0.196611	1.084913
H325	H	0.037788	-0.418587	0.469817
H326	H	0.371121	-0.085254	0.803150
H327	H	0.704455	0.248080	1.136484
H328	H	-0.023701	-0.428287	0.376603
H329	H	0.309633	-0.094954	0.709936
H330	H	0.642966	0.238379	1.043270
H331	H	-0.023650	-0.376822	0.428169
H332	H	0.309683	-0.043489	0.761502
H333	H	0.643017	0.289844	1.094836
H334	H	-0.031859	-0.450204	0.501413
H335	H	0.301474	-0.116871	0.834746
H336	H	0.634808	0.216463	1.168080
H337	H	-0.031922	-0.501670	0.449839
H338	H	0.301411	-0.168337	0.783172
H339	H	0.634744	0.164996	1.116505
H340	H	-0.070838	-0.453513	0.453280
H341	H	0.262495	-0.120180	0.786613
H342	H	0.595828	0.213154	1.119946
H343	H	0.262410	-0.416856	0.416551
H344	H	0.595744	-0.083523	0.749884
H345	H	0.929077	0.249811	1.083218
H346	H	0.597123	-0.376285	0.944526
H347	H	0.930456	-0.042951	1.277859
H348	H	1.263790	0.290382	1.611193
C349	C	0.709188	-0.219212	0.935727
C350	C	1.042521	0.114122	1.269061
C351	C	1.375855	0.447455	1.602394
C352	C	0.699424	-0.156919	0.951694
C353	C	1.032757	0.176415	1.285027
C354	C	1.366090	0.509748	1.618361
C355	C	0.728111	-0.116561	0.918878
C356	C	1.061445	0.216773	1.252211
C357	C	1.394778	0.550106	1.585545
H358	H	0.739386	-0.228344	0.946500
H359	H	1.072719	0.104989	1.279834
H360	H	1.406052	0.438323	1.613167
H361	H	0.705067	-0.224952	0.891857
H362	H	1.038400	0.108381	1.225190
H363	H	1.371733	0.441715	1.558524
H364	H	0.703549	-0.151181	0.995554
H365	H	1.036882	0.182152	1.328888
H366	H	1.370215	0.515485	1.662221
H367	H	0.669231	-0.147767	0.940919
H368	H	1.002565	0.185566	1.274253
H369	H	1.335898	0.518900	1.607586
H370	H	0.723990	-0.122301	0.875008
H371	H	1.057324	0.211032	1.208341
H372	H	1.390657	0.544366	1.541675
H373	H	0.758307	-0.125699	0.929654
H374	H	1.091641	0.207635	1.262987
H375	H	1.424974	0.540968	1.596321
H376	H	0.721488	-0.074291	0.929703
H377	H	1.054821	0.259043	1.263036
H378	H	1.388154	0.592376	1.596369
C379	C	0.170791	-0.178982	0.179567
C380	C	0.504124	0.154352	0.512900
C381	C	0.837458	0.487685	0.846233
C382	C	0.143870	-0.138694	0.215273
C383	C	0.477204	0.194639	0.548606
C384	C	0.810537	0.527973	0.881939
C385	C	0.120332	-0.098351	0.175186
C386	C	0.453665	0.234983	0.508520
C387	C	0.786998	0.568316	0.841853
H388	H	0.191423	-0.154912	0.155613
H389	H	0.524756	0.178422	0.488946
H390	H	0.858089	0.511755	0.822279
H391	H	0.152445	-0.203017	0.152113
H392	H	0.485779	0.130317	0.485446
H393	H	0.819112	0.463650	0.818780
H394	H	0.162214	-0.114661	0.242715
H395	H	0.495548	0.218672	0.576049
H396	H	0.828881	0.552005	0.909382
H397	H	0.123230	-0.162747	0.239225
H398	H	0.456564	0.170587	0.572559
H399	H	0.789897	0.503920	0.905892
H400	H	0.101986	-0.122386	0.147732
H401	H	0.435319	0.210947	0.481066
H402	H	0.768653	0.544281	0.814399
H403	H	0.140966	-0.074285	0.151234
H404	H	0.474300	0.259048	0.484568
H405	H	0.807633	0.592381	0.817901
H406	H	0.102060	-0.071015	0.199406
H407	H	0.435393	0.262319	0.532740
H408	H	0.768727	0.595652	0.866073
C409	C	0.709067	-0.671245	0.387492
C410	C	1.042400	-0.337912	0.720825
C411	C	1.375734	-0.004579	1.054158
C412	C	0.702929	-0.735864	0.378884
C413	C	1.036263	-0.402531	0.712217
C414	C	1.369596	-0.069198	1.045550
C415	C	0.731607	-0.768815	0.419164
C416	C	1.064941	-0.435482	0.752497
C417	C	1.398274	-0.102149	1.085830
H418	H	0.739270	-0.660519	0.378361
H419	H	1.072603	-0.327186	0.711694
H420	H	1.405936	0.006148	1.045027
H421	H	0.702474	-0.660497	0.429791
H422	H	1.035807	-0.327163	0.763124
H423	H	1.369140	0.006170	1.096458
H424	H	0.709526	-0.746609	0.336594
H425	H	1.042859	-0.413275	0.669928
H426	H	1.376192	-0.079942	1.003261
H427	H	0.672733	-0.746610	0.388019
H428	H	1.006066	-0.413276	0.721353
H429	H	1.339399	-0.079943	1.054686
H430	H	0.725014	-0.758067	0.461463
H431	H	1.058348	-0.424733	0.794796
H432	H	1.391681	-0.091400	1.128129
H433	H	0.761808	-0.758084	0.410029
H434	H	1.095142	-0.424750	0.743363
H435	H	1.428475	-0.091417	1.076696
H436	H	0.727444	-0.812663	0.413333
H437	H	1.060777	-0.479329	0.746666
H438	H	1.394111	-0.145996	1.079999
H439	H	0.393066	-0.230248	0.230511
H440	H	0.726399	0.103086	0.563844
H441	H	1.059732	0.436419	0.897178
H442	H	0.393119	-0.376538	0.376339
H443	H	0.726452	-0.043205	0.709673
H444	H	1.059786	0.290128	1.043006
C445	C	0.589352	-0.534145	0.219345
C446	C	0.922685	-0.200812	0.552678
C447	C	1.256019	0.132522	0.886012
C448	C	0.614793	-0.496386	0.179042
C449	C	0.948127	-0.163053	0.512375
C450	C	1.281460	0.170280	0.845709
C451	C	0.586145	-0.463473	0.138690
C452	C	0.919479	-0.130139	0.472023
C453	C	1.252812	0.203194	0.805357
H454	H	0.572246	-0.563095	0.195287
H455	H	0.905579	-0.229762	0.528620
H456	H	1.238912	0.103571	0.861953
H457	H	0.569770	-0.508470	0.243373
H458	H	0.903104	-0.175137	0.576707
H459	H	1.236437	0.158197	0.910040
H460	H	0.634367	-0.522059	0.155016
H461	H	0.967700	-0.188726	0.488349
H462	H	1.301034	0.144607	0.821683
H463	H	0.631898	-0.467425	0.203083
H464	H	0.965232	-0.134091	0.536416
H465	H	1.298565	0.199242	0.869749
H466	H	0.566564	-0.437798	0.162718
H467	H	0.899897	-0.104464	0.496052
H468	H	1.233230	0.228869	0.829385
H469	H	0.569041	-0.492427	0.114636
H470	H	0.902374	-0.159094	0.447970
H471	H	1.235707	0.174239	0.781303
H472	H	0.603403	-0.437845	0.111344
H473	H	0.936736	-0.104512	0.444677
H474	H	1.270070	0.228821	0.778010
C475	C	0.709198	-0.934963	0.387639
C476	C	1.042531	-0.601629	0.720973
C477	C	1.375865	-0.268296	1.054306
C478	C	0.734346	-0.977775	0.422958
C479	C	1.067680	-0.644442	0.756292
C480	C	1.401013	-0.311108	1.089625
C481	C	0.763071	-0.944976	0.463346
C482	C	1.096404	-0.611642	0.796680
C483	C	1.429737	-0.278309	1.130013
H484	H	0.728816	-0.909305	0.363661
H485	H	1.062149	-0.575971	0.696995
H486	H	1.395483	-0.242638	1.030328
H487	H	0.692002	-0.909336	0.415066
H488	H	1.025336	-0.576002	0.748399
H489	H	1.358669	-0.242669	1.081733
H490	H	0.751541	-1.003391	0.395535
H491	H	1.084874	-0.670058	0.728868
H492	H	1.418208	-0.336724	1.062202
H493	H	0.714740	-1.003434	0.446949
H494	H	1.048074	-0.670101	0.780282
H495	H	1.381407	-0.336767	1.113616
H496	H	0.745875	-0.919349	0.490773
H497	H	1.079208	-0.586016	0.824107
H498	H	1.412542	-0.252682	1.157440
H499	H	0.782686	-0.919319	0.439363
H500	H	1.116019	-0.585986	0.772697
H501	H	1.449352	-0.252652	1.106030
H502	H	0.780134	-0.974019	0.487319
H503	H	1.113468	-0.640686	0.820652
H504	H	1.446801	-0.307352	1.153986
H505	H	0.036480	-0.189972	0.190399
H506	H	0.369814	0.143362	0.523733
H507	H	0.703147	0.476695	0.857066
C508	C	-0.185728	-0.387480	0.387335
C509	C	0.147605	-0.054147	0.720668
C510	C	0.480938	0.279187	1.054002
C511	C	-0.231840	-0.378839	0.378750
C512	C	0.101494	-0.045506	0.712083
C513	C	0.434827	0.287828	1.045416
C514	C	-0.255383	-0.419075	0.418923
C515	C	0.077951	-0.085742	0.752256
C516	C	0.411284	0.247592	1.085589
H517	H	-0.178111	-0.429789	0.378092
H518	H	0.155222	-0.096456	0.711425
H519	H	0.488555	0.236877	1.044758
H520	H	-0.178041	-0.378317	0.429659
H521	H	0.155292	-0.044983	0.762992
H522	H	0.488626	0.288350	1.096325
H523	H	-0.239524	-0.388007	0.336436
H524	H	0.093809	-0.054673	0.669769
H525	H	0.427143	0.278660	1.003103
H526	H	-0.239470	-0.336538	0.387998
H527	H	0.093863	-0.003205	0.721331
H528	H	0.427197	0.330129	1.054665
H529	H	-0.247695	-0.409912	0.461246
H530	H	0.085638	-0.076578	0.794580
H531	H	0.418971	0.256755	1.127913
H532	H	-0.247762	-0.461382	0.409676
H533	H	0.085571	-0.128049	0.743009
H534	H	0.418905	0.205285	1.076342
H535	H	-0.286671	-0.413214	0.413107
H536	H	0.046662	-0.079880	0.746441
H537	H	0.379995	0.253453	1.079774
C538	C	0.589376	-0.935180	0.219373
C539	C	0.922709	-0.601847	0.552706
C540	C	1.256043	-0.268514	0.886039
C541	C	0.564248	-0.978083	0.184071
C542	C	0.897581	-0.644750	0.517404
C543	C	1.230914	-0.311417	0.850737
C544	C	0.535503	-0.945388	0.143677
C545	C	0.868836	-0.612054	0.477010
C546	C	1.202169	-0.278721	0.810344
H547	H	0.569746	-0.909540	0.243346
H548	H	0.903079	-0.576207	0.576679
H549	H	1.236413	-0.242873	0.910012
H550	H	0.606556	-0.909545	0.191935
H551	H	0.939889	-0.576211	0.525268
H552	H	1.273222	-0.242878	0.858602
H553	H	0.547069	-1.003708	0.211505
H554	H	0.880403	-0.670375	0.544838
H555	H	1.213736	-0.337041	0.878172
H556	H	0.583866	-1.003725	0.160085
H557	H	0.917199	-0.670392	0.493418
H558	H	1.250533	-0.337058	0.826752
H559	H	0.552682	-0.919752	0.116240
H560	H	0.886016	-0.586419	0.449573
H561	H	1.219349	-0.253085	0.782906
H562	H	0.515875	-0.919749	0.167655
H563	H	0.849209	-0.586415	0.500989
H564	H	1.182542	-0.253082	0.834322
H565	H	0.518453	-0.974492	0.119716
H566	H	0.851786	-0.641159	0.453049
H567	H	1.185119	-0.307826	0.786383
H568	H	0.701434	-0.230333	0.663044
H569	H	1.034767	0.103001	0.996377
H570	H	1.368101	0.436334	1.329710
C571	C	0.484631	-0.219317	0.219659
C572	C	0.817965	0.114016	0.552993
C573	C	1.151298	0.447349	0.886326
C574	C	0.530743	-0.227937	0.228268
C575	C	0.864076	0.105396	0.561601
C576	C	1.197409	0.438730	0.894934
C577	C	0.554286	-0.187637	0.188160
C578	C	0.887619	0.145696	0.521493
C579	C	1.220953	0.479030	0.854826
H580	H	0.476974	-0.228422	0.177321
H581	H	0.810307	0.104911	0.510654
H582	H	1.143640	0.438244	0.843988
H583	H	0.476986	-0.177023	0.228961
H584	H	0.810319	0.156311	0.562294
H585	H	1.143652	0.489644	0.895628
H586	H	0.538385	-0.270222	0.218962
H587	H	0.871719	0.063111	0.552295
H588	H	1.205052	0.396444	0.885628
H589	H	0.538414	-0.218828	0.270598
H590	H	0.871747	0.114506	0.603931
H591	H	1.205080	0.447839	0.937264
H592	H	0.546640	-0.145342	0.197461
H593	H	0.879974	0.187991	0.530795
H594	H	1.213307	0.521324	0.864128
H595	H	0.546625	-0.196745	0.145824
H596	H	0.879958	0.136588	0.479157
H597	H	1.213291	0.469921	0.812491
H598	H	0.585575	-0.193476	0.193999
H599	H	0.918908	0.139858	0.527332
H600	H	1.252241	0.473191	0.860666
C601	C	0.589364	-0.387281	0.671980
C602	C	0.922698	-0.053947	1.005314
C603	C	1.256031	0.279386	1.338647
C604	C	0.595528	-0.378660	0.736595
C605	C	0.928862	-0.045326	1.069928
C606	C	1.262195	0.288007	1.403261
C607	C	0.566835	-0.418880	0.769568
C608	C	0.900168	-0.085547	1.102902
C609	C	1.233501	0.247786	1.436235
H610	H	0.559164	-0.378103	0.661260
H611	H	0.892497	-0.044770	0.994593
H612	H	1.225831	0.288563	1.327926
H613	H	0.595926	-0.429594	0.661245
H614	H	0.929259	-0.096261	0.994578
H615	H	1.262592	0.237072	1.327911
H616	H	0.588964	-0.336356	0.747326
H617	H	0.922297	-0.003022	1.080659
H618	H	1.255631	0.330311	1.413993
H619	H	0.625723	-0.387842	0.747334
H620	H	0.959056	-0.054508	1.080668
H621	H	1.292389	0.278825	1.414001
H622	H	0.573396	-0.461194	0.758833
H623	H	0.906729	-0.127861	1.092166
H624	H	1.240063	0.205472	1.425499
H625	H	0.536636	-0.409700	0.758842
H626	H	0.869970	-0.076367	1.092176
H627	H	1.203303	0.256967	1.425509
H628	H	0.571016	-0.413041	0.813412
H629	H	0.904349	-0.079708	1.146746
H630	H	1.237683	0.253626	1.480079
H631	H	-0.179329	-0.230321	0.230625
H632	H	0.154004	0.103013	0.563958
H633	H	0.487337	0.436346	0.897291
H634	H	0.478227	-0.376536	0.376311
H635	H	0.811560	-0.043203	0.709645
H636	H	1.144893	0.290131	1.042978
C637	C	0.171020	-0.427882	0.427496
C638	C	0.504353	-0.094549	0.760829
C639	C	0.837687	0.238784	1.094162
C640	C	0.201624	-0.463194	0.462664
C641	C	0.534958	-0.129860	0.795997
C642	C	0.868291	0.203473	1.129331
C643	C	0.178274	-0.503606	0.502880
C644	C	0.511607	-0.170273	0.836213
C645	C	0.844940	0.163060	1.169546
H646	H	0.152734	-0.403923	0.455030
H647	H	0.486067	-0.070589	0.788363
H648	H	0.819401	0.262744	1.121697
H649	H	0.152711	-0.455313	0.403381
H650	H	0.486044	-0.121980	0.736714
H651	H	0.819377	0.211353	1.070047
H652	H	0.219926	-0.435766	0.486777
H653	H	0.553259	-0.102433	0.820110
H654	H	0.886593	0.230900	1.153444
H655	H	0.219912	-0.487166	0.435146
H656	H	0.553245	-0.153833	0.768479
H657	H	0.886578	0.179501	1.101813
H658	H	0.159964	-0.531037	0.478765
H659	H	0.493297	-0.197704	0.812098
H660	H	0.826631	0.135630	1.145431
H661	H	0.159988	-0.479642	0.530410
H662	H	0.493321	-0.146308	0.863743
H663	H	0.826655	0.187025	1.197076
H664	H	0.199035	-0.527574	0.526742
H665	H	0.532368	-0.194241	0.860075
H666	H	0.865701	0.139093	1.193408
C667	C	0.268789	-0.179019	0.179527
C668	C	0.602122	0.154314	0.512860
C669	C	0.935456	0.487648	0.846194
C670	C	0.314900	-0.187637	0.188138
C671	C	0.648233	0.145697	0.521472
C672	C	0.981567	0.479030	0.854805
C673	C	0.338444	-0.147339	0.148028
C674	C	0.671777	0.185994	0.481362
C675	C	1.005111	0.519327	0.814695
H676	H	0.261132	-0.188128	0.137189
H677	H	0.594466	0.145205	0.470522
H678	H	0.927799	0.478539	0.803856
H679	H	0.261142	-0.136724	0.188824
H680	H	0.594475	0.196610	0.522158
H681	H	0.927809	0.529943	0.855491
H682	H	0.322544	-0.229922	0.178837
H683	H	0.655877	0.103411	0.512170
H684	H	0.989210	0.436744	0.845503
H685	H	0.322570	-0.178523	0.230468
H686	H	0.655903	0.154810	0.563801
H687	H	0.989236	0.488144	0.897135
H688	H	0.330797	-0.105044	0.157326
H689	H	0.664130	0.228289	0.490659
H690	H	0.997464	0.561623	0.823992
H691	H	0.330784	-0.156452	0.105693
H692	H	0.664117	0.176882	0.439026
H693	H	0.997450	0.510215	0.772359
H694	H	0.369733	-0.153177	0.153870
H695	H	0.703066	0.180157	0.487203
H696	H	1.036399	0.513490	0.820536
H697	H	0.121655	-0.416871	0.416592
H698	H	0.454988	-0.083538	0.749925
H699	H	0.788322	0.249796	1.083259
C700	C	0.709166	-0.219183	1.072846
C701	C	1.042500	0.114151	1.406179
C702	C	1.375833	0.447484	1.739512
C703	C	0.683746	-0.178800	1.110549
C704	C	1.017079	0.154533	1.443882
C705	C	1.350413	0.487867	1.777215
C706	C	0.712414	-0.138442	1.143477
C707	C	1.045748	0.194892	1.476811
C708	C	1.379081	0.528225	1.810144
H709	H	0.728740	-0.243183	1.098563
H710	H	1.062073	0.090150	1.431896
H711	H	1.395406	0.423484	1.765230
H712	H	0.726280	-0.195189	1.043886
H713	H	1.059613	0.138145	1.377219
H714	H	1.392946	0.471478	1.710552
H715	H	0.666640	-0.202791	1.139505
H716	H	0.999973	0.130542	1.472839
H717	H	1.333307	0.463875	1.806172
H718	H	0.664174	-0.154786	1.084847
H719	H	0.997507	0.178547	1.418180
H720	H	1.330840	0.511881	1.751514
H721	H	0.729528	-0.114448	1.114517
H722	H	1.062861	0.218886	1.447851
H723	H	1.396195	0.552219	1.781184
H724	H	0.731986	-0.162447	1.169191
H725	H	1.065320	0.170886	1.502524
H726	H	1.398653	0.504220	1.835858
H727	H	0.695171	-0.111033	1.169058
H728	H	1.028504	0.222300	1.502391
H729	H	1.361837	0.555633	1.835725
C730	C	0.709181	-0.219341	0.534903
C731	C	1.042515	0.113993	0.868236
C732	C	1.375848	0.447326	1.201569
C733	C	0.699412	-0.157055	0.550891
C734	C	1.032745	0.176278	0.884224
C735	C	1.366078	0.509612	1.217557
C736	C	0.728099	-0.116681	0.518094
C737	C	1.061432	0.216653	0.851427
C738	C	1.394766	0.549986	1.184761
H739	H	0.739379	-0.228473	0.545677
H740	H	1.072712	0.104861	0.879011
H741	H	1.406045	0.438194	1.212344
H742	H	0.705064	-0.225065	0.491030
H743	H	1.038397	0.108268	0.824363
H744	H	1.371731	0.441601	1.157697
H745	H	0.703533	-0.151333	0.594754
H746	H	1.036866	0.182000	0.928087
H747	H	1.370199	0.515334	1.261420
H748	H	0.669219	-0.147903	0.540115
H749	H	1.002553	0.185430	0.873448
H750	H	1.335886	0.518763	1.206781
H751	H	0.723982	-0.122406	0.474221
H752	H	1.057315	0.210928	0.807555
H753	H	1.390648	0.544261	1.140888
H754	H	0.758295	-0.125818	0.528871
H755	H	1.091628	0.207515	0.862205
H756	H	1.424961	0.540848	1.195538
H757	H	0.721471	-0.074415	0.528933
H758	H	1.054805	0.258918	0.862266
H759	H	1.388138	0.592251	1.195599
C760	C	0.709096	-0.534126	0.387564
C761	C	1.042430	-0.200792	0.720898
C762	C	1.375763	0.132541	1.054231
C763	C	0.734250	-0.576940	0.422875
C764	C	1.067583	-0.243607	0.756208
C765	C	1.400916	0.089727	1.089541
C766	C	0.762981	-0.544143	0.463254
C767	C	1.096314	-0.210810	0.796588
C768	C	1.429648	0.122524	1.129921
H769	H	0.728711	-0.508468	0.363581
H770	H	1.062045	-0.175135	0.696914
H771	H	1.395378	0.158198	1.030247
H772	H	0.691906	-0.508499	0.414997
H773	H	1.025239	-0.175165	0.748330
H774	H	1.358572	0.158168	1.081664
H775	H	0.751439	-0.602556	0.395445
H776	H	1.084772	-0.269223	0.728779
H777	H	1.418106	0.064110	1.062112
H778	H	0.714646	-0.602599	0.446871
H779	H	1.047980	-0.269266	0.780204
H780	H	1.381313	0.064068	1.113538
H781	H	0.745790	-0.518516	0.490687
H782	H	1.079123	-0.185183	0.824021
H783	H	1.412457	0.148151	1.157354
H784	H	0.782593	-0.518487	0.439266
H785	H	1.115926	-0.185153	0.772599
H786	H	1.449259	0.148180	1.105932
H787	H	0.780048	-0.573187	0.487221
H788	H	1.113381	-0.239854	0.820555
H789	H	1.446714	0.093479	1.153888
H790	H	0.597112	-0.662410	0.230344
H791	H	0.930446	-0.329077	0.563678
H792	H	1.263779	0.004257	0.897011
C793	C	0.709244	-1.072051	0.387487
C794	C	1.042577	-0.738717	0.720820
C795	C	1.375910	-0.405384	1.054154
C796	C	0.738049	-1.109795	0.351893
C797	C	1.071383	-0.776461	0.685226
C798	C	1.404716	-0.443128	1.018559
C799	C	0.766808	-1.142709	0.392089
C800	C	1.100141	-0.809376	0.725422
C801	C	1.433475	-0.476042	1.058755
H802	H	0.726385	-1.043101	0.411497
H803	H	1.059718	-0.709768	0.744830
H804	H	1.393051	-0.376434	1.078164
H805	H	0.692069	-1.097735	0.414884
H806	H	1.025402	-0.764402	0.748218
H807	H	1.358735	-0.431069	1.081551
H808	H	0.755223	-1.084112	0.324506
H809	H	1.088556	-0.750779	0.657840
H810	H	1.421889	-0.417445	0.991173
H811	H	0.720921	-1.138756	0.327884
H812	H	1.054254	-0.805423	0.661217
H813	H	1.387587	-0.472089	0.994551
H814	H	0.749633	-1.168394	0.419486
H815	H	1.082966	-0.835061	0.752819
H816	H	1.416300	-0.501727	1.086153
H817	H	0.783946	-1.113755	0.416097
H818	H	1.117279	-0.780422	0.749430
H819	H	1.450612	-0.447088	1.082763
H820	H	0.786353	-1.168326	0.367944
H821	H	1.119686	-0.834993	0.701278
H822	H	1.453020	-0.501660	1.034611
H823	H	0.597217	-1.063248	0.230410
H824	H	0.930550	-0.729915	0.563743
H825	H	1.263884	-0.396581	0.897077
H826	H	0.597108	-0.376415	0.543685
H827	H	0.930442	-0.043082	0.877018
H828	H	1.263775	0.290252	1.210351
H829	H	-0.094161	-0.376600	0.376431
H830	H	0.239172	-0.043267	0.709764
H831	H	0.572505	0.290067	1.043097
