data_functionalizedCrystal
_audit_creation_method	'MofGen! by Chris Wilmer'
_symmetry_space_group_name_H-M	'P1'
_symmetry_Int_Tables_number	1
_symmetry_cell_setting	triclinic
loop_
_symmetry_equiv_pos_as_xyz
  x,y,z
_cell_length_a	6.817900
_cell_length_b	15.301126
_cell_length_c	17.078481
_cell_angle_alpha	96.106342
_cell_angle_beta	99.306161
_cell_angle_gamma	104.177575
loop_
_atom_site_label
_atom_site_type_symbol
_atom_site_fract_x
_atom_site_fract_y
_atom_site_fract_z
V1	V	-3.983057	-0.124548	-0.247602
O2	O	-3.967875	0.006202	-0.242641
O3	O	-3.938265	-0.247166	-0.246148
O4	O	-3.914047	-0.122537	-0.355481
O5	O	-3.992260	-0.119290	-0.132550
V6	V	-4.468888	-0.108920	-0.233812
O7	O	-4.239253	-0.158829	-0.277852
O8	O	-4.662889	-0.074639	-0.203562
O9	O	-4.290473	0.013698	-0.235267
O10	O	-4.601467	-0.239670	-0.238774
O11	O	-4.577081	-0.114178	-0.348864
O12	O	-4.314691	-0.110931	-0.125933
C13	C	-3.784811	-0.277061	-0.242303
C14	C	-3.829338	-0.377302	-0.241833
C15	C	-4.031736	-0.428985	-0.245578
C16	C	-4.073564	-0.523173	-0.245141
C17	C	-3.912988	-0.565675	-0.240952
C18	C	-3.710574	-0.513986	-0.237209
C19	C	-3.668751	-0.419801	-0.237652
C20	C	-3.797758	-0.710297	-0.236284
C21	C	-3.839582	-0.804489	-0.235840
C22	C	-4.202570	-0.813670	-0.243772
C23	C	-4.160748	-0.719485	-0.244215
C24	C	-3.958335	-0.667801	-0.240471
C25	C	-3.753918	-0.118083	-0.381768
C26	C	-3.778802	-0.117250	-0.469961
C27	C	-3.971957	-0.121360	-0.515445
C28	C	-3.995327	-0.120577	-0.598312
C29	C	-3.825542	-0.115691	-0.635694
C30	C	-3.632370	-0.111578	-0.590204
C31	C	-3.608999	-0.112354	-0.507338
C32	C	-3.875975	-0.112880	-0.883092
C33	C	-3.899362	-0.112106	-0.965964
C34	C	-4.262318	-0.121104	-0.974066
C35	C	-4.238933	-0.121886	-0.891199
C36	C	-4.045762	-0.117768	-0.845716
N37	N	-3.849426	-0.114893	-0.720397
N38	N	-4.021877	-0.118559	-0.761013
C39	C	-4.107270	0.043588	-0.239109
C40	C	-4.041980	0.143828	-0.239585
C41	C	-4.138164	-0.115388	-0.099642
C42	C	-4.092518	-0.116216	-0.011448
H43	H	-3.579835	-0.548599	-0.233804
C44	C	-3.712758	-0.107074	-1.007131
H45	H	-3.594412	-0.104831	-0.968188
H46	H	-3.740630	-0.159525	-1.046548
H47	H	-3.688149	-0.053851	-1.032058
C48	C	-4.425692	-0.127248	-0.850082
H49	H	-4.544074	-0.129574	-0.889039
H50	H	-4.449917	-0.180556	-0.825269
H51	H	-4.398312	-0.074906	-0.810579
H52	H	-3.503941	-0.377722	-0.234606
H53	H	-4.110222	-0.125346	-0.485016
C54	C	-3.575105	-0.653446	-0.232157
H55	H	-3.485456	-0.692245	-0.229589
H56	H	-3.568342	-0.624707	-0.278656
H57	H	-3.534145	-0.608319	-0.185661
C58	C	-4.425223	-0.870513	-0.247893
H59	H	-4.514861	-0.831709	-0.250440
H60	H	-4.466216	-0.915644	-0.294381
H61	H	-4.431952	-0.899245	-0.201384
C62	C	-3.445611	-0.106205	-0.631322
H63	H	-3.487195	-0.106341	-0.687190
H64	H	-3.341423	-0.051664	-0.608731
H65	H	-3.393015	-0.157313	-0.623423
H66	H	-4.419591	-0.124456	-1.011108
H67	H	-4.291504	-0.684881	-0.247621
C68	C	-3.396532	-0.107839	-0.457307
H69	H	-3.298764	-0.104826	-0.491438
H70	H	-3.354081	-0.055134	-0.417463
H71	H	-3.405666	-0.160783	-0.432163
H72	H	-4.162498	-0.394386	-0.248981
H73	H	-4.238373	-0.565250	-0.248192
H74	H	-4.152609	-0.123919	-0.635341
H75	H	-3.708833	-0.839095	-0.232453
H76	H	-3.718702	-0.109559	-0.846073
