data_functionalizedCrystal
_audit_creation_method	'MofGen! by Chris Wilmer'
_symmetry_space_group_name_H-M	'P1'
_symmetry_Int_Tables_number	1
_symmetry_cell_setting	triclinic
loop_
_symmetry_equiv_pos_as_xyz
  x,y,z
_cell_length_a	27.732048
_cell_length_b	14.519709
_cell_length_c	12.996460
_cell_angle_alpha	90.007090
_cell_angle_beta	90.000094
_cell_angle_gamma	83.161400
loop_
_atom_site_label
_atom_site_type_symbol
_atom_site_fract_x
_atom_site_fract_y
_atom_site_fract_z
O1	O	-0.641452	-0.109733	-0.085437
O2	O	-0.141452	0.390267	0.414563
O3	O	-0.500739	-0.126418	-0.085468
O4	O	-0.000739	0.373582	0.414532
O5	O	-0.574826	0.016228	-0.085442
O6	O	-0.074826	0.516228	0.414558
O7	O	-0.567365	-0.252379	-0.085462
O8	O	-0.067365	0.247621	0.414538
O9	O	-0.574818	0.016236	0.085692
O10	O	-0.074818	0.516236	0.585692
O11	O	-0.500731	-0.126410	0.085666
O12	O	-0.000731	0.373590	0.585666
O13	O	-0.641445	-0.109725	0.085697
O14	O	-0.141445	0.390275	0.585697
Cu15	Cu	-0.571087	-0.118067	0.101307
Cu16	Cu	-0.071087	0.381933	0.601307
Cu17	Cu	-0.571096	-0.118076	-0.101078
Cu18	Cu	-0.071096	0.381924	0.398922
O19	O	-0.567357	-0.252371	0.085671
O20	O	-0.067357	0.247629	0.585671
C21	C	-0.482726	-0.126064	0.000095
C22	C	0.017274	0.373936	0.500095
C23	C	-0.429066	-0.125009	0.000083
C24	C	0.070934	0.374991	0.500083
C25	C	-0.574475	0.050586	0.000125
C26	C	-0.074475	0.550586	0.500125
C27	C	-0.573433	0.152949	0.000125
C28	C	-0.073433	0.652949	0.500125
C29	C	-0.659457	-0.110079	0.000132
C30	C	-0.159457	0.389921	0.500132
C31	C	-0.713117	-0.111134	0.000137
C32	C	-0.213117	0.388866	0.500137
C33	C	-0.090622	-0.202664	0.000122
C34	C	0.409378	0.297336	0.500122
C35	C	0.111056	-0.198751	0.000131
C36	C	0.611056	0.301249	0.500131
O37	O	0.141972	-0.269761	0.000171
O38	O	0.641972	0.230239	0.500171
N39	N	0.130584	-0.114168	0.000136
N40	N	0.630584	0.385832	0.500136
C41	C	0.099689	-0.030557	0.000145
C42	C	0.599689	0.469443	0.500145
O43	O	0.120926	0.041476	0.000160
O44	O	0.620926	0.541476	0.500160
C45	C	-0.101988	-0.034471	0.000143
C46	C	0.398012	0.465529	0.500143
C47	C	-0.121513	-0.119060	0.000128
C48	C	0.378487	0.380940	0.500128
C49	C	-0.110148	-0.287246	0.000108
C50	C	0.389852	0.212754	0.500108
C51	C	-0.160564	-0.288223	0.000100
C52	C	0.339436	0.211777	0.500100
C53	C	-0.191455	-0.204619	0.000106
C54	C	0.308545	0.295381	0.500106
C55	C	-0.171930	-0.120037	0.000120
C56	C	0.328070	0.379963	0.500120
C57	C	-0.132882	0.049139	0.000159
C58	C	0.367118	0.549139	0.500159
C59	C	-0.183304	0.048153	0.000161
C60	C	0.316696	0.548153	0.500161
C61	C	-0.202829	-0.036436	0.000146
C62	C	0.297171	0.463564	0.500146
C63	C	-0.253238	-0.037410	0.000118
C64	C	0.246762	0.462590	0.500118
N65	N	-0.272766	-0.121993	0.000113
N66	N	0.227234	0.378007	0.500113
C67	C	-0.241875	-0.205597	0.000107
C68	C	0.258125	0.294403	0.500107
C69	C	0.205573	-0.028508	0.000144
C70	C	0.705573	0.471492	0.500144
C71	C	0.255992	-0.027530	0.000143
C72	C	0.755992	0.472470	0.500143
C73	C	0.267356	-0.195724	0.000131
C74	C	0.767356	0.304276	0.500131
C75	C	0.216936	-0.196702	0.000125
C76	C	0.716936	0.303298	0.500125
C77	C	0.186045	-0.113091	0.000139
C78	C	0.686045	0.386909	0.500139
C79	C	-0.347754	-0.207643	0.000090
C80	C	0.152246	0.292357	0.500090
C81	C	-0.398175	-0.208613	0.000077
C82	C	0.101825	0.291387	0.500077
C83	C	-0.409534	-0.040420	0.000094
C84	C	0.090466	0.459580	0.500094
C85	C	-0.359117	-0.039449	0.000101
C86	C	0.140883	0.460551	0.500101
C87	C	-0.328227	-0.123069	0.000102
C88	C	0.171773	0.376931	0.500102
O89	O	-0.284182	0.033562	0.000090
O90	O	0.215818	0.533562	0.500090
O91	O	-0.263121	-0.277620	0.000116
O92	O	0.236879	0.222380	0.500116
C93	C	-0.040206	-0.201687	0.000130
C94	C	0.459794	0.298313	0.500130
C95	C	-0.020680	-0.117105	0.000144
C96	C	0.479320	0.382895	0.500144
C97	C	-0.051571	-0.033501	0.000150
C98	C	0.448429	0.466499	0.500150
C99	C	0.029739	-0.116126	0.000142
C100	C	0.529739	0.383874	0.500142
C101	C	0.060630	-0.199731	0.000137
C102	C	0.560630	0.300269	0.500137
C103	C	0.041102	-0.284314	0.000132
C104	C	0.541102	0.215686	0.500132
C105	C	-0.009315	-0.285291	0.000124
C106	C	0.490685	0.214709	0.500124
C107	C	-0.032043	0.051082	0.000154
C108	C	0.467957	0.551082	0.500154
C109	C	0.018374	0.052053	0.000161
C110	C	0.518374	0.552053	0.500161
C111	C	0.049265	-0.031552	0.000155
C112	C	0.549265	0.468448	0.500155
C113	C	-0.567708	-0.286729	0.000102
C114	C	-0.067708	0.213271	0.500102
C115	C	-0.568751	-0.389092	0.000095
C116	C	-0.068751	0.110908	0.500095
N117	N	-0.571084	-0.118060	0.243654
N118	N	-0.071084	0.381940	0.743654
C119	C	-0.569596	0.527778	0.000098
C120	C	-0.069596	1.027778	0.500098
C121	C	-0.570662	0.423488	0.000106
C122	C	-0.070662	0.923488	0.500106
C123	C	-0.571514	0.340367	0.000112
C124	C	-0.071514	0.840367	0.500112
C125	C	-0.572580	0.236071	0.000118
C126	C	-0.072580	0.736071	0.500118
N127	N	-0.571103	-0.118076	-0.243425
N128	N	-0.071103	0.381924	0.256575
C129	C	-0.571095	-0.118077	0.663469
C130	C	-0.071095	0.381923	1.163469
C131	C	-0.571091	-0.118075	0.546664
C132	C	-0.071091	0.381925	1.046664
C133	C	-0.571090	-0.118069	0.453565
C134	C	-0.071090	0.381931	0.953565
C135	C	-0.571085	-0.118066	0.336753
C136	C	-0.071085	0.381934	0.836753
H137	H	-0.414069	-0.277498	0.000065
H138	H	0.085931	0.222502	0.500065
H139	H	0.271885	0.041351	0.000139
H140	H	0.771885	0.541351	0.500139
H141	H	0.180425	0.039581	0.000156
H142	H	0.680425	0.539581	0.500156
H143	H	-0.116994	0.118020	0.000172
H144	H	0.383006	0.618020	0.500172
H145	H	-0.343219	0.029430	0.000098
H146	H	0.156781	0.529430	0.500098
O147	O	-0.317821	-0.288954	0.000038
O148	O	0.182179	0.211046	0.500038
C149	C	-0.345876	-0.363808	0.000048
C150	C	0.154124	0.136192	0.500048
H151	H	-0.383481	-0.339838	-0.032348
H152	H	0.116519	0.160162	0.467652
H153	H	-0.349493	-0.389772	0.082144
H154	H	0.150507	0.110228	0.582144
C155	C	-0.274648	-0.472323	-0.027291
C156	C	0.225352	0.027677	0.472709
C157	C	-0.320834	-0.442884	-0.067088
C158	C	0.179166	0.057116	0.432912
H159	H	-0.259201	-0.521103	-0.068699
H160	H	0.240799	-0.021103	0.431301
H161	H	-0.255747	-0.421893	-0.027293
H162	H	0.244253	0.078107	0.472707
H163	H	-0.277669	-0.493953	0.041122
H164	H	0.222331	0.006047	0.541122
H165	H	-0.317812	-0.421244	-0.135494
H166	H	0.182188	0.078756	0.364506
H167	H	-0.339735	-0.493312	-0.067099
H168	H	0.160265	0.006688	0.432901
O169	O	-0.080096	-0.368407	-0.000041
O170	O	0.419904	0.131593	0.499959
C171	C	-0.050603	-0.372891	-0.088692
C172	C	0.449397	0.127109	0.411308
H173	H	-0.047976	-0.299731	-0.118226
H174	H	0.452024	0.200269	0.381774
H175	H	-0.067239	-0.414754	-0.150762
H176	H	0.432761	0.085246	0.349238
C177	C	-0.002691	-0.509922	-0.025515
C178	C	0.497309	-0.009922	0.474485
C179	C	0.000539	-0.420065	-0.061784
C180	C	0.500539	0.079935	0.438216
H181	H	0.028855	-0.539025	-0.008919
H182	H	0.528855	-0.039025	0.491081
H183	H	-0.022562	-0.506904	0.034209
H184	H	0.477438	-0.006904	0.534209
H185	H	-0.016556	-0.544796	-0.077246
H186	H	0.483444	-0.044796	0.422754
H187	H	0.014398	-0.385190	-0.010049
H188	H	0.514398	0.114810	0.489951
H189	H	0.020413	-0.423079	-0.121499
H190	H	0.520413	0.076921	0.378501
O191	O	0.037257	0.134310	0.000219
O192	O	0.537257	0.634310	0.500219
C193	C	-0.000826	0.207885	0.000199
C194	C	0.499174	0.707885	0.500199
H195	H	-0.035100	0.182524	0.032583
H196	H	0.464900	0.682524	0.532583
H197	H	-0.007932	0.233641	-0.081899
H198	H	0.492068	0.733641	0.418101
C199	C	0.055569	0.318868	0.027559
C200	C	0.555569	0.818868	0.527559
C201	C	0.013474	0.287721	0.067342
C202	C	0.513474	0.787721	0.567342
H203	H	0.064390	0.368117	0.068971
H204	H	0.564390	0.868117	0.568971
H205	H	0.081227	0.269301	0.027569
H206	H	0.581227	0.769301	0.527569
H207	H	0.049641	0.340326	-0.040855
H208	H	0.549641	0.840326	0.459145
H209	H	0.019404	0.266254	0.135750
H210	H	0.519404	0.766254	0.635750
H211	H	-0.012183	0.337288	0.067345
H212	H	0.487817	0.837288	0.567345
O213	O	-0.213242	0.129459	0.000124
O214	O	0.286758	0.629459	0.500124
C215	C	-0.185192	0.204319	0.000162
C216	C	0.314808	0.704319	0.500162
H217	H	-0.147585	0.180357	-0.032233
H218	H	0.352415	0.680357	0.467767
H219	H	-0.181579	0.230283	0.082268
H220	H	0.318421	0.730283	0.582268
C221	C	-0.256423	0.312822	-0.027158
C222	C	0.243577	0.812822	0.472842
C223	C	-0.210234	0.283392	-0.066954
C224	C	0.289766	0.783392	0.433046
H225	H	-0.271870	0.361600	-0.068554
H226	H	0.228130	0.861600	0.431446
H227	H	-0.275321	0.262388	-0.027180
H228	H	0.224679	0.762388	0.472820
H229	H	-0.253406	0.334452	0.041262
H230	H	0.246594	0.834452	0.541262
H231	H	-0.213252	0.261752	-0.135368
H232	H	0.286748	0.761752	0.364632
H233	H	-0.191337	0.333825	-0.066945
H234	H	0.308663	0.833825	0.433055
H235	H	0.201042	-0.265581	0.000119
H236	H	0.701042	0.234419	0.500119
O237	O	-0.179447	-0.370474	0.000144
O238	O	0.320553	0.129526	0.500144
C239	C	-0.141362	-0.444045	0.000118
C240	C	0.358638	0.055955	0.500118
H241	H	-0.107091	-0.418678	0.032514
H242	H	0.392909	0.081322	0.532514
H243	H	-0.134251	-0.469808	-0.081983
H244	H	0.365749	0.030192	0.418017
C245	C	-0.197755	-0.555033	0.027444
C246	C	0.302245	-0.055033	0.527444
C247	C	-0.155663	-0.523878	0.067242
C248	C	0.344337	-0.023878	0.567242
H249	H	-0.206577	-0.604281	0.068845
H250	H	0.293423	-0.104281	0.568845
H251	H	-0.223414	-0.505468	0.027457
H252	H	0.276586	-0.005468	0.527457
H253	H	-0.191823	-0.576495	-0.040973
H254	H	0.308177	-0.076495	0.459027
H255	H	-0.161597	-0.502406	0.135652
H256	H	0.338403	-0.002406	0.635652
H257	H	-0.130005	-0.573442	0.067241
H258	H	0.369995	-0.073442	0.567241
H259	H	0.066263	-0.352387	0.000123
H260	H	0.566263	0.147613	0.500123
O261	O	0.297437	-0.276854	0.000173
O262	O	0.797437	0.223146	0.500173
C263	C	0.346123	-0.257841	0.000148
C264	C	0.846123	0.242159	0.500148
H265	H	0.348119	-0.185427	0.032544
H266	H	0.848119	0.314573	0.532544
H267	H	0.360701	-0.261557	-0.081954
H268	H	0.860701	0.238443	0.418046
C269	C	0.374465	-0.418809	0.027474
C270	C	0.874465	0.081191	0.527474
C271	C	0.376917	-0.329872	0.067272
C272	C	0.876917	0.170128	0.567272
H273	H	0.393461	-0.463243	0.068875
H274	H	0.893461	0.036757	0.568875
H275	H	0.341664	-0.431620	0.027487
H276	H	0.841664	0.068380	0.527487
H277	H	0.386613	-0.421892	-0.040943
H278	H	0.886613	0.078108	0.459057
H279	H	0.364763	-0.326787	0.135682
H280	H	0.864763	0.173213	0.635682
H281	H	0.409716	-0.317062	0.067271
H282	H	0.909716	0.182938	0.567271
O283	O	-0.439616	0.040705	0.000149
O284	O	0.060384	0.540705	0.500149
C285	C	-0.488302	0.021693	0.000120
C286	C	0.011698	0.521693	0.500120
H287	H	-0.490298	-0.050717	0.032502
H288	H	0.009702	0.449283	0.532502
H289	H	-0.502880	0.025404	-0.081981
H290	H	-0.002880	0.525404	0.418019
C291	C	-0.516643	0.182664	0.027476
C292	C	-0.016643	0.682664	0.527476
C293	C	-0.519095	0.093731	0.067257
C294	C	-0.019095	0.593731	0.567257
H295	H	-0.535638	0.227102	0.068885
H296	H	-0.035638	0.727102	0.568885
H297	H	-0.483842	0.195474	0.027491
H298	H	0.016158	0.695474	0.527491
H299	H	-0.528790	0.185743	-0.040941
H300	H	-0.028790	0.685743	0.459059
H301	H	-0.506942	0.090650	0.135667
H302	H	-0.006942	0.590650	0.635667
H303	H	-0.551895	0.080922	0.067254
H304	H	-0.051895	0.580922	0.567254
H305	H	-0.025207	-0.354171	0.000113
H306	H	0.474793	0.145829	0.500113
H307	H	-0.057190	0.119165	0.000161
H308	H	0.442810	0.619165	0.500161
