data_functionalizedCrystal
_audit_creation_method	'MofGen! by Chris Wilmer'
_symmetry_space_group_name_H-M	'P1'
_symmetry_Int_Tables_number	1
_symmetry_cell_setting	triclinic
loop_
_symmetry_equiv_pos_as_xyz
  x,y,z
_cell_length_a	10.654550
_cell_length_b	17.038272
_cell_length_c	9.730223
_cell_angle_alpha	89.995299
_cell_angle_beta	89.999957
_cell_angle_gamma	87.798243
loop_
_atom_site_label
_atom_site_type_symbol
_atom_site_fract_x
_atom_site_fract_y
_atom_site_fract_z
O1	O	1.678042	0.109878	-0.114188
O2	O	2.178042	0.609878	0.385812
O3	O	1.313535	0.120346	-0.114214
O4	O	1.813535	0.620346	0.385786
O5	O	1.493622	0.001285	-0.114190
O6	O	1.993622	0.501285	0.385810
O7	O	1.497955	0.228940	-0.114212
O8	O	1.997955	0.728940	0.385788
O9	O	1.493609	0.001281	0.114390
O10	O	1.993609	0.501281	0.614390
O11	O	1.313523	0.120343	0.114366
O12	O	1.813523	0.620343	0.614366
O13	O	1.678029	0.109875	0.114392
O14	O	2.178029	0.609875	0.614392
Zn15	Zn	1.495774	0.115108	0.150671
Zn16	Zn	1.995774	0.615108	0.650671
Zn17	Zn	1.495791	0.115113	-0.150493
Zn18	Zn	1.995791	0.615113	0.349507
O19	O	1.497942	0.228936	0.114368
O20	O	1.997942	0.728936	0.614368
C21	C	1.266660	0.119576	0.000073
C22	C	1.766660	0.619576	0.500073
C23	C	1.127003	0.117276	0.000064
C24	C	1.627003	0.617276	0.500064
C25	C	1.054026	0.187378	0.000061
C26	C	1.554026	0.687378	0.500061
C27	C	0.922805	0.185213	0.000085
C28	C	1.422805	0.685213	0.500085
C29	C	0.937548	0.042838	0.000109
C30	C	1.437548	0.542838	0.500109
C31	C	1.068767	0.045004	0.000095
C32	C	1.568767	0.545004	0.500095
C33	C	1.489675	-0.027867	0.000099
C34	C	1.989675	0.472133	0.500099
C35	C	1.477918	-0.114726	0.000098
C36	C	1.977918	0.385274	0.500098
C37	C	1.585862	-0.164237	0.000107
C38	C	2.085862	0.335763	0.500107
C39	C	1.574808	-0.245849	0.000093
C40	C	2.074808	0.254151	0.500093
C41	C	1.455808	-0.277949	0.000080
C42	C	1.955808	0.222051	0.500080
C43	C	1.347855	-0.228431	0.000067
C44	C	1.847855	0.271569	0.500067
C45	C	1.358911	-0.146820	0.000071
C46	C	1.858911	0.353180	0.500071
C47	C	1.416750	-0.523925	0.000059
C48	C	1.916750	-0.023925	0.500059
C49	C	1.405702	-0.605542	0.000059
C50	C	1.905702	-0.105542	0.500059
C51	C	1.632655	-0.622955	0.000082
C52	C	2.132655	-0.122955	0.500082
C53	C	1.643701	-0.541341	0.000094
C54	C	2.143701	-0.041341	0.500094
C55	C	1.535748	-0.491831	0.000074
C56	C	2.035748	0.008169	0.500074
C57	C	1.444505	-0.361369	0.000070
C58	C	1.944505	0.138631	0.500070
C59	C	1.547052	-0.408412	0.000074
C60	C	2.047052	0.091588	0.500074
C61	C	1.724905	0.110645	0.000102
C62	C	2.224905	0.610645	0.500102
C63	C	1.864561	0.112945	0.000102
C64	C	2.364561	0.612945	0.500102
C65	C	1.501889	0.258088	0.000076
C66	C	2.001889	0.758088	0.500076
C67	C	1.513646	0.344947	0.000068
C68	C	2.013646	0.844947	0.500068
N69	N	1.495771	0.115105	0.356207
N70	N	1.995771	0.615105	0.856207
N71	N	1.495802	0.115110	-0.356029
N72	N	1.995802	0.615110	0.143971
C73	C	1.575545	0.062407	0.428144
C74	C	2.075545	0.562407	0.928144
C75	C	1.575558	0.062407	0.572027
C76	C	2.075558	0.562407	1.072027
C77	C	1.416020	0.167810	0.572024
C78	C	1.916020	0.667810	1.072024
C79	C	1.416002	0.167806	0.428144
C80	C	1.916002	0.667806	0.928144
H81	H	1.101438	0.246227	0.000046
H82	H	1.601438	0.746227	0.500046
H83	H	0.863392	0.242297	0.000086
H84	H	1.363392	0.742297	0.500086
C85	C	1.328248	0.225760	0.651152
C86	C	1.828248	0.725760	1.151152
H87	H	1.280715	0.257133	0.587699
H88	H	1.780715	0.757133	1.087699
H89	H	1.376894	0.258600	0.707286
H90	H	1.876894	0.758600	1.207286
H91	H	1.272954	0.197289	0.707273
H92	H	1.772954	0.697289	1.207273
H93	H	0.890116	-0.016004	0.000142
H94	H	1.390116	0.483996	0.500142
H95	H	1.128187	-0.012085	0.000101
H96	H	1.628187	0.487915	0.500101
C97	C	1.716763	-0.128935	0.000121
C98	C	2.216763	0.371065	0.500121
H99	H	1.779466	-0.170114	0.000112
H100	H	2.279466	0.329886	0.500112
H101	H	1.725792	-0.097465	0.079833
H102	H	2.225792	0.402535	0.579833
H103	H	1.725796	-0.097457	-0.079599
H104	H	2.225796	0.402543	0.420401
H105	H	1.662708	-0.286159	0.000103
H106	H	2.162708	0.213841	0.500103
C107	C	1.328249	0.225778	0.349008
C108	C	1.828249	0.725778	0.849008
H109	H	1.280757	0.257173	0.412456
H110	H	1.780757	0.757173	0.912456
H111	H	1.272936	0.197330	0.292895
H112	H	1.772936	0.697330	0.792895
H113	H	1.376929	0.258606	0.292867
H114	H	1.876929	0.758606	0.792867
H115	H	1.308794	-0.631674	0.000071
H116	H	1.808794	-0.131674	0.500071
H117	H	1.640515	0.019495	0.630593
H118	H	2.140515	0.519495	1.130593
C119	C	1.663285	0.004440	0.349011
C120	C	2.163285	0.504440	0.849011
H121	H	1.651863	0.011990	0.253017
H122	H	2.151863	0.511990	0.753017
H123	H	1.644078	-0.047852	0.372602
H124	H	2.144078	0.452148	0.872602
H125	H	1.748057	0.013434	0.372583
H126	H	2.248057	0.513434	0.872583
C127	C	1.774600	-0.506038	0.000091
C128	C	2.274600	-0.006038	0.500091
H129	H	1.837307	-0.547214	0.000080
H130	H	2.337307	-0.047214	0.500080
H131	H	1.783632	-0.474565	0.079799
H132	H	2.283632	0.025435	0.579799
H133	H	1.783626	-0.474562	-0.079632
H134	H	2.283626	0.025438	0.420368
C135	C	1.751391	-0.677416	0.000085
C136	C	2.251391	-0.177416	0.500085
H137	H	1.727769	-0.730618	0.000068
H138	H	2.227769	-0.230618	0.500068
H139	H	1.799829	-0.667626	0.079795
H140	H	2.299829	-0.167626	0.579795
H141	H	1.799823	-0.667612	-0.079636
H142	H	2.299823	-0.167612	0.420364
H143	H	1.328847	-0.483623	0.000043
H144	H	1.828847	0.016377	0.500043
C145	C	1.216958	-0.263739	0.000057
C146	C	1.716958	0.236261	0.500057
H147	H	1.225832	-0.319434	0.000071
H148	H	1.725832	0.180566	0.500071
H149	H	1.172146	-0.246783	-0.079655
H150	H	1.672146	0.253217	0.420345
H151	H	1.172147	-0.246788	0.079776
H152	H	1.672147	0.253212	0.579776
C153	C	1.240173	-0.092358	0.000065
C154	C	1.740173	0.407642	0.500065
H155	H	1.167717	-0.123162	0.000068
H156	H	1.667717	0.376838	0.500068
H157	H	1.239775	-0.060156	-0.079645
H158	H	1.739775	0.439844	0.420355
H159	H	1.239763	-0.060165	0.079786
H160	H	1.739763	0.439835	0.579786
H161	H	1.643941	-0.382273	0.000054
H162	H	2.143941	0.117727	0.500054
H163	H	1.347615	-0.387514	0.000063
H164	H	1.847615	0.112486	0.500063
