data_functionalizedCrystal
_audit_creation_method	'MofGen! by Chris Wilmer'
_symmetry_space_group_name_H-M	'P1'
_symmetry_Int_Tables_number	1
_symmetry_cell_setting	triclinic
loop_
_symmetry_equiv_pos_as_xyz
  x,y,z
_cell_length_a	6.817900
_cell_length_b	16.015009
_cell_length_c	16.015572
_cell_angle_alpha	60.346181
_cell_angle_beta	104.485554
_cell_angle_gamma	104.487874
loop_
_atom_site_label
_atom_site_type_symbol
_atom_site_fract_x
_atom_site_fract_y
_atom_site_fract_z
V1	V	-3.988169	-0.038676	-0.257230
O2	O	-3.988559	0.098579	-0.295267
O3	O	-3.928272	-0.169710	-0.214178
O4	O	-3.928265	0.004358	-0.388255
O5	O	-3.988567	-0.076695	-0.119985
V6	V	-4.474777	-0.027273	-0.245830
O7	O	-4.242659	-0.063689	-0.282235
O8	O	-4.670484	-0.002260	-0.220825
O9	O	-4.311468	0.103761	-0.288882
O10	O	-4.591784	-0.164529	-0.207793
O11	O	-4.591777	0.010745	-0.383075
O12	O	-4.311475	-0.070308	-0.114805
C13	C	-3.770849	-0.202980	-0.199466
C14	C	-3.803086	-0.309829	-0.165140
C15	C	-3.817370	-0.474343	-0.033264
C16	C	-3.787080	-0.373940	-0.065529
C17	C	-3.849401	-0.346103	-0.232526
C18	C	-3.879706	-0.446506	-0.200276
C19	C	-3.863685	-0.510618	-0.100644
C20	C	-3.926021	-0.482781	-0.267655
C21	C	-3.956313	-0.583175	-0.235407
C22	C	-3.940290	-0.647293	-0.135779
C23	C	-3.893976	-0.611012	-0.068396
C24	C	-3.942028	-0.418667	-0.367287
C25	C	-3.988343	-0.454943	-0.434666
C26	C	-4.018650	-0.555338	-0.402419
C27	C	-4.002627	-0.619456	-0.302791
C28	C	-4.064963	-0.591620	-0.469802
C29	C	-4.095255	-0.692013	-0.437554
C30	C	-4.032918	-0.719850	-0.270543
C31	C	-3.770838	0.019063	-0.421517
C32	C	-3.803067	0.053381	-0.528360
C33	C	-4.064975	-0.251227	-0.810197
C34	C	-4.095267	-0.218949	-0.910597
C35	C	-4.032931	-0.051951	-0.938409
C36	C	-4.002623	-0.084216	-0.838009
C37	C	-4.018652	-0.183855	-0.773910
C38	C	-3.956300	-0.016843	-0.801722
C39	C	-3.926006	-0.049106	-0.701331
C40	C	-3.942036	-0.148740	-0.637226
C41	C	-3.988358	-0.216117	-0.673518
C42	C	-3.940287	0.082795	-0.865823
C43	C	-3.893963	0.150167	-0.829536
C44	C	-3.863654	0.117906	-0.729143
C45	C	-3.879684	0.018271	-0.665038
C46	C	-3.817332	0.185282	-0.692850
C47	C	-3.787039	0.153020	-0.592459
C48	C	-3.849390	-0.013991	-0.564647
C49	C	-4.132233	0.137025	-0.303590
C50	C	-4.079233	0.243875	-0.337922
C51	C	-4.132244	-0.085017	-0.081537
C52	C	-4.079254	-0.119331	0.025305
H53	H	-3.917302	-0.336920	-0.393539
C54	C	-3.895753	-0.381097	-0.677930
C55	C	-4.082335	-0.360721	-0.739613
H56	H	-3.906400	-0.448682	-0.634325
H57	H	-3.863913	-0.345478	-0.642073
H58	H	-3.790413	-0.362965	-0.715563
H59	H	-4.187673	-0.378847	-0.701980
H60	H	-4.114200	-0.396353	-0.775473
H61	H	-3.964944	-0.729039	-0.109524
H62	H	-3.880926	0.231294	-0.881739
C63	C	-3.836108	0.308892	-0.859095
C64	C	-3.799725	0.294802	-0.763315
H65	H	-3.825225	0.376506	-0.902594
H66	H	-3.969822	0.277791	-0.871979
H67	H	-3.737923	0.281945	-0.867671
H68	H	-3.897920	0.321742	-0.754737
H69	H	-3.665992	0.325916	-0.750426
H70	H	-4.001375	-0.402729	-0.515787
H71	H	-4.077982	-0.539405	-0.550923
H72	H	-4.019893	0.029175	-0.990612
H73	H	-4.001383	-0.297252	-0.621324
C74	C	-3.728581	-0.411546	0.102799
C75	C	-3.736222	-0.334067	0.008543
H76	H	-3.697204	-0.386928	0.148523
H77	H	-3.625726	-0.447953	0.113989
H78	H	-3.857649	-0.452292	0.109811
H79	H	-3.607148	-0.293324	0.001529
H80	H	-3.839083	-0.297644	-0.002650
H81	H	-3.917373	-0.175007	-0.555481
C82	C	-3.830651	-0.179846	-0.356118
C83	C	-3.867018	-0.275627	-0.342039
H84	H	-3.841546	-0.136340	-0.423729
H85	H	-3.696936	-0.166955	-0.325025
H86	H	-3.928836	-0.171283	-0.329161
H87	H	-3.768824	-0.284191	-0.368990
H88	H	-4.000753	-0.288522	-0.373145
H89	H	-4.132962	-0.721548	-0.492421
C90	C	-4.153861	-0.387279	-0.873017
C91	C	-4.146190	-0.293013	-0.950483
H92	H	-4.185295	-0.433000	-0.897644
H93	H	-4.256688	-0.398464	-0.836597
H94	H	-4.024786	-0.394306	-0.832284
H95	H	-4.275271	-0.285984	-0.991213
H96	H	-4.043358	-0.281825	-0.986920
H97	H	-3.964924	0.109060	-0.947567
H98	H	-3.862415	-0.095127	-0.512452
H99	H	-3.749319	0.207882	-0.562914
H100	H	-3.880944	-0.663216	0.012734
C101	C	-4.051667	-0.886110	-0.146954
C102	C	-4.015305	-0.790333	-0.161024
H103	H	-4.040798	-0.929622	-0.079345
H104	H	-3.953487	-0.894670	-0.173904
H105	H	-4.185394	-0.898997	-0.178059
H106	H	-3.881571	-0.777444	-0.129925
H107	H	-4.113489	-0.781769	-0.134062
H108	H	-3.804337	-0.526547	0.047866
