data_functionalizedCrystal
_audit_creation_method	'MofGen! by Chris Wilmer'
_symmetry_space_group_name_H-M	'P1'
_symmetry_Int_Tables_number	1
_symmetry_cell_setting	triclinic
loop_
_symmetry_equiv_pos_as_xyz
  x,y,z
_cell_length_a	12.759401
_cell_length_b	14.908520
_cell_length_c	12.759393
_cell_angle_alpha	93.262473
_cell_angle_beta	89.981504
_cell_angle_gamma	93.320696
loop_
_atom_site_label
_atom_site_type_symbol
_atom_site_fract_x
_atom_site_fract_y
_atom_site_fract_z
Zn1	Zn	1.582067	-0.359100	-0.618083
Zn2	Zn	1.571798	-0.509987	-0.452530
Zn3	Zn	1.406366	-0.359147	-0.442425
Zn4	Zn	1.396199	-0.509917	-0.628166
O5	O	1.489108	-0.434538	-0.535301
O6	O	1.727726	-0.379125	-0.596130
O7	O	1.549811	-0.490026	-0.304171
O8	O	1.438226	-0.232897	-0.457278
O9	O	1.720181	-0.489981	-0.474499
O10	O	1.567313	-0.232862	-0.586332
O11	O	1.428268	-0.379205	-0.296748
O12	O	1.257997	-0.379138	-0.467055
O13	O	1.420898	-0.489862	-0.773847
O14	O	1.250528	-0.489908	-0.603519
O15	O	1.557454	-0.379058	-0.766438
O16	O	1.539952	-0.636222	-0.484277
O17	O	1.410940	-0.636171	-0.613317
C18	C	1.216142	-0.434521	-0.535286
C19	C	1.099364	-0.434536	-0.535305
C20	C	1.040634	-0.492306	-0.606257
C21	C	0.930909	-0.492318	-0.606269
C22	C	0.938654	-0.376786	-0.464369
C23	C	1.048377	-0.376771	-0.464363
C24	C	1.036161	-0.559010	-0.688179
C25	C	0.926436	-0.559022	-0.688191
C26	C	1.473257	-0.668930	-0.551010
C27	C	1.466573	-0.769204	-0.557766
C28	C	1.588489	-0.957621	-0.436200
C29	C	1.582212	-1.051837	-0.442544
C30	C	1.447746	-1.051854	-0.576803
C31	C	1.454024	-0.957638	-0.570459
C32	C	1.524397	-0.910524	-0.500154
C33	C	1.530668	-0.816307	-0.493805
C34	C	1.396208	-0.816325	-0.628069
C35	C	1.389931	-0.910541	-0.634413
C36	C	1.763140	-0.434555	-0.535317
C37	C	1.879916	-0.434563	-0.535324
C38	C	1.489187	-0.434447	-0.809328
C39	C	1.489221	-0.434408	-0.926102
C40	C	1.505049	-0.199231	-0.519553
C41	C	1.511842	-0.098957	-0.512842
C42	C	1.560336	-0.376707	-0.977108
C43	C	1.560363	-0.376674	-1.086830
C44	C	1.418158	-0.492052	-1.094531
C45	C	1.418126	-0.492079	-0.984811
C46	C	1.642440	-0.310097	-0.972663
C47	C	1.642467	-0.310064	-1.082385
C48	C	1.489093	-0.434563	-0.262335
C49	C	1.489280	-0.434348	-0.145545
H50	H	0.897128	-0.329755	-0.406611
H51	H	1.587966	-0.777948	-0.436557
C52	C	1.619381	-0.215715	-0.926125
N53	N	1.602010	-0.144629	-0.891072
C54	C	1.652715	-1.103640	-0.372186
N55	N	1.705821	-1.142657	-0.319188
H56	H	1.645782	-0.919261	-0.378948
C57	C	1.325701	-0.764512	-0.698423
N58	N	1.272595	-0.725485	-0.751410
C59	C	1.370341	-1.103695	-0.654131
N60	N	1.312036	-1.142742	-0.712371
H61	H	1.718025	-0.335143	-0.940308
C62	C	1.312519	-0.962377	-0.711738
N63	N	1.254206	-1.001418	-0.769977
C64	C	1.609228	-0.220369	-1.122368
N65	N	1.584204	-0.152808	-1.152484
C66	C	1.339880	-0.555542	-0.928708
N67	N	1.280940	-0.603342	-0.886451
H68	H	1.360273	-0.539004	-1.142345
C69	C	1.750686	-0.335353	-1.124316
N70	N	1.832193	-0.354403	-1.155899
C71	C	1.078130	-0.533861	-0.796472
N72	N	1.109740	-0.514926	-0.878040
C73	C	1.076082	-0.648626	-0.654635
N74	N	1.106150	-0.716124	-0.629368
C75	C	1.112977	-0.313211	-0.386319
N76	N	1.161634	-0.265336	-0.327534
H77	H	0.894118	-0.534082	-0.763869
H78	H	0.891935	-0.628875	-0.670947
