data_functionalizedCrystal
_audit_creation_method	'MofGen! by Chris Wilmer'
_symmetry_space_group_name_H-M	'P1'
_symmetry_Int_Tables_number	1
_symmetry_cell_setting	triclinic
loop_
_symmetry_equiv_pos_as_xyz
  x,y,z
_cell_length_a	21.395362
_cell_length_b	12.759399
_cell_length_c	21.395356
_cell_angle_alpha	89.978636
_cell_angle_beta	89.964230
_cell_angle_gamma	90.030995
loop_
_atom_site_label
_atom_site_type_symbol
_atom_site_fract_x
_atom_site_fract_y
_atom_site_fract_z
Zn1	Zn	0.957877	-0.417869	-0.354604
Zn2	Zn	0.957823	-0.593555	-0.249834
Zn3	Zn	0.853107	-0.417940	-0.249805
Zn4	Zn	0.853089	-0.593555	-0.354539
O5	O	0.905474	-0.505730	-0.302196
O6	O	1.045548	-0.441145	-0.340746
O7	O	0.943917	-0.570289	-0.162153
O8	O	0.867035	-0.270909	-0.263722
O9	O	1.045508	-0.570221	-0.263772
O10	O	0.944009	-0.270857	-0.340717
O11	O	0.866982	-0.441265	-0.162131
O12	O	0.765426	-0.441265	-0.263659
O13	O	0.867005	-0.570220	-0.442226
O14	O	0.765414	-0.570289	-0.340607
O15	O	0.943992	-0.441145	-0.442273
O16	O	0.943900	-0.740576	-0.263709
O17	O	0.866953	-0.740576	-0.340635
C18	C	0.742686	-0.505785	-0.302123
C19	C	0.673045	-0.505834	-0.302107
C20	C	0.905436	-0.778697	-0.302182
C21	C	0.905476	-0.895474	-0.302196
C22	C	0.640342	-0.573106	-0.342113
C23	C	0.574906	-0.573081	-0.342141
C24	C	0.542177	-0.505794	-0.302151
C25	C	0.574888	-0.438509	-0.262142
C26	C	0.640322	-0.438529	-0.262120
C27	C	0.438459	-0.497342	-0.245746
C28	C	0.373026	-0.497329	-0.245767
C29	C	0.340356	-0.505725	-0.302221
C30	C	0.373127	-0.514157	-0.358655
C31	C	0.438561	-0.514177	-0.358632
C32	C	0.471224	-0.505764	-0.302172
C33	C	0.236700	-0.572973	-0.342261
C34	C	0.171264	-0.572940	-0.342290
C35	C	0.171246	-0.438374	-0.262285
C36	C	0.236682	-0.438402	-0.262262
C37	C	0.269405	-0.505707	-0.302249
C38	C	0.945588	-0.950301	-0.262187
C39	C	0.945629	-1.060025	-0.262208
C40	C	0.865439	-1.060085	-0.342250
C41	C	0.865403	-0.950363	-0.342232
C42	C	1.019585	-1.209863	-0.239938
C43	C	1.059692	-1.264694	-0.199919
C44	C	1.069337	-1.229132	-0.138789
C45	C	1.038867	-1.138741	-0.117667
C46	C	0.998756	-1.083916	-0.157683
C47	C	0.989122	-1.119476	-0.218821
C48	C	0.791445	-0.800523	-0.364494
C49	C	0.751331	-0.745696	-0.404508
C50	C	0.741678	-0.781255	-0.465639
C51	C	0.772137	-0.871650	-0.486759
C52	C	0.812252	-0.926477	-0.446745
C53	C	0.821905	-0.890910	-0.385615
C54	C	1.068897	-0.505675	-0.302269
C55	C	1.138539	-0.505651	-0.302300
C56	C	0.905503	-0.505675	-0.465619
C57	C	0.905515	-0.505651	-0.535260
C58	C	0.905530	-0.231697	-0.302224
C59	C	0.905553	-0.114920	-0.302236
C60	C	0.945645	-0.572614	-1.037068
C61	C	0.945634	-0.572647	-0.971633
C62	C	0.905575	-0.505484	-0.938899
C63	C	0.865512	-0.438303	-0.971606
C64	C	0.865520	-0.438279	-1.037040
C65	C	0.900634	-0.410868	-0.835238
C66	C	0.900630	-0.410890	-0.769805
C67	C	0.905546	-0.505559	-0.737078
C68	C	0.910479	-0.600208	-0.769792
C69	C	0.910487	-0.600184	-0.835227
C70	C	0.905561	-0.505503	-0.867947
C71	C	0.945591	-0.572778	-0.633427
C72	C	0.945575	-0.572813	-0.567990
C73	C	0.865457	-0.438459	-0.567964
C74	C	0.865469	-0.438434	-0.633399
C75	C	0.905540	-0.505591	-0.666127
C76	C	0.905481	-0.505709	-0.139408
C77	C	0.905590	-0.505437	-0.069767
H78	H	0.666981	-0.627910	-0.374675
H79	H	0.263309	-0.383627	-0.229681
H80	H	0.832812	-1.104789	-0.374844
C81	C	0.845763	-1.025908	-0.469982
N82	N	0.871005	-1.100796	-0.487485
H83	H	0.832895	-0.383620	-0.944949
H84	H	1.084501	-1.338290	-0.217123
C85	C	1.008982	-1.248986	-0.307186
N86	N	1.000993	-1.278461	-0.357837
C87	C	0.915886	-0.704353	-0.733798
N88	N	0.919958	-0.782792	-0.706684
H89	H	0.726533	-0.672087	-0.387308
H90	H	0.896671	-0.333766	-0.861879
C91	C	0.915905	-0.704297	-0.871210
N92	N	0.919982	-0.782718	-0.898312
H93	H	0.832855	-0.383727	-0.660023
H94	H	0.799306	-0.771556	-0.314718
C95	C	0.895203	-0.306775	-0.733826
N96	N	0.891114	-0.228352	-0.706727
H97	H	0.548235	-0.383722	-0.229583
C98	C	0.474389	-0.488109	-0.183638
N99	N	0.501450	-0.481157	-0.136860
H100	H	1.101994	-1.273783	-0.106205
H101	H	0.832903	-0.383573	-1.063663
H102	H	0.666949	-0.383745	-0.229542
C103	C	0.989662	-0.646662	-0.669429
N104	N	1.022856	-0.702315	-0.696544
H105	H	0.346348	-0.490470	-0.199815
C106	C	0.821389	-0.364582	-0.531960
N107	N	0.788195	-0.308939	-0.504839
H108	H	0.548274	-0.627861	-0.374722
C109	C	0.697547	-0.720942	-0.509652
N110	N	0.664310	-0.675515	-0.542804
H111	H	0.764279	-0.900603	-0.536537
H112	H	0.978189	-0.627526	-0.541368
H113	H	0.346529	-0.520992	-0.404625
C114	C	0.989674	-0.889927	-0.218150
N115	N	1.022882	-0.844456	-0.184982
H116	H	0.144638	-0.627719	-0.374872
H117	H	0.978271	-0.627302	-1.063711
C118	C	0.272698	-0.646997	-0.386254
N119	N	0.299809	-0.702751	-0.419392
H120	H	0.978260	-0.627339	-0.945004
H121	H	0.144599	-0.383583	-0.229728
C122	C	0.965244	-0.984487	-0.134453
N123	N	0.940007	-0.909591	-0.116956
C124	C	0.474607	-0.523450	-0.420708
N125	N	0.501757	-0.530433	-0.467465
H126	H	1.046719	-1.109800	-0.067886
