data_functionalizedCrystal
_audit_creation_method	'MofGen! by Chris Wilmer'
_symmetry_space_group_name_H-M	'P1'
_symmetry_Int_Tables_number	1
_symmetry_cell_setting	triclinic
loop_
_symmetry_equiv_pos_as_xyz
  x,y,z
_cell_length_a	18.215407
_cell_length_b	10.686285
_cell_length_c	18.215398
_cell_angle_alpha	85.611694
_cell_angle_beta	89.980536
_cell_angle_gamma	85.632014
loop_
_atom_site_label
_atom_site_type_symbol
_atom_site_fract_x
_atom_site_fract_y
_atom_site_fract_z
Zn1	Zn	1.147638	-0.502373	-0.393703
Zn2	Zn	1.480971	-0.169040	-0.060369
Zn3	Zn	1.814305	0.164293	0.272964
Zn4	Zn	1.157026	-0.713379	-0.261222
Zn5	Zn	1.490360	-0.380046	0.072111
Zn6	Zn	1.823693	-0.046712	0.405444
Zn7	Zn	1.024573	-0.502405	-0.270649
Zn8	Zn	1.357906	-0.169072	0.062685
Zn9	Zn	1.691239	0.164261	0.396018
Zn10	Zn	1.034013	-0.713318	-0.384250
Zn11	Zn	1.367346	-0.379985	-0.050917
Zn12	Zn	1.700679	-0.046651	0.282417
O13	O	1.090812	-0.607869	-0.327456
O14	O	1.424146	-0.274536	0.005877
O15	O	1.757479	0.058798	0.339211
O16	O	1.251868	-0.530376	-0.376140
O17	O	1.585201	-0.197042	-0.042807
O18	O	1.918535	0.136291	0.290527
O19	O	1.139434	-0.685432	-0.159487
O20	O	1.472768	-0.352098	0.173847
O21	O	1.806101	-0.018765	0.507180
O22	O	1.033018	-0.325827	-0.294873
O23	O	1.366351	0.007507	0.038461
O24	O	1.699684	0.340840	0.371794
O25	O	1.258766	-0.685401	-0.278807
O26	O	1.592099	-0.352067	0.054526
O27	O	1.925432	-0.018734	0.387859
O28	O	1.123433	-0.325803	-0.385280
O29	O	1.456767	0.007530	-0.051947
O30	O	1.790100	0.340864	0.281387
O31	O	1.042121	-0.530430	-0.166412
O32	O	1.375455	-0.197097	0.166921
O33	O	1.708788	0.136236	0.500255
O34	O	0.922840	-0.530371	-0.285707
O35	O	1.256173	-0.197038	0.047626
O36	O	1.589507	0.136295	0.380960
O37	O	1.049107	-0.685297	-0.488490
O38	O	1.382440	-0.351964	-0.155157
O39	O	1.715774	-0.018630	0.178177
O40	O	0.929776	-0.685328	-0.369169
O41	O	1.263109	-0.351995	-0.035836
O42	O	1.596442	-0.018661	0.297497
O43	O	1.132587	-0.530317	-0.495435
O44	O	1.465920	-0.196983	-0.162101
O45	O	1.799254	0.136350	0.171232
O46	O	1.148588	-0.889945	-0.269641
O47	O	1.481921	-0.556612	0.063692
O48	O	1.815255	-0.223279	0.397025
O49	O	1.058211	-0.889901	-0.360029
O50	O	1.391544	-0.556567	-0.026696
O51	O	1.724877	-0.223234	0.306637
C52	C	0.899605	-0.607847	-0.327436
C53	C	1.232939	-0.274514	0.005898
C54	C	1.566272	0.058819	0.339231
C55	C	0.817807	-0.607869	-0.327443
C56	C	1.151141	-0.274535	0.005890
C57	C	1.484474	0.058798	0.339223
C58	C	0.633250	-0.688681	-0.370837
C59	C	0.966583	-0.355348	-0.037504
C60	C	1.299916	-0.022015	0.295829
C61	C	0.556391	-0.688685	-0.370846
C62	C	0.889724	-0.355352	-0.037513
C63	C	1.223058	-0.022019	0.295820
C64	C	0.549128	-0.527079	-0.284089
C65	C	0.882462	-0.193746	0.049244
C66	C	1.215795	0.139587	0.382577
C67	C	0.625985	-0.527070	-0.284085
C68	C	0.959318	-0.193737	0.049248
C69	C	1.292652	0.139597	0.382582
C70	C	0.668044	-0.607878	-0.327458
C71	C	1.001378	-0.274545	0.005876
C72	C	1.334711	0.058788	0.339209
C73	C	0.514329	-0.607891	-0.327471
C74	C	0.847662	-0.274558	0.005862
C75	C	1.180995	0.058775	0.339196
C76	C	0.430995	-0.607895	-0.327480
C77	C	0.764329	-0.274562	0.005853
C78	C	1.097662	0.058771	0.339186
C79	C	0.751383	-0.607873	-0.327449
C80	C	1.084716	-0.274540	0.005884
C81	C	1.418050	0.058794	0.339217
C82	C	1.105463	-0.935707	-0.312803
C83	C	1.438796	-0.602373	0.020531
C84	C	1.772129	-0.269040	0.353864
C85	C	1.111797	-1.075957	-0.306559
C86	C	1.445131	-0.742624	0.026775
C87	C	1.778464	-0.409291	0.360108
C88	C	1.282766	-0.607892	-0.327477
C89	C	1.616100	-0.274558	0.005857
C90	C	1.949433	0.058775	0.339190
C91	C	1.364566	-0.607901	-0.327485
C92	C	1.697899	-0.274568	0.005848
C93	C	2.031232	0.058766	0.339181
C94	C	1.090853	-0.607796	-0.519412
C95	C	1.424186	-0.274463	-0.186079
C96	C	1.757519	0.058870	0.147255
C97	C	1.090870	-0.607766	-0.601212
C98	C	1.424203	-0.274432	-0.267879
C99	C	1.757537	0.058901	0.065454
C100	C	1.076125	-0.278751	-0.342182
C101	C	1.409459	0.054582	-0.008849
C102	C	1.742792	0.387916	0.324484
C103	C	1.069866	-0.138500	-0.348458
C104	C	1.403200	0.194833	-0.015125
C105	C	1.736533	0.528166	0.318209
C106	C	1.141567	-0.688319	-0.862675
C107	C	1.474901	-0.354986	-0.529342
C108	C	1.808234	-0.021652	-0.196009
C109	C	1.141558	-0.688363	-0.785815
C110	C	1.474892	-0.355030	-0.452481
C111	C	1.808225	-0.021696	-0.119148
C112	C	1.040217	-0.526968	-0.793009
C113	C	1.373550	-0.193635	-0.459676
C114	C	1.706884	0.139698	-0.126342
C115	C	1.040223	-0.526932	-0.869868
C116	C	1.373557	-0.193599	-0.536535
C117	C	1.706890	0.139735	-0.203201
C118	C	1.090903	-0.607605	-0.904699
C119	C	1.424236	-0.274272	-0.571366
C120	C	1.757569	0.059061	-0.238033
C121	C	1.090887	-0.607686	-0.750980
C122	C	1.424220	-0.274352	-0.417646
C123	C	1.757554	0.058981	-0.084313
C124	C	1.090877	-0.607733	-0.667644
C125	C	1.424210	-0.274399	-0.334310
C126	C	1.757543	0.058934	-0.000977
C127	C	1.090913	-0.607561	-0.988040
C128	C	1.424246	-0.274227	-0.654707
C129	C	1.757579	0.059106	-0.321374
C130	C	1.090811	-0.607850	-0.136250
C131	C	1.424144	-0.274517	0.197083
C132	C	1.757477	0.058817	0.530416
C133	C	1.090920	-0.607526	-0.054466
C134	C	1.424253	-0.274192	0.278867
C135	C	1.757587	0.059141	0.612200
H136	H	0.654315	-0.461263	-0.248760
H137	H	0.987648	-0.127929	0.084573
H138	H	1.320982	0.205404	0.417907
H139	H	1.182833	-0.754010	-0.891033
H140	H	1.516166	-0.420677	-0.557699
H141	H	1.849500	-0.087343	-0.224366
Br142	Br	1.001952	-1.048919	-0.416211
Br143	Br	1.335285	-0.715585	-0.082878
Br144	Br	1.668619	-0.382252	0.250456
H145	H	0.998962	-0.461204	-0.904085
H146	H	1.332296	-0.127870	-0.570752
H147	H	1.665629	0.205463	-0.237419
Br148	Br	0.509172	-0.798346	-0.429726
Br149	Br	0.842506	-0.465012	-0.096392
Br150	Br	1.175839	-0.131679	0.236941
Br151	Br	1.210318	-0.797913	-0.728784
Br152	Br	1.543651	-0.464580	-0.395451
Br153	Br	1.876984	-0.131246	-0.062118
H154	H	0.667492	-0.754477	-0.406156
H155	H	1.000825	-0.421144	-0.072823
H156	H	1.334159	-0.087811	0.260510
Br157	Br	0.492044	-0.417417	-0.225229
Br158	Br	0.825377	-0.084084	0.108104
Br159	Br	1.158711	0.249250	0.441437
Br160	Br	1.179702	-1.165543	-0.238790
Br161	Br	1.513036	-0.832210	0.094543
Br162	Br	1.846369	-0.498877	0.427877
H163	H	0.998957	-0.461285	-0.764640
H164	H	1.332290	-0.127952	-0.431307
H165	H	1.665623	0.205381	-0.097973
