data_functionalizedCrystal
_audit_creation_method	'MofGen! by Chris Wilmer'
_symmetry_space_group_name_H-M	'P1'
_symmetry_Int_Tables_number	1
_symmetry_cell_setting	triclinic
loop_
_symmetry_equiv_pos_as_xyz
  x,y,z
_cell_length_a	19.805407
_cell_length_b	29.839131
_cell_length_c	19.805399
_cell_angle_alpha	89.970435
_cell_angle_beta	89.980427
_cell_angle_gamma	90.041420
loop_
_atom_site_label
_atom_site_type_symbol
_atom_site_fract_x
_atom_site_fract_y
_atom_site_fract_z
Zn1	Zn	1.034665	-0.178864	-0.382710
Zn2	Zn	1.034550	-0.253991	-0.269518
Zn3	Zn	0.921480	-0.178876	-0.269535
Zn4	Zn	0.921414	-0.253967	-0.382665
O5	O	0.978027	-0.216425	-0.326107
O6	O	1.129366	-0.188834	-0.367707
O7	O	1.019531	-0.244042	-0.174804
O8	O	0.936570	-0.116007	-0.284574
O9	O	1.129282	-0.244030	-0.284545
O10	O	1.019727	-0.115998	-0.367723
O11	O	0.936458	-0.188856	-0.174816
O12	O	0.826754	-0.188832	-0.284530
O13	O	0.936457	-0.243990	-0.477388
O14	O	0.826706	-0.244002	-0.367646
O15	O	1.019662	-0.188811	-0.477421
O16	O	1.019467	-0.316855	-0.284501
O17	O	0.936346	-0.316838	-0.367630
C18	C	0.802171	-0.216416	-0.326085
C19	C	0.726939	-0.216423	-0.326092
C20	C	0.977905	-0.333147	-0.326073
C21	C	0.977915	-0.383082	-0.326082
C22	C	0.691587	-0.245193	-0.369300
C23	C	0.620899	-0.245194	-0.369310
C24	C	0.585564	-0.216427	-0.326107
C25	C	0.620920	-0.187654	-0.282897
C26	C	0.691607	-0.187651	-0.282891
C27	C	0.335847	-0.187664	-0.282919
C28	C	0.265155	-0.187669	-0.282927
C29	C	0.265139	-0.245207	-0.369338
C30	C	0.335826	-0.245204	-0.369332
C31	C	0.371176	-0.216429	-0.326125
C32	C	0.447825	-0.216428	-0.326116
C33	C	0.508916	-0.216430	-0.326112
C34	C	1.021387	-0.692722	-0.282885
C35	C	1.021471	-0.880395	-0.282912
O36	O	1.058335	-0.904656	-0.246159
N37	N	0.978168	-0.903867	-0.326158
C38	C	0.934844	-0.880418	-0.369404
O39	O	0.898019	-0.904688	-0.406194
C40	C	0.934764	-0.692746	-0.369381
C41	C	0.978065	-0.669276	-0.326127
C42	C	1.064685	-0.669252	-0.239635
C43	C	1.064661	-0.622336	-0.239626
C44	C	1.021339	-0.598891	-0.282868
C45	C	0.978041	-0.622360	-0.326118
C46	C	0.891444	-0.669297	-0.412630
C47	C	0.891429	-0.622376	-0.412621
C48	C	0.934730	-0.598907	-0.369367
C49	C	0.934695	-0.551999	-0.369351
N50	N	0.977998	-0.528527	-0.326104
C51	C	1.021320	-0.551973	-0.282863
C52	C	0.934888	-0.978948	-0.369412
C53	C	0.934907	-1.025866	-0.369418
C54	C	1.021534	-1.025840	-0.282926
C55	C	1.021512	-0.978921	-0.282918
C56	C	0.978191	-0.955476	-0.326166
C57	C	1.021266	-0.453447	-0.282847
C58	C	1.021237	-0.406527	-0.282840
C59	C	0.934611	-0.406558	-0.369334
C60	C	0.934638	-0.453473	-0.369339
C61	C	0.977971	-0.476917	-0.326093
O62	O	0.897855	-0.527708	-0.406090
O63	O	1.058150	-0.527694	-0.246090
C64	C	1.021411	-0.739637	-0.282894
C65	C	0.978113	-0.763107	-0.326144
C66	C	0.934791	-0.739661	-0.369386
C67	C	0.978132	-0.810025	-0.326149
C68	C	1.021454	-0.833470	-0.282908
C69	C	1.064757	-0.809998	-0.239661
C70	C	1.064733	-0.763083	-0.239653
C71	C	0.891488	-0.763133	-0.412632
C72	C	0.891515	-0.810049	-0.412637
C73	C	0.934837	-0.833494	-0.369395
C74	C	1.154570	-0.216434	-0.326129
C75	C	1.229802	-0.216437	-0.326139
C76	C	0.978065	-0.216396	-0.502650
C77	C	0.978081	-0.216384	-0.577882
C78	C	0.978168	-0.099246	-0.326156
C79	C	0.978228	-0.049312	-0.326176
C80	C	1.021407	-0.187652	-0.613244
C81	C	1.021414	-0.187638	-0.683933
C82	C	0.978098	-0.216361	-0.719258
C83	C	0.934767	-0.245095	-0.683890
C84	C	0.934757	-0.245105	-0.613203
C85	C	0.934806	-0.245053	-0.968963
C86	C	0.934820	-0.245041	-1.039656
C87	C	1.021462	-0.187586	-1.039694
C88	C	1.021453	-0.187597	-0.969006
C89	C	0.978120	-0.216329	-0.933645
C90	C	0.978112	-0.216342	-0.856997
C91	C	0.978109	-0.216350	-0.795905
C92	C	0.978028	-0.216420	-0.150251
C93	C	0.978143	-0.216306	-0.075019
H94	H	0.720352	-0.268620	-0.404479
O95	O	0.892667	-0.476325	-0.411383
C96	C	0.883541	-0.529241	-0.502799
C97	C	0.931143	-0.503401	-0.455211
H98	H	0.914630	-0.551130	-0.538255
H99	H	0.848192	-0.551277	-0.471734
H100	H	0.852555	-0.504415	-0.533670
H101	H	0.962173	-0.528194	-0.424329
H102	H	0.966448	-0.481357	-0.486315
H103	H	1.099993	-0.743977	-0.204431
H104	H	0.899496	-0.268480	-0.712657
H105	H	1.056696	-0.164242	-0.712722
H106	H	0.899640	-1.044971	-0.404633
O107	O	0.892658	-0.273065	-0.578954
C108	C	0.806706	-0.330045	-0.586372
C109	C	0.854359	-0.298410	-0.625241
H110	H	0.775719	-0.350538	-0.623778
H111	H	0.837723	-0.353570	-0.553296
H112	H	0.771360	-0.309420	-0.553257
H113	H	0.889714	-0.318998	-0.658393
H114	H	0.823299	-0.274883	-0.658274
H115	H	0.364621	-0.164237	-0.247732
H116	H	0.592119	-0.268622	-0.404494
O117	O	0.370223	-0.273085	-0.411335
C118	C	0.450030	-0.279198	-0.502725
C119	C	0.411131	-0.247574	-0.455185
H120	H	0.483103	-0.258584	-0.538199
H121	H	0.483135	-0.302654	-0.471623
H122	H	0.412606	-0.299770	-0.533580
H123	H	0.448506	-0.226973	-0.424320
H124	H	0.378016	-0.224147	-0.486325
O125	O	1.063455	-0.159623	-1.074075
C126	C	1.072650	-0.098971	-1.153935
C127	C	1.025017	-0.130602	-1.115032
H128	H	1.041593	-0.075506	-1.187068
H129	H	1.103597	-0.078413	-1.116574
H130	H	1.108035	-0.119602	-1.186999
H131	H	0.989592	-0.110006	-1.081967
H132	H	0.994118	-0.151161	-1.152429
H133	H	0.236348	-0.268634	-0.404522
O134	O	0.230934	-0.159679	-0.240939
C135	C	0.238405	-0.102621	-0.155205
C136	C	0.277245	-0.134287	-0.202730
H137	H	0.275831	-0.082090	-0.124291
H138	H	0.205364	-0.079132	-0.186320
H139	H	0.205259	-0.123224	-0.119786
H140	H	0.310428	-0.113720	-0.238158
H141	H	0.310243	-0.157777	-0.171573
H142	H	0.899531	-0.268455	-0.940181
H143	H	0.592145	-0.164229	-0.247723
O144	O	0.725846	-0.159692	-0.240850
C145	C	0.718406	-0.102606	-0.155163
C146	C	0.679549	-0.134255	-0.202728
H147	H	0.680993	-0.082025	-0.124339
H148	H	0.751446	-0.123179	-0.119668
H149	H	0.751556	-0.079160	-0.186309
H150	H	0.646363	-0.157708	-0.171636
H151	H	0.646553	-0.113654	-0.238225
H152	H	1.056683	-0.164264	-0.584488
O153	O	0.892803	-0.272929	-1.074076
C154	C	0.854401	-0.298357	-1.182959
C155	C	0.902024	-0.266761	-1.144062
H156	H	0.861829	-0.293375	-1.239549
H157	H	0.866238	-0.334596	-1.169096
H158	H	0.799837	-0.290471	-1.169018
H159	H	0.956604	-0.274606	-1.157982
H160	H	0.890128	-0.230532	-1.157928
O161	O	1.063366	-0.383799	-0.240801
C162	C	1.149261	-0.388733	-0.154984
C163	C	1.101597	-0.414526	-0.202568
H164	H	1.180173	-0.413565	-0.124050
H165	H	1.184670	-0.366742	-0.186054
H166	H	1.118187	-0.366792	-0.119587
H167	H	1.132617	-0.436492	-0.237975
H168	H	1.066186	-0.436490	-0.171455
H169	H	1.056554	-0.472529	-0.247634
O170	O	1.106698	-0.599592	-0.197521
C171	C	1.139608	-0.585253	-0.082416
C172	C	1.091963	-0.611042	-0.130024
H173	H	1.127703	-0.594493	-0.027835
H174	H	1.194190	-0.594451	-0.094308
H175	H	1.132174	-0.547692	-0.089866
H176	H	1.099337	-0.648608	-0.122601
H177	H	1.037400	-0.601806	-0.118121
O178	O	1.106882	-0.692028	-0.197744
C179	C	1.198342	-0.744907	-0.188778
C180	C	1.150583	-0.719148	-0.236291
H181	H	1.233677	-0.766847	-0.219923
H182	H	1.229328	-0.720069	-0.157911
H183	H	1.167340	-0.766900	-0.153314
H184	H	1.181533	-0.697155	-0.271796
H185	H	1.119595	-0.744010	-0.267110
O186	O	1.063640	-0.956194	-0.240882
C187	C	1.149530	-0.961133	-0.155061
C188	C	1.101864	-0.986923	-0.202645
H189	H	1.180437	-0.985966	-0.124125
H190	H	1.184944	-0.939145	-0.186131
H191	H	1.118458	-0.939188	-0.119667
H192	H	1.132881	-1.008892	-0.238050
H193	H	1.066448	-1.008883	-0.171533
O194	O	0.892733	-0.956247	-0.411443
C195	C	0.806834	-0.961237	-0.497251
C196	C	0.854532	-0.986999	-0.449679
H197	H	0.775945	-0.986089	-0.528187
H198	H	0.771405	-0.939321	-0.466172
H199	H	0.837881	-0.939223	-0.532647
H200	H	0.823539	-1.009037	-0.414274
H201	H	0.889962	-1.008887	-0.480800
H202	H	1.056809	-1.044937	-0.247717
H203	H	0.856153	-0.603290	-0.447842
O204	O	0.849362	-0.692019	-0.454714
C205	C	0.763421	-0.687073	-0.540483
C206	C	0.811058	-0.661286	-0.492865
H207	H	0.732430	-0.662237	-0.571330
H208	H	0.794453	-0.708989	-0.575955
H209	H	0.728079	-0.709088	-0.509378
H210	H	0.846409	-0.639247	-0.523916
H211	H	0.779984	-0.639398	-0.457391
H212	H	0.899337	-0.387461	-0.404539
H213	H	1.100029	-0.829096	-0.204451
H214	H	0.856248	-0.829154	-0.447859
O215	O	1.063551	-0.159653	-0.934798
C216	C	1.149517	-0.102678	-0.942298
C217	C	1.101866	-0.134296	-0.981121
H218	H	1.180517	-0.082175	-0.979734
H219	H	1.118496	-0.079161	-0.909227
H220	H	1.184850	-0.123318	-0.909182
H221	H	1.066524	-0.113693	-1.014273
H222	H	1.132929	-0.157814	-1.014149
H223	H	0.856211	-0.744047	-0.447845
