data_functionalizedCrystal
_audit_creation_method	'MofGen! by Chris Wilmer'
_symmetry_space_group_name_H-M	'P1'
_symmetry_Int_Tables_number	1
_symmetry_cell_setting	triclinic
loop_
_symmetry_equiv_pos_as_xyz
  x,y,z
_cell_length_a	27.732048
_cell_length_b	16.992694
_cell_length_c	16.053802
_cell_angle_alpha	92.750953
_cell_angle_beta	92.539157
_cell_angle_gamma	93.344561
loop_
_atom_site_label
_atom_site_type_symbol
_atom_site_fract_x
_atom_site_fract_y
_atom_site_fract_z
O1	O	0.100541	-1.042477	-0.069340
O2	O	0.600541	-0.542477	0.430660
O3	O	0.099416	-0.814206	-0.069364
O4	O	0.599416	-0.314206	0.430636
O5	O	0.029889	-0.935430	-0.069335
O6	O	0.529889	-0.435430	0.430665
O7	O	0.170068	-0.921253	-0.069368
O8	O	0.670068	-0.421253	0.430632
O9	O	0.033699	-0.928758	0.069522
O10	O	0.533699	-0.428758	0.569522
O11	O	0.103227	-0.807534	0.069493
O12	O	0.603227	-0.307534	0.569493
O13	O	0.104351	-1.035804	0.069518
O14	O	0.604351	-0.535804	0.569518
Zn15	Zn	0.104394	-0.920610	0.091552
Zn16	Zn	0.604394	-0.420610	0.591552
Zn17	Zn	0.099374	-0.929401	-0.091398
Zn18	Zn	0.599374	-0.429401	0.408602
O19	O	0.173879	-0.914580	0.069489
O20	O	0.673879	-0.414580	0.569489
C21	C	0.099876	-0.781675	0.000062
C22	C	0.599876	-0.281675	0.500062
C23	C	0.095561	-0.694684	0.000053
C24	C	0.595561	-0.194684	0.500053
C25	C	0.013774	-0.931796	0.000096
C26	C	0.513774	-0.431796	0.500096
C27	C	-0.039919	-0.930900	0.000103
C28	C	0.460081	-0.430900	0.500103
N29	N	0.107820	-0.914616	0.216411
N30	N	0.607820	-0.414616	0.716411
C31	C	-0.375882	-0.996895	0.000067
C32	C	0.124118	-0.496895	0.500067
C33	C	-0.577686	-0.993571	0.000055
C34	C	-0.077686	-0.493571	0.500055
O35	O	-0.606333	-1.053919	0.000025
O36	O	-0.106333	-0.553919	0.500025
N37	N	-0.599917	-0.921689	0.000048
N38	N	-0.099917	-0.421689	0.500048
C39	C	-0.571695	-0.850634	0.000038
C40	C	-0.071695	-0.350634	0.500038
O41	O	-0.595235	-0.789419	0.000024
O42	O	-0.095235	-0.289419	0.500024
C43	C	-0.369893	-0.853960	0.000045
C44	C	0.130107	-0.353960	0.500045
C45	C	-0.347663	-0.925846	0.000060
C46	C	0.152337	-0.425846	0.500060
C47	C	-0.353652	-1.068775	0.000081
C48	C	0.146348	-0.568775	0.500081
C49	C	-0.303204	-1.069606	0.000089
C50	C	0.196796	-0.569606	0.500089
C51	C	-0.274986	-0.998556	0.000082
C52	C	0.225014	-0.498556	0.500082
C53	C	-0.297215	-0.926676	0.000067
C54	C	0.202785	-0.426676	0.500067
C55	C	-0.341671	-0.782906	0.000029
C56	C	0.158329	-0.282906	0.500029
C57	C	-0.291218	-0.783744	0.000029
C58	C	0.208782	-0.283744	0.500029
C59	C	-0.268989	-0.855630	0.000044
C60	C	0.231011	-0.355630	0.500044
C61	C	-0.218549	-0.856457	0.000068
C62	C	0.281451	-0.356457	0.500068
N63	N	-0.196317	-0.928338	0.000075
N64	N	0.303683	-0.428338	0.500075
C65	C	-0.224535	-0.999388	0.000082
C66	C	0.275465	-0.499388	0.500082
C67	C	-0.677645	-0.848893	0.000037
C68	C	-0.177645	-0.348893	0.500037
C69	C	-0.728095	-0.848061	0.000037
C70	C	-0.228095	-0.348061	0.500037
C71	C	-0.734082	-0.990998	0.000052
C72	C	-0.234082	-0.490998	0.500052
C73	C	-0.683631	-0.991829	0.000058
C74	C	-0.183631	-0.491829	0.500058
C75	C	-0.655413	-0.920775	0.000044
C76	C	-0.155413	-0.420775	0.500044
C77	C	-0.118591	-1.001126	0.000098
C78	C	0.381409	-0.501126	0.500098
C79	C	-0.068138	-1.001949	0.000109
C80	C	0.431862	-0.501949	0.500109
C81	C	-0.062155	-0.859013	0.000090
C82	C	0.437845	-0.359013	0.500090
C83	C	-0.112603	-0.858189	0.000084
C84	C	0.387397	-0.358189	0.500084
C85	C	-0.140820	-0.929252	0.000085
C86	C	0.359180	-0.429252	0.500085
O87	O	-0.189872	-0.796141	0.000089
O88	O	0.310128	-0.296141	0.500089
O89	O	-0.200987	-1.060595	0.000078
O90	O	0.299013	-0.560595	0.500078
C91	C	-0.426330	-0.996065	0.000059
C92	C	0.073670	-0.496065	0.500059
C93	C	-0.448559	-0.924185	0.000045
C94	C	0.051441	-0.424185	0.500045
C95	C	-0.420341	-0.853136	0.000038
C96	C	0.079659	-0.353136	0.500038
C97	C	-0.499010	-0.923354	0.000045
C98	C	0.000990	-0.423354	0.500045
C99	C	-0.527228	-0.994403	0.000052
C100	C	-0.027228	-0.494403	0.500052
C101	C	-0.504997	-1.066285	0.000059
C102	C	-0.004997	-0.566285	0.500059
C103	C	-0.454549	-1.067115	0.000066
C104	C	0.045451	-0.567115	0.500066
C105	C	-0.442573	-0.781254	0.000031
C106	C	0.057427	-0.281254	0.500031
C107	C	-0.493021	-0.780430	0.000024
C108	C	0.006979	-0.280430	0.500024
C109	C	-0.521240	-0.851480	0.000031
C110	C	-0.021240	-0.351480	0.500031
C111	C	0.189993	-0.918214	0.000056
C112	C	0.689993	-0.418214	0.500056
C113	C	0.243686	-0.919111	0.000044
C114	C	0.743686	-0.419111	0.500044
C115	C	0.103892	-1.068336	0.000090
C116	C	0.603892	-0.568336	0.500090
C117	C	0.108206	-1.155327	0.000093
C118	C	0.608206	-0.655327	0.500093
C119	C	0.137184	-0.643939	0.000044
C120	C	0.637184	-0.143939	0.500044
C121	C	0.133129	-0.562201	0.000056
C122	C	0.633129	-0.062201	0.500056
C123	C	0.087449	-0.531209	0.000072
C124	C	0.587449	-0.031209	0.500072
C125	C	0.045823	-0.581960	0.000084
C126	C	0.545823	-0.081960	0.500084
C127	C	0.049880	-0.663696	0.000077
C128	C	0.549880	-0.163696	0.500077
C129	C	0.070636	-0.287814	0.000098
C130	C	0.570636	0.212186	0.500098
C131	C	0.066583	-0.206072	0.000103
C132	C	0.566583	0.293928	0.500103
C133	C	0.153889	-0.186318	0.000077
C134	C	0.653889	0.313682	0.500077
C135	C	0.157941	-0.268057	0.000065
C136	C	0.657941	0.231943	0.500065
C137	C	0.116315	-0.318800	0.000081
C138	C	0.616315	0.181200	0.500081
N139	N	0.083302	-0.447660	0.000082
N140	N	0.583302	0.052340	0.500082
N141	N	0.120463	-0.402348	0.000077
N142	N	0.620463	0.097652	0.500077
N143	N	0.095944	-0.935401	-0.216257
N144	N	0.595944	-0.435401	0.283743
C145	C	0.078248	-0.966215	0.260117
C146	C	0.578248	-0.466215	0.760117
C147	C	0.080649	-0.962030	0.347523
C148	C	0.580649	-0.462030	0.847523
C149	C	0.112625	-0.906248	0.391221
C150	C	0.612625	-0.406248	0.891221
C151	C	0.142199	-0.854643	0.347509
C152	C	0.642199	-0.354643	0.847509
C153	C	0.139794	-0.858825	0.260104
C154	C	0.639794	-0.358825	0.760104
C155	C	0.123113	-0.887978	0.652626
C156	C	0.623113	-0.387978	1.152626
C157	C	0.125516	-0.883801	0.740037
C158	C	0.625516	-0.383801	1.240037
C159	C	0.063966	-0.991188	0.740045
C160	C	0.563966	-0.491188	1.240045
C161	C	0.061567	-0.995369	0.652639
C162	C	0.561567	-0.495369	1.152639
C163	C	0.091138	-0.943761	0.608934
C164	C	0.591138	-0.443761	1.108934
N165	N	0.115082	-0.901970	0.480564
N166	N	0.615082	-0.401970	0.980564
N167	N	0.088679	-0.948036	0.519593
N168	N	0.588679	-0.448036	1.019593
H169	H	-0.050041	-1.060490	0.000124
H170	H	0.449959	-0.560490	0.500124
H171	H	-0.511115	-0.721887	0.000019
H172	H	-0.011115	-0.221887	0.500019
F173	F	0.185803	-0.676915	0.000022
F174	F	0.685803	-0.176915	0.500022
H175	H	0.167023	-0.520888	0.000048
H176	H	0.667023	-0.020888	0.500048
F177	F	0.049175	-1.016947	0.394039
F178	F	0.549175	-0.516947	0.894039
H179	H	0.015986	-0.705012	0.000084
H180	H	0.515986	-0.205012	0.500084
F181	F	0.206559	-0.301035	0.000044
F182	F	0.706559	0.198965	0.500044
F183	F	0.044216	-1.025591	0.213619
F184	F	0.544216	-0.525591	0.713619
F185	F	0.176228	-0.795271	0.394016
F186	F	0.676228	-0.295271	0.894016
H187	H	0.035529	-1.040791	0.617062
H188	H	0.535529	-0.540791	1.117062
F189	F	-0.365318	-0.706395	0.000009
F190	F	0.134682	-0.206395	0.500009
H191	H	0.008630	-0.556720	0.000109
H192	H	0.508630	-0.056720	0.500109
F193	F	0.171268	-0.803903	0.213590
F194	F	0.671268	-0.303903	0.713590
H195	H	-0.141559	-1.058992	0.000096
H196	H	0.358441	-0.558992	0.500096
F197	F	-0.279553	-1.146117	0.000087
F198	F	0.220447	-0.646117	0.500087
F199	F	-0.751747	-0.771550	0.000036
F200	F	-0.251747	-0.271550	0.500036
H201	H	0.029383	-0.180842	0.000114
H202	H	0.529383	0.319158	0.500114
F203	F	-0.764123	-1.066615	0.000057
F204	F	-0.264123	-0.566615	0.500057
H205	H	-0.419602	-0.723396	0.000024
H206	H	0.080398	-0.223396	0.500024
F207	F	0.032495	-1.046107	0.786564
F208	F	0.532495	-0.546107	1.286564
H209	H	0.187778	-0.144995	0.000065
H210	H	0.687778	0.355005	0.500065
H211	H	0.036741	-0.329120	0.000112
H212	H	0.536741	0.170880	0.500112
F213	F	0.159553	-0.824428	0.786538
F214	F	0.659553	-0.324428	1.286538
H215	H	0.147193	-0.845959	0.617049
H216	H	0.647193	-0.345959	1.117049
H217	H	-0.665535	-1.050364	0.000070
H218	H	-0.165535	-0.550364	0.500070
F219	F	-0.383678	-1.144403	0.000088
F220	F	0.116322	-0.644403	0.500088
H221	H	-0.654674	-0.791029	0.000026
H222	H	-0.154674	-0.291029	0.500026
H223	H	-0.268245	-0.725882	0.000016
H224	H	0.231755	-0.225882	0.500016
H225	H	-0.039170	-0.801167	0.000088
H226	H	0.460830	-0.301167	0.500088
F227	F	-0.136262	-0.781680	0.000082
F228	F	0.363738	-0.281680	0.500082
H229	H	-0.527981	-1.124136	0.000068
H230	H	-0.027981	-0.624136	0.500068
F231	F	-0.430897	-1.143626	0.000078
F232	F	0.069103	-0.643626	0.500078
