data_functionalizedCrystal
_audit_creation_method	'MofGen! by Chris Wilmer'
_symmetry_space_group_name_H-M	'P1'
_symmetry_Int_Tables_number	1
_symmetry_cell_setting	triclinic
loop_
_symmetry_equiv_pos_as_xyz
  x,y,z
_cell_length_a	6.817900
_cell_length_b	17.458045
_cell_length_c	16.256277
_cell_angle_alpha	94.786667
_cell_angle_beta	76.499647
_cell_angle_gamma	73.632038
loop_
_atom_site_label
_atom_site_type_symbol
_atom_site_fract_x
_atom_site_fract_y
_atom_site_fract_z
V1	V	4.041849	-0.111213	-0.264630
O2	O	4.013686	0.004680	-0.258819
O3	O	4.008065	-0.219877	-0.263565
O4	O	3.993276	-0.109794	-0.379705
O5	O	4.028576	-0.106166	-0.141874
V6	V	4.523606	-0.097316	-0.249857
O7	O	4.306983	-0.141696	-0.297036
O8	O	4.708670	-0.066833	-0.217451
O9	O	4.334184	0.011348	-0.250923
O10	O	4.669167	-0.213209	-0.255669
O11	O	4.654276	-0.102363	-0.372613
O12	O	4.348973	-0.098735	-0.134782
C13	C	3.856627	-0.246358	-0.259582
C14	C	3.910289	-0.335194	-0.259478
C15	C	3.752840	-0.372851	-0.255177
C16	C	3.803268	-0.456321	-0.255069
C17	C	4.011150	-0.502133	-0.259268
C18	C	4.168608	-0.464470	-0.263566
C19	C	4.118176	-0.381001	-0.263668
C20	C	4.181566	-0.752207	-0.259413
C21	C	4.231990	-0.835683	-0.259313
C22	C	3.866645	-0.827527	-0.250815
C23	C	3.816231	-0.744058	-0.250922
C24	C	3.973690	-0.706401	-0.255216
N25	N	4.062701	-0.587454	-0.259160
N26	N	3.922134	-0.621082	-0.255317
C27	C	3.837761	-0.105935	-0.407730
C28	C	3.879428	-0.105493	-0.501809
C29	C	4.170787	-0.108577	-0.733650
C30	C	4.054999	-0.039993	-0.776274
C31	C	3.955613	-0.104663	-0.674049
C32	C	4.145589	-0.172412	-0.799049
C33	C	4.029220	-0.103864	-0.840427
C34	C	3.839238	-0.036030	-0.715425
C35	C	3.929893	-0.168509	-0.738206
C36	C	3.813943	-0.099906	-0.780798
C37	C	3.913214	-0.105122	-0.578203
C38	C	4.071599	-0.103398	-0.936270
C39	C	4.148965	0.037825	-0.254903
C40	C	4.074541	0.126660	-0.255013
C41	C	4.167830	-0.102597	-0.106753
C42	C	4.105402	-0.103034	-0.012674
H43	H	3.675046	-0.486976	-0.251555
H44	H	3.709392	0.021660	-0.679241
C45	C	4.321111	-0.250265	-0.848056
H46	H	4.448076	-0.253238	-0.832000
H47	H	4.345607	-0.249654	-0.907935
H48	H	4.277950	-0.295935	-0.834449
C49	C	3.858023	-0.241922	-0.715178
H50	H	3.966717	-0.290327	-0.744122
H51	H	3.732395	-0.239351	-0.732142
H52	H	3.830669	-0.241392	-0.655056
H53	H	3.583569	-0.335558	-0.251765
C54	C	3.610475	-0.094921	-0.808757
H55	H	3.502218	-0.046455	-0.779672
H56	H	3.565195	-0.140120	-0.795017
H57	H	3.638488	-0.095095	-0.868839
H58	H	4.108268	0.014347	-0.793297
C59	C	3.587563	-0.693670	-0.246302
H60	H	3.501008	-0.728051	-0.243719
H61	H	3.587063	-0.668364	-0.295798
H62	H	3.533530	-0.653514	-0.196527
C63	C	4.373889	-0.113422	-0.705453
H64	H	4.417657	-0.067694	-0.718234
H65	H	4.483107	-0.161389	-0.735193
H66	H	4.346177	-0.114156	-0.645523
H67	H	3.738455	-0.858196	-0.247317
C68	C	4.397276	-0.514858	-0.268185
H69	H	4.483819	-0.480472	-0.270753
H70	H	4.451307	-0.555012	-0.317955
H71	H	4.397776	-0.540163	-0.218683
C72	C	4.460666	-0.886074	-0.263929
H73	H	4.547218	-0.851693	-0.266493
H74	H	4.514697	-0.926228	-0.313699
H75	H	4.461153	-0.911381	-0.214428
C76	C	4.291362	-0.339574	-0.268399
H77	H	4.231550	-0.283301	-0.267850
H78	H	4.401450	-0.362350	-0.319760
H79	H	4.347906	-0.347504	-0.220488
H80	H	4.309791	-0.721559	-0.262917
