data_functionalizedCrystal
_audit_creation_method	'MofGen! by Chris Wilmer'
_symmetry_space_group_name_H-M	'P1'
_symmetry_Int_Tables_number	1
_symmetry_cell_setting	triclinic
loop_
_symmetry_equiv_pos_as_xyz
  x,y,z
_cell_length_a	10.723024
_cell_length_b	19.188930
_cell_length_c	9.798715
_cell_angle_alpha	89.991738
_cell_angle_beta	89.996609
_cell_angle_gamma	83.806325
loop_
_atom_site_label
_atom_site_type_symbol
_atom_site_fract_x
_atom_site_fract_y
_atom_site_fract_z
O1	O	1.655155	0.097922	-0.113499
O2	O	1.291808	0.107295	-0.113506
O3	O	1.483967	0.001021	-0.113476
O4	O	1.462996	0.204196	-0.113529
O5	O	1.483952	0.001021	0.113507
O6	O	1.291793	0.107295	0.113477
O7	O	1.655140	0.097922	0.113483
Zn8	Zn	1.473465	0.102608	0.149518
Zn9	Zn	1.473483	0.102609	-0.149541
O10	O	1.462982	0.204196	0.113453
C11	C	1.245315	0.106613	-0.000015
C12	C	1.106803	0.104572	-0.000016
C13	C	1.030586	0.164037	-0.000033
C14	C	0.887427	0.161930	-0.000034
C15	C	1.483280	-0.024995	0.000019
C16	C	1.481242	-0.102512	0.000031
C17	C	1.593994	-0.146704	0.000040
C18	C	1.592079	-0.219540	0.000018
C19	C	1.477405	-0.248182	0.000015
C20	C	1.364638	-0.203981	-0.000001
C21	C	1.366556	-0.131146	0.000007
N22	N	1.389745	-0.356756	0.077260
N23	N	1.387931	-0.425947	0.077255
C24	C	1.471618	-0.467628	-0.000013
N25	N	1.557208	-0.437506	-0.077259
N26	N	1.559026	-0.368310	-0.077248
C27	C	1.475312	-0.327158	0.000005
C28	C	1.582302	-0.590797	-0.000030
C29	C	1.580382	-0.663634	-0.000061
C30	C	1.352937	-0.648073	-0.000066
C31	C	1.354860	-0.575238	-0.000049
C32	C	1.469546	-0.546604	-0.000025
C33	C	1.701633	0.098604	-0.000011
C34	C	1.840145	0.100645	-0.000019
C35	C	1.463668	0.230211	-0.000045
C36	C	1.465706	0.307729	-0.000066
N37	N	1.473461	0.102608	0.353618
N38	N	1.473497	0.102604	-0.353640
C39	C	1.554147	0.057789	0.421407
C40	C	1.554167	0.057787	0.578570
H41	H	1.071319	0.216508	-0.000039
H42	H	0.821937	0.212836	-0.000054
H43	H	1.066070	0.052101	-0.000037
H44	H	1.623251	0.019419	0.636866
H45	H	0.905627	0.049735	-0.000013
H46	H	1.623208	0.019418	0.363095
C47	C	1.228392	-0.679120	-0.000353
C48	C	1.160275	-0.656710	-0.117148
C49	C	1.045542	-0.685306	-0.117475
H50	H	1.181824	-0.664016	0.078707
H51	H	1.243341	-0.728831	-0.000434
H52	H	1.145322	-0.607010	-0.117055
H53	H	1.206805	-0.671814	-0.196228
H54	H	1.060492	-0.735017	-0.117556
H55	H	0.998987	-0.670200	-0.038409
H56	H	0.999316	-0.670110	-0.196724
H57	H	1.263044	-0.539256	-0.000049
H58	H	1.687380	-0.123395	0.000055
H59	H	1.683899	-0.255527	0.000019
H60	H	1.271269	-0.227305	-0.000007
C61	C	1.243997	-0.083279	0.000076
C62	C	1.143156	-0.123947	0.000096
C63	C	1.030236	-0.079875	0.000181
H64	H	1.239848	-0.054517	-0.079050
H65	H	1.239945	-0.054563	0.079268
H66	H	1.147205	-0.152650	-0.079088
H67	H	1.147264	-0.152707	0.079216
H68	H	1.026184	-0.051159	0.079373
H69	H	1.026099	-0.051115	-0.078946
H70	H	0.961801	-0.107461	0.000208
H71	H	1.675686	-0.567482	-0.000017
C72	C	1.381579	0.153808	0.568474
C73	C	1.448106	0.196721	0.486393
C74	C	1.363475	0.243893	0.414603
H75	H	1.330936	0.181993	0.631236
H76	H	1.329697	0.128509	0.512668
H77	H	1.499967	0.222019	0.542195
H78	H	1.498745	0.168556	0.423606
H79	H	1.311592	0.218594	0.358797
H80	H	1.312836	0.272072	0.477375
H81	H	1.408600	0.273011	0.358894
C82	C	1.702904	-0.711532	-0.000266
C83	C	1.772010	-0.698480	-0.117012
C84	C	1.884893	-0.742584	-0.117238
H85	H	1.685521	-0.759035	-0.000351
H86	H	1.749999	-0.702791	0.078856
H87	H	1.724925	-0.707227	-0.196114
H88	H	1.789427	-0.650986	-0.116952
H89	H	1.931988	-0.733842	-0.038116
H90	H	1.867497	-0.790084	-0.117320
H91	H	1.931800	-0.733729	-0.196442
H92	H	1.404392	0.140974	0.411931
