data_functionalizedCrystal
_audit_creation_method	'MofGen! by Chris Wilmer'
_symmetry_space_group_name_H-M	'P1'
_symmetry_Int_Tables_number	1
_symmetry_cell_setting	triclinic
loop_
_symmetry_equiv_pos_as_xyz
  x,y,z
_cell_length_a	35.288113
_cell_length_b	35.282844
_cell_length_c	35.277682
_cell_angle_alpha	120.000030
_cell_angle_beta	90.000425
_cell_angle_gamma	59.985448
loop_
_atom_site_label
_atom_site_type_symbol
_atom_site_fract_x
_atom_site_fract_y
_atom_site_fract_z
O1	O	-0.259855	-0.334376	-0.011290
O2	O	-0.204773	-0.256750	0.011214
O3	O	-0.204747	-0.334374	-0.066414
O4	O	-0.259881	-0.256752	0.066338
O5	O	-0.267796	-0.271323	-0.066407
O6	O	-0.267822	-0.193699	0.011221
O7	O	-0.322904	-0.271325	-0.011283
Zn8	Zn	-0.305373	-0.222501	-0.000030
Zn9	Zn	-0.222304	-0.305574	-0.000039
O10	O	-0.322930	-0.193701	0.066345
C11	C	-0.095943	0.006465	0.034094
C12	C	-0.118849	-0.016235	0.034417
C13	C	-0.027301	-0.062175	0.034097
C14	C	-0.050311	-0.084771	0.034420
C15	C	-0.095925	-0.062174	0.034099
C16	C	-0.050330	-0.016236	0.034415
C17	C	-0.137887	0.159560	0.021655
C18	C	-0.159497	0.202921	0.018138
C19	C	-0.204697	0.224672	0.016374
C20	C	-0.228128	0.271681	0.012552
C21	C	-0.228287	0.203062	0.018130
C22	C	-0.206678	0.159710	0.021653
C23	C	-0.161476	0.137959	0.023415
C24	C	-0.207065	-0.116515	0.021677
C25	C	-0.228810	-0.141634	0.018165
C26	C	-0.205351	-0.188603	0.016402
C27	C	-0.228920	-0.215846	0.012587
C28	C	-0.160145	-0.210451	0.018156
C29	C	-0.138404	-0.185328	0.021676
C30	C	-0.161869	-0.138359	0.023433
C31	C	0.138198	-0.116522	0.021668
C32	C	0.185071	-0.141646	0.018149
C33	C	0.208593	-0.188615	0.016388
C34	C	0.259415	-0.215860	0.012569
C35	C	0.185242	-0.210462	0.018142
C36	C	0.138371	-0.185338	0.021659
C37	C	0.114851	-0.138364	0.023426
C38	C	-0.138047	0.090946	0.027231
C39	C	-0.119372	0.053474	0.030274
C40	C	0.023519	-0.089416	0.030281
C41	C	0.064029	-0.111128	0.027240
C42	C	-0.119498	-0.089413	0.030284
C43	C	-0.138290	-0.111124	0.027245
C44	C	-0.364258	-0.456770	-0.023612
C45	C	-0.340857	-0.503556	-0.020399
C46	C	-0.409872	-0.434067	-0.023931
C47	C	-0.364282	-0.388121	-0.023604
C48	C	-0.340907	-0.361507	-0.020382
C49	C	-0.409896	-0.365522	-0.023922
C50	C	-0.432903	-0.388122	-0.023605
C51	C	-0.482899	-0.361511	-0.020383
C52	C	-0.341354	-0.434065	-0.023930
C53	C	-0.523291	-0.340011	-0.017779
C54	C	-0.321952	-0.541354	-0.017801
C55	C	-0.322022	-0.340006	-0.017777
C56	C	-0.573964	-0.313038	-0.014513
C57	C	-0.298234	-0.588774	-0.014544
C58	C	-0.298331	-0.313032	-0.014510
C59	C	-0.095801	-0.466212	-0.438584
C60	C	-0.050179	-0.512156	-0.461507
C61	C	-0.095801	-0.466212	-0.369941
C62	C	-0.050179	-0.512156	-0.392968
C63	C	-0.027156	-0.534859	-0.438590
C64	C	-0.118720	-0.443613	-0.392961
C65	C	-0.206997	-0.342589	-0.480488
C66	C	-0.228756	-0.317316	-0.502091
C67	C	-0.205301	-0.339009	-0.547300
C68	C	-0.228889	-0.311603	-0.570723
C69	C	-0.160085	-0.385979	-0.570907
C70	C	-0.138332	-0.411252	-0.549306
C71	C	-0.161789	-0.389555	-0.504094
C72	C	0.138377	-0.687972	-0.549793
C73	C	0.185255	-0.731338	-0.571555
C74	C	0.208773	-0.753091	-0.548104
C75	C	0.259601	-0.800105	-0.571692
C76	C	0.185407	-0.731478	-0.502888
C77	C	0.138530	-0.688121	-0.481130
C78	C	0.115018	-0.666368	-0.504588
C79	C	-0.206997	-0.342589	-0.204397
C80	C	-0.228755	-0.317311	-0.157516
C81	C	-0.205299	-0.339004	-0.134002
C82	C	-0.228887	-0.311598	-0.083170
C83	C	-0.160086	-0.385970	-0.157370
C84	C	-0.138330	-0.411243	-0.204250
C85	C	-0.161792	-0.389551	-0.227761
C86	C	-0.138195	-0.416961	-0.480674
C87	C	-0.119391	-0.438806	-0.462005
C88	C	-0.119391	-0.438806	-0.319111
C89	C	-0.138196	-0.416961	-0.278594
C90	C	0.023672	-0.581873	-0.462183
C91	C	0.064188	-0.619349	-0.480990
O92	O	0.408892	-0.271336	-0.011291
O93	O	0.276164	-0.193713	0.011202
O94	O	0.353787	-0.271346	-0.066421
O95	O	0.331268	-0.193702	0.066332
O96	O	0.353804	-0.334390	-0.066416
O97	O	0.276180	-0.256756	0.011207
O98	O	0.408908	-0.334379	-0.011287
Zn99	Zn	0.342547	-0.305577	-0.000039
Zn100	Zn	0.342525	-0.222515	-0.000045
O101	O	0.331285	-0.256745	0.066337
O102	O	-0.322789	0.397311	-0.011322
O103	O	-0.267651	0.287070	0.011181
O104	O	-0.267645	0.287053	-0.066446
O105	O	-0.322795	0.397328	0.066305
O106	O	-0.204616	0.287052	-0.066448
O107	O	-0.204623	0.287069	0.011179
O108	O	-0.259760	0.397310	-0.011323
Zn109	Zn	-0.222185	0.342189	-0.000072
Zn110	Zn	-0.305227	0.342191	-0.000070
O111	O	-0.259767	0.397327	0.066304
O112	O	0.409101	-0.925752	-0.602685
O113	O	0.276361	-0.815495	-0.547552
O114	O	0.353955	-0.815494	-0.547549
O115	O	0.331506	-0.925753	-0.602687
O116	O	0.353957	-0.815495	-0.610597
O117	O	0.276362	-0.815497	-0.610599
O118	O	0.409103	-0.925753	-0.665732
Zn119	Zn	0.342733	-0.870625	-0.648176
Zn120	Zn	0.342731	-0.870623	-0.565108
O121	O	0.331508	-0.925755	-0.665734
O122	O	-0.259884	-0.256748	-0.665371
O123	O	-0.204748	-0.334374	-0.610256
O124	O	-0.204775	-0.256748	-0.610246
O125	O	-0.259857	-0.334373	-0.665381
O126	O	-0.267823	-0.193698	-0.547193
O127	O	-0.267795	-0.271324	-0.547203
O128	O	-0.322932	-0.193698	-0.602318
Zn129	Zn	-0.305374	-0.222501	-0.564749
Zn130	Zn	-0.222306	-0.305571	-0.647825
O131	O	-0.322905	-0.271324	-0.602328
C132	C	-0.433013	-0.071311	0.293214
C133	C	-0.483015	-0.024525	0.316610
C134	C	-0.409990	-0.094014	0.316131
C135	C	-0.364367	-0.139958	0.224565
C136	C	-0.340974	-0.166571	0.174561
C137	C	-0.341449	-0.162557	0.247586
C138	C	-0.364368	-0.139958	0.293208
C139	C	-0.340975	-0.166569	0.316598
C140	C	-0.409989	-0.094015	0.247592
C141	C	-0.322076	-0.188069	0.335493
C142	C	-0.523412	0.013272	0.335510
C143	C	-0.322074	-0.188072	0.134162
C144	C	-0.298367	-0.215042	0.359199
C145	C	-0.574092	0.060691	0.359223
C146	C	-0.298364	-0.215045	0.083480
C147	C	0.318955	-0.139933	0.293205
C148	C	0.322181	-0.166539	0.316599
C149	C	0.318623	-0.093991	0.316121
C150	C	0.318954	-0.139943	0.224557
C151	C	0.322178	-0.166559	0.174553
C152	C	0.318622	-0.094001	0.247578
C153	C	0.318938	-0.071294	0.293200
C154	C	0.322144	-0.024511	0.316589
C155	C	0.318639	-0.162536	0.247583
C156	C	0.324736	0.013285	0.335484
C157	C	0.324788	-0.188034	0.335499
C158	C	0.324784	-0.188064	0.134154
C159	C	0.327987	0.060702	0.359190
C160	C	0.328058	-0.215001	0.359211
C161	C	0.328052	-0.215041	0.083473
C162	C	-0.364296	0.611920	0.293175
C163	C	-0.340922	0.638535	0.316568
C164	C	-0.409912	0.634522	0.316095
C165	C	-0.364270	0.543265	0.224529
C166	C	-0.340868	0.496473	0.174524
C167	C	-0.409885	0.565971	0.247553
C168	C	-0.432919	0.611920	0.293175
C169	C	-0.482915	0.638534	0.316567
C170	C	-0.341367	0.565971	0.247553
C171	C	-0.523308	0.660036	0.335466
C172	C	-0.322038	0.660038	0.335466
C173	C	-0.321961	0.458671	0.134125
C174	C	-0.573982	0.687011	0.359175
C175	C	-0.298347	0.687014	0.359175
C176	C	-0.298242	0.411245	0.083443
C177	C	0.376736	-0.534611	-0.438590
C178	C	0.377050	-0.511914	-0.461511
C179	C	0.376720	-0.465962	-0.369947
C180	C	0.377034	-0.443369	-0.392973
C181	C	0.376718	-0.465972	-0.438594
C182	C	0.377052	-0.511904	-0.392968
C183	C	0.364351	-0.687713	-0.480496
C184	C	0.360850	-0.731076	-0.502099
C185	C	0.359091	-0.752833	-0.547308
C186	C	0.355285	-0.799845	-0.570731
C187	C	0.360838	-0.731227	-0.570913
C188	C	0.364346	-0.687871	-0.549312
C189	C	0.366103	-0.666114	-0.504101
C190	C	0.364277	-0.411646	-0.549793
C191	C	0.360757	-0.386531	-0.571554
C192	C	0.358979	-0.339558	-0.548101
C193	C	0.355156	-0.312319	-0.571688
C194	C	0.360728	-0.317705	-0.502887
C195	C	0.364256	-0.342824	-0.481130
C196	C	0.366027	-0.389797	-0.504588
C197	C	0.364285	-0.411596	-0.204405
C198	C	0.360761	-0.386467	-0.157524
C199	C	0.358986	-0.339495	-0.134010
C200	C	0.355162	-0.312245	-0.083178
C201	C	0.360731	-0.317651	-0.157377
C202	C	0.364253	-0.342780	-0.204256
C203	C	0.366034	-0.389757	-0.227768
C204	C	0.369902	-0.619098	-0.480680
C205	C	0.372933	-0.581623	-0.462011
C206	C	0.372898	-0.438716	-0.319117
C207	C	0.369854	-0.416999	-0.278600
C208	C	0.372895	-0.438736	-0.462185
C209	C	0.369849	-0.417028	-0.480991
O210	O	0.353784	-0.271260	0.452826
O211	O	0.331275	-0.193654	0.397692
O212	O	0.408895	-0.271275	0.397688
O213	O	0.276165	-0.193638	0.452830
O214	O	0.408910	-0.334328	0.334642
O215	O	0.331290	-0.256707	0.334646
O216	O	0.353799	-0.334313	0.389780
Zn217	Zn	0.342547	-0.305521	0.352203
Zn218	Zn	0.342527	-0.222446	0.435268
O219	O	0.276180	-0.256692	0.389784
C220	C	-0.027256	-0.062279	-0.438625
C221	C	-0.050263	-0.084881	-0.461544
C222	C	-0.095904	0.006376	-0.369978
C223	C	-0.118807	-0.016330	-0.393002
C224	C	-0.095878	-0.062279	-0.438624
C225	C	-0.050289	-0.016330	-0.393002
C226	C	0.138246	-0.116629	-0.480543
C227	C	0.185118	-0.141752	-0.502150
C228	C	0.208644	-0.188731	-0.547359
C229	C	0.259468	-0.215979	-0.570786
C230	C	0.185294	-0.210584	-0.570962
C231	C	0.138424	-0.185457	-0.549358
C232	C	0.114900	-0.138478	-0.504146
C233	C	-0.137737	-0.185914	-0.549816
C234	C	-0.159327	-0.211189	-0.571575
C235	C	-0.204527	-0.189497	-0.548119
C236	C	-0.227938	-0.216902	-0.571704
C237	C	-0.228139	-0.142522	-0.502904
C238	C	-0.206553	-0.117243	-0.481150
C239	C	-0.161347	-0.138947	-0.504611
C240	C	-0.137866	0.159511	-0.204438
C241	C	-0.159479	0.202879	-0.157556
C242	C	-0.204681	0.224635	-0.134039
C243	C	-0.228118	0.271656	-0.083207
C244	C	-0.228266	0.203019	-0.157403
C245	C	-0.206650	0.159651	-0.204283
C246	C	-0.161450	0.137903	-0.227798
C247	C	0.064077	-0.111238	-0.480721
C248	C	0.023567	-0.089523	-0.462049
C249	C	-0.119338	0.053397	-0.319148
C250	C	-0.138018	0.090879	-0.278631
C251	C	-0.119285	-0.089687	-0.462213
C252	C	-0.137943	-0.111534	-0.481016
H253	H	-0.031822	-0.121736	0.034940
C254	C	0.361153	-0.457017	-0.162380
C255	C	0.358845	-0.410479	-0.131841
H256	H	0.359975	-0.471844	-0.146525
H257	H	0.335673	-0.448402	-0.173542
H258	H	0.389382	-0.482372	-0.187781
H259	H	0.330614	-0.385123	-0.106442
H260	H	0.384327	-0.419093	-0.120672
H261	H	-0.428402	0.671496	0.353580
C262	C	0.257225	-0.279665	-0.634633
C263	C	0.211153	-0.262222	-0.620653
H264	H	0.273189	-0.311547	-0.665310
H265	H	0.257752	-0.252663	-0.633913
H266	H	0.271981	-0.286622	-0.614161
H267	H	0.196396	-0.255261	-0.641124
H268	H	0.210624	-0.289230	-0.621378
C269	C	-0.447619	0.525052	0.247241
C270	C	-0.434828	0.540324	0.222610
H271	H	-0.463022	0.509224	0.231847
H272	H	-0.420650	0.499852	0.248814
H273	H	-0.467869	0.555727	0.277766
H274	H	-0.414576	0.509649	0.192086
H275	H	-0.461802	0.565526	0.221032
C276	C	-0.207639	-0.074008	-0.402295
C277	C	-0.232504	-0.065607	-0.431455
H278	H	-0.223659	-0.042127	-0.371617
H279	H	-0.204769	-0.102267	-0.402329
H280	H	-0.177629	-0.083318	-0.413161
H281	H	-0.262513	-0.056301	-0.420592
H282	H	-0.235380	-0.037339	-0.431420
C283	C	0.317690	-0.023129	0.382062
C284	C	0.317919	-0.068332	0.366725
H285	H	0.317253	-0.007287	0.413302
H286	H	0.344751	-0.033504	0.363003
H287	H	0.290906	0.002064	0.380291
H288	H	0.344705	-0.093527	0.368493
H289	H	0.290855	-0.057959	0.385789
H290	H	0.204395	-0.248707	0.016709
C291	C	-0.262774	-0.200664	0.247254
C292	C	-0.290851	-0.212474	0.222635
H293	H	-0.231540	-0.231484	0.231853
H294	H	-0.264537	-0.172130	0.248823
H295	H	-0.273199	-0.190379	0.277780
H296	H	-0.280428	-0.222756	0.192109
H297	H	-0.289086	-0.241017	0.221061
C298	C	-0.262694	0.525037	0.247221
C299	C	-0.290771	0.540310	0.222596
H300	H	-0.231459	0.509190	0.231811
H301	H	-0.273113	0.555709	0.277737
H302	H	-0.264466	0.499846	0.248809
H303	H	-0.289002	0.565503	0.221010
H304	H	-0.280349	0.509634	0.192072
C305	C	-0.279463	-0.115775	-0.022516
C306	C	-0.278494	-0.117626	0.016229
H307	H	-0.310135	-0.100957	-0.023713
H308	H	-0.269877	-0.094090	-0.020165
H309	H	-0.259039	-0.151024	-0.049946
H310	H	-0.298916	-0.082376	0.043659
H311	H	-0.288086	-0.139311	0.013882
H312	H	-0.265074	0.220738	-0.138254
H313	H	-0.428386	-0.328550	-0.024432
C314	C	-0.410295	-0.053101	0.394801
C315	C	-0.434922	-0.068372	0.366738
H316	H	-0.425682	-0.037272	0.426044
H317	H	-0.379774	-0.083770	0.384368
H318	H	-0.408735	-0.027895	0.393030
H319	H	-0.436479	-0.093581	0.368507
H320	H	-0.465451	-0.037699	0.377175
H321	H	-0.428475	-0.075011	0.229112
C322	C	0.143307	-0.256021	-0.619540
C323	C	0.112761	-0.209479	-0.575298
H324	H	0.127464	-0.270854	-0.635552
H325	H	0.154464	-0.247408	-0.636411
H326	H	0.168705	-0.281369	-0.616660
H327	H	0.087364	-0.184129	-0.578178
H328	H	0.101597	-0.218090	-0.558423
C329	C	0.227419	-0.809119	-0.650417
C330	C	0.210940	-0.755087	-0.621248
H331	H	0.243274	-0.823777	-0.681095
H332	H	0.248127	-0.828275	-0.639562
H333	H	0.202027	-0.811947	-0.650381
H334	H	0.236332	-0.752258	-0.621281
H335	H	0.190230	-0.735925	-0.632106
H336	H	-0.428342	-0.453070	-0.024449
C337	C	0.377930	-0.378327	-0.323035
C338	C	0.377724	-0.393468	-0.368027
H339	H	0.378361	-0.347525	-0.307638
H340	H	0.350865	-0.370304	-0.306334
H341	H	0.404710	-0.406884	-0.324621
H342	H	0.350942	-0.364913	-0.366441
H343	H	0.404792	-0.401489	-0.384732
C344	C	-0.308129	0.245647	0.056632
C345	C	-0.277968	0.226971	0.016191
H346	H	-0.338801	0.260409	0.055434
H347	H	-0.298635	0.216735	0.058977
H348	H	-0.307410	0.272470	0.082911
H349	H	-0.278684	0.200145	-0.010088
H350	H	-0.287465	0.255886	0.013841
H351	H	0.377575	-0.530923	-0.498998
H352	H	0.365770	-0.670284	-0.568535
C353	C	-0.207901	-0.073392	-0.013964
C354	C	-0.232860	-0.064887	0.023610
H355	H	-0.223826	-0.041522	-0.012773
H356	H	-0.177874	-0.082802	-0.012413
H357	H	-0.205083	-0.101617	-0.042189
H358	H	-0.235675	-0.036665	0.051836
H359	H	-0.262895	-0.055471	0.022063
H360	H	0.365739	-0.449849	-0.223548
C361	C	-0.071890	-0.256326	-0.619885
C362	C	-0.088052	-0.209763	-0.575606
H363	H	-0.041218	-0.271045	-0.635805
H364	H	-0.071868	-0.281739	-0.617071
H365	H	-0.091618	-0.247768	-0.636812
H366	H	-0.068325	-0.218322	-0.558678
H367	H	-0.088071	-0.184345	-0.578418
C368	C	-0.129140	-0.304482	-0.621313
C369	C	-0.133374	-0.262825	-0.621269
H370	H	-0.113119	-0.336359	-0.651993
H371	H	-0.112278	-0.310171	-0.601527
H372	H	-0.159153	-0.295169	-0.610454
H373	H	-0.103360	-0.272136	-0.632124
H374	H	-0.150235	-0.257135	-0.641062
H375	H	-0.303877	-0.453065	-0.024445
H376	H	0.377571	-0.530900	-0.374482
C377	C	-0.055067	-0.508135	-0.323015
C378	C	-0.025216	-0.537792	-0.368012
H379	H	-0.039653	-0.523960	-0.307609
H380	H	-0.063768	-0.472380	-0.306328
H381	H	-0.082022	-0.507961	-0.324592
H382	H	0.001738	-0.537963	-0.366435
H383	H	-0.016508	-0.573557	-0.384703
C384	C	0.357401	-0.105511	0.182872
C385	C	0.317920	-0.068355	0.222625
H386	H	0.356966	-0.089678	0.167468
H387	H	0.384457	-0.115874	0.191564
H388	H	0.357550	-0.136176	0.162620
H389	H	0.317772	-0.037691	0.242878
H390	H	0.290856	-0.057984	0.213934
H391	H	0.318144	-0.199512	0.229098
H392	H	0.119236	-0.670266	-0.568897
H393	H	-0.101599	-0.203118	0.023107
H394	H	-0.264946	-0.124856	-0.483808
H395	H	-0.031696	-0.531156	-0.498992
C396	C	0.113753	-0.703995	-0.430458
C397	C	0.112851	-0.664368	-0.431433
H398	H	0.097902	-0.689331	-0.399775
H399	H	0.098931	-0.716596	-0.450868
H400	H	0.145038	-0.732930	-0.440062
H401	H	0.081565	-0.635434	-0.421833
H402	H	0.127671	-0.651759	-0.411017
H403	H	0.365783	-0.670003	-0.443684
C404	C	-0.171900	-0.351612	-0.365639
C405	C	-0.169312	-0.393685	-0.367978
H406	H	-0.203130	-0.320785	-0.350210
H407	H	-0.152828	-0.343640	-0.348960
H408	H	-0.161504	-0.361876	-0.396163
H409	H	-0.179705	-0.383423	-0.337454
H410	H	-0.188391	-0.401658	-0.384657
H411	H	0.359419	-0.748659	-0.482874
H412	H	0.359409	-0.748947	-0.607723
H413	H	0.119361	-0.203128	0.023090
H414	H	-0.265566	-0.279065	-0.138490
C415	C	0.257333	-0.798009	-0.505751
C416	C	0.211253	-0.755388	-0.477107
H417	H	0.273289	-0.812765	-0.489832
H418	H	0.257876	-0.824826	-0.533292
H419	H	0.272085	-0.785336	-0.513547
H420	H	0.196500	-0.768061	-0.469314
H421	H	0.210707	-0.728566	-0.449558
C422	C	0.363958	-0.477159	-0.619858
C423	C	0.366232	-0.463281	-0.575579
H424	H	0.365167	-0.509038	-0.635776
H425	H	0.335731	-0.448945	-0.617044
H426	H	0.389439	-0.482916	-0.636787
H427	H	0.340749	-0.457520	-0.558649
H428	H	0.394462	-0.491501	-0.578392
C429	C	-0.276817	0.164152	-0.199427
C430	C	-0.232577	0.135897	-0.229965
H431	H	-0.292824	0.149488	-0.215284
H432	H	-0.273946	0.161324	-0.174031
H433	H	-0.293687	0.200805	-0.188261
H434	H	-0.215706	0.099244	-0.241129
H435	H	-0.235446	0.138720	-0.255370
H436	H	0.359332	-0.404326	-0.608366
C437	C	-0.072636	-0.476567	-0.199396
C438	C	-0.088630	-0.462864	-0.229933
H439	H	-0.041953	-0.508436	-0.215253
H440	H	-0.072694	-0.448293	-0.173997
H441	H	-0.092410	-0.482275	-0.188235
H442	H	-0.068858	-0.457153	-0.241091
H443	H	-0.088569	-0.491145	-0.255341
H444	H	0.204081	-0.123855	0.016720
H445	H	-0.140271	0.220474	-0.138535
C446	C	-0.277058	-0.272176	-0.199830
C447	C	-0.232783	-0.318739	-0.230240
H448	H	-0.292973	-0.257452	-0.215785
H449	H	-0.293980	-0.280729	-0.188659
H450	H	-0.274249	-0.246762	-0.174424
H451	H	-0.235592	-0.344155	-0.255644
H452	H	-0.215857	-0.310187	-0.241418
C453	C	-0.277063	-0.272183	-0.414639
C454	C	-0.232784	-0.318741	-0.430794
H455	H	-0.292982	-0.257465	-0.383962
H456	H	-0.274260	-0.246768	-0.414623
H457	H	-0.293980	-0.280746	-0.434373
H458	H	-0.215866	-0.310178	-0.411062
H459	H	-0.235586	-0.344162	-0.430807
H460	H	-0.140992	-0.403639	-0.607717
C461	C	0.355313	-0.248640	-0.505747
C462	C	0.358778	-0.266075	-0.477105
H463	H	0.354105	-0.216763	-0.489829
H464	H	0.381593	-0.275649	-0.533289
H465	H	0.327886	-0.241676	-0.513543
H466	H	0.386208	-0.273043	-0.469313
H467	H	0.332495	-0.239061	-0.449555
H468	H	0.119051	-0.078275	0.023105
C469	C	-0.090091	-0.275942	0.018512
C470	C	-0.134356	-0.262075	0.016226
H471	H	-0.074173	-0.307812	0.017323
H472	H	-0.073164	-0.281706	-0.006974
H473	H	-0.092919	-0.247715	0.046743
H474	H	-0.131528	-0.290300	-0.012007
H475	H	-0.151287	-0.256314	0.041714
H476	H	-0.101066	0.141815	-0.223585
H477	H	0.365681	-0.325029	-0.444317
C478	C	0.363881	-0.272243	-0.199406
C479	C	0.366179	-0.318775	-0.229942
H480	H	0.365073	-0.257426	-0.215265
H481	H	0.335654	-0.246883	-0.174009
H482	H	0.389362	-0.280866	-0.188240
H483	H	0.340695	-0.310151	-0.241104
H484	H	0.394408	-0.344140	-0.255347
C485	C	-0.278507	-0.224022	-0.471911
C486	C	-0.278450	-0.265684	-0.476139
H487	H	-0.309186	-0.192147	-0.455890
H488	H	-0.258728	-0.218332	-0.455046
H489	H	-0.267653	-0.233332	-0.501930
H490	H	-0.289300	-0.256376	-0.446120
H491	H	-0.298236	-0.271374	-0.493004
H492	H	0.359283	-0.279401	-0.138228
C493	C	-0.072638	-0.476580	-0.619493
C494	C	-0.088634	-0.462876	-0.575251
H495	H	-0.041955	-0.508448	-0.635508
H496	H	-0.092410	-0.482285	-0.636361
H497	H	-0.072694	-0.448303	-0.616612
H498	H	-0.088581	-0.491152	-0.578131
H499	H	-0.068856	-0.457174	-0.558379
H500	H	-0.140985	-0.403631	-0.138221
C501	C	-0.184759	0.054529	-0.323058
C502	C	-0.169403	0.009323	-0.368051
H503	H	-0.215994	0.070366	-0.307658
H504	H	-0.165709	0.044159	-0.306361
H505	H	-0.182993	0.079725	-0.324643
H506	H	-0.171165	-0.015874	-0.366466
H507	H	-0.188458	0.019692	-0.384752
H508	H	-0.031767	-0.121859	-0.499027
C509	C	0.019634	-0.020330	-0.397902
C510	C	-0.025355	0.009324	-0.368046
H511	H	0.035025	-0.004490	-0.382494
H512	H	0.036333	-0.056080	-0.406582
H513	H	0.018055	-0.020522	-0.424873
H514	H	-0.023776	0.009513	-0.341076
H515	H	-0.042057	0.045083	-0.359359
H516	H	0.119096	-0.078377	-0.443731
C517	C	0.180239	-0.071202	-0.431959
C518	C	0.210784	-0.117738	-0.476204
H519	H	0.196086	-0.056379	-0.415940
H520	H	0.154848	-0.045847	-0.434833
H521	H	0.169075	-0.079820	-0.415095
H522	H	0.221946	-0.109119	-0.493069
H523	H	0.236183	-0.143098	-0.473332
H524	H	-0.156329	0.002771	0.034939
H525	H	-0.101082	0.141855	0.023091
C526	C	-0.055248	0.054606	0.035316
C527	C	-0.025390	0.009410	0.035111
H528	H	-0.039851	0.070439	0.035749
H529	H	-0.063920	0.044226	0.008245
H530	H	-0.082219	0.079809	0.062098
H531	H	0.001579	-0.015794	0.008327
H532	H	-0.016712	0.019789	0.062185
C533	C	-0.158478	0.280720	0.053783
C534	C	-0.133583	0.226687	0.016212
H535	H	-0.142482	0.295395	0.052596
H536	H	-0.188487	0.299863	0.052225
H537	H	-0.161343	0.283545	0.082010
H538	H	-0.130721	0.223862	-0.012016
H539	H	-0.103566	0.207539	0.017766
H540	H	-0.225888	0.142121	0.023085
