data_functionalizedCrystal
_audit_creation_method	'MofGen! by Chris Wilmer'
_symmetry_space_group_name_H-M	'P1'
_symmetry_Int_Tables_number	1
_symmetry_cell_setting	triclinic
loop_
_symmetry_equiv_pos_as_xyz
  x,y,z
_cell_length_a	14.044220
_cell_length_b	14.044220
_cell_length_c	12.503572
_cell_angle_alpha	93.847060
_cell_angle_beta	86.152852
_cell_angle_gamma	93.188878
loop_
_atom_site_label
_atom_site_type_symbol
_atom_site_fract_x
_atom_site_fract_y
_atom_site_fract_z
O1	O	1.272121	0.235210	0.089202
O2	O	1.522121	0.485210	0.339202
O3	O	1.772121	0.735210	0.589202
O4	O	2.022121	0.985210	0.839202
O5	O	0.995448	0.226906	0.089229
O6	O	1.245448	0.476906	0.339229
O7	O	1.495448	0.726906	0.589229
O8	O	1.745448	0.976906	0.839229
O9	O	1.129632	0.092722	0.089211
O10	O	1.379632	0.342722	0.339211
O11	O	1.629632	0.592722	0.589211
O12	O	1.879632	0.842722	0.839211
O13	O	1.137937	0.369394	0.089220
O14	O	1.387937	0.619394	0.339220
O15	O	1.637937	0.869394	0.589220
O16	O	1.887937	1.119394	0.839220
O17	O	1.139727	0.082618	-0.089432
O18	O	1.389727	0.332618	0.160568
O19	O	1.639727	0.582618	0.410568
O20	O	1.889727	0.832618	0.660568
O21	O	1.005543	0.216802	-0.089414
O22	O	1.255543	0.466802	0.160586
O23	O	1.505543	0.716802	0.410586
O24	O	1.755543	0.966802	0.660586
O25	O	1.282216	0.225106	-0.089441
O26	O	1.532216	0.475106	0.160559
O27	O	1.782216	0.725106	0.410559
O28	O	2.032216	0.975106	0.660559
Cu29	Cu	1.144801	0.220031	-0.105739
Cu30	Cu	1.394801	0.470031	0.144261
Cu31	Cu	1.644801	0.720031	0.394261
Cu32	Cu	1.894801	0.970031	0.644261
Cu33	Cu	1.132862	0.231981	0.105527
Cu34	Cu	1.382862	0.481981	0.355527
Cu35	Cu	1.632862	0.731981	0.605527
Cu36	Cu	1.882862	0.981981	0.855527
O37	O	1.148032	0.359290	-0.089423
O38	O	1.398032	0.609290	0.160577
O39	O	1.648032	0.859290	0.410577
O40	O	1.898032	1.109290	0.660577
C41	C	0.964873	0.218218	-0.000089
C42	C	1.214873	0.468218	0.249911
C43	C	1.464873	0.718218	0.499911
C44	C	1.714873	0.968218	0.749911
C45	C	0.858730	0.207374	-0.000078
C46	C	1.108730	0.457374	0.249922
C47	C	1.358730	0.707374	0.499922
C48	C	1.608730	0.957374	0.749922
C49	C	1.131043	0.052048	-0.000109
C50	C	1.381043	0.302048	0.249891
C51	C	1.631043	0.552048	0.499891
C52	C	1.881043	0.802048	0.749891
C53	C	1.120199	-0.054094	-0.000105
C54	C	1.370199	0.195906	0.249895
C55	C	1.620199	0.445906	0.499895
C56	C	1.870199	0.695906	0.749895
N57	N	1.124465	0.240379	0.254121
N58	N	1.374465	0.490379	0.504121
N59	N	1.624465	0.740379	0.754121
N60	N	1.874465	0.990379	1.004121
C61	C	0.664393	0.187547	-0.000100
C62	C	0.914393	0.437547	0.249900
C63	C	1.164393	0.687547	0.499900
C64	C	1.414393	0.937547	0.749900
C65	C	0.613264	0.264461	-0.000102
C66	C	0.863264	0.514461	0.249898
C67	C	1.113264	0.764461	0.499898
C68	C	1.363264	1.014461	0.749898
C69	C	0.505128	0.253429	-0.000115
C70	C	0.755128	0.503429	0.249885
C71	C	1.005128	0.753429	0.499885
C72	C	1.255128	1.003429	0.749885
C73	C	0.772539	0.198578	-0.000088
C74	C	1.022539	0.448578	0.249912
C75	C	1.272539	0.698578	0.499912
C76	C	1.522539	0.948578	0.749912
C77	C	1.312790	0.233794	-0.000121
C78	C	1.562790	0.483794	0.249879
C79	C	1.812790	0.733794	0.499879
C80	C	2.062790	0.983794	0.749879
C81	C	1.418933	0.244638	-0.000124
C82	C	1.668933	0.494638	0.249876
C83	C	1.918933	0.744638	0.499876
C84	C	2.168933	0.994638	0.749876
C85	C	1.146620	0.399964	-0.000101
C86	C	1.396620	0.649964	0.249899
C87	C	1.646620	0.899964	0.499899
C88	C	1.896620	1.149964	0.749899
C89	C	1.157464	0.506107	-0.000098
C90	C	1.407464	0.756107	0.249902
C91	C	1.657464	1.006107	0.499902
C92	C	1.907464	1.256107	0.749902
C93	C	1.177291	0.700444	-0.000105
C94	C	1.427291	0.950444	0.249895
C95	C	1.677291	1.200444	0.499895
C96	C	1.927291	1.450444	0.749895
C97	C	1.100376	0.751574	-0.000098
C98	C	1.350376	1.001574	0.249902
C99	C	1.600376	1.251574	0.499902
C100	C	1.850376	1.501574	0.749902
C101	C	1.111408	0.859710	-0.000102
C102	C	1.361408	1.109710	0.249898
C103	C	1.611408	1.359710	0.499898
C104	C	1.861408	1.609710	0.749898
C105	C	1.166261	0.592298	-0.000101
C106	C	1.416261	0.842298	0.249899
C107	C	1.666261	1.092298	0.499899
C108	C	1.916261	1.342298	0.749899
N109	N	1.153205	0.211626	-0.254333
N110	N	1.403205	0.461626	-0.004333
N111	N	1.653205	0.711626	0.245667
N112	N	1.903205	0.961626	0.495667
C113	C	1.112105	0.252732	0.473237
C114	C	1.362105	0.502732	0.723237
C115	C	1.612105	0.752732	0.973237
C116	C	1.862105	1.002732	1.223237
C117	C	1.165562	0.199276	0.526557
C118	C	1.415562	0.449276	0.776557
C119	C	1.665562	0.699276	1.026557
C120	C	1.915562	0.949276	1.276557
C121	C	1.158685	0.206149	0.648481
C122	C	1.408685	0.456149	0.898481
C123	C	1.658685	0.706149	1.148481
C124	C	1.908685	0.956149	1.398481
C125	C	1.118982	0.245859	0.351302
C126	C	1.368982	0.495859	0.601302
C127	C	1.618982	0.745859	0.851302
C128	C	1.868982	0.995859	1.101302
H129	H	0.626957	0.113419	-0.000109
H130	H	0.876957	0.363419	0.249891
H131	H	1.126957	0.613419	0.499891
H132	H	1.376957	0.863419	0.749891
N133	N	1.229433	0.135354	0.468976
N134	N	1.479433	0.385354	0.718976
N135	N	1.729433	0.635354	0.968976
N136	N	1.979433	0.885354	1.218976
N137	N	1.219923	0.047695	0.481443
N138	N	1.469923	0.297695	0.731443
N139	N	1.719923	0.547695	0.981443
N140	N	1.969923	0.797695	1.231443
H141	H	1.265026	0.002543	0.440778
H142	H	1.515026	0.252543	0.690778
H143	H	1.765026	0.502543	0.940778
H144	H	2.015026	0.752543	1.190778
H145	H	0.650702	0.338595	-0.000095
H146	H	0.900702	0.588595	0.249905
H147	H	1.150702	0.838595	0.499905
H148	H	1.400702	1.088595	0.749905
H149	H	1.251419	0.737880	-0.000116
H150	H	1.501419	0.987880	0.249884
H151	H	1.751419	1.237880	0.499884
H152	H	2.001419	1.487880	0.749884
H153	H	1.026242	0.714135	-0.000091
H154	H	1.276242	0.964135	0.249909
H155	H	1.526242	1.214135	0.499909
H156	H	1.776242	1.464135	0.749909
H157	H	1.061177	0.303655	0.519152
H158	H	1.311177	0.553655	0.769152
H159	H	1.561177	0.803655	1.019152
H160	H	1.811177	1.053655	1.269152
