data_functionalizedCrystal
_audit_creation_method	'MofGen! by Chris Wilmer'
_symmetry_space_group_name_H-M	'P1'
_symmetry_Int_Tables_number	1
_symmetry_cell_setting	triclinic
loop_
_symmetry_equiv_pos_as_xyz
  x,y,z
_cell_length_a	25.639242
_cell_length_b	25.639239
_cell_length_c	12.645323
_cell_angle_alpha	90.031874
_cell_angle_beta	90.023436
_cell_angle_gamma	90.030990
loop_
_atom_site_label
_atom_site_type_symbol
_atom_site_fract_x
_atom_site_fract_y
_atom_site_fract_z
Zn1	Zn	0.799272	-0.208254	0.599416
Zn2	Zn	1.299272	0.291746	1.099416
Zn3	Zn	0.799182	-0.295693	0.422134
Zn4	Zn	1.299182	0.204307	0.922134
Zn5	Zn	0.711834	-0.208261	0.422158
Zn6	Zn	1.211834	0.291739	0.922158
Zn7	Zn	0.711793	-0.295649	0.599347
Zn8	Zn	1.211793	0.204351	1.099347
O9	O	0.755520	-0.251964	0.510764
O10	O	1.255520	0.248036	1.010764
O11	O	0.872425	-0.219868	0.575918
O12	O	1.372425	0.280132	1.075918
O13	O	0.787574	-0.284117	0.273790
O14	O	1.287574	0.215883	0.773790
O15	O	0.723488	-0.135095	0.445710
O16	O	1.223488	0.364905	0.945710
O17	O	0.872359	-0.284109	0.445670
O18	O	1.372359	0.215891	0.945670
O19	O	0.787728	-0.135090	0.575941
O20	O	1.287728	0.364910	1.075941
O21	O	0.723400	-0.219881	0.273808
O22	O	1.223400	0.280119	0.773808
O23	O	0.638664	-0.219838	0.445644
O24	O	1.138664	0.280162	0.945644
O25	O	0.723418	-0.284034	0.747704
O26	O	1.223418	0.215966	1.247704
O27	O	0.638634	-0.284041	0.575824
O28	O	1.138634	0.215959	1.075824
O29	O	0.787688	-0.219825	0.747754
O30	O	1.287688	0.280175	1.247754
O31	O	0.787534	-0.368852	0.445603
O32	O	1.287534	0.131148	0.945603
O33	O	0.723331	-0.368820	0.575801
O34	O	1.223331	0.131180	1.075801
C35	C	0.619678	-0.251936	0.510730
C36	C	1.119678	0.248064	1.010730
C37	C	0.561564	-0.251936	0.510740
C38	C	1.061564	0.248064	1.010740
C39	C	0.310413	-0.218573	0.578708
C40	C	0.810413	0.281427	1.078708
C41	C	0.365017	-0.218568	0.578702
C42	C	0.865017	0.281432	1.078702
O43	O	0.393290	-0.190179	0.636483
O44	O	0.893290	0.309821	1.136483
N45	N	0.392290	-0.251958	0.510776
N46	N	0.892290	0.248042	1.010776
C47	C	0.364955	-0.285359	0.442860
C48	C	0.864955	0.214641	0.942860
O49	O	0.393167	-0.313760	0.385084
O50	O	0.893167	0.186240	0.885084
C51	C	0.310352	-0.285367	0.442872
C52	C	0.810352	0.214633	0.942872
C53	C	0.283082	-0.251971	0.510794
C54	C	0.783082	0.248029	1.010794
C55	C	0.283143	-0.185181	0.646626
C56	C	0.783143	0.314819	1.146626
C57	C	0.228542	-0.185185	0.646630
C58	C	0.728542	0.314815	1.146630
C59	C	0.201212	-0.218583	0.578717
C60	C	0.701212	0.281417	1.078717
C61	C	0.228482	-0.251975	0.510799
C62	C	0.728482	0.248025	1.010799
C63	C	0.283018	-0.318770	0.374961
C64	C	0.783018	0.181230	0.874961
C65	C	0.228411	-0.318775	0.374980
C66	C	0.728411	0.181225	0.874980
C67	C	0.201142	-0.285379	0.442903
C68	C	0.701142	0.214621	0.942903
C69	C	0.146550	-0.285377	0.442890
C70	C	0.646550	0.214623	0.942890
N71	N	0.119278	-0.251987	0.510815
N72	N	0.619278	0.248013	1.010815
C73	C	0.146608	-0.218590	0.578729
C74	C	0.646608	0.281410	1.078729
C75	C	0.479626	-0.285342	0.442841
C76	C	0.979626	0.214658	0.942841
C77	C	0.534228	-0.285332	0.442822
C78	C	1.034228	0.214668	0.942822
C79	C	0.534286	-0.218542	0.578666
C80	C	1.034286	0.281458	1.078666
C81	C	0.479683	-0.218549	0.578678
C82	C	0.979683	0.281451	1.078678
C83	C	0.452353	-0.251952	0.510766
C84	C	0.952353	0.248048	1.010766
C85	C	0.031943	-0.218602	0.578732
C86	C	0.531943	0.281398	1.078732
C87	C	-0.022662	-0.218608	0.578727
C88	C	0.477338	0.281392	1.078727
C89	C	-0.022715	-0.285400	0.442888
C90	C	0.477285	0.214600	0.942888
C91	C	0.031885	-0.285392	0.442888
C92	C	0.531885	0.214608	0.942888
C93	C	0.059213	-0.251991	0.510819
C94	C	0.559213	0.248009	1.010819
O95	O	0.118243	-0.313754	0.385141
O96	O	0.618243	0.186246	0.885141
O97	O	0.118390	-0.190199	0.636505
O98	O	0.618390	0.309801	1.136505
C99	C	0.755432	-0.387807	0.510715
C100	C	1.255432	0.112193	1.010715
C101	C	0.755443	-0.445921	0.510730
C102	C	1.255443	0.054079	1.010730
C103	C	0.789038	-0.806288	0.443086
C104	C	1.289038	-0.306288	0.943086
C105	C	0.789059	-0.860893	0.443100
C106	C	1.289059	-0.360893	0.943100
O107	O	0.817532	-0.889133	0.385533
O108	O	1.317532	-0.389133	0.885533
N109	N	0.755612	-0.888203	0.510834
N110	N	1.255612	-0.388203	1.010834
C111	C	0.722147	-0.860907	0.578567
C112	C	1.222147	-0.360907	1.078567
O113	O	0.693700	-0.889151	0.636182
O114	O	1.193700	-0.389151	1.136182
C115	C	0.722130	-0.806304	0.578557
C116	C	1.222130	-0.306304	1.078557
C117	C	0.755575	-0.778996	0.510810
C118	C	1.255575	-0.278996	1.010810
C119	C	0.822481	-0.778980	0.375345
C120	C	1.322481	-0.278980	0.875345
C121	C	0.822460	-0.724380	0.375330
C122	C	1.322460	-0.224380	0.875330
C123	C	0.788996	-0.697087	0.443055
C124	C	1.288996	-0.197087	0.943055
C125	C	0.755554	-0.724395	0.510795
C126	C	1.255554	-0.224395	1.010795
C127	C	0.688668	-0.779008	0.646294
C128	C	1.188668	-0.279008	1.146294
C129	C	0.688654	-0.724401	0.646279
C130	C	1.188654	-0.224401	1.146279
C131	C	0.722098	-0.697093	0.578532
C132	C	1.222098	-0.197093	1.078532
C133	C	0.722069	-0.642502	0.578505
C134	C	1.222069	-0.142502	1.078505
N135	N	0.755515	-0.615191	0.510770
N136	N	1.255515	-0.115191	1.010770
C137	C	0.788979	-0.642484	0.443045
C138	C	1.288979	-0.142484	0.943045
C139	C	0.722186	-0.975577	0.578583
C140	C	1.222186	-0.475577	1.078583
C141	C	0.722201	-1.030180	0.578588
C142	C	1.222201	-0.530180	1.078588
C143	C	0.789113	-1.030162	0.443122
C144	C	1.289113	-0.530162	0.943122
C145	C	0.789096	-0.975558	0.443113
C146	C	1.289096	-0.475558	0.943113
C147	C	0.755633	-0.948267	0.510848
C148	C	1.255633	-0.448267	1.010848
C149	C	0.788932	-0.527819	0.443018
C150	C	1.288932	-0.027819	0.943018
C151	C	0.788906	-0.473213	0.443005
C152	C	1.288906	0.026787	0.943005
C153	C	0.721996	-0.473236	0.578474
C154	C	1.221996	0.026764	1.078474
C155	C	0.722019	-0.527837	0.578483
C156	C	1.222019	-0.027837	1.078483
C157	C	0.755492	-0.555127	0.510751
C158	C	1.255492	-0.055127	1.010751
O159	O	0.693612	-0.614227	0.636045
O160	O	1.193612	-0.114227	1.136045
O161	O	0.817426	-0.614233	0.385449
O162	O	1.317426	-0.114233	0.885449
C163	C	0.891893	-0.251993	0.510799
C164	C	1.391893	0.248007	1.010799
C165	C	0.950007	-0.252005	0.510814
C166	C	1.450007	0.247995	1.010814
C167	C	0.755559	-0.251924	0.787269
C168	C	1.255559	0.248076	1.287269
C169	C	0.755575	-0.251907	0.905100
C170	C	1.255575	0.248093	1.405100
C171	C	0.755623	-0.115591	0.510836
C172	C	1.255623	0.384409	1.010836
C173	C	0.755666	-0.057477	0.510867
C174	C	1.255666	0.442523	1.010867
C175	C	0.755512	-0.251967	0.235334
C176	C	1.255512	0.248033	0.735334
C177	C	0.755597	-0.251837	0.117505
C178	C	1.255597	0.248163	0.617505
C179	C	0.715018	-0.292110	1.072632
C180	C	1.215018	0.207890	1.572632
C181	C	0.715124	-0.292309	0.950072
C182	C	1.215124	0.207691	1.450072
C183	C	0.810660	-0.266867	0.949617
C184	C	1.310660	0.233133	1.449617
C185	C	0.810438	-0.267119	1.072215
C186	C	1.310438	0.232881	1.572215
C187	C	0.741568	-0.196518	1.072311
C188	C	1.241568	0.303482	1.572311
C189	C	0.740339	-0.196850	0.949704
C190	C	1.240339	0.303150	1.449704
H191	H	0.556427	-0.312521	0.387501
H192	H	1.056427	0.187479	0.887501
O193	O	0.780714	-0.156768	1.110747
O194	O	1.280714	0.343232	1.610747
H195	H	0.780013	-0.155340	1.198464
H196	H	1.280013	0.344660	1.698464
O197	O	0.685902	-0.443794	0.651514
O198	O	1.185902	0.056206	1.151514
H199	H	0.694849	-0.454239	0.734735
H200	H	1.194849	0.045761	1.234735
H201	H	0.849734	-0.801196	0.320195
H202	H	1.349734	-0.301196	0.820195
O203	O	0.661022	-0.279891	0.910186
O204	O	1.161022	0.220109	1.410186
H205	H	0.634546	-0.273693	0.978464
H206	H	1.134546	0.226307	1.478464
H207	H	0.849695	-0.702149	0.320168
H208	H	1.349695	-0.202149	0.820168
H209	H	0.699801	-0.185568	0.920607
H210	H	1.199801	0.314432	1.420607
O211	O	0.450152	-0.321362	0.369565
O212	O	0.950152	0.178638	0.869565
H213	H	0.460624	-0.362407	0.387579
H214	H	0.960624	0.137593	0.887579
O215	O	0.198937	-0.354802	0.301722
O216	O	0.698937	0.145198	0.801722
H217	H	0.156386	-0.349201	0.313135
H218	H	0.656386	0.150799	0.813135
H219	H	0.841696	-0.239060	1.101902
H220	H	1.341696	0.260940	1.601902
H221	H	0.816330	-0.953327	0.387948
H222	H	1.316330	-0.453327	0.887948
O223	O	-0.052071	-0.182584	0.651990
O224	O	0.447929	0.317416	1.151990
H225	H	-0.094633	-0.188191	0.640581
H226	H	0.405367	0.311809	1.140581
O227	O	0.652554	-0.694964	0.719325
O228	O	1.152554	-0.194964	1.219325
H229	H	0.629299	-0.723130	0.766420
H230	H	1.129299	-0.223130	1.266420
H231	H	0.694787	-0.550072	0.633651
H232	H	1.194787	-0.050072	1.133651
O233	O	0.061415	-0.182572	0.651986
O234	O	0.561415	0.317428	1.151986
H235	H	0.033272	-0.159351	0.699199
H236	H	0.533272	0.340649	1.199199
O237	O	0.652596	-0.808450	0.719374
O238	O	1.152596	-0.308450	1.219374
H239	H	0.626007	-0.833364	0.671898
H240	H	1.126007	-0.333364	1.171898
O241	O	0.776631	-0.154997	0.909172
O242	O	1.276631	0.345003	1.409172
H243	H	0.806230	-0.172865	0.856373
H244	H	1.306230	0.327135	1.356373
H245	H	0.694961	-1.052409	0.633744
H246	H	1.194961	-0.552409	1.133744
O247	O	0.826684	-0.319873	0.908957
O248	O	1.326684	0.180127	1.408957
H249	H	0.863443	-0.316208	0.863222
H250	H	1.363443	0.183792	1.363222
O251	O	0.686079	-0.946142	0.651618
O252	O	1.186079	-0.446142	1.151618
H253	H	0.662822	-0.974310	0.698703
H254	H	1.162822	-0.474310	1.198703
O255	O	0.689283	-0.178461	1.113228
O256	O	1.189283	0.321539	1.613228
H257	H	0.690545	-0.176174	1.200847
H258	H	1.190545	0.323826	1.700847
H259	H	0.206344	-0.157993	0.701944
H260	H	0.706344	0.342007	1.201944
H261	H	0.841704	-0.238462	0.920490
H262	H	1.341704	0.261538	1.420490
H263	H	0.816363	-1.052393	0.387981
H264	H	1.316363	-0.552393	0.887981
O265	O	0.312617	-0.149150	0.719869
O266	O	0.812617	0.350850	1.219869
H267	H	0.284473	-0.125931	0.767082
H268	H	0.784473	0.374069	1.267082
H269	H	0.674049	-0.282837	1.102107
H270	H	1.174049	0.217163	1.602107
O271	O	0.727140	-0.346091	1.113481
O272	O	1.227140	0.153909	1.613481
H273	H	0.761944	-0.344362	1.165596
H274	H	1.261944	0.155638	1.665596
H275	H	0.816141	-0.450981	0.387834
H276	H	1.316141	0.049019	0.887834
H277	H	0.724384	-0.333319	0.920748
H278	H	1.224384	0.166681	1.420748
H279	H	0.457484	-0.191355	0.633986
H280	H	0.957484	0.308645	1.133986
H281	H	0.556549	-0.191348	0.633965
H282	H	1.056549	0.308652	1.133965
H283	H	0.305212	-0.345964	0.319651
H284	H	0.805212	0.154036	0.819651
O285	O	0.826183	-0.320686	1.110115
O286	O	1.326183	0.179314	1.610115
H287	H	0.833882	-0.346167	1.040878
H288	H	1.333882	0.153833	1.540878
H289	H	0.054089	-0.312581	0.387571
H290	H	0.554089	0.187419	0.887571
H291	H	-0.044978	-0.312589	0.387590
H292	H	0.455022	0.187411	0.887590
O293	O	0.825028	-0.557250	0.369958
O294	O	1.325028	-0.057250	0.869958
H295	H	0.848273	-0.529080	0.322849
H296	H	1.348273	-0.029080	0.822849
