data_functionalizedCrystal
_audit_creation_method	'MofGen! by Chris Wilmer'
_symmetry_space_group_name_H-M	'P1'
_symmetry_Int_Tables_number	1
_symmetry_cell_setting	triclinic
loop_
_symmetry_equiv_pos_as_xyz
  x,y,z
_cell_length_a	9.065218
_cell_length_b	15.995292
_cell_length_c	7.540329
_cell_angle_alpha	89.999995
_cell_angle_beta	90.001688
_cell_angle_gamma	84.242251
loop_
_atom_site_label
_atom_site_type_symbol
_atom_site_fract_x
_atom_site_fract_y
_atom_site_fract_z
O1	O	1.957460	0.122773	0.147473
O2	O	1.527934	0.132843	0.147474
O3	O	1.754483	0.006007	0.147476
O4	O	1.730911	0.249610	0.147471
O5	O	1.754475	0.006006	-0.147489
O6	O	1.527926	0.132842	-0.147491
O7	O	1.957452	0.122772	-0.147492
Cu8	Cu	1.742688	0.127807	-0.174424
Cu9	Cu	1.742697	0.127808	0.174406
O10	O	1.730903	0.249609	-0.147494
C11	C	1.472967	0.131875	-0.000008
C12	C	1.309193	0.128981	-0.000007
C13	C	1.753520	-0.025197	-0.000002
C14	C	1.750643	-0.118172	0.000011
C15	C	1.740069	-0.455990	-0.000005
C16	C	1.903586	-0.431438	-0.000664
C17	C	1.906694	-0.334739	0.000007
C18	C	1.745316	-0.288395	0.000002
C19	C	1.663570	-0.318115	0.168436
C20	C	1.661602	-0.414920	0.168571
C21	C	1.658254	-0.414804	-0.166859
C22	C	1.664313	-0.318265	-0.169079
C23	C	1.748273	-0.193676	0.000012
C24	C	1.737108	-0.550708	-0.000003
C25	C	2.012419	0.123740	-0.000006
C26	C	2.176193	0.126634	0.000004
C27	C	1.731866	0.280812	-0.000012
C28	C	1.734742	0.373787	-0.000014
N29	N	1.742693	0.127806	-0.419773
N30	N	1.742705	0.127803	0.419755
H31	H	1.966610	-0.458957	-0.121456
N32	N	1.506274	-0.277089	0.176736
H33	H	1.491844	-0.243220	0.289557
H34	H	1.435239	-0.321853	0.174997
N35	N	1.736624	-0.449879	0.335334
H36	H	1.736104	-0.512987	0.337087
H37	H	1.681633	-0.424875	0.442381
H38	H	1.723837	-0.299249	-0.293685
H39	H	1.541710	-0.430380	0.176199
H40	H	1.720343	-0.297623	0.293787
H41	H	1.546523	-0.286189	-0.179255
N42	N	1.726086	-0.451717	-0.335976
H43	H	1.810548	-0.495519	-0.306136
H44	H	1.764642	-0.405670	-0.409062
N45	N	1.991474	-0.308902	-0.159949
H46	H	2.096257	-0.337036	-0.155590
H47	H	1.993554	-0.245891	-0.159753
H48	H	1.537893	-0.429707	-0.167998
H49	H	1.966266	-0.459980	0.119449
N50	N	1.992005	-0.309702	0.160214
H51	H	2.027728	-0.361511	0.230681
H52	H	1.925328	-0.270294	0.236832
