data_functionalizedCrystal
_audit_creation_method	'MofGen! by Chris Wilmer'
_symmetry_space_group_name_H-M	'P1'
_symmetry_Int_Tables_number	1
_symmetry_cell_setting	triclinic
loop_
_symmetry_equiv_pos_as_xyz
  x,y,z
_cell_length_a	14.044220
_cell_length_b	14.044220
_cell_length_c	12.503572
_cell_angle_alpha	86.156832
_cell_angle_beta	86.164750
_cell_angle_gamma	86.811122
loop_
_atom_site_label
_atom_site_type_symbol
_atom_site_fract_x
_atom_site_fract_y
_atom_site_fract_z
O1	O	1.282200	-0.225116	-0.089210
O2	O	1.005530	-0.216809	-0.089237
O3	O	1.139712	-0.082627	-0.089213
O4	O	1.148019	-0.359298	-0.089234
O5	O	1.129622	-0.092737	0.089427
O6	O	0.995440	-0.226918	0.089403
O7	O	1.272110	-0.235226	0.089430
Cu8	Cu	1.132854	-0.231995	0.105728
Cu9	Cu	1.144786	-0.220040	-0.105535
O10	O	1.137929	-0.369407	0.089406
C11	C	0.964864	-0.218228	0.000080
C12	C	0.858721	-0.207383	0.000070
C13	C	0.664382	-0.187558	0.000092
C14	C	0.613253	-0.264472	0.000091
C15	C	0.505116	-0.253441	0.000104
C16	C	0.772529	-0.198587	0.000080
C17	C	1.131031	-0.052060	0.000107
C18	C	1.120187	0.054082	0.000107
C19	C	1.312777	-0.233807	0.000111
C20	C	1.418920	-0.244651	0.000114
C21	C	1.146609	-0.399974	0.000084
C22	C	1.157454	-0.506117	0.000077
N23	N	1.124469	-0.240404	0.254319
C24	C	1.100361	0.248421	0.000090
C25	C	1.177275	0.299551	0.000094
C26	C	1.166244	0.407687	0.000084
C27	C	1.111391	0.140274	0.000099
N28	N	1.153179	-0.211624	-0.254126
C29	C	1.112134	-0.252782	0.473432
C30	C	1.165511	-0.199249	0.526768
C31	C	1.158648	-0.206136	0.648690
C32	C	1.118996	-0.245896	0.351499
H33	H	0.626945	-0.113431	0.000104
H34	H	0.650692	-0.338605	0.000081
H35	H	1.061285	-0.303783	0.519330
H36	H	1.251413	0.262115	0.000029
C37	C	1.000215	0.298988	0.000084
C38	C	0.935855	0.287311	-0.092678
C39	C	0.835709	0.337890	-0.092678
C40	C	0.799923	0.400146	0.000083
C41	C	0.864283	0.411826	0.092852
C42	C	0.964429	0.361247	0.092853
H43	H	0.962346	0.241223	-0.161351
H44	H	0.788066	0.329243	-0.161352
H45	H	0.725788	0.437587	0.000083
H46	H	0.837792	0.457914	0.161526
H47	H	1.012072	0.369894	0.161527
C48	C	1.234218	-0.130351	0.464762
C49	C	1.241026	-0.123421	0.341077
C50	C	1.309733	-0.054530	0.279065
C51	C	1.371631	0.007430	0.340738
C52	C	1.364825	0.000502	0.464431
C53	C	1.296119	-0.068389	0.526443
H54	H	1.195203	-0.169289	0.295416
H55	H	1.314771	-0.049402	0.187499
H56	H	1.422492	0.058427	0.294833
H57	H	1.410649	0.046371	0.510091
H58	H	1.291081	-0.073517	0.618008
