data_functionalizedCrystal
_audit_creation_method	'MofGen! by Chris Wilmer'
_symmetry_space_group_name_H-M	'P1'
_symmetry_Int_Tables_number	1
_symmetry_cell_setting	triclinic
loop_
_symmetry_equiv_pos_as_xyz
  x,y,z
_cell_length_a	19.121063
_cell_length_b	19.805407
_cell_length_c	19.805399
_cell_angle_alpha	90.021064
_cell_angle_beta	92.411105
_cell_angle_gamma	87.531918
loop_
_atom_site_label
_atom_site_type_symbol
_atom_site_fract_x
_atom_site_fract_y
_atom_site_fract_z
Zn1	Zn	-0.279649	-1.023233	-0.394230
Zn2	Zn	0.220351	-0.523233	0.105770
Zn3	Zn	-0.397102	-1.018317	-0.285865
Zn4	Zn	0.102898	-0.518317	0.214135
Zn5	Zn	-0.279667	-0.910047	-0.281053
Zn6	Zn	0.220333	-0.410047	0.218947
Zn7	Zn	-0.397062	-0.905182	-0.399007
Zn8	Zn	0.102938	-0.405182	0.100993
O9	O	-0.338370	-0.964195	-0.340039
O10	O	0.161630	-0.464195	0.159961
O11	O	-0.295239	-1.117297	-0.379870
O12	O	0.204761	-0.617297	0.120130
O13	O	-0.381547	-1.003933	-0.190511
O14	O	0.118453	-0.503933	0.309489
O15	O	-0.181380	-0.929155	-0.292053
O16	O	0.318620	-0.429155	0.207947
O17	O	-0.381531	-1.113685	-0.300255
O18	O	0.118469	-0.613685	0.199745
O19	O	-0.181367	-1.012312	-0.375204
O20	O	0.318633	-0.512312	0.124796
O21	O	-0.295268	-0.924388	-0.186975
O22	O	0.204732	-0.424388	0.313025
O23	O	-0.295230	-0.814685	-0.296685
O24	O	0.204770	-0.314685	0.203315
O25	O	-0.381464	-0.920863	-0.493089
O26	O	0.118536	-0.420863	0.006911
O27	O	-0.381480	-0.811111	-0.383345
O28	O	0.118520	-0.311111	0.116655
O29	O	-0.295201	-1.007595	-0.489580
O30	O	0.204799	-0.507595	0.010420
O31	O	-0.495381	-0.999215	-0.304887
O32	O	0.004619	-0.499215	0.195113
O33	O	-0.495352	-0.916096	-0.388012
O34	O	0.004648	-0.416096	0.111988
C35	C	-0.338353	-0.788339	-0.340012
C36	C	0.161647	-0.288339	0.159988
C37	C	-0.338363	-0.713107	-0.340017
C38	C	0.161637	-0.213107	0.159983
C39	C	-0.520851	-0.956612	-0.347505
C40	C	-0.020851	-0.456612	0.152495
C41	C	-0.598917	-0.953431	-0.350721
C42	C	-0.098917	-0.453431	0.149279
C43	C	-0.383341	-0.675916	-0.385073
C44	C	0.116659	-0.175916	0.114927
C45	C	-0.383340	-0.605228	-0.385081
C46	C	0.116660	-0.105228	0.114919
C47	C	-0.338366	-0.571731	-0.340028
C48	C	0.161634	-0.071731	0.159972
C49	C	-0.293384	-0.608927	-0.294970
C50	C	0.206616	-0.108927	0.205030
C51	C	-0.293381	-0.679614	-0.294966
C52	C	0.206619	-0.179614	0.205034
C53	C	-0.293394	-0.323853	-0.294986
C54	C	0.206606	0.176147	0.205014
C55	C	-0.293402	-0.253161	-0.294992
C56	C	0.206598	0.246839	0.205008
C57	C	-0.383354	-0.249467	-0.385100
C58	C	0.116646	0.250533	0.114900
C59	C	-0.383351	-0.320154	-0.385096
C60	C	0.116649	0.179846	0.114904
C61	C	-0.338366	-0.357344	-0.340041
C62	C	0.161634	0.142656	0.159959
C63	C	-0.338366	-0.433992	-0.340034
C64	C	0.161634	0.066008	0.159966
C65	C	-0.338369	-0.495084	-0.340032
C66	C	0.161631	0.004916	0.159968
C67	C	-0.635584	-0.995246	-0.308990
C68	C	-0.135584	-0.495246	0.191010
C69	C	-0.708936	-0.992257	-0.312019
C70	C	-0.208936	-0.492257	0.187981
C71	C	-0.745618	-0.947450	-0.356777
C72	C	-0.245618	-0.447450	0.143223
C73	C	-0.708946	-0.905633	-0.398513
C74	C	-0.208946	-0.405633	0.101487
C75	C	-0.635596	-0.908626	-0.395487
C76	C	-0.135596	-0.408626	0.104513
C77	C	-0.967088	-0.936252	-0.368081
C78	C	-0.467088	-0.436252	0.131919
C79	C	-1.040443	-0.933261	-0.371102
C80	C	-0.540443	-0.433261	0.128898
C81	C	-1.040428	-1.019886	-0.284609
C82	C	-0.540428	-0.519886	0.215391
C83	C	-0.967077	-1.022872	-0.281584
C84	C	-0.467077	-0.522872	0.218416
C85	C	-0.930411	-0.981058	-0.323322
C86	C	-0.430411	-0.481058	0.176678
C87	C	-0.820595	-0.944393	-0.359873
C88	C	-0.320595	-0.444393	0.140127
C89	C	-0.855435	-0.984119	-0.320229
C90	C	-0.355435	-0.484119	0.179771
C91	C	-0.155177	-0.971825	-0.332558
C92	C	0.344823	-0.471825	0.167442
C93	C	-0.077111	-0.975076	-0.329371
C94	C	0.422889	-0.475076	0.170629
C95	C	-0.338326	-0.964234	-0.516580
C96	C	0.161674	-0.464234	-0.016580
C97	C	-0.338307	-0.964251	-0.591811
C98	C	0.161693	-0.464251	-0.091811
C99	C	-0.338383	-0.140737	-0.340060
C100	C	0.161617	0.359263	0.159940
C101	C	-0.338376	-0.215969	-0.340051
C102	C	0.161624	0.284031	0.159949
C103	C	-0.293388	-1.009414	-0.625329
C104	C	0.206612	-0.509414	-0.125329
C105	C	-0.293367	-1.009421	-0.696016
C106	C	0.206633	-0.509421	-0.196016
C107	C	-0.338270	-0.964270	-0.733185
C108	C	0.161730	-0.464270	-0.233185
C109	C	-0.383192	-0.919102	-0.699663
C110	C	0.116808	-0.419102	-0.199663
C111	C	-0.383208	-0.919092	-0.628976
C112	C	0.116792	-0.419092	-0.128976
C113	C	-0.383126	-0.919143	-0.984733
C114	C	0.116874	-0.419143	-0.484733
C115	C	-0.383108	-0.919159	-1.055425
C116	C	0.116892	-0.419159	-0.555425
C117	C	-0.293286	-1.009473	-1.051774
C118	C	0.206714	-0.509473	-0.551774
C119	C	-0.293302	-1.009462	-0.981087
C120	C	0.206698	-0.509462	-0.481087
C121	C	-0.338220	-0.964293	-0.947571
C122	C	0.161780	-0.464293	-0.447571
C123	C	-0.338241	-0.964284	-0.870923
C124	C	0.161759	-0.464284	-0.370923
C125	C	-0.338254	-0.964281	-0.809832
C126	C	0.161746	-0.464281	-0.309832
C127	C	-0.338363	-0.964196	-0.164183
C128	C	0.161637	-0.464196	0.335817
C129	C	-0.338184	-0.964318	-0.088944
C130	C	0.161816	-0.464318	0.411056
H131	H	-0.419966	-0.703184	-0.421757
H132	H	0.080034	-0.203184	0.078243
H133	H	-1.070290	-1.053930	-0.250628
H134	H	-0.570290	-0.553930	0.249372
N135	N	-0.247424	-1.055583	-0.943132
N136	N	0.252576	-0.555583	-0.443132
N137	N	-0.182613	-1.053792	-0.948384
N138	N	0.317387	-0.553792	-0.448384
H139	H	-0.150208	-1.086364	-0.921580
H140	H	0.349792	-0.586364	-0.421580
N141	N	-0.429002	-0.872998	-0.950508
N142	N	0.070998	-0.372998	-0.450508
N143	N	-0.424331	-0.810739	-0.958207
N144	N	0.075669	-0.310739	-0.458207
H145	H	-0.456733	-0.778144	-0.934034
H146	H	0.043267	-0.278144	-0.434034
H147	H	-0.256791	-1.046199	-0.723303
H148	H	0.243209	-0.546199	-0.223303
H149	H	-1.070308	-0.896782	-0.407562
H150	H	-0.570308	-0.396782	0.092438
H151	H	-0.937211	-1.059357	-0.245138
H152	H	-0.437211	-0.559357	0.254862
N153	N	-0.247405	-1.055609	-1.086022
N154	N	0.252595	-0.555609	-0.586022
N155	N	-0.247393	-1.055615	-1.149134
N156	N	0.252607	-0.555615	-0.649134
H157	H	-0.214993	-1.088200	-1.173321
H158	H	0.285007	-0.588200	-0.673321
N159	N	-0.247442	-0.361833	-0.248965
N160	N	0.252558	0.138167	0.251035
N161	N	-0.182640	-0.356626	-0.250903
N162	N	0.317360	0.143374	0.249097
H163	H	-0.150185	-0.383450	-0.218397
H164	H	0.349815	0.116550	0.281603
N165	N	-0.929652	-0.893536	-0.410719
N166	N	-0.429652	-0.393536	0.089281
N167	N	-0.962415	-0.853533	-0.450676
N168	N	-0.462415	-0.353533	0.049324
H169	H	-0.935974	-0.823362	-0.480791
H170	H	-0.435974	-0.323362	0.019209
N171	N	-0.858080	-0.898621	-0.405578
N172	N	-0.358080	-0.398621	0.094422
N173	N	-0.899067	-0.853840	-0.383405
N174	N	-0.399067	-0.353840	0.116595
H175	H	-0.925545	-0.821514	-0.415684
H176	H	-0.425545	-0.321514	0.084316
N177	N	-0.429284	-0.567250	-0.431113
N178	N	0.070716	-0.067250	0.068887
N179	N	-0.469437	-0.597165	-0.471333
N180	N	0.030563	-0.097165	0.028667
H181	H	-0.501886	-0.570344	-0.503847
H182	H	-0.001886	-0.070344	-0.003847
H183	H	-0.419675	-0.882388	-1.085686
H184	H	0.080325	-0.382388	-0.585686
H185	H	-0.419750	-0.882337	-0.729931
H186	H	0.080250	-0.382337	-0.229931
N187	N	-0.429092	-0.872951	-0.594747
N188	N	0.070908	-0.372951	-0.094747
N189	N	-0.469179	-0.832638	-0.627939
N190	N	0.030821	-0.332638	-0.127939
H191	H	-0.501584	-0.800046	-0.603766
H192	H	-0.001584	-0.300046	-0.103766
H193	H	-0.605722	-1.031729	-0.272540
H194	H	-0.105722	-0.531729	0.227460
N195	N	-0.429300	-0.354359	-0.431116
N196	N	0.070700	0.145641	0.068884
N197	N	-0.469456	-0.321144	-0.471342
N198	N	0.030544	0.178856	0.028658
H199	H	-0.501908	-0.345300	-0.503846
H200	H	-0.001908	0.154700	-0.003846
H201	H	-0.256752	-0.709894	-0.258280
H202	H	0.243248	-0.209894	0.241720
N203	N	-0.247442	-0.574723	-0.248942
N204	N	0.252558	-0.074723	0.251058
N205	N	-0.207287	-0.607940	-0.208716
N206	N	0.292713	-0.107940	0.291284
H207	H	-0.174841	-0.583786	-0.176206
H208	H	0.325159	-0.083786	0.323794
H209	H	-0.738787	-1.026307	-0.278036
H210	H	-0.238787	-0.526307	0.221964
N211	N	-0.429312	-0.211478	-0.431120
N212	N	0.070688	0.288522	0.068880
N213	N	-0.474037	-0.170169	-0.409065
N214	N	0.025963	0.329831	0.090935
H215	H	-0.506497	-0.143340	-0.441563
H216	H	-0.006497	0.356660	0.058437
H217	H	-0.256774	-0.225890	-0.258304
H218	H	0.243226	0.274110	0.241696
N219	N	-0.746424	-0.859873	-0.444235
N220	N	-0.246424	-0.359873	0.055765
N221	N	-0.811915	-0.857207	-0.446932
N222	N	-0.311915	-0.357207	0.053068
H223	H	-0.838384	-0.824888	-0.479224
H224	H	-0.338384	-0.324888	0.020776
H225	H	-0.605742	-0.874577	-0.429470
H226	H	-0.105742	-0.374577	0.070530
N227	N	-0.817958	-1.029876	-0.274508
N228	N	-0.317958	-0.529876	0.225492
N229	N	-0.777076	-1.007745	-0.229675
N230	N	-0.277076	-0.507745	0.270325
H231	H	-0.750602	-1.040059	-0.197381
H232	H	-0.250602	-0.540059	0.302619
H233	H	-0.256825	-1.046184	-0.595071
H234	H	0.243175	-0.546184	-0.095071
