data_functionalizedCrystal
_audit_creation_method	'MofGen! by Chris Wilmer'
_symmetry_space_group_name_H-M	'P1'
_symmetry_Int_Tables_number	1
_symmetry_cell_setting	triclinic
loop_
_symmetry_equiv_pos_as_xyz
  x,y,z
_cell_length_a	17.077404
_cell_length_b	13.032721
_cell_length_c	17.077396
_cell_angle_alpha	97.151797
_cell_angle_beta	89.982940
_cell_angle_gamma	97.204757
loop_
_atom_site_label
_atom_site_type_symbol
_atom_site_fract_x
_atom_site_fract_y
_atom_site_fract_z
Zn1	Zn	1.160356	-0.416017	-0.483522
Zn2	Zn	1.493689	-0.082684	-0.150188
Zn3	Zn	1.827023	0.250649	0.183145
Zn4	Zn	1.143599	-0.590788	-0.368925
Zn5	Zn	1.476932	-0.257454	-0.035591
Zn6	Zn	1.810266	0.075879	0.297742
Zn7	Zn	1.029089	-0.416059	-0.352273
Zn8	Zn	1.362423	-0.082726	-0.018940
Zn9	Zn	1.695756	0.250608	0.314393
Zn10	Zn	1.012392	-0.590721	-0.500142
Zn11	Zn	1.345726	-0.257387	-0.166809
Zn12	Zn	1.679059	0.075946	0.166525
O13	O	1.086359	-0.503396	-0.426215
O14	O	1.419692	-0.170063	-0.092882
O15	O	1.753026	0.163270	0.240451
O16	O	1.267979	-0.439212	-0.468333
O17	O	1.601312	-0.105878	-0.135000
O18	O	1.934646	0.227455	0.198334
O19	O	1.128384	-0.567655	-0.256873
O20	O	1.461717	-0.234322	0.076460
O21	O	1.795051	0.099012	0.409793
O22	O	1.060503	-0.269815	-0.355759
O23	O	1.393836	0.063518	-0.022426
O24	O	1.727169	0.396852	0.310907
O25	O	1.255668	-0.567615	-0.384139
O26	O	1.589001	-0.234281	-0.050806
O27	O	1.922334	0.099052	0.282527
O28	O	1.156944	-0.269784	-0.452187
O29	O	1.490277	0.063549	-0.118854
O30	O	1.823610	0.396882	0.214480
O31	O	1.044254	-0.439282	-0.244640
O32	O	1.377587	-0.105949	0.088694
O33	O	1.710921	0.227384	0.422027
O34	O	0.917029	-0.439218	-0.371876
O35	O	1.250362	-0.105884	-0.038542
O36	O	1.583695	0.227449	0.294791
O37	O	1.032045	-0.567501	-0.607780
O38	O	1.365379	-0.234167	-0.274447
O39	O	1.698712	0.099166	0.058887
O40	O	0.904761	-0.567541	-0.480514
O41	O	1.238095	-0.234208	-0.147181
O42	O	1.571428	0.099126	0.186153
O43	O	1.140753	-0.439147	-0.595569
O44	O	1.474087	-0.105813	-0.262236
O45	O	1.807420	0.227520	0.071098
O46	O	1.112194	-0.737017	-0.400255
O47	O	1.445527	-0.403684	-0.066922
O48	O	1.778860	-0.070351	0.266411
O49	O	1.015797	-0.736968	-0.496660
O50	O	1.349130	-0.403635	-0.163327
O51	O	1.682463	-0.070302	0.170007
C52	C	0.882413	-0.503377	-0.426192
C53	C	1.215746	-0.170044	-0.092859
C54	C	1.549080	0.163289	0.240475
C55	C	0.795162	-0.503394	-0.426203
C56	C	1.128495	-0.170061	-0.092870
C57	C	1.461828	0.163272	0.240464
C58	C	1.060386	-0.774911	-0.452085
C59	C	1.393720	-0.441577	-0.118752
C60	C	1.727053	-0.108244	0.214581
C61	C	1.049347	-0.891066	-0.463179
C62	C	1.382680	-0.557733	-0.129845
C63	C	1.716013	-0.224399	0.203488
C64	C	0.747795	-0.570313	-0.482700
C65	C	1.081128	-0.236980	-0.149367
C66	C	1.414462	0.096354	0.183967
C67	C	0.665814	-0.570315	-0.482713
C68	C	0.999148	-0.236982	-0.149379
C69	C	1.332481	0.096351	0.183954
C70	C	0.631201	-0.503403	-0.426224
C71	C	0.964535	-0.170070	-0.092891
C72	C	1.297868	0.163263	0.240442
C73	C	0.678575	-0.436477	-0.369724
C74	C	1.011908	-0.103144	-0.036391
C75	C	1.345241	0.230189	0.296942
C76	C	0.760554	-0.436470	-0.369716
C77	C	1.093887	-0.103137	-0.036382
C78	C	1.427221	0.230196	0.296951
C79	C	0.507703	-0.436498	-0.369745
C80	C	0.841036	-0.103164	-0.036412
C81	C	1.174369	0.230169	0.296921
C82	C	0.425717	-0.436506	-0.369753
C83	C	0.759051	-0.103172	-0.036419
C84	C	1.092384	0.230161	0.296914
C85	C	0.412963	-0.570343	-0.482742
C86	C	0.746296	-0.237009	-0.149409
C87	C	1.079629	0.096324	0.183924
C88	C	0.494942	-0.570336	-0.482734
C89	C	0.828276	-0.237003	-0.149400
C90	C	1.161609	0.096331	0.183933
C91	C	0.542310	-0.503411	-0.426232
C92	C	0.875643	-0.170078	-0.092899
C93	C	1.208976	0.163256	0.240434
C94	C	1.092162	-0.942841	-0.420461
C95	C	1.425496	-0.609508	-0.087128
C96	C	1.758829	-0.276175	0.246206
C97	C	1.080754	-1.062894	-0.431926
C98	C	1.414087	-0.729560	-0.098592
C99	C	1.747420	-0.396227	0.234741
C100	C	1.291101	-0.503416	-0.426240
C101	C	1.624435	-0.170083	-0.092906
C102	C	1.957768	0.163251	0.240427
C103	C	1.378350	-0.503424	-0.426250
C104	C	1.711684	-0.170091	-0.092916
C105	C	2.045017	0.163242	0.240417
C106	C	1.086406	-0.503312	-0.630952
C107	C	1.419739	-0.169978	-0.297618
C108	C	1.753073	0.163355	0.035715
C109	C	1.086426	-0.503276	-0.718198
C110	C	1.419759	-0.169942	-0.384865
C111	C	1.753093	0.163391	-0.051531
C112	C	1.112455	-0.230821	-0.400262
C113	C	1.445788	0.102512	-0.066928
C114	C	1.779122	0.435845	0.266405
C115	C	1.123575	-0.114666	-0.389202
C116	C	1.456909	0.218667	-0.055869
C117	C	1.790242	0.552000	0.277465
C118	C	1.130315	-0.569997	-1.100374
C119	C	1.463649	-0.236664	-0.767040
C120	C	1.796982	0.096669	-0.433707
C121	C	1.130292	-0.570028	-1.018396
C122	C	1.463626	-0.236694	-0.685063
C123	C	1.796959	0.096639	-0.351729
C124	C	1.086484	-0.503202	-0.971040
C125	C	1.419817	-0.169868	-0.637707
C126	C	1.753150	0.163465	-0.304373
C127	C	1.042688	-0.436348	-1.005666
C128	C	1.376021	-0.103015	-0.672333
C129	C	1.709355	0.230318	-0.339000
C130	C	1.042707	-0.436324	-1.087643
C131	C	1.376040	-0.102990	-0.754310
C132	C	1.709374	0.230343	-0.420976
C133	C	1.042654	-0.436402	-0.834801
C134	C	1.375987	-0.103069	-0.501468
C135	C	1.709320	0.230264	-0.168135
C136	C	1.042636	-0.436425	-0.752819
C137	C	1.375969	-0.103092	-0.419486
C138	C	1.709302	0.230242	-0.086152
C139	C	1.130239	-0.570106	-0.765554
C140	C	1.463572	-0.236773	-0.432221
C141	C	1.796906	0.096560	-0.098888
C142	C	1.130258	-0.570082	-0.847531
C143	C	1.463591	-0.236748	-0.514198
C144	C	1.796925	0.096585	-0.180864
C145	C	1.086463	-0.503227	-0.882151
C146	C	1.419797	-0.169893	-0.548818
C147	C	1.753130	0.163440	-0.215485
C148	C	1.086365	-0.503405	-0.222268
C149	C	1.419698	-0.170072	0.111065
C150	C	1.753031	0.163262	0.444398
C151	C	1.086525	-0.503147	-0.134994
C152	C	1.419858	-0.169813	0.198339
C153	C	1.753192	0.163520	0.531672
H154	H	0.775970	-0.624804	-0.528697
H155	H	1.109303	-0.291471	-0.195364
H156	H	1.442636	0.041862	0.137969
F157	F	0.810966	-0.365244	-0.309585
F158	F	1.144299	-0.031911	0.023748
F159	F	1.477632	0.301422	0.357082
H160	H	1.165935	-0.624492	-0.886086
H161	H	1.499269	-0.291159	-0.552753
H162	H	1.832602	0.042174	-0.219419
H163	H	1.137268	-0.898292	-0.375404
H164	H	1.470602	-0.564959	-0.042070
H165	H	1.803935	-0.231626	0.291263
H166	H	0.374392	-0.624832	-0.528750
H167	H	0.707726	-0.291499	-0.195416
H168	H	1.041059	0.041834	0.137917
H169	H	1.165994	-0.624410	-1.138925
H170	H	1.499327	-0.291077	-0.805592
H171	H	1.832660	0.042257	-0.472258
F172	F	0.996008	-0.365303	-0.702421
F173	F	1.329341	-0.031970	-0.369088
F174	F	1.662674	0.301363	-0.035754
H175	H	0.397539	-0.382008	-0.323763
H176	H	0.730873	-0.048674	0.009570
H177	H	1.064206	0.284659	0.342904
F178	F	0.615406	-0.641539	-0.542845
F179	F	0.948740	-0.308206	-0.209512
F180	F	1.282073	0.025127	0.123822
F181	F	1.182536	-1.056446	-0.330304
F182	F	1.515869	-0.723113	0.003029
F183	F	1.849203	-0.389779	0.336363
H184	H	1.006991	-0.381962	-0.862986
H185	H	1.340325	-0.048628	-0.529653
H186	H	1.673658	0.284705	-0.196320
H187	H	1.035651	-1.107441	-0.476991
H188	H	1.368985	-0.774108	-0.143658
H189	H	1.702318	-0.440774	0.189675
F190	F	1.176846	-0.641262	-0.728708
F191	F	1.510179	-0.307929	-0.395375
F192	F	1.843513	0.025405	-0.062042
F193	F	1.176901	-0.641178	-0.981554
F194	F	1.510235	-0.307845	-0.648220
F195	F	1.843568	0.025489	-0.314887
H196	H	1.004248	-0.935617	-0.508241
H197	H	1.337581	-0.602284	-0.174908
H198	H	1.670914	-0.268951	0.158425
F199	F	0.996072	-0.365216	-0.955264
F200	F	1.329405	-0.031883	-0.621930
F201	F	1.662738	0.301450	-0.288597
H202	H	0.546268	-0.381991	-0.323742
H203	H	0.879601	-0.048658	0.009591
H204	H	1.212935	0.284676	0.342925
H205	H	0.523121	-0.624827	-0.528728
H206	H	0.856454	-0.291494	-0.195394
H207	H	1.189787	0.041839	0.137939
F208	F	0.641735	-0.365258	-0.309609
F209	F	0.975069	-0.031924	0.023724
F210	F	1.308402	0.301409	0.357057
F211	F	0.996103	-0.365168	-1.124488
F212	F	1.329436	-0.031835	-0.791155
F213	F	1.662770	0.301499	-0.457821
