data_functionalizedCrystal
_audit_creation_method	'MofGen! by Chris Wilmer'
_symmetry_space_group_name_H-M	'P1'
_symmetry_Int_Tables_number	1
_symmetry_cell_setting	triclinic
loop_
_symmetry_equiv_pos_as_xyz
  x,y,z
_cell_length_a	14.971482
_cell_length_b	8.597304
_cell_length_c	13.448316
_cell_angle_alpha	82.293562
_cell_angle_beta	89.993798
_cell_angle_gamma	84.477641
loop_
_atom_site_label
_atom_site_type_symbol
_atom_site_fract_x
_atom_site_fract_y
_atom_site_fract_z
O1	O	1.188614	0.204505	-0.100196
O2	O	0.928413	0.229004	-0.102299
O3	O	1.063633	-0.011704	-0.081672
O4	O	1.053394	0.445214	-0.120823
O5	O	1.063616	-0.011719	0.083713
O6	O	0.928396	0.228990	0.063086
O7	O	1.188597	0.204490	0.065189
Cu8	Cu	1.058495	0.216739	0.079239
Cu9	Cu	1.058515	0.216756	-0.116348
O10	O	1.053377	0.445199	0.044562
C11	C	0.895071	0.227903	-0.019513
C12	C	0.795747	0.224622	-0.019234
C13	C	0.749080	0.223069	0.071051
C14	C	0.655756	0.219962	0.071318
C15	C	0.609100	0.218419	-0.018701
C16	C	0.655774	0.219968	-0.108993
C17	C	0.749097	0.223064	-0.109258
C18	C	0.461259	0.213519	-0.108434
C19	C	0.367930	0.210426	-0.108169
C20	C	0.367919	0.210417	0.072142
C21	C	0.461242	0.213513	0.071877
C22	C	0.507909	0.215064	-0.018415
C23	C	1.062524	-0.070185	0.006028
C24	C	1.059235	-0.244419	0.020951
C25	C	1.221939	0.205592	-0.017599
C26	C	1.321263	0.208873	-0.017884
C27	C	1.054486	0.503680	-0.043140
C28	C	1.057775	0.677914	-0.058069
N29	N	1.058487	0.216725	0.216804
N30	N	1.058530	0.216757	-0.253913
C31	C	1.118382	0.110184	0.277974
C32	C	1.118387	0.110182	0.382078
C33	C	1.058502	0.216732	0.425008
C34	C	0.998601	0.323278	0.363830
C35	C	0.998591	0.323271	0.259730
C36	C	0.998625	0.323289	0.580809
C37	C	0.998636	0.323299	0.684917
C38	C	1.118421	0.110200	0.703157
C39	C	1.118412	0.110193	0.599057
C40	C	1.058512	0.216742	0.537886
H41	H	0.499226	0.214779	0.145178
H42	H	0.329919	0.209154	0.145661
H43	H	1.059039	-0.255285	-0.137145
C44	C	1.135965	-0.103375	0.517442
C45	C	1.184232	-0.006931	0.449309
H46	H	1.176619	-0.175686	0.558940
H47	H	1.100311	-0.039930	0.557910
H48	H	1.098242	-0.159937	0.481678
H49	H	1.221950	0.049640	0.485072
H50	H	1.219901	-0.070384	0.408836
C51	C	1.168603	-0.161364	0.758464
C52	C	1.184269	-0.006926	0.770386
H53	H	1.209261	-0.233661	0.799966
H54	H	1.108772	-0.178585	0.777024
H55	H	1.177166	-0.176586	0.690317
H56	H	1.175698	0.008300	0.838533
H57	H	1.244113	0.010302	0.751832
C58	C	0.880201	0.533887	0.656441
C59	C	0.932792	0.440389	0.732111
H60	H	0.839545	0.606160	0.685580
H61	H	0.917908	0.590478	0.610983
H62	H	0.847470	0.468429	0.621452
H63	H	0.965528	0.505846	0.767096
H64	H	0.895080	0.383794	0.777587
H65	H	1.167179	0.023440	0.564103
C66	C	0.451898	0.213256	-0.286646
C67	C	0.512556	0.215245	-0.207686
H68	H	0.483568	0.214341	-0.347918
H69	H	0.421530	0.120595	-0.274966
H70	H	0.409468	0.303501	-0.290612
H71	H	0.554983	0.124993	-0.203715
H72	H	0.542939	0.307916	-0.219369
H73	H	0.949845	0.410048	0.531007
C74	C	0.877188	0.356988	0.478050
C75	C	0.932774	0.440397	0.411022
H76	H	0.836554	0.429299	0.507187
H77	H	0.844441	0.291577	0.443057
H78	H	0.912872	0.293541	0.529374
H79	H	0.897089	0.503836	0.359694
H80	H	0.965523	0.505835	0.446016
H81	H	0.329945	0.209171	-0.181471
H82	H	1.057958	-0.311225	0.100031
H83	H	0.949818	0.410026	0.209925
C84	C	0.739688	0.222726	0.249308
C85	C	0.800361	0.224757	0.170006
H86	H	0.771347	0.223753	0.310400
H87	H	0.697268	0.312969	0.237829
H88	H	0.709310	0.130061	0.253485
H89	H	0.830733	0.317428	0.165824
H90	H	0.842796	0.134505	0.181488
C91	C	0.541899	0.351255	0.164665
C92	C	0.604451	0.218239	0.170557
H93	H	0.510222	0.350174	0.225932
H94	H	0.572276	0.443908	0.152993
H95	H	0.500769	0.349875	0.111082
H96	H	0.645586	0.219625	0.224136
H97	H	0.574073	0.125562	0.182241
C98	C	0.739737	0.222792	-0.287463
C99	C	0.800395	0.224788	-0.208504
H100	H	0.771408	0.223864	-0.348734
H101	H	0.709366	0.130135	-0.275777
H102	H	0.697310	0.313043	-0.291436
H103	H	0.842819	0.134531	-0.204526
H104	H	0.830782	0.317455	-0.220192
C105	C	1.236777	-0.100465	0.306472
C106	C	1.184209	-0.006944	0.230791
H107	H	1.277411	-0.172784	0.277344
H108	H	1.269523	-0.035038	0.341453
H109	H	1.199046	-0.157017	0.351937
H110	H	1.221940	0.049618	0.185330
H111	H	1.151460	-0.072379	0.195793
H112	H	0.617780	0.218700	-0.182287
