data_functionalizedCrystal
_audit_creation_method	'MofGen! by Chris Wilmer'
_symmetry_space_group_name_H-M	'P1'
_symmetry_Int_Tables_number	1
_symmetry_cell_setting	triclinic
loop_
_symmetry_equiv_pos_as_xyz
  x,y,z
_cell_length_a	10.654550
_cell_length_b	19.288865
_cell_length_c	17.766277
_cell_angle_alpha	90.011603
_cell_angle_beta	89.987131
_cell_angle_gamma	96.189425
loop_
_atom_site_label
_atom_site_type_symbol
_atom_site_fract_x
_atom_site_fract_y
_atom_site_fract_z
O1	O	1.665762	-0.097556	-0.062666
O2	O	1.300084	-0.106850	-0.062655
O3	O	1.493489	-0.001142	-0.062646
O4	O	1.472357	-0.203264	-0.062675
O5	O	1.493455	-0.001136	0.062543
O6	O	1.300050	-0.106844	0.062534
O7	O	1.665728	-0.097550	0.062523
Cu8	Cu	1.482886	-0.102197	0.073959
Cu9	Cu	1.482926	-0.102203	-0.074091
O10	O	1.472323	-0.203258	0.062514
C11	C	1.253284	-0.106165	-0.000059
C12	C	1.113884	-0.104123	-0.000054
N13	N	1.482867	-0.102192	0.178089
C14	C	1.492792	0.024742	-0.000049
C15	C	1.490751	0.101859	-0.000042
C16	C	1.033066	-0.166362	-0.000074
C17	C	0.902087	-0.164440	-0.000086
C18	C	0.932756	-0.038033	-0.000062
C19	C	1.063733	-0.039956	-0.000044
C20	C	1.015359	-0.239343	-0.000091
C21	C	0.884379	-0.237420	-0.000104
C22	C	1.712528	-0.098235	-0.000075
C23	C	1.851928	-0.100277	-0.000085
C24	C	1.473020	-0.229142	-0.000084
C25	C	1.475061	-0.306259	-0.000096
C26	C	1.604232	0.145812	-0.000042
C27	C	1.602315	0.218272	-0.000054
C28	C	1.486909	0.246775	-0.000051
C29	C	1.373413	0.202812	-0.000055
C30	C	1.375334	0.130354	-0.000051
C31	C	1.396175	0.355658	0.043803
C32	C	1.394259	0.428115	0.043803
C33	C	1.480980	0.470259	-0.000068
C34	C	1.569638	0.439939	-0.043929
C35	C	1.571559	0.367481	-0.043925
C36	C	1.484814	0.325343	-0.000056
C37	C	1.592390	0.592782	-0.000081
C38	C	1.590467	0.665243	-0.000098
C39	C	1.361562	0.649781	-0.000092
C40	C	1.363488	0.577322	-0.000083
C41	C	1.478905	0.548827	-0.000074
N42	N	1.482955	-0.102203	-0.178221
C43	C	1.568534	-0.055407	0.217480
C44	C	1.568542	-0.055404	0.296282
C45	C	1.482893	-0.102197	0.335690
C46	C	1.397210	-0.148985	0.296290
C47	C	1.397197	-0.148982	0.217489
C48	C	1.466082	-0.165375	0.460519
C49	C	1.466104	-0.165379	0.539318
C50	C	1.482927	-0.102206	0.578736
C51	C	1.499755	-0.039027	0.539346
C52	C	1.499742	-0.039024	0.460546
C53	C	1.482898	-0.102205	0.421136
C54	C	1.568607	-0.055414	0.703573
C55	C	1.568605	-0.055410	0.782376
C56	C	1.397280	-0.148997	0.782382
C57	C	1.397275	-0.148995	0.703581
C58	C	1.482946	-0.102205	0.664181
H59	H	1.129532	0.010725	-0.000017
O60	O	1.304782	-0.199442	0.175002
H61	H	1.319156	-0.191574	0.113587
H62	H	0.891906	0.014210	-0.000066
H63	H	1.327472	-0.187084	0.328379
H64	H	1.279449	0.226024	-0.000055
H65	H	1.322063	0.452796	0.079513
O66	O	1.667158	0.334777	-0.091242
H67	H	1.763836	0.355242	-0.073203
H68	H	1.044065	-0.267883	0.052299
H69	H	0.838221	-0.259473	0.053940
H70	H	1.050531	-0.262583	-0.054143
O71	O	1.447904	-0.233518	0.418011
H72	H	1.450698	-0.222903	0.356599
O73	O	0.828327	-0.273850	-0.069506
H74	H	0.869622	-0.247056	-0.120485
O75	O	1.728712	0.115076	-0.000054
H76	H	1.807301	0.157818	-0.000067
O77	O	1.241085	0.529913	-0.000064
H78	H	1.185838	0.540104	-0.051082
O79	O	1.252932	0.082940	-0.000038
H80	H	1.172357	0.114930	-0.000033
H81	H	1.640254	0.474251	-0.079653
H82	H	1.694728	0.254065	-0.000057
O83	O	1.517616	0.029082	0.417990
H84	H	1.602997	0.030302	0.382004
O85	O	1.716866	0.562039	-0.000087
H86	H	1.795458	0.604780	-0.000103
O87	O	1.712870	0.712656	-0.000091
H88	H	1.793443	0.680665	-0.000075
O89	O	1.237083	0.680512	-0.000085
H90	H	1.254810	0.738281	-0.000083
H91	H	1.638289	-0.017306	0.185403
H92	H	1.325554	0.321350	0.079531
O93	O	1.660955	-0.004950	0.338783
H94	H	1.720531	0.027582	0.298147
H95	H	1.513454	0.012415	0.571439
O96	O	1.660986	-0.004942	0.661068
H97	H	1.720544	0.027601	0.701702
O98	O	1.661021	-0.004955	0.824869
H99	H	1.720598	0.027572	0.784229
O100	O	1.304900	-0.199471	0.824873
H101	H	1.319305	-0.191617	0.886287
H102	H	1.327522	-0.187094	0.671506
O103	O	1.447980	-0.233518	0.581802
H104	H	1.436262	-0.277445	0.541156
