data_functionalizedCrystal
_audit_creation_method	'MofGen! by Chris Wilmer'
_symmetry_space_group_name_H-M	'P1'
_symmetry_Int_Tables_number	1
_symmetry_cell_setting	triclinic
loop_
_symmetry_equiv_pos_as_xyz
  x,y,z
_cell_length_a	16.120530
_cell_length_b	17.077402
_cell_length_c	17.077396
_cell_angle_alpha	89.970216
_cell_angle_beta	92.916610
_cell_angle_gamma	92.881663
loop_
_atom_site_label
_atom_site_type_symbol
_atom_site_fract_x
_atom_site_fract_y
_atom_site_fract_z
Zn1	Zn	1.274550	0.373441	0.504614
Zn2	Zn	1.774550	0.873441	1.004614
Zn3	Zn	1.274451	0.504712	0.373340
Zn4	Zn	1.774451	1.004712	0.873340
Zn5	Zn	1.135133	0.366803	0.366714
Zn6	Zn	1.635133	0.866803	0.866714
Zn7	Zn	1.135099	0.498002	0.497919
Zn8	Zn	1.635099	0.998002	0.997919
O9	O	1.204808	0.435740	0.435647
O10	O	1.704808	0.935740	0.935647
O11	O	1.391202	0.396441	0.492775
O12	O	1.891202	0.896441	0.992775
O13	O	1.255943	0.486447	0.262613
O14	O	1.755943	0.986447	0.762613
O15	O	1.153682	0.257840	0.385035
O16	O	1.653682	0.757840	0.885035
O17	O	1.391130	0.492884	0.396329
O18	O	1.891130	0.992884	0.896329
O19	O	1.256111	0.262717	0.486350
O20	O	1.756111	0.762717	0.986350
O21	O	1.153587	0.385127	0.257744
O22	O	1.653587	0.885127	0.757744
O23	O	1.018463	0.378621	0.378543
O24	O	1.518463	0.878621	0.878543
O25	O	1.153624	0.481449	0.608655
O26	O	1.653624	0.981449	1.108655
O27	O	1.018438	0.475013	0.474939
O28	O	1.518438	0.975013	0.974939
O29	O	1.256078	0.389935	0.613574
O30	O	1.756078	0.889935	1.113574
O31	O	1.255910	0.613666	0.389837
O32	O	1.755910	1.113666	0.889837
O33	O	1.153529	0.608737	0.481364
O34	O	1.653529	1.108737	0.981364
C35	C	0.988200	0.425369	0.425296
C36	C	1.488200	0.925369	0.925296
C37	C	0.895534	0.420951	0.420886
C38	C	1.395534	0.920951	0.920886
C39	C	1.204859	0.435684	0.640393
C40	C	1.704859	0.935684	1.140393
C41	C	1.204880	0.435661	0.727644
C42	C	1.704880	0.935661	1.227644
C43	C	1.204728	0.639684	0.435611
C44	C	1.704728	1.139684	0.935611
C45	C	1.204769	0.726935	0.435626
C46	C	1.704769	1.226935	0.935626
C47	C	0.725872	0.412868	0.412842
C48	C	1.225872	0.912868	0.912842
C49	C	0.684584	0.458669	0.458508
C50	C	1.184584	0.958669	0.958508
C51	C	0.590179	0.454172	0.454033
C52	C	1.090179	0.954172	0.954033
C53	C	0.820286	0.417364	0.417317
C54	C	1.320286	0.917364	0.917317
C55	C	1.422262	0.446151	0.446038
C56	C	1.922262	0.946151	0.946038
C57	C	1.514928	0.450588	0.450467
C58	C	2.014928	0.950588	0.950467
C59	C	1.204912	0.231000	0.435700
C60	C	1.704912	0.731000	0.935700
C61	C	1.204956	0.143753	0.435723
C62	C	1.704956	0.643753	0.935723
C63	C	1.258134	0.770469	0.388025
C64	C	1.758134	1.270469	0.888025
C65	C	1.258175	0.852451	0.388047
C66	C	1.758175	1.352451	0.888047
C67	C	1.204846	0.890898	0.435667
C68	C	1.704846	1.390898	0.935667
C69	C	1.151479	0.847359	0.483274
C70	C	1.651479	1.347359	0.983274
C71	C	1.151443	0.765379	0.483255
C72	C	1.651443	1.265379	0.983255
C73	C	1.151557	1.018233	0.483307
C74	C	1.651557	1.518233	0.983307
C75	C	1.151591	1.100219	0.483325
C76	C	1.651591	1.600219	0.983325
C77	C	1.258288	1.105305	0.388098
C78	C	1.758288	1.605305	0.888098
C79	C	1.258252	1.023325	0.388080
C80	C	1.758252	1.523325	0.888080
C81	C	1.204884	0.979791	0.435686
C82	C	1.704884	1.479791	0.935686
C83	C	1.204806	0.435740	0.231699
C84	C	1.704806	0.935740	0.731699
C85	C	1.204946	0.435551	0.144456
C86	C	1.704946	0.935551	0.644456
C87	C	1.258230	0.388005	0.771197
C88	C	1.758230	0.888005	1.271197
C89	C	1.258240	0.387979	0.853178
C90	C	1.758240	0.887979	1.353178
C91	C	1.204904	0.435614	0.891605
C92	C	1.704904	0.935614	1.391605
C93	C	1.151548	0.483272	0.848046
C94	C	1.651548	0.983272	1.348046
C95	C	1.151534	0.483292	0.766066
C96	C	1.651534	0.983292	1.266066
C97	C	1.151582	0.483226	1.018918
C98	C	1.651582	0.983226	1.518918
C99	C	1.151596	0.483206	1.100903
C100	C	1.651596	0.983206	1.600903
C101	C	1.258287	0.387913	1.106030
C102	C	1.758287	0.887913	1.606030
C103	C	1.258273	0.387934	1.024050
C104	C	1.758273	0.887934	1.524050
C105	C	1.204919	0.435593	0.980497
C106	C	1.704919	0.935593	1.480497
H107	H	0.720138	0.501259	0.500966
H108	H	1.220138	1.001259	1.000966
O109	O	1.310015	0.733250	0.341742
O110	O	1.810015	1.233250	0.841742
C111	C	1.415811	0.746955	0.247258
C112	C	1.915811	1.246955	0.747258
C113	C	1.357110	0.789202	0.299649
C114	C	1.857110	1.289202	0.799649
H115	H	1.453891	0.792173	0.213199
H116	H	1.953891	1.292173	0.713199
H117	H	1.459422	0.710620	0.285366
H118	H	1.959422	1.210620	0.785366
H119	H	1.377529	0.706784	0.204380
H120	H	1.877529	1.206784	0.704380
H121	H	1.395326	0.829413	0.342535
H122	H	1.895326	1.329413	0.842535
H123	H	1.313497	0.825488	0.261491
H124	H	1.813497	1.325488	0.761491
H125	H	1.108122	0.522022	0.983458
H126	H	1.608122	1.022022	1.483458
O127	O	1.099739	0.529515	0.723637
O128	O	1.599739	1.029515	1.223637
C129	C	1.052468	0.571813	0.595070
C130	C	1.552468	1.071813	1.095070
C131	C	1.111159	0.519417	0.643023
C132	C	1.611159	1.019417	1.143023
H133	H	1.061693	0.563680	0.529886
H134	H	1.561693	1.063680	1.029886
H135	H	0.985235	0.554803	0.607916
H136	H	1.485235	1.054803	1.107916
H137	H	1.067068	0.635796	0.611916
H138	H	1.567068	1.135796	1.111916
H139	H	1.096634	0.455420	0.626205
H140	H	1.596634	0.955420	1.126205
H141	H	1.178375	0.536494	0.630172
H142	H	1.678375	1.036494	1.130172
H143	H	1.301672	0.992021	0.349300
H144	H	1.801672	1.492021	0.849300
H145	H	1.301629	0.887893	0.349284
H146	H	1.801629	1.387893	0.849284
O147	O	1.099704	0.529495	1.138107
O148	O	1.599704	1.029495	1.638107
C149	C	0.993906	0.624042	1.124378
C150	C	1.493906	1.124042	1.624378
C151	C	1.052617	0.571644	1.082144
C152	C	1.552617	1.071644	1.582144
H153	H	0.955834	0.658145	1.079151
H154	H	1.455834	1.158145	1.579151
H155	H	0.950290	0.585937	1.160661
H156	H	1.450290	1.085937	1.660661
H157	H	1.032181	0.666878	1.164599
H158	H	1.532181	1.166878	1.664599
H159	H	1.014410	0.528800	1.041883
H160	H	1.514410	1.028800	1.541883
H161	H	1.096236	0.609799	1.045911
H162	H	1.596236	1.109799	1.545911
H163	H	1.107990	0.729934	0.522019
H164	H	1.607990	1.229934	1.022019
H165	H	0.690321	0.370281	0.370388
H166	H	1.190321	0.870281	0.870388
H167	H	1.301665	0.349218	0.739916
H168	H	1.801665	0.849218	1.239916
O169	O	1.310194	1.147714	0.342015
O170	O	1.810194	1.647714	0.842015
C171	C	1.357709	1.276272	0.300005
C172	C	1.857709	1.776272	0.800005
C173	C	1.298847	1.228335	0.352190
C174	C	1.798847	1.728335	0.852190
H175	H	1.348543	1.341462	0.308202
H176	H	1.848543	1.841462	0.808202
H177	H	1.424893	1.263296	0.317158
H178	H	1.924893	1.763296	0.817158
H179	H	1.343224	1.259535	0.235972
H180	H	1.843224	1.759535	0.735972
H181	H	1.313256	1.245045	0.416239
H182	H	1.813256	1.745045	0.916239
H183	H	1.231680	1.241315	0.334971
H184	H	1.731680	1.741315	0.834971
O185	O	1.310026	0.341574	0.895391
O186	O	1.810026	0.841574	1.395391
C187	C	1.350542	0.209978	0.922461
C188	C	1.850542	0.709978	1.422461
C189	C	1.291853	0.262447	0.874595
C190	C	1.791853	0.762447	1.374595
H191	H	1.335858	0.145992	0.905676
H192	H	1.835858	0.645992	1.405676
H193	H	1.417769	0.226926	0.909539
H194	H	1.917769	0.726926	1.409539
H195	H	1.341409	0.218175	0.987653
H196	H	1.841409	0.718175	1.487653
H197	H	1.300911	0.254277	0.809389
H198	H	1.800911	0.754277	1.309389
H199	H	1.224647	0.245486	0.887583
H200	H	1.724647	0.745486	1.387583
H201	H	1.108062	0.878670	0.522050
H202	H	1.608062	1.378670	1.022050
H203	H	1.108182	1.131521	0.522117
H204	H	1.608182	1.631521	1.022117
H205	H	1.108118	0.522054	0.879340
H206	H	1.608118	1.022054	1.379340
O207	O	1.099760	0.976029	0.529665
O208	O	1.599760	1.476029	1.029665
C209	C	1.059239	0.948900	0.661220
C210	C	1.559239	1.448900	1.161220
C211	C	1.117934	0.996762	0.608816
C212	C	1.617934	1.496762	1.108816
H213	H	1.073923	0.965634	0.725226
H214	H	1.573923	1.465634	1.225226
H215	H	0.992014	0.961877	0.644243
H216	H	1.492014	1.461877	1.144243
H217	H	1.068364	0.883707	0.652986
H218	H	1.568364	1.383707	1.152986
H219	H	1.108883	1.061969	0.617023
H220	H	1.608883	1.561969	1.117023
H221	H	1.185138	0.983719	0.625806
H222	H	1.685138	1.483719	1.125806
O223	O	1.310157	0.341771	0.986681
O224	O	1.810157	0.841771	1.486681
C225	C	1.422639	0.336597	0.899441
C226	C	1.922639	0.836597	1.399441
C227	C	1.363959	0.388976	0.941735
C228	C	1.863959	0.888976	1.441735
H229	H	1.466141	0.374739	0.863079
H230	H	1.966141	0.874739	1.363079
H231	H	1.460836	0.302534	0.944608
H232	H	1.960836	0.802534	1.444608
H233	H	1.384335	0.293725	0.859281
H234	H	1.884335	0.793725	1.359281
H235	H	1.402198	0.431892	0.981893
H236	H	1.902198	0.931892	1.481893
H237	H	1.325759	0.422983	0.896526
H238	H	1.825759	0.922983	1.396526
H239	H	1.301729	0.349106	1.141494
H240	H	1.801729	0.849106	1.641494
