data_functionalizedCrystal
_audit_creation_method	'MofGen! by Chris Wilmer'
_symmetry_space_group_name_H-M	'P1'
_symmetry_Int_Tables_number	1
_symmetry_cell_setting	triclinic
loop_
_symmetry_equiv_pos_as_xyz
  x,y,z
_cell_length_a	14.908571
_cell_length_b	16.120297
_cell_length_c	14.908520
_cell_angle_alpha	84.007770
_cell_angle_beta	89.794039
_cell_angle_gamma	89.752096
loop_
_atom_site_label
_atom_site_type_symbol
_atom_site_fract_x
_atom_site_fract_y
_atom_site_fract_z
Zn1	Zn	1.321189	-0.566579	0.466632
Zn2	Zn	1.320031	-0.434759	0.610197
Zn3	Zn	1.179374	-0.418767	0.450349
Zn4	Zn	1.162172	-0.565616	0.608206
O5	O	1.245691	-0.496430	0.533846
O6	O	1.446449	-0.556189	0.493323
O7	O	1.308087	-0.316013	0.583011
O8	O	1.205870	-0.432085	0.326363
O9	O	1.445599	-0.459341	0.598800
O10	O	1.310060	-0.540682	0.338325
O11	O	1.204747	-0.304264	0.465572
O12	O	1.051678	-0.431151	0.463641
O13	O	1.176551	-0.682368	0.595407
O14	O	1.039040	-0.539040	0.579618
O15	O	1.293380	-0.683076	0.491393
O16	O	1.291407	-0.458407	0.736079
O17	O	1.175429	-0.554547	0.734616
C18	C	1.012840	-0.483256	0.519648
C19	C	0.913223	-0.477641	0.513596
C20	C	0.712917	-0.579301	0.623164
C21	C	0.619318	-0.574028	0.617481
C22	C	0.632422	-0.461827	0.496544
C23	C	0.726022	-0.467100	0.502227
C24	C	0.766266	-0.525838	0.565540
C25	C	0.859867	-0.531106	0.571226
C26	C	0.872970	-0.418910	0.450286
C27	C	0.779371	-0.413637	0.444603
C28	C	1.233176	-0.713807	0.544994
C29	C	1.227842	-0.806440	0.549745
C30	C	1.218073	-0.976038	0.558396
C31	C	1.273503	-1.017670	0.509036
C32	C	1.268067	-1.112041	0.513850
C33	C	1.223508	-0.881659	0.553584
C34	C	1.479452	-0.509656	0.548100
C35	C	1.579067	-0.515292	0.554174
C36	C	1.231449	-0.508127	0.768058
C37	C	1.225436	-0.513164	0.868262
C38	C	1.258214	-0.279899	0.522679
C39	C	1.263736	-0.187264	0.517685
C40	C	1.260013	-0.484707	0.298721
C41	C	1.266116	-0.479711	0.198525
C42	C	1.335019	-0.422610	1.058029
C43	C	1.329373	-0.427340	1.152179
C44	C	1.208503	-0.527358	1.150715
C45	C	1.214149	-0.522628	1.056564
C46	C	1.277408	-0.470251	1.010225
C47	C	1.283050	-0.465518	0.916072
C48	C	1.162184	-0.565539	0.914610
C49	C	1.156538	-0.570269	1.008761
H50	H	0.892632	-0.578932	0.622780
C51	C	1.343130	-0.970081	0.447070
H52	H	1.337703	-0.911978	0.451930
H53	H	1.332910	-0.980523	0.386411
H54	H	1.401740	-0.988374	0.464660
H55	H	1.166542	-1.011268	0.604268
H56	H	0.746591	-0.365816	0.393054
C57	C	1.352634	-0.407910	0.865100
H58	H	1.386142	-0.380222	0.907059
H59	H	1.322683	-0.367787	0.824465
H60	H	1.392023	-0.440191	0.832341
C61	C	1.404596	-0.364998	1.007052
H62	H	1.438101	-0.337303	1.049008
H63	H	1.374637	-0.324880	0.966417
H64	H	1.443989	-0.397274	0.974293
H65	H	1.376287	-0.388547	1.191097
H66	H	1.105036	-0.612914	1.046504
C67	C	1.138924	-0.584963	1.201699
H68	H	1.143812	-0.580950	1.264617
H69	H	1.149683	-0.640933	1.189905
H70	H	1.080342	-0.568529	1.182036
C71	C	1.098804	-0.617944	0.862028
H72	H	1.060317	-0.649807	0.903113
H73	H	1.133158	-0.654375	0.829198
H74	H	1.063819	-0.581970	0.821341
C75	C	0.757189	-0.643905	0.692805
H76	H	0.712009	-0.674993	0.726309
H77	H	0.793154	-0.615981	0.732606
H78	H	0.793704	-0.680610	0.662458
H79	H	0.575884	-0.617565	0.664402
H80	H	0.599639	-0.414011	0.444993
H81	H	0.916417	-0.375375	0.403366
