data_functionalizedCrystal
_audit_creation_method	'MofGen! by Chris Wilmer'
_symmetry_space_group_name_H-M	'P1'
_symmetry_Int_Tables_number	1
_symmetry_cell_setting	triclinic
loop_
_symmetry_equiv_pos_as_xyz
  x,y,z
_cell_length_a	15.995343
_cell_length_b	15.995350
_cell_length_c	15.072220
_cell_angle_alpha	90.008851
_cell_angle_beta	89.994148
_cell_angle_gamma	96.509220
loop_
_atom_site_label
_atom_site_type_symbol
_atom_site_fract_x
_atom_site_fract_y
_atom_site_fract_z
O1	O	0.107921	-1.110993	-0.073717
O2	O	0.121249	-0.867217	-0.073736
O3	O	-0.007303	-0.995772	-0.073709
O4	O	0.236473	-0.982438	-0.073743
O5	O	-0.007296	-0.995740	0.073856
O6	O	0.121256	-0.867185	0.073829
O7	O	0.107929	-1.110961	0.073848
Zn8	Zn	0.114593	-0.989068	0.097268
Zn9	Zn	0.114584	-0.989110	-0.097156
O10	O	0.236480	-0.982406	0.073822
C11	C	0.120702	-0.836007	0.000044
C12	C	0.119050	-0.743056	0.000037
C13	C	-0.038494	-0.995206	0.000075
C14	C	-0.131445	-0.993557	0.000082
N15	N	0.114599	-0.989046	0.229957
C16	C	-0.301631	-0.990563	0.000062
C17	C	-0.324977	-0.897766	0.000052
C18	C	-0.421655	-0.896021	-0.000293
C19	C	-0.469191	-0.987615	0.000043
C20	C	-0.440096	-1.034293	-0.084051
C21	C	-0.343304	-1.035394	-0.084112
C22	C	-0.343400	-1.036716	0.083703
C23	C	-0.439895	-1.033290	0.084799
C24	C	-0.563889	-0.985953	0.000029
C25	C	-0.206933	-0.992228	0.000070
C26	C	0.267672	-0.982972	0.000035
C27	C	0.360622	-0.984621	0.000022
C28	C	0.108476	-1.142172	0.000066
C29	C	0.110128	-1.235122	0.000067
C30	C	0.113118	-0.405309	0.000057
C31	C	0.021565	-0.452745	0.000399
C32	C	0.023217	-0.549436	0.000060
C33	C	0.116060	-0.572869	0.000048
C34	C	0.161213	-0.531799	-0.084222
C35	C	0.158913	-0.435163	-0.084286
C36	C	0.160812	-0.434788	0.083523
C37	C	0.160791	-0.531734	0.084630
C38	C	0.117728	-0.667567	0.000040
C39	C	0.111452	-0.310611	0.000059
N40	N	0.114572	-0.989139	-0.229844
C41	C	0.114581	-0.989108	0.589158
C42	C	0.183136	-0.920090	0.551537
C43	C	0.183386	-0.920248	0.448711
C44	C	0.114590	-0.989077	0.410954
C45	C	0.133672	-1.076441	0.448249
C46	C	0.134159	-1.076054	0.551107
C47	C	0.026741	-0.971541	0.551269
C48	C	0.027327	-0.969537	0.448405
C49	C	0.114594	-0.989064	0.310241
C50	C	0.114579	-0.989127	0.689871
H51	H	-0.440676	-0.859475	0.059972
H52	H	-0.012275	-0.577853	0.060468
F53	F	0.121693	-0.407934	0.167011
F54	F	-0.026264	-0.428516	0.079390
F55	F	-0.042479	-1.030980	0.414826
F56	F	0.216449	-1.097161	0.414559
H57	H	-0.024275	-1.021873	0.575598
H58	H	0.008392	-0.909219	0.577257
H59	H	-0.315132	-1.007425	0.147467
H60	H	0.127830	-0.559038	0.146973
H61	H	0.226129	-0.402914	-0.088119
H62	H	0.171954	-0.854941	0.576295
F63	F	0.115866	-0.411249	-0.166611
H64	H	0.248570	-0.931466	0.424089
H65	H	0.172017	-0.855309	0.423497
F66	F	0.250360	-0.550279	-0.088346
H67	H	0.129846	-0.560188	-0.146929
F68	F	0.249288	-0.551808	0.091271
H69	H	0.228313	-0.403025	0.084084
H70	H	0.086196	-1.129016	0.575992
F71	F	0.267860	-0.934557	0.585284
F72	F	0.217891	-1.096288	0.582445
H73	H	-0.460184	-1.002291	-0.146879
H74	H	0.085068	-1.129026	0.423790
F75	F	-0.464154	-0.988861	0.166119
H76	H	0.012846	-0.905271	0.424030
H77	H	-0.328730	-1.103445	-0.087691
H78	H	-0.296971	-0.861784	0.060349
H79	H	-0.440090	-0.859683	-0.060937
F80	F	-0.287092	-0.851533	-0.078660
F81	F	-0.325082	-1.125993	0.084775
F82	F	-0.481719	-1.122405	-0.087827
F83	F	-0.308287	-0.993669	-0.166596
H84	H	-0.472843	-1.100125	0.090135
H85	H	-0.014865	-0.433166	-0.059692
F86	F	-0.023306	-0.585845	-0.079149
