data_functionalizedCrystal
_audit_creation_method	'MofGen! by Chris Wilmer'
_symmetry_space_group_name_H-M	'P1'
_symmetry_Int_Tables_number	1
_symmetry_cell_setting	triclinic
loop_
_symmetry_equiv_pos_as_xyz
  x,y,z
_cell_length_a	6.817900
_cell_length_b	16.306198
_cell_length_c	22.885905
_cell_angle_alpha	94.400691
_cell_angle_beta	108.014885
_cell_angle_gamma	103.467075
loop_
_atom_site_label
_atom_site_type_symbol
_atom_site_fract_x
_atom_site_fract_y
_atom_site_fract_z
V1	V	-4.079724	-0.118660	-0.192015
O2	O	-4.066238	0.003707	-0.188136
O3	O	-4.030870	-0.233364	-0.190917
O4	O	-4.054426	-0.117710	-0.275661
O5	O	-4.042519	-0.112747	-0.102805
V6	V	-4.560417	-0.103920	-0.181318
O7	O	-4.347189	-0.150993	-0.215478
O8	O	-4.743149	-0.071587	-0.157855
O9	O	-4.386065	0.010784	-0.182416
O10	O	-4.691299	-0.226287	-0.185197
O11	O	-4.715019	-0.109832	-0.270528
O12	O	-4.362508	-0.104870	-0.097672
C13	C	-3.875012	-0.261299	-0.187943
C14	C	-3.916509	-0.355076	-0.187603
C15	C	-3.966815	-0.113768	-0.365710
C16	C	-3.905059	-0.113778	-0.296041
V17	V	-3.817190	-0.103877	-0.471065
O18	O	-3.816799	-0.109820	-0.385390
O19	O	-3.764465	-0.104799	-0.551236
O20	O	-3.614159	0.010820	-0.439810
O21	O	-3.968146	-0.226239	-0.497588
V22	V	-4.333819	-0.118612	-0.478726
O23	O	-4.040634	-0.071533	-0.493544
O24	O	-4.572426	-0.150949	-0.469627
O25	O	-4.157460	-0.117694	-0.391922
O26	O	-4.454698	-0.112667	-0.567891
O27	O	-4.303351	0.003752	-0.455693
O28	O	-4.307766	-0.233313	-0.503349
C29	C	-4.067116	-0.695815	-0.186359
C30	C	-4.272208	-0.665304	-0.189977
C31	C	-4.229436	-0.567819	-0.190569
C32	C	-3.992399	-0.526770	-0.186976
C33	C	-3.956710	-0.572791	-0.244037
C34	C	-4.001327	-0.670407	-0.243754
C35	C	-3.880416	-0.644087	-0.126108
C36	C	-3.840642	-0.546434	-0.125754
C37	C	-3.950163	-0.431234	-0.187327
C38	C	-4.109350	-0.791352	-0.186013
C39	C	-4.205264	0.038715	-0.185388
C40	C	-4.143006	0.132491	-0.185732
C41	C	-4.175216	-0.108813	-0.077288
C42	C	-4.093858	-0.108826	-0.008905
C43	C	-3.609605	-0.108737	-0.567448
C44	C	-3.648903	-0.108727	-0.635214
C45	C	-3.417874	0.038746	-0.425312
C46	C	-3.335278	0.132518	-0.402714
C47	C	-3.797988	-0.108760	0.239578
C48	C	-4.036253	-0.103327	0.217382
C49	C	-4.121310	-0.103664	0.146216
C50	C	-3.944773	-0.108792	0.116303
C51	C	-3.875974	-0.192355	0.130902
C52	C	-3.792659	-0.192370	0.202072
C53	C	-3.658858	-0.031117	0.220661
C54	C	-3.746601	-0.029970	0.149697
C55	C	-4.027721	-0.108814	0.046632
C56	C	-3.715038	-0.108745	0.309247
C57	C	-4.158534	-0.261248	-0.507845
C58	C	-4.219825	-0.355021	-0.529826
C59	C	-3.477465	0.180889	-0.399419
C60	C	-3.399882	0.268997	-0.378177
C61	C	-3.180112	0.308733	-0.360235
C62	C	-3.037916	0.260355	-0.363529
C63	C	-3.115499	0.172248	-0.384766
C64	C	-4.065508	-0.394741	-0.536925
C65	C	-4.123062	-0.482852	-0.557569
C66	C	-4.334937	-0.531241	-0.571118
C67	C	-4.489262	-0.491516	-0.564016
C68	C	-4.431704	-0.403407	-0.543368
H69	H	-4.327560	-0.681415	-0.149043
O70	O	-3.809015	0.051887	0.138306
H71	H	-3.980455	0.036508	0.108981
O72	O	-4.456177	-0.712962	-0.247556
H73	H	-4.491015	-0.782506	-0.245742
H74	H	-4.557383	-0.371074	-0.537593
H75	H	-3.785985	-0.546235	-0.243579
H76	H	-3.612361	-0.028818	0.129713
H77	H	-3.656419	0.148549	-0.414026
H78	H	-4.661775	-0.530927	-0.575051
H79	H	-2.999699	0.132871	-0.387450
O80	O	-3.429210	-0.035373	0.239337
H81	H	-3.414115	-0.092476	0.261986
H82	H	-4.133125	-0.704892	-0.289116
O83	O	-3.567704	-0.202192	0.220649
H84	H	-3.562833	-0.261010	0.241823
O85	O	-4.386188	-0.552189	-0.248772
H86	H	-4.483801	-0.513045	-0.235679
O87	O	-4.101148	-0.555877	-0.304047
H88	H	-4.064058	-0.486075	-0.304870
O89	O	-4.273922	-0.526248	-0.136532
H90	H	-4.326272	-0.575754	-0.109745
O91	O	-4.317768	-0.178078	0.116755
H92	H	-4.288595	-0.220942	0.082165
O93	O	-3.553281	0.321162	-0.374634
H94	H	-3.462433	0.389104	-0.356845
H95	H	-3.894738	-0.251126	0.213030
O96	O	-3.836981	-0.342559	-0.522317
H97	H	-3.770973	-0.311649	-0.472802
O98	O	-4.062968	-0.269896	0.099842
H99	H	-4.117766	-0.270999	0.048721
H100	H	-3.997377	-0.515183	-0.563351
O101	O	-2.800886	0.303220	-0.344189
H102	H	-2.770857	0.372614	-0.328880
H103	H	-3.654636	0.031940	0.246902
H104	H	-3.727344	-0.663223	-0.122886
H105	H	-3.852217	-0.690781	-0.243634
H106	H	-3.917754	-0.660361	-0.082461
O107	O	-3.875801	-0.505331	-0.069790
H108	H	-4.000827	-0.471036	-0.085506
O109	O	-3.607909	-0.508040	-0.117547
H110	H	-3.596718	-0.474197	-0.157156
H111	H	-4.381772	-0.602985	-0.587926
H112	H	-3.116968	0.380476	-0.342944
O113	O	-4.194191	-0.024084	0.133907
H114	H	-4.168877	0.014986	0.178849
O115	O	-4.055461	-0.023695	0.250891
H116	H	-3.895401	0.012862	0.283727
H117	H	-4.142358	-0.159079	0.230117
H118	H	-3.745868	-0.199138	0.110847
