data_functionalizedCrystal
_audit_creation_method	'MofGen! by Chris Wilmer'
_symmetry_space_group_name_H-M	'P1'
_symmetry_Int_Tables_number	1
_symmetry_cell_setting	triclinic
loop_
_symmetry_equiv_pos_as_xyz
  x,y,z
_cell_length_a	14.971486
_cell_length_b	14.044220
_cell_length_c	13.448316
_cell_angle_alpha	89.992660
_cell_angle_beta	89.998199
_cell_angle_gamma	88.401503
loop_
_atom_site_label
_atom_site_type_symbol
_atom_site_fract_x
_atom_site_fract_y
_atom_site_fract_z
O1	O	1.196679	0.123538	-0.082579
O2	O	0.937445	0.138332	-0.082607
O3	O	1.063171	-0.007054	-0.082584
O4	O	1.070953	0.268924	-0.082602
O5	O	1.063153	-0.007063	0.082800
O6	O	0.937427	0.138323	0.082777
O7	O	1.196661	0.123529	0.082804
Cu8	Cu	1.067042	0.130925	0.097892
Cu9	Cu	1.067064	0.130936	-0.097694
O10	O	1.070935	0.268915	0.082781
C11	C	0.904059	0.137666	0.000082
C12	C	0.804606	0.135683	0.000072
C13	C	0.754109	0.221093	0.000067
C14	C	0.660662	0.219225	0.000082
C15	C	0.617714	0.131945	0.000094
C16	C	0.668218	0.046528	0.000102
C17	C	0.761663	0.048398	0.000094
C18	C	0.473449	0.042638	0.000116
C19	C	0.379997	0.040767	0.000122
C20	C	0.372448	0.213465	0.000104
C21	C	0.465893	0.215334	0.000096
C22	C	0.516390	0.129917	0.000102
C23	C	1.059755	-0.042377	0.000108
C24	C	1.049594	-0.147614	0.000108
C25	C	1.031018	-0.340297	0.000092
C26	C	1.103085	-0.397848	0.000097
C27	C	1.092748	-0.505063	0.000088
C28	C	1.041353	-0.233071	0.000101
C29	C	1.230047	0.124195	0.000114
C30	C	1.329501	0.126178	0.000117
C31	C	1.074351	0.304238	0.000087
C32	C	1.084512	0.409475	0.000080
N33	N	1.067034	0.130917	0.235456
N34	N	1.067079	0.130936	-0.235258
C35	C	1.122727	0.066567	0.287506
C36	C	1.122732	0.066566	0.391610
C37	C	1.067049	0.130921	0.443660
C38	C	1.011350	0.195274	0.391603
C39	C	1.011341	0.195270	0.287501
C40	C	1.011376	0.195281	0.608583
C41	C	1.011386	0.195287	0.712691
C42	C	1.122767	0.066577	0.712691
C43	C	1.122757	0.066572	0.608590
C44	C	1.067060	0.130927	0.556539
H45	H	0.619551	0.288775	0.000077
O46	O	0.507473	0.300199	0.000126
C47	C	0.490129	0.471294	0.000052
C48	C	0.442927	0.375252	0.000038
H49	H	0.437965	0.531999	-0.000040
H50	H	0.533665	0.476545	0.069277
H51	H	0.533714	0.476433	-0.069148
H52	H	0.399297	0.370048	0.069192
H53	H	0.399446	0.370042	-0.069233
H54	H	0.331329	0.283015	0.000104
H55	H	0.966007	0.247670	0.433988
H56	H	0.961562	-0.371545	0.000082
H57	H	1.168103	0.014175	0.566210
O58	O	0.957173	0.257665	0.557976
C59	C	0.836641	0.277634	0.440411
C60	C	0.897946	0.206878	0.497678
H61	H	0.788754	0.236601	0.391631
H62	H	0.796781	0.323621	0.495449
H63	H	0.879056	0.325074	0.391704
H64	H	0.855599	0.159377	0.546387
H65	H	0.937810	0.160958	0.442587
O66	O	0.795722	0.305938	-0.000079
C67	C	0.817887	0.454095	-0.085802
C68	C	0.770692	0.358049	-0.085753
H69	H	0.797683	0.496245	-0.155073
H70	H	0.797633	0.496368	-0.016638
H71	H	0.893346	0.440742	-0.085761
H72	H	0.695225	0.371315	-0.085829
H73	H	0.791019	0.315806	-0.154911
O74	O	1.176845	0.003960	0.237103
C75	C	1.287354	-0.123668	0.248102
C76	C	1.226096	-0.052828	0.305304
H77	H	1.327203	-0.169586	0.303218
H78	H	1.244995	-0.171161	0.199407
H79	H	1.335263	-0.082646	0.199323
H80	H	1.178176	-0.093772	0.354137
H81	H	1.268511	-0.005335	0.353936
H82	H	1.172546	-0.366598	0.000037
O83	O	1.176708	0.003964	0.442211
C84	C	1.185463	-0.125437	0.559797
C85	C	1.124228	-0.054605	0.502541
H86	H	1.143059	-0.172795	0.608604
H87	H	1.225243	-0.171494	0.504752
H88	H	1.233434	-0.084407	0.608477
H89	H	1.076204	-0.095558	0.453860
H90	H	1.084510	-0.008549	0.557640
H91	H	1.168118	0.014177	0.755077
O92	O	0.957343	0.257913	0.236980
C93	C	0.918026	0.422654	0.205146
C94	C	0.979256	0.351817	0.262403
H95	H	0.935708	0.498590	0.225696
H96	H	0.927587	0.411678	0.121790
H97	H	0.845400	0.410125	0.225617
H98	H	1.051905	0.364303	0.242016
H99	H	0.969618	0.362810	0.345746
H100	H	0.345032	-0.030303	0.000133
O101	O	0.522368	-0.040424	0.000072
C102	C	0.520000	-0.211913	0.000128
C103	C	0.464491	-0.117921	0.000164
H104	H	0.473230	-0.274594	0.000224
H105	H	0.563910	-0.215411	-0.069107
H106	H	0.563966	-0.215312	0.069319
H107	H	0.420474	-0.114460	-0.068979
H108	H	0.420639	-0.114463	0.069445
H109	H	0.966042	0.247690	0.755066
H110	H	0.802776	-0.021152	0.000097
H111	H	0.633242	-0.024537	0.000126
