data_functionalizedCrystal
_audit_creation_method	'MofGen! by Chris Wilmer'
_symmetry_space_group_name_H-M	'P1'
_symmetry_Int_Tables_number	1
_symmetry_cell_setting	triclinic
loop_
_symmetry_equiv_pos_as_xyz
  x,y,z
_cell_length_a	14.908783
_cell_length_b	19.120786
_cell_length_c	14.908308
_cell_angle_alpha	90.683525
_cell_angle_beta	89.788727
_cell_angle_gamma	95.607498
loop_
_atom_site_label
_atom_site_type_symbol
_atom_site_fract_x
_atom_site_fract_y
_atom_site_fract_z
Zn1	Zn	1.332649	-0.245599	-0.573621
Zn2	Zn	1.335542	-0.355895	-0.416880
Zn3	Zn	1.191002	-0.244839	-0.414636
Zn4	Zn	1.175874	-0.369341	-0.557724
O5	O	1.258767	-0.303918	-0.490715
O6	O	1.459135	-0.254921	-0.560421
O7	O	1.323910	-0.335218	-0.291103
O8	O	1.214912	-0.146676	-0.441440
O9	O	1.461260	-0.335954	-0.445264
O10	O	1.318980	-0.147234	-0.558245
O11	O	1.217717	-0.253625	-0.289455
O12	O	1.062894	-0.266663	-0.426025
O13	O	1.189129	-0.358871	-0.685312
O14	O	1.051779	-0.358134	-0.531151
O15	O	1.304311	-0.267959	-0.696991
O16	O	1.309241	-0.455942	-0.429849
O17	O	1.191934	-0.465820	-0.533326
C18	C	1.024640	-0.313776	-0.476620
C19	C	0.924477	-0.318011	-0.470610
C20	C	0.734028	-0.241720	-0.579398
C21	C	0.639917	-0.245697	-0.573755
C22	C	0.642140	-0.329938	-0.453676
C23	C	0.736252	-0.325961	-0.459319
C24	C	0.782193	-0.281851	-0.522184
C25	C	0.876306	-0.277879	-0.527831
C26	C	0.878528	-0.362115	-0.407748
C27	C	0.784416	-0.366092	-0.402105
C28	C	1.249283	-0.486360	-0.480127
C29	C	1.245307	-0.564407	-0.475633
C30	C	1.297576	-0.601308	-0.534379
C31	C	1.293836	-0.674642	-0.530158
C32	C	1.237831	-0.711073	-0.467184
C33	C	1.185557	-0.674167	-0.408435
C34	C	1.189292	-0.600835	-0.412662
C35	C	1.223839	-0.932477	-0.451381
C36	C	1.220109	-1.005814	-0.447157
C37	C	1.328387	-1.006284	-0.568882
C38	C	1.332122	-0.932950	-0.573099
C39	C	1.279844	-0.896051	-0.514353
C40	C	1.234009	-0.786031	-0.462865
C41	C	1.283662	-0.821094	-0.518677
C42	C	1.493808	-0.294022	-0.504866
C43	C	1.593969	-0.289805	-0.510896
C44	C	1.244710	-0.315000	-0.724597
C45	C	1.238720	-0.319722	-0.824263
C46	C	1.268311	-0.120764	-0.501366
C47	C	1.272378	-0.042715	-0.505904
C48	C	1.347401	-0.233912	-1.023711
C49	C	1.341776	-0.238346	-1.117357
C50	C	1.221840	-0.333021	-1.105202
C51	C	1.227465	-0.328587	-1.011556
C52	C	1.290249	-0.279031	-0.970814
C53	C	1.295878	-0.274600	-0.877167
C54	C	1.175939	-0.369272	-0.865014
C55	C	1.170313	-0.373706	-0.958659
C56	C	1.272823	-0.292827	-0.257750
C57	C	1.278998	-0.287900	-0.158106
H58	H	0.746998	-0.402003	-0.350920
O59	O	1.120543	-0.413129	-0.813539
C60	C	1.109834	-0.503477	-0.701623
C61	C	1.172668	-0.453833	-0.759848
H62	H	1.151951	-0.536410	-0.658213
H63	H	1.067040	-0.471186	-0.656754
H64	H	1.063980	-0.539622	-0.746854
H65	H	1.218577	-0.417678	-0.714685
H66	H	1.215399	-0.486167	-0.804725
H67	H	0.913709	-0.241963	-0.579019
H68	H	1.388313	-0.201604	-1.160422
O69	O	1.160972	-0.381217	-1.144837
C70	C	1.137539	-0.481491	-1.244403
C71	C	1.206573	-0.426967	-1.199556
H72	H	1.174379	-0.518485	-1.288668
H73	H	1.097656	-0.513035	-1.190556
H74	H	1.089460	-0.453281	-1.287234
H75	H	1.254710	-0.455121	-1.156730
H76	H	1.246390	-0.395426	-1.253447
O77	O	0.778522	-0.198822	-0.640491
C78	C	0.766383	-0.115734	-0.759052
C79	C	0.715885	-0.164272	-0.689888
H80	H	0.715761	-0.087798	-0.799021
H81	H	0.814789	-0.075113	-0.722786
H82	H	0.805990	-0.148399	-0.806597
H83	H	0.676227	-0.131665	-0.642324
H84	H	0.667533	-0.204895	-0.726213
O85	O	0.593022	-0.206821	-0.629368
C86	C	0.480045	-0.207745	-0.744661
C87	C	0.533073	-0.251859	-0.681710
H88	H	0.431577	-0.244141	-0.787010
H89	H	0.440285	-0.170912	-0.703105
H90	H	0.529070	-0.175519	-0.790519
H91	H	0.484111	-0.284127	-0.635840
H92	H	0.572846	-0.288648	-0.723322
H93	H	0.604719	-0.365841	-0.402485
O94	O	1.379292	-1.042085	-0.625872
C95	C	1.528768	-1.059978	-0.677533
C96	C	1.471232	-1.019398	-0.612919
H97	H	1.603111	-1.041641	-0.667096
H98	H	1.516560	-1.118655	-0.663707
H99	H	1.509215	-1.049647	-0.749683
H100	H	1.490750	-1.029671	-0.540745
H101	H	1.483446	-0.960735	-0.626822
H102	H	1.146729	-0.570791	-0.364825
H103	H	1.329257	-0.791430	-0.569953
H104	H	0.917752	-0.394799	-0.361166
O105	O	1.165621	-1.041098	-0.385958
C106	C	1.058649	-1.032895	-0.265642
C107	C	1.120296	-0.992850	-0.334916
H108	H	1.022001	-0.993903	-0.224343
H109	H	1.007225	-1.071168	-0.301913
H110	H	1.101138	-1.063266	-0.219340
H111	H	1.077880	-0.962439	-0.381237
H112	H	1.171723	-0.954619	-0.298587
H113	H	1.398526	-0.193565	-0.990539
H114	H	1.343185	-0.571650	-0.585655
H115	H	1.336406	-0.704683	-0.577989
O116	O	1.386423	-0.897608	-0.634394
C117	C	1.422071	-0.880523	-0.790874
C118	C	1.360491	-0.920584	-0.721560
H119	H	1.401140	-0.899094	-0.861362
H120	H	1.415762	-0.821766	-0.783884
H121	H	1.494951	-0.891084	-0.778680
H122	H	1.287586	-0.910080	-0.733710
H123	H	1.366877	-0.979328	-0.728566
O124	O	1.172961	-0.896620	-0.394434
C125	C	1.056277	-0.818442	-0.379700
C126	C	1.113824	-0.859028	-0.444298
H127	H	1.008464	-0.788027	-0.419990
H128	H	1.015550	-0.857055	-0.333980
H129	H	1.102268	-0.780159	-0.337299
H130	H	1.067899	-0.897312	-0.486757
H131	H	1.154559	-0.820375	-0.489957
H132	H	1.119195	-0.414051	-0.991844
H133	H	1.188413	-0.815702	-0.411590
O134	O	1.131098	-0.709639	-0.347379
C135	C	1.005923	-0.797043	-0.323114
C136	C	1.067543	-0.756935	-0.392358
H137	H	0.954512	-0.835280	-0.359453
H138	H	1.048351	-0.827442	-0.276785
H139	H	0.969249	-0.758055	-0.281835
H140	H	1.104230	-0.795875	-0.433699
H141	H	1.025067	-0.726525	-0.438625
H142	H	1.347001	-0.234251	-0.843997
