data_functionalizedCrystal
_audit_creation_method	'MofGen! by Chris Wilmer'
_symmetry_space_group_name_H-M	'P1'
_symmetry_Int_Tables_number	1
_symmetry_cell_setting	triclinic
loop_
_symmetry_equiv_pos_as_xyz
  x,y,z
_cell_length_a	19.288864
_cell_length_b	10.654546
_cell_length_c	9.730223
_cell_angle_alpha	90.009084
_cell_angle_beta	89.983349
_cell_angle_gamma	96.190117
loop_
_atom_site_label
_atom_site_type_symbol
_atom_site_fract_x
_atom_site_fract_y
_atom_site_fract_z
O1	O	0.922372	-0.156647	-0.114758
O2	O	0.720249	-0.177779	-0.114668
O3	O	0.825959	0.015626	-0.114675
O4	O	0.816662	-0.350052	-0.114752
O5	O	0.825952	0.015615	0.113905
O6	O	0.720243	-0.177790	0.113912
O7	O	0.922365	-0.156657	0.113822
Zn8	Zn	0.821303	-0.167226	0.150159
Zn9	Zn	0.821312	-0.167211	-0.151005
O10	O	0.816655	-0.350063	0.113828
C11	C	0.694365	-0.177105	-0.000366
C12	C	0.617248	-0.175064	-0.000329
C13	C	0.573294	-0.288545	-0.000375
C14	C	0.500834	-0.286627	-0.000390
C15	C	0.472332	-0.171222	-0.000387
C16	C	0.516296	-0.057725	-0.000333
C17	C	0.588754	-0.059646	-0.000305
C18	C	0.363479	-0.080496	-0.080495
C19	C	0.291022	-0.078580	-0.080532
C20	C	0.248848	-0.165292	-0.000469
C21	C	0.279138	-0.253942	0.079615
C22	C	0.351596	-0.255863	0.079643
C23	C	0.393764	-0.169126	-0.000417
C24	C	0.126324	-0.276702	-0.000528
C25	C	0.053864	-0.274780	-0.000535
C26	C	0.069326	-0.045875	-0.000492
C27	C	0.141786	-0.047800	-0.000472
C28	C	0.170280	-0.163218	-0.000496
C29	C	0.825273	0.062404	-0.000377
C30	C	0.823233	0.201804	-0.000353
C31	C	0.885473	0.282622	-0.000363
C32	C	0.883551	0.413602	-0.000346
C33	C	0.757144	0.382933	-0.000305
C34	C	0.759066	0.251955	-0.000331
C35	C	0.958453	0.300330	-0.000380
C36	C	0.956531	0.431310	-0.000363
C37	C	0.948249	-0.157332	-0.000484
C38	C	1.025366	-0.159373	-0.000529
N39	N	0.821302	-0.167234	0.355695
C40	C	0.817343	0.603160	-0.000424
C41	C	0.819388	0.463761	-0.000310
N42	N	0.821318	-0.167192	-0.356542
C43	C	0.863791	-0.243200	0.427597
C44	C	0.863801	-0.243176	0.571480
C45	C	0.778828	-0.091218	0.571546
C46	C	0.778821	-0.091237	0.427666
C47	C	0.912847	-0.330935	0.427561
C48	C	0.912857	-0.330911	0.571444
H49	H	0.018076	-0.367194	-0.000564
H50	H	0.967626	-0.298906	0.388477
O51	O	0.989238	0.253790	0.130325
H52	H	0.950085	0.185659	0.182022
H53	H	0.965170	-0.290314	0.616031
H54	H	0.978590	0.477429	-0.099059
O55	O	0.038597	0.078605	-0.000489
H56	H	-0.019173	0.060878	-0.000523
H57	H	0.624542	0.032767	-0.000268
O58	O	0.691937	0.164781	-0.000319
H59	H	0.646998	0.221663	-0.000281
H60	H	0.465040	-0.379041	-0.000423
O61	O	0.189201	0.074598	-0.000434
H62	H	0.157210	0.155171	-0.000443
O63	O	0.258353	0.017041	-0.166884
H64	H	0.299852	0.077037	-0.222525
O65	O	0.733008	-0.009245	0.649157
H66	H	0.695963	-0.069599	0.714731
O67	O	0.890194	-0.462568	0.623203
H68	H	0.879083	-0.527040	0.534436
O69	O	0.157063	-0.401182	-0.000539
H70	H	0.189689	-0.407526	0.092630
O71	O	0.883882	-0.456812	0.368445
H72	H	0.924305	-0.494986	0.304216
O73	O	0.687937	0.437022	-0.000260
H74	H	0.697055	0.541677	-0.000233
H75	H	0.397812	-0.009882	-0.145701
H76	H	0.596489	-0.382527	-0.000398
O77	O	0.996257	0.262235	-0.127112
H78	H	1.013234	0.347457	-0.189144
H79	H	0.376255	-0.328041	0.144854
O80	O	0.992956	0.487428	0.126320
H81	H	0.955715	0.536301	0.188368
O82	O	0.732998	-0.009298	0.350107
H83	H	0.703456	0.043538	0.424328
H84	H	0.244801	-0.324551	0.144811
H85	H	0.493085	0.036239	-0.000350
