data_functionalizedCrystal
_audit_creation_method	'MofGen! by Chris Wilmer'
_symmetry_space_group_name_H-M	'P1'
_symmetry_Int_Tables_number	1
_symmetry_cell_setting	triclinic
loop_
_symmetry_equiv_pos_as_xyz
  x,y,z
_cell_length_a	21.395364
_cell_length_b	12.759400
_cell_length_c	21.395355
_cell_angle_alpha	90.012461
_cell_angle_beta	90.024552
_cell_angle_gamma	90.029397
loop_
_atom_site_label
_atom_site_type_symbol
_atom_site_fract_x
_atom_site_fract_y
_atom_site_fract_z
Zn1	Zn	0.957930	-0.417969	0.354288
Zn2	Zn	0.957862	-0.593633	0.249521
Zn3	Zn	0.853145	-0.418015	0.249525
Zn4	Zn	0.853144	-0.593652	0.354262
O5	O	0.905520	-0.505817	0.301899
O6	O	1.045599	-0.441244	0.340400
O7	O	0.943943	-0.570349	0.161844
O8	O	0.867074	-0.270988	0.263434
O9	O	1.045549	-0.570304	0.263429
O10	O	0.944059	-0.270954	0.340403
O11	O	0.867008	-0.441322	0.161846
O12	O	0.765467	-0.441341	0.263408
O13	O	0.867072	-0.570336	0.441943
O14	O	0.765466	-0.570381	0.340358
O15	O	0.944058	-0.441262	0.441962
O16	O	0.943942	-0.740657	0.263403
O17	O	0.867006	-0.740671	0.340355
C18	C	0.742733	-0.505868	0.301881
C19	C	0.673091	-0.505916	0.301889
C20	C	0.640427	-0.438824	0.342030
C21	C	0.574991	-0.438796	0.342032
C22	C	0.542223	-0.505878	0.301900
C23	C	0.574896	-0.572975	0.261751
C24	C	0.640330	-0.572993	0.261746
C25	C	0.438515	-0.600493	0.296868
C26	C	0.373082	-0.600476	0.296879
C27	C	0.340402	-0.505821	0.301914
C28	C	0.373164	-0.411179	0.306952
C29	C	0.438598	-0.411197	0.306947
C30	C	0.471271	-0.505865	0.301901
C31	C	0.236785	-0.438693	0.342060
C32	C	0.171348	-0.438663	0.342058
C33	C	0.171254	-0.572851	0.261780
C34	C	0.236690	-0.572872	0.261779
C35	C	0.269451	-0.505794	0.301922
C36	C	0.905484	-0.778785	0.301890
C37	C	0.905525	-0.895561	0.301907
C38	C	0.865489	-1.060194	0.341956
C39	C	0.865455	-0.950469	0.341945
C40	C	0.945638	-0.950383	0.261881
C41	C	0.945675	-1.060105	0.261895
C42	C	0.825411	-1.115096	0.381992
C43	C	0.785299	-1.060282	0.422019
C44	C	0.785265	-0.950558	0.422009
C45	C	0.825342	-0.895648	0.381971
C46	C	1.068944	-0.505767	0.301917
C47	C	1.138585	-0.505745	0.301925
C48	C	0.905572	-0.505796	0.465322
C49	C	0.905594	-0.505787	0.534964
C50	C	0.905574	-0.231784	0.301922
C51	C	0.905597	-0.115007	0.301932
C52	C	0.905504	-0.505763	0.139111
C53	C	0.905604	-0.505476	0.069470
C54	C	0.945679	-0.438575	0.567688
C55	C	0.945678	-0.438530	0.633123
C56	C	0.905599	-0.505715	0.665832
C57	C	0.865507	-0.572932	0.633100
C58	C	0.865504	-0.572967	0.567666
C59	C	0.900639	-0.600316	0.769503
C60	C	0.900646	-0.600282	0.834936
C61	C	0.905603	-0.505604	0.867653
C62	C	0.910566	-0.410957	0.834928
C63	C	0.910564	-0.410993	0.769494
C64	C	0.905597	-0.505684	0.736784
C65	C	0.945689	-0.438338	0.971329
C66	C	0.945684	-0.438291	1.036766
C67	C	0.865516	-0.572702	1.036742
C68	C	0.865517	-0.572740	0.971306
C69	C	0.905608	-0.505559	0.938604
H70	H	0.465270	-0.334137	0.311047
C71	C	0.989716	-0.889984	0.217838
C72	C	0.984643	-0.905131	0.146608
C73	C	1.028720	-0.844733	0.102562
C74	C	1.077869	-0.769188	0.129747
C75	C	1.082943	-0.754037	0.200980
C76	C	1.038867	-0.814435	0.245026
H77	H	0.948258	-0.961058	0.126481
H78	H	1.024963	-0.855950	0.049830
H79	H	1.110497	-0.724478	0.097141
H80	H	1.119328	-0.698110	0.221107
H81	H	1.042623	-0.803218	0.297758
C82	C	0.895188	-0.704471	0.733519
C83	C	0.889739	-0.808577	0.769510
C84	C	0.884286	-0.912727	0.733527
C85	C	0.884283	-0.912771	0.661552
C86	C	0.889732	-0.808662	0.625556
C87	C	0.895184	-0.704512	0.661540
H88	H	0.889741	-0.808548	0.822794
H89	H	0.880252	-0.989796	0.760174
H90	H	0.880247	-0.989870	0.634915
H91	H	0.889729	-0.808691	0.572272
H92	H	0.899218	-0.627443	0.634893
H93	H	0.825434	-1.204439	0.382004
C94	C	0.741147	-0.890262	0.466039
C95	C	0.669927	-0.905478	0.460858
C96	C	0.625806	-0.845185	0.504889
C97	C	0.652903	-0.769677	0.554100
C98	C	0.724127	-0.754459	0.559283
C99	C	0.768248	-0.814751	0.515253
H100	H	0.649865	-0.961376	0.424427
H101	H	0.573081	-0.856452	0.501051
H102	H	0.620242	-0.725045	0.586694
H103	H	0.744189	-0.698560	0.595714
H104	H	0.820973	-0.803485	0.519090
C105	C	0.272625	-0.646688	0.217630
C106	C	0.236586	-0.720481	0.173485
C107	C	0.272522	-0.794299	0.129334
C108	C	0.344497	-0.794324	0.129326
C109	C	0.380540	-0.720528	0.173473
C110	C	0.344604	-0.646710	0.217625
H111	H	0.183302	-0.720464	0.173489
H112	H	0.245839	-0.848927	0.096654
H113	H	0.371098	-0.848969	0.096643
H114	H	0.433824	-0.720544	0.173469
H115	H	0.371287	-0.592082	0.250305
H116	H	0.825315	-0.806303	0.381970
H117	H	0.978336	-1.104735	0.229306
H118	H	0.978330	-0.383630	0.944702
H119	H	0.978323	-0.383870	0.541066
H120	H	0.978319	-0.383793	0.659772
H121	H	0.752674	-1.104997	0.454620
H122	H	0.832880	-0.627477	0.944662
C123	C	0.135411	-0.364866	0.386219
C124	C	0.090446	-0.282295	0.359164
C125	C	0.054506	-0.208502	0.403328
C126	C	0.063531	-0.217279	0.474545
C127	C	0.108498	-0.299854	0.501603
C128	C	0.144438	-0.373647	0.457439
H129	H	0.083763	-0.275794	0.306442
H130	H	0.021218	-0.147375	0.383297
H131	H	0.036926	-0.162653	0.507237
H132	H	0.115181	-0.306355	0.554325
H133	H	0.177726	-0.434774	0.477470
C134	C	0.916017	-0.306887	0.733498
C135	C	0.863604	-0.273008	0.688491
C136	C	0.869054	-0.168899	0.652496
C137	C	0.926917	-0.098669	0.661509
C138	C	0.979334	-0.132546	0.706519
C139	C	0.973883	-0.236654	0.742513
H140	H	0.820767	-0.324999	0.681817
H141	H	0.830252	-0.143822	0.619177
H142	H	0.930951	-0.021601	0.634864
H143	H	1.022171	-0.080555	0.713193
H144	H	1.012686	-0.261732	0.775833
H145	H	0.914604	-0.333861	0.861564
H146	H	0.978325	-0.383553	1.063409
H147	H	0.548390	-0.384157	0.374719
H148	H	0.346558	-0.334101	0.311053
H149	H	0.667097	-0.384203	0.374717
H150	H	0.263461	-0.384068	0.374743
H151	H	0.896609	-0.677350	0.861576
C152	C	0.337047	-0.704578	0.291340
C153	C	0.372990	-0.808697	0.285790
C154	C	0.336957	-0.912801	0.280253
C155	C	0.264982	-0.912788	0.280265
C156	C	0.229036	-0.808666	0.285815
C157	C	0.265068	-0.704561	0.291352
H158	H	0.426273	-0.808710	0.285781
H159	H	0.363567	-0.989879	0.276144
H160	H	0.238308	-0.989853	0.276166
H161	H	0.175752	-0.808652	0.285824
H162	H	0.238458	-0.627483	0.295461
C163	C	0.821426	-0.646606	1.072713
C164	C	0.821425	-0.646570	1.144688
C165	C	0.777332	-0.720474	1.180663
C166	C	0.733240	-0.794413	1.144663
C167	C	0.733240	-0.794452	1.072684
C168	C	0.777333	-0.720549	1.036709
H169	H	0.854066	-0.591834	1.171341
H170	H	0.777333	-0.720444	1.233947
H171	H	0.700600	-0.849121	1.171293
H172	H	0.700599	-0.849189	1.046030
H173	H	0.777332	-0.720578	0.983425
H174	H	0.832872	-0.627631	0.659736
H175	H	0.144575	-0.627471	0.229104
H176	H	0.832859	-0.627698	0.541022
H177	H	0.465117	-0.677579	0.292767
H178	H	0.666925	-0.627629	0.229057
C179	C	0.538854	-0.646768	0.217607
C180	C	0.493859	-0.601109	0.168469
C181	C	0.457817	-0.674901	0.124320
C182	C	0.466771	-0.794352	0.129309
C183	C	0.511768	-0.840017	0.178449
C184	C	0.547809	-0.766225	0.222597
H185	H	0.487229	-0.512679	0.164774
H186	H	0.424508	-0.641097	0.087944
H187	H	0.440091	-0.848978	0.096628
H188	H	0.518397	-0.928448	0.182144
H189	H	0.581119	-0.800030	0.258974
