data_functionalizedCrystal
_audit_creation_method	'MofGen! by Chris Wilmer'
_symmetry_space_group_name_H-M	'P1'
_symmetry_Int_Tables_number	1
_symmetry_cell_setting	triclinic
loop_
_symmetry_equiv_pos_as_xyz
  x,y,z
_cell_length_a	15.995292
_cell_length_b	15.944493
_cell_length_c	15.072220
_cell_angle_alpha	90.004743
_cell_angle_beta	89.986330
_cell_angle_gamma	83.471830
loop_
_atom_site_label
_atom_site_type_symbol
_atom_site_fract_x
_atom_site_fract_y
_atom_site_fract_z
O1	O	1.111010	0.108035	-0.073795
O2	O	0.867226	0.121456	-0.073790
O3	O	0.995800	-0.007535	-0.073800
O4	O	0.982435	0.237025	-0.073785
O5	O	0.995769	-0.007528	0.073765
O6	O	0.867194	0.121463	0.073775
O7	O	1.110978	0.108042	0.073770
Zn8	Zn	0.989081	0.114754	0.097202
Zn9	Zn	0.989123	0.114744	-0.097221
O10	O	0.982404	0.237032	0.073780
C11	C	0.836014	0.120913	-0.000007
C12	C	0.743062	0.119276	-0.000006
C13	C	0.405324	0.113255	-0.000016
C14	C	0.428623	0.206357	-0.000340
C15	C	0.525298	0.208127	-0.000003
C16	C	0.572880	0.116242	-0.000011
C17	C	0.543767	0.069700	0.084250
C18	C	0.446976	0.068579	0.084316
C19	C	0.447157	0.066670	-0.083493
C20	C	0.543650	0.070120	-0.084602
C21	C	0.667576	0.117926	-0.000006
C22	C	0.310629	0.111569	-0.000016
C23	C	0.995238	-0.038826	-0.000021
C24	C	0.993600	-0.132074	-0.000032
C25	C	1.069282	-0.367854	-0.000017
C26	C	1.028486	-0.418415	-0.072773
C27	C	0.990566	-0.302794	-0.000021
C28	C	1.028436	-0.418384	0.072715
C29	C	0.987641	-0.467703	-0.000007
C30	C	0.949791	-0.352127	-0.072837
C31	C	0.949752	-0.352092	0.072716
C32	C	0.908898	-0.402620	-0.000058
C33	C	0.992253	-0.207795	-0.000030
C34	C	0.985947	-0.562700	-0.000004
C35	C	1.142189	0.108584	-0.000015
C36	C	1.235142	0.110222	-0.000022
C37	C	0.982966	0.268323	-0.000000
C38	C	0.984603	0.361572	0.000005
N39	N	0.989059	0.114759	0.229891
N40	N	0.989152	0.114731	-0.229910
C41	C	0.989121	0.114741	0.589092
C42	C	0.920093	0.183530	0.551491
C43	C	0.920251	0.183781	0.448665
C44	C	0.989089	0.114750	0.410888
C45	C	1.076454	0.133875	0.448179
C46	C	1.076067	0.134364	0.551037
C47	C	0.971565	0.026623	0.551188
C48	C	0.969560	0.027211	0.448324
C49	C	0.989077	0.114754	0.310175
C50	C	0.989139	0.114739	0.689806
H51	H	0.420141	0.100819	0.147309
N52	N	0.838366	0.169496	0.582587
N53	N	0.795808	0.224945	0.627319
H54	H	0.738089	0.215035	0.649293
N55	N	0.893370	0.003549	0.583757
N56	N	0.891966	-0.062587	0.627989
H57	H	0.836737	-0.078874	0.650991
H58	H	0.916525	-0.323120	0.134230
H59	H	1.137087	-0.352243	-0.000092
H60	H	1.021904	-0.024567	0.575502
N61	N	0.568912	0.110256	0.162918
N62	N	0.608265	0.173427	0.157145
H63	H	0.626024	0.202075	0.212702
H64	H	0.544332	0.244572	-0.060407
N65	N	0.908152	-0.315977	-0.150100
N66	N	0.934679	-0.338002	-0.225551
H67	H	0.905276	-0.312470	-0.280120
N68	N	0.584999	-0.014024	-0.091004
N69	N	0.569210	-0.060093	-0.154536
H70	H	0.598410	-0.119524	-0.159051
H71	H	0.432436	0.000317	0.088138
N72	N	0.838785	0.169514	0.417016
N73	N	0.824963	0.167267	0.335478
H74	H	0.767423	0.157196	0.313128
H75	H	0.400634	0.242240	-0.060767
N76	N	1.070149	-0.454681	0.149870
N77	N	1.146038	-0.446757	0.162810
H78	H	1.175504	-0.472391	0.217298
N79	N	0.933964	0.265097	0.583915
N80	N	0.994468	0.272786	0.634596
H81	H	1.004269	0.330392	0.657498
N82	N	0.934325	0.265803	0.417768
N83	N	0.936888	0.280243	0.336359
H84	H	0.946832	0.338173	0.314536
N85	N	1.095482	0.214981	0.581119
N86	N	1.109220	0.270494	0.526148
H87	H	1.122932	0.327433	0.547388
H88	H	0.399585	0.242047	0.059753
N89	N	0.823771	-0.421994	-0.000111
N90	N	0.775733	-0.397581	-0.062637
H91	H	0.715612	-0.411264	-0.062678
N92	N	1.096340	0.213578	0.415884
N93	N	1.163741	0.240383	0.438143
H94	H	1.177782	0.296677	0.415339
H95	H	1.061742	-0.447372	-0.134285
N96	N	1.142438	0.073897	0.582230
N97	N	1.188901	0.031475	0.528033
H98	H	1.235778	-0.011227	0.550058
H99	H	0.433175	-0.001859	-0.084068
H100	H	1.129047	0.085104	0.423706
N101	N	0.888936	0.009012	0.417750
N102	N	0.845975	0.060278	0.368570
H103	H	0.789034	0.047427	0.346971
H104	H	1.016572	-0.026375	0.422612
H105	H	0.575645	0.002086	0.087377
N106	N	0.548347	0.254199	0.075866
N107	N	0.493000	0.285138	0.128739
H108	H	0.509274	0.317702	0.182310
H109	H	0.418840	0.095767	-0.147358
H110	H	0.562227	0.104008	-0.146938
