data_functionalizedCrystal
_audit_creation_method	'MofGen! by Chris Wilmer'
_symmetry_space_group_name_H-M	'P1'
_symmetry_Int_Tables_number	1
_symmetry_cell_setting	triclinic
loop_
_symmetry_equiv_pos_as_xyz
  x,y,z
_cell_length_a	25.639243
_cell_length_b	29.839132
_cell_length_c	25.639234
_cell_angle_alpha	90.027958
_cell_angle_beta	89.976852
_cell_angle_gamma	89.952013
loop_
_atom_site_label
_atom_site_type_symbol
_atom_site_fract_x
_atom_site_fract_y
_atom_site_fract_z
Zn1	Zn	0.799238	0.178848	-0.295645
Zn2	Zn	0.799141	0.253971	-0.208204
Zn3	Zn	0.711804	0.178859	-0.208218
Zn4	Zn	0.711750	0.253955	-0.295604
O5	O	0.755483	0.216408	-0.251918
O6	O	0.872391	0.188815	-0.284057
O7	O	0.787537	0.244018	-0.135041
O8	O	0.723465	0.115990	-0.219838
O9	O	0.872319	0.244007	-0.219815
O10	O	0.787703	0.115982	-0.284070
O11	O	0.723371	0.188834	-0.135051
O12	O	0.638631	0.188819	-0.219799
O13	O	0.723373	0.243981	-0.368774
O14	O	0.638592	0.243992	-0.284000
O15	O	0.787651	0.188800	-0.368804
O16	O	0.787485	0.316836	-0.219775
O17	O	0.723279	0.316824	-0.283987
C18	C	0.619641	0.216405	-0.251897
C19	C	0.561526	0.216415	-0.251900
C20	C	0.201195	0.187715	-0.285424
C21	C	0.146591	0.187714	-0.285428
O22	O	0.118381	0.163304	-0.313905
N23	N	0.119244	0.216407	-0.251932
C24	C	0.146504	0.245098	-0.218427
O25	O	0.118230	0.269503	-0.189937
C26	C	0.201108	0.245096	-0.218422
C27	C	0.228452	0.216405	-0.251923
C28	C	0.228539	0.159026	-0.318923
C29	C	0.283140	0.159027	-0.318920
C30	C	0.310396	0.187717	-0.285419
C31	C	0.283052	0.216406	-0.251921
C32	C	0.228367	0.273785	-0.184915
C33	C	0.282974	0.273780	-0.184912
C34	C	0.310318	0.245089	-0.218414
C35	C	0.364909	0.245098	-0.218417
N36	N	0.392256	0.216405	-0.251912
C37	C	0.365000	0.187715	-0.285413
C38	C	0.031834	0.245100	-0.218441
C39	C	-0.022769	0.245105	-0.218449
C40	C	-0.022678	0.187720	-0.285448
C41	C	0.031925	0.187718	-0.285443
C42	C	0.059181	0.216408	-0.251936
C43	C	0.479665	0.187719	-0.285406
C44	C	0.534270	0.187724	-0.285401
C45	C	0.534175	0.245107	-0.218400
C46	C	0.479574	0.245104	-0.218406
C47	C	0.452321	0.216407	-0.251910
O48	O	0.393154	0.269494	-0.189953
O49	O	0.393281	0.163310	-0.313894
C50	C	0.755380	0.333131	-0.251887
C51	C	0.755383	0.383065	-0.251891
C52	C	0.788939	0.692702	-0.218510
C53	C	0.788989	0.880375	-0.218522
O54	O	0.817462	0.904634	-0.190131
N55	N	0.755538	0.903850	-0.251926
C56	C	0.722075	0.880405	-0.285332
O57	O	0.693628	0.904678	-0.313749
C58	C	0.722028	0.692732	-0.285323
C59	C	0.755477	0.669259	-0.251913
C60	C	0.822386	0.669229	-0.185103
C61	C	0.822371	0.622313	-0.185098
C62	C	0.788909	0.598871	-0.218501
C63	C	0.755462	0.622344	-0.251908
C64	C	0.688568	0.669288	-0.318731
C65	C	0.688560	0.622367	-0.318727
C66	C	0.722009	0.598894	-0.285317
C67	C	0.721986	0.551986	-0.285306
N68	N	0.755436	0.528511	-0.251901
C69	C	0.788898	0.551953	-0.218499
C70	C	0.722101	0.978935	-0.285334
C71	C	0.722112	1.025853	-0.285336
C72	C	0.789027	1.025820	-0.218526
C73	C	0.789013	0.978901	-0.218522
C74	C	0.755552	0.955460	-0.251930
C75	C	0.788864	0.453427	-0.218491
C76	C	0.788845	0.406508	-0.218488
C77	C	0.721932	0.406545	-0.285300
C78	C	0.721949	0.453460	-0.285301
C79	C	0.755420	0.476900	-0.251895
O80	O	0.693531	0.527698	-0.313686
O81	O	0.817349	0.527671	-0.190095
C82	C	0.788953	0.739617	-0.218515
C83	C	0.755507	0.763090	-0.251922
C84	C	0.722045	0.739648	-0.285324
C85	C	0.755518	0.810008	-0.251924
C86	C	0.788979	0.833451	-0.218521
C87	C	0.822430	0.809975	-0.185117
C88	C	0.822415	0.763060	-0.185112
C89	C	0.688594	0.763123	-0.318729
C90	C	0.688611	0.810039	-0.318730
C91	C	0.722073	0.833481	-0.285328
C92	C	0.891856	0.216412	-0.251939
C93	C	0.949970	0.216413	-0.251948
C94	C	0.755582	1.099230	-0.251949
C95	C	0.755574	1.049295	-0.251934
C96	C	0.755517	0.216388	-0.388291
C97	C	0.755532	0.216379	-0.446405
C98	C	0.722135	0.187591	-0.806779
C99	C	0.722138	0.187583	-0.861383
O100	O	0.693716	0.163156	-0.889629
N101	N	0.755549	0.216309	-0.888688
C102	C	0.788956	0.245047	-0.861385
O103	O	0.817375	0.269480	-0.889623
C104	C	0.788950	0.245057	-0.806781
C105	C	0.755540	0.216327	-0.779480
C106	C	0.688728	0.158863	-0.779477
C107	C	0.688726	0.158871	-0.724877
C108	C	0.722131	0.187606	-0.697578
C109	C	0.755538	0.216334	-0.724879
C110	C	0.822354	0.273798	-0.779479
C111	C	0.822345	0.273806	-0.724872
C112	C	0.788935	0.245075	-0.697571
C113	C	0.788942	0.245078	-0.642980
N114	N	0.755530	0.216352	-0.615675
C115	C	0.722125	0.187616	-0.642974
C116	C	0.788965	0.245025	-0.976055
C117	C	0.788974	0.245013	-1.030658
C118	C	0.722155	0.187549	-1.030652
C119	C	0.722149	0.187559	-0.976049
C120	C	0.755554	0.216299	-0.948751
C121	C	0.722124	0.187634	-0.528309
C122	C	0.722126	0.187643	-0.473704
C123	C	0.788943	0.245109	-0.473714
C124	C	0.788943	0.245098	-0.528314
C125	C	0.755529	0.216360	-0.555611
O126	O	0.817347	0.269494	-0.614699
O127	O	0.693706	0.163192	-0.614729
C128	C	0.755479	0.216396	-0.116075
C129	C	0.755566	0.216278	-0.057961
H130	H	-0.045028	0.268474	-0.191174
H131	H	-0.044881	0.164358	-0.312725
H132	H	0.849609	0.603204	-0.157894
H133	H	0.661312	0.603283	-0.345933
Br134	Br	0.834295	0.284081	-0.565368
Br135	Br	0.834280	0.284102	-0.436655
H136	H	0.457310	0.268472	-0.191133
Br137	Br	0.676806	0.148566	-0.939003
Br138	Br	0.867814	0.731211	-0.139768
Br139	Br	0.834308	0.284030	-0.939013
H140	H	0.694869	1.044961	-0.312537
H141	H	0.054022	0.268467	-0.191157
H142	H	0.694954	0.164151	-1.052889
Br143	Br	0.643379	0.119879	-0.687833
Br144	Br	0.442686	0.148772	-0.330876
H145	H	0.849637	0.688311	-0.157902
H146	H	0.694915	0.164232	-0.550527
Br147	Br	0.676541	0.485318	-0.330631
Br148	Br	0.643210	0.841889	-0.364076
H149	H	0.556531	0.164360	-0.312684
H150	H	0.206113	0.297148	-0.157634
H151	H	0.694686	0.387451	-0.312494
Br152	Br	0.571176	0.284043	-0.172938
H153	H	0.661346	0.744040	-0.345930
H154	H	0.305398	0.135663	-0.346199
Br155	Br	0.319961	0.312719	-0.139437
H156	H	0.816083	0.387397	-0.191280
Br157	Br	0.867840	0.841799	-0.139783
Br158	Br	0.834325	0.283999	-1.067703
H159	H	0.816120	0.472507	-0.191290
Br160	Br	0.676784	0.148647	-0.436655
H161	H	0.849559	0.297194	-0.801699
H162	H	0.206353	0.135660	-0.346203
Br163	Br	0.069029	0.148779	-0.330910
Br164	Br	0.834409	0.947050	-0.173178
H165	H	0.661522	0.135463	-0.801698
H166	H	0.816273	1.044915	-0.191329
Br167	Br	0.867680	0.312815	-0.687828
H168	H	0.661327	0.688391	-0.345935
Br169	Br	0.676685	0.947128	-0.330678
