data_functionalizedCrystal
_audit_creation_method	'MofGen! by Chris Wilmer'
_symmetry_space_group_name_H-M	'P1'
_symmetry_Int_Tables_number	1
_symmetry_cell_setting	triclinic
loop_
_symmetry_equiv_pos_as_xyz
  x,y,z
_cell_length_a	19.188925
_cell_length_b	12.837942
_cell_length_c	11.892052
_cell_angle_alpha	93.963740
_cell_angle_beta	94.380209
_cell_angle_gamma	88.985744
loop_
_atom_site_label
_atom_site_type_symbol
_atom_site_fract_x
_atom_site_fract_y
_atom_site_fract_z
O1	O	0.939394	0.135250	0.094029
O2	O	1.439394	0.635250	0.594029
O3	O	0.737277	0.152672	0.094026
O4	O	1.237277	0.652672	0.594026
O5	O	0.833854	-0.006921	0.094020
O6	O	1.333854	0.493079	0.594020
O7	O	0.842818	0.294844	0.094034
O8	O	1.342818	0.794844	0.594034
O9	O	0.825096	-0.018721	-0.093989
O10	O	1.325096	0.481279	0.406011
O11	O	0.728520	0.140873	-0.093984
O12	O	1.228520	0.640873	0.406016
O13	O	0.930637	0.123451	-0.093981
O14	O	1.430637	0.623451	0.406019
Zn15	Zn	0.828188	0.130288	-0.123833
Zn16	Zn	1.328188	0.630288	0.376167
Zn17	Zn	0.839726	0.145835	0.123878
Zn18	Zn	1.339726	0.645835	0.623878
O19	O	0.834060	0.283045	-0.093975
O20	O	1.334060	0.783045	0.406025
C21	C	0.826447	-0.051428	0.000016
C22	C	1.326447	0.448572	0.500016
C23	C	0.817416	-0.166464	0.000018
C24	C	1.317416	0.333536	0.500018
C25	C	0.706849	0.146209	0.000020
C26	C	1.206849	0.646209	0.500020
C27	C	0.629228	0.144519	0.000019
C28	C	1.129228	0.644519	0.500019
C29	C	0.925985	-0.407916	0.000043
C30	C	1.425985	0.092084	0.500043
C31	C	0.917503	-0.516003	0.000045
C32	C	1.417503	-0.016003	0.500045
C33	C	0.791971	-0.490726	0.000031
C34	C	1.291971	0.009274	0.500031
C35	C	0.800453	-0.382639	0.000029
C36	C	1.300453	0.117361	0.500029
C37	C	0.867462	-0.341239	0.000034
C38	C	1.367462	0.158761	0.500034
C39	C	0.875943	-0.233150	0.000024
C40	C	1.375943	0.266850	0.500024
C41	C	0.750412	-0.207875	0.000018
C42	C	1.250412	0.292125	0.500018
C43	C	0.741930	-0.315962	0.000020
C44	C	1.241930	0.184038	0.500020
C45	C	0.073105	0.226841	0.000026
C46	C	0.573105	0.726841	0.500026
C47	C	0.146038	0.228439	0.000032
C48	C	0.646038	0.728439	0.500032
C49	C	0.184549	0.134795	0.000025
C50	C	0.684549	0.634795	0.500025
C51	C	0.150123	0.039546	0.000042
C52	C	0.650123	0.539546	0.500042
C53	C	0.077191	0.037952	0.000047
C54	C	0.577191	0.537952	0.500047
N55	N	0.297595	0.062983	-0.063978
N56	N	0.797595	0.562983	0.436022
N57	N	0.366876	0.064504	-0.063985
N58	N	0.866876	0.564504	0.436015
C59	C	0.404287	0.139594	0.000012
C60	C	0.904287	0.639594	0.500012
N61	N	0.369798	0.213120	0.064003
N62	N	0.869798	0.713120	0.564003
N63	N	0.300510	0.211601	0.064005
N64	N	0.800510	0.711601	0.564005
C65	C	0.263631	0.136513	0.000021
C66	C	0.763631	0.636513	0.500021
C67	C	0.517787	0.236569	0.000011
C68	C	1.017787	0.736569	0.500011
C69	C	0.590722	0.238164	0.000024
C70	C	1.090722	0.738164	0.500024
C71	C	0.594805	0.049268	0.000022
C72	C	1.094805	0.549268	0.500022
C73	C	0.521872	0.047677	0.000021
C74	C	1.021872	0.547677	0.500021
C75	C	0.483367	0.141330	0.000009
C76	C	0.983367	0.641330	0.500009
C77	C	0.961065	0.129914	0.000027
C78	C	1.461065	0.629914	0.500027
C79	C	1.038687	0.131605	0.000036
C80	C	1.538687	0.631605	0.500036
C81	C	0.841467	0.327551	0.000031
C82	C	1.341467	0.827551	0.500031
C83	C	0.850498	0.442587	0.000037
C84	C	1.350498	0.942587	0.500037
N85	N	0.820318	0.119678	-0.292889
N86	N	1.320318	0.619678	0.207111
C87	C	0.765563	0.045857	-0.470439
C88	C	1.265563	0.545857	0.029561
C89	C	0.771057	0.053271	-0.352096
C90	C	1.271057	0.553271	0.147904
C91	C	0.864088	0.178673	-0.352034
C92	C	1.364088	0.678673	0.147966
C93	C	0.858594	0.171259	-0.470377
C94	C	1.358594	0.671259	0.029623
C95	C	0.809328	0.104850	-0.529576
C96	C	1.309328	0.604850	-0.029576
C97	C	0.803831	0.097442	-0.647921
C98	C	1.303831	0.597442	-0.147921
C99	C	0.896865	0.222838	-0.647857
C100	C	1.396865	0.722838	-0.147857
C101	C	0.902360	0.230252	-0.529514
C102	C	1.402360	0.730252	-0.029514
N103	N	0.847601	0.156437	0.292934
N104	N	1.347601	0.656437	0.792934
H105	H	0.930505	-0.199444	0.000023
H106	H	1.430505	0.300556	0.500023
H107	H	0.965159	-0.570289	0.000056
H108	H	1.465159	-0.070289	0.500056
F109	F	0.916522	0.249335	-0.289012
F110	F	1.416522	0.749335	0.210988
H111	H	0.702758	-0.153574	0.000002
H112	H	1.202758	0.346426	0.500002
F113	F	0.635787	-0.050396	0.000030
F114	F	1.135787	0.449604	0.500030
H115	H	0.763714	0.043372	-0.696119
H116	H	1.263714	0.543372	-0.196119
H117	H	0.737416	-0.524454	0.000040
H118	H	1.237416	-0.024454	0.500040
F119	F	0.997299	-0.363853	0.000024
F120	F	1.497299	0.136147	0.500024
F121	F	0.182676	0.329807	0.000019
F122	F	0.682676	0.829807	0.500019
H123	H	0.687373	-0.349686	0.000021
H124	H	1.187373	0.150314	0.500021
H125	H	0.041759	0.303102	0.000022
H126	H	0.541759	0.803102	0.500022
H127	H	0.181483	-0.036699	0.000040
H128	H	0.681483	0.463301	0.500040
H129	H	0.618744	0.315720	0.000025
H130	H	1.118744	0.815720	0.500025
F131	F	0.485240	-0.053688	0.000034
F132	F	0.985240	0.446312	0.500034
H133	H	0.725443	-0.008207	-0.518640
H134	H	1.225443	0.491793	-0.018640
H135	H	0.049169	-0.039603	0.000055
H136	H	0.549169	0.460397	0.500055
H137	H	0.486435	0.312828	0.000003
H138	H	0.986435	0.812828	0.500003
H139	H	0.735419	0.005232	-0.303951
H140	H	1.235419	0.505232	0.196049
F141	F	0.954790	0.300923	-0.466498
F142	F	1.454790	0.800923	0.033502
F143	F	0.943446	0.285629	-0.710803
F144	F	1.443446	0.785629	-0.210803
