data_functionalizedCrystal
_audit_creation_method	'MofGen! by Chris Wilmer'
_symmetry_space_group_name_H-M	'P1'
_symmetry_Int_Tables_number	1
_symmetry_cell_setting	triclinic
loop_
_symmetry_equiv_pos_as_xyz
  x,y,z
_cell_length_a	15.944551
_cell_length_b	15.944551
_cell_length_c	15.021413
_cell_angle_alpha	89.996935
_cell_angle_beta	89.997174
_cell_angle_gamma	96.501262
loop_
_atom_site_label
_atom_site_type_symbol
_atom_site_fract_x
_atom_site_fract_y
_atom_site_fract_z
O1	O	1.114529	-0.108321	-0.073941
O2	O	0.869979	-0.121677	-0.073964
O3	O	0.998932	0.007276	-0.073944
O4	O	0.985576	-0.237274	-0.073961
O5	O	0.998912	0.007257	0.074121
O6	O	0.869959	-0.121695	0.074101
O7	O	1.114508	-0.108339	0.074123
Zn8	Zn	0.992230	-0.115020	0.097620
Zn9	Zn	0.992257	-0.114996	-0.097461
O10	O	0.985555	-0.237292	0.074103
C11	C	0.838675	-0.121132	0.000066
C12	C	0.745429	-0.119470	0.000057
C13	C	0.530572	-0.035565	0.000081
C14	C	0.469562	-0.074518	-0.072926
C15	C	0.574703	-0.116462	0.000068
C16	C	0.469564	-0.074556	0.073054
C17	C	0.409790	-0.113551	0.000083
C18	C	0.514921	-0.155438	-0.072998
C19	C	0.514930	-0.155464	0.073047
C20	C	0.453937	-0.194476	0.000023
C21	C	0.669705	-0.118137	0.000059
C22	C	0.314789	-0.111883	0.000085
C23	C	0.998367	0.038561	0.000089
C24	C	0.996705	0.131807	0.000089
C25	C	1.145813	-0.108885	0.000092
C26	C	1.239059	-0.110547	0.000094
C27	C	0.986120	-0.268577	0.000069
C28	C	0.987782	-0.361823	0.000063
N29	N	0.992218	-0.115036	0.230758
C30	C	0.912801	0.346663	0.000069
C31	C	0.951753	0.407672	0.073077
C32	C	0.993698	0.302533	0.000082
C33	C	0.951792	0.407673	-0.072903
C34	C	0.990787	0.467445	0.000071
C35	C	1.032672	0.362313	0.073150
C36	C	1.032700	0.362308	-0.072895
C37	C	1.071711	0.423298	0.000131
C38	C	0.995372	0.207530	0.000089
C39	C	0.989119	0.562446	0.000070
N40	N	0.992276	-0.114973	-0.230598
C41	C	0.932581	-0.174636	0.470432
C42	C	1.008481	-0.190943	0.529772
C43	C	0.992239	-0.115015	0.412365
C44	C	0.916360	-0.098727	0.529766
C45	C	0.992253	-0.114997	0.587789
C46	C	1.068178	-0.131360	0.470398
C47	C	0.976006	-0.039111	0.470387
C48	C	1.051962	-0.055386	0.529701
C49	C	0.992230	-0.115028	0.311307
C50	C	0.992271	-0.114984	0.688844
H51	H	0.563905	0.031573	-0.000005
H52	H	1.102474	-0.004956	0.555561
H53	H	1.132368	-0.145206	0.444430
H54	H	0.845652	0.313356	0.000136
O55	O	0.959633	0.037394	0.439086
C56	C	0.941952	0.123252	0.309899
C57	C	0.960538	0.036580	0.345231
H58	H	0.942660	0.122618	0.234014
H59	H	0.992164	0.174250	0.335241
H60	H	0.877209	0.137038	0.334297
H61	H	1.025257	0.022714	0.320848
H62	H	0.910275	-0.014369	0.319896
O63	O	0.910981	0.431506	-0.146604
C64	C	0.836912	0.386742	-0.281284
C65	C	0.883134	0.359643	-0.197871
H66	H	0.814369	0.328654	-0.322747
H67	H	0.881809	0.431912	-0.322610
H68	H	0.780282	0.419727	-0.260208
H69	H	0.939762	0.326623	-0.218868
H70	H	0.838181	0.314512	-0.156565
H71	H	0.449461	-0.040295	-0.134642
H72	H	1.066851	0.342314	0.134941
O73	O	0.839730	-0.082394	0.560769
C74	C	0.690246	-0.126848	0.565852
C75	C	0.776974	-0.145425	0.530671
H76	H	0.639487	-0.177807	0.541548
H77	H	0.675846	-0.062663	0.540378
H78	H	0.691213	-0.126349	0.641737
H79	H	0.776072	-0.145970	0.454789
H80	H	0.791341	-0.209598	0.556213
H81	H	0.882181	-0.225096	0.444409
O82	O	1.024900	-0.267447	0.561051
C83	C	1.043948	-0.352909	0.690207
C84	C	1.025378	-0.266221	0.654906
H85	H	1.044324	-0.351952	0.766092
H86	H	1.108171	-0.367306	0.664838
H87	H	0.993034	-0.403671	0.665813
H88	H	1.076239	-0.215404	0.679285
H89	H	0.961130	-0.251897	0.680268
H90	H	0.534918	-0.189621	-0.134787
O91	O	0.414466	-0.274688	0.000091
C92	C	0.393757	-0.408386	0.076368
C93	C	0.438530	-0.317578	0.076396
H94	H	0.413182	-0.443083	0.138063
H95	H	0.412392	-0.442763	0.014129
H96	H	0.322496	-0.406516	0.076916
H97	H	0.509799	-0.319370	0.075879
H98	H	0.419827	-0.283238	0.138630
O99	O	0.538924	-0.196135	0.146766
C100	C	0.543250	-0.199510	0.307065
C101	C	0.516045	-0.153367	0.223644
H102	H	0.524748	-0.164961	0.369241
H103	H	0.614575	-0.200889	0.306058
H104	H	0.510513	-0.266887	0.307647
H105	H	0.548723	-0.085971	0.223007
H106	H	0.444713	-0.152056	0.224683
O107	O	0.445703	-0.033619	0.146660
C108	C	0.457916	0.096439	0.229793
C109	C	0.485020	0.050166	0.146417
H110	H	0.489678	0.164193	0.229614
H111	H	0.477497	0.062668	0.292038
H112	H	0.386451	0.096722	0.229421
H113	H	0.556481	0.049869	0.146703
H114	H	0.465378	0.083952	0.084209
H115	H	1.138919	0.456457	0.000178
O116	O	0.910792	0.431601	0.146638
C117	C	0.780761	0.419323	0.229836
C118	C	0.827048	0.392175	0.146486
H119	H	0.713051	0.387445	0.229750
H120	H	0.780365	0.490776	0.229465
H121	H	0.814629	0.399799	0.292038
H122	H	0.793216	0.411641	0.084239
H123	H	0.827451	0.320723	0.146935
H124	H	1.066896	0.342185	-0.134615
