data_functionalizedCrystal
_audit_creation_method	'MofGen! by Chris Wilmer'
_symmetry_space_group_name_H-M	'P1'
_symmetry_Int_Tables_number	1
_symmetry_cell_setting	triclinic
loop_
_symmetry_equiv_pos_as_xyz
  x,y,z
_cell_length_a	17.077404
_cell_length_b	19.076808
_cell_length_c	17.077396
_cell_angle_alpha	92.329364
_cell_angle_beta	90.019501
_cell_angle_gamma	92.323651
loop_
_atom_site_label
_atom_site_type_symbol
_atom_site_fract_x
_atom_site_fract_y
_atom_site_fract_z
Zn1	Zn	1.187485	-0.280213	0.431271
Zn2	Zn	1.182112	-0.397923	0.294725
Zn3	Zn	1.056216	-0.280237	0.300018
Zn4	Zn	1.050907	-0.397881	0.425950
O5	O	1.119180	-0.339064	0.362991
O6	O	1.296619	-0.295834	0.413170
O7	O	1.165385	-0.382340	0.185579
O8	O	1.078100	-0.181738	0.321872
O9	O	1.292672	-0.382316	0.312849
O10	O	1.174543	-0.181719	0.418303
O11	O	1.072890	-0.295877	0.189468
O12	O	0.945665	-0.295836	0.316712
O13	O	1.069051	-0.382245	0.536504
O14	O	0.941765	-0.382268	0.409233
O15	O	1.169395	-0.295794	0.540414
O16	O	1.160237	-0.496414	0.307689
O17	O	1.063841	-0.496383	0.404100
C18	C	0.915233	-0.339051	0.362970
C19	C	0.827982	-0.339062	0.362979
C20	C	0.784979	-0.384136	0.411071
C21	C	0.702998	-0.384137	0.411084
C22	C	0.664023	-0.339068	0.362999
C23	C	0.707032	-0.293990	0.314905
C24	C	0.789012	-0.293986	0.314897
C25	C	0.536162	-0.294004	0.314923
C26	C	0.454177	-0.294009	0.314929
C27	C	0.450148	-0.384156	0.411110
C28	C	0.532128	-0.384151	0.411102
C29	C	0.575132	-0.339074	0.363006
C30	C	1.110901	-0.521938	0.354760
C31	C	1.107431	-0.600172	0.351265
C32	C	1.155976	-0.636857	0.399870
C33	C	1.152713	-0.710366	0.396588
C34	C	1.100908	-0.747190	0.344695
C35	C	1.052357	-0.710500	0.296088
C36	C	1.055617	-0.636992	0.299375
C37	C	1.085773	-0.967043	0.329480
C38	C	1.082519	-1.040556	0.326195
C39	C	1.182873	-1.040418	0.426696
C40	C	1.186132	-0.966908	0.429975
C41	C	1.137579	-0.930225	0.381371
N42	N	1.097572	-0.822328	0.341337
N43	N	1.140911	-0.855088	0.384733
C44	C	1.323924	-0.339077	0.363013
C45	C	1.411173	-0.339083	0.363022
C46	C	1.119230	-0.339012	0.567738
C47	C	1.119251	-0.338990	0.654989
C48	C	1.127513	-0.155475	0.371271
C49	C	1.131064	-0.077241	0.374800
C50	C	1.119178	-0.339065	0.159043
C51	C	1.119318	-0.338888	0.071802
C52	C	1.171502	-0.293971	0.698016
C53	C	1.171513	-0.293948	0.779997
C54	C	1.119275	-0.338947	0.818950
C55	C	1.067019	-0.383967	0.775917
C56	C	1.067005	-0.383987	0.693937
C57	C	1.067052	-0.383925	0.946789
C58	C	1.067067	-0.383907	1.028774
C59	C	1.171560	-0.293886	1.032849
C60	C	1.171546	-0.293905	0.950870
C61	C	1.119290	-0.338927	0.907842
H62	H	0.422446	-0.257302	0.275785
H63	H	1.024484	-0.420604	0.807639
H64	H	1.214086	-0.257267	0.919157
H65	H	1.228316	-0.936928	0.472230
C66	C	1.217962	-0.253859	1.160325
C67	C	1.228988	-0.244384	1.080143
H68	H	1.253412	-0.223296	1.189523
H69	H	1.227314	-0.301140	1.171632
H70	H	1.165685	-0.243555	1.174201
H71	H	1.281264	-0.254694	1.066266
H72	H	1.219642	-0.197093	1.068831
C73	C	0.623924	-0.394040	0.516212
C74	C	0.574972	-0.433690	0.463958
H75	H	0.650377	-0.424624	0.548841
H76	H	0.593340	-0.363417	0.547674
H77	H	0.661264	-0.367198	0.487558
H78	H	0.537628	-0.460528	0.492613
H79	H	0.605559	-0.464325	0.432493
C80	C	0.872888	-0.478828	0.417537
C81	C	0.827816	-0.433678	0.463928
H82	H	0.899327	-0.509415	0.450173
H83	H	0.910232	-0.451985	0.388901
H84	H	0.839667	-0.505712	0.382083
H85	H	0.861037	-0.406790	0.499379
H86	H	0.790467	-0.460524	0.492577
H87	H	1.214042	-0.257330	0.666307
H88	H	0.415131	-0.420857	0.450273
C89	C	1.274807	-0.204980	0.775790
C90	C	1.228954	-0.244467	0.827293
H91	H	1.310273	-0.174435	0.804990
H92	H	1.241827	-0.178060	0.745026
H93	H	1.303429	-0.235668	0.742436
H94	H	1.200327	-0.213778	0.860644
H95	H	1.261939	-0.271388	0.858071
H96	H	0.667988	-0.420841	0.450245
C97	C	1.195135	-0.614117	0.533843
C98	C	1.212918	-0.596381	0.456915
H99	H	1.230285	-0.589126	0.569062
H100	H	1.200146	-0.663140	0.538836
H101	H	1.142917	-0.602102	0.545806
H102	H	1.265135	-0.608401	0.444950
H103	H	1.207915	-0.547347	0.451918
C104	C	0.531913	-0.204911	0.219835
C105	C	0.583433	-0.244462	0.262046
H106	H	0.561098	-0.174334	0.187185
H107	H	0.501176	-0.178021	0.255294
H108	H	0.498533	-0.235556	0.188386
H109	H	0.616810	-0.213817	0.293499
H110	H	0.614183	-0.271353	0.226582
H111	H	0.675292	-0.257291	0.275757
C112	C	1.046198	-0.854429	0.289895
C113	C	1.032408	-0.926726	0.276052
H114	H	1.013247	-0.829538	0.256912
H115	H	1.099475	-0.842348	0.278993
H116	H	1.035213	-0.842369	0.343168
H117	H	1.043399	-0.938787	0.222780
H118	H	0.979119	-0.938812	0.286949
H119	H	1.024529	-0.420548	1.060487
H120	H	1.192249	-0.740232	0.436161
C121	C	0.963792	-0.472934	0.950990
C122	C	1.009629	-0.433430	0.899491
H123	H	0.928353	-0.503503	0.921788
H124	H	0.935147	-0.442263	0.984332
H125	H	0.996792	-0.499835	0.981768
H126	H	0.976630	-0.406524	0.868716
H127	H	1.038276	-0.464104	0.866135
H128	H	1.024449	-0.420638	0.658905
H129	H	0.824025	-0.257279	0.275739
C130	C	1.016053	-0.524368	0.259794
C131	C	1.002256	-0.596664	0.245947
H132	H	0.983102	-0.499474	0.226814
H133	H	1.069330	-0.512290	0.248891
H134	H	1.005069	-0.512310	0.313068
H135	H	1.013245	-0.608724	0.192675
H136	H	0.948967	-0.608747	0.256845
C137	C	1.222432	-1.153038	0.466289
C138	C	1.236233	-1.080742	0.480127
H139	H	1.255372	-1.177931	0.499283
H140	H	1.233421	-1.165104	0.413026
H141	H	1.169145	-1.165112	0.477188
H142	H	1.289519	-1.068667	0.469223
H143	H	1.225250	-1.068671	0.533402
H144	H	1.040329	-1.070536	0.283937
H145	H	1.010173	-0.740487	0.253840
