data_functionalizedCrystal
_audit_creation_method	'MofGen! by Chris Wilmer'
_symmetry_space_group_name_H-M	'P1'
_symmetry_Int_Tables_number	1
_symmetry_cell_setting	triclinic
loop_
_symmetry_equiv_pos_as_xyz
  x,y,z
_cell_length_a	14.853567
_cell_length_b	15.995350
_cell_length_c	13.930277
_cell_angle_alpha	89.997676
_cell_angle_beta	89.995755
_cell_angle_gamma	83.563653
loop_
_atom_site_label
_atom_site_type_symbol
_atom_site_fract_x
_atom_site_fract_y
_atom_site_fract_z
O1	O	1.196221	0.109317	-0.079760
O2	O	1.696221	0.609317	0.420240
O3	O	0.933744	0.122339	-0.079776
O4	O	1.433744	0.622339	0.420224
O5	O	1.072157	-0.006051	-0.079766
O6	O	1.572157	0.493949	0.420234
O7	O	1.057808	0.237707	-0.079769
O8	O	1.557808	0.737707	0.420231
O9	O	1.072138	-0.006054	0.079895
O10	O	1.572138	0.493946	0.579895
O11	O	0.933725	0.122336	0.079886
O12	O	1.433725	0.622336	0.579886
O13	O	1.196202	0.109314	0.079902
O14	O	1.696202	0.609314	0.579902
Zn15	Zn	1.064960	0.115825	0.105244
Zn16	Zn	1.564960	0.615825	0.605244
Zn17	Zn	1.064986	0.115828	-0.105117
Zn18	Zn	1.564986	0.615828	0.394883
O19	O	1.057788	0.237705	0.079893
O20	O	1.557788	0.737705	0.579893
C21	C	0.900146	0.121748	0.000053
C22	C	1.400146	0.621748	0.500053
C23	C	0.800065	0.119980	0.000047
C24	C	1.300065	0.619980	0.500047
C25	C	1.071555	-0.037248	0.000063
C26	C	1.571555	0.462752	0.500063
C27	C	1.069776	-0.130201	0.000057
C28	C	1.569776	0.369799	0.500057
C29	C	0.387644	0.036238	0.000069
C30	C	0.887644	0.536238	0.500069
C31	C	0.366158	0.188769	0.000067
C32	C	0.866158	0.688769	0.500067
C33	C	0.460189	0.190432	0.000064
C34	C	0.960189	0.690432	0.500064
C35	C	0.517953	0.114996	0.000062
C36	C	1.017953	0.614996	0.500062
C37	C	0.481685	0.037899	0.000063
C38	C	0.981685	0.537899	0.500063
C39	C	0.496464	0.267528	0.000053
C40	C	0.996464	0.767528	0.500053
C41	C	0.590501	0.269194	0.000048
C42	C	1.090501	0.769194	0.500048
C43	C	0.648266	0.193758	0.000054
C44	C	1.148266	0.693758	0.500054
C45	C	0.611993	0.116657	0.000056
C46	C	1.111993	0.616657	0.500056
C47	C	0.669757	0.041221	0.000054
C48	C	1.169757	0.541221	0.500054
C49	C	0.633485	-0.035880	0.000064
C50	C	1.133485	0.464120	0.500064
C51	C	0.539450	-0.037538	0.000069
C52	C	1.039450	0.462462	0.500069
C53	C	0.742302	0.195415	0.000049
C54	C	1.242302	0.695415	0.500049
C55	C	0.763797	0.042882	0.000048
C56	C	1.263797	0.542882	0.500048
C57	C	1.063389	-0.467956	0.000060
C58	C	1.563389	0.032044	0.500060
C59	C	0.964813	-0.420636	-0.000304
C60	C	1.464813	0.079364	0.499696
C61	C	0.966592	-0.323944	0.000056
C62	C	1.466592	0.176056	0.500056
C63	C	1.066557	-0.300391	0.000058
C64	C	1.566557	0.199609	0.500058
C65	C	1.115167	-0.341414	0.091234
C66	C	1.615167	0.158586	0.591234
C67	C	1.112691	-0.438052	0.091310
C68	C	1.612691	0.061948	0.591310
C69	C	1.114749	-0.438405	-0.090255
C70	C	1.614749	0.061595	0.409745
C71	C	1.114726	-0.341460	-0.091460
C72	C	1.614726	0.158540	0.408540
C73	C	1.068353	-0.205692	0.000060
C74	C	1.568353	0.294308	0.500060
C75	C	1.061596	-0.562655	0.000064
C76	C	1.561596	-0.062655	0.500064
C77	C	1.229799	0.109906	0.000071
C78	C	1.729799	0.609906	0.500071
C79	C	1.329881	0.111674	0.000071
C80	C	1.829881	0.611674	0.500071
C81	C	1.058391	0.268901	0.000062
C82	C	1.558391	0.768901	0.500062
C83	C	1.060170	0.361854	0.000061
C84	C	1.560170	0.861854	0.500061
N85	N	1.064950	0.115822	0.248810
N86	N	1.564950	0.615822	0.748810
N87	N	1.065003	0.115825	-0.248684
N88	N	1.565003	0.615825	0.251316
C89	C	1.003694	0.172657	0.701075
C90	C	1.503694	0.672657	1.201075
C91	C	1.126302	0.058993	0.701053
C92	C	1.626302	0.558993	1.201053
C93	C	1.126292	0.058990	0.600557
C94	C	1.626292	0.558990	1.100557
C95	C	1.064982	0.115823	0.550316
C96	C	1.564982	0.615823	1.050316
C97	C	1.003683	0.172658	0.600570
C98	C	1.503683	0.672658	1.100570
C99	C	1.187595	0.002162	0.550295
C100	C	1.687595	0.502162	1.050295
C101	C	1.187588	0.002158	0.449793
C102	C	1.687588	0.502158	0.949793
C103	C	1.126273	0.058987	0.399550
C104	C	1.626273	0.558987	0.899550
C105	C	1.064971	0.115824	0.449811
C106	C	1.564971	0.615824	0.949811
C107	C	1.003661	0.172656	0.399569
C108	C	1.503661	0.672656	0.899569
C109	C	0.942354	0.229490	0.449828
C110	C	1.442354	0.729490	0.949828
C111	C	0.942368	0.229487	0.550327
C112	C	1.442368	0.729487	1.050327
C113	C	1.126259	0.058989	0.299051
C114	C	1.626259	0.558989	0.799051
C115	C	1.003651	0.172657	0.299064
C116	C	1.503651	0.672657	0.799064
H117	H	0.680529	-0.097299	0.000056
H118	H	1.180529	0.402701	0.500056
H119	H	0.928381	-0.295565	-0.065303
H120	H	1.428381	0.204435	0.434697
N121	N	0.879743	0.287527	0.601668
N122	N	1.379743	0.787527	1.101668
N123	N	0.823798	0.260860	0.657764
N124	N	1.323798	0.760860	1.157764
H125	H	0.779569	0.301850	0.694028
H126	H	1.279569	0.801850	1.194028
N127	N	0.437450	0.344570	0.000024
N128	N	0.937450	0.844570	0.500024
N129	N	0.353493	0.343073	0.000020
N130	N	0.853493	0.843073	0.500020
H131	H	0.311808	0.397487	-0.000006
H132	H	0.811808	0.897487	0.499994
N133	N	0.822797	-0.034176	0.000027
N134	N	1.322797	0.465824	0.500027
N135	N	0.877662	-0.050269	-0.067283
N136	N	1.377662	0.449731	0.432717
H137	H	0.919331	-0.104692	-0.067299
H138	H	1.419331	0.395308	0.432701
H139	H	1.187428	-0.470081	-0.090866
H140	H	1.687428	0.029919	0.409134
N141	N	1.068178	-0.461068	0.176791
N142	N	1.568178	0.038932	0.676791
N143	N	0.997705	-0.496784	0.171122
N144	N	1.497705	0.003216	0.671122
H145	H	0.966263	-0.513035	0.231493
H146	H	1.466263	-0.013035	0.731493
H147	H	0.358108	-0.026536	0.000081
H148	H	0.858108	0.473464	0.500081
N149	N	0.941036	0.230714	0.247733
N150	N	1.441036	0.730714	0.747733
N151	N	0.941039	0.230714	0.158002
N152	N	1.441039	0.730714	0.658002
H153	H	0.896819	0.271717	0.121748
H154	H	1.396819	0.771717	0.621748
N155	N	0.502384	-0.116281	0.000077
N156	N	1.002384	0.383719	0.500077
N157	N	0.418423	-0.117750	0.000078
N158	N	0.918423	0.382250	0.500078
H159	H	0.392241	-0.173362	0.000081
H160	H	0.892241	0.326638	0.500081
H161	H	0.319121	0.250185	0.000060
H162	H	0.819121	0.750185	0.500060
N163	N	0.627532	0.347954	0.000036
N164	N	1.127532	0.847954	0.500036
N165	N	0.575947	0.415300	0.000033
N166	N	1.075947	0.915300	0.500033
H167	H	0.602100	0.470926	0.000026
H168	H	1.102100	0.970926	0.500026
H169	H	1.187625	-0.326013	-0.096963
H170	H	1.687625	0.173987	0.403037
H171	H	0.953776	0.218928	0.741998
H172	H	1.453776	0.718928	1.241998
H173	H	0.925421	-0.439212	-0.065688
H174	H	1.425421	0.060788	0.434312
N175	N	0.915614	-0.445245	0.081284
N176	N	1.415614	0.054755	0.581284
N177	N	0.884963	-0.391352	0.141346
N178	N	1.384963	0.108648	0.641346
H179	H	0.850224	-0.408729	0.198976
H180	H	1.350224	0.091271	0.698976
H181	H	0.771830	0.258190	0.000043
H182	H	1.271830	0.758190	0.500043
N183	N	1.207294	-0.323580	0.095526
N184	N	1.707294	0.176420	0.595526
N185	N	1.256867	-0.351239	0.163533
N186	N	1.756867	0.148761	0.663533
H187	H	1.321932	-0.338640	0.166566
H188	H	1.821932	0.161360	0.666566
N189	N	1.250189	-0.055900	0.398445
N190	N	1.750189	0.444100	0.898445
N191	N	1.250167	-0.055899	0.308714
N192	N	1.750167	0.444101	0.808714
H193	H	1.294377	-0.096904	0.272447
H194	H	1.794377	0.403096	0.772447
N195	N	0.918307	-0.289038	0.082175
N196	N	1.418307	0.210962	0.582175
N197	N	0.836487	-0.298414	0.092843
N198	N	1.336487	0.201586	0.592843
H199	H	0.802383	-0.273763	0.150844
H200	H	1.302383	0.226237	0.650844
N201	N	1.250217	-0.055899	0.601598
N202	N	1.750217	0.444101	1.101598
N203	N	1.304946	-0.106637	0.556717
N204	N	1.804946	0.393363	1.056717
H205	H	1.349175	-0.147647	0.592953
H206	H	1.849175	0.352353	1.092953
H207	H	1.185063	-0.470216	0.095448
H208	H	1.685063	0.029784	0.595448
H209	H	1.176223	0.012726	0.741962
H210	H	1.676223	0.512726	1.241962
H211	H	0.892439	0.275767	0.408910
H212	H	1.392439	0.775767	0.908910
H213	H	1.176179	0.012720	0.258135
H214	H	1.676179	0.512720	0.758135
H215	H	1.081389	-0.313073	0.159082
H216	H	1.581389	0.186927	0.659082
N217	N	1.074346	-0.464228	-0.176952
N218	N	1.574346	0.035772	0.323048
N219	N	1.070600	-0.540639	-0.193042
N220	N	1.570600	-0.040639	0.306958
H221	H	1.042060	-0.558878	-0.254269
H222	H	1.542060	-0.058878	0.245731
N223	N	1.070191	-0.307262	-0.176072
N224	N	1.570191	0.192738	0.323928
N225	N	1.003226	-0.252843	-0.169074
N226	N	1.503226	0.247157	0.330926
H227	H	0.971770	-0.228686	-0.228829
H228	H	1.471770	0.271314	0.271171
