data_functionalizedCrystal
_audit_creation_method	'MofGen! by Chris Wilmer'
_symmetry_space_group_name_H-M	'P1'
_symmetry_Int_Tables_number	1
_symmetry_cell_setting	triclinic
loop_
_symmetry_equiv_pos_as_xyz
  x,y,z
_cell_length_a	20.875652
_cell_length_b	14.446369
_cell_length_c	20.875641
_cell_angle_alpha	90.002056
_cell_angle_beta	64.820057
_cell_angle_gamma	57.588375
loop_
_atom_site_label
_atom_site_type_symbol
_atom_site_fract_x
_atom_site_fract_y
_atom_site_fract_z
Zr1	Zr	0.697944	0.857792	-0.056484
O2	O	0.824850	0.708252	-0.150794
O3	O	0.566001	0.908737	-0.030864
O4	O	0.690673	0.908731	-0.155536
O5	O	0.707671	0.702458	0.075966
O6	O	0.690667	1.061068	-0.155533
O7	O	0.700178	0.708258	-0.026122
O8	O	0.467653	1.061078	0.067483
O9	O	0.930685	0.702448	-0.147050
O10	O	0.622133	1.037987	-0.015958
O11	O	0.627729	0.919971	0.060226
O12	O	0.774513	0.919965	-0.086559
O13	O	0.780109	0.801949	-0.010375
Zr14	Zr	0.709885	1.091503	0.106340
Zr15	Zr	0.697936	1.100753	-0.056478
Zr16	Zr	0.709894	0.848543	0.106335
Zr17	Zr	0.866740	0.848536	-0.050512
Zr18	Zr	0.541090	1.100760	0.100368
O19	O	0.841828	1.040559	0.080721
O20	O	0.824837	1.053710	-0.150786
O21	O	0.841841	0.695101	0.080712
O22	O	0.582980	1.241043	0.200651
O23	O	0.565989	1.254195	-0.030856
O24	O	0.582993	0.895585	0.200643
O25	O	0.700159	1.246837	-0.026110
O26	O	0.717157	1.040565	0.205393
O27	O	0.717162	0.888227	0.205389
O28	O	0.707651	1.241038	0.075978
O29	O	0.930678	0.895569	-0.147045
O30	O	0.477151	1.053726	0.196902
O31	O	0.477144	1.246847	0.196906
O32	O	0.467646	1.254199	0.067487
O33	O	0.940184	0.695096	-0.017631
O34	O	0.940177	0.888217	-0.017627
O35	O	0.633316	1.029331	0.136416
O36	O	0.627721	1.147346	0.060231
O37	O	0.780101	1.029324	-0.010370
O38	O	0.785697	0.911309	0.065815
C39	C	0.492777	0.986226	0.017458
C40	C	0.421119	0.990156	0.014923
C41	C	0.017458	1.018893	-0.003643
C42	C	0.084789	1.015193	-0.001259
C43	C	0.121369	0.951747	0.039706
C44	C	0.090619	0.891986	0.078283
C45	C	0.023292	0.895680	0.075894
C46	C	0.323043	0.934089	0.051111
C47	C	0.390372	0.930403	0.053499
C48	C	0.384539	1.053609	-0.026044
C49	C	0.317208	1.057302	-0.028426
C50	C	0.286467	0.997537	0.010148
N51	N	0.190191	0.947967	0.042146
N52	N	0.217651	1.001311	0.007704
C53	C	0.703926	0.670741	0.024921
C54	C	0.703930	0.567598	0.024919
C55	C	0.800043	0.346482	-0.019368
C56	C	0.800091	0.453726	-0.019634
C57	C	0.651869	0.568980	-0.011882
C58	C	0.652476	0.461196	-0.012210
C59	C	0.659108	0.455951	0.106039
C60	C	0.660976	0.561824	0.105974
C61	C	0.915052	0.963069	0.032398
C62	C	0.986710	0.959140	0.034933
C63	C	0.688967	0.986217	-0.178733
C64	C	0.683894	0.990144	-0.247853
C65	C	0.703904	1.278554	0.024935
C66	C	0.703900	1.381697	0.024938
C67	C	0.761050	0.930384	-0.317180
C68	C	0.756278	0.934089	-0.382123
C69	C	0.674350	0.997547	-0.377739
C70	C	0.597189	1.057314	-0.308406
C71	C	0.601961	1.053615	-0.243464
C72	C	0.651547	1.015220	-0.568015
C73	C	0.646780	1.018911	-0.632964
C74	C	0.805870	0.895687	-0.706677
C75	C	0.810635	0.891989	-0.641730
C76	C	0.733474	0.951761	-0.572403
N77	N	0.669470	1.001332	-0.444122
N78	N	0.738355	0.947982	-0.506022
C79	C	0.718862	0.963078	0.228589
C80	C	0.723935	0.959151	0.297710
C81	C	0.492766	1.290132	0.017466
C82	C	0.421105	1.397205	0.014933
C83	C	0.507725	0.974657	0.221119
C84	C	0.441140	0.974660	0.287705
C85	C	0.507714	1.278563	0.221127
C86	C	0.441125	1.381709	0.287714
C87	C	0.900116	0.670733	-0.171270
C88	C	0.966705	0.567587	-0.237858
C89	C	0.915063	0.659163	0.032391
C90	C	0.986725	0.552090	0.034923
C91	C	0.900105	0.974639	-0.171263
C92	C	0.966690	0.974636	-0.237849
C93	C	0.384534	1.390403	-0.026034
C94	C	0.317209	1.491001	-0.028428
C95	C	0.286450	1.598398	0.010148
C96	C	0.323027	1.605197	0.051116
C97	C	0.390356	1.504601	0.053506
C98	C	0.412788	1.031745	0.358751
C99	C	0.350234	1.031743	0.421322
C100	C	0.316028	0.974661	0.412845
C101	C	0.344386	0.917568	0.341791
C102	C	0.406944	0.917564	0.279222
C103	C	0.406933	1.491760	0.279217
C104	C	0.344375	1.588686	0.341778
C105	C	0.316005	1.575558	0.412835
C106	C	0.350203	1.465495	0.421331
C107	C	0.412765	1.368571	0.358771
C108	C	1.000905	0.457535	-0.229361
C109	C	1.063484	0.360608	-0.291921
C110	C	1.091858	0.373736	-0.362977
C111	C	1.057655	0.483799	-0.371473
C112	C	0.995081	0.580723	-0.308914
C113	C	1.023302	0.558892	0.075883
C114	C	1.090645	0.458295	0.078261
C115	C	1.121406	0.350897	0.039682
C116	C	1.084826	0.344098	-0.001283
C117	C	1.017488	0.444694	-0.003664
C118	C	1.000876	1.031729	-0.229348
C119	C	1.063431	1.031748	-0.291906
C120	C	1.091804	0.974667	-0.362964
C121	C	1.057612	0.917573	-0.371464
C122	C	0.995053	0.917561	-0.308907
H123	H	0.420161	0.878723	0.086852
H124	H	0.877350	0.840318	-0.645308
Br125	Br	0.535584	1.105037	-0.627011
H126	H	1.142809	0.294804	-0.413911
H127	H	0.265091	0.974673	0.463799
Br128	Br	0.445410	0.840088	0.182804
Br129	Br	0.962409	0.439686	-0.132934
H130	H	0.430022	1.502472	0.221365
Br131	Br	1.109826	1.109234	-0.280353
Br132	Br	0.967852	0.435442	-0.059254
H133	H	0.977785	1.078211	-0.171494
Br134	Br	0.281271	1.750961	0.103469
H135	H	1.142744	0.974685	-0.413896
Br136	Br	0.497246	1.134739	-0.149375
Br137	Br	1.126580	0.198334	-0.053634
H138	H	0.588716	1.063891	-0.511574
H139	H	0.440596	1.278966	0.365700
H140	H	0.298020	0.885427	0.082523
Br141	Br	1.096135	0.840099	-0.467906
Br142	Br	0.703638	0.379836	-0.111813
Br143	Br	1.096169	0.501596	-0.467913
Br144	Br	0.948672	0.840059	-0.320457
H145	H	0.409576	1.302964	-0.057457
Br146	Br	0.297974	1.738043	0.330230
Br147	Br	0.311692	1.447698	0.517771
H148	H	-0.012325	1.070564	-0.036997
H149	H	0.287435	1.485442	-0.061789
Br150	Br	1.140273	0.467549	0.133861
Br151	Br	0.126522	1.096281	-0.053621
Br152	Br	0.533753	0.702987	0.039064
H153	H	1.176237	0.268994	0.041627
H154	H	0.287426	1.108965	-0.061782
Br155	Br	0.981573	0.704633	0.128245
Br156	Br	1.109887	0.211251	-0.280373
H157	H	0.409576	1.102265	-0.057450
Br158	Br	0.948670	0.730077	-0.320460
H159	H	-0.001739	0.847020	0.107305
Br160	Br	0.867678	0.445265	0.021840
Br161	Br	0.140266	0.805871	0.133874
H162	H	0.840870	0.289053	0.005407
H163	H	0.834503	0.292816	-0.078775
H164	H	0.834668	0.452611	-0.079405
Br165	Br	0.541127	0.505029	0.161385
H166	H	0.420123	1.510155	0.086870
Br167	Br	0.534604	0.509209	0.037778
H168	H	0.681807	0.572663	-0.071090
H169	H	0.693142	0.402515	0.136446
Br170	Br	0.724304	0.555212	0.151755
H171	H	0.265062	1.654489	0.463769
Br172	Br	0.872244	0.844254	-0.323138
Br173	Br	0.544465	0.696730	0.166078
H174	H	0.819106	0.885428	-0.438570
H175	H	0.868690	0.847026	-0.763129
Br176	Br	0.195073	1.734912	0.006897
Br177	Br	0.485999	1.143442	-0.302455
H178	H	0.440631	1.078228	0.365668
H179	H	0.327152	1.078238	0.479171
H180	H	0.316527	0.871094	0.334899
