data_functionalizedCrystal
_audit_creation_method	'MofGen! by Chris Wilmer'
_symmetry_space_group_name_H-M	'P1'
_symmetry_Int_Tables_number	1
_symmetry_cell_setting	triclinic
loop_
_symmetry_equiv_pos_as_xyz
  x,y,z
_cell_length_a	14.044220
_cell_length_b	10.654550
_cell_length_c	12.503567
_cell_angle_alpha	86.444345
_cell_angle_beta	86.159795
_cell_angle_gamma	91.163110
loop_
_atom_site_label
_atom_site_type_symbol
_atom_site_fract_x
_atom_site_fract_y
_atom_site_fract_z
O1	O	1.265120	-0.296343	-0.089201
O2	O	0.989081	-0.285407	-0.089229
O3	O	1.133447	-0.108774	-0.089210
O4	O	1.120754	-0.472976	-0.089220
O5	O	1.122576	-0.122072	0.089431
O6	O	0.978210	-0.298705	0.089413
O7	O	1.254250	-0.309640	0.089440
Cu8	Cu	1.115237	-0.305387	0.105738
Cu9	Cu	1.128093	-0.289661	-0.105526
O10	O	1.109883	-0.486274	0.089422
C11	C	0.948300	-0.287270	0.000088
C12	C	0.842981	-0.272994	0.000078
C13	C	1.127080	-0.068531	0.000109
C14	C	1.124292	0.071193	0.000105
N15	N	1.106202	-0.316448	0.254329
C16	C	0.650147	-0.246897	0.000100
C17	C	0.593179	-0.348145	0.000102
C18	C	0.485879	-0.333624	0.000114
C19	C	0.757456	-0.261415	0.000088
C20	C	1.295031	-0.307778	0.000120
C21	C	1.400350	-0.322053	0.000124
C22	C	1.116251	-0.526517	0.000100
C23	C	1.119039	-0.666240	0.000097
C24	C	1.209292	0.142136	0.000117
C25	C	1.206667	0.273421	0.000109
C26	C	1.034033	0.262808	0.000082
C27	C	1.036659	0.131526	0.000082
C28	C	1.296924	0.081803	0.000139
C29	C	1.381931	0.152747	0.000152
C30	C	1.379306	0.284032	0.000144
C31	C	1.291673	0.344374	0.000124
C32	C	1.150417	-0.262330	0.526768
C33	C	1.092919	-0.332720	0.473437
C34	C	1.100312	-0.323664	0.351514
C35	C	1.143025	-0.271384	0.648702
N36	N	1.137131	-0.278605	0.745882
H37	H	0.624992	-0.445732	0.000094
H38	H	0.618335	-0.149318	0.000108
H39	H	1.299071	-0.025096	0.000149
H40	H	1.453280	0.103610	0.000142
H41	H	1.448524	0.341792	0.000144
H42	H	0.962686	0.311949	0.000067
H43	H	1.289543	0.451276	0.000106
H44	H	0.967444	0.073762	0.000074
H45	H	1.205191	-0.195271	0.480865
H46	H	1.038142	-0.399785	0.519345
