data_functionalizedCrystal
_audit_creation_method	'MofGen! by Chris Wilmer'
_symmetry_space_group_name_H-M	'P1'
_symmetry_Int_Tables_number	1
_symmetry_cell_setting	triclinic
loop_
_symmetry_equiv_pos_as_xyz
  x,y,z
_cell_length_a	16.974829
_cell_length_b	15.500215
_cell_length_c	16.992695
_cell_angle_alpha	92.999191
_cell_angle_beta	87.025716
_cell_angle_gamma	96.836845
loop_
_atom_site_label
_atom_site_type_symbol
_atom_site_fract_x
_atom_site_fract_y
_atom_site_fract_z
O1	O	1.062549	0.146338	0.106564
O2	O	1.562549	0.646338	0.606564
O3	O	0.832366	0.130224	0.118559
O4	O	1.332366	0.630224	0.618559
O5	O	0.946534	0.138210	-0.001583
O6	O	1.446534	0.638210	0.498417
O7	O	0.948381	0.138353	0.226707
O8	O	1.448381	0.638353	0.726707
O9	O	0.939532	-0.006170	-0.008104
O10	O	1.439532	0.493830	0.491896
O11	O	0.825363	-0.014156	0.112038
O12	O	1.325363	0.485844	0.612038
O13	O	1.055546	0.001958	0.100044
O14	O	1.555546	0.501958	0.600044
Cu15	Cu	0.939815	-0.019282	0.105446
Cu16	Cu	1.439815	0.480718	0.605446
Cu17	Cu	0.948097	0.151464	0.113157
Cu18	Cu	1.448097	0.651464	0.613157
O19	O	0.941378	-0.006027	0.220186
O20	O	1.441378	0.493973	0.720186
C21	C	0.799275	0.055963	0.114720
C22	C	1.299275	0.555963	0.614720
C23	C	0.711108	0.049790	0.112987
C24	C	1.211108	0.549790	0.612987
N25	N	0.933996	-0.139375	0.100021
N26	N	1.433996	0.360625	0.600021
C27	C	0.214407	0.006598	0.102876
C28	C	0.714407	0.506598	0.602876
C29	C	0.297250	0.012400	0.104504
C30	C	0.797250	0.512400	0.604504
C31	C	0.342489	0.094003	0.108867
C32	C	0.842489	0.594003	0.608867
C33	C	0.304881	0.169810	0.111610
C34	C	0.804881	0.669810	0.611610
C35	C	0.222039	0.164008	0.109987
C36	C	0.722039	0.664008	0.609987
C37	C	0.590658	0.119795	0.114107
C38	C	1.090658	0.619795	0.614107
C39	C	0.673506	0.125592	0.115727
C40	C	1.173506	0.625592	0.615727
C41	C	0.665869	-0.031819	0.108623
C42	C	1.165869	0.468181	0.608623
C43	C	0.583026	-0.037614	0.106996
C44	C	1.083026	0.462386	0.606996
C45	C	0.545425	0.038193	0.109743
C46	C	1.045425	0.538193	0.609743
N47	N	0.427168	0.099935	0.110529
N48	N	0.927168	0.599935	0.610529
N49	N	0.460747	0.032260	0.108086
N50	N	0.960747	0.532260	0.608086
C51	C	0.982925	-0.181220	0.145664
C52	C	1.482925	0.318780	0.645664
C53	C	0.978535	-0.272100	0.141557
C54	C	1.478535	0.227900	0.641557
C55	C	0.925210	-0.321135	0.091811
C56	C	1.425210	0.178865	0.591811
C57	C	0.876279	-0.279284	0.046163
C58	C	1.376279	0.220716	0.546163
C59	C	0.880674	-0.188405	0.050267
C60	C	1.380674	0.311595	0.550267
C61	C	0.909386	-0.595712	0.077031
C62	C	1.409386	-0.095712	0.577031
C63	C	0.904993	-0.686597	0.072933
C64	C	1.404993	-0.186597	0.572933
C65	C	1.007250	-0.679408	0.168326
C66	C	1.507250	-0.179408	0.668326
C67	C	1.011637	-0.588527	0.172428
C68	C	1.511637	-0.088527	0.672428
C69	C	0.962709	-0.546684	0.126777
C70	C	1.462709	-0.046684	0.626777
C71	C	0.920719	-0.414030	0.087613
C72	C	1.420719	0.085970	0.587613
C73	C	0.967204	-0.453790	0.130971
C74	C	1.467204	0.046210	0.630971
C75	C	1.088637	0.076222	0.103883
C76	C	1.588637	0.576222	0.603883
C77	C	1.176805	0.082400	0.105616
C78	C	1.676805	0.582400	0.605616
C79	C	0.940659	0.065854	-0.034061
C80	C	1.440659	0.565854	0.465939
C81	C	0.933575	0.065358	-0.121120
C82	C	1.433575	0.565358	0.378880
N83	N	0.953922	0.271558	0.118575
N84	N	1.453922	0.771558	0.618575
C85	C	1.001922	0.070142	-0.171216
C86	C	1.501922	0.570142	0.328784
C87	C	0.995262	0.069684	-0.253017
C88	C	1.495262	0.569684	0.246983
C89	C	0.920254	0.064436	-0.284720
C90	C	1.420254	0.564436	0.215280
C91	C	0.851902	0.059654	-0.234617
C92	C	1.351902	0.559654	0.265383
C93	C	0.858563	0.060118	-0.152818
C94	C	1.358563	0.560118	0.347182
C95	C	0.892646	0.062515	-0.528375
C96	C	1.392646	0.562515	-0.028375
C97	C	0.885990	0.062048	-0.610181
C98	C	1.385990	0.562048	-0.110181
C99	C	1.029351	0.072080	-0.628575
C100	C	1.529351	0.572080	-0.128575
C101	C	1.036006	0.072538	-0.546774
C102	C	1.536006	0.572538	-0.046774
C103	C	0.967654	0.067761	-0.496678
C104	C	1.467654	0.567761	0.003322
N105	N	0.913444	0.063965	-0.368333
N106	N	1.413444	0.563965	0.131667
N107	N	0.974464	0.068239	-0.413066
N108	N	1.474464	0.568239	0.086934
C109	C	0.947253	0.066331	0.252664
C110	C	1.447253	0.566331	0.752664
C111	C	0.954337	0.066832	0.339723
C112	C	1.454337	0.566832	0.839723
H113	H	0.177578	-0.059852	0.099327
H114	H	0.677578	0.440148	0.599327
N115	N	0.770999	0.053986	-0.268809
N116	N	1.270999	0.553986	0.231191
H117	H	0.728712	0.051026	-0.224659
H118	H	1.228712	0.551026	0.275341
H119	H	0.767707	0.107095	-0.299929
H120	H	1.267707	0.607095	0.200071
N121	N	0.818925	0.057359	-0.474353
N122	N	1.318925	0.557359	0.025647
H123	H	0.834521	0.058456	-0.417721
H124	H	1.334521	0.558456	0.082279
H125	H	0.789062	0.108613	-0.482221
H126	H	1.289062	0.608613	0.017779
N127	N	1.040437	-0.128335	0.199322
N128	N	1.540437	0.371665	0.699322
H129	H	1.070768	-0.168638	0.227611
H130	H	1.570768	0.331362	0.727611
H131	H	1.078877	-0.088062	0.166937
H132	H	1.578877	0.411938	0.666937
N133	N	1.060029	-0.724529	0.217558
N134	N	1.560029	-0.224529	0.717558
H135	H	1.026102	-0.764486	0.254149
H136	H	1.526102	-0.264486	0.754149
H137	H	1.094867	-0.759613	0.181764
H138	H	1.594867	-0.259613	0.681764
N139	N	0.181482	0.245766	0.112931
N140	N	0.681482	0.745766	0.612931
H141	H	0.122138	0.229709	0.111242
H142	H	0.622138	0.729709	0.611242
H143	H	0.194281	0.280923	0.163334
H144	H	0.694281	0.780923	0.663334
H145	H	0.546199	-0.104065	0.103426
H146	H	1.046199	0.395935	0.603426
H147	H	0.802907	0.056223	-0.112030
H148	H	1.302907	0.556223	0.387970
N149	N	0.337798	-0.069364	0.101553
N150	N	0.837798	0.430636	0.601553
H151	H	0.325061	-0.104550	0.051147
H152	H	0.825061	0.395450	0.551147
H153	H	0.397129	-0.053245	0.103280
H154	H	0.897129	0.446755	0.603280
H155	H	1.055061	-0.548608	0.212934
H156	H	1.555061	-0.048608	0.712934
N157	N	0.706419	-0.113581	0.105670
N158	N	1.206419	0.386419	0.605670
H159	H	0.743969	-0.114460	0.057617
H160	H	1.243969	0.385540	0.557617
H161	H	0.737225	-0.114862	0.154789
H162	H	1.237225	0.385138	0.654789
N163	N	0.722303	0.213611	0.120432
N164	N	1.222303	0.713611	0.620432
H165	H	0.685913	0.260755	0.121928
H166	H	1.185913	0.760755	0.621928
H167	H	0.753496	0.219211	0.169828
H168	H	1.253496	0.719211	0.669828
N169	N	0.550109	0.201555	0.117058
N170	N	1.050109	0.701555	0.617058
H171	H	0.591341	0.254128	0.120061
H172	H	1.091341	0.754128	0.620061
H173	H	0.519253	0.202799	0.067967
H174	H	1.019253	0.702799	0.567967
H175	H	1.018380	-0.306166	0.178722
H176	H	1.518380	0.193834	0.678722
N177	N	0.353670	0.257827	0.116319
N178	N	0.853670	0.757827	0.616319
H179	H	0.411856	0.250002	0.116928
H180	H	0.911856	0.750002	0.616928
H181	H	0.344200	0.291409	0.069015
H182	H	0.844200	0.791409	0.569015
N183	N	0.847466	-0.739489	0.019286
N184	N	1.347466	-0.239489	0.519286
H185	H	0.817134	-0.699192	-0.009009
H186	H	1.317134	-0.199192	0.490991
H187	H	0.877797	-0.774952	-0.020657
H188	H	1.377797	-0.274952	0.479343
N189	N	1.068979	0.074833	-0.307050
N190	N	1.568979	0.574833	0.192950
H191	H	1.072015	0.128387	-0.338977
H192	H	1.572015	0.628387	0.161023
H193	H	1.117463	0.078185	-0.274500
H194	H	1.617463	0.578185	0.225500
H195	H	0.869545	-0.561654	0.039858
H196	H	1.369545	-0.061654	0.539858
H197	H	0.832865	-0.319215	0.005655
H198	H	1.332865	0.180785	0.505655
H199	H	0.840831	-0.154336	0.013100
H200	H	1.340831	0.345664	0.513100
H201	H	1.097085	0.076812	-0.520968
H202	H	1.597085	0.576812	-0.020968
N203	N	1.024719	-0.400902	0.184619
N204	N	1.524719	0.099098	0.684619
H205	H	0.994429	-0.365445	0.224607
H206	H	1.494429	0.134555	0.724607
H207	H	1.055039	-0.441250	0.212862
H208	H	1.555039	0.058750	0.712862
H209	H	1.085000	0.075970	-0.669371
H210	H	1.585000	0.575970	-0.169371
N211	N	1.082827	0.075797	-0.137030
N212	N	1.582827	0.575797	0.362970
H213	H	1.091385	0.129732	-0.101078
H214	H	1.591385	0.629732	0.398922
H215	H	1.086134	0.022649	-0.105966
H216	H	1.586134	0.522649	0.394034
H217	H	0.824906	0.057761	-0.635990
H218	H	1.324906	0.557761	-0.135990
H219	H	0.877302	-0.453964	0.047110
H220	H	1.377302	0.046036	0.547110
