data_functionalizedCrystal
_audit_creation_method	'MofGen! by Chris Wilmer'
_symmetry_space_group_name_H-M	'P1'
_symmetry_Int_Tables_number	1
_symmetry_cell_setting	triclinic
loop_
_symmetry_equiv_pos_as_xyz
  x,y,z
_cell_length_a	18.215407
_cell_length_b	25.639239
_cell_length_c	18.215399
_cell_angle_alpha	90.030589
_cell_angle_beta	90.019833
_cell_angle_gamma	90.039732
loop_
_atom_site_label
_atom_site_type_symbol
_atom_site_fract_x
_atom_site_fract_y
_atom_site_fract_z
Zn1	Zn	1.124998	-0.208150	0.416102
Zn2	Zn	1.124876	-0.295586	0.293030
Zn3	Zn	1.001931	-0.208167	0.293050
Zn4	Zn	1.001866	-0.295557	0.416055
O5	O	1.063418	-0.251865	0.354559
O6	O	1.227966	-0.219754	0.399788
O7	O	1.108543	-0.284009	0.190049
O8	O	1.018335	-0.135000	0.309401
O9	O	1.227876	-0.283992	0.309368
O10	O	1.108752	-0.134987	0.399807
O11	O	1.018216	-0.219783	0.190063
O12	O	0.898938	-0.219754	0.309355
O13	O	1.018224	-0.283943	0.519046
O14	O	0.898890	-0.283959	0.399727
O15	O	1.108689	-0.219725	0.519080
O16	O	1.108480	-0.368747	0.309322
O17	O	1.018105	-0.368726	0.399708
C18	C	0.872211	-0.251856	0.354538
C19	C	0.790413	-0.251865	0.354547
C20	C	1.063292	-0.387708	0.354524
C21	C	1.063305	-0.445822	0.354533
C22	C	0.602213	-0.285349	0.401544
C23	C	0.525354	-0.285350	0.401553
C24	C	0.525374	-0.218391	0.307591
C25	C	0.602232	-0.218387	0.307586
C26	C	0.640649	-0.251869	0.354561
C27	C	0.486933	-0.251874	0.354576
C28	C	0.403599	-0.251876	0.354585
C29	C	0.723988	-0.251867	0.354553
C30	C	1.016351	-0.697016	0.401608
C31	C	1.016323	-0.642412	0.401600
O32	O	0.976280	-0.614176	0.441600
N33	N	1.063398	-0.615095	0.354572
C34	C	1.110508	-0.642386	0.307554
O35	O	1.150547	-0.614137	0.267553
C36	C	1.110539	-0.696989	0.307567
C37	C	1.063456	-0.724303	0.354593
C38	C	0.969272	-0.724330	0.448631
C39	C	0.969298	-0.778931	0.448638
C40	C	1.016404	-0.806217	0.401623
C41	C	1.063482	-0.778904	0.354601
C42	C	1.157652	-0.724279	0.260554
C43	C	1.157679	-0.778886	0.260571
C44	C	1.110596	-0.806200	0.307597
C45	C	1.110614	-0.860791	0.307593
N46	N	1.063539	-0.888107	0.354621
C47	C	1.016434	-0.860821	0.401636
C48	C	1.110442	-0.527715	0.307532
C49	C	1.110408	-0.473113	0.307515
C50	C	1.016224	-0.473143	0.401562
C51	C	1.016254	-0.527746	0.401574
C52	C	1.063367	-0.555032	0.354560
C53	C	1.016493	-0.975486	0.401647
C54	C	1.016521	-1.030091	0.401649
C55	C	1.110708	-1.030057	0.307605
C56	C	1.110677	-0.975456	0.307601
C57	C	1.063567	-0.948172	0.354628
O58	O	1.150639	-0.889061	0.267615
O59	O	0.976409	-0.889076	0.441637
C60	C	1.255371	-0.251874	0.354581
C61	C	1.337169	-0.251878	0.354590
C62	C	1.063463	-0.251829	0.546512
C63	C	1.063482	-0.251814	0.628311
C64	C	1.063564	-0.115492	0.354611
C65	C	1.063626	-0.057378	0.354633
C66	C	1.063415	-0.251863	0.163353
C67	C	1.063539	-0.251731	0.081555
C68	C	1.110604	-0.218344	0.816525
C69	C	1.110612	-0.218329	0.893383
C70	C	1.016412	-0.285202	0.893336
C71	C	1.016400	-0.285214	0.816479
C72	C	1.063500	-0.251786	0.778075
C73	C	1.063521	-0.251759	0.931791
C74	C	1.063530	-0.251742	1.015125
C75	C	1.063490	-0.251802	0.694736
H76	H	0.633490	-0.312611	0.439797
C77	C	0.644514	-0.181558	0.255901
H78	H	0.610628	-0.161623	0.227918
H79	H	0.674528	-0.158801	0.284109
H80	H	0.674465	-0.201532	0.223782
H81	H	1.148805	-0.549928	0.269241
C82	C	0.964732	-1.060133	0.453383
H83	H	0.936681	-1.036059	0.481387
H84	H	0.932691	-1.081472	0.425209
H85	H	0.992881	-1.081397	0.485481
H86	H	0.978037	-0.312446	0.785172
C87	C	0.964613	-0.321974	0.935582
H88	H	0.971371	-0.317182	0.986863
H89	H	0.915171	-0.314326	0.922983
H90	H	0.975352	-0.357107	0.922971
H91	H	0.494063	-0.312613	0.439813
C92	C	0.483113	-0.181569	0.255914
H93	H	0.431834	-0.186370	0.262639
H94	H	0.495741	-0.146448	0.266767
H95	H	0.495685	-0.189182	0.206446
H96	H	0.978132	-0.953277	0.439942
H97	H	0.930913	-0.702118	0.486920
C98	C	0.917515	-0.808969	0.500375
H99	H	0.889466	-0.784891	0.528376
H100	H	0.885471	-0.830310	0.472208
H101	H	0.945665	-0.830230	0.532476
H102	H	0.977919	-0.549981	0.439871
H103	H	0.977869	-0.450916	0.439845
C104	C	1.162195	-0.443074	0.255782
H105	H	1.190254	-0.467150	0.227789
H106	H	1.134056	-0.421807	0.223685
H107	H	1.194239	-0.421738	0.283963
C108	C	1.209451	-0.694245	0.208831
H109	H	1.237512	-0.718324	0.180845
H110	H	1.181320	-0.672979	0.176728
H111	H	1.241493	-0.672911	0.237017
H112	H	1.196047	-0.801099	0.222288
H113	H	1.149057	-1.052283	0.269324
C114	C	1.162463	-0.945410	0.255871
H115	H	1.190522	-0.969483	0.227873
H116	H	1.134324	-0.924140	0.223777
H117	H	1.194507	-0.924077	0.284056
H118	H	1.148954	-0.191123	0.785259
C119	C	1.162430	-0.181545	0.935675
H120	H	1.190481	-0.161643	0.901793
H121	H	1.134310	-0.158757	0.965661
H122	H	1.194481	-0.201546	0.965654
