data_functionalizedCrystal
_audit_creation_method	'MofGen! by Chris Wilmer'
_symmetry_space_group_name_H-M	'P1'
_symmetry_Int_Tables_number	1
_symmetry_cell_setting	triclinic
loop_
_symmetry_equiv_pos_as_xyz
  x,y,z
_cell_length_a	9.065218
_cell_length_b	16.956984
_cell_length_c	7.540329
_cell_angle_alpha	89.996050
_cell_angle_beta	89.996962
_cell_angle_gamma	80.534652
loop_
_atom_site_label
_atom_site_type_symbol
_atom_site_fract_x
_atom_site_fract_y
_atom_site_fract_z
O1	O	1.943261	0.116816	-0.147488
O2	O	1.512570	0.126398	-0.147491
O3	O	1.753791	0.005715	-0.147477
O4	O	1.702040	0.237499	-0.147502
O5	O	1.753778	0.005714	0.147488
O6	O	1.512557	0.126397	0.147474
O7	O	1.943248	0.116815	0.147477
Cu8	Cu	1.727901	0.121606	0.174408
Cu9	Cu	1.727917	0.121608	-0.174422
O10	O	1.702027	0.237498	0.147463
C11	C	1.457712	0.125477	-0.000008
C12	C	1.294273	0.122723	-0.000009
C13	C	1.756434	-0.023974	0.000005
C14	C	1.764313	-0.112438	0.000004
C15	C	1.632584	-0.145474	-0.000005
C16	C	1.639996	-0.228595	-0.000000
C17	C	1.779137	-0.278680	0.000000
C18	C	1.910876	-0.245639	0.000014
C19	C	1.903463	-0.162519	0.000022
C20	C	1.815831	-0.528188	-0.000011
C21	C	1.823234	-0.611313	-0.000024
C22	C	1.552353	-0.594263	-0.000036
C23	C	1.544952	-0.511142	-0.000038
C24	C	1.676690	-0.478109	-0.000015
N25	N	1.786716	-0.363644	-0.000000
N26	N	1.669110	-0.393146	-0.000002
C27	C	1.998106	0.117737	-0.000009
C28	C	2.161545	0.120490	-0.000020
C29	C	1.699384	0.267188	-0.000023
C30	C	1.691505	0.355651	-0.000033
N31	N	1.727901	0.121604	0.419757
N32	N	1.727929	0.121603	-0.419771
H33	H	1.519280	-0.104700	-0.000014
O34	O	2.031383	-0.130389	0.000336
C35	C	2.180174	-0.046406	0.153110
C36	C	2.035259	-0.082753	0.152987
H37	H	2.183340	-0.007872	0.276496
H38	H	2.280951	-0.096448	0.153219
H39	H	2.183465	-0.007945	0.029617
H40	H	2.031822	-0.121206	0.276459
H41	H	1.934549	-0.032673	0.152785
O42	O	1.511890	-0.260554	-0.000088
C43	C	1.242432	-0.234872	0.000008
C44	C	1.387401	-0.198574	0.000059
H45	H	1.141746	-0.184778	0.000164
H46	H	1.239031	-0.273330	-0.123461
H47	H	1.239205	-0.273389	0.123424
H48	H	1.390725	-0.160020	-0.123274
H49	H	1.390743	-0.160162	0.123609
H50	H	1.445099	-0.621169	-0.000051
O51	O	1.409666	-0.462607	0.000057
C52	C	1.141772	-0.454471	-0.000036
C53	C	1.294884	-0.509529	-0.000099
H54	H	1.048930	-0.492385	-0.000200
H55	H	1.131432	-0.415153	0.123442
H56	H	1.131611	-0.415106	-0.123443
H57	H	1.305149	-0.548944	0.123224
H58	H	1.305157	-0.548793	-0.123659
O59	O	1.958527	-0.659853	0.000055
C60	C	2.226422	-0.667997	-0.000043
C61	C	2.073315	-0.612935	-0.000080
H62	H	2.319269	-0.630086	-0.000189
H63	H	2.236754	-0.707333	0.123417
H64	H	2.236584	-0.707343	-0.123468
H65	H	2.063049	-0.573539	0.123262
H66	H	2.063051	-0.573653	-0.123621
H67	H	2.024168	-0.286425	0.000026
H68	H	1.923101	-0.501302	0.000003
