data_functionalizedCrystal
_audit_creation_method	'MofGen! by Chris Wilmer'
_symmetry_space_group_name_H-M	'P1'
_symmetry_Int_Tables_number	1
_symmetry_cell_setting	triclinic
loop_
_symmetry_equiv_pos_as_xyz
  x,y,z
_cell_length_a	23.532407
_cell_length_b	23.532407
_cell_length_c	16.176319
_cell_angle_alpha	90.011464
_cell_angle_beta	90.002085
_cell_angle_gamma	82.848678
loop_
_atom_site_label
_atom_site_type_symbol
_atom_site_fract_x
_atom_site_fract_y
_atom_site_fract_z
O1	O	0.755262	0.069136	0.068652
O2	O	0.589398	0.079139	0.068677
O3	O	0.677332	-0.008794	0.068649
O4	O	0.667328	0.157070	0.068680
O5	O	0.677320	-0.008799	-0.068845
O6	O	0.589386	0.079134	-0.068816
O7	O	0.755250	0.069131	-0.068841
Cu8	Cu	0.672317	0.074132	-0.081383
Cu9	Cu	0.672331	0.074138	0.081219
O10	O	0.667316	0.157064	-0.068813
C11	C	0.568176	0.078882	-0.000066
C12	C	0.504959	0.078116	-0.000057
C13	C	0.105856	0.125350	-0.000086
C14	C	0.046456	0.124638	-0.000091
O15	O	0.009711	0.168424	-0.000113
N16	N	0.023830	0.072362	-0.000100
C17	C	0.060607	0.020794	-0.000111
O18	O	0.035908	-0.023737	-0.000120
C19	C	0.120006	0.021506	-0.000112
C20	C	0.142629	0.073785	-0.000095
C21	C	0.128479	0.177625	-0.000070
C22	C	0.187876	0.178336	-0.000063
C23	C	0.224649	0.126772	-0.000072
C24	C	0.202025	0.074496	-0.000088
C25	C	0.156783	-0.030062	-0.000130
C26	C	0.216185	-0.029345	-0.000131
C27	C	0.238808	0.022934	-0.000114
C28	C	0.298194	0.023643	-0.000091
N29	N	0.320820	0.075920	-0.000082
C30	C	0.284048	0.127484	-0.000073
C31	C	-0.064135	0.019302	-0.000111
C32	C	-0.123533	0.018589	-0.000105
C33	C	-0.137680	0.122434	-0.000086
C34	C	-0.078281	0.123146	-0.000087
C35	C	-0.041509	0.071578	-0.000103
C36	C	0.408784	0.128974	-0.000058
C37	C	0.468186	0.129680	-0.000048
C38	C	0.482329	0.025836	-0.000071
C39	C	0.422932	0.025129	-0.000077
C40	C	0.386160	0.076702	-0.000073
O41	O	0.334974	-0.020119	-0.000073
O42	O	0.308755	0.172007	-0.000075
C43	C	0.677071	-0.030013	-0.000100
C44	C	0.676305	-0.093230	-0.000106
C45	C	0.776472	0.069388	-0.000096
C46	C	0.839689	0.070154	-0.000100
C47	C	0.723539	-0.492333	-0.000068
C48	C	0.722827	-0.551733	-0.000062
O49	O	0.766613	-0.588478	-0.000038
N50	N	0.670551	-0.574359	-0.000055
C51	C	0.618983	-0.537582	-0.000045
O52	O	0.574452	-0.562281	-0.000037
C53	C	0.619695	-0.478182	-0.000046
C54	C	0.671974	-0.455560	-0.000061
C55	C	0.775814	-0.469710	-0.000083
C56	C	0.776525	-0.410313	-0.000091
C57	C	0.724961	-0.373540	-0.000084
C58	C	0.672685	-0.396164	-0.000069
C59	C	0.568127	-0.441406	-0.000030
C60	C	0.568844	-0.382004	-0.000030
C61	C	0.621123	-0.359381	-0.000046
C62	C	0.621832	-0.299995	-0.000070
N63	N	0.674109	-0.277368	-0.000078
C64	C	0.725673	-0.314141	-0.000085
C65	C	0.617491	-0.662324	-0.000043
C66	C	0.616778	-0.721722	-0.000048
C67	C	0.720623	-0.735869	-0.000063
C68	C	0.721335	-0.676470	-0.000064
C69	C	0.669767	-0.639698	-0.000050
C70	C	0.727163	-0.189405	-0.000102
C71	C	0.727869	-0.130003	-0.000113
C72	C	0.624025	-0.115860	-0.000094
C73	C	0.623318	-0.175257	-0.000087
C74	C	0.674891	-0.212029	-0.000088
O75	O	0.578070	-0.263215	-0.000091
O76	O	0.770196	-0.289433	-0.000081
C77	C	0.667577	0.178283	-0.000062
C78	C	0.668343	0.241500	-0.000051
N79	N	0.672311	0.074127	-0.195748
C80	C	0.711260	0.035206	-0.239025
C81	C	0.711262	0.035205	-0.325572
C82	C	0.672319	0.074129	-0.368841
C83	C	0.633367	0.113052	-0.325558
C84	C	0.633361	0.113049	-0.239012
C85	C	0.633386	0.113062	-0.674586
C86	C	0.633395	0.113063	-0.761138
C87	C	0.711287	0.035218	-0.761146
C88	C	0.711282	0.035216	-0.674600
C89	C	0.672328	0.074136	-0.631325
C90	C	0.672324	0.074136	-0.537481
C91	C	0.672325	0.074132	-0.462683
N92	N	0.672342	0.074139	0.195584
H93	H	-0.167632	0.164421	-0.000082
Cl94	Cl	0.760242	-0.013717	-0.620209
H95	H	0.742974	0.003512	-0.203801
H96	H	0.206289	0.220908	-0.000049
H97	H	-0.141947	-0.023982	-0.000106
Cl98	Cl	0.528568	-0.038984	-0.000087
H99	H	0.582043	-0.085909	-0.000091
H100	H	0.580748	-0.193677	-0.000097
Cl101	Cl	0.785447	-0.782109	-0.000066
H102	H	0.601669	0.144754	-0.639358
H103	H	0.819097	-0.391900	-0.000101
H104	H	0.404512	-0.017441	-0.000079
Cl105	Cl	0.551053	-0.750154	-0.000044
Cl106	Cl	0.760226	-0.013726	-0.379979
Cl107	Cl	0.584406	0.161983	-0.379951
Cl108	Cl	0.840647	-0.515929	-0.000093
H109	H	0.601645	0.144742	-0.203777
Cl110	Cl	0.791999	-0.235622	-0.000105
Cl111	Cl	0.496622	0.195408	-0.000024
Cl112	Cl	0.760257	-0.013714	-0.815554
Cl113	Cl	0.584433	0.161999	-0.815532
H114	H	0.378851	0.170970	-0.000058
Cl115	Cl	0.552656	-0.616101	-0.000035
Cl116	Cl	-0.049848	0.188872	-0.000068
Cl117	Cl	-0.017912	-0.045533	-0.000122
Cl118	Cl	0.082260	0.242458	-0.000056
Cl119	Cl	0.787061	-0.648037	-0.000083
Cl120	Cl	0.128358	-0.095789	-0.000138
H121	H	0.246123	-0.071339	-0.000145
H122	H	0.526850	-0.352066	-0.000018
Cl123	Cl	0.793597	-0.101567	-0.000132
Cl124	Cl	0.502400	-0.469831	-0.000005
