data_functionalizedCrystal
_audit_creation_method	'MofGen! by Chris Wilmer'
_symmetry_space_group_name_H-M	'P1'
_symmetry_Int_Tables_number	1
_symmetry_cell_setting	triclinic
loop_
_symmetry_equiv_pos_as_xyz
  x,y,z
_cell_length_a	9.065218
_cell_length_b	14.519731
_cell_length_c	12.996460
_cell_angle_alpha	89.988498
_cell_angle_beta	90.005633
_cell_angle_gamma	95.647631
loop_
_atom_site_label
_atom_site_type_symbol
_atom_site_fract_x
_atom_site_fract_y
_atom_site_fract_z
O1	O	1.957886	-0.135227	0.085584
O2	O	1.528395	-0.146319	0.085586
O3	O	1.754511	-0.006619	0.085564
O4	O	1.731769	-0.274927	0.085606
O5	O	1.754488	-0.006611	-0.085570
O6	O	1.528371	-0.146311	-0.085547
O7	O	1.957862	-0.135219	-0.085550
Cu8	Cu	1.743114	-0.140764	-0.101175
Cu9	Cu	1.743142	-0.140774	0.101211
O10	O	1.731746	-0.274919	-0.085528
C11	C	1.473416	-0.145249	0.000020
C12	C	1.309632	-0.142062	0.000020
C13	C	1.753434	0.027752	-0.000006
C14	C	1.750241	0.130156	-0.000015
C15	C	2.012841	-0.136289	0.000019
C16	C	2.176624	-0.139476	0.000026
N17	N	1.743106	-0.140757	-0.243522
C18	C	1.747646	0.213319	-0.000020
C19	C	1.744404	0.317651	-0.000021
C20	C	1.741831	0.400809	-0.000021
C21	C	1.738589	0.505148	-0.000024
C22	C	1.732823	0.690710	0.000023
C23	C	1.736016	0.588306	-0.000025
C24	C	1.743140	-0.140775	-0.663336
C25	C	1.743126	-0.140773	-0.546531
C26	C	1.743124	-0.140767	-0.453433
C27	C	1.743108	-0.140763	-0.336620
N28	N	1.743163	-0.140774	0.243558
