data_functionalizedCrystal
_audit_creation_method	'MofGen! by Chris Wilmer'
_symmetry_space_group_name_H-M	'P1'
_symmetry_Int_Tables_number	1
_symmetry_cell_setting	triclinic
loop_
_symmetry_equiv_pos_as_xyz
  x,y,z
_cell_length_a	27.435584
_cell_length_b	27.434948
_cell_length_c	27.431174
_cell_angle_alpha	60.005483
_cell_angle_beta	60.011353
_cell_angle_gamma	59.993028
loop_
_atom_site_label
_atom_site_type_symbol
_atom_site_fract_x
_atom_site_fract_y
_atom_site_fract_z
O1	O	0.067437	-0.712144	0.595551
O2	O	0.025356	-0.554453	0.479848
O3	O	0.125206	-0.654236	0.479781
O4	O	-0.032412	-0.612361	0.595618
O5	O	0.158328	-0.621117	0.512835
O6	O	0.058479	-0.521333	0.512902
O7	O	0.100560	-0.679025	0.628605
Zn8	Zn	0.084778	-0.594921	0.576001
Zn9	Zn	0.041138	-0.638557	0.532452
O10	O	0.000710	-0.579241	0.628672
N11	N	0.114563	-0.565144	0.605726
N12	N	0.011358	-0.668338	0.502727
C13	C	0.156385	-0.523520	0.904506
C14	C	0.413419	-0.523497	0.647322
C15	C	0.156253	-0.523488	0.647384
C16	C	0.156238	-0.266354	0.647407
C17	C	0.197637	-0.390463	0.688753
C18	C	0.197646	-0.482126	0.688741
C19	C	0.220575	-0.459215	0.711654
C20	C	0.320555	-0.441991	0.659023
C21	C	0.383051	-0.462825	0.638179
C22	C	0.383069	-0.563942	0.676737
C23	C	0.320575	-0.543107	0.697583
C24	C	0.212704	-0.359206	0.627313
C25	C	0.191849	-0.296705	0.606496
C26	C	0.140866	-0.296722	0.708562
C27	C	0.161721	-0.359223	0.729379
C28	C	0.136200	-0.467030	0.703858
C29	C	0.115361	-0.487857	0.683021
C30	C	0.217408	-0.538877	0.631968
C31	C	0.238249	-0.518050	0.652796
C32	C	0.136259	-0.467047	0.811668
C33	C	0.115461	-0.487892	0.874167
C34	C	0.217537	-0.538923	0.874131
C35	C	0.238333	-0.518080	0.811631
C36	C	0.197693	-0.482140	0.780401
C37	C	0.289320	-0.482131	0.688723
C38	C	0.132699	-0.546027	0.973247
C39	C	0.482158	-0.545613	0.624075
C40	C	0.132521	-0.546006	0.624886
C41	C	0.132917	-0.197607	0.625310
C42	C	-0.098217	-0.686189	0.484419
C43	C	-0.006438	-0.686322	0.392891
C44	C	-0.006621	-0.777944	0.484592
C45	C	-0.006606	-0.686315	0.484649
C46	C	-0.029470	-0.709193	0.461638
N47	N	0.538410	-0.565162	0.605628
O48	O	0.742647	-0.575135	0.458625
O49	O	0.742821	-0.691181	0.616169
O50	O	0.742757	-0.690917	0.516248
O51	O	0.742711	-0.575399	0.558546
O52	O	0.643472	-0.657878	0.549405
O53	O	0.643536	-0.658142	0.649326
O54	O	0.643362	-0.542096	0.491782
Zn55	Zn	0.627685	-0.594873	0.575818
Zn56	Zn	0.758498	-0.638404	0.532133
O57	O	0.643426	-0.542360	0.591702
N58	N	0.847774	-0.668115	0.502317
N59	N	0.114542	-0.141354	0.605766
O60	O	-0.032397	0.062987	0.595660
O61	O	0.125155	0.062987	0.479633
O62	O	0.025219	0.062974	0.479910
O63	O	0.067539	0.063001	0.595383
O64	O	0.058343	-0.036320	0.513009
O65	O	0.158279	-0.036306	0.512732
O66	O	0.000728	-0.036306	0.628759
Zn67	Zn	0.084763	-0.052071	0.576000
Zn68	Zn	0.041120	0.078752	0.532392
O69	O	0.100664	-0.036292	0.628482
N70	N	0.011333	0.168036	0.502628
N71	N	0.114782	-0.565197	1.029501
O72	O	0.104681	-0.712124	1.233827
O73	O	-0.011334	-0.554523	1.233839
O74	O	-0.011066	-0.654443	1.233797
O75	O	0.104414	-0.612204	1.233869
O76	O	0.022028	-0.621336	1.134509
O77	O	0.021760	-0.521417	1.134551
O78	O	0.137775	-0.679018	1.134539
Zn79	Zn	0.085022	-0.594961	1.118780
Zn80	Zn	0.041420	-0.638580	1.249597
O81	O	0.137508	-0.579098	1.134580
N82	N	0.011658	-0.668350	1.338876
C83	C	0.037974	-0.518023	0.480435
C84	C	0.161625	-0.641592	0.480351
C85	C	0.087941	-0.715455	0.628017
C86	C	-0.035710	-0.591885	0.628101
C87	C	0.693199	-0.690642	0.652596
C88	C	0.693122	-0.690315	0.528855
C89	C	0.692981	-0.542634	0.455356
C90	C	0.693062	-0.542961	0.579095
C91	C	0.161524	0.013463	0.480164
C92	C	0.037807	0.013324	0.480547
C93	C	-0.035683	0.013341	0.628188
C94	C	0.088076	0.013357	0.627845
C95	C	-0.010764	-0.518114	1.184196
C96	C	-0.010426	-0.641846	1.184125
C97	C	0.137205	-0.715426	1.184182
C98	C	0.136875	-0.591687	1.184231
H99	H	0.103160	-0.437777	0.786243
O100	O	0.215415	0.013821	0.436651
C101	C	0.313609	0.014283	0.408739
C102	C	0.252601	0.013892	0.458064
H103	H	0.343695	0.014327	0.426038
H104	H	0.307123	0.055936	0.368151
H105	H	0.335188	-0.027171	0.395522
H106	H	0.230988	0.055317	0.471333
H107	H	0.259126	-0.027789	0.498620
O108	O	-0.089707	0.013456	0.671593
C109	C	-0.195912	0.064893	0.700408
C110	C	-0.134767	0.064840	0.651206
H111	H	-0.232360	0.106426	0.683939
H112	H	-0.196011	0.064944	0.741992
H113	H	-0.204634	0.023320	0.711705
H114	H	-0.126006	0.106406	0.639858
H115	H	-0.134697	0.064758	0.609653
H116	H	0.250475	-0.568133	0.602707
O117	O	-0.054275	-0.464141	1.184171
C118	C	-0.154928	-0.402960	1.184183
C119	C	-0.105700	-0.464106	1.184199
H120	H	-0.196520	-0.402915	1.184219
H121	H	-0.138546	-0.366491	1.142631
H122	H	-0.166172	-0.394219	1.225735
H123	H	-0.094433	-0.472904	1.142676
H124	H	-0.122108	-0.500542	1.225779
H125	H	0.173631	-0.760687	1.184171
H126	H	0.097136	0.013366	0.664120
O127	O	-0.053616	-0.652692	1.184022
C128	C	-0.080902	-0.723592	1.183941
C129	C	-0.031933	-0.711385	1.184043
H130	H	-0.063394	-0.771049	1.183971
H131	H	-0.093915	-0.690562	1.142360
H132	H	-0.121672	-0.718213	1.225464
H133	H	0.008869	-0.716772	1.142548
H134	H	-0.018971	-0.744413	1.225652
H135	H	0.206895	-0.650521	0.443974
O136	O	0.693061	-0.733631	0.518158
C137	C	0.641661	-0.798772	0.546856
C138	C	0.641663	-0.749729	0.559044
H139	H	0.600104	-0.811794	0.579896
H140	H	0.683211	-0.839536	0.552200
H141	H	0.641649	-0.781261	0.499413
H142	H	0.641654	-0.767184	0.606484
H143	H	0.600116	-0.708975	0.553660
O144	O	0.693152	-0.734093	0.706597
C145	C	0.641830	-0.799446	0.794196
C146	C	0.641800	-0.750229	0.733058
H147	H	0.600322	-0.812515	0.815602
H148	H	0.641799	-0.782164	0.824344
H149	H	0.683422	-0.840128	0.787881
H150	H	0.600215	-0.709530	0.739317
H151	H	0.641862	-0.767559	0.702931
O152	O	0.026920	0.013271	0.437347
C153	C	-0.044022	0.013254	0.410056
C154	C	-0.031771	0.013311	0.459033
H155	H	-0.091477	0.013299	0.427566
H156	H	-0.011003	-0.028320	0.397030
H157	H	-0.038664	0.054788	0.369293
H158	H	-0.037138	-0.028194	0.499828
H159	H	-0.064788	0.054913	0.472008
O160	O	0.692940	-0.499239	0.401340
C161	C	0.692812	-0.471465	0.303021
C162	C	0.692874	-0.520666	0.364161
H163	H	0.692746	-0.488766	0.272949
H164	H	0.734349	-0.458418	0.281522
H165	H	0.651248	-0.430764	0.309347
H166	H	0.734410	-0.561399	0.357888
H167	H	0.651310	-0.533663	0.385640
H168	H	0.693053	-0.506675	0.588146
O169	O	0.180144	-0.580975	1.184353
C170	C	0.245297	-0.609730	1.235791
C171	C	0.196287	-0.621917	1.235736
H172	H	0.258373	-0.642832	1.277324
H173	H	0.227813	-0.562307	1.235839
H174	H	0.286021	-0.615054	1.194222
H175	H	0.155547	-0.616626	1.277298
H176	H	0.213819	-0.669335	1.235657
H177	H	-0.080982	-0.582959	0.664476
H178	H	0.250633	-0.568176	0.899553
O179	O	0.055760	-0.473143	0.904441
C180	C	-0.043288	-0.420344	0.897874
C181	C	0.024305	-0.436990	0.863512
H182	H	-0.068739	-0.391122	0.864798
H183	H	-0.055608	-0.394867	0.927120
H184	H	-0.055557	-0.462761	0.927148
H185	H	0.036622	-0.394603	0.834205
H186	H	0.036588	-0.462490	0.834304
H187	H	0.103135	-0.437780	0.733124
O188	O	0.298034	-0.532778	0.781353
C189	C	0.397083	-0.585625	0.787917
C190	C	0.329491	-0.569012	0.822280
H191	H	0.422536	-0.614933	0.820992
H192	H	0.409405	-0.543234	0.758676
H193	H	0.409349	-0.611041	0.758637
H194	H	0.317177	-0.543611	0.851592
H195	H	0.317205	-0.611425	0.851483
H196	H	0.065328	-0.475552	0.695316
H197	H	0.295144	-0.575796	0.721768
O198	O	0.297957	-0.532772	0.638066
C199	C	0.396979	-0.585504	0.585158
C200	C	0.329378	-0.568898	0.601817
H201	H	0.422403	-0.614703	0.555838
H202	H	0.409362	-0.610991	0.627527
H203	H	0.409218	-0.543068	0.559743
H204	H	0.317091	-0.611302	0.627218
H205	H	0.317032	-0.543387	0.559426
O206	O	0.413343	-0.623197	0.685408
C207	C	0.406771	-0.721288	0.725810
C208	C	0.372414	-0.654202	0.716045
H209	H	0.373695	-0.746374	0.750570
H210	H	0.436034	-0.738927	0.753312
H211	H	0.436027	-0.728222	0.680735
H212	H	0.343125	-0.647217	0.761092
H213	H	0.343188	-0.636596	0.688516
O214	O	0.098664	-0.769449	0.671425
C215	C	0.104119	-0.822896	0.770900
C216	C	0.091974	-0.761712	0.721787
H217	H	0.098702	-0.816660	0.811634
H218	H	0.151553	-0.852921	0.753514
H219	H	0.071049	-0.844403	0.783922
H220	H	0.125006	-0.740153	0.708743
H221	H	0.044525	-0.731729	0.739200
O222	O	0.413365	-0.423795	0.609236
C223	C	0.432420	-0.337141	0.525020
C224	C	0.398061	-0.381310	0.557731
H225	H	0.420049	-0.302774	0.483378
H226	H	0.482463	-0.362470	0.511595
H227	H	0.420151	-0.313457	0.555901
H228	H	0.410280	-0.405007	0.526883
H229	H	0.348026	-0.355950	0.571165
O230	O	0.290131	-0.382783	0.650522
C231	C	0.219614	-0.307153	0.696575
C232	C	0.254022	-0.374224	0.706287
H233	H	0.190422	-0.300210	0.741652
H234	H	0.190296	-0.289532	0.669136
H235	H	0.252689	-0.282055	0.671740
H236	H	0.220990	-0.399371	0.731138
H237	H	0.283349	-0.391798	0.733701
H238	H	0.241946	-0.384640	0.594232
H239	H	0.204115	-0.271255	0.556464
O240	O	0.106061	-0.266342	0.747997
C241	C	0.094905	-0.195740	0.783678
C242	C	0.134391	-0.230120	0.738997
H243	H	0.117789	-0.166437	0.776409
H244	H	0.087732	-0.228785	0.831184
H245	H	0.049935	-0.166514	0.776490
H246	H	0.179383	-0.259347	0.746130
H247	H	0.141515	-0.197043	0.691507
O248	O	0.147157	-0.389564	0.789070
C249	C	0.151931	-0.408679	0.882677
C250	C	0.168476	-0.374293	0.815084
H251	H	0.169148	-0.396336	0.903731
H252	H	0.173022	-0.458723	0.890612
H253	H	0.101329	-0.396403	0.903734
H254	H	0.219069	-0.386519	0.793982
H255	H	0.147342	-0.324258	0.807191
O256	O	0.027149	-0.463961	0.437137
C257	C	-0.043672	-0.365663	0.409674
C258	C	-0.031497	-0.426865	0.458757
H259	H	-0.091082	-0.335649	0.427141
H260	H	-0.038360	-0.371837	0.368949
H261	H	-0.010566	-0.344179	0.396606
H262	H	-0.064592	-0.448382	0.471876
H263	H	-0.036789	-0.420651	0.499450
