data_functionalizedCrystal
_audit_creation_method	'MofGen! by Chris Wilmer'
_symmetry_space_group_name_H-M	'P1'
_symmetry_Int_Tables_number	1
_symmetry_cell_setting	triclinic
loop_
_symmetry_equiv_pos_as_xyz
  x,y,z
_cell_length_a	15.538191
_cell_length_b	14.044220
_cell_length_c	14.750779
_cell_angle_alpha	76.182253
_cell_angle_beta	97.572172
_cell_angle_gamma	70.230486
loop_
_atom_site_label
_atom_site_type_symbol
_atom_site_fract_x
_atom_site_fract_y
_atom_site_fract_z
O1	O	1.206574	-0.272382	-0.079830
O2	O	0.941253	-0.166009	-0.079832
O3	O	1.069934	-0.355813	-0.079822
O4	O	1.077894	-0.082578	-0.079840
O5	O	1.106310	-0.409464	0.079832
O6	O	0.977630	-0.219660	0.079821
O7	O	1.242951	-0.326033	0.079823
Zn8	Zn	1.116066	-0.281365	0.105171
Zn9	Zn	1.068138	-0.210677	-0.105179
O10	O	1.114271	-0.136229	0.079813
C11	C	0.925281	-0.181705	-0.000006
C12	C	0.823493	-0.148554	-0.000006
C13	C	0.508030	-0.477901	0.000002
C14	C	0.412383	-0.446726	-0.000001
C15	C	0.404671	-0.271379	-0.000013
C16	C	0.500321	-0.302541	-0.000005
C17	C	0.551992	-0.405802	0.000001
C18	C	0.544283	-0.230442	-0.000006
C19	C	0.639923	-0.261599	-0.000004
C20	C	0.691600	-0.364855	-0.000000
C21	C	0.647632	-0.436960	0.000003
C22	C	0.492608	-0.127179	-0.000020
C23	C	0.536570	-0.055080	-0.000020
C24	C	0.632213	-0.086239	-0.000011
C25	C	0.683891	-0.189495	-0.000008
C26	C	0.676182	-0.014135	-0.000015
C27	C	0.771821	-0.045293	-0.000012
C28	C	0.779531	-0.220653	-0.000005
C29	C	1.084636	-0.416754	0.000005
C30	C	1.074236	-0.518402	0.000007
C31	C	1.055220	-0.704517	-0.000007
C32	C	1.128978	-0.787527	-0.000010
C33	C	1.118398	-0.891088	-0.000018
C34	C	1.065800	-0.600946	0.000000
C35	C	1.258923	-0.310337	-0.000005
C36	C	1.360709	-0.343485	-0.000011
C37	C	1.099569	-0.075288	-0.000016
C38	C	1.109967	0.026362	-0.000024
N39	N	1.148782	-0.329610	0.248729
N40	N	1.035429	-0.162442	-0.248738
C41	C	0.944054	-0.027741	0.600530
C42	C	0.966986	-0.061544	0.701031
C43	C	1.080962	-0.229579	0.701003
C44	C	1.058036	-0.195791	0.600500
C45	C	0.989582	-0.094871	0.550272
C46	C	1.103564	-0.262921	0.550242
C47	C	1.080643	-0.229134	0.449748
C48	C	1.012193	-0.128217	0.399512
C49	C	0.966661	-0.061084	0.449778
C50	C	1.172023	-0.363838	0.600472
C51	C	1.217551	-0.430968	0.550214
C52	C	1.194625	-0.397185	0.449718
C53	C	1.126176	-0.296267	0.399482
C54	C	1.240158	-0.464318	0.399452
C55	C	1.217236	-0.430530	0.298958
C56	C	1.103254	-0.262480	0.298988
H57	H	0.821607	-0.304741	0.000006
O58	O	0.369607	-0.516722	0.000132
C59	C	0.333376	-0.531759	0.082830
H60	H	0.321978	-0.460229	0.110393
H61	H	0.263518	-0.540712	0.064233
H62	H	0.385331	-0.606492	0.140732
O63	O	0.970393	-0.712430	0.000122
C64	C	0.941413	-0.692845	0.082825
H65	H	0.978136	-0.643958	0.110393
H66	H	0.862036	-0.647151	0.064234
H67	H	0.960633	-0.771585	0.140721
O68	O	0.354603	-0.171090	0.000109
C69	C	0.394451	-0.153165	0.082809
H70	H	0.471268	-0.209985	0.110380
H71	H	0.389964	-0.067772	0.064212
H72	H	0.354346	-0.167241	0.140705
O73	O	0.486245	0.045237	-0.000152
C74	C	0.411870	0.096308	-0.082852
H75	H	0.394608	0.034118	-0.110422
H76	H	0.347220	0.149074	-0.064257
H77	H	0.433636	0.147030	-0.140749
O78	O	1.213873	-0.779703	0.000131
C79	C	1.280532	-0.854896	0.082834
H80	H	1.256365	-0.922312	0.110388
H81	H	1.351440	-0.888096	0.064248
H82	H	1.287696	-0.815086	0.140738
O83	O	1.036865	-0.164366	0.250228
C84	C	1.064986	-0.086526	0.274792
H85	H	1.144620	-0.120527	0.302406
H86	H	1.043267	-0.014460	0.208700
H87	H	1.029812	-0.061647	0.333130
H88	H	0.414731	-0.101813	-0.000025
H89	H	0.910911	0.021091	0.408880
H90	H	0.689708	-0.521047	0.000014
O91	O	0.558305	-0.578140	-0.000115
C92	C	0.594999	-0.573621	-0.082811
H93	H	0.599688	-0.492894	-0.110387
H94	H	0.668127	-0.638880	-0.064209
H95	H	0.546858	-0.585436	-0.140706
H96	H	0.888305	0.054434	0.559632
H97	H	0.929907	-0.006869	0.741947
H98	H	1.136701	-0.311748	0.741911
H99	H	1.190686	-0.391342	0.682301
O100	O	0.989840	-0.095208	0.301891
C101	C	0.919642	0.008248	0.268339
H102	H	0.921495	0.049139	0.326257
H103	H	0.932912	0.055565	0.201099
H104	H	0.847756	0.003700	0.250528
H105	H	1.295900	-0.546484	0.440361
H106	H	1.254311	-0.485195	0.258037
O107	O	0.784471	-0.394962	-0.000126
C108	C	0.795473	-0.329511	-0.082826
H109	H	0.731830	-0.251092	-0.110398
H110	H	0.861802	-0.313508	-0.064230
H111	H	0.801684	-0.371008	-0.140722
O112	O	0.625853	0.086184	-0.000154
C113	C	0.551483	0.137244	-0.082860
H114	H	0.534228	0.075047	-0.110423
H115	H	0.486829	0.190014	-0.064275
H116	H	0.573252	0.187961	-0.140758
H117	H	0.807618	0.013414	-0.000004
H118	H	1.273289	-0.513137	0.591121
