data_functionalizedCrystal
_audit_creation_method	'MofGen! by Chris Wilmer'
_symmetry_space_group_name_H-M	'P1'
_symmetry_Int_Tables_number	1
_symmetry_cell_setting	triclinic
loop_
_symmetry_equiv_pos_as_xyz
  x,y,z
_cell_length_a	19.288864
_cell_length_b	10.654550
_cell_length_c	18.366186
_cell_angle_alpha	89.994973
_cell_angle_beta	89.977106
_cell_angle_gamma	83.810575
loop_
_atom_site_label
_atom_site_type_symbol
_atom_site_fract_x
_atom_site_fract_y
_atom_site_fract_z
O1	O	0.922379	0.156657	-0.060782
O2	O	1.422379	0.656657	0.439218
O3	O	0.720256	0.177789	-0.060732
O4	O	1.220256	0.677789	0.439268
O5	O	0.825965	-0.015616	-0.060755
O6	O	1.325965	0.484384	0.439245
O7	O	0.816670	0.350062	-0.060758
O8	O	1.316670	0.850062	0.439242
O9	O	0.825946	-0.015625	0.060344
O10	O	1.325946	0.484375	0.560344
O11	O	0.720238	0.177780	0.060368
O12	O	1.220238	0.677780	0.560368
O13	O	0.922360	0.156647	0.060318
O14	O	1.422360	0.656647	0.560318
Zn15	Zn	0.821296	0.167212	0.079570
Zn16	Zn	1.321296	0.667212	0.579570
Zn17	Zn	0.821320	0.167224	-0.079984
Zn18	Zn	1.321320	0.667224	0.420016
O19	O	0.816652	0.350052	0.060341
O20	O	1.316652	0.850052	0.560341
C21	C	0.694366	0.177105	-0.000176
C22	C	1.194366	0.677105	0.499824
C23	C	0.617249	0.175063	-0.000156
C24	C	1.117249	0.675063	0.499844
C25	C	0.573296	0.288545	-0.000169
C26	C	1.073296	0.788545	0.499831
C27	C	0.500836	0.286627	-0.000177
C28	C	1.000836	0.786627	0.499823
C29	C	0.472333	0.171222	-0.000187
C30	C	0.972333	0.671222	0.499813
C31	C	0.516296	0.057725	-0.000171
C32	C	1.016296	0.557725	0.499829
C33	C	0.588754	0.059646	-0.000155
C34	C	1.088754	0.559646	0.499845
C35	C	0.363484	0.080503	-0.042637
C36	C	0.863484	0.580503	0.457363
C37	C	0.291027	0.078587	-0.042657
C38	C	0.791027	0.578587	0.457343
C39	C	0.248849	0.165292	-0.000231
C40	C	0.748849	0.665292	0.499769
C41	C	0.279136	0.253935	0.042205
C42	C	0.779136	0.753935	0.542205
C43	C	0.351594	0.255855	0.042221
C44	C	0.851594	0.755855	0.542221
C45	C	0.393766	0.169126	-0.000203
C46	C	0.893766	0.669126	0.499797
C47	C	0.126326	0.276702	-0.000251
C48	C	0.626326	0.776702	0.499749
C49	C	0.053865	0.274779	-0.000255
C50	C	0.553865	0.774779	0.499745
C51	C	0.069327	0.045875	-0.000256
C52	C	0.569327	0.545875	0.499744
C53	C	0.141786	0.047800	-0.000245
C54	C	0.641786	0.547800	0.499755
C55	C	0.170281	0.163217	-0.000246
C56	C	0.670281	0.663217	0.499754
C57	C	0.825273	-0.062404	-0.000206
C58	C	1.325273	0.437596	0.499794
C59	C	0.823231	-0.201803	-0.000208
C60	C	1.323231	0.298197	0.499792
C61	C	0.885471	-0.282621	-0.000221
C62	C	1.385471	0.217379	0.499779
C63	C	0.883548	-0.413601	-0.000226
C64	C	1.383548	0.086399	0.499774
C65	C	0.757141	-0.382932	-0.000201
C66	C	1.257141	0.117068	0.499799
C67	C	0.759065	-0.251955	-0.000202
C68	C	1.259065	0.248045	0.499798
C69	C	0.949637	-0.232470	-0.000228
C70	C	1.449637	0.267530	0.499772
C71	C	1.011882	-0.313290	-0.000240
C72	C	1.511882	0.186710	0.499760
C73	C	1.009959	-0.444269	-0.000245
C74	C	1.509959	0.055731	0.499755
C75	C	0.945792	-0.494429	-0.000237
C76	C	1.445792	0.005571	0.499763
C77	C	0.948250	0.157332	-0.000240
C78	C	1.448250	0.657332	0.499760
C79	C	1.025367	0.159373	-0.000264
C80	C	1.525367	0.659373	0.499736
C81	C	0.817344	0.396840	-0.000209
C82	C	1.317344	0.896840	0.499791
C83	C	0.819385	0.536240	-0.000212
C84	C	1.319385	1.036240	0.499788
N85	N	0.821285	0.167203	0.188461
N86	N	1.321285	0.667203	0.688461
N87	N	0.821337	0.167224	-0.188875
N88	N	1.321337	0.667224	0.311125
C89	C	0.868108	0.081605	0.226551
C90	C	1.368108	0.581605	0.726551
C91	C	0.868113	0.081599	0.302779
C92	C	1.368113	0.581599	0.802779
C93	C	0.821300	0.167213	0.340914
C94	C	1.321300	0.667213	0.840914
C95	C	0.774468	0.252817	0.302815
C96	C	1.274468	0.752817	0.802815
C97	C	0.774461	0.252812	0.226588
C98	C	1.274461	0.752812	0.726588
C99	C	0.812752	0.281634	0.461675
C100	C	1.312752	0.781634	0.961675
C101	C	0.812764	0.281641	0.537899
C102	C	1.312764	0.781641	1.037899
C103	C	0.821320	0.167229	0.576021
C104	C	1.321320	0.667229	1.076021
C105	C	0.829879	0.052804	0.537909
C106	C	1.329879	0.552804	1.037909
C107	C	0.829871	0.052799	0.461682
C108	C	1.329871	0.552799	0.961682
C109	C	0.821303	0.167228	0.423569
C110	C	1.321303	0.667228	0.923569
C111	C	0.868151	0.081618	0.696766
C112	C	1.368151	0.581618	1.196766
C113	C	0.868151	0.081610	0.772995
C114	C	1.368151	0.581610	1.272995
C115	C	0.774509	0.252840	0.773030
C116	C	1.274509	0.752840	1.273030
C117	C	0.774507	0.252836	0.696802
C118	C	1.274507	0.752836	1.196802
C119	C	0.821331	0.167226	0.658675
C120	C	1.321331	0.667226	1.158675
H121	H	0.596492	0.382526	-0.000171
H122	H	1.096492	0.882526	0.499829
H123	H	0.951210	-0.125822	-0.000222
H124	H	1.451210	0.374178	0.499778
H125	H	0.906234	0.011894	0.195510
H126	H	1.406234	0.511894	0.695510
Cl127	Cl	0.445571	0.429300	-0.000191
Cl128	Cl	0.945571	0.929300	0.499809
Cl129	Cl	1.092544	-0.250232	-0.000260
Cl130	Cl	1.592544	0.249768	0.499740
H131	H	0.906278	0.011900	0.804009
H132	H	1.406278	0.511900	1.304009
H133	H	0.397820	0.009895	-0.077190
H134	H	0.897820	0.509895	0.422810
H135	H	1.060642	-0.510069	-0.000262
H136	H	1.560642	-0.010069	0.499738
H137	H	0.708384	-0.186150	-0.000190
H138	H	1.208384	0.313850	0.499810
Cl139	Cl	0.252958	-0.032836	-0.096013
Cl140	Cl	0.752958	0.467164	0.403987
H141	H	0.906243	0.011892	0.333797
H142	H	1.406243	0.511892	0.833797
Cl143	Cl	0.715654	0.360459	0.820965
Cl144	Cl	1.215654	0.860459	1.320965
H145	H	0.376250	0.328027	0.076776
H146	H	0.876250	0.828027	0.576776
H147	H	0.805772	0.374809	0.430642
H148	H	1.305772	0.874809	0.930642
H149	H	0.244796	0.324537	0.076753
H150	H	0.744796	0.824537	0.576753
H151	H	0.805800	0.374812	0.568925
H152	H	1.305800	0.874812	1.068925
Cl153	Cl	0.480465	-0.087356	-0.000179
Cl154	Cl	0.980465	0.412644	0.499821
H155	H	0.906276	0.011905	0.665722
H156	H	1.406276	0.511905	1.165722
Cl157	Cl	0.943377	-0.659092	-0.000210
Cl158	Cl	1.443377	-0.159092	0.499790
Cl159	Cl	0.715644	0.360456	0.648913
Cl160	Cl	1.215644	0.860456	1.148913
H161	H	0.046120	-0.048091	-0.000309
H162	H	0.546120	0.451909	0.499691
H163	H	0.704899	-0.423784	-0.000194
H164	H	1.204899	0.076216	0.499806
H165	H	0.177574	-0.044609	-0.000239
H166	H	0.677574	0.455391	0.499761
H167	H	0.836838	-0.040369	0.430654
H168	H	1.336838	0.459631	0.930654
H169	H	0.836846	-0.040361	0.568946
H170	H	1.336846	0.459639	1.068946
H171	H	0.736331	0.322517	0.195575
H172	H	1.236331	0.822517	0.695575
H173	H	0.736352	0.322524	0.333868
H174	H	1.236352	0.822524	0.833868
Cl175	Cl	0.644013	-0.083028	-0.000140
Cl176	Cl	1.144013	0.416972	0.499860
H177	H	0.018079	0.367194	-0.000261
H178	H	0.518079	0.867194	0.499739
Cl179	Cl	0.162152	0.421794	-0.000245
Cl180	Cl	0.662152	0.921794	0.499755
