data_functionalizedCrystal
_audit_creation_method	'MofGen! by Chris Wilmer'
_symmetry_space_group_name_H-M	'P1'
_symmetry_Int_Tables_number	1
_symmetry_cell_setting	triclinic
loop_
_symmetry_equiv_pos_as_xyz
  x,y,z
_cell_length_a	21.295417
_cell_length_b	16.120566
_cell_length_c	16.120704
_cell_angle_alpha	90.137199
_cell_angle_beta	87.111581
_cell_angle_gamma	92.873626
loop_
_atom_site_label
_atom_site_type_symbol
_atom_site_fract_x
_atom_site_fract_y
_atom_site_fract_z
Zn1	Zn	-0.319056	-1.247283	0.534587
Zn2	Zn	-0.419227	-1.254246	0.395518
Zn3	Zn	-0.308379	-1.115304	0.388501
Zn4	Zn	-0.418684	-1.108177	0.527479
O5	O	-0.366336	-1.181253	0.461521
O6	O	-0.337039	-1.364571	0.522051
O7	O	-0.400281	-1.241711	0.278223
O8	O	-0.221710	-1.132881	0.407918
O9	O	-0.410634	-1.369686	0.419878
O10	O	-0.229554	-1.229845	0.515247
O11	O	-0.318842	-1.139632	0.273068
O12	O	-0.318316	-0.997995	0.401025
O13	O	-0.409710	-1.120733	0.644786
O14	O	-0.399357	-0.992758	0.503131
O15	O	-0.336513	-1.222934	0.650008
O16	O	-0.507240	-1.234800	0.412985
O17	O	-0.506842	-1.127484	0.509936
C18	C	-0.357619	-0.965205	0.450545
C19	C	-0.353906	-0.872777	0.445870
C20	C	-0.347112	-0.703551	0.437340
C21	C	-0.385615	-0.659794	0.485709
C22	C	-0.381835	-0.565631	0.480963
C23	C	-0.350891	-0.797723	0.442085
C24	C	-0.529882	-1.181146	0.461470
C25	C	-0.599852	-1.181175	0.461479
C26	C	-0.632909	-1.237099	0.411054
C27	C	-0.698653	-1.237137	0.411075
C28	C	-0.731338	-1.181237	0.461511
C29	C	-0.698273	-1.125308	0.511947
C30	C	-0.632530	-1.125277	0.511931
N31	N	-0.831905	-1.108171	0.464155
N32	N	-0.894358	-1.108203	0.464165
C33	C	-0.929418	-1.181327	0.461564
N34	N	-0.899665	-1.254421	0.458935
N35	N	-0.837206	-1.254388	0.458920
C36	C	-0.802625	-1.181264	0.461534
C37	C	-1.033763	-1.237297	0.411158
C38	C	-1.099509	-1.237336	0.411185
C39	C	-1.099127	-1.125500	0.512052
C40	C	-1.033382	-1.125469	0.512030
C41	C	-1.000704	-1.181366	0.461579
C42	C	-0.202154	-1.181381	0.461592
C43	C	-0.132189	-1.181436	0.461623
C44	C	-0.374242	-1.170262	0.678412
C45	C	-0.377610	-1.165579	0.770839
C46	C	-0.375089	-0.398145	0.472527
C47	C	-0.378823	-0.490573	0.477182
C48	C	-0.349007	-1.205480	0.983826
C49	C	-0.383734	-1.157000	0.940056
C50	C	-0.380326	-1.161774	0.845894
C51	C	-0.352414	-1.200707	1.077996
C52	C	-0.358482	-1.192199	1.245474
C53	C	-0.355132	-1.196899	1.153048
H54	H	-0.421416	-0.693052	0.530685
C55	C	-0.305390	-1.266400	0.938924
C56	C	-0.314769	-1.360337	0.955584
C57	C	-0.271156	-1.421259	0.910671
C58	C	-0.218164	-1.388244	0.849099
C59	C	-0.208783	-1.294302	0.832437
C60	C	-0.252396	-1.233380	0.877349
H61	H	-0.353999	-1.384781	1.001166
H62	H	-0.278100	-1.490801	0.923006
H63	H	-0.185879	-1.433342	0.815852
H64	H	-0.169553	-1.269858	0.786854
H65	H	-0.245451	-1.163838	0.865014
H66	H	-0.606304	-1.282616	0.369975
C67	C	-0.298752	-0.658629	0.376579
C68	C	-0.294999	-0.563099	0.371858
C69	C	-0.246642	-0.518166	0.311094
C70	C	-0.202038	-0.568763	0.255052
C71	C	-0.205790	-0.664298	0.259771
C72	C	-0.254147	-0.709231	0.320534
H73	H	-0.328018	-0.525639	0.413345
H74	H	-0.243864	-0.447444	0.307601
H75	H	-0.166241	-0.535500	0.210071
H76	H	-0.172770	-0.701758	0.218283
H77	H	-0.256924	-0.779954	0.324027
H78	H	-0.725574	-1.282680	0.370012
C79	C	-0.734222	-1.063817	0.567428
C80	C	-0.806537	-1.063845	0.567445
C81	C	-0.842485	-1.002355	0.622932
C82	C	-0.806120	-0.940836	0.678403
C83	C	-0.733801	-0.940806	0.678388
C84	C	-0.697852	-1.002296	0.622900
H85	H	-0.833460	-1.109386	0.526381
H86	H	-0.896021	-1.002377	0.622943
H87	H	-0.832731	-0.895318	0.719478
H88	H	-0.706877	-0.895265	0.719452
H89	H	-0.644317	-1.002274	0.622890
H90	H	-0.605614	-1.079737	0.552994
H91	H	-1.007156	-1.282815	0.370080
C92	C	-0.427362	-1.096088	0.984959
C93	C	-0.430757	-1.091341	1.080487
C94	C	-0.474386	-1.030436	1.125395
C95	C	-0.514621	-0.974277	1.074775
C96	C	-0.511227	-0.979022	0.979242
C97	C	-0.467598	-1.039927	0.934334
H98	H	-0.400972	-1.132915	1.117964
H99	H	-0.476898	-1.026924	1.196116
H100	H	-0.546917	-0.929191	1.108019
H101	H	-0.541012	-0.937448	0.941765
H102	H	-0.465086	-1.043439	0.863613
C103	C	-1.135875	-1.298861	0.355717
C104	C	-1.099927	-1.360344	0.300228
C105	C	-1.136294	-1.421872	0.244762
C106	C	-1.208610	-1.421917	0.244785
C107	C	-1.244562	-1.360432	0.300277
C108	C	-1.208195	-1.298904	0.355743
H109	H	-1.046391	-1.360313	0.300209
H110	H	-1.109680	-1.467387	0.203683
H111	H	-1.235531	-1.467463	0.203726
H112	H	-1.298098	-1.360463	0.300296
H113	H	-1.234809	-1.253389	0.396821
C114	C	-1.135071	-1.064006	0.567532
C115	C	-1.207386	-1.064035	0.567552
C116	C	-1.243333	-1.002540	0.623035
C117	C	-1.206966	-0.941016	0.678498
C118	C	-1.134647	-0.940985	0.678480
C119	C	-1.098700	-1.002480	0.622997
H120	H	-1.234310	-1.109581	0.526493
H121	H	-1.296868	-1.002563	0.623048
H122	H	-1.233577	-0.895494	0.719570
H123	H	-1.107723	-0.895440	0.719540
H124	H	-1.045165	-1.002457	0.622985
H125	H	-1.006465	-1.079927	0.553088
