data_functionalizedCrystal
_audit_creation_method	'MofGen! by Chris Wilmer'
_symmetry_space_group_name_H-M	'P1'
_symmetry_Int_Tables_number	1
_symmetry_cell_setting	triclinic
loop_
_symmetry_equiv_pos_as_xyz
  x,y,z
_cell_length_a	16.120530
_cell_length_b	15.297327
_cell_length_c	15.296720
_cell_angle_alpha	107.319222
_cell_angle_beta	82.714681
_cell_angle_gamma	82.677776
loop_
_atom_site_label
_atom_site_type_symbol
_atom_site_fract_x
_atom_site_fract_y
_atom_site_fract_z
Zn1	Zn	1.083362	0.533176	0.661647
Zn2	Zn	1.083269	0.661792	0.533035
Zn3	Zn	0.975419	0.499135	0.499009
Zn4	Zn	0.918250	0.677674	0.677540
O5	O	1.015075	0.592944	0.592808
O6	O	1.197586	0.557837	0.652175
O7	O	1.092850	0.619322	0.399981
O8	O	1.013702	0.375105	0.499692
O9	O	1.197517	0.652330	0.557684
O10	O	1.093008	0.400115	0.619181
O11	O	1.013612	0.499819	0.374982
O12	O	0.853600	0.515219	0.515103
O13	O	0.916266	0.679399	0.803973
O14	O	0.811598	0.646391	0.646270
O15	O	1.037573	0.573237	0.792296
O16	O	1.037415	0.792444	0.573095
O17	O	0.916176	0.804113	0.679263
C18	C	0.802979	0.578836	0.578720
C19	C	0.712235	0.572825	0.572718
C20	C	0.970600	0.831613	0.631618
C21	C	0.951643	0.933727	0.648256
C22	C	0.970553	0.631887	0.832395
C23	C	0.951580	0.648482	0.934493
C24	C	0.546085	0.561832	0.561765
C25	C	0.484881	0.624135	0.623929
C26	C	0.392429	0.618018	0.617835
C27	C	0.638546	0.567948	0.567858
C28	C	1.228000	0.607109	0.606952
C29	C	1.318735	0.613145	0.612979
C30	C	1.059742	0.353348	0.553868
C31	C	1.078777	0.251246	0.537275
C32	C	1.150846	1.197179	0.474225
C33	C	1.168658	1.101237	0.458587
C34	C	1.114406	1.059355	0.506003
C35	C	1.042339	1.113424	0.569059
C36	C	1.024521	1.209373	0.584693
C37	C	0.988081	1.071550	0.616471
C38	C	0.916013	1.125618	0.679527
C39	C	0.898200	1.221558	0.695158
C40	C	0.952452	1.263441	0.647742
C41	C	1.005899	0.975600	0.600838
C42	C	0.879573	0.987794	0.711306
C43	C	0.861761	1.083736	0.726943
C44	C	1.059484	0.554090	0.354145
C45	C	1.078663	0.537246	0.252016
C46	C	1.150737	0.474177	1.197974
C47	C	1.168568	0.458587	1.102048
C48	C	1.114322	0.506059	1.060155
C49	C	1.042243	0.569125	1.114196
C50	C	1.024414	0.584722	1.210132
C51	C	0.988000	0.616604	1.072313
C52	C	0.915921	0.679670	1.126355
C53	C	0.898095	0.695263	1.222281
C54	C	0.952340	0.647791	1.264174
C55	C	1.005829	0.601007	0.976377
C56	C	0.879506	0.711552	0.988536
C57	C	0.861675	0.727142	1.084461
H58	H	0.501917	0.682066	0.681727
C59	C	0.783534	1.142595	0.795326
C60	C	0.779537	1.235577	0.798847
C61	C	0.707480	1.289822	0.861821
H62	H	0.786811	1.137776	0.855330
H63	H	0.734082	1.121143	0.775638
H64	H	0.828976	1.257022	0.818540
H65	H	0.776246	1.240424	0.738859
H66	H	0.658029	1.268371	0.842133
H67	H	0.710765	1.284996	0.921820
H68	H	0.704755	1.352914	0.864212
H69	H	0.937826	0.660481	1.342284
C70	C	1.133611	0.955164	0.488922
C71	C	1.066161	0.914513	0.455082
C72	C	1.083833	0.818529	0.439323
H73	H	1.140686	0.943869	0.545548
H74	H	1.184275	0.928920	0.444543
H75	H	1.015512	0.940749	0.499459
H76	H	1.059076	0.925782	0.398450
H77	H	1.134497	0.792285	0.394943
H78	H	1.090909	0.807244	0.495952
H79	H	1.038076	0.790935	0.416353
H80	H	0.529050	0.503905	0.503972
H81	H	1.064576	0.931585	0.549497
C82	C	1.209638	1.242824	0.422840
C83	C	1.178606	1.338419	0.450028
C84	C	1.232742	1.380495	0.402700
H85	H	1.212129	1.216401	0.357755
H86	H	1.264921	1.232955	0.437393
H87	H	1.123338	1.348282	0.435468
H88	H	1.176118	1.364867	0.515105
H89	H	1.288025	1.370626	0.417254
H90	H	1.235230	1.354066	0.337618
H91	H	1.211699	1.445362	0.421147
H92	H	1.194900	0.435538	1.232094
H93	H	1.227335	1.057218	0.407247
C94	C	0.933171	1.367644	0.664901
C95	C	0.931821	1.414926	0.758911
C96	C	0.914080	1.510919	0.774749
H97	H	0.879419	1.383454	0.649097
H98	H	0.975819	1.384882	0.627685
H99	H	0.889175	1.397695	0.796115
H100	H	0.985565	1.399144	0.774736
H101	H	0.956728	1.528157	0.737532
H102	H	0.860328	1.526719	0.758940
H103	H	0.913169	1.543012	0.838533
H104	H	0.839510	1.265577	0.746491
C105	C	0.819777	0.763741	1.280791
C106	C	0.776073	0.801960	1.223572
C107	C	0.703917	0.865035	1.277435
H108	H	0.836480	0.812003	1.326803
H109	H	0.783762	0.732331	1.310121
H110	H	0.812081	0.833369	1.194257
H111	H	0.759350	0.753720	1.177561
H112	H	0.667903	0.833625	1.306765
H113	H	0.720628	0.913291	1.323444
H114	H	0.674252	0.890968	1.238618
C115	C	0.820792	0.942168	0.762738
C116	C	0.851834	0.846576	0.735572
C117	C	0.797717	0.804511	0.782934
H118	H	0.765505	0.952004	0.748213
H119	H	0.818326	0.968633	0.827825
H120	H	0.854290	0.820120	0.670500
H121	H	0.907114	0.836713	0.750098
H122	H	0.795251	0.830976	0.848021
H123	H	0.742433	0.814354	0.768406
H124	H	0.818775	0.739649	0.764515
C125	C	0.820524	0.763224	0.943242
C126	C	0.753602	0.821817	1.011105
C127	C	0.699266	0.869439	0.969412
H128	H	0.798371	0.719732	0.897755
H129	H	0.851216	0.799292	0.914424
H130	H	0.722915	0.785751	1.039908
H131	H	0.775731	0.865326	1.056596
H132	H	0.729958	0.905507	0.940594
H133	H	0.677118	0.825941	0.923925
H134	H	0.653857	0.909206	1.015451
C135	C	1.083996	0.532380	0.917729
C136	C	1.078813	0.444103	0.925104
C137	C	1.150803	0.380852	0.871082
H138	H	1.133475	0.551903	0.939224
H139	H	1.086857	0.529820	0.854575
H140	H	1.075960	0.446666	0.988244
H141	H	1.029349	0.424552	0.903603
H142	H	1.153665	0.378292	0.807928
H143	H	1.200277	0.400384	0.892582
H144	H	1.147293	0.320948	0.876072
C145	C	1.246836	0.390046	1.043528
C146	C	1.290513	0.351790	1.100741
C147	C	1.362615	0.288632	1.046862
H148	H	1.282900	0.421370	1.014164
H149	H	1.230050	0.341815	0.997540
H150	H	1.307302	0.400013	1.146713
H151	H	1.254475	0.320448	1.130106
H152	H	1.345829	0.240401	1.000874
H153	H	1.398672	0.319964	1.017501
H154	H	1.392255	0.262662	1.085672
H155	H	1.128845	0.493362	0.982047
H156	H	0.802987	0.778490	1.128475
