data_functionalizedCrystal
_audit_creation_method	'MofGen! by Chris Wilmer'
_symmetry_space_group_name_H-M	'P1'
_symmetry_Int_Tables_number	1
_symmetry_cell_setting	triclinic
loop_
_symmetry_equiv_pos_as_xyz
  x,y,z
_cell_length_a	19.805407
_cell_length_b	10.686285
_cell_length_c	19.805399
_cell_angle_alpha	85.610534
_cell_angle_beta	89.980427
_cell_angle_gamma	85.631507
loop_
_atom_site_label
_atom_site_type_symbol
_atom_site_fract_x
_atom_site_fract_y
_atom_site_fract_z
Zn1	Zn	1.055500	-0.502374	-0.362110
Zn2	Zn	1.555500	-0.002374	0.137890
Zn3	Zn	1.064136	-0.713385	-0.240266
Zn4	Zn	1.564136	-0.213385	0.259734
Zn5	Zn	0.942316	-0.502409	-0.248934
Zn6	Zn	1.442316	-0.002409	0.251066
Zn7	Zn	0.950997	-0.713318	-0.353415
Zn8	Zn	1.450997	-0.213318	0.146585
O9	O	1.003237	-0.607872	-0.301181
O10	O	1.503237	-0.107872	0.198819
O11	O	1.151363	-0.530379	-0.345959
O12	O	1.651363	-0.030379	0.154041
O13	O	1.047958	-0.685441	-0.146697
O14	O	1.547958	-0.185441	0.353303
O15	O	0.950083	-0.325830	-0.271213
O16	O	1.450083	0.174170	0.228787
O17	O	1.157708	-0.685408	-0.256440
O18	O	1.657708	-0.185408	0.243560
O19	O	1.033239	-0.325804	-0.354364
O20	O	1.533239	0.174196	0.145636
O21	O	0.958457	-0.530438	-0.153065
O22	O	1.458457	-0.030438	0.346935
O23	O	0.848750	-0.530373	-0.262782
O24	O	1.348750	-0.030373	0.237218
O25	O	0.964878	-0.685293	-0.449287
O26	O	1.464878	-0.185293	0.050713
O27	O	0.855128	-0.685327	-0.339544
O28	O	1.355128	-0.185327	0.160456
O29	O	1.041656	-0.530314	-0.455675
O30	O	1.541656	-0.030314	0.044325
O31	O	1.056375	-0.889951	-0.248009
O32	O	1.556375	-0.389951	0.251991
O33	O	0.973252	-0.889902	-0.331139
O34	O	1.473252	-0.389902	0.168861
C35	C	0.827380	-0.607847	-0.301160
C36	C	1.327380	-0.107847	0.198840
C37	C	0.752149	-0.607868	-0.301166
C38	C	1.252149	-0.107868	0.198834
C39	C	0.720149	-0.688673	-0.341061
C40	C	1.220149	-0.188673	0.158939
C41	C	0.649460	-0.688676	-0.341071
C42	C	1.149460	-0.188676	0.158929
C43	C	0.610774	-0.607877	-0.301181
C44	C	1.110774	-0.107877	0.198819
C45	C	0.642779	-0.527063	-0.261284
C46	C	1.142779	-0.027063	0.238716
C47	C	0.713466	-0.527055	-0.261279
C48	C	1.213466	-0.027055	0.238721
C49	C	0.357707	-0.527090	-0.261306
C50	C	0.857707	-0.027090	0.238694
C51	C	0.287015	-0.527107	-0.261312
C52	C	0.787015	-0.027107	0.238688
C53	C	0.293701	-0.688711	-0.341097
C54	C	0.793701	-0.188711	0.158903
C55	C	0.364388	-0.688704	-0.341092
C56	C	0.864388	-0.188704	0.158908
C57	C	0.396387	-0.607885	-0.301198
C58	C	0.896387	-0.107885	0.198802
C59	C	0.473035	-0.607882	-0.301190
C60	C	0.973035	-0.107882	0.198810
C61	C	0.534127	-0.607886	-0.301186
C62	C	1.034127	-0.107886	0.198814
C63	C	1.016711	-0.935710	-0.287705
C64	C	1.516711	-0.435710	0.212295
C65	C	1.022538	-1.075961	-0.281962
C66	C	1.522538	-0.575961	0.218038
C67	C	1.179781	-0.607897	-0.301203
C68	C	1.679781	-0.107897	0.198797
C69	C	1.255013	-0.607907	-0.301212
C70	C	1.755013	-0.107907	0.198788
C71	C	1.003272	-0.607792	-0.477727
C72	C	1.503272	-0.107792	0.022273
C73	C	1.003287	-0.607758	-0.552961
C74	C	1.503287	-0.107758	-0.052961
C75	C	0.989729	-0.278753	-0.314725
C76	C	1.489729	0.221247	0.185275
C77	C	0.983973	-0.138502	-0.320497
C78	C	1.483973	0.361498	0.179503
C79	C	1.043266	-0.527056	-0.591633
C80	C	1.543266	-0.027056	-0.091633
C81	C	1.043271	-0.527020	-0.662323
C82	C	1.543271	-0.027020	-0.162323
C83	C	1.003301	-0.607692	-0.694339
C84	C	1.503301	-0.107692	-0.194339
C85	C	0.963317	-0.688398	-0.655662
C86	C	1.463317	-0.188398	-0.155662
C87	C	0.963308	-0.688427	-0.584974
C88	C	1.463308	-0.188427	-0.084974
C89	C	0.963350	-0.688280	-0.940740
C90	C	1.463350	-0.188280	-0.440740
C91	C	0.963364	-0.688247	-1.011434
C92	C	1.463364	-0.188247	-0.511434
C93	C	1.043313	-0.526873	-1.018089
C94	C	1.543313	-0.026873	-0.518089
C95	C	1.043305	-0.526902	-0.947401
C96	C	1.543305	-0.026902	-0.447401
C97	C	1.003318	-0.607602	-0.908730
C98	C	1.503318	-0.107602	-0.408730
C99	C	1.003312	-0.607639	-0.832080
C100	C	1.503312	-0.107639	-0.332080
C101	C	1.003310	-0.607663	-0.770988
C102	C	1.503310	-0.107663	-0.270988
C103	C	1.003238	-0.607860	-0.125326
C104	C	1.503238	-0.107860	0.374674
C105	C	1.003340	-0.607538	-0.050107
C106	C	1.503340	-0.107538	0.449893
H107	H	0.751642	-0.754473	-0.373542
H108	H	1.251642	-0.254473	0.126458
Br109	Br	1.084992	-1.165550	-0.219635
Br110	Br	1.584992	-0.665550	0.280365
H111	H	0.383752	-0.461292	-0.228816
H112	H	0.883752	0.038708	0.271184
H113	H	0.930812	-0.753943	-1.037499
H114	H	1.430812	-0.253943	-0.537499
Br115	Br	0.590276	-0.417394	-0.207154
Br116	Br	1.090276	0.082606	0.292846
Br117	Br	0.921510	-1.048917	-0.382810
Br118	Br	1.421510	-0.548917	0.117190
Br119	Br	1.097520	-0.417576	-0.548188
Br120	Br	1.597520	0.082424	-0.048188
Br121	Br	0.909066	-0.797876	-0.699113
Br122	Br	1.409066	-0.297876	-0.199113
Br123	Br	0.909045	-0.797947	-0.532490
Br124	Br	1.409045	-0.297947	-0.032490
H125	H	1.075828	-0.461307	-0.693806
H126	H	1.575828	0.038693	-0.193806
Br127	Br	0.909082	-0.797799	-0.888268
Br128	Br	1.409082	-0.297799	-0.388268
Br129	Br	0.606033	-0.798343	-0.395218
Br130	Br	1.106033	-0.298343	0.104782
Br131	Br	0.756896	-0.417379	-0.207138
Br132	Br	1.256896	0.082621	0.292862
H133	H	1.075855	-0.461215	-0.921337
H134	H	1.575855	0.038785	-0.421337
Br135	Br	1.097580	-0.417347	-1.070574
Br136	Br	1.597580	0.082653	-0.570574
Br137	Br	0.416888	-0.798370	-0.395225
Br138	Br	0.916888	-0.298370	0.104775
H139	H	0.267639	-0.754513	-0.373583
H140	H	0.767639	-0.254513	0.126417
H141	H	0.255518	-0.461303	-0.228830
H142	H	0.755518	0.038697	0.271170
