data_functionalizedCrystal
_audit_creation_method	'MofGen! by Chris Wilmer'
_symmetry_space_group_name_H-M	'P1'
_symmetry_Int_Tables_number	1
_symmetry_cell_setting	triclinic
loop_
_symmetry_equiv_pos_as_xyz
  x,y,z
_cell_length_a	16.109301
_cell_length_b	10.489741
_cell_length_c	14.586319
_cell_angle_alpha	89.996488
_cell_angle_beta	89.999213
_cell_angle_gamma	84.000327
loop_
_atom_site_label
_atom_site_type_symbol
_atom_site_fract_x
_atom_site_fract_y
_atom_site_fract_z
O1	O	1.104141	0.163947	-0.076182
O2	O	0.862205	0.184350	-0.076196
O3	O	0.988678	-0.011529	-0.076183
O4	O	0.977668	0.359826	-0.076195
O5	O	0.988670	-0.011532	0.076298
O6	O	0.862196	0.184347	0.076284
O7	O	1.104132	0.163944	0.076299
Cu8	Cu	0.983164	0.174145	0.090214
Cu9	Cu	0.983174	0.174149	-0.090112
O10	O	0.977659	0.359823	0.076286
C11	C	0.831221	0.183522	0.000042
C12	C	0.738910	0.181044	0.000037
C13	C	0.987842	-0.059050	0.000057
C14	C	0.985354	-0.200644	0.000055
C15	C	0.517319	0.291514	0.000044
C16	C	0.430584	0.289175	0.000050
C17	C	0.449026	0.056771	0.000053
C18	C	0.535759	0.059111	0.000054
C19	C	0.569903	0.176486	0.000045
C20	C	0.396435	0.171808	0.000050
C21	C	0.302393	0.169272	0.000056
C22	C	0.663950	0.179022	0.000040
C23	C	0.904883	-0.267616	0.000043
C24	C	0.942893	-0.360292	0.075226
C25	C	0.942920	-0.360264	-0.075108
C26	C	1.023397	-0.291454	0.075300
C27	C	1.023414	-0.291417	-0.075102
C28	C	1.061482	-0.384066	0.000100
C29	C	1.135117	0.164772	0.000058
C30	C	1.227427	0.167250	0.000058
C31	C	0.978495	0.407344	0.000044
C32	C	0.980983	0.548938	0.000040
N33	N	0.983162	0.174142	0.217046
N34	N	0.983182	0.174142	-0.216944
C35	C	1.039183	0.087436	0.452058
C36	C	1.039186	0.087433	0.548040
C37	C	0.927155	0.260852	0.548038
C38	C	0.927149	0.260848	0.452058
C39	C	0.983168	0.174141	0.404071
C40	C	0.983176	0.174142	0.596032
C41	C	0.983178	0.174140	0.700099
C42	C	0.983165	0.174142	0.299997
H43	H	0.387773	0.382843	0.000051
H44	H	0.545116	0.387088	0.000043
O45	O	1.093681	0.003161	0.594512
C46	C	1.143104	-0.073387	0.531572
H47	H	1.144352	-0.021089	0.463153
H48	H	1.209383	-0.092815	0.559299
H49	H	1.115545	-0.168152	0.521369
H50	H	1.057413	-0.261117	0.138933
O51	O	0.415719	-0.057129	0.000014
C52	C	0.327890	-0.034532	0.000034
H53	H	0.308120	0.065015	-0.028834
H54	H	0.300817	-0.109628	-0.044236
H55	H	0.303711	-0.040710	0.073186
O56	O	0.872848	0.345138	0.405338
C57	C	0.917842	0.423862	0.349827
H58	H	0.982592	0.373086	0.335448
H59	H	0.883259	0.444021	0.282334
H60	H	0.924056	0.518135	0.386808
O61	O	0.586726	-0.052752	0.000013
C62	C	0.537993	-0.156852	0.000036
H63	H	0.473464	-0.124459	-0.028835
H64	H	0.569507	-0.237441	-0.044231
H65	H	0.531603	-0.192834	0.073189
H66	H	0.908840	-0.390811	0.138784
H67	H	0.838720	-0.217005	0.000115
O68	O	1.140496	-0.444129	0.000313
C69	C	1.182599	-0.409027	0.079674
H70	H	1.135063	-0.375741	0.134824
H71	H	1.224986	-0.495134	0.105915
H72	H	1.221796	-0.327826	0.062458
O73	O	1.063883	-0.254991	-0.151020
C74	C	1.021259	-0.289673	-0.230138
H75	H	0.953414	-0.299913	-0.212129
H76	H	1.023754	-0.212341	-0.284693
H77	H	1.052140	-0.384807	-0.257567
O78	O	0.902183	-0.396457	-0.150912
C79	C	0.819640	-0.336595	-0.150615
H80	H	0.816189	-0.246397	-0.106600
H81	H	0.799875	-0.309690	-0.223731
H82	H	0.776109	-0.405288	-0.121277
O83	O	0.872826	0.345035	0.594796
C84	C	0.884829	0.326430	0.689801
H85	H	0.950641	0.278785	0.702907
H86	H	0.876161	0.423023	0.726271
H87	H	0.837391	0.262440	0.717049
H88	H	1.084796	0.016832	0.412990
