data_functionalizedCrystal
_audit_creation_method	'MofGen! by Chris Wilmer'
_symmetry_space_group_name_H-M	'P1'
_symmetry_Int_Tables_number	1
_symmetry_cell_setting	triclinic
loop_
_symmetry_equiv_pos_as_xyz
  x,y,z
_cell_length_a	12.645331
_cell_length_b	12.645330
_cell_length_c	16.120297
_cell_angle_alpha	87.123238
_cell_angle_beta	87.114961
_cell_angle_gamma	90.016927
loop_
_atom_site_label
_atom_site_type_symbol
_atom_site_fract_x
_atom_site_fract_y
_atom_site_fract_z
Zn1	Zn	1.590320	-0.452473	0.471265
Zn2	Zn	1.599197	-0.620763	0.331863
Zn3	Zn	1.422029	-0.443513	0.331884
Zn4	Zn	1.413017	-0.629691	0.471247
O5	O	1.506141	-0.536610	0.401565
O6	O	1.739844	-0.474810	0.452772
O7	O	1.583182	-0.589763	0.215202
O8	O	1.444409	-0.296355	0.350389
O9	O	1.746367	-0.598452	0.350354
O10	O	1.568052	-0.302938	0.452792
O11	O	1.453017	-0.459538	0.215217
O12	O	1.272486	-0.468196	0.350371
O13	O	1.429050	-0.613670	0.587913
O14	O	1.265865	-0.604981	0.452761
O15	O	1.559313	-0.483468	0.587926
O16	O	1.574444	-0.770293	0.350337
O17	O	1.437658	-0.776853	0.452741
C18	C	1.230711	-0.536586	0.401567
C19	C	1.112879	-0.536603	0.401587
C20	C	1.506064	-0.812039	0.401553
C21	C	1.506126	-0.929870	0.401576
C22	C	1.420399	-1.101618	0.466197
C23	C	1.419996	-0.979045	0.465989
C24	C	1.481551	-0.968793	0.313718
C25	C	1.481028	-1.091417	0.314110
C26	C	1.616974	-1.098415	0.424100
C27	C	1.616162	-0.975932	0.426021
C28	C	0.941207	-0.623081	0.465665
C29	C	1.063750	-0.622833	0.465933
C30	C	1.066852	-0.426497	0.425590
C31	C	0.944225	-0.427029	0.426041
C32	C	0.951331	-0.559317	0.313304
C33	C	1.073906	-0.561790	0.313780
C34	C	1.782646	-0.536635	0.401563
C35	C	1.900476	-0.536645	0.401562
C36	C	1.492186	-0.550565	0.619015
C37	C	1.486240	-0.556511	0.711680
C38	C	1.506245	-0.260107	0.401595
C39	C	1.506290	-0.142277	0.401607
C40	C	1.520102	-0.522633	0.184960
C41	C	1.526254	-0.516388	0.092296
C42	C	1.475344	-0.567345	0.881339
C43	C	1.537146	-0.505558	0.922642
C44	C	1.531084	-0.511585	1.017046
C45	C	1.481405	-0.561318	0.786926
H46	H	1.434715	-0.953097	0.531136
C47	C	0.902657	-0.734010	0.445578
H48	H	0.861369	-0.728607	0.397922
H49	H	0.961999	-0.778219	0.434862
H50	H	0.860792	-0.763633	0.491559
H51	H	0.921817	-0.637939	0.291487
C52	C	1.614784	-0.427987	0.874642
H53	H	1.652760	-0.390010	0.912973
H54	H	1.663092	-0.466422	0.840678
H55	H	1.576387	-0.379659	0.840668
C56	C	0.916295	-0.474182	0.248776
H57	H	0.947283	-0.488300	0.195573
H58	H	0.841349	-0.475251	0.246825
H59	H	0.938655	-0.406468	0.264121
C60	C	1.310076	-1.142064	0.446324
H61	H	1.316132	-1.183618	0.398833
H62	H	1.281067	-1.184039	0.492466
H63	H	1.264971	-1.083476	0.435394
H64	H	1.417886	-0.624765	0.916876
H65	H	1.640500	-1.133325	0.487077
H66	H	1.104157	-0.642783	0.295677
C67	C	0.899992	-0.400163	0.513203
H68	H	0.956988	-0.389033	0.548005
H69	H	0.858421	-0.337740	0.509063
H70	H	0.857294	-0.457162	0.536325
C71	C	1.439928	-1.147179	0.554475
H72	H	1.500643	-1.191397	0.552738
H73	H	1.451129	-1.090843	0.589889
H74	H	1.380032	-1.187468	0.575252
H75	H	1.337825	-0.948848	0.451088
H76	H	1.542376	-0.936444	0.264279
C77	C	1.706557	-0.930732	0.367101
H78	H	1.772041	-0.959907	0.383333
H79	H	1.694638	-0.948496	0.311770
H80	H	1.708769	-0.855901	0.369859
H81	H	0.917419	-0.360637	0.381493
H82	H	1.088879	-0.608280	0.531329
H83	H	1.400285	-1.118877	0.295055
C84	C	1.562265	-1.127148	0.246873
H85	H	1.595435	-1.066726	0.219435
H86	H	1.614260	-1.170449	0.272107
H87	H	1.527202	-1.166297	0.207580
C88	C	1.703307	-1.133364	0.360495
H89	H	1.672111	-1.174500	0.320431
H90	H	1.736285	-1.072597	0.333446
H91	H	1.754770	-1.174549	0.388351
C92	C	1.110126	-0.337461	0.364484
H93	H	1.081277	-0.271592	0.380140
H94	H	1.185101	-0.334891	0.365766
H95	H	1.090672	-0.350967	0.309841
C96	C	0.894081	-0.603631	0.553519
H97	H	0.919126	-0.656175	0.591869
H98	H	0.915049	-0.535610	0.569188
H99	H	0.819021	-0.607100	0.553707
C100	C	1.373653	-0.925767	0.287512
H101	H	1.343444	-0.884088	0.329988
H102	H	1.383217	-0.883402	0.237340
H103	H	1.327720	-0.983278	0.279058
H104	H	1.094793	-0.704660	0.450890
C105	C	1.102760	-0.398975	0.511818
H106	H	1.145783	-0.454432	0.533306
H107	H	1.142238	-0.334848	0.506949
H108	H	1.042394	-0.390692	0.548408
H109	H	1.634798	-0.950956	0.490680
H110	H	1.107770	-0.502948	0.263457
