data_functionalizedCrystal
_audit_creation_method	'MofGen! by Chris Wilmer'
_symmetry_space_group_name_H-M	'P1'
_symmetry_Int_Tables_number	1
_symmetry_cell_setting	triclinic
loop_
_symmetry_equiv_pos_as_xyz
  x,y,z
_cell_length_a	12.811457
_cell_length_b	12.784905
_cell_length_c	11.295483
_cell_angle_alpha	93.662891
_cell_angle_beta	91.289320
_cell_angle_gamma	78.600470
loop_
_atom_site_label
_atom_site_type_symbol
_atom_site_fract_x
_atom_site_fract_y
_atom_site_fract_z
O1	O	1.375736	0.146659	0.049549
O2	O	1.071298	0.159857	0.016670
O3	O	1.245795	-0.001197	0.035518
O4	O	1.201239	0.307713	0.030700
O5	O	1.230470	0.012926	0.231914
O6	O	1.055974	0.173980	0.213065
O7	O	1.360411	0.160782	0.245944
Cu8	Cu	1.206793	0.168671	0.247437
Cu9	Cu	1.224916	0.151968	0.015177
O10	O	1.185915	0.321836	0.227095
C11	C	1.024938	0.165746	0.110688
C12	C	0.909630	0.162240	0.098235
C13	C	0.676249	0.171031	0.288968
C14	C	0.567907	0.167737	0.277273
C15	C	0.584604	0.152350	0.063151
C16	C	0.692946	0.155644	0.074846
C17	C	0.738764	0.164987	0.187758
C18	C	0.847107	0.168288	0.199452
C19	C	0.863803	0.152894	-0.014669
C20	C	0.755461	0.149600	-0.026364
C21	C	1.241030	-0.033700	0.134027
C22	C	1.249653	-0.151588	0.134954
C23	C	1.073987	-0.350118	0.115993
C24	C	1.082084	-0.460885	0.116863
C25	C	1.273941	-0.483889	0.137571
C26	C	1.265845	-0.373122	0.136701
C27	C	1.165864	-0.306241	0.125910
C28	C	1.157769	-0.195473	0.125032
C29	C	1.349625	-0.218478	0.145748
C30	C	1.357722	-0.329245	0.146618
C31	C	1.406772	0.154893	0.151923
C32	C	1.522080	0.158398	0.164369
C33	C	1.190679	0.354338	0.128584
C34	C	1.182057	0.472227	0.127650
N35	N	1.194054	0.180418	0.410797
N36	N	1.237664	0.140212	-0.148183
C37	C	1.329372	0.055589	0.674704
C38	C	1.319752	0.064474	0.798328
C39	C	1.165190	0.207068	0.781673
C40	C	1.174810	0.198183	0.658048
C41	C	1.256905	0.122442	0.604568
C42	C	1.266529	0.113563	0.480942
C43	C	1.111963	0.256151	0.464288
C44	C	1.102343	0.265036	0.587913
H45	H	0.547283	0.144726	-0.028776
F46	F	1.380336	-0.555083	0.149081
F47	F	1.396880	-0.006682	0.872967
H48	H	0.713552	0.178652	0.380906
F49	F	0.501378	0.174168	0.384995
F50	F	1.416751	-0.025009	0.617787
H51	H	1.333377	0.051894	0.437400
H52	H	1.439122	-0.383714	0.155408
H53	H	1.052958	0.310590	0.407170
F54	F	1.014973	0.345638	0.644840
H55	H	0.884408	0.175902	0.291391
H56	H	0.914713	0.147978	-0.097082
H57	H	1.076360	-0.141019	0.116243
F58	F	0.706692	0.139628	-0.146526
F59	F	0.984295	-0.507578	0.106312
F60	F	0.967583	-0.278937	0.104496
H61	H	1.424447	-0.182750	0.153719
H62	H	1.098344	0.268727	0.825232
