data_functionalizedCrystal
_audit_creation_method	'MofGen! by Chris Wilmer'
_symmetry_space_group_name_H-M	'P1'
_symmetry_Int_Tables_number	1
_symmetry_cell_setting	triclinic
loop_
_symmetry_equiv_pos_as_xyz
  x,y,z
_cell_length_a	19.288864
_cell_length_b	19.288865
_cell_length_c	18.366186
_cell_angle_alpha	89.988521
_cell_angle_beta	89.977106
_cell_angle_gamma	83.136245
loop_
_atom_site_label
_atom_site_type_symbol
_atom_site_fract_x
_atom_site_fract_y
_atom_site_fract_z
O1	O	0.921353	0.086649	-0.060791
O2	O	1.421353	0.586649	0.439209
O3	O	0.719092	0.098337	-0.060743
O4	O	1.219092	0.598337	0.439257
O5	O	0.826067	-0.008637	-0.060754
O6	O	1.326067	0.491363	0.439246
O7	O	0.814378	0.193623	-0.060780
O8	O	1.314378	0.693623	0.439220
O9	O	0.826049	-0.008643	0.060345
O10	O	1.326049	0.491357	0.560345
O11	O	0.719074	0.098332	0.060357
O12	O	1.219074	0.598332	0.560357
O13	O	0.921335	0.086643	0.060308
O14	O	1.421335	0.586643	0.560308
Zn15	Zn	0.820201	0.092487	0.079559
Zn16	Zn	1.320201	0.592487	0.579559
Zn17	Zn	0.820225	0.092494	-0.079994
Zn18	Zn	1.320225	0.592494	0.420006
O19	O	0.814360	0.193618	0.060319
O20	O	1.314360	0.693618	0.560319
C21	C	0.693207	0.097959	-0.000187
C22	C	1.193207	0.597959	0.499813
C23	C	0.616103	0.096830	-0.000167
C24	C	1.116103	0.596830	0.499833
C25	C	0.571407	0.159598	-0.000187
C26	C	1.071407	0.659598	0.499813
C27	C	0.498960	0.158537	-0.000195
C28	C	0.998960	0.658537	0.499805
C29	C	0.471212	0.094705	-0.000198
C30	C	0.971212	0.594705	0.499802
C31	C	0.515918	0.031929	-0.000174
C32	C	1.015918	0.531929	0.499826
C33	C	0.588364	0.032991	-0.000159
C34	C	1.088364	0.532991	0.499841
C35	C	0.362956	0.044527	-0.042642
C36	C	0.862956	0.544527	0.457358
C37	C	0.290512	0.043468	-0.042662
C38	C	0.790512	0.543468	0.457338
C39	C	0.247767	0.091425	-0.000241
C40	C	0.747767	0.591425	0.499759
C41	C	0.277473	0.140454	0.042189
C42	C	0.777473	0.640454	0.542189
C43	C	0.349918	0.141517	0.042205
C44	C	0.849918	0.641517	0.542205
C45	C	0.392658	0.093546	-0.000214
C46	C	0.892658	0.593546	0.499786
C47	C	0.124514	0.153047	-0.000269
C48	C	0.624514	0.653047	0.499731
C49	C	0.052066	0.151984	-0.000272
C50	C	0.552066	0.651984	0.499728
C51	C	0.069026	0.025374	-0.000259
C52	C	0.569026	0.525374	0.499741
C53	C	0.141473	0.026439	-0.000248
C54	C	0.641473	0.526439	0.499752
C55	C	0.169212	0.090278	-0.000256
C56	C	0.669212	0.590278	0.499744
C57	C	0.825682	-0.034516	-0.000202
C58	C	1.325682	0.465484	0.499798
C59	C	0.824553	-0.111620	-0.000195
C60	C	1.324553	0.388380	0.499805
C61	C	0.887321	-0.156316	-0.000207
C62	C	1.387321	0.343684	0.499793
C63	C	0.886260	-0.228763	-0.000218
C64	C	1.386260	0.271237	0.499782
C65	C	0.822428	-0.256511	-0.000203
C66	C	1.322428	0.243489	0.499797
C67	C	0.759652	-0.211805	-0.000196
C68	C	1.259652	0.288195	0.499804
C69	C	0.760714	-0.139359	-0.000192
C70	C	1.260714	0.360641	0.499808
C71	C	0.772242	-0.364800	0.042227
C72	C	1.272242	0.135200	0.542227
C73	C	0.771182	-0.437245	0.042228
C74	C	1.271182	0.062755	0.542228
C75	C	0.819148	-0.479956	-0.000219
C76	C	1.319148	0.020044	0.499781
C77	C	0.868186	-0.450216	-0.042657
C78	C	1.368186	0.049784	0.457343
C79	C	0.869248	-0.377771	-0.042653
C80	C	1.369248	0.122229	0.457347
C81	C	0.821269	-0.335065	-0.000208
C82	C	1.321269	0.164935	0.499792
C83	C	0.880770	-0.603209	-0.000244
C84	C	1.380770	-0.103209	0.499756
C85	C	0.879707	-0.675657	-0.000259
C86	C	1.379707	-0.175657	0.499741
C87	C	0.753097	-0.658697	-0.000230
C88	C	1.253097	-0.158697	0.499770
C89	C	0.754162	-0.586250	-0.000221
C90	C	1.254162	-0.086250	0.499779
C91	C	0.818001	-0.558511	-0.000225
C92	C	1.318001	-0.058511	0.499775
C93	C	0.947220	0.087022	-0.000250
C94	C	1.447220	0.587022	0.499750
C95	C	1.024324	0.088151	-0.000274
C96	C	1.524324	0.588151	0.499726
C97	C	0.814745	0.219497	-0.000234
C98	C	1.314745	0.719497	0.499766
C99	C	0.815874	0.296601	-0.000246
C100	C	1.315874	0.796601	0.499754
N101	N	0.820190	0.092482	0.188451
N102	N	1.320190	0.592482	0.688451
N103	N	0.820242	0.092493	-0.188885
N104	N	1.320242	0.592493	0.311115
C105	C	0.867574	0.045137	0.226546
C106	C	1.367574	0.545137	0.726546
C107	C	0.867578	0.045134	0.302774
C108	C	1.367578	0.545134	0.802774
C109	C	0.820206	0.092488	0.340903
C110	C	1.320206	0.592488	0.840903
C111	C	0.772813	0.139836	0.302799
C112	C	1.272813	0.639836	0.802799
C113	C	0.772805	0.139834	0.226572
C114	C	1.272805	0.639834	0.726572
C115	C	0.810907	0.155775	0.461657
C116	C	1.310907	0.655775	0.961657
C117	C	0.810920	0.155779	0.537882
C118	C	1.310920	0.655779	1.037882
C119	C	0.820225	0.092496	0.576011
C120	C	1.320225	0.592496	1.076011
C121	C	0.829533	0.029207	0.537905
C122	C	1.329533	0.529207	1.037905
C123	C	0.829525	0.029204	0.461679
C124	C	1.329525	0.529204	0.961679
C125	C	0.820208	0.092496	0.423558
C126	C	1.320208	0.592496	0.923558
C127	C	0.867617	0.045144	0.696761
C128	C	1.367617	0.545144	1.196761
C129	C	0.867616	0.045140	0.772990
C130	C	1.367616	0.545140	1.272990
C131	C	0.772854	0.139849	0.773014
C132	C	1.272854	0.639849	1.273014
C133	C	0.772851	0.139847	0.696786
C134	C	1.272851	0.639847	1.196786
C135	C	0.820236	0.092495	0.658664
C136	C	1.320236	0.592495	1.158664
H137	H	0.462561	0.209652	-0.000209
H138	H	0.962561	0.709652	0.499791
H139	H	0.909175	-0.353560	-0.077208
H140	H	1.409175	0.146440	0.422792
O141	O	0.690805	-0.241732	-0.000179
O142	O	1.190805	0.258268	0.499821
H143	H	0.647335	-0.198477	-0.000175
H144	H	1.147335	0.301523	0.499825
H145	H	0.397755	0.005473	-0.077191
H146	H	0.897755	0.505473	0.422809
H147	H	0.709599	-0.102967	-0.000182
H148	H	1.209599	0.397033	0.499818
H149	H	0.907244	-0.484991	-0.077221
H150	H	1.407244	0.015009	0.422779
O151	O	0.839586	-0.039059	0.579011
O152	O	1.339586	0.460941	1.079011
H153	H	0.797235	-0.070728	0.564404
H154	H	1.297235	0.429272	1.064404
O155	O	0.918732	-0.005920	0.814085
O156	O	1.418732	0.494080	1.314085
H157	H	0.951685	-0.038838	0.774767
H158	H	1.451685	0.461162	1.274767
H159	H	0.837102	-0.022328	0.430657
H160	H	1.337102	0.477672	0.930657
H161	H	0.374102	0.181436	0.076756
H162	H	0.874102	0.681436	0.576756
O163	O	0.686462	-0.538034	-0.000191
O164	O	1.186462	-0.038034	0.499809
H165	H	0.641896	-0.569498	-0.000174
H166	H	1.141896	-0.069498	0.499826
H167	H	0.906198	0.006585	0.665721
H168	H	1.406198	0.506585	1.165721
H169	H	0.242671	0.179506	0.076733
H170	H	0.742671	0.679506	0.576733
O171	O	0.800885	0.224040	0.578974
O172	O	1.300885	0.724040	1.078974
H173	H	0.802464	0.213412	0.638384
H174	H	1.302464	0.713412	1.138384
O175	O	0.718295	-0.469315	0.088002
O176	O	1.218295	0.030685	0.588002
H177	H	0.725620	-0.526867	0.080878
H178	H	1.225620	-0.026867	0.580878
H179	H	0.734269	0.178402	0.665767
H180	H	1.234269	0.678402	1.165767
H181	H	0.803318	0.207311	0.430619
H182	H	1.303318	0.707311	0.930619
O183	O	0.721758	0.190928	0.814127
O184	O	1.221758	0.690928	1.314127
H185	H	0.729725	0.182979	0.873533
H186	H	1.229725	0.682979	1.373533
O187	O	0.189685	-0.041263	-0.000230
O188	O	0.689685	0.458737	0.499770
H189	H	0.223130	-0.043805	-0.049576
H190	H	0.723130	0.456195	0.450424
H191	H	0.734219	0.178388	0.195554
H192	H	1.234219	0.678388	0.695554
H193	H	0.932751	-0.580622	-0.000250
H194	H	1.432751	-0.080622	0.499750
H195	H	0.930822	-0.712049	-0.000273
H196	H	1.430822	-0.212049	0.499727
H197	H	0.701123	-0.681288	-0.000221
H198	H	1.201123	-0.181288	0.499779
O199	O	0.720507	-0.318733	0.088015
O200	O	1.220507	0.181267	0.588015
H201	H	0.686240	-0.351583	0.117533
H202	H	1.186240	0.148417	0.617533
O203	O	0.721720	0.190917	0.343917
O204	O	1.221720	0.690917	0.843917
H205	H	0.729691	0.182971	0.403323
H206	H	1.229691	0.682971	0.903323
H207	H	0.266331	0.003548	-0.077215
H208	H	0.766331	0.503548	0.422785
O209	O	0.636579	-0.034711	-0.000138
O210	O	1.136579	0.465289	0.499862
H211	H	0.626773	-0.065268	-0.049496
H212	H	1.126773	0.434732	0.450504
O213	O	0.601328	0.228449	-0.000175
O214	O	1.101328	0.728449	0.499825
H215	H	0.558071	0.271917	-0.000179
H216	H	1.058071	0.771917	0.499821
H217	H	0.147101	0.205028	-0.000265
H218	H	0.647101	0.705028	0.499735
H219	H	0.939303	-0.133736	-0.000212
H220	H	1.439303	0.366264	0.499788
O221	O	0.003852	0.219686	-0.000290
O222	O	0.503852	0.719686	0.499710
H223	H	0.035315	0.264252	-0.000300
H224	H	0.535315	0.764252	0.499700
H225	H	0.906156	0.006579	0.195509
H226	H	1.406156	0.506579	0.695509
H227	H	0.906165	0.006578	0.333797
H228	H	1.406165	0.506578	0.833797
O229	O	0.039111	-0.043477	-0.000262
O230	O	0.539111	0.456523	0.499738
H231	H	-0.018774	-0.033672	-0.000280
H232	H	0.481226	0.466328	0.499720
H233	H	0.493322	-0.020044	-0.000187
H234	H	0.993322	0.479956	0.499813
H235	H	0.937375	-0.265162	-0.000231
H236	H	1.437375	0.234838	0.499769
