data_functionalizedCrystal
_audit_creation_method	'MofGen! by Chris Wilmer'
_symmetry_space_group_name_H-M	'P1'
_symmetry_Int_Tables_number	1
_symmetry_cell_setting	triclinic
loop_
_symmetry_equiv_pos_as_xyz
  x,y,z
_cell_length_a	17.077404
_cell_length_b	18.215405
_cell_length_c	17.077396
_cell_angle_alpha	89.969816
_cell_angle_beta	89.982664
_cell_angle_gamma	90.018118
loop_
_atom_site_label
_atom_site_type_symbol
_atom_site_fract_x
_atom_site_fract_y
_atom_site_fract_z
Zn1	Zn	1.200037	-0.293063	-0.443848
Zn2	Zn	1.199950	-0.416140	-0.312582
Zn3	Zn	1.068774	-0.293082	-0.312595
Zn4	Zn	1.068737	-0.416083	-0.443805
O5	O	1.134374	-0.354592	-0.378207
O6	O	1.309872	-0.309406	-0.426448
O7	O	1.182528	-0.399848	-0.202736
O8	O	1.086238	-0.190095	-0.330030
O9	O	1.309808	-0.399830	-0.330007
O10	O	1.182676	-0.190081	-0.426461
O11	O	1.086154	-0.309438	-0.202746
O12	O	0.958922	-0.309382	-0.329988
O13	O	1.086175	-0.399732	-0.553657
O14	O	0.958895	-0.399750	-0.426387
O15	O	1.182640	-0.309350	-0.553689
O16	O	1.182492	-0.519117	-0.329965
O17	O	1.086090	-0.519075	-0.426374
C18	C	0.930426	-0.354563	-0.378185
C19	C	0.843177	-0.354568	-0.378194
C20	C	0.467368	-0.401752	-0.428346
C21	C	0.549349	-0.401742	-0.428334
C22	C	0.590328	-0.354612	-0.378220
C23	C	0.549322	-0.307493	-0.328109
C24	C	0.467343	-0.307506	-0.328117
C25	C	0.720192	-0.307466	-0.328096
C26	C	0.802176	-0.307451	-0.328088
C27	C	0.802198	-0.401702	-0.428312
C28	C	0.720219	-0.401716	-0.428321
C29	C	0.679219	-0.354595	-0.378211
C30	C	1.134299	-0.545798	-0.378180
C31	C	1.134339	-0.627597	-0.378195
C32	C	1.184578	-0.815723	-0.428474
C33	C	1.184606	-0.892582	-0.428489
C34	C	1.084268	-0.892709	-0.327989
C35	C	1.084236	-0.815852	-0.327979
C36	C	1.134395	-0.777361	-0.378220
C37	C	1.134456	-0.931077	-0.378245
C38	C	1.134486	-1.014410	-0.378261
C39	C	1.134364	-0.694022	-0.378206
C40	C	1.339118	-0.354622	-0.378231
C41	C	1.426368	-0.354635	-0.378240
C42	C	1.134413	-0.354532	-0.582952
C43	C	1.134429	-0.354507	-0.670202
C44	C	1.134471	-0.162639	-0.378252
C45	C	1.134512	-0.080840	-0.378271
C46	C	1.184683	-0.401498	-1.046013
C47	C	1.184663	-0.401519	-0.964033
C48	C	1.134480	-0.354455	-0.923051
C49	C	1.084308	-0.307371	-0.964053
C50	C	1.084324	-0.307354	-1.046032
C51	C	1.084279	-0.307409	-0.793183
C52	C	1.084263	-0.307426	-0.711198
C53	C	1.184617	-0.401575	-0.711184
C54	C	1.184634	-0.401557	-0.793163
C55	C	1.134462	-0.354473	-0.834160
C56	C	1.134381	-0.354598	-0.174260
C57	C	1.134516	-0.354416	-0.087010
H58	H	0.433961	-0.269137	-0.287318
O59	O	1.035446	-0.261734	-0.924279
C60	C	0.957206	-0.277788	-0.944311
H61	H	0.953217	-0.336575	-0.966828
H62	H	0.918419	-0.271455	-0.890395
H63	H	0.936716	-0.238318	-0.991905
O64	O	1.035402	-0.778549	-0.279270
C65	C	0.984669	-0.734086	-0.323910
H66	H	0.979790	-0.757216	-0.385731
H67	H	0.924277	-0.733268	-0.295462
H68	H	1.008915	-0.675820	-0.326632
O69	O	1.035518	-0.261602	-0.832887
C70	C	0.991209	-0.220076	-0.779138
H71	H	1.023350	-0.217548	-0.720704
H72	H	0.982874	-0.162086	-0.802842
H73	H	0.931574	-0.247015	-0.770406
O74	O	0.589005	-0.261690	-0.279349
C75	C	0.535234	-0.220096	-0.235137
H76	H	0.476790	-0.250245	-0.232371
H77	H	0.558895	-0.212173	-0.173301
H78	H	0.526537	-0.164236	-0.263986
O79	O	1.233318	-0.778446	-0.477358
C80	C	1.277628	-0.828790	-0.521705
H81	H	1.245496	-0.883597	-0.524394
H82	H	1.285945	-0.806543	-0.583559
H83	H	1.337270	-0.836941	-0.493023
O84	O	1.035438	-0.930069	-0.279266
C85	C	0.957183	-0.911318	-0.296328
H86	H	0.953167	-0.890156	-0.359032
H87	H	0.918430	-0.961894	-0.289534
H88	H	0.936674	-0.866745	-0.254217
H89	H	1.043474	-0.269015	-1.079411
O90	O	1.233243	-0.929879	-0.477388
C91	C	1.188539	-0.974346	-0.528041
H92	H	1.126703	-0.951222	-0.532829
H93	H	1.216893	-0.975160	-0.588478
H94	H	1.185874	-1.032613	-0.503779
O95	O	0.427686	-0.447601	-0.477057
C96	C	0.481458	-0.489171	-0.521293
H97	H	0.539880	-0.491674	-0.489127
H98	H	0.457766	-0.547168	-0.529563
H99	H	0.490209	-0.462288	-0.580959
H100	H	0.582728	-0.440111	-0.469133
O101	O	1.035587	-0.261735	-0.671265
C102	C	1.046323	-0.271860	-0.590118
H103	H	1.106890	-0.295971	-0.578926
H104	H	1.041020	-0.216742	-0.558977
H105	H	0.999742	-0.311051	-0.566834
H106	H	0.835584	-0.440067	-0.469116
H107	H	1.225551	-0.439820	-1.079375
O108	O	1.233476	-0.447271	-0.924330
C109	C	1.277764	-0.488814	-0.978081
H110	H	1.280503	-0.458659	-1.036529
H111	H	1.339605	-0.496671	-0.954401
H112	H	1.249000	-0.544704	-0.986778
O113	O	1.233277	-0.447294	-0.671243
C114	C	1.222514	-0.437210	-0.590098
H115	H	1.161945	-0.413101	-0.578903
H116	H	1.227803	-0.492344	-0.558928
H117	H	1.269090	-0.398033	-0.566848
O118	O	0.680279	-0.261653	-0.279531
C119	C	0.632902	-0.214173	-0.324326
H120	H	0.620640	-0.240208	-0.383762
H121	H	0.575243	-0.204274	-0.292379
H122	H	0.664512	-0.159643	-0.333059
H123	H	1.225501	-0.439878	-0.826528
O124	O	0.680532	-0.447568	-0.477025
C125	C	0.734297	-0.489143	-0.521263
H126	H	0.792723	-0.491644	-0.489105
H127	H	0.710602	-0.547140	-0.529522
H128	H	0.743039	-0.462267	-0.580934
O129	O	0.841863	-0.261658	-0.279320
C130	C	0.788099	-0.220069	-0.235097
H131	H	0.729651	-0.250212	-0.232339
H132	H	0.811761	-0.212164	-0.173259
H133	H	0.779409	-0.164202	-0.263930
