data_functionalizedCrystal
_audit_creation_method	'MofGen! by Chris Wilmer'
_symmetry_space_group_name_H-M	'P1'
_symmetry_Int_Tables_number	1
_symmetry_cell_setting	triclinic
loop_
_symmetry_equiv_pos_as_xyz
  x,y,z
_cell_length_a	18.101398
_cell_length_b	18.101395
_cell_length_c	16.625539
_cell_angle_alpha	89.972352
_cell_angle_beta	89.974087
_cell_angle_gamma	90.026371
loop_
_atom_site_label
_atom_site_type_symbol
_atom_site_fract_x
_atom_site_fract_y
_atom_site_fract_z
Zn1	Zn	1.132133	-0.294922	-0.456028
Zn2	Zn	1.465466	0.038412	-0.122695
Zn3	Zn	1.798799	0.371745	0.210639
Zn4	Zn	1.132025	-0.418771	-0.321197
Zn5	Zn	1.465358	-0.085437	0.012137
Zn6	Zn	1.798692	0.247896	0.345470
Zn7	Zn	1.008288	-0.294937	-0.321196
Zn8	Zn	1.341621	0.038396	0.012137
Zn9	Zn	1.674955	0.371729	0.345471
Zn10	Zn	1.008242	-0.418716	-0.455974
Zn11	Zn	1.341576	-0.085382	-0.122641
Zn12	Zn	1.674909	0.247951	0.210693
O13	O	1.070172	-0.356836	-0.388599
O14	O	1.403505	-0.023503	-0.055265
O15	O	1.736839	0.309830	0.278068
O16	O	1.235751	-0.311367	-0.438165
O17	O	1.569085	0.021966	-0.104832
O18	O	1.902418	0.355300	0.228501
O19	O	1.115585	-0.402374	-0.208364
O20	O	1.448919	-0.069040	0.124969
O21	O	1.782252	0.264293	0.458303
O22	O	1.024781	-0.191302	-0.339104
O23	O	1.358114	0.142031	-0.005771
O24	O	1.691447	0.475364	0.327563
O25	O	1.235672	-0.402358	-0.339105
O26	O	1.569006	-0.069025	-0.005772
O27	O	1.902339	0.264308	0.327561
O28	O	1.115769	-0.191291	-0.438164
O29	O	1.449102	0.142042	-0.104831
O30	O	1.782435	0.475376	0.228502
O31	O	1.024676	-0.311394	-0.208364
O32	O	1.358010	0.021940	0.124970
O33	O	1.691343	0.355273	0.458303
O34	O	0.904649	-0.311340	-0.339052
O35	O	1.237982	0.021993	-0.005718
O36	O	1.571316	0.355326	0.327615
O37	O	1.024702	-0.402265	-0.568814
O38	O	1.358036	-0.068931	-0.235480
O39	O	1.691369	0.264402	0.097853
O40	O	0.904615	-0.402280	-0.438072
O41	O	1.237949	-0.068946	-0.104739
O42	O	1.571282	0.264387	0.228594
O43	O	1.115724	-0.311314	-0.568853
O44	O	1.449057	0.022020	-0.235520
O45	O	1.782391	0.355353	0.097813
O46	O	1.115541	-0.522396	-0.339053
O47	O	1.448874	-0.189063	-0.005720
O48	O	1.782207	0.144270	0.327614
O49	O	1.024598	-0.522356	-0.438073
O50	O	1.357931	-0.189023	-0.104740
O51	O	1.691265	0.144311	0.228593
C52	C	0.877761	-0.356806	-0.388557
C53	C	1.211095	-0.023473	-0.055223
C54	C	1.544428	0.309860	0.278110
C55	C	0.795447	-0.356811	-0.388558
C56	C	1.128781	-0.023478	-0.055224
C57	C	1.462114	0.309855	0.278109
C58	C	0.496356	-0.356858	-0.388625
C59	C	0.829690	-0.023524	-0.055292
C60	C	1.163023	0.309809	0.278041
C61	C	0.527678	-0.299355	-0.326628
C62	C	0.861011	0.033978	0.006705
C63	C	1.194345	0.367312	0.340039
C64	C	0.613296	-0.299509	-0.326364
C65	C	0.946630	0.033824	0.006970
C66	C	1.279963	0.367157	0.340303
C67	C	0.644739	-0.356834	-0.388592
C68	C	0.978072	-0.023501	-0.055258
C69	C	1.311406	0.309833	0.278075
C70	C	0.613620	-0.434846	-0.365377
C71	C	0.946954	-0.101513	-0.032043
C72	C	1.280287	0.231821	0.301290
C73	C	0.527975	-0.434526	-0.364946
C74	C	0.861308	-0.101193	-0.031612
C75	C	1.194642	0.232140	0.301721
C76	C	0.527973	-0.337026	-0.473984
C77	C	0.861307	-0.003693	-0.140650
C78	C	1.194640	0.329640	0.192683
C79	C	0.613624	-0.335289	-0.473518
C80	C	0.946957	-0.001956	-0.140185
C81	C	1.280291	0.331377	0.193149
C82	C	0.728598	-0.356825	-0.388574
C83	C	1.061932	-0.023492	-0.055241
C84	C	1.395265	0.309841	0.278093
C85	C	0.412497	-0.356871	-0.388641
C86	C	0.745830	-0.023538	-0.055308
C87	C	1.079164	0.309795	0.278026
C88	C	1.070073	-0.549247	-0.388575
C89	C	1.403406	-0.215914	-0.055242
C90	C	1.736740	0.117420	0.278092
C91	C	1.070098	-0.631561	-0.388592
C92	C	1.403432	-0.298228	-0.055258
C93	C	1.736765	0.035106	0.278075
C94	C	1.070261	-0.930652	-0.388635
C95	C	1.403594	-0.597319	-0.055302
C96	C	1.736927	-0.263985	0.278032
C97	C	1.013175	-0.899332	-0.451091
C98	C	1.346508	-0.565999	-0.117757
C99	C	1.679842	-0.232666	0.215576
C100	C	1.012904	-0.813714	-0.450895
C101	C	1.346237	-0.480381	-0.117562
C102	C	1.679570	-0.147048	0.215771
C103	C	1.070180	-0.782270	-0.388614
C104	C	1.403513	-0.448936	-0.055281
C105	C	1.736847	-0.115603	0.278052
C106	C	1.049049	-0.813420	-0.303634
C107	C	1.382382	-0.480086	0.029699
C108	C	1.715715	-0.146753	0.363032
C109	C	1.048681	-0.899065	-0.304008
C110	C	1.382014	-0.565731	0.029325
C111	C	1.715347	-0.232398	0.362659
C112	C	1.148603	-0.899002	-0.410412
C113	C	1.481936	-0.565669	-0.077078
C114	C	1.815270	-0.232335	0.256255
C115	C	1.148142	-0.813351	-0.412275
C116	C	1.481476	-0.480018	-0.078942
C117	C	1.814809	-0.146684	0.254391
C118	C	1.070136	-0.698410	-0.388597
C119	C	1.403469	-0.365077	-0.055264
C120	C	1.736803	-0.031743	0.278069
C121	C	1.070303	-1.014511	-0.388646
C122	C	1.403637	-0.681178	-0.055313
C123	C	1.736970	-0.347845	0.278020
C124	C	1.263334	-0.356867	-0.388641
C125	C	1.596667	-0.023534	-0.055308
C126	C	1.930001	0.309800	0.278025
C127	C	1.345648	-0.356880	-0.388660
C128	C	1.678981	-0.023547	-0.055326
C129	C	2.012315	0.309786	0.278007
C130	C	1.070220	-0.356781	-0.598908
C131	C	1.403554	-0.023448	-0.265574
C132	C	1.736887	0.309885	0.067759
C133	C	1.070241	-0.356758	-0.688529
C134	C	1.403574	-0.023424	-0.355195
C135	C	1.736907	0.309909	-0.021862
C136	C	1.070292	-0.163675	-0.388640
C137	C	1.403625	0.169659	-0.055307
C138	C	1.736958	0.502992	0.278027
C139	C	1.070343	-0.081360	-0.388658
C140	C	1.403676	0.251973	-0.055324
C141	C	1.737009	0.585306	0.278009
C142	C	1.070275	-0.356675	-1.016705
C143	C	1.403608	-0.023341	-0.683371
C144	C	1.736942	0.309992	-0.350038
C145	C	1.070263	-0.356700	-0.925396
C146	C	1.403597	-0.023367	-0.592063
C147	C	1.736930	0.309966	-0.258729
C148	C	1.070258	-0.356717	-0.852620
C149	C	1.403592	-0.023384	-0.519286
C150	C	1.736925	0.309950	-0.185953
C151	C	1.070246	-0.356741	-0.761305
C152	C	1.403579	-0.023408	-0.427972
C153	C	1.736913	0.309926	-0.094639
C154	C	1.070167	-0.356838	-0.179108
C155	C	1.403500	-0.023505	0.154226
C156	C	1.736833	0.309829	0.487559
C157	C	1.070290	-0.356653	-0.089487
C158	C	1.403623	-0.023320	0.243846
C159	C	1.736956	0.310014	0.577180
H160	H	0.507108	-0.241329	-0.341019
H161	H	0.840441	0.092004	-0.007686
H162	H	1.173775	0.425338	0.325647
C163	C	1.208643	-0.784432	-0.355299
C164	C	1.541976	-0.451099	-0.021966
C165	C	1.875309	-0.117765	0.311368
N166	N	1.254210	-0.762652	-0.312377
N167	N	1.587543	-0.429319	0.020956
N168	N	1.920877	-0.095985	0.354290
C169	C	0.971313	-0.926137	-0.279094
C170	C	1.304646	-0.592804	0.054240
C171	C	1.637980	-0.259471	0.387573
N172	N	0.913037	-0.946525	-0.260331
N173	N	1.246370	-0.613192	0.073003
N174	N	1.579703	-0.279858	0.406336
C175	C	1.030762	-0.785257	-0.536022
C176	C	1.364095	-0.451923	-0.202689
C177	C	1.697428	-0.118590	0.130644
N178	N	1.044210	-0.763826	-0.600144
N179	N	1.377543	-0.430493	-0.266811
N180	N	1.710876	-0.097160	0.066522
H181	H	1.088456	-0.919786	-0.255886
H182	H	1.421789	-0.586452	0.077447
H183	H	1.755123	-0.253119	0.410780
C184	C	0.935200	-0.928478	-0.431843
C185	C	1.268533	-0.595145	-0.098509
C186	C	1.601866	-0.261811	0.234824
N187	N	0.876469	-0.950429	-0.417340
N188	N	1.209802	-0.617095	-0.084006
N189	N	1.543136	-0.283762	0.249327
H190	H	1.164078	-0.792989	-0.474816
H191	H	1.497411	-0.459656	-0.141483
H192	H	1.830744	-0.126322	0.191851
H193	H	1.026265	-0.919881	-0.514306
H194	H	1.359598	-0.586547	-0.180973
H195	H	1.692931	-0.253214	0.152360
H196	H	0.506127	-0.312317	-0.263746
H197	H	0.839460	0.021016	0.069587
H198	H	1.172794	0.354350	0.402920
C199	C	0.934442	-0.786114	-0.431466
C200	C	1.267775	-0.452780	-0.098133
C201	C	1.601108	-0.119447	0.235200
N202	N	0.875337	-0.765326	-0.416852
N203	N	1.208670	-0.431992	-0.083518
N204	N	1.542003	-0.098659	0.249815
H205	H	1.191134	-0.919256	-0.364923
H206	H	1.524467	-0.585922	-0.031590
H207	H	1.857801	-0.252589	0.301744
H208	H	0.634337	-0.241660	-0.340915
H209	H	0.967671	0.091673	-0.007582
H210	H	1.301004	0.425007	0.325752
C211	C	0.640929	-0.317225	-0.240916
C212	C	0.974262	0.016109	0.092417
C213	C	1.307596	0.349442	0.425750
N214	N	0.661741	-0.330571	-0.176554
N215	N	0.995075	0.002762	0.156779
N216	N	1.328408	0.336095	0.490112
H217	H	0.633986	-0.478838	-0.409119
H218	H	0.967319	-0.145504	-0.075786
H219	H	1.300653	0.187829	0.257547
H220	H	0.507962	-0.451344	-0.302545
H221	H	0.841295	-0.118011	0.030789
H222	H	1.174628	0.215322	0.364122
H223	H	0.507254	-0.478821	-0.408133
H224	H	0.840588	-0.145488	-0.074799
H225	H	1.173921	0.187846	0.258534
H226	H	0.992388	-0.792030	-0.284858
H227	H	1.325721	-0.458697	0.048476
H228	H	1.659054	-0.125364	0.381809
C229	C	0.642541	-0.457958	-0.281982
C230	C	0.975874	-0.124625	0.051351
C231	C	1.309207	0.208708	0.384685
N232	N	0.664321	-0.475362	-0.219166
N233	N	0.997654	-0.142028	0.114167
N234	N	1.330988	0.191305	0.447501
C235	C	0.498838	-0.261509	-0.502495
C236	C	0.832172	0.071825	-0.169162
C237	C	1.165505	0.405158	0.164171
N238	N	0.476896	-0.204624	-0.523960
N239	N	0.810229	0.128709	-0.190627
N240	N	1.143563	0.462042	0.142707
H241	H	0.633968	-0.277881	-0.491023
H242	H	0.967302	0.055452	-0.157690
H243	H	1.300635	0.388786	0.175644
H244	H	0.635030	-0.374119	-0.522186
H245	H	0.968364	-0.040786	-0.188852
H246	H	1.301697	0.292548	0.144481
C247	C	0.500605	-0.393605	-0.536391
C248	C	0.833939	-0.060271	-0.203057
C249	C	1.167272	0.273062	0.130276
N250	N	0.479987	-0.436221	-0.583390
N251	N	0.813320	-0.102887	-0.250056
N252	N	1.146653	0.230446	0.083277
C253	C	1.103447	-0.785901	-0.239050
C254	C	1.436781	-0.452567	0.094283
C255	C	1.770114	-0.119234	0.427616
N256	N	1.144420	-0.765170	-0.190406
N257	N	1.477753	-0.431837	0.142927
N258	N	1.811087	-0.098503	0.476260
C259	C	1.174627	-0.928109	-0.492704
C260	C	1.507961	-0.594776	-0.159371
C261	C	1.841294	-0.261442	0.173962
N262	N	1.194220	-0.950032	-0.554691
N263	N	1.527554	-0.616699	-0.221357
N264	N	1.860887	-0.283365	0.111976
