data_functionalizedCrystal
_audit_creation_method	'MofGen! by Chris Wilmer'
_symmetry_space_group_name_H-M	'P1'
_symmetry_Int_Tables_number	1
_symmetry_cell_setting	triclinic
loop_
_symmetry_equiv_pos_as_xyz
  x,y,z
_cell_length_a	14.395555
_cell_length_b	19.377369
_cell_length_c	14.395555
_cell_angle_alpha	72.123206
_cell_angle_beta	89.999099
_cell_angle_gamma	48.635095
loop_
_atom_site_label
_atom_site_type_symbol
_atom_site_fract_x
_atom_site_fract_y
_atom_site_fract_z
Zr1	Zr	0.709620	0.779828	0.064335
O2	O	0.525967	0.928479	-0.048512
O3	O	0.790411	0.631185	0.074318
O4	O	0.755093	0.779831	-0.083992
O5	O	0.561284	0.779828	0.262672
O6	O	0.907970	0.779823	-0.083986
O7	O	0.561286	0.779833	0.109799
O8	O	0.971149	0.513923	0.199204
O9	O	0.498106	1.045729	-0.020517
O10	O	0.909368	0.692315	0.108314
O11	O	0.795276	0.692317	0.222397
O12	O	0.753693	0.867328	0.036006
O13	O	0.639601	0.867330	0.150088
Zr14	Zr	0.953439	0.779807	0.308160
Zr15	Zr	0.953441	0.779816	0.064346
Zr16	Zr	0.709617	0.779819	0.308149
Zr17	Zr	0.665184	0.966827	0.108983
Zr18	Zr	0.997874	0.592808	0.263512
O19	O	0.872647	0.928450	0.298177
O20	O	0.872650	0.928462	-0.048496
O21	O	0.525964	0.928467	0.298161
O22	O	1.137091	0.631156	0.421007
O23	O	1.137095	0.631168	0.074334
O24	O	0.790408	0.631173	0.420991
O25	O	1.101774	0.779807	0.109823
O26	O	0.907965	0.779804	0.456487
O27	O	0.755088	0.779812	0.456481
O28	O	1.101773	0.779802	0.262696
O29	O	0.691912	1.045719	-0.020509
O30	O	0.971147	0.513916	0.393004
O31	O	1.164952	0.513907	0.393012
O32	O	1.164954	0.513913	0.199212
O33	O	0.498104	1.045722	0.173283
O34	O	0.691910	1.045712	0.173291
O35	O	0.909365	0.692307	0.336489
O36	O	1.023457	0.692305	0.222407
O37	O	0.867783	0.867318	0.150098
O38	O	0.753691	0.867320	0.264181
C39	C	0.887111	0.545910	0.130400
C40	C	0.905975	0.466525	0.111445
C41	C	0.526545	0.779833	0.186234
C42	C	0.423037	0.779838	0.186229
C43	C	0.670727	0.205130	0.347178
C44	C	0.688608	0.130443	0.329449
C45	C	0.807711	0.130451	0.210356
C46	C	0.789845	0.205135	0.228079
C47	C	0.721350	0.242469	0.296490
C48	C	0.840469	0.242475	0.177391
C49	C	0.822598	0.317156	0.195109
C50	C	0.754104	0.354498	0.263515
C51	C	0.703480	0.317151	0.314208
C52	C	0.908955	0.205145	0.108975
C53	C	0.959579	0.242484	0.058287
C54	C	0.941716	0.317162	0.076010
C55	C	0.873222	0.354503	0.144415
C56	C	0.992340	0.354509	0.025316
C57	C	0.974470	0.429190	0.043034
C58	C	0.855351	0.429185	0.162133
C59	C	0.215673	0.875245	0.146822
C60	C	0.320031	0.827563	0.242698
C61	C	0.320031	0.827544	0.090379
C62	C	0.343018	0.732115	0.282205
C63	C	0.343000	0.732110	0.129812
C64	C	0.447393	0.684358	0.225736
C65	C	1.136513	0.779802	0.186261
C66	C	1.240022	0.779797	0.186266
C67	C	0.831532	0.779828	-0.118727
C68	C	0.831533	0.779832	-0.222233
C69	C	0.775947	1.013725	0.242095
C70	C	0.757084	1.093110	0.261050
C71	C	0.746640	0.875256	-0.322247
C72	C	0.865246	0.827550	-0.364471
C73	C	0.712933	0.827535	-0.364433
C74	C	0.950203	0.732124	-0.263093
C75	C	0.797809	0.732123	-0.263055
C76	C	0.916496	0.684346	-0.305223
C77	C	0.831526	0.779807	0.491222
C78	C	0.831525	0.779803	0.594728
C79	C	1.192095	0.545895	0.130413
C80	C	1.314468	0.466504	0.111464
C81	C	0.887108	0.545900	0.435374
C82	C	0.905971	0.466510	0.519926
C83	C	1.192092	0.545885	0.435388
C84	C	1.314464	0.466490	0.519944
C85	C	0.470966	1.013750	-0.062893
C86	C	0.348595	1.093145	-0.147449
C87	C	0.470964	1.013740	0.242082
C88	C	0.348591	1.093131	0.261031
C89	C	0.775950	1.013735	-0.062879
C90	C	0.757087	1.093125	-0.147431
C91	C	1.312381	0.429227	0.042999
C92	C	1.427352	0.354641	0.025174
C93	C	1.544408	0.317329	0.075819
C94	C	1.546490	0.354614	0.144287
C95	C	1.431520	0.429204	0.162106
C96	C	0.974383	0.429223	0.619197
C97	C	0.992100	0.354639	0.698654
C98	C	0.941412	0.317338	0.678836
C99	C	0.872991	0.354632	0.579555
C100	C	0.855267	0.429220	0.500101
C101	C	1.431496	0.429205	0.500103
C102	C	1.546484	0.354616	0.579545
C103	C	1.544438	0.317308	0.678827
C104	C	1.427393	0.354601	0.698668
C105	C	1.312407	0.429194	0.619228
C106	C	0.231561	1.130439	-0.127606
C107	C	0.116567	1.205052	-0.207043
C108	C	0.118612	1.242363	-0.306324
C109	C	0.235658	1.205066	-0.326166
C110	C	0.350647	1.130460	-0.246728
C111	C	0.350675	1.130416	0.329487
C112	C	0.235700	1.205023	0.347291
C113	C	0.118643	1.242337	0.296643
C114	C	0.116562	1.205049	0.228179
C115	C	0.231534	1.130448	0.210371
C116	C	0.807793	1.130402	-0.127582
C117	C	0.790093	1.204987	-0.207020
C118	C	0.721681	1.242298	-0.306305
C119	C	0.670975	1.205014	-0.326153
C120	C	0.688683	1.130425	-0.246717
H121	H	0.799577	0.459584	0.217841
H122	H	1.433237	0.459546	0.217861
H123	H	0.863475	0.100048	0.154652
H124	H	0.647375	0.100046	0.370728
F125	F	0.237943	1.244692	0.420162
F126	F	0.086330	0.980698	0.103349
F127	F	-0.003712	1.321733	0.315607
F128	F	-0.003782	1.321766	-0.390859
F129	F	1.666761	0.237942	0.056845
F130	F	0.782460	0.468892	0.394449
F131	F	0.475201	1.090770	-0.267864
H132	H	0.237307	1.235454	-0.407009
H133	H	0.021238	1.235441	0.186946
F134	F	0.308650	0.880297	-0.015592
H135	H	1.425747	0.324214	0.779514
H136	H	1.015691	0.459594	0.001757
H137	H	0.615273	1.235404	-0.407001
H138	H	0.229821	1.100093	0.154631
H139	H	0.311357	0.867902	0.290432
F140	F	0.475243	1.090719	0.383400
F141	F	1.666829	0.237918	0.763366
F142	F	1.081337	0.679445	-0.205930
H143	H	0.863498	1.100035	-0.046745
H144	H	0.739549	0.415312	0.277935
F145	F	1.671083	0.314891	0.198183
F146	F	0.844060	1.244659	-0.185874
F147	F	0.354503	0.679420	0.388248
F148	F	1.064926	0.314958	0.804308
F149	F	1.032468	0.202746	-0.014522
F150	F	0.576588	0.578818	0.269393
H151	H	0.893773	0.867878	-0.408365
H152	H	1.217120	0.459542	0.635396
F153	F	0.960287	0.237953	0.763409
H154	H	0.707271	1.303034	-0.370978
F155	F	0.354267	0.679430	0.067396
F156	F	0.634698	1.090767	-0.267856
F157	F	1.433701	0.468901	0.394446
H158	H	0.647705	0.347550	0.369916
H159	H	1.217078	0.459605	0.001743
H160	H	0.612638	0.867887	-0.408305
F161	F	0.652928	0.980722	-0.330320
H162	H	0.021276	1.235407	-0.190868
F163	F	0.229356	1.090741	-0.021950
H164	H	0.614952	0.235529	0.402886
H165	H	1.425632	0.324292	-0.030577
F166	F	0.927964	0.125666	0.090117
F167	F	1.010434	0.578792	-0.296885
H168	H	1.015663	0.459586	0.635353
H169	H	1.048098	0.324109	-0.030392
H170	H	0.769247	0.691830	-0.219160
H171	H	0.831725	0.324251	0.563433
H172	H	1.641776	0.324259	0.563372
