data_functionalizedCrystal
_audit_creation_method	'MofGen! by Chris Wilmer'
_symmetry_space_group_name_H-M	'P1'
_symmetry_Int_Tables_number	1
_symmetry_cell_setting	triclinic
loop_
_symmetry_equiv_pos_as_xyz
  x,y,z
_cell_length_a	13.897449
_cell_length_b	17.077404
_cell_length_c	17.077396
_cell_angle_alpha	90.019501
_cell_angle_beta	89.980317
_cell_angle_gamma	89.995339
loop_
_atom_site_label
_atom_site_type_symbol
_atom_site_fract_x
_atom_site_fract_y
_atom_site_fract_z
Zn1	Zn	0.384009	1.200155	0.443891
Zn2	Zn	0.545322	1.200105	0.312645
Zn3	Zn	0.384043	1.068887	0.312639
Zn4	Zn	0.545264	1.068897	0.443868
O5	O	0.464659	1.134511	0.378261
O6	O	0.405417	1.309995	0.426493
O7	O	0.523966	1.182673	0.202797
O8	O	0.249057	1.086317	0.330056
O9	O	0.523933	1.309958	0.330067
O10	O	0.249032	1.182759	0.426487
O11	O	0.405475	1.086268	0.202793
O12	O	0.405419	0.959042	0.330035
O13	O	0.523835	1.086334	0.553718
O14	O	0.523868	0.959049	0.426449
O15	O	0.405362	1.182769	0.553735
O16	O	0.680296	1.182683	0.330045
O17	O	0.680254	1.086285	0.426455
C18	C	0.464642	0.930563	0.378239
C19	C	0.464658	0.843313	0.378248
C20	C	0.213067	1.134543	0.378273
C21	C	0.105853	1.134556	0.378279
C22	C	0.526427	0.802348	0.428371
C23	C	0.526429	0.720367	0.428383
C24	C	0.464666	0.679354	0.378269
C25	C	0.402890	0.720325	0.328144
C26	C	0.402884	0.802304	0.328136
C27	C	0.402909	0.549455	0.328163
C28	C	0.402916	0.467471	0.328170
C29	C	0.526454	0.467518	0.428410
C30	C	0.526448	0.549497	0.428402
C31	C	0.464673	0.590463	0.378276
C32	C	0.018783	1.134565	0.378286
C33	C	-0.090450	1.134569	0.378292
C34	C	0.715274	1.134501	0.378265
C35	C	0.822488	1.134568	0.378294
C36	C	0.464588	1.134559	0.583005
C37	C	0.464558	1.134579	0.670255
C38	C	0.464678	1.339255	0.378283
C39	C	0.464685	1.426505	0.378292
C40	C	0.464661	1.134509	0.174313
C41	C	0.464419	1.134641	0.087063
C42	C	0.402864	1.184794	0.711255
C43	C	0.402832	1.184804	0.793235
C44	C	0.464499	1.134601	0.834214
C45	C	0.526197	1.084380	0.793209
C46	C	0.526223	1.084367	0.711230
C47	C	0.526139	1.084412	0.964079
C48	C	0.526114	1.084425	1.046064
C49	C	0.402747	1.184848	1.046084
C50	C	0.402774	1.184835	0.964105
C51	C	0.464472	1.134615	0.923105
H52	H	0.576729	0.687017	0.469197
H53	H	0.576365	1.043505	0.930699
H54	H	0.576451	1.043469	0.677849
H55	H	0.352612	0.434080	0.287372
O56	O	0.336199	1.239013	1.090305
H57	H	0.293333	1.273927	1.048037
O58	O	0.593058	0.593738	0.482455
H59	H	0.636008	0.551481	0.517318
O60	O	0.336289	0.593639	0.274091
H61	H	0.260604	0.577909	0.287643
O62	O	0.592703	1.030227	0.837407
H63	H	0.668415	1.043669	0.821667
O64	O	0.593039	0.846583	0.482426
H65	H	0.635983	0.804321	0.517287
H66	H	0.576751	0.434160	0.469227
H67	H	0.352597	0.686926	0.287344
H68	H	0.352650	1.225677	0.677896
H69	H	0.352580	0.835658	0.287326
O70	O	0.336296	1.238969	0.837460
H71	H	0.293430	1.273883	0.795192
H72	H	0.352564	1.225719	0.930743
H73	H	0.576327	1.043544	1.079426
