data_functionalizedCrystal
_audit_creation_method	'MofGen! by Chris Wilmer'
_symmetry_space_group_name_H-M	'P1'
_symmetry_Int_Tables_number	1
_symmetry_cell_setting	triclinic
loop_
_symmetry_equiv_pos_as_xyz
  x,y,z
_cell_length_a	13.032831
_cell_length_b	19.121111
_cell_length_c	13.032268
_cell_angle_alpha	80.750656
_cell_angle_beta	90.886977
_cell_angle_gamma	94.432812
loop_
_atom_site_label
_atom_site_type_symbol
_atom_site_fract_x
_atom_site_fract_y
_atom_site_fract_z
Zn1	Zn	1.465003	0.473659	-0.806598
Zn2	Zn	1.479360	0.578157	-0.640302
Zn3	Zn	1.316932	0.444360	-0.611246
Zn4	Zn	1.285876	0.574365	-0.790221
O5	O	1.386793	0.517635	-0.712092
O6	O	1.609849	0.501370	-0.803553
O7	O	1.476819	0.549734	-0.491950
O8	O	1.343563	0.350107	-0.631853
O9	O	1.620397	0.578144	-0.681376
O10	O	1.452350	0.371633	-0.775378
O11	O	1.357484	0.451434	-0.470603
O12	O	1.169871	0.447757	-0.615973
O13	O	1.290632	0.571681	-0.936891
O14	O	1.147054	0.543270	-0.747465
O15	O	1.422236	0.497693	-0.948923
O16	O	1.446705	0.675794	-0.665496
O17	O	1.304553	0.673007	-0.775640
C18	C	1.121399	0.491923	-0.676790
C19	C	1.007858	0.480942	-0.661713
C20	C	0.945983	0.523366	-0.719961
C21	C	0.828632	0.512018	-0.704379
C22	C	1.373842	0.699851	-0.721970
C23	C	1.368390	0.777816	-0.726243
C24	C	1.439883	0.815880	-0.670965
C25	C	1.434761	0.889137	-0.674991
C26	C	1.358141	0.924327	-0.734289
C27	C	1.286644	0.886258	-0.789573
C28	C	1.291771	0.813004	-0.785553
C29	C	1.338959	1.145438	-0.749299
C30	C	1.333836	1.218697	-0.753312
C31	C	1.481955	1.221571	-0.638731
C32	C	1.487071	1.148314	-0.634711
C33	C	1.415578	1.110252	-0.690000
C34	C	1.352902	0.999207	-0.738402
C35	C	1.420822	1.035375	-0.685891
C36	C	1.653223	0.543448	-0.747532
C37	C	1.766759	0.554448	-0.762635
C38	C	1.399809	1.334712	-0.702213
C39	C	1.405329	1.256761	-0.698035
C40	C	1.351368	0.537532	-0.981421
C41	C	1.336272	0.546011	-1.096193
C42	C	1.394657	0.513183	-1.153316
C43	C	1.379056	0.521946	-1.271939
C44	C	1.422142	0.497771	-0.443815
C45	C	1.437449	0.489114	-0.329059
H46	H	0.973952	0.436218	-0.600313
H47	H	1.280745	1.114453	-0.794315
H48	H	0.794731	0.467290	-0.642975
C49	C	1.254287	0.592248	-1.147951
C50	C	1.274993	0.661869	-1.128478
C51	C	1.199481	0.704482	-1.176125
H52	H	1.254631	0.592099	-1.220797
H53	H	1.188670	0.574082	-1.120618
H54	H	1.340592	0.680031	-1.155816
H55	H	1.274640	0.662041	-1.055642
H56	H	1.133864	0.686316	-1.148791
H57	H	1.199831	0.704327	-1.248968
H58	H	1.213514	0.751723	-1.162911
H59	H	1.502272	0.787232	-0.622674
H60	H	1.271452	1.247350	-0.801619
H61	H	0.979888	0.568086	-0.781367
H62	H	1.224262	0.914917	-0.837860
C63	C	1.476858	0.467123	-1.101597
C64	C	1.573416	0.494095	-1.142047
C65	C	1.649164	0.451677	-1.094443
H66	H	1.476584	0.467330	-1.028763
H67	H	1.463022	0.419843	-1.114717
H68	H	1.587248	0.541364	-1.128918
H69	H	1.573724	0.493886	-1.214875
H70	H	1.635329	0.404396	-1.107564
H71	H	1.648881	0.451887	-1.021611
H72	H	1.714686	0.469968	-1.121888
C73	C	0.812150	0.614067	-0.844432
C74	C	0.919522	0.613486	-0.843607
C75	C	0.961370	0.668399	-0.918934
H76	H	0.786432	0.607388	-0.911045
H77	H	0.793432	0.658396	-0.829463
H78	H	0.938230	0.569168	-0.858583
H79	H	0.945267	0.620174	-0.777012
H80	H	0.942653	0.712728	-0.903965
H81	H	0.935645	0.661716	-0.985541
H82	H	1.034226	0.668017	-0.918377
C83	C	1.297091	0.568076	-1.324013
C84	C	1.297938	0.567618	-1.431321
C85	C	1.222460	0.610113	-1.479327
H86	H	1.231428	0.549924	-1.296826
H87	H	1.310994	0.615373	-1.310985
H88	H	1.284029	0.520331	-1.444341
H89	H	1.363584	0.585776	-1.458536
H90	H	1.236363	0.657409	-1.466300
H91	H	1.156803	0.591957	-1.452133
H92	H	1.223031	0.609813	-1.552141
H93	H	1.492978	0.920125	-0.629977
H94	H	1.290515	1.027867	-0.786680
H95	H	1.483210	1.006721	-0.637615
C96	C	1.570227	1.110186	-0.570166
C97	C	1.560278	1.118370	-0.466019
C98	C	1.636871	1.083265	-0.406531
H99	H	1.563130	1.061091	-0.575553
H100	H	1.636036	1.129929	-0.595065
H101	H	1.494485	1.098624	-0.441128
H102	H	1.567386	1.167456	-0.460600
H103	H	1.702681	1.103008	-0.431429
H104	H	1.629768	1.034173	-0.411926
H105	H	1.630137	1.088818	-0.335862
C106	C	1.559687	1.262957	-0.578912
C107	C	1.614492	1.315601	-0.648449
C108	C	1.686126	1.353733	-0.593386
H109	H	1.524698	1.284533	-0.530260
H110	H	1.606109	1.231534	-0.543054
H111	H	1.568077	1.347020	-0.684290
H112	H	1.649504	1.294044	-0.697102
H113	H	1.732548	1.322310	-0.557528
H114	H	1.651128	1.375304	-0.544736
H115	H	1.723327	1.389452	-0.640560
C116	C	1.214027	0.771793	-0.845605
C117	C	1.145813	0.818286	-0.898377
C118	C	1.074176	0.780349	-0.953705
H119	H	1.249028	0.750284	-0.894325
H120	H	1.176687	0.736035	-0.798609
H121	H	1.183148	0.854032	-0.945368
H122	H	1.110787	0.839796	-0.849681
H123	H	1.036837	0.744590	-0.906709
H124	H	1.109186	0.758841	-1.002420
H125	H	1.027879	0.811887	-0.989510
C126	C	1.519381	0.442853	-1.277230
C127	C	1.498638	0.373228	-1.296673
C128	C	1.574081	0.330590	-1.248938
H129	H	1.585030	0.460965	-1.304498
H130	H	1.518966	0.443038	-1.204381
H131	H	1.499064	0.373047	-1.369507
H132	H	1.433004	0.355096	-1.269403
H133	H	1.573666	0.330775	-1.176090
H134	H	1.639724	0.348708	-1.276210
H135	H	1.560012	0.283344	-1.262116
