data_functionalizedCrystal
_audit_creation_method	'MofGen! by Chris Wilmer'
_symmetry_space_group_name_H-M	'P1'
_symmetry_Int_Tables_number	1
_symmetry_cell_setting	triclinic
loop_
_symmetry_equiv_pos_as_xyz
  x,y,z
_cell_length_a	13.262390
_cell_length_b	19.188930
_cell_length_c	12.376457
_cell_angle_alpha	101.232575
_cell_angle_beta	63.168449
_cell_angle_gamma	83.812523
loop_
_atom_site_label
_atom_site_type_symbol
_atom_site_fract_x
_atom_site_fract_y
_atom_site_fract_z
O1	O	1.512329	0.014815	-0.558987
O2	O	1.185083	0.039300	-0.458378
O3	O	1.358145	-0.074963	-0.511562
O4	O	1.339268	0.129078	-0.505803
O5	O	1.314895	-0.046434	-0.310259
O6	O	1.141833	0.067828	-0.257075
O7	O	1.469079	0.043344	-0.357684
Zn8	Zn	1.298590	0.060116	-0.275418
Zn9	Zn	1.355573	0.022528	-0.540644
O10	O	1.296018	0.157606	-0.304499
C11	C	1.121592	0.054816	-0.344854
C12	C	0.996842	0.058536	-0.306500
C13	C	0.739506	0.006806	-0.637326
C14	C	0.856716	0.003307	-0.673364
C15	C	0.891754	0.017114	-0.581651
C16	C	0.809569	0.034420	-0.453894
C17	C	0.692349	0.037914	-0.417853
C18	C	0.844596	0.048222	-0.362178
C19	C	0.762411	0.065528	-0.234421
C20	C	0.645203	0.069022	-0.198386
C21	C	0.610166	0.055215	-0.290099
C22	C	0.961816	0.044728	-0.398219
C23	C	0.914659	0.075836	-0.178746
C24	C	0.797449	0.079335	-0.142708
C25	C	1.335907	-0.086685	-0.410719
C26	C	1.334069	-0.164117	-0.410144
C27	C	1.435618	-0.212996	-0.441359
C28	C	1.433897	-0.285756	-0.440848
C29	C	1.330617	-0.309628	-0.409096
C30	C	1.229056	-0.260739	-0.377884
C31	C	1.230783	-0.187983	-0.378408
N32	N	1.236952	-0.404849	-0.316318
N33	N	1.235319	-0.473964	-0.315819
C34	C	1.325410	-0.528837	-0.407518
N35	N	1.417210	-0.511984	-0.499724
N36	N	1.418846	-0.442862	-0.500218
C37	C	1.328734	-0.388519	-0.408525
C38	C	1.425100	-0.656612	-0.438183
C39	C	1.423377	-0.729373	-0.437678
C40	C	1.218530	-0.704353	-0.374701
C41	C	1.220259	-0.631596	-0.375219
C42	C	1.323546	-0.607729	-0.406955
C43	C	1.532572	0.027828	-0.471210
C44	C	1.657323	0.024107	-0.509572
C45	C	1.318256	0.169328	-0.405345
C46	C	1.320096	0.246759	-0.405928
N47	N	1.259708	0.085767	-0.094411
N48	N	1.394464	-0.003130	-0.721654
C49	C	1.484720	-0.062689	0.191425
C50	C	1.511927	-0.080643	0.064724
C51	C	1.448874	-0.039042	0.024934
C52	C	1.358611	0.020516	0.111858
C53	C	1.331407	0.038475	0.238569
C54	C	1.295561	0.062122	0.072078
C55	C	1.205297	0.121680	0.159002
C56	C	1.178098	0.139635	0.285700
C57	C	1.241150	0.098034	0.325491
C58	C	1.322765	0.044163	-0.054633
C59	C	1.169451	0.145327	-0.007489
C60	C	1.142245	0.163281	0.119212
H61	H	1.519723	-0.193570	-0.467205
C62	C	0.555822	0.087899	-0.059721
C63	C	0.474190	0.151357	-0.028659
C64	C	0.391828	0.168759	0.099062
H65	H	0.593307	0.095676	-0.010110
H66	H	0.517822	0.048882	-0.043768
H67	H	0.512186	0.190365	-0.044599
H68	H	0.436676	0.143597	-0.078237
H69	H	0.353827	0.129743	0.115014
H70	H	0.429323	0.176533	0.148661
H71	H	0.336425	0.211813	0.120151
C72	C	1.552971	-0.107911	0.234755
C73	C	1.477701	-0.137934	0.325841
C74	C	1.540538	-0.179607	0.365775
H75	H	1.589018	-0.077746	0.269914
H76	H	1.610600	-0.145992	0.164893
H77	H	1.420093	-0.099859	0.395690
H78	H	1.441651	-0.168111	0.290711
H79	H	1.598167	-0.217687	0.295914
H80	H	1.576583	-0.149436	0.400928
H81	H	1.489479	-0.199987	0.427572
H82	H	1.471030	-0.053662	-0.078233
C83	C	1.609721	-0.145485	-0.029307
C84	C	1.584938	-0.208880	0.007357
C85	C	1.674972	-0.268670	-0.079140
H86	H	1.680272	-0.138126	-0.031599
H87	H	1.617042	-0.150407	-0.110564
H88	H	1.577630	-0.203958	0.088593
H89	H	1.514403	-0.216262	0.009642
H90	H	1.682293	-0.273592	-0.160397
H91	H	1.745516	-0.261304	-0.081426
H92	H	1.658164	-0.311691	-0.054282
H93	H	1.218996	0.112650	0.428661
H94	H	0.987193	0.014265	-0.611001
H95	H	1.104608	0.188135	0.356473
H96	H	1.118110	0.179204	-0.039884
C97	C	0.945757	-0.015458	-0.812124
C98	C	0.889986	-0.026783	-0.884728
C99	C	0.971974	-0.044063	-1.012565
H100	H	1.001266	-0.058528	-0.833597
H101	H	0.983685	0.023585	-0.828122
H102	H	0.852077	-0.065822	-0.868738
H103	H	0.834485	0.016278	-0.863295
H104	H	1.009902	-0.005021	-1.028563
H105	H	1.027478	-0.087132	-1.034025
H106	H	0.934144	-0.051743	-1.061842
H107	H	1.028720	0.030639	-0.502240
H108	H	1.068750	0.211774	0.190000
H109	H	0.710968	-0.004440	-0.711985
C110	C	1.537195	-0.630621	-0.472818
C111	C	1.566397	-0.604227	-0.578499
C112	C	1.669642	-0.580270	-0.610433
H113	H	1.597545	-0.670096	-0.491439
H114	H	1.527063	-0.592786	-0.404170
H115	H	1.576537	-0.642058	-0.647133
H116	H	1.506076	-0.564744	-0.559908
H117	H	1.659510	-0.542435	-0.541784
H118	H	1.729983	-0.619749	-0.629048
H119	H	1.689463	-0.562352	-0.682132
C120	C	0.708195	0.097969	-0.004032
C121	C	0.652482	0.040319	0.019108
C122	C	0.570266	0.057453	0.146843
H123	H	0.652615	0.140996	0.017413
H124	H	0.745805	0.105659	0.045478
H125	H	0.614872	0.032637	-0.030385
H126	H	0.708031	-0.002714	-0.002308
H127	H	0.607877	0.065144	0.196353
H128	H	0.514694	0.100481	0.168277
H129	H	0.532462	0.018338	0.162563
H130	H	1.506075	-0.769173	-0.463105
H131	H	0.514725	0.058065	-0.260763
C132	C	1.109953	-0.578625	-0.341473
C133	C	1.069976	-0.603451	-0.425894
C134	C	0.968353	-0.554680	-0.394838
H135	H	1.125624	-0.531854	-0.346344
H136	H	1.052454	-0.575483	-0.258267
H137	H	1.127463	-0.606586	-0.509078
H138	H	1.054281	-0.650216	-0.421036
H139	H	0.910853	-0.551537	-0.311633
H140	H	0.984033	-0.507911	-0.399709
H141	H	0.941210	-0.571521	-0.452105
C142	C	0.952462	0.090818	-0.078974
C143	C	0.855408	0.106696	0.040620
C144	C	0.890199	0.120488	0.132550
H145	H	0.988408	0.131161	-0.085615
H146	H	1.005942	0.049049	-0.091087
H147	H	0.801948	0.148461	0.052730
H148	H	0.819451	0.066362	0.047303
H149	H	0.943680	0.078718	0.120437
H150	H	0.926145	0.160830	0.125897
H151	H	0.824356	0.131256	0.213705
H152	H	1.144965	-0.280181	-0.352034
C153	C	1.544262	-0.338717	-0.474711
C154	C	1.635078	-0.302239	-0.502589
C155	C	1.736758	-0.350997	-0.533772
H156	H	1.563089	-0.377581	-0.546044
H157	H	1.532809	-0.357663	-0.405602
H158	H	1.646532	-0.283303	-0.571692
H159	H	1.616290	-0.263378	-0.431273
H160	H	1.725305	-0.369944	-0.464663
H161	H	1.755574	-0.389859	-0.605102
H162	H	1.798386	-0.326253	-0.552679
C163	C	1.120387	-0.135010	-0.344409
C164	C	1.029561	-0.171481	-0.316467
C165	C	0.927844	-0.122702	-0.285123
H166	H	1.131722	-0.116021	-0.413432
H167	H	1.101653	-0.096173	-0.273055
H168	H	1.048292	-0.210305	-0.387813
H169	H	1.018190	-0.190468	-0.247437
H170	H	0.909109	-0.083864	-0.213769
H171	H	0.939190	-0.103715	-0.354151
H172	H	0.866203	-0.147439	-0.266149
C173	C	1.106498	-0.730395	-0.340208
C174	C	1.126713	-0.804571	-0.346406
C175	C	1.023531	-0.828587	-0.314629
H176	H	1.079694	-0.723342	-0.397512
H177	H	1.049596	-0.703428	-0.257126
H178	H	1.183594	-0.831530	-0.429475
H179	H	1.153500	-0.811643	-0.289102
H180	H	0.966630	-0.801620	-0.231547
H181	H	0.996735	-0.821529	-0.371937
H182	H	1.037230	-0.878916	-0.318819
C183	C	1.420600	-0.020615	-0.148843
C184	C	1.396026	-0.084105	-0.112441
C185	C	1.486117	-0.143806	-0.199182
H186	H	1.491163	-0.013235	-0.151192
H187	H	1.427805	-0.025432	-0.230033
H188	H	1.388835	-0.079287	-0.031273
H189	H	1.325480	-0.091508	-0.110100
H190	H	1.493322	-0.148624	-0.280372
H191	H	1.556674	-0.136419	-0.201525
H192	H	1.469451	-0.186892	-0.174502
