data_functionalizedCrystal
_audit_creation_method	'MofGen! by Chris Wilmer'
_symmetry_space_group_name_H-M	'P1'
_symmetry_Int_Tables_number	1
_symmetry_cell_setting	triclinic
loop_
_symmetry_equiv_pos_as_xyz
  x,y,z
_cell_length_a	14.044191
_cell_length_b	19.188924
_cell_length_c	13.101039
_cell_angle_alpha	93.348752
_cell_angle_beta	86.337551
_cell_angle_gamma	88.166870
loop_
_atom_site_label
_atom_site_type_symbol
_atom_site_fract_x
_atom_site_fract_y
_atom_site_fract_z
O1	O	1.262232	0.164780	-0.085173
O2	O	1.595565	0.498114	0.248160
O3	O	1.928898	0.831447	0.581493
O4	O	0.986288	0.158702	-0.085186
O5	O	1.319622	0.492036	0.248147
O6	O	1.652955	0.825369	0.581481
O7	O	1.132226	0.060600	-0.085167
O8	O	1.465559	0.393933	0.248166
O9	O	1.798892	0.727267	0.581499
O10	O	1.116294	0.262883	-0.085192
O11	O	1.449627	0.596216	0.248141
O12	O	1.782961	0.929549	0.581475
O13	O	1.121755	0.067652	0.085261
O14	O	1.455088	0.400985	0.418595
O15	O	1.788422	0.734318	0.751928
O16	O	0.975817	0.165754	0.085242
O17	O	1.309151	0.499087	0.418576
O18	O	1.642484	0.832420	0.751909
O19	O	1.251761	0.171832	0.085255
O20	O	1.585094	0.505165	0.418588
O21	O	1.918427	0.838498	0.751922
Zn22	Zn	1.112127	0.169912	0.112308
Zn23	Zn	1.445460	0.503246	0.445641
Zn24	Zn	1.778793	0.836579	0.778975
Zn25	Zn	1.125922	0.160622	-0.112239
Zn26	Zn	1.459256	0.493955	0.221094
Zn27	Zn	1.792589	0.827288	0.554428
O28	O	1.105823	0.269934	0.085236
O29	O	1.439157	0.603267	0.418570
O30	O	1.772490	0.936601	0.751903
C31	C	0.945750	0.159569	0.000027
C32	C	1.279083	0.492902	0.333360
C33	C	1.612416	0.826236	0.666693
C34	C	0.840557	0.151638	0.000022
C35	C	1.173890	0.484971	0.333356
C36	C	1.507224	0.818305	0.666689
C37	C	0.590096	0.193386	0.000027
C38	C	0.923429	0.526720	0.333361
C39	C	1.256762	0.860053	0.666694
C40	C	0.647959	0.137151	0.000033
C41	C	0.981293	0.470484	0.333366
C42	C	1.314626	0.803817	0.666699
C43	C	0.755130	0.145213	0.000027
C44	C	1.088464	0.478547	0.333360
C45	C	1.421797	0.811880	0.666694
C46	C	0.482915	0.185325	0.000033
C47	C	0.816248	0.518658	0.333367
C48	C	1.149581	0.851991	0.666700
C49	C	1.126475	0.038081	0.000048
C50	C	1.459809	0.371415	0.333381
C51	C	1.793142	0.704748	0.666715
C52	C	1.124930	-0.039523	0.000051
C53	C	1.458263	0.293810	0.333384
C54	C	1.791596	0.627144	0.666717
C55	C	1.129916	-0.079812	-0.092850
C56	C	1.463249	0.253521	0.240483
C57	C	1.796583	0.586855	0.573816
C58	C	1.128451	-0.152730	-0.092858
C59	C	1.461784	0.180604	0.240475
C60	C	1.795117	0.513937	0.573809
C61	C	1.122018	-0.185356	0.000040
C62	C	1.455351	0.147977	0.333373
C63	C	1.788685	0.481311	0.666707
C64	C	1.117026	-0.145057	0.092953
C65	C	1.450359	0.188276	0.426287
C66	C	1.783692	0.521609	0.759620
C67	C	1.118481	-0.072141	0.092958
C68	C	1.451815	0.261193	0.426292
C69	C	1.785148	0.594526	0.759625
N70	N	1.169410	-0.298825	0.069185
N71	N	1.502743	0.034508	0.402518
N72	N	1.836077	0.367842	0.735851
N73	N	1.168029	-0.368093	0.069173
N74	N	1.501363	-0.034760	0.402507
N75	N	1.834696	0.298574	0.735840
C76	C	1.117629	-0.405049	0.000030
C77	C	1.450962	-0.071715	0.333363
C78	C	1.784296	0.261618	0.666697
N79	N	1.068674	-0.370121	-0.069117
N80	N	1.402008	-0.036788	0.264216
N81	N	1.735341	0.296546	0.597550
N82	N	1.070060	-0.300847	-0.069109
N83	N	1.403393	0.032486	0.264225
N84	N	1.736726	0.365820	0.597558
C85	C	1.120438	-0.264421	0.000045
C86	C	1.453771	0.068912	0.333378
C87	C	1.787105	0.402246	0.666712
C88	C	1.121026	-0.524404	-0.092886
C89	C	1.454359	-0.191070	0.240448
C90	C	1.787692	0.142263	0.573781
C91	C	1.119554	-0.597322	-0.092890
C92	C	1.452888	-0.263989	0.240444
C93	C	1.786221	0.069344	0.573777
C94	C	1.108139	-0.589649	0.092924
C95	C	1.441472	-0.256315	0.426258
C96	C	1.774805	0.077018	0.759591
C97	C	1.109601	-0.516731	0.092926
C98	C	1.442934	-0.183398	0.426259
C99	C	1.776267	0.149935	0.759592
C100	C	1.116049	-0.484113	0.000018
C101	C	1.449382	-0.150780	0.333351
C102	C	1.782715	0.182553	0.666684
C103	C	1.292300	0.170965	0.000040
C104	C	1.625633	0.504298	0.333373
C105	C	1.958966	0.837632	0.666707
C106	C	1.397493	0.178896	0.000038
C107	C	1.730826	0.512229	0.333371
C108	C	2.064159	0.845562	0.666704
C109	C	1.111574	0.292452	0.000019
C110	C	1.444907	0.625786	0.333352
C111	C	1.778240	0.959119	0.666686
C112	C	1.113120	0.370057	0.000010
C113	C	1.446453	0.703390	0.333343
C114	C	1.779787	1.036723	0.666676
N115	N	1.102718	0.176253	0.265555
N116	N	1.436052	0.509586	0.598889
N117	N	1.769385	0.842920	0.932222
N118	N	1.135338	0.154276	-0.265486
N119	N	1.468672	0.487609	0.067847
N120	N	1.802005	0.820943	0.401180
C121	C	1.089918	0.184886	0.474596
C122	C	1.423251	0.518219	0.807930
C123	C	1.756584	0.851553	1.141263
C124	C	1.148136	0.145645	0.525479
C125	C	1.481469	0.478979	0.858813
C126	C	1.814802	0.812312	1.192146
C127	C	1.141013	0.150449	0.641797
C128	C	1.474347	0.483782	0.975130
C129	C	1.807680	0.817115	1.308464
C130	C	1.097039	0.180083	0.358268
C131	C	1.430372	0.513417	0.691602
C132	C	1.763705	0.846750	1.024935
H133	H	0.617015	0.082947	-0.000033
H134	H	0.950348	0.416281	0.333300
H135	H	1.283681	0.749614	0.666634
Cl136	Cl	1.004714	0.242323	0.542206
Cl137	Cl	1.338047	0.575657	0.875540
Cl138	Cl	1.671380	0.908990	1.208873
H139	H	1.102894	-0.616212	0.168564
H140	H	1.436227	-0.282878	0.501897
H141	H	1.769560	0.050455	0.835231
Cl142	Cl	1.233708	0.088497	0.457869
Cl143	Cl	1.567042	0.421830	0.791202
Cl144	Cl	1.900375	0.755163	1.124536
Cl145	Cl	0.637877	0.277062	0.000005
Cl146	Cl	0.971211	0.610396	0.333338
Cl147	Cl	1.304544	0.943729	0.666671
H148	H	1.105548	-0.483927	0.168576
H149	H	1.438881	-0.150594	0.501909
H150	H	1.772215	0.182739	0.835242
Cl151	Cl	1.134719	-0.203389	-0.209657
Cl152	Cl	1.468053	0.129944	0.123677
Cl153	Cl	1.801386	0.463278	0.457010
Cl154	Cl	1.138015	-0.038810	-0.209649
Cl155	Cl	1.471349	0.294523	0.123685
Cl156	Cl	1.804682	0.627856	0.457018
H157	H	1.111785	-0.171626	0.168592
H158	H	1.445118	0.161707	0.501925
H159	H	1.778452	0.495041	0.835258
Cl160	Cl	1.129124	-0.483395	-0.209681
Cl161	Cl	1.462457	-0.150062	0.123652
Cl162	Cl	1.795791	0.183272	0.456985
Cl163	Cl	1.112211	-0.021489	0.209758
Cl164	Cl	1.445544	0.311845	0.543091
Cl165	Cl	1.778878	0.645178	0.876425
H166	H	1.123610	-0.630125	-0.168544
H167	H	1.456944	-0.296792	0.164790
H168	H	1.790277	0.036542	0.498123
