data_functionalizedCrystal
_audit_creation_method	'MofGen! by Chris Wilmer'
_symmetry_space_group_name_H-M	'P1'
_symmetry_Int_Tables_number	1
_symmetry_cell_setting	triclinic
loop_
_symmetry_equiv_pos_as_xyz
  x,y,z
_cell_length_a	10.654550
_cell_length_b	15.944551
_cell_length_c	9.130313
_cell_angle_alpha	89.997799
_cell_angle_beta	89.996220
_cell_angle_gamma	83.991820
loop_
_atom_site_label
_atom_site_type_symbol
_atom_site_fract_x
_atom_site_fract_y
_atom_site_fract_z
O1	O	1.666308	0.117973	-0.121923
O2	O	1.300684	0.129213	-0.121900
O3	O	1.493480	0.001376	-0.121899
O4	O	1.473511	0.245810	-0.121924
O5	O	1.493478	0.001379	0.121700
O6	O	1.300681	0.129216	0.121699
O7	O	1.666305	0.117976	0.121676
Cu8	Cu	1.483493	0.123596	0.143930
Cu9	Cu	1.483496	0.123592	-0.144154
O10	O	1.473509	0.245813	0.121675
C11	C	1.253895	0.128389	-0.000098
C12	C	1.114484	0.125920	-0.000088
C13	C	1.034024	0.201188	-0.000117
C14	C	0.903034	0.198863	-0.000142
C15	C	0.932975	0.045995	-0.000116
C16	C	1.063963	0.048321	-0.000080
C17	C	1.084545	0.278788	-0.000126
C18	C	1.004084	0.354062	-0.000156
C19	C	0.873094	0.351737	-0.000182
C20	C	0.822564	0.274137	-0.000176
C21	C	1.492650	-0.029921	-0.000099
C22	C	1.490165	-0.123182	-0.000098
C23	C	1.364720	-0.338765	-0.000111
C24	C	1.422971	-0.399443	0.119995
C25	C	1.485668	-0.293934	-0.000109
C26	C	1.423002	-0.399430	-0.120175
C27	C	1.481317	-0.458872	-0.000126
C28	C	1.543953	-0.353384	0.120095
C29	C	1.543967	-0.353364	-0.120182
C30	C	1.602306	-0.414024	-0.000048
C31	C	1.488172	-0.198917	-0.000098
C32	C	1.478822	-0.553887	-0.000127
C33	C	1.713094	0.118800	-0.000130
C34	C	1.852505	0.121269	-0.000149
C35	C	1.474339	0.277110	-0.000128
C36	C	1.476824	0.370371	-0.000139
N37	N	1.483500	0.123599	0.346552
N38	N	1.483499	0.123583	-0.346777
C39	C	1.568892	0.067012	0.423205
C40	C	1.568889	0.067002	0.576542
C41	C	1.398098	0.180173	0.576560
C42	C	1.398096	0.180178	0.423226
C43	C	1.654296	0.010433	0.346531
C44	C	1.739696	-0.046158	0.423184
C45	C	1.739693	-0.046168	0.576520
C46	C	1.654290	0.010412	0.653205
H47	H	0.807585	0.413029	-0.000192
N48	N	1.611676	-0.326295	-0.254685
H49	H	1.700917	-0.354786	-0.255653
H50	H	1.565813	-0.342860	-0.345293
N51	N	1.058569	0.437757	-0.000169
H52	H	1.029211	0.470771	0.090123
H53	H	1.153750	0.427744	-0.000209
N54	N	1.305990	0.241196	0.659262
H55	H	1.318951	0.232606	0.768030
H56	H	1.320493	0.300876	0.632461
H57	H	1.809220	-0.092252	0.638929
H58	H	0.715901	0.272250	-0.000174
N59	N	1.355222	-0.426441	-0.254666
H60	H	1.265491	-0.398795	-0.254546
H61	H	1.400092	-0.408870	-0.345314
N62	N	1.831791	-0.107180	0.340461
H63	H	1.920918	-0.096956	0.367136
H64	H	1.817220	-0.166862	0.367164
H65	H	1.328561	0.226256	0.360815
H66	H	1.191203	0.280689	-0.000112
H67	H	1.264327	-0.306038	0.000016
N68	N	0.878481	-0.037697	-0.000104
H69	H	0.783291	-0.027749	-0.000131
H70	H	0.907936	-0.070673	-0.090396
N71	N	1.611623	-0.326515	0.254768
H72	H	1.640630	-0.377765	0.315719
H73	H	1.687148	-0.297341	0.224214
N74	N	1.150755	-0.032859	-0.000041
H75	H	1.098877	-0.082371	-0.000052
H76	H	1.205782	-0.035225	-0.090329
N77	N	1.654269	0.010406	0.818590
H78	H	1.636000	-0.046780	0.855521
H79	H	1.739601	0.023191	0.855411
H80	H	1.702787	-0.446602	0.000014
N81	N	1.355225	-0.426464	0.254517
H82	H	1.265493	-0.398820	0.254440
H83	H	1.354861	-0.489779	0.253941
H84	H	1.654309	0.010437	0.221677
