data_functionalizedCrystal
_audit_creation_method	'MofGen! by Chris Wilmer'
_symmetry_space_group_name_H-M	'P1'
_symmetry_Int_Tables_number	1
_symmetry_cell_setting	triclinic
loop_
_symmetry_equiv_pos_as_xyz
  x,y,z
_cell_length_a	25.639239
_cell_length_b	17.077404
_cell_length_c	17.077396
_cell_angle_alpha	89.980301
_cell_angle_beta	90.031074
_cell_angle_gamma	89.964245
loop_
_atom_site_label
_atom_site_type_symbol
_atom_site_fract_x
_atom_site_fract_y
_atom_site_fract_z
Zn1	Zn	-0.208192	-1.199968	0.443833
Zn2	Zn	0.291808	-0.699968	0.943833
Zn3	Zn	-0.295629	-1.199839	0.312561
Zn4	Zn	0.204371	-0.699839	0.812561
Zn5	Zn	-0.208205	-1.068700	0.312580
Zn6	Zn	0.291795	-0.568700	0.812580
Zn7	Zn	-0.295593	-1.068632	0.443784
Zn8	Zn	0.204407	-0.568632	0.943784
O9	O	-0.251905	-1.134285	0.378189
O10	O	0.248095	-0.634285	0.878189
O11	O	-0.219800	-1.309798	0.426431
O12	O	0.280200	-0.809798	0.926431
O13	O	-0.284053	-1.182418	0.202716
O14	O	0.215947	-0.682418	0.702716
O15	O	-0.135038	-1.086196	0.330020
O16	O	0.364962	-0.586196	0.830020
O17	O	-0.284040	-1.309703	0.329986
O18	O	0.215960	-0.809703	0.829986
O19	O	-0.135028	-1.182638	0.426450
O20	O	0.364972	-0.682638	0.926450
O21	O	-0.219823	-1.086071	0.202731
O22	O	0.280177	-0.586071	0.702731
O23	O	-0.219788	-0.958844	0.329972
O24	O	0.280212	-0.458844	0.829972
O25	O	-0.283979	-1.086080	0.553637
O26	O	0.216021	-0.586080	1.053637
O27	O	-0.283992	-0.958794	0.426367
O28	O	0.216008	-0.458794	0.926367
O29	O	-0.219765	-1.182572	0.553673
O30	O	0.280235	-0.682572	1.053673
O31	O	-0.368790	-1.182352	0.329939
O32	O	0.131210	-0.682352	0.829939
O33	O	-0.368763	-1.085954	0.426348
O34	O	0.131237	-0.585954	0.926348
C35	C	-0.251888	-0.930337	0.378167
C36	C	0.248112	-0.430337	0.878167
C37	C	-0.251893	-0.843087	0.378176
C38	C	0.248107	-0.343087	0.878176
C39	C	-0.218503	-0.802147	0.428471
C40	C	0.281497	-0.302147	0.928471
C41	C	-0.218505	-0.720167	0.428472
C42	C	0.281495	-0.220167	0.928472
C43	C	-0.251901	-0.679128	0.378183
C44	C	0.248099	-0.179128	0.878183
C45	C	-0.285294	-0.720074	0.327883
C46	C	0.214706	-0.220074	0.827883
C47	C	-0.285288	-0.802053	0.327878
C48	C	0.214712	-0.302053	0.827878
C49	C	-0.285304	-0.549204	0.327898
C50	C	0.214696	-0.049204	0.827898
C51	C	-0.285310	-0.467219	0.327904
C52	C	0.214690	0.032781	0.827904
C53	C	-0.218521	-0.467318	0.428493
C54	C	0.281479	0.032682	0.928493
C55	C	-0.218515	-0.549297	0.428488
C56	C	0.281485	-0.049297	0.928488
C57	C	-0.251908	-0.590237	0.378189
C58	C	0.248092	-0.090237	0.878189
C59	C	-0.387748	-1.134153	0.378153
C60	C	0.112252	-0.634153	0.878153
C61	C	-0.445862	-1.134168	0.378164
C62	C	0.054138	-0.634168	0.878164
C63	C	-0.806226	-1.184610	0.328075
C64	C	-0.306226	-0.684610	0.828075
C65	C	-0.860830	-1.184641	0.328085
C66	C	-0.360830	-0.684641	0.828085
O67	O	-0.889068	-1.227391	0.285458
O68	O	-0.389068	-0.727391	0.785458
N69	N	-0.888144	-1.134423	0.378241
N70	N	-0.388144	-0.634423	0.878241
C71	C	-0.860851	-1.084177	0.428396
C72	C	-0.360851	-0.584177	0.928396
O73	O	-0.889097	-1.041467	0.471059
O74	O	-0.389097	-0.541467	0.971059
C75	C	-0.806247	-1.084151	0.428389
C76	C	-0.306247	-0.584151	0.928389
C77	C	-0.778936	-1.134367	0.378224
C78	C	-0.278936	-0.634367	0.878224
C79	C	-0.778915	-1.234822	0.277914
C80	C	-0.278915	-0.734822	0.777914
C81	C	-0.724314	-1.234790	0.277903
C82	C	-0.224314	-0.734790	0.777903
C83	C	-0.697025	-1.184547	0.328052
C84	C	-0.197025	-0.684547	0.828052
C85	C	-0.724336	-1.134335	0.378212
C86	C	-0.224336	-0.634335	0.878212
C87	C	-0.778955	-1.033910	0.478547
C88	C	-0.278955	-0.533910	0.978547
C89	C	-0.724348	-1.033889	0.478536
C90	C	-0.224348	-0.533889	0.978536
C91	C	-0.697037	-1.084104	0.428371
C92	C	-0.197037	-0.584104	0.928371
C93	C	-0.642446	-1.084060	0.428350
C94	C	-0.142446	-0.584060	0.928350
N95	N	-0.615132	-1.134277	0.378194
N96	N	-0.115132	-0.634277	0.878194
C97	C	-0.642421	-1.184521	0.328045
C98	C	-0.142421	-0.684521	0.828045
C99	C	-0.975521	-1.084236	0.428408
C100	C	-0.475521	-0.584236	0.928408
C101	C	-1.030124	-1.084258	0.428412
C102	C	-0.530124	-0.584258	0.928412
C103	C	-1.030099	-1.184722	0.328102
C104	C	-0.530099	-0.684722	0.828102
C105	C	-0.975496	-1.184696	0.328095
C106	C	-0.475496	-0.684696	0.828095
C107	C	-0.948207	-1.134454	0.378252
C108	C	-0.448207	-0.634454	0.878252
C109	C	-0.527756	-1.184450	0.328024
C110	C	-0.027756	-0.684450	0.828024
C111	C	-0.473151	-1.184412	0.328015
C112	C	0.026849	-0.684412	0.828015
C113	C	-0.473180	-1.083951	0.428328
C114	C	0.026820	-0.583951	0.928328
C115	C	-0.527781	-1.083986	0.428334
C116	C	-0.027781	-0.583986	0.928334
C117	C	-0.555067	-1.134242	0.378180
C118	C	-0.055067	-0.634242	0.878180
O119	O	-0.614174	-1.041333	0.470958
O120	O	-0.114174	-0.541333	0.970958
O121	O	-0.614168	-1.227232	0.285396
O122	O	-0.114168	-0.727232	0.785396
C123	C	-0.115532	-1.134439	0.378243
C124	C	0.384468	-0.634439	0.878243
C125	C	-0.057418	-1.134504	0.378265
C126	C	0.442582	-0.634504	0.878265
C127	C	-0.251866	-1.134332	0.582934
C128	C	0.248134	-0.634332	1.082934
C129	C	-0.251850	-1.134353	0.670184
C130	C	0.248150	-0.634353	1.170184
C131	C	-0.251920	-0.339029	0.378206
C132	C	0.248080	0.160971	0.878206
C133	C	-0.251919	-0.426279	0.378199
C134	C	0.248081	0.073721	0.878199
C135	C	-0.251906	-1.134283	0.174241
C136	C	0.248094	-0.634283	0.674241
C137	C	-0.251775	-1.134415	0.086992
C138	C	0.248225	-0.634415	0.586992
C139	C	-0.218411	-1.184598	0.711194
C140	C	0.281589	-0.684598	1.211194
C141	C	-0.218394	-1.184608	0.793174
C142	C	0.281606	-0.684608	1.293174
C143	C	-0.251818	-1.134375	0.834143
C144	C	0.248182	-0.634375	1.334143
C145	C	-0.285259	-1.084124	0.793127
C146	C	0.214741	-0.584124	1.293127
C147	C	-0.285273	-1.084111	0.711148
C148	C	0.214727	-0.584111	1.211148
C149	C	-0.285227	-1.084156	0.963997
C150	C	0.214773	-0.584156	1.463997
C151	C	-0.285214	-1.084169	1.045982
C152	C	0.214786	-0.584169	1.545982
C153	C	-0.218348	-1.184652	1.046023
C154	C	0.281652	-0.684652	1.546023
C155	C	-0.218362	-1.184639	0.964044
C156	C	0.281638	-0.684639	1.464044
C157	C	-0.251803	-1.134389	0.923034
C158	C	0.248197	-0.634389	1.423034
H159	H	-0.312483	-0.686653	0.286932
H160	H	0.187517	-0.186653	0.786932
C161	C	-0.147988	-1.195647	1.138222
C162	C	0.352012	-0.695647	1.638222
C163	C	-0.181579	-1.239881	1.091092
C164	C	0.318421	-0.739881	1.591092
H165	H	-0.125288	-1.229743	1.166042
H166	H	0.374712	-0.729743	1.666042
H167	H	-0.167890	-1.165743	1.174355
H168	H	0.332110	-0.665743	1.674355
H169	H	-0.127999	-1.161464	1.106229
H170	H	0.372001	-0.661464	1.606229
H171	H	-0.201571	-1.274059	1.123086
H172	H	0.298429	-0.774059	1.623086
H173	H	-0.161675	-1.269798	1.054955
H174	H	0.338325	-0.769798	1.554955
C175	C	-0.148045	-1.195585	0.871895
C176	C	0.351955	-0.695585	1.371895
C177	C	-0.181612	-1.239845	0.919017
C178	C	0.318388	-0.739845	1.419017
H179	H	-0.125356	-1.229665	0.844097
H180	H	0.374644	-0.729665	1.344097
H181	H	-0.128048	-1.161414	0.903886
H182	H	0.371952	-0.661414	1.403886
H183	H	-0.167970	-1.165669	0.835736
H184	H	0.332030	-0.665669	1.335736
H185	H	-0.161687	-1.269758	0.955179
H186	H	0.338313	-0.769758	1.455179
H187	H	-0.201611	-1.274030	0.887023
H188	H	0.298389	-0.774030	1.387023
C189	C	-0.351301	-0.984832	1.037711
C190	C	0.148699	-0.484832	1.537711
C191	C	-0.321950	-1.028948	1.091017
C192	C	0.178050	-0.528948	1.591017
H193	H	-0.373978	-0.950737	1.065516
H194	H	0.126022	-0.450737	1.565516
H195	H	-0.371312	-1.018998	1.005735
H196	H	0.128688	-0.518998	1.505735
H197	H	-0.328516	-0.954830	1.005740
H198	H	0.171484	-0.454830	1.505740
H199	H	-0.344734	-1.058954	1.122985
H200	H	0.155266	-0.558954	1.622985
H201	H	-0.301938	-0.994777	1.123007
H202	H	0.198062	-0.494777	1.623007
H203	H	-0.191330	-0.433980	0.469447
H204	H	0.308670	0.066020	0.969447
C205	C	-0.640657	-0.989233	0.523076
C206	C	-0.140657	-0.489233	1.023076
C207	C	-0.694353	-0.978659	0.533671
C208	C	-0.194353	-0.478659	1.033671
H209	H	-0.622142	-0.955138	0.557116
H210	H	-0.122142	-0.455138	1.057116
H211	H	-0.631742	-0.977764	0.470329
H212	H	-0.131742	-0.477764	0.970329
H213	H	-0.631673	-1.041965	0.534610
H214	H	-0.131673	-0.541965	1.034610
H215	H	-0.703338	-0.925928	0.522131
H216	H	-0.203338	-0.425928	1.022131
H217	H	-0.703273	-0.990122	0.586429
H218	H	-0.203273	-0.490122	1.086429
C219	C	-0.355566	-1.073173	0.871766
C220	C	0.144434	-0.573173	1.371766
C221	C	-0.321986	-1.028929	0.918907
C222	C	0.178014	-0.528929	1.418907
H223	H	-0.378257	-1.039082	0.843924
H224	H	0.121743	-0.539082	1.343924
H225	H	-0.375560	-1.107346	0.903749
H226	H	0.124440	-0.607346	1.403749
H227	H	-0.335651	-1.103086	0.835646
H228	H	0.164349	-0.603086	1.335646
H229	H	-0.341901	-0.999020	0.955031
H230	H	0.158099	-0.499020	1.455031
H231	H	-0.301990	-0.994742	0.886922
H232	H	0.198010	-0.494742	1.386922
H233	H	-0.549967	-1.225375	0.287186
H234	H	-0.049967	-0.725375	0.787186
H235	H	-0.191195	-1.225506	0.677843
H236	H	0.308805	-0.725506	1.177843
H237	H	-0.312505	-0.433807	0.286954
H238	H	0.187495	0.066193	0.786954
C239	C	-0.351333	-0.540876	0.228481
C240	C	0.148667	-0.040876	0.728481
C241	C	-0.322014	-0.594207	0.272615
C242	C	0.177986	-0.094207	0.772615
H243	H	-0.373999	-0.568661	0.194359
H244	H	0.126001	-0.068661	0.694359
H245	H	-0.328531	-0.508912	0.198514
H246	H	0.171469	-0.008912	0.698514
H247	H	-0.371358	-0.508894	0.262640
H248	H	0.128642	-0.008894	0.762640
H249	H	-0.301985	-0.626184	0.238456
H250	H	0.198015	-0.126184	0.738456
H251	H	-0.344818	-0.626184	0.302584
H252	H	0.155182	-0.126184	0.802584
H253	H	-0.312471	-1.043221	0.826491
H254	H	0.187529	-0.543221	1.326491
H255	H	-0.191309	-0.835555	0.469424
H256	H	0.308691	-0.335555	0.969424
H257	H	-0.953306	-1.043317	0.469250
H258	H	-0.453306	-0.543317	0.969250
H259	H	-0.191166	-1.225524	0.826561
H260	H	0.308834	-0.725524	1.326561
C261	C	-0.351379	-0.984812	0.719336
C262	C	0.148621	-0.484812	1.219336
C263	C	-0.322039	-1.028894	0.666067
C264	C	0.177961	-0.528894	1.166067
H265	H	-0.374080	-0.950728	0.691504
H266	H	0.125920	-0.450728	1.191504
H267	H	-0.328594	-0.954809	0.751308
H268	H	0.171406	-0.454809	1.251308
H269	H	-0.371369	-1.019008	0.751316
H270	H	0.128631	-0.519008	1.251316
H271	H	-0.302046	-0.994698	0.634091
H272	H	0.197954	-0.494698	1.134091
H273	H	-0.344828	-1.058899	0.634081
H274	H	0.155172	-0.558899	1.134081
C275	C	-0.351313	-0.793726	0.228461
C276	C	0.148687	-0.293726	0.728461
C277	C	-0.321996	-0.847057	0.272597
C278	C	0.178004	-0.347057	0.772597
H279	H	-0.373977	-0.821511	0.194335
H280	H	0.126023	-0.321511	0.694335
H281	H	-0.328511	-0.761759	0.198499
H282	H	0.171489	-0.261759	0.698499
H283	H	-0.371341	-0.761747	0.262619
H284	H	0.128659	-0.261747	0.762619
H285	H	-0.301964	-0.879032	0.238440
H286	H	0.198036	-0.379032	0.738440
H287	H	-0.344801	-0.879037	0.302562
H288	H	0.155199	-0.379037	0.802562
H289	H	-0.191316	-0.686837	0.469429
H290	H	0.308684	-0.186837	0.969429
H291	H	-0.450916	-1.225303	0.287162
H292	H	0.049084	-0.725303	0.787162
C293	C	-0.729791	-1.334107	0.178767
C294	C	-0.229791	-0.834107	0.678767
C295	C	-0.694298	-1.290001	0.222771
C296	C	-0.194298	-0.790001	0.722771
H297	H	-0.711262	-1.368198	0.144736
H298	H	-0.211262	-0.868198	0.644736
H299	H	-0.751119	-1.299933	0.148711
H300	H	-0.251119	-0.799933	0.648711
H301	H	-0.751058	-1.364111	0.213015
H302	H	-0.251058	-0.864111	0.713015
H303	H	-0.673034	-1.259992	0.188523
H304	H	-0.173034	-0.759992	0.688523
H305	H	-0.672961	-1.324178	0.252830
H306	H	-0.172961	-0.824178	0.752830
H307	H	-0.801128	-1.275740	0.237077
H308	H	-0.301128	-0.775740	0.737077
H309	H	-0.953262	-1.225586	0.287247
H310	H	-0.453262	-0.725586	0.787247
H311	H	-0.191324	-0.582708	0.469442
H312	H	0.308676	-0.082708	0.969442
H313	H	-1.052356	-1.043360	0.469254
H314	H	-0.552356	-0.543360	0.969254
C315	C	-1.091394	-1.290411	0.317397
C316	C	-0.591394	-0.790411	0.817397
C317	C	-1.060079	-1.240021	0.273015
C318	C	-0.560079	-0.740021	0.773015
H319	H	-1.109894	-1.324567	0.283400
H320	H	-0.609894	-0.824567	0.783400
H321	H	-1.115487	-1.260505	0.347234
H322	H	-0.615487	-0.760505	0.847234
H323	H	-1.070036	-1.320343	0.351648
H324	H	-0.570036	-0.820343	0.851648
H325	H	-1.081438	-1.210084	0.238768
H326	H	-0.581438	-0.710084	0.738768
H327	H	-1.035984	-1.269929	0.243165
H328	H	-0.535984	-0.769929	0.743165
C329	C	-0.773471	-0.934624	0.577711
C330	C	-0.273471	-0.434624	1.077711
C331	C	-0.808966	-0.978716	0.533696
C332	C	-0.308966	-0.478716	1.033696
H333	H	-0.791999	-0.900552	0.611764
H334	H	-0.291999	-0.400552	1.111764
H335	H	-0.752212	-0.904607	0.543478
H336	H	-0.252212	-0.404607	1.043478
H337	H	-0.752137	-0.968813	0.607752
H338	H	-0.252137	-0.468813	1.107752
H339	H	-0.830298	-0.944527	0.503650
H340	H	-0.330298	-0.444527	1.003650
H341	H	-0.830234	-1.008736	0.567934
H342	H	-0.330234	-0.508736	1.067934
H343	H	-0.450953	-1.043040	0.469156
H344	H	0.049047	-0.543040	0.969156
C345	C	-0.522317	-0.984683	0.527490
C346	C	-0.022317	-0.484683	1.027490
C347	C	-0.557804	-1.028789	0.483476
C348	C	-0.057804	-0.528789	0.983476
H349	H	-0.540851	-0.950615	0.561540
H350	H	-0.040851	-0.450615	1.061540
H351	H	-0.501062	-0.954660	0.493256
H352	H	-0.001062	-0.454660	0.993256
H353	H	-0.500978	-1.018863	0.557534
H354	H	-0.000978	-0.518863	1.057534
H355	H	-0.579141	-0.994609	0.453427
H356	H	-0.079141	-0.494609	0.953427
H357	H	-0.579069	-1.058814	0.517714
H358	H	-0.079069	-0.558814	1.017714
