data_functionalizedCrystal
_audit_creation_method	'MofGen! by Chris Wilmer'
_symmetry_space_group_name_H-M	'P1'
_symmetry_Int_Tables_number	1
_symmetry_cell_setting	triclinic
loop_
_symmetry_equiv_pos_as_xyz
  x,y,z
_cell_length_a	19.805405
_cell_length_b	19.077105
_cell_length_c	19.805399
_cell_angle_alpha	87.684312
_cell_angle_beta	89.970699
_cell_angle_gamma	87.722641
loop_
_atom_site_label
_atom_site_type_symbol
_atom_site_fract_x
_atom_site_fract_y
_atom_site_fract_z
Zn1	Zn	-0.311118	1.075967	-0.424213
Zn2	Zn	0.188882	1.575967	0.075787
Zn3	Zn	-0.424303	1.075878	-0.311018
Zn4	Zn	0.075697	1.575878	0.188982
Zn5	Zn	-0.306582	0.958271	-0.306498
Zn6	Zn	0.193418	1.458271	0.193502
Zn7	Zn	-0.419714	0.958233	-0.419627
Zn8	Zn	0.080286	1.458233	0.080373
O9	O	-0.365429	1.017087	-0.365339
O10	O	0.134571	1.517087	0.134661
O11	O	-0.329951	1.174446	-0.413008
O12	O	0.170049	1.674446	0.086992
O13	O	-0.408709	1.060256	-0.215701
O14	O	0.091291	1.560256	0.284299
O15	O	-0.212469	0.973937	-0.322141
O16	O	0.287531	1.473937	0.177859
O17	O	-0.413107	1.174381	-0.329844
O18	O	0.086893	1.674381	0.170156
O19	O	-0.215802	1.060407	-0.408625
O20	O	0.284198	1.560407	0.091375
O21	O	-0.322220	0.973851	-0.212380
O22	O	0.177780	1.473851	0.287620
O23	O	-0.317770	0.859775	-0.317694
O24	O	0.182230	1.359775	0.182306
O25	O	-0.405287	0.973872	-0.514953
O26	O	0.094713	1.473872	-0.014953
O27	O	-0.400888	0.859748	-0.400809
O28	O	0.099112	1.359748	0.099191
O29	O	-0.325501	1.060370	-0.518322
O30	O	0.174499	1.560370	-0.018322
O31	O	-0.518409	1.060219	-0.325397
O32	O	-0.018409	1.560219	0.174603
O33	O	-0.515037	0.973786	-0.405192
O34	O	-0.015037	1.473786	0.094808
C35	C	-0.358340	0.834224	-0.358264
C36	C	0.141660	1.334224	0.141736
C37	C	-0.355323	0.755994	-0.355253
C38	C	0.144677	1.255994	0.144747
C39	C	-0.397246	0.719246	-0.397044
C40	C	0.102754	1.219246	0.102956
C41	C	-0.394403	0.645740	-0.394219
C42	C	0.105597	1.145740	0.105781
C43	C	-0.349639	0.608985	-0.349598
C44	C	0.150361	1.108985	0.150402
C45	C	-0.307712	0.645739	-0.307805
C46	C	0.192288	1.145739	0.192195
C47	C	-0.310552	0.719243	-0.310634
C48	C	0.189448	1.219243	0.189366
C49	C	-0.336493	0.389152	-0.336506
C50	C	0.163507	0.889152	0.163494
C51	C	-0.333657	0.315643	-0.333678
C52	C	0.166343	0.815643	0.166322
C53	C	-0.420348	0.315650	-0.420093
C54	C	0.079652	0.815650	0.079907
C55	C	-0.423187	0.389155	-0.422915
C56	C	0.076813	0.889155	0.077085
C57	C	-0.381257	0.425902	-0.381125
C58	C	0.118743	0.925902	0.118875
N59	N	-0.346733	0.533851	-0.346707
N60	N	0.153267	1.033851	0.153293
N61	N	-0.384160	0.501035	-0.384020
N62	N	0.115840	1.001035	0.115980
C63	C	-0.541282	1.017008	-0.365303
C64	C	-0.041282	1.517008	0.134697
C65	C	-0.616515	1.017039	-0.365313
C66	C	-0.116515	1.517039	0.134687
C67	C	-0.653594	1.062088	-0.323811
C68	C	-0.153594	1.562088	0.176189
C69	C	-0.724284	1.062118	-0.323827
C70	C	-0.224284	1.562118	0.176173
C71	C	-0.757893	1.017094	-0.365342
C72	C	-0.257893	1.517094	0.134658
C73	C	-0.720809	0.972043	-0.406849
C74	C	-0.220809	1.472043	0.093151
C75	C	-0.650121	0.972017	-0.406836
C76	C	-0.150121	1.472017	0.093164
C77	C	-1.005887	0.972147	-0.406903
C78	C	-0.505887	1.472147	0.093097
C79	C	-1.076580	0.972174	-0.406911
C80	C	-0.576580	1.472174	0.093089
C81	C	-1.080049	1.062248	-0.323894
C82	C	-0.580049	1.562248	0.176106
C83	C	-1.009361	1.062222	-0.323881
C84	C	-0.509361	1.562222	0.176119
C85	C	-0.972283	1.017173	-0.365390
C86	C	-0.472283	1.517173	0.134610
C87	C	-0.895634	1.017142	-0.365373
C88	C	-0.395634	1.517142	0.134627
C89	C	-0.834541	1.017121	-0.365356
C90	C	-0.334541	1.517121	0.134644
C91	C	-0.188890	1.017186	-0.365390
C92	C	0.311110	1.517186	0.134610
C93	C	-0.113660	1.017228	-0.365412
C94	C	0.386340	1.517228	0.134588
C95	C	-0.365388	1.017127	-0.541883
C96	C	0.134612	1.517127	-0.041883
C97	C	-0.365371	1.017144	-0.617116
C98	C	0.134629	1.517144	-0.117116
C99	C	-0.372547	1.200665	-0.372442
C100	C	0.127453	1.700665	0.127558
C101	C	-0.375580	1.278894	-0.375469
C102	C	0.124420	1.778894	0.124531
C103	C	-0.323824	1.062184	-0.654216
C104	C	0.176176	1.562184	-0.154216
C105	C	-0.323805	1.062191	-0.724904
C106	C	0.176195	1.562191	-0.224904
C107	C	-0.365336	1.017161	-0.758492
C108	C	0.134664	1.517161	-0.258492
C109	C	-0.406884	0.972115	-0.721387
C110	C	0.093116	1.472115	-0.221387
C111	C	-0.406899	0.972105	-0.650700
C112	C	0.093101	1.472105	-0.150700
C113	C	-0.406822	0.972155	-1.006462
C114	C	0.093178	1.472155	-0.506462
C115	C	-0.406805	0.972170	-1.077155
C116	C	0.093195	1.472170	-0.577155
C117	C	-0.323728	1.062241	-1.080667
C118	C	0.176272	1.562241	-0.580667
C119	C	-0.323743	1.062231	-1.009979
C120	C	0.176257	1.562231	-0.509979
C121	C	-0.365289	1.017183	-0.972881
C122	C	0.134711	1.517183	-0.472881
C123	C	-0.365308	1.017175	-0.896232
C124	C	0.134692	1.517175	-0.396232
C125	C	-0.365320	1.017172	-0.835140
C126	C	0.134680	1.517172	-0.335140
C127	C	-0.365423	1.017088	-0.189483
C128	C	0.134577	1.517088	0.310517
C129	C	-0.365255	1.017208	-0.114256
C130	C	0.134745	1.517208	0.385744
H131	H	-0.271261	0.615807	-0.271477
H132	H	0.228739	1.115807	0.228523
C133	C	-1.113549	0.922652	-0.452586
C134	C	-0.613549	1.422652	0.047414
H135	H	-1.081344	0.895824	-0.477311
H136	H	-0.581344	1.395824	0.022689
H137	H	-1.139980	0.892010	-0.425493
H138	H	-0.639980	1.392010	0.074507
H139	H	-1.142124	0.949578	-0.483142
H140	H	-0.642124	1.449578	0.016858
H141	H	-0.454484	0.285722	-0.454117
H142	H	0.045516	0.785722	0.045883
H143	H	-0.276410	0.749163	-0.276607
H144	H	0.223590	1.249163	0.223393
H145	H	-0.289898	1.098919	-1.110881
H146	H	0.210102	1.598919	-0.610881
H147	H	-0.626234	1.098748	-0.290001
H148	H	-0.126234	1.598748	0.209999
C149	C	-0.765068	1.111669	-0.278171
C150	C	-0.265068	1.611669	0.221829
H151	H	-0.734927	1.138472	-0.253438
H152	H	-0.234927	1.638472	0.246562
H153	H	-0.793787	1.142332	-0.305274
H154	H	-0.293787	1.642332	0.194726
H155	H	-0.791642	1.084767	-0.247622
H156	H	-0.291642	1.584767	0.252378
H157	H	-0.440626	0.935498	-1.104500
H158	H	0.059374	1.435498	-0.604500
C159	C	-0.972394	1.111750	-0.278217
C160	C	-0.472394	1.611750	0.221783
H161	H	-1.004602	1.138590	-0.253506
H162	H	-0.504602	1.638590	0.246494
H163	H	-0.943817	1.084838	-0.247659
H164	H	-0.443817	1.584838	0.252341
H165	H	-0.945966	1.142391	-0.305321
H166	H	-0.445966	1.642391	0.194679
H167	H	-0.975703	0.935465	-0.440700
H168	H	-0.475703	1.435465	0.059300
C169	C	-0.452568	0.922584	-0.758332
C170	C	0.047432	1.422584	-0.258332
H171	H	-0.446614	0.929045	-0.805745
H172	H	0.053386	1.429045	-0.305745
H173	H	-0.440833	0.875298	-0.744919
H174	H	0.059167	1.375298	-0.244919
H175	H	-0.498448	0.932862	-0.747131
H176	H	0.001552	1.432862	-0.247131
C177	C	-0.290384	0.429565	-0.290526
C178	C	0.209616	0.929565	0.209474
H179	H	-0.263326	0.397145	-0.263540
H180	H	0.236674	0.897145	0.236460
H181	H	-0.262031	0.458266	-0.317567
H182	H	0.237969	0.958266	0.182433
H183	H	-0.317353	0.458211	-0.262090
H184	H	0.182647	0.958211	0.237910
C185	C	-0.757778	0.922516	-0.452513
C186	C	-0.257778	1.422516	0.047487
H187	H	-0.805187	0.928977	-0.446572
H188	H	-0.305187	1.428977	0.053428
H189	H	-0.746553	0.932782	-0.498394
H190	H	-0.246553	1.432782	0.001606
H191	H	-0.744404	0.875227	-0.440732
H192	H	-0.244404	1.375227	0.059268
H193	H	-0.440723	0.935421	-0.620494
H194	H	0.059277	1.435421	-0.120494
C195	C	-1.120836	1.111806	-0.278239
C196	C	-0.620836	1.611806	0.221761
H197	H	-1.167750	1.105380	-0.284195
H198	H	-0.667750	1.605380	0.215805
H199	H	-1.108893	1.101526	-0.232355
H200	H	-0.608893	1.601526	0.267645
H201	H	-1.111036	1.159087	-0.290011
H202	H	-0.611036	1.659087	0.209989
H203	H	-0.297198	0.285719	-0.297346
H204	H	0.202802	0.785719	0.202654
C205	C	-0.609334	0.922464	-0.452489
C206	C	-0.109334	1.422464	0.047511
H207	H	-0.639474	0.895649	-0.477213
H208	H	-0.139474	1.395649	0.022787
H209	H	-0.582761	0.949362	-0.483036
H210	H	-0.082761	1.449362	0.016964
H211	H	-0.580613	0.891800	-0.425381
H212	H	-0.080613	1.391800	0.074619
H213	H	-0.433700	0.749166	-0.433377
H214	H	0.066300	1.249166	0.066623
H215	H	-0.290007	1.098855	-0.626874
H216	H	0.209993	1.598855	-0.126874
C217	C	-0.278108	1.111740	-0.765711
C218	C	0.221892	1.611740	-0.265711
H219	H	-0.253383	1.138563	-0.735584
H220	H	0.246617	1.638563	-0.235584
H221	H	-0.247564	1.084841	-0.792252
H222	H	0.252436	1.584841	-0.292252
H223	H	-0.305188	1.142396	-0.794467
H224	H	0.194812	1.642396	-0.294467
C225	C	-0.278057	1.111762	-0.973036
C226	C	0.221943	1.611762	-0.473036
H227	H	-0.253305	1.138583	-1.005256
H228	H	0.246695	1.638583	-0.505256
H229	H	-0.305140	1.142410	-0.946639
H230	H	0.194860	1.642410	-0.446639
H231	H	-0.247527	1.084843	-0.944429
H232	H	0.252473	1.584843	-0.444429
C233	C	-0.452524	0.922611	-0.965660
C234	C	0.047476	1.422611	-0.465660
H235	H	-0.446583	0.929046	-0.918750
H236	H	0.053417	1.429046	-0.418750
H237	H	-0.498396	0.932888	-0.977630
H238	H	0.001604	1.432888	-0.477630
H239	H	-0.440778	0.875327	-0.975417
H240	H	0.059222	1.375327	-0.475417
C241	C	-0.440559	0.605320	-0.440148
C242	C	0.059441	1.105320	0.059852
H243	H	-0.467643	0.637737	-0.467109
H244	H	0.032357	1.137737	0.032891
H245	H	-0.413638	0.576649	-0.468598
H246	H	0.086362	1.076649	0.031402
H247	H	-0.468896	0.576644	-0.413056
H248	H	0.031104	1.076644	0.086944
H249	H	-0.459640	0.419076	-0.459249
H250	H	0.040360	0.919076	0.040751
