data_functionalizedCrystal
_audit_creation_method	'MofGen! by Chris Wilmer'
_symmetry_space_group_name_H-M	'P1'
_symmetry_Int_Tables_number	1
_symmetry_cell_setting	triclinic
loop_
_symmetry_equiv_pos_as_xyz
  x,y,z
_cell_length_a	11.792254
_cell_length_b	11.792241
_cell_length_c	16.776229
_cell_angle_alpha	89.993219
_cell_angle_beta	89.992926
_cell_angle_gamma	84.196007
loop_
_atom_site_label
_atom_site_type_symbol
_atom_site_fract_x
_atom_site_fract_y
_atom_site_fract_z
O1	O	1.506904	0.155639	-0.066288
O2	O	1.176565	0.171657	-0.066290
O3	O	1.349751	-0.001522	-0.066283
O4	O	1.333718	0.328818	-0.066294
O5	O	1.349728	-0.001533	0.066293
O6	O	1.176542	0.171646	0.066287
O7	O	1.506881	0.155628	0.066289
Zn8	Zn	1.341708	0.163635	0.087337
Zn9	Zn	1.341738	0.163650	-0.087338
O10	O	1.333695	0.328807	0.066282
C11	C	1.134263	0.170642	-0.000002
C12	C	1.008250	0.167622	-0.000002
C13	C	1.348732	-0.043819	0.000005
C14	C	1.345718	-0.169832	0.000004
C15	C	1.340175	-0.400545	-0.000009
C16	C	1.343255	-0.272160	-0.000002
C17	C	0.905913	0.165168	-0.000005
C18	C	0.777527	0.162100	-0.000006
C19	C	1.549183	0.156643	-0.000001
C20	C	1.675196	0.159663	-0.000006
C21	C	1.334714	0.371104	-0.000008
C22	C	1.337728	0.497118	-0.000012
N23	N	1.341695	0.163625	0.206548
N24	N	1.341760	0.163651	-0.206549
C25	C	1.418406	0.086973	0.248268
C26	C	1.418412	0.086972	0.331721
C27	C	1.341712	0.163629	0.373451
C28	C	1.264994	0.240285	0.331725
C29	C	1.264983	0.240280	0.248275
C30	C	1.265035	0.240308	0.668273
C31	C	1.265054	0.240309	0.751729
C32	C	1.418464	0.087000	0.751718
C33	C	1.418453	0.086995	0.668268
C34	C	1.341731	0.163646	0.626549
C35	C	1.341724	0.163644	0.536061
C36	C	1.341724	0.163637	0.463938
H37	H	1.480868	0.024555	0.214297
H38	H	1.202516	0.302696	0.214307
H39	H	1.480932	0.024583	0.785695
H40	H	1.202567	0.302721	0.634312
N41	N	1.501188	0.004337	0.376719
H42	H	1.549793	-0.044207	0.337620
H43	H	1.551610	0.048181	0.411315
N44	N	1.501183	0.004320	0.623258
H45	H	1.549780	-0.044242	0.662351
H46	H	1.457420	-0.046154	0.588647
N47	N	1.182311	0.322986	0.796737
H48	H	1.131812	0.279260	0.831375
H49	H	1.226068	0.373525	0.831301
N50	N	1.182258	0.322959	0.376730
H51	H	1.193905	0.311335	0.435927
H52	H	1.195854	0.403568	0.362131
