data_functionalizedCrystal
_audit_creation_method	'MofGen! by Chris Wilmer'
_symmetry_space_group_name_H-M	'P1'
_symmetry_Int_Tables_number	1
_symmetry_cell_setting	triclinic
loop_
_symmetry_equiv_pos_as_xyz
  x,y,z
_cell_length_a	19.288856
_cell_length_b	13.101039
_cell_length_c	19.288865
_cell_angle_alpha	93.345409
_cell_angle_beta	83.134504
_cell_angle_gamma	86.652199
loop_
_atom_site_label
_atom_site_type_symbol
_atom_site_fract_x
_atom_site_fract_y
_atom_site_fract_z
O1	O	-0.925188	0.085273	-0.082771
O2	O	-0.722926	0.085266	-0.094466
O3	O	-0.829900	0.085249	0.012511
O4	O	-0.818213	0.085290	-0.189748
O5	O	-0.822225	-0.085179	0.004823
O6	O	-0.715251	-0.085163	-0.102154
O7	O	-0.917512	-0.085156	-0.090459
Zn8	Zn	-0.815163	-0.112218	-0.097528
Zn9	Zn	-0.825275	0.112329	-0.087398
O10	O	-0.810538	-0.085139	-0.197436
C11	C	-0.693212	0.000051	-0.097935
C12	C	-0.616108	0.000047	-0.096809
N13	N	-0.808266	-0.265466	-0.104440
C14	C	-0.052066	0.000043	-0.151957
C15	C	-0.124513	0.000051	-0.153021
C16	C	-0.169219	0.000038	-0.090252
C17	C	-0.141474	0.000043	-0.026413
C18	C	-0.069029	0.000046	-0.025350
C19	C	-0.287800	-0.059680	-0.046132
C20	C	-0.360244	-0.059689	-0.047198
C21	C	-0.392665	0.000035	-0.093528
C22	C	-0.352632	0.059754	-0.138804
C23	C	-0.280187	0.059757	-0.137741
C24	C	-0.247775	0.000036	-0.091398
C25	C	-0.498957	0.000045	-0.158517
C26	C	-0.571406	0.000059	-0.159578
C27	C	-0.588366	0.000041	-0.032969
C28	C	-0.515919	0.000037	-0.031909
C29	C	-0.471218	0.000034	-0.094685
C30	C	-0.798883	-0.474507	-0.113851
C31	C	-0.841558	-0.525389	-0.071071
C32	C	-0.836337	-0.641707	-0.076307
C33	C	-0.804103	-0.358179	-0.108616
C34	C	0.052774	0.000055	-0.086993
C35	C	-0.024329	0.000043	-0.088126
C36	C	-0.825686	0.000032	0.034543
C37	C	-0.824557	0.000023	0.111646
N38	N	-0.832177	0.265576	-0.080480
C39	C	-0.814752	0.000081	-0.219469
C40	C	-0.815882	0.000096	-0.296571
C41	C	-0.887325	0.000020	0.156344
C42	C	-0.886265	0.000036	0.228792
C43	C	-0.822433	0.000035	0.256538
C44	C	-0.759657	0.000043	0.211830
C45	C	-0.760719	0.000038	0.139384
C46	C	-0.769564	-0.059664	0.362130
C47	C	-0.768504	-0.059665	0.434575
C48	C	-0.819154	0.000057	0.479984
C49	C	-0.870875	0.059767	0.452941
C50	C	-0.871937	0.059761	0.380495
C51	C	-0.821274	0.000042	0.335092
C52	C	-0.880777	0.000074	0.603239
C53	C	-0.879715	0.000096	0.675688
C54	C	-0.753104	0.000093	0.658724
C55	C	-0.754169	0.000081	0.586277
C56	C	-0.818007	0.000066	0.558539
H57	H	-0.147101	0.000042	-0.205002
H58	H	-0.932758	0.000066	0.580654
H59	H	-0.046447	0.000046	0.026630
H60	H	-0.247596	0.108384	-0.174606
N61	N	-0.895157	-0.467392	-0.017351
H62	H	-0.886412	-0.486005	0.031080
H63	H	-0.891316	-0.391334	-0.021239
N64	N	-0.450739	0.000063	-0.226219
H65	H	-0.417457	-0.063115	-0.231453
H66	H	-0.479357	0.000114	-0.266778
H67	H	-0.758431	-0.518298	-0.154408
H68	H	-0.728317	-0.108303	0.325163
N69	N	-0.956176	0.000006	0.126427
H70	H	-0.995779	0.000007	0.165741
H71	H	-0.962223	0.063184	0.099581
H72	H	-0.379028	0.108384	-0.176532
H73	H	-0.937380	0.000038	0.265192
H74	H	-0.930830	0.000099	0.712082
H75	H	-0.914048	0.108381	0.358480
N76	N	-0.712718	-0.124054	0.463738
H77	H	-0.719732	-0.114993	0.516521
H78	H	-0.716035	-0.198533	0.448593
H79	H	-0.912118	0.108399	0.489913
H80	H	-0.701131	0.000097	0.681314
N81	N	-0.686468	0.000078	0.538061
H82	H	-0.645868	0.000079	0.566628
H83	H	-0.681306	-0.063105	0.504792
N84	N	-0.601327	0.000078	-0.228427
H85	H	-0.562014	0.000078	-0.268031
H86	H	-0.628174	-0.063097	-0.234475
H87	H	-0.624766	0.000038	0.018139
N88	N	-0.252825	-0.124113	0.003828
H89	H	-0.228821	-0.078389	0.036164
H90	H	-0.289206	-0.161952	0.032296
H91	H	-0.707684	0.000044	0.234425
N92	N	-0.693017	0.000041	0.091169
H93	H	-0.652416	0.000046	0.119735
H94	H	-0.687854	-0.063143	0.057901
H95	H	-0.015675	0.000046	-0.203074
N96	N	-0.403410	-0.124110	0.001630
H97	H	-0.398356	-0.101819	0.051690
H98	H	-0.454204	-0.115037	-0.006133
N99	N	-0.189688	0.000033	0.041289
H100	H	-0.239792	0.000028	0.030931
H101	H	-0.177879	-0.063149	0.066271
H102	H	-0.493335	0.000030	0.020069
