data_functionalizedCrystal
_audit_creation_method	'MofGen! by Chris Wilmer'
_symmetry_space_group_name_H-M	'P1'
_symmetry_Int_Tables_number	1
_symmetry_cell_setting	triclinic
loop_
_symmetry_equiv_pos_as_xyz
  x,y,z
_cell_length_a	9.065215
_cell_length_b	10.540510
_cell_length_c	7.540329
_cell_angle_alpha	89.998880
_cell_angle_beta	89.997574
_cell_angle_gamma	84.764004
loop_
_atom_site_label
_atom_site_type_symbol
_atom_site_fract_x
_atom_site_fract_y
_atom_site_fract_z
O1	O	1.959448	0.186128	-0.147451
O2	O	1.530085	0.201401	-0.147458
O3	O	1.754585	0.009092	-0.147454
O4	O	1.734948	0.378437	-0.147455
O5	O	1.754571	0.009089	0.147511
O6	O	1.530071	0.201398	0.147507
O7	O	1.959435	0.186126	0.147514
Cu8	Cu	1.744752	0.193762	0.174443
Cu9	Cu	1.744768	0.193765	-0.174387
O10	O	1.734934	0.378435	0.147510
C11	C	1.475099	0.199933	0.000023
C12	C	1.311278	0.195546	0.000020
C13	C	1.753115	-0.038218	0.000025
C14	C	1.748737	-0.179185	0.000014
C15	C	1.904696	-0.396065	0.000693
C16	C	1.909366	-0.249452	0.000019
C17	C	1.666518	-0.224245	-0.168423
C18	C	1.662985	-0.371019	-0.168555
C19	C	1.659625	-0.370843	0.166876
C20	C	1.667243	-0.224474	0.169093
C21	C	2.014421	0.187594	0.000029
C22	C	2.178241	0.191980	0.000020
C23	C	1.736404	0.425745	0.000027
C24	C	1.740782	0.566711	0.000026
N25	N	1.744751	0.193759	0.419792
N26	N	1.744780	0.193758	-0.419736
H27	H	1.973698	-0.219872	0.120759
H28	H	1.719185	-0.411026	-0.294462
H29	H	1.727069	-0.195642	0.293701
F30	F	1.501991	-0.400377	0.168360
H31	H	1.974083	-0.220807	-0.120930
F32	F	1.505956	-0.401659	-0.178559
H33	H	1.967270	-0.437790	0.121488
H34	H	1.549971	-0.175839	0.179262
F35	F	1.511955	-0.162871	-0.176624
H36	H	1.723627	-0.193177	-0.293772
H37	H	1.710665	-0.412837	0.294552
H38	H	1.966921	-0.439340	-0.119417
