data_functionalizedCrystal
_audit_creation_method	'MofGen! by Chris Wilmer'
_symmetry_space_group_name_H-M	'P1'
_symmetry_Int_Tables_number	1
_symmetry_cell_setting	triclinic
loop_
_symmetry_equiv_pos_as_xyz
  x,y,z
_cell_length_a	16.959455
_cell_length_b	13.897448
_cell_length_c	16.959447
_cell_angle_alpha	89.970632
_cell_angle_beta	89.985678
_cell_angle_gamma	90.014639
loop_
_atom_site_label
_atom_site_type_symbol
_atom_site_fract_x
_atom_site_fract_y
_atom_site_fract_z
Zn1	Zn	1.208397	-0.384074	-0.446914
Zn2	Zn	1.208325	-0.545393	-0.314738
Zn3	Zn	1.076225	-0.384105	-0.314751
Zn4	Zn	1.076195	-0.545321	-0.446876
O5	O	1.142286	-0.464723	-0.380820
O6	O	1.318998	-0.405491	-0.429390
O7	O	1.190784	-0.524040	-0.204128
O8	O	1.093801	-0.249119	-0.332305
O9	O	1.318945	-0.524011	-0.332281
O10	O	1.190907	-0.249097	-0.429404
O11	O	1.093731	-0.405543	-0.204139
O12	O	0.965610	-0.405473	-0.332268
O13	O	1.093750	-0.523888	-0.557492
O14	O	0.965589	-0.523917	-0.429340
O15	O	1.190878	-0.405421	-0.557520
O16	O	1.190755	-0.680365	-0.332244
O17	O	1.093680	-0.680312	-0.429326
C18	C	0.936919	-0.464691	-0.380802
C19	C	0.849063	-0.464701	-0.380813
C20	C	0.477574	-0.402998	-0.330380
C21	C	0.477600	-0.526527	-0.431305
C22	C	0.560146	-0.526513	-0.431300
C23	C	0.601410	-0.464742	-0.380834
C24	C	0.560128	-0.402985	-0.330372
C25	C	0.601434	-0.588276	-0.481754
C26	C	0.683985	-0.588266	-0.481751
C27	C	0.725251	-0.526489	-0.431288
C28	C	0.683963	-0.464728	-0.380825
C29	C	0.725227	-0.402957	-0.330359
C30	C	0.683941	-0.341191	-0.279900
C31	C	0.601393	-0.341208	-0.279909
C32	C	0.807799	-0.526472	-0.431279
C33	C	0.807781	-0.402944	-0.330351
C34	C	1.142228	-0.715337	-0.380797
C35	C	1.142276	-0.822551	-0.380814
C36	C	1.142359	-1.018846	-0.380863
C37	C	1.142310	-0.909614	-0.380838
C38	C	1.348454	-0.464756	-0.380838
C39	C	1.436310	-0.464770	-0.380846
C40	C	1.142319	-0.464643	-0.586988
C41	C	1.142333	-0.464609	-0.674845
C42	C	1.142365	-0.213130	-0.380860
C43	C	1.142399	-0.105916	-0.380877
C44	C	1.091857	-0.526188	-1.046309
C45	C	1.192997	-0.402827	-1.046333
C46	C	1.192976	-0.402848	-0.963787
C47	C	1.142395	-0.464540	-0.922498
C48	C	1.091836	-0.526212	-0.963755
C49	C	1.243540	-0.341184	-0.922523
C50	C	1.243522	-0.341203	-0.839972
C51	C	1.192937	-0.402891	-0.798682
C52	C	1.142375	-0.464564	-0.839944
C53	C	1.091794	-0.526257	-0.798655
C54	C	1.041227	-0.587926	-0.839916
C55	C	1.041251	-0.587900	-0.922465
C56	C	1.192913	-0.402917	-0.716134
C57	C	1.091773	-0.526281	-0.716102
C58	C	1.142298	-0.464733	-0.175454
C59	C	1.142437	-0.464495	-0.087597
H60	H	0.717593	-0.638559	-0.522839
H61	H	0.567771	-0.290922	-0.238827
O62	O	0.437353	-0.343092	-0.281392
C63	C	0.355644	-0.356322	-0.292234
H64	H	0.344365	-0.430803	-0.318013
H65	H	0.332243	-0.299174	-0.334413
C66	C	0.327087	-0.255882	-0.180612
C67	C	0.313234	-0.347364	-0.212269
H68	H	0.300925	-0.250352	-0.131288
H69	H	0.382135	-0.246965	-0.173309
H70	H	0.307586	-0.208269	-0.215769
H71	H	0.332743	-0.394975	-0.177117
H72	H	0.258187	-0.356289	-0.219565
H73	H	0.841410	-0.576764	-0.472360
O74	O	1.292744	-0.281229	-0.962507
C75	C	1.337356	-0.226788	-0.908391
H76	H	1.340072	-0.266316	-0.849539
H77	H	1.308432	-0.153528	-0.899625
C78	C	1.418155	-0.164341	-1.012903
C79	C	1.421496	-0.212893	-0.940622
H80	H	1.470056	-0.155765	-1.032785
H81	H	1.388098	-0.201015	-1.049363
H82	H	1.394049	-0.103295	-1.005588
H83	H	1.445594	-0.273941	-0.947939
H84	H	1.451560	-0.176228	-0.904164
O85	O	0.437398	-0.586439	-0.480298
C86	C	0.355685	-0.573229	-0.469467
H87	H	0.344410	-0.498753	-0.443685
H88	H	0.332243	-0.630386	-0.427294
C89	C	0.327174	-0.673668	-0.581097
C90	C	0.313325	-0.582191	-0.549438
H91	H	0.301043	-0.679201	-0.630426
H92	H	0.382225	-0.682571	-0.588393
H93	H	0.307639	-0.721288	-0.545946
H94	H	0.332869	-0.534574	-0.584585
H95	H	0.258276	-0.573280	-0.542150
O96	O	0.847827	-0.343042	-0.281213
C97	C	0.827606	-0.363990	-0.202407
H98	H	0.804901	-0.441044	-0.198309
H99	H	0.779689	-0.312248	-0.181827
C100	C	0.928805	-0.258038	-0.154693
C101	C	0.900924	-0.352681	-0.149658
H102	H	0.974029	-0.251058	-0.122154
H103	H	0.942426	-0.243921	-0.207786
H104	H	0.888867	-0.214930	-0.137544
H105	H	0.940857	-0.395785	-0.166816
H106	H	0.887310	-0.366804	-0.096567
O107	O	0.723940	-0.281057	-0.230913
C108	C	0.703811	-0.184944	-0.248338
H109	H	0.643887	-0.182987	-0.278733
H110	H	0.750293	-0.152515	-0.289016
C111	C	0.773582	-0.128805	-0.134031
C112	C	0.699979	-0.126402	-0.171357
H113	H	0.771222	-0.092692	-0.086546
H114	H	0.787146	-0.193558	-0.122292
H115	H	0.812310	-0.101784	-0.167937
H116	H	0.661255	-0.153434	-0.137454
H117	H	0.686408	-0.061652	-0.183087
H118	H	0.567831	-0.638574	-0.522836
H119	H	1.000085	-0.638111	-0.956067
O120	O	1.242113	-0.343159	-0.676019
C121	C	1.293118	-0.398101	-0.628240
H122	H	1.297977	-0.474067	-0.653098
H123	H	1.268661	-0.401433	-0.565677
C124	C	1.369339	-0.257698	-0.596452
C125	C	1.375312	-0.350998	-0.626987
H126	H	1.420040	-0.228641	-0.595675
H127	H	1.334975	-0.220681	-0.628639
H128	H	1.348956	-0.260487	-0.544319
H129	H	1.395686	-0.348207	-0.679122
H130	H	1.409682	-0.388014	-0.594808
H131	H	1.050577	-0.576511	-0.682490
H132	H	1.000048	-0.638161	-0.806288
O133	O	1.042779	-0.586226	-1.086297
C134	C	1.060032	-0.682373	-1.066121
H135	H	1.090406	-0.684396	-1.006186
H136	H	1.100668	-0.714854	-1.112576
C137	C	0.945649	-0.738306	-1.135902
C138	C	0.982949	-0.740791	-1.062286
H139	H	0.898102	-0.774343	-1.133539
H140	H	0.934027	-0.673531	-1.149498
H141	H	0.979521	-0.765372	-1.174607
H142	H	0.949082	-0.713715	-1.023584
H143	H	0.994564	-0.805564	-1.048683
H144	H	1.234182	-0.352606	-1.079955
O145	O	1.292705	-0.281423	-0.799853
C146	C	1.343716	-0.336339	-0.752060
H147	H	1.348606	-0.412303	-0.776915
H148	H	1.319244	-0.339681	-0.689503
C149	C	1.419883	-0.195897	-0.720255
C150	C	1.425894	-0.289196	-0.750786
H151	H	1.470574	-0.166816	-0.719465
H152	H	1.385515	-0.158898	-0.752451
H153	H	1.399487	-0.198695	-0.668127
H154	H	1.446281	-0.286396	-0.802916
H155	H	1.460268	-0.326194	-0.718598
