data_functionalizedCrystal
_audit_creation_method	'MofGen! by Chris Wilmer'
_symmetry_space_group_name_H-M	'P1'
_symmetry_Int_Tables_number	1
_symmetry_cell_setting	triclinic
loop_
_symmetry_equiv_pos_as_xyz
  x,y,z
_cell_length_a	15.995280
_cell_length_b	19.188924
_cell_length_c	17.666332
_cell_angle_alpha	90.008552
_cell_angle_beta	89.989927
_cell_angle_gamma	96.697219
loop_
_atom_site_label
_atom_site_type_symbol
_atom_site_fract_x
_atom_site_fract_y
_atom_site_fract_z
O1	O	-1.110697	0.089764	0.062964
O2	O	-0.866872	0.100928	0.062964
O3	O	-0.995824	-0.006294	0.062955
O4	O	-0.981745	0.196985	0.062973
O5	O	-0.995801	-0.006299	-0.062942
O6	O	-0.866850	0.100923	-0.062933
O7	O	-1.110674	0.089758	-0.062932
Cu8	Cu	-0.988760	0.095340	-0.074428
Cu9	Cu	-0.988786	0.095346	0.074459
O10	O	-0.981723	0.196980	-0.062924
C11	C	-0.835667	0.100473	0.000015
C12	C	-0.742718	0.099115	0.000014
C13	C	-0.404996	0.094123	0.000025
C14	C	-0.428023	0.171509	0.000313
C15	C	-0.524694	0.172976	0.000025
C16	C	-0.572544	0.096600	0.000020
C17	C	-0.543572	0.057908	-0.071874
C18	C	-0.446784	0.056980	-0.071930
C19	C	-0.446960	0.055406	0.071238
C20	C	-0.543443	0.058271	0.072184
C21	C	-0.667235	0.097996	0.000015
C22	C	-0.310305	0.092725	0.000025
C23	C	-0.995357	-0.032309	0.000006
C24	C	-0.993992	-0.109817	0.000004
C25	C	-0.993367	-0.146214	0.068630
C26	C	-0.992071	-0.219040	0.068636
C27	C	-0.991418	-0.255467	0.000012
C28	C	-0.992039	-0.219061	-0.068624
C29	C	-0.993325	-0.146235	-0.068628
N30	N	-1.037039	-0.375026	-0.051064
N31	N	-1.035818	-0.444207	-0.051056
C32	C	-0.987540	-0.474885	0.000019
N33	N	-0.940539	-0.433770	0.051096
N34	N	-0.941763	-0.364583	0.051090
C35	C	-0.990023	-0.334434	0.000008
C36	C	-0.985509	-0.590248	0.068656
C37	C	-0.984209	-0.663075	0.068659
C38	C	-0.984185	-0.663095	-0.068603
C39	C	-0.985477	-0.590269	-0.068604
C40	C	-0.986143	-0.553851	0.000028
C41	C	-0.141878	0.090223	0.000020
C42	C	-0.234822	0.091608	0.000031
C43	C	-0.982189	0.222995	0.000027
C44	C	-0.983554	0.300503	0.000034
N45	N	-0.988747	0.095334	-0.179148
C46	C	-1.045865	0.047880	-0.218761
C47	C	-1.045870	0.047876	-0.298009
C48	C	-0.988765	0.095340	-0.337640
C49	C	-0.931636	0.142798	-0.298017
C50	C	-0.931627	0.142795	-0.218771
N51	N	-0.977878	0.157122	-0.462053
N52	N	-0.977892	0.157122	-0.537333
C53	C	-0.988787	0.095350	-0.576404
N54	N	-0.999685	0.033575	-0.537350
N55	N	-0.999675	0.033575	-0.462062
C56	C	-0.988768	0.095348	-0.423569
C57	C	-1.045913	0.047887	-0.701947
C58	C	-1.045912	0.047883	-0.781196
C59	C	-0.931682	0.142811	-0.781202
C60	C	-0.931679	0.142809	-0.701955
C61	C	-0.988799	0.095348	-0.662332
N62	N	-0.988806	0.095346	0.179179
H63	H	-0.543618	0.203274	0.051563
H64	H	-0.993831	-0.116601	-0.124513
H65	H	-0.419859	0.083773	-0.125669
Br66	Br	-0.854129	0.207208	-0.351799
H67	H	-0.983696	-0.692708	0.124545
Br68	Br	-0.991142	-0.268495	-0.161758
Br69	Br	-0.422874	-0.037584	-0.077426
H70	H	-0.885172	0.181454	-0.669699
Br71	Br	-0.983290	-0.712524	-0.161739
H72	H	-0.985993	-0.560635	-0.124487
H73	H	-0.399926	0.201340	0.051872
Br74	Br	-0.574276	0.105200	0.160837
H75	H	-0.885114	0.181439	-0.186517
H76	H	-0.576620	0.002524	0.076523
H77	H	-0.398885	0.201170	-0.050951
H78	H	-0.542975	0.203456	-0.051594
Br79	Br	-0.423997	-0.039534	0.072040
H80	H	-0.986047	-0.560594	0.124540
H81	H	-1.092422	0.009240	-0.669684
Br82	Br	-0.597019	-0.035771	-0.076334
Br83	Br	-1.123380	-0.016532	-0.164986
H84	H	-1.092422	0.009236	-0.813450
Br85	Br	-1.123393	-0.016533	-0.351780
Br86	Br	-0.854173	0.207218	-0.834981
Br87	Br	-0.399623	0.095733	0.162062
Br88	Br	-0.576821	0.102681	-0.161047
Br89	Br	-0.994267	-0.096791	0.161773
Br90	Br	-0.991220	-0.268447	0.161779
