data_functionalizedCrystal
_audit_creation_method	'MofGen! by Chris Wilmer'
_symmetry_space_group_name_H-M	'P1'
_symmetry_Int_Tables_number	1
_symmetry_cell_setting	triclinic
loop_
_symmetry_equiv_pos_as_xyz
  x,y,z
_cell_length_a	11.026607
_cell_length_b	19.288865
_cell_length_c	17.766277
_cell_angle_alpha	90.009776
_cell_angle_beta	89.994978
_cell_angle_gamma	84.138868
loop_
_atom_site_label
_atom_site_type_symbol
_atom_site_fract_x
_atom_site_fract_y
_atom_site_fract_z
O1	O	1.608577	-0.290659	-0.062628
O2	O	1.255451	-0.257562	-0.062625
O3	O	1.442218	-0.174274	-0.062612
O4	O	1.421810	-0.373947	-0.062641
O5	O	1.442197	-0.174269	0.062577
O6	O	1.255431	-0.257557	0.062563
O7	O	1.608556	-0.290654	0.062561
Cu8	Cu	1.431992	-0.274105	0.073993
Cu9	Cu	1.432016	-0.274111	-0.074057
O10	O	1.421790	-0.373942	0.062547
C11	C	1.210264	-0.251454	-0.000030
C12	C	1.075649	-0.233252	-0.000028
C13	C	1.441551	-0.148312	-0.000015
C14	C	1.439580	-0.070959	-0.000008
N15	N	1.431984	-0.274101	0.178123
C16	C	1.001569	-0.283510	-0.000036
C17	C	0.862437	-0.264699	-0.000035
C18	C	1.653744	-0.296763	-0.000036
C19	C	1.788358	-0.314964	-0.000043
C20	C	1.422457	-0.399904	-0.000051
C21	C	1.424428	-0.477258	-0.000063
C22	C	1.549166	-0.040161	-0.000006
C23	C	1.547314	0.032521	-0.000018
C24	C	1.435870	0.074403	-0.000017
C25	C	1.326269	0.043597	-0.000024
C26	C	1.328124	-0.029084	-0.000020
C27	C	1.348255	0.193803	0.043834
C28	C	1.346404	0.266482	0.043835
C29	C	1.430144	0.298575	-0.000034
C30	C	1.515755	0.257978	-0.043893
C31	C	1.517610	0.185297	-0.043889
C32	C	1.433846	0.153213	-0.000022
C33	C	1.537729	0.408182	-0.000045
C34	C	1.535873	0.480866	-0.000062
C35	C	1.314825	0.491940	-0.000061
C36	C	1.316685	0.419258	-0.000052
C37	C	1.428140	0.377383	-0.000040
N38	N	1.432034	-0.274110	-0.178187
C39	C	1.514736	-0.237244	0.782418
C40	C	1.514738	-0.237246	0.703616
C41	C	1.432016	-0.274105	0.664212
C42	C	1.349308	-0.310980	0.703616
C43	C	1.349317	-0.310982	0.782416
C44	C	1.321515	-0.269360	0.539380
C45	C	1.321505	-0.269352	0.460581
C46	C	1.431990	-0.274100	0.421166
C47	C	1.542490	-0.278842	0.460558
C48	C	1.542499	-0.278845	0.539359
C49	C	1.431998	-0.274106	0.578766
C50	C	1.514701	-0.237234	0.296325
C51	C	1.514704	-0.237241	0.217522
C52	C	1.349264	-0.310970	0.217523
C53	C	1.349271	-0.310968	0.296325
C54	C	1.431988	-0.274096	0.335721
H55	H	0.822863	-0.207741	-0.000045
H56	H	1.041149	-0.340464	-0.000041
H57	H	1.625115	0.505939	-0.000064
H58	H	0.827931	-0.371923	-0.000046
O59	O	1.209923	-0.062307	-0.000019
H60	H	1.205481	-0.095145	0.051007
H61	H	1.281957	-0.340992	0.671529
H62	H	1.224085	0.526040	-0.000064
H63	H	1.632458	-0.282714	0.428468
O64	O	1.657936	0.363012	-0.000050
H65	H	1.710580	0.374322	0.050967
O66	O	1.202341	-0.264240	0.581890
H67	H	1.199300	-0.311129	0.617775
O68	O	1.669382	-0.085318	-0.000006
H69	H	1.675520	-0.118684	0.051022
H70	H	1.587314	0.152246	-0.079602
H71	H	1.036069	-0.176297	-0.000039
H72	H	1.636555	0.057602	-0.000018
H73	H	1.583943	0.284105	-0.079616
H74	H	1.582058	-0.207213	0.328403
H75	H	1.227448	0.394183	-0.000050
O76	O	1.661675	-0.283967	0.581844
H77	H	1.643113	-0.283167	0.643259
H78	H	1.276690	0.299531	0.079543
H79	H	1.280060	0.167680	0.079562
H80	H	1.281923	-0.340985	0.328402
O81	O	1.206065	0.088763	-0.000015
H82	H	1.223184	0.144478	-0.000007
O83	O	1.603904	-0.197473	0.175025
H84	H	1.661410	-0.171830	0.215662
H85	H	1.582092	-0.207223	0.814492
O86	O	1.603930	-0.197474	0.661111
H87	H	1.661442	-0.171832	0.701744
O88	O	1.260030	-0.350721	0.175036
H89	H	1.273909	-0.344522	0.113622
O90	O	1.202331	-0.264240	0.418094
H91	H	1.125506	-0.260955	0.458739
H92	H	1.281970	-0.341004	0.814492
