data_functionalizedCrystal
_audit_creation_method	'MofGen! by Chris Wilmer'
_symmetry_space_group_name_H-M	'P1'
_symmetry_Int_Tables_number	1
_symmetry_cell_setting	triclinic
loop_
_symmetry_equiv_pos_as_xyz
  x,y,z
_cell_length_a	14.044220
_cell_length_b	8.634740
_cell_length_c	7.088929
_cell_angle_alpha	97.191028
_cell_angle_beta	96.777923
_cell_angle_gamma	83.120408
loop_
_atom_site_label
_atom_site_type_symbol
_atom_site_fract_x
_atom_site_fract_y
_atom_site_fract_z
O1	O	1.283715	-0.391172	-0.158772
O2	O	1.006502	-0.377590	-0.158821
O3	O	1.131986	-0.158099	-0.158791
O4	O	1.158230	-0.610662	-0.158802
O5	O	1.148750	-0.128694	0.159188
O6	O	1.023265	-0.348185	0.159158
O7	O	1.300478	-0.361766	0.159207
Cu8	Cu	1.163402	-0.352291	0.188216
Cu9	Cu	1.143578	-0.387066	-0.187831
O10	O	1.174993	-0.581257	0.159177
C11	C	1.134423	-0.085129	0.000195
C12	C	1.116695	0.088492	0.000186
C13	C	0.979026	-0.356941	0.000162
C14	C	0.872179	-0.339204	0.000143
C15	C	0.676558	-0.306770	0.000182
C16	C	0.630415	-0.432581	0.000187
C17	C	0.521565	-0.414534	0.000208
C18	C	0.785418	-0.324814	0.000160
C19	C	1.327954	-0.382416	0.000219
C20	C	1.434800	-0.400154	0.000226
N21	N	1.177352	-0.327832	0.452708
C22	C	1.172557	0.345773	0.000190
C23	C	1.190284	0.172152	0.000197
N24	N	1.129634	-0.411513	-0.452322
H25	H	1.040126	0.149699	0.000160
O26	O	0.686373	-0.593209	0.000162
H27	H	0.674769	-0.645551	0.129772
H28	H	1.226819	-0.241121	0.534375
O29	O	1.291709	0.091106	0.000206
H30	H	1.310183	0.029083	0.129818
H31	H	0.634315	-0.185516	0.000195
O32	O	1.064115	-0.526364	0.439502
H33	H	1.089569	-0.646260	0.477780
