data_functionalizedCrystal
_audit_creation_method	'MofGen! by Chris Wilmer'
_symmetry_space_group_name_H-M	'P1'
_symmetry_Int_Tables_number	1
_symmetry_cell_setting	triclinic
loop_
_symmetry_equiv_pos_as_xyz
  x,y,z
_cell_length_a	12.594517
_cell_length_b	16.625546
_cell_length_c	16.625539
_cell_angle_alpha	89.969603
_cell_angle_beta	90.020900
_cell_angle_gamma	89.977732
loop_
_atom_site_label
_atom_site_type_symbol
_atom_site_fract_x
_atom_site_fract_y
_atom_site_fract_z
Zn1	Zn	1.627215	0.321004	0.455905
Zn2	Zn	2.127215	0.821004	0.955905
Zn3	Zn	1.627087	0.455848	0.321067
Zn4	Zn	2.127087	0.955848	0.821067
Zn5	Zn	1.449220	0.321032	0.321084
Zn6	Zn	1.949220	0.821032	0.821084
Zn7	Zn	1.449181	0.455798	0.455856
Zn8	Zn	1.949181	0.955798	0.955856
O9	O	1.538176	0.388421	0.388478
O10	O	2.038176	0.888421	0.888478
O11	O	1.776144	0.338901	0.438031
O12	O	2.276144	0.838901	0.938031
O13	O	1.603456	0.437996	0.208237
O14	O	2.103456	0.937996	0.708237
O15	O	1.472901	0.208196	0.338996
O16	O	1.972901	0.708196	0.838996
O17	O	1.776050	0.437969	0.338967
O18	O	2.276050	0.937969	0.838967
O19	O	1.603673	0.208176	0.438048
O20	O	2.103673	0.708176	0.938048
O21	O	1.472778	0.338948	0.208250
O22	O	1.972778	0.838948	0.708250
O23	O	1.300269	0.338900	0.338949
O24	O	1.800269	0.838900	0.838949
O25	O	1.472835	0.437885	0.568695
O26	O	1.972835	0.937885	1.068695
O27	O	1.300241	0.437912	0.437965
O28	O	1.800241	0.937912	0.937965
O29	O	1.603636	0.338853	0.568731
O30	O	2.103636	0.838853	1.068731
O31	O	1.603418	0.568673	0.338919
O32	O	2.103418	1.068673	0.838919
O33	O	1.472711	0.568637	0.437948
O34	O	1.972711	1.068637	0.937948
C35	C	1.261635	0.388404	0.388454
C36	C	1.761635	0.888404	0.888454
C37	C	1.143329	0.388417	0.388463
C38	C	1.643329	0.888417	0.888463
C39	C	1.538075	0.597912	0.388444
C40	C	2.038075	1.097912	0.888444
C41	C	1.538129	0.687533	0.388457
C42	C	2.038129	1.187533	0.888457
C43	C	1.538306	0.178112	0.388530
C44	C	2.038306	0.678112	0.888530
C45	C	1.538361	0.088491	0.388552
C46	C	2.038361	0.588491	0.888552
C47	C	1.074061	0.334491	0.334711
C48	C	1.574061	0.834491	0.834711
C49	C	1.003239	0.408038	0.314872
C50	C	1.503239	0.908038	0.814872
C51	C	1.003352	0.314905	0.408316
C52	C	1.503352	0.814905	0.908316
C53	C	1.074066	0.462003	0.368586
C54	C	1.574066	0.962003	0.868586
C55	C	1.074185	0.368821	0.462064
C56	C	1.574185	0.868821	0.962064
C57	C	1.003395	0.442419	0.442253
C58	C	1.503395	0.942419	0.942253
C59	C	1.815797	0.388437	0.388502
C60	C	2.315797	0.888437	0.888502
C61	C	1.934102	0.388445	0.388513
C62	C	2.434102	0.888445	0.888513
C63	C	1.538245	0.388361	0.598787
C64	C	2.038245	0.888361	1.098787
C65	C	1.538275	0.388335	0.688408
C66	C	2.038275	0.888335	1.188408
C67	C	1.538315	1.015708	0.388541
C68	C	2.038315	1.515708	0.888541
C69	C	1.538260	0.924400	0.388520
C70	C	2.038260	1.424400	0.888520
C71	C	1.538221	0.851623	0.388498
C72	C	2.038221	1.351623	0.888498
C73	C	1.538168	0.760309	0.388478
C74	C	2.038168	1.260309	0.888478
C75	C	1.538168	0.388422	0.178987
C76	C	2.038168	0.888422	0.678987
C77	C	1.538345	0.388221	0.089367
C78	C	2.038345	0.888221	0.589367
C79	C	1.538324	0.388245	1.016584
C80	C	2.038324	0.888245	1.516584
C81	C	1.538307	0.388272	0.925276
C82	C	2.038307	0.888272	1.425276
C83	C	1.538300	0.388290	0.852499
C84	C	2.038300	0.888290	1.352499
C85	C	1.538282	0.388317	0.761185
C86	C	2.038282	0.888317	1.261185
H87	H	0.972079	0.424631	0.252651
H88	H	1.472079	0.924631	0.752651
N89	N	1.115180	0.274143	0.274434
N90	N	1.615180	0.774143	0.774434
H91	H	1.053361	0.247136	0.246736
H92	H	1.553361	0.747136	0.746736
H93	H	1.160391	0.302651	0.233154
H94	H	1.660391	0.802651	0.733154
N95	N	1.115512	0.346820	0.544456
N96	N	1.615512	0.846820	1.044456
H97	H	1.088687	0.386978	0.585238
H98	H	1.588687	0.886978	1.085238
H99	H	1.089830	0.291226	0.559316
H100	H	1.589830	0.791226	1.059316
N101	N	1.115026	0.544393	0.346276
N102	N	1.615026	1.044393	0.846276
H103	H	1.195217	0.543868	0.346371
H104	H	1.695217	1.043868	0.846371
H105	H	1.088514	0.559277	0.290893
H106	H	1.588514	1.059277	0.790893
H107	H	0.972562	0.488087	0.487730
H108	H	1.472562	0.988087	0.987730
N109	N	0.962197	0.232547	0.430535
N110	N	1.462197	0.732547	0.930535
H111	H	0.987902	0.191850	0.389873
H112	H	1.487902	0.691850	0.889873
H113	H	0.989120	0.217385	0.485729
H114	H	1.489120	0.717385	0.985729
