data_functionalizedCrystal
_audit_creation_method	'MofGen! by Chris Wilmer'
_symmetry_space_group_name_H-M	'P1'
_symmetry_Int_Tables_number	1
_symmetry_cell_setting	triclinic
loop_
_symmetry_equiv_pos_as_xyz
  x,y,z
_cell_length_a	10.489741
_cell_length_b	10.654550
_cell_length_c	9.130313
_cell_angle_alpha	89.999890
_cell_angle_beta	90.002436
_cell_angle_gamma	84.512038
loop_
_atom_site_label
_atom_site_type_symbol
_atom_site_fract_x
_atom_site_fract_y
_atom_site_fract_z
O1	O	1.693961	0.177187	-0.121705
O2	O	1.322757	0.193819	-0.121727
O3	O	1.516894	0.002767	-0.121710
O4	O	1.499824	0.368238	-0.121722
O5	O	1.516891	0.002773	0.121889
O6	O	1.322755	0.193824	0.121872
O7	O	1.693958	0.177192	0.121894
Cu8	Cu	1.508356	0.185508	0.144125
Cu9	Cu	1.508359	0.185502	-0.143958
O10	O	1.499822	0.368243	0.121877
C11	C	1.515639	-0.044029	0.000088
C12	C	1.511889	-0.183474	0.000082
C13	C	1.275225	0.192565	0.000069
C14	C	1.133597	0.188807	0.000061
C15	C	1.626194	-0.262906	0.000094
C16	C	1.622663	-0.393928	0.000083
C17	C	1.390513	-0.366074	0.000056
C18	C	1.394045	-0.235054	0.000056
C19	C	1.744038	-0.211326	0.000120
C20	C	1.858352	-0.290759	0.000133
C21	C	1.854821	-0.421782	0.000122
C22	C	1.736976	-0.473371	0.000099
C23	C	1.065516	0.067246	0.000079
C24	C	0.973362	0.124668	-0.120027
C25	C	0.973394	0.124702	0.120142
C26	C	1.043309	0.246278	-0.120144
C27	C	1.043350	0.246295	0.120133
C28	C	0.951224	0.303805	-0.000002
C29	C	1.741491	0.178445	0.000094
C30	C	1.883118	0.182204	0.000093
C31	C	1.501076	0.415039	0.000076
C32	C	1.504826	0.554484	0.000072
N33	N	1.508364	0.185512	0.346748
N34	N	1.508362	0.185489	-0.346581
C35	C	1.594350	0.100943	0.423408
C36	C	1.594346	0.100928	0.576744
C37	C	1.422367	0.270061	0.576749
C38	C	1.422365	0.270069	0.423415
C39	C	1.680348	0.016386	0.346741
C40	C	1.766342	-0.068189	0.423401
C41	C	1.766339	-0.068204	0.576738
C42	C	1.680341	0.016356	0.653415
H43	H	1.746926	-0.104642	0.000133
H44	H	1.954297	-0.248746	0.000115
C45	C	1.733094	-0.617493	0.000079
H46	H	1.818048	-0.657415	0.000093
H47	H	1.689426	-0.641985	-0.084873
H48	H	1.689427	-0.641992	0.085035
H49	H	1.352346	0.338932	0.360998
H50	H	1.300968	-0.170377	0.000049
H51	H	1.836349	-0.137075	0.639152
C52	C	1.132698	-0.067751	-0.000101
H53	H	1.108908	-0.110734	-0.085553
H54	H	1.107783	-0.111395	0.084352
H55	H	1.222870	-0.064396	0.000748
C56	C	1.085273	0.315721	0.257305
H57	H	1.061596	0.272414	0.342569
H58	H	1.044559	0.399281	0.258168
H59	H	1.175544	0.318268	0.255823
H60	H	1.680337	0.016328	0.778272
H61	H	1.680361	0.016393	0.221887
C62	C	1.980557	-0.509154	0.000133
H63	H	2.051242	-0.459666	0.000160
H64	H	1.984016	-0.560845	-0.084814
H65	H	1.983996	-0.560843	0.085093
H66	H	0.942440	0.073247	0.221683
C67	C	1.260897	-0.422820	0.000048
H68	H	1.275165	-0.512227	0.000065
H69	H	1.213779	-0.395629	-0.084901
H70	H	1.213787	-0.395624	0.085006
C71	C	0.931486	0.055185	-0.257189
H72	H	0.970988	-0.028860	-0.257044
H73	H	0.956580	0.097560	-0.342485
H74	H	0.841049	0.053963	-0.256637
H75	H	1.074113	0.297671	-0.221799
H76	H	1.352352	0.338907	0.639189
C77	C	1.860936	-0.161190	0.339063
H78	H	1.848635	-0.149062	0.236763
H79	H	1.846360	-0.245152	0.364175
H80	H	1.946183	-0.146713	0.364208
H81	H	0.901752	0.403841	-0.000071
