data_functionalizedCrystal
_audit_creation_method	'MofGen! by Chris Wilmer'
_symmetry_space_group_name_H-M	'P1'
_symmetry_Int_Tables_number	1
_symmetry_cell_setting	triclinic
loop_
_symmetry_equiv_pos_as_xyz
  x,y,z
_cell_length_a	10.540539
_cell_length_b	17.699083
_cell_length_c	16.776229
_cell_angle_alpha	90.002452
_cell_angle_beta	89.991754
_cell_angle_gamma	96.095747
loop_
_atom_site_label
_atom_site_type_symbol
_atom_site_fract_x
_atom_site_fract_y
_atom_site_fract_z
O1	O	0.160497	-1.005120	0.066173
O2	O	0.181381	-0.784877	0.066198
O3	O	-0.013859	-0.900023	0.066184
O4	O	0.355738	-0.889974	0.066187
O5	O	-0.013825	-0.900013	-0.066393
O6	O	0.181415	-0.784867	-0.066378
O7	O	0.160531	-1.005109	-0.066404
Zn8	Zn	0.170979	-0.894986	-0.087440
Zn9	Zn	0.170934	-0.895000	0.087235
O10	O	0.355772	-0.889963	-0.066389
C11	C	0.180650	-0.756670	-0.000087
C12	C	0.178405	-0.672637	-0.000077
C13	C	-0.061131	-0.899264	-0.000103
C14	C	-0.202038	-0.897009	-0.000098
C15	C	0.161263	-1.033316	-0.000117
C16	C	0.163508	-1.117349	-0.000122
C17	C	-0.383885	-0.810610	0.000209
C18	C	-0.237308	-0.812896	-0.000089
C19	C	-0.264417	-0.937482	-0.075811
C20	C	-0.410909	-0.934612	-0.075874
C21	C	-0.411497	-0.936335	0.074890
C22	C	-0.264529	-0.937109	0.075891
C23	C	0.403044	-0.890722	-0.000101
C24	C	0.543951	-0.892977	-0.000100
N25	N	0.171009	-0.894982	-0.206652
C26	C	0.293007	-0.624761	-0.000076
C27	C	0.290890	-0.545804	-0.000086
C28	C	0.174170	-0.514725	-0.000092
C29	C	0.059559	-0.562607	-0.000095
C30	C	0.061677	-0.641562	-0.000090
C31	C	0.051014	-0.244188	-0.000115
C32	C	0.048904	-0.165226	-0.000117
C33	C	0.280227	-0.148430	-0.000111
C34	C	0.282345	-0.227386	-0.000106
C35	C	0.167735	-0.275261	-0.000113
C36	C	0.170032	-0.360875	-0.000104
C37	C	0.171872	-0.429112	-0.000096
C38	C	0.094014	-0.848692	-0.751819
C39	C	0.094025	-0.848691	-0.668366
C40	C	0.170923	-0.895003	-0.626651
C41	C	0.247806	-0.941326	-0.668392
C42	C	0.247787	-0.941331	-0.751843
C43	C	0.247881	-0.941307	-0.331845
C44	C	0.247896	-0.941296	-0.248389
C45	C	0.094118	-0.848666	-0.248368
C46	C	0.094100	-0.848671	-0.331819
C47	C	0.170977	-0.894997	-0.373553
C48	C	0.170963	-0.894999	-0.464041
C49	C	0.170945	-0.894997	-0.536164
N50	N	0.170894	-0.895010	0.206446
H51	H	-0.194136	-0.781049	0.054185
N52	N	-0.420978	-0.766594	0.072125
H53	H	-0.484925	-0.799615	0.105203
H54	H	-0.460151	-0.719852	0.053997
H55	H	0.031402	-0.810975	-0.785777
N56	N	-0.447524	-0.894967	-0.150824
H57	H	-0.542858	-0.892707	-0.151615
H58	H	-0.421590	-0.923996	-0.198941
N59	N	0.330823	-0.991262	-0.203396
H60	H	0.319169	-0.984225	-0.144197
H61	H	0.423174	-0.976815	-0.217996
N62	N	0.403847	-0.096793	-0.000105
H63	H	0.384802	-0.042059	-0.000112
H64	H	0.454744	-0.106932	-0.049249
N65	N	0.330720	-0.991282	-0.796859
H66	H	0.319038	-0.984260	-0.856054
H67	H	0.305528	-1.046189	-0.782267
H68	H	-0.042309	-0.283159	-0.000121
H69	H	-0.413473	-0.777515	-0.053774
H70	H	0.031517	-0.810948	-0.214379
H71	H	-0.459834	-0.997089	0.075392
H72	H	-0.194952	-0.780817	-0.054446
N73	N	0.330745	-0.991274	-0.623395
H74	H	0.423129	-0.976843	-0.637936
H75	H	0.305480	-1.046188	-0.637927
H76	H	0.031418	-0.810976	-0.634389
N77	N	-0.475925	-1.014736	-0.080438
H78	H	-0.409385	-1.051763	-0.082404
H79	H	-0.530332	-1.020494	-0.130062
N80	N	0.330809	-0.991281	-0.376825
H81	H	0.393019	-0.958685	-0.411464
H82	H	0.275375	-1.028033	-0.411385
H83	H	-0.243192	-0.999253	-0.078633
H84	H	-0.046149	-0.139925	-0.000122
H85	H	0.388054	-0.650060	-0.000071
H86	H	-0.031644	-0.680543	-0.000090
N87	N	-0.066335	-0.529090	-0.000113
H88	H	-0.050290	-0.471807	-0.000116
H89	H	-0.116495	-0.546555	0.049031
N90	N	-0.207281	-0.900245	-0.150439
H91	H	-0.141008	-0.857166	-0.135376
H92	H	-0.276736	-0.879776	-0.182888
N93	N	-0.452651	-0.900287	0.150906
H94	H	-0.500601	-0.855481	0.137499
H95	H	-0.374901	-0.882480	0.183761
N96	N	-0.209611	-0.897930	0.150082
H97	H	-0.114398	-0.900586	0.151595
H98	H	-0.250253	-0.923989	0.198720
N99	N	-0.233944	-1.018344	0.081943
H100	H	-0.178903	-1.030357	0.035303
H101	H	-0.315824	-1.053601	0.081289
H102	H	0.384211	-0.506826	-0.000085
N103	N	0.408235	-0.260908	-0.000090
H104	H	0.480516	-0.218597	-0.000090
H105	H	0.414169	-0.293307	-0.049234
H106	H	0.031486	-0.810956	-0.365780
