data_functionalizedCrystal
_audit_creation_method	'MofGen! by Chris Wilmer'
_symmetry_space_group_name_H-M	'P1'
_symmetry_Int_Tables_number	1
_symmetry_cell_setting	triclinic
loop_
_symmetry_equiv_pos_as_xyz
  x,y,z
_cell_length_a	12.759401
_cell_length_b	19.120786
_cell_length_c	12.759393
_cell_angle_alpha	92.477119
_cell_angle_beta	90.018496
_cell_angle_gamma	92.465417
loop_
_atom_site_label
_atom_site_type_symbol
_atom_site_fract_x
_atom_site_fract_y
_atom_site_fract_z
Zn1	Zn	1.588335	-0.279587	0.576097
Zn2	Zn	1.580700	-0.397064	0.392903
Zn3	Zn	1.412635	-0.279624	0.400435
Zn4	Zn	1.405099	-0.397010	0.568548
O5	O	1.496692	-0.338321	0.484496
O6	O	1.734343	-0.295178	0.551804
O7	O	1.558364	-0.381523	0.246879
O8	O	1.442291	-0.181328	0.430048
O9	O	1.728733	-0.381488	0.417212
O10	O	1.571377	-0.181301	0.559107
O11	O	1.434887	-0.295241	0.252412
O12	O	1.264615	-0.295188	0.422728
O13	O	1.429448	-0.381396	0.716573
O14	O	1.259078	-0.381431	0.546240
O15	O	1.564070	-0.295126	0.722120
O16	O	1.551057	-0.495348	0.409892
O17	O	1.422044	-0.495308	0.538937
C18	C	1.223726	-0.338308	0.484482
C19	C	1.106948	-0.338320	0.484500
C20	C	1.049227	-0.383298	0.548698
C21	C	0.939502	-0.383307	0.548708
C22	C	0.945231	-0.293357	0.420316
C23	C	1.054953	-0.293345	0.420312
C24	C	1.101221	-0.428273	0.612887
C25	C	1.043499	-0.473256	0.677088
C26	C	0.933775	-0.473265	0.677099
C27	C	0.881772	-0.428291	0.612908
C28	C	1.484933	-0.520814	0.472801
C29	C	1.479998	-0.598885	0.467833
C30	C	1.544838	-0.635488	0.532747
C31	C	1.540197	-0.708844	0.528081
C32	C	1.470721	-0.745595	0.458494
C33	C	1.405874	-0.708987	0.393577
C34	C	1.410510	-0.635632	0.398249
C35	C	1.453358	-0.967082	0.441028
C36	C	1.448729	-1.040442	0.436358
C37	C	1.583052	-1.040294	0.570864
C38	C	1.587686	-0.966938	0.575526
C39	C	1.522835	-0.930336	0.510612
C40	C	1.465978	-0.820577	0.453721
C41	C	1.527574	-0.855356	0.515392
C42	C	1.770725	-0.338335	0.484510
C43	C	1.887501	-0.338341	0.484516
C44	C	1.496770	-0.338251	0.758534
C45	C	1.496804	-0.338220	0.875312
C46	C	1.508526	-0.155117	0.496260
C47	C	1.513569	-0.077046	0.501273
C48	C	1.496678	-0.338341	0.211527
C49	C	1.496861	-0.338174	0.094762
C50	C	1.566911	-0.293295	0.933065
C51	C	1.566938	-0.293270	1.042790
C52	C	1.426746	-0.383101	1.037002
C53	C	1.426715	-0.383122	0.927278
C54	C	1.636999	-0.248394	0.881099
C55	C	1.707113	-0.203465	0.938851
C56	C	1.707140	-0.203440	1.048577
C57	C	1.637053	-0.248343	1.100550
H58	H	0.902881	-0.256742	0.368054
H59	H	1.593005	-0.738643	0.580933
N60	N	1.615822	-0.597962	0.603827
N61	N	1.673709	-0.630656	0.661780
H62	H	1.723843	-0.604155	0.711984
N63	N	1.637056	-0.248319	1.212633
N64	N	1.556060	-0.233624	1.262541
H65	H	1.556063	-0.233609	1.341699
N66	N	1.377782	-1.078008	0.365274
N67	N	1.412226	-1.118951	0.295765
H68	H	1.362131	-1.145489	0.245562
N69	N	0.874793	-0.519200	0.742675
N70	N	0.815176	-0.494549	0.811270
H71	H	0.773519	-0.526995	0.857582
H72	H	0.792427	-0.428296	0.612932
H73	H	1.369684	-0.419658	1.079327
N74	N	1.649300	-1.077683	0.637158
N75	N	1.713687	-1.118593	0.597646
H76	H	1.760477	-1.144999	0.644471
H77	H	1.190564	-0.428272	0.612883
H78	H	1.644259	-0.937017	0.632189
N79	N	1.387110	-0.929711	0.374716
N80	N	1.325086	-0.962536	0.312589
H81	H	1.278294	-0.936141	0.265751
N82	N	1.113907	-0.247389	0.354744
N83	N	1.067473	-0.207237	0.297438
H84	H	1.109109	-0.174775	0.251135
H85	H	1.349301	-0.738915	0.336922
N86	N	1.344264	-0.598251	0.331940
N87	N	1.282233	-0.631071	0.269815
H88	H	1.235440	-0.604672	0.222985
N89	N	1.598547	-0.817810	0.586453
N90	N	1.668094	-0.776856	0.552137
H91	H	1.718224	-0.750333	0.602320
H92	H	1.764170	-0.166903	0.896527
N93	N	1.395044	-0.858140	0.382632
N94	N	1.429489	-0.899088	0.313130
H95	H	1.379396	-0.925624	0.262923
N96	N	1.636993	-0.248414	0.769018
N97	N	1.699576	-0.208325	0.722629
H98	H	1.699574	-0.208341	0.643472
H99	H	1.369612	-0.419693	0.880256
H100	H	1.764223	-0.166852	1.095596
H101	H	1.085847	-0.509867	0.729356
