data_functionalizedCrystal
_audit_creation_method	'MofGen! by Chris Wilmer'
_symmetry_space_group_name_H-M	'P1'
_symmetry_Int_Tables_number	1
_symmetry_cell_setting	triclinic
loop_
_symmetry_equiv_pos_as_xyz
  x,y,z
_cell_length_a	29.839134
_cell_length_b	10.686285
_cell_length_c	10.685314
_cell_angle_alpha	89.696502
_cell_angle_beta	94.339722
_cell_angle_gamma	94.374287
loop_
_atom_site_label
_atom_site_type_symbol
_atom_site_fract_x
_atom_site_fract_y
_atom_site_fract_z
Zn1	Zn	0.683672	0.553892	-0.671410
Zn2	Zn	0.695092	0.747636	-0.445589
Zn3	Zn	0.613830	0.537866	-0.461621
Zn4	Zn	0.614715	0.763584	-0.655266
O5	O	0.651827	0.650744	-0.558471
O6	O	0.748053	0.579625	-0.641501
O7	O	0.688721	0.706428	-0.272168
O8	O	0.617945	0.364445	-0.502915
O9	O	0.756443	0.721968	-0.475592
O10	O	0.669258	0.376219	-0.657046
O11	O	0.629019	0.552311	-0.283946
O12	O	0.551081	0.567775	-0.487261
O13	O	0.619453	0.749149	-0.832955
O14	O	0.551731	0.733609	-0.629532
O15	O	0.670116	0.595089	-0.844816
O16	O	0.689579	0.925298	-0.459938
O17	O	0.630527	0.937014	-0.613986
C18	C	0.661399	0.976675	-0.533498
C19	C	0.665535	1.116113	-0.522856
C20	C	0.535105	0.650684	-0.558385
C21	C	0.485171	0.650691	-0.558375
C22	C	0.643609	0.675685	-0.885676
C23	C	0.640107	0.686314	-1.025111
C24	C	0.175881	0.737205	-0.632444
C25	C	-0.011793	0.737245	-0.632497
O26	O	-0.035758	0.810739	-0.695424
N27	N	-0.035616	0.650797	-0.558562
C28	C	-0.012518	0.564329	-0.484615
O29	O	-0.037088	0.490793	-0.421740
C30	C	0.175154	0.564284	-0.484570
C31	C	0.198975	0.650746	-0.558500
C32	C	0.199702	0.823658	-0.706369
C33	C	0.246618	0.823652	-0.706350
C34	C	0.269712	0.737192	-0.632406
C35	C	0.245891	0.650739	-0.558481
C36	C	0.198250	0.477811	-0.410630
C37	C	0.245171	0.477805	-0.410628
C38	C	0.268993	0.564267	-0.484558
C39	C	0.315901	0.564273	-0.484517
N40	N	0.339725	0.650721	-0.558452
C41	C	0.316630	0.737180	-0.632396
C42	C	-0.111049	0.564360	-0.484642
C43	C	-0.157967	0.564372	-0.484652
C44	C	-0.157238	0.737287	-0.632536
C45	C	-0.110319	0.737279	-0.632519
C46	C	-0.087226	0.650807	-0.558577
C47	C	0.415157	0.737161	-0.632350
C48	C	0.462077	0.737150	-0.632320
C49	C	0.461344	0.564232	-0.484441
C50	C	0.414428	0.564246	-0.484465
C51	C	0.391335	0.650716	-0.558429
O52	O	0.339895	0.490808	-0.421634
O53	O	0.341207	0.810687	-0.695283
C54	C	0.128965	0.737211	-0.632463
C55	C	0.105144	0.650758	-0.558538
C56	C	0.128238	0.564299	-0.484594
C57	C	0.058226	0.650770	-0.558548
C58	C	0.035131	0.737230	-0.632492
C59	C	0.058955	0.823677	-0.706427
C60	C	0.105870	0.823671	-0.706408
C61	C	0.104415	0.477851	-0.410659
C62	C	0.057499	0.477866	-0.410683
C63	C	0.034405	0.564325	-0.484628
C64	C	0.769005	0.650806	-0.558559
C65	C	0.818939	0.650832	-0.558596
C66	C	0.642229	0.323542	-0.583570
C67	C	0.638139	0.184109	-0.594265
C68	C	0.660036	0.625810	-0.232547
C69	C	0.663615	0.614828	-0.093140
H70	H	0.481470	0.807562	-0.692523
H71	H	-0.092250	0.493942	-0.424424
H72	H	0.692151	1.164579	-0.453564
Cl73	Cl	0.698819	0.507762	-1.018373
H74	H	0.617300	0.755649	-1.073547
H75	H	0.396360	0.807570	-0.692581
H76	H	0.266009	0.894055	-0.766554
H77	H	-0.090927	0.807682	-0.692721
Cl78	Cl	0.170677	0.932366	-0.799340
H79	H	0.611521	1.135649	-0.663545
Cl80	Cl	0.168315	0.369101	-0.317693
H81	H	0.263971	0.407380	-0.350422
H82	H	-0.177357	0.493978	-0.424437
Cl83	Cl	-0.186280	0.845970	-0.725504
H84	H	0.395032	0.493845	-0.424263
H85	H	0.480156	0.493842	-0.424233
H86	H	0.125261	0.894076	-0.766610
H87	H	0.038108	0.407459	-0.350469
Cl88	Cl	0.029913	0.932373	-0.799379
H89	H	0.123214	0.407444	-0.350444
