data_functionalizedCrystal
_audit_creation_method	'MofGen! by Chris Wilmer'
_symmetry_space_group_name_H-M	'P1'
_symmetry_Int_Tables_number	1
_symmetry_cell_setting	triclinic
loop_
_symmetry_equiv_pos_as_xyz
  x,y,z
_cell_length_a	14.044220
_cell_length_b	11.026607
_cell_length_c	9.482900
_cell_angle_alpha	78.599815
_cell_angle_beta	79.851548
_cell_angle_gamma	79.112553
loop_
_atom_site_label
_atom_site_type_symbol
_atom_site_fract_x
_atom_site_fract_y
_atom_site_fract_z
O1	O	1.320314	-0.280341	-0.120884
O2	O	1.653648	0.052993	0.212449
O3	O	1.986981	0.386326	0.545782
O4	O	1.042510	-0.269584	-0.120888
O5	O	1.375843	0.063749	0.212445
O6	O	1.709177	0.397082	0.545778
O7	O	1.158387	-0.095818	-0.120881
O8	O	1.491721	0.237516	0.212452
O9	O	1.825054	0.570849	0.545785
O10	O	1.204437	-0.454107	-0.120891
O11	O	1.537770	-0.120774	0.212442
O12	O	1.871103	0.212560	0.545775
O13	O	1.134877	-0.131268	0.120910
O14	O	1.468210	0.202065	0.454243
O15	O	1.801543	0.535398	0.787576
O16	O	1.018999	-0.305035	0.120903
O17	O	1.352332	0.028299	0.454236
O18	O	1.685666	0.361632	0.787569
O19	O	1.296803	-0.315791	0.120907
O20	O	1.630137	0.017542	0.454240
O21	O	1.963470	0.350875	0.787573
Cu22	Cu	1.155754	-0.313650	0.142982
Cu23	Cu	1.489088	0.019683	0.476316
Cu24	Cu	1.822421	0.353017	0.809649
Cu25	Cu	1.183559	-0.271725	-0.142964
Cu26	Cu	1.516892	0.061608	0.190370
Cu27	Cu	1.850226	0.394941	0.523703
O28	O	1.180926	-0.489558	0.120900
O29	O	1.514259	-0.156224	0.454233
O30	O	1.847593	0.177109	0.787566
C31	C	0.994637	-0.282601	0.000007
C32	C	1.327970	0.050732	0.333340
C33	C	1.661304	0.384065	0.666673
C34	C	0.887015	-0.268557	0.000005
C35	C	1.220348	0.064776	0.333339
C36	C	1.553682	0.398109	0.666672
C37	C	1.344677	-0.302774	0.000009
C38	C	1.678010	0.030560	0.333342
C39	C	2.011343	0.363893	0.666675
C40	C	1.452300	-0.316816	0.000001
C41	C	1.785633	0.016517	0.333334
C42	C	2.118966	0.349850	0.666667
C43	C	1.138137	-0.067412	0.000012
C44	C	1.471470	0.265921	0.333346
C45	C	1.804804	0.599254	0.666679
C46	C	1.112813	0.070044	0.000007
C47	C	1.446147	0.403377	0.333340
C48	C	1.779480	0.736710	0.666673
C49	C	1.649342	-0.342492	0.000001
C50	C	1.982675	-0.009158	0.333335
C51	C	2.316009	0.324175	0.666668
C52	C	1.689979	-0.242888	0.000004
C53	C	2.023312	0.090446	0.333338
C54	C	2.356646	0.423779	0.666671
C55	C	1.799620	-0.257174	0.000005
C56	C	2.132953	0.076160	0.333338
C57	C	2.466287	0.409493	0.666672
C58	C	1.539691	-0.328207	0.000001
C59	C	1.873025	0.005126	0.333334
C60	C	2.206358	0.338459	0.666668
C61	C	1.201177	-0.517963	0.000003
C62	C	1.534510	-0.184629	0.333336
C63	C	1.867843	0.148704	0.666670
C64	C	1.226501	-0.655417	-0.000001
C65	C	1.559835	-0.322084	0.333332
C66	C	1.893168	0.011249	0.666666
N67	N	1.136205	-0.343137	0.344101
N68	N	1.469539	-0.009804	0.677435
N69	N	1.802872	0.323529	1.010768
C70	C	1.182738	0.136280	0.000006
C71	C	1.516071	0.469614	0.333339
C72	C	1.849405	0.802947	0.666672
C73	C	1.156566	0.278349	-0.000000
C74	C	1.489900	0.611682	0.333333
C75	C	1.823233	0.945015	0.666667
N76	N	1.203114	-0.242229	-0.344083
N77	N	1.536447	0.091104	-0.010749
N78	N	1.869781	0.424438	0.322584
C79	C	1.177785	-0.280416	0.416303
C80	C	1.511118	0.052918	0.749636
C81	C	1.844452	0.386251	1.082970
C82	C	1.161528	-0.304960	0.583719
C83	C	1.494862	0.028373	0.917053
C84	C	1.828195	0.361707	1.250386
H85	H	1.642437	-0.146869	-0.000098
H86	H	1.975770	0.186464	0.333235
H87	H	2.309104	0.519797	0.666568
H88	H	1.696892	-0.438486	-0.000003
H89	H	2.030225	-0.105153	0.333331
H90	H	2.363558	0.228180	0.666664
F91	F	1.099258	-0.398898	0.664913
F92	F	1.432592	-0.065565	0.998246
F93	F	1.765925	0.267768	1.331579
H94	H	1.261978	0.087810	0.000016
H95	H	1.595311	0.421143	0.333349
H96	H	1.928644	0.754477	0.666682
H97	H	1.077322	0.326814	-0.000011
H98	H	1.410655	0.660147	0.333323
H99	H	1.743988	0.993481	0.666656
H100	H	1.250746	-0.170350	0.593796
H101	H	1.584079	0.162983	0.927129
H102	H	1.917413	0.496316	1.260462
F103	F	1.330083	0.281245	-0.000006
F104	F	1.663417	0.614579	0.333327
F105	F	1.996750	0.947912	0.666660
F106	F	1.009239	0.133392	-0.000008
F107	F	1.342572	0.466725	0.333325
F108	F	1.675906	0.800058	0.666659
H109	H	1.088568	-0.415002	0.406228
H110	H	1.421901	-0.081669	0.739562
H111	H	1.755234	0.251665	1.072895
F112	F	1.239837	-0.186239	0.335104
F113	F	1.573170	0.147095	0.668438
F114	F	1.906503	0.480428	1.001771
