data_functionalizedCrystal
_audit_creation_method	'MofGen! by Chris Wilmer'
_symmetry_space_group_name_H-M	'P1'
_symmetry_Int_Tables_number	1
_symmetry_cell_setting	triclinic
loop_
_symmetry_equiv_pos_as_xyz
  x,y,z
_cell_length_a	12.759395
_cell_length_b	12.759394
_cell_length_c	12.759393
_cell_angle_alpha	89.968426
_cell_angle_beta	90.020875
_cell_angle_gamma	89.976751
loop_
_atom_site_label
_atom_site_type_symbol
_atom_site_fract_x
_atom_site_fract_y
_atom_site_fract_z
Zn1	Zn	1.606210	0.418194	0.594010
Zn2	Zn	1.606077	0.593910	0.418327
Zn3	Zn	1.430509	0.418248	0.418346
Zn4	Zn	1.430477	0.593834	0.593965
O5	O	1.518318	0.506047	0.506162
O6	O	1.753214	0.441513	0.570717
O7	O	1.582746	0.570662	0.271309
O8	O	1.453885	0.271220	0.441675
O9	O	1.753116	0.570610	0.441643
O10	O	1.582972	0.271180	0.570735
O11	O	1.453756	0.441604	0.271322
O12	O	1.283484	0.441531	0.441631
O13	O	1.453831	0.570481	0.740992
O14	O	1.283460	0.570533	0.570657
O15	O	1.582941	0.441439	0.741026
O16	O	1.582715	0.740921	0.441599
O17	O	1.453702	0.740865	0.570639
C18	C	1.245351	0.506030	0.506142
C19	C	1.128574	0.506048	0.506158
C20	C	1.518219	0.779014	0.506135
C21	C	1.518272	0.895791	0.506159
C22	C	0.909241	0.371859	0.640814
C23	C	0.964158	0.304743	0.708112
C24	C	1.073880	0.304724	0.708094
C25	C	1.128687	0.371833	0.640772
C26	C	1.073770	0.438950	0.573474
C27	C	0.964046	0.438958	0.573498
C28	C	1.073657	0.573165	0.438859
C29	C	0.963936	0.573180	0.438871
C30	C	1.128464	0.640274	0.371538
C31	C	1.073547	0.707387	0.304233
C32	C	0.963819	0.707401	0.304253
C33	C	0.909019	0.640296	0.371572
C34	C	1.652590	0.895592	0.640650
C35	C	1.719774	0.950353	0.707901
C36	C	1.719820	1.060074	0.707920
C37	C	1.652672	1.115037	0.640682
C38	C	1.585489	1.060276	0.573431
C39	C	1.585452	0.950552	0.573417
C40	C	1.451167	1.060475	0.438946
C41	C	1.451125	0.950754	0.438921
C42	C	1.384020	1.115438	0.371709
C43	C	1.316840	1.060677	0.304450
C44	C	1.316798	0.950949	0.304434
C45	C	1.383941	0.895993	0.371669
C46	C	1.792352	0.506064	0.506183
C47	C	1.909128	0.506071	0.506192
C48	C	1.518397	0.505946	0.780196
C49	C	1.518431	0.505903	0.896972
C50	C	1.518409	1.232013	0.506203
C51	C	1.518351	1.115237	0.506198
C52	C	1.518301	0.506071	0.233195
C53	C	1.518471	0.505818	0.116419
C54	C	1.585663	0.438700	0.951853
C55	C	1.585681	0.438655	1.061578
C56	C	1.451230	0.573024	1.061530
C57	C	1.451208	0.573063	0.951808
C58	C	1.623310	0.314699	1.211558
C59	C	1.690559	0.247505	1.266443
C60	C	1.793074	0.231396	1.230852
C61	C	1.828361	0.282495	1.140377
C62	C	1.761117	0.349697	1.085498
C63	C	1.658588	0.365786	1.121088
C64	C	1.413590	0.697021	0.801825
C65	C	1.346351	0.764228	0.746944
C66	C	1.243834	0.780348	0.782533
C67	C	1.208551	0.729267	0.873011
C68	C	1.275790	0.662060	0.927892
C69	C	1.378306	0.645938	0.892295
H70	H	0.819900	0.371844	0.640813
O71	O	1.523654	0.330232	1.245982
C72	C	1.452280	0.298671	1.167752
H73	H	1.491826	0.239835	1.113404
H74	H	1.381062	0.260668	1.206013
H75	H	1.426238	0.369989	1.120582
O76	O	0.802436	0.640405	0.371763
C77	C	0.765835	0.667483	0.472426
H78	H	0.829080	0.713328	0.515763
H79	H	0.692412	0.717863	0.464836
H80	H	0.746414	0.593158	0.518075
H81	H	1.396502	0.627706	1.106190
H82	H	1.118180	0.762026	0.249430
O83	O	1.178640	0.845639	0.729075
C84	C	1.231770	0.887305	0.641606
H85	H	1.299167	0.833111	0.619164
H86	H	1.175072	0.894429	0.572896
H87	H	1.264031	0.968064	0.662028
O88	O	1.251678	0.897643	0.239053
C89	C	1.311493	0.834198	0.171208
H90	H	1.391092	0.817665	0.208316
H91	H	1.268671	0.757088	0.157079
H92	H	1.323083	0.876535	0.093367
O93	O	1.380781	0.813904	0.659144
C94	C	1.467477	0.877540	0.684448
H95	H	1.506171	0.846911	0.758964
H96	H	1.526420	0.875627	0.617352
H97	H	1.439945	0.961538	0.697487
O98	O	1.858257	0.166070	1.284274
C99	C	1.805146	0.124460	1.371780
H100	H	1.717015	0.127886	1.357470
H101	H	1.830071	0.039543	1.384181
H102	H	1.825407	0.172301	1.444447
O103	O	1.785019	1.113164	0.773397
C104	C	1.761976	1.086323	0.878087
H105	H	1.721569	1.006682	0.880223
H106	H	1.837773	1.082493	0.925267
H107	H	1.707955	1.148089	0.913427
H108	H	0.919112	0.762061	0.249455
H109	H	1.640397	0.384011	0.907210
H110	H	1.497065	0.683893	0.772834
H111	H	1.652707	1.204378	0.640712
O112	O	1.384059	1.222021	0.371918
C113	C	1.357028	1.258636	0.472586
H114	H	1.374928	1.195351	0.533110
H115	H	1.404441	1.331990	0.491303
H116	H	1.269862	1.278174	0.474748
O117	O	1.127345	0.239477	0.773322
C118	C	1.190778	0.171522	0.713611
H119	H	1.207156	0.208476	0.633922
H120	H	1.267965	0.157487	0.756412
H121	H	1.148508	0.093654	0.702218
H122	H	1.661819	0.205899	1.340107
O123	O	1.251568	1.114182	0.239290
C124	C	1.183689	1.177633	0.299068
H125	H	1.220713	1.193976	0.378722
H126	H	1.169656	1.254835	0.256283
H127	H	1.105810	1.135397	0.310536
H128	H	1.652569	0.806251	0.640631
H129	H	1.789849	0.391305	1.011839
O130	O	1.927968	0.266702	1.105929
C131	C	1.979761	0.196453	1.173782
H132	H	1.919364	0.146870	1.217075
H133	H	2.033428	0.143180	1.126217
H134	H	2.028371	0.242501	1.232918
H135	H	1.247054	0.620467	1.001564
O136	O	1.784966	0.896799	0.773112
C137	C	1.770508	0.788213	0.758697
H138	H	1.736126	0.773311	0.677589
H139	H	1.849185	0.746447	0.765877
H140	H	1.714522	0.757076	0.820967
H141	H	0.919522	0.250107	0.762927
O142	O	1.235270	0.371826	0.640956
C143	C	1.271963	0.398956	0.741590
H144	H	1.208766	0.381088	0.802143
H145	H	1.345392	0.351585	0.760344
H146	H	1.291405	0.486131	0.743657
O147	O	1.108920	0.745003	0.907421
C148	C	1.057147	0.815293	0.839595
H149	H	1.096807	0.814122	0.759559
H150	H	0.971689	0.790767	0.830830
H151	H	1.061078	0.897826	0.873550
O152	O	1.235047	0.640262	0.371714
C153	C	1.271754	0.667382	0.472346
H154	H	1.208562	0.649513	0.532905
H155	H	1.345182	0.620003	0.491088
H156	H	1.291202	0.754555	0.474417
H157	H	1.383918	0.806651	0.371658
