data_functionalizedCrystal
_audit_creation_method	'MofGen! by Chris Wilmer'
_symmetry_space_group_name_H-M	'P1'
_symmetry_Int_Tables_number	1
_symmetry_cell_setting	triclinic
loop_
_symmetry_equiv_pos_as_xyz
  x,y,z
_cell_length_a	12.759395
_cell_length_b	16.994747
_cell_length_c	12.759387
_cell_angle_alpha	90.010915
_cell_angle_beta	90.020509
_cell_angle_gamma	90.012594
loop_
_atom_site_label
_atom_site_type_symbol
_atom_site_fract_x
_atom_site_fract_y
_atom_site_fract_z
Zn1	Zn	1.606295	-0.313954	0.594150
Zn2	Zn	1.606197	-0.445880	0.418532
Zn3	Zn	1.430594	-0.313997	0.418487
Zn4	Zn	1.430597	-0.445824	0.594171
O5	O	1.518421	-0.379914	0.506335
O6	O	1.753303	-0.331460	0.570864
O7	O	1.582860	-0.428427	0.271505
O8	O	1.453940	-0.203610	0.441762
O9	O	1.753231	-0.428385	0.441838
O10	O	1.583028	-0.203579	0.570821
O11	O	1.453845	-0.331533	0.271472
O12	O	1.283573	-0.331479	0.441782
O13	O	1.453946	-0.428289	0.741189
O14	O	1.283575	-0.428331	0.570856
O15	O	1.583031	-0.331405	0.741174
O16	O	1.582864	-0.556253	0.441858
O17	O	1.453851	-0.556212	0.570899
C18	C	1.245453	-0.379904	0.506317
C19	C	1.128677	-0.379919	0.506334
C20	C	1.518360	-0.584853	0.506382
C21	C	1.518367	-0.674176	0.506379
Zn22	Zn	1.430624	-0.945084	0.418458
Zn23	Zn	1.606342	-0.945019	0.594104
Zn24	Zn	1.430633	-0.813216	0.594153
Zn25	Zn	1.606216	-0.813135	0.418497
O26	O	1.518454	-0.879113	0.506303
O27	O	1.453982	-1.055456	0.441720
O28	O	1.583090	-0.927542	0.741132
O29	O	1.283611	-0.830769	0.570851
O30	O	1.583082	-1.055409	0.570767
O31	O	1.283604	-0.927652	0.441768
O32	O	1.453998	-0.830707	0.741168
O33	O	1.453876	-0.702824	0.570889
O34	O	1.582867	-0.830631	0.271471
O35	O	1.582876	-0.702764	0.441836
O36	O	1.453860	-0.927573	0.271442
O37	O	1.753347	-0.927463	0.570806
O38	O	1.753254	-0.830569	0.441788
C39	C	1.128718	-0.480934	0.640522
C40	C	1.073878	-0.531448	0.707618
C41	C	0.964156	-0.531458	0.707631
C42	C	0.909272	-0.480946	0.640542
C43	C	0.964112	-0.430432	0.573446
C44	C	1.073836	-0.430430	0.573438
C45	C	0.964071	-0.329414	0.439265
C46	C	1.073793	-0.329407	0.439245
C47	C	0.909187	-0.278903	0.372176
C48	C	0.964027	-0.228392	0.305072
C49	C	1.073755	-0.228385	0.305062
C50	C	1.128633	-0.278893	0.372148
C51	C	1.792454	-0.379924	0.506354
C52	C	1.909231	-0.379928	0.506362
C53	C	1.518500	-0.379836	0.780368
C54	C	1.518534	-0.379803	0.897145
C55	C	1.518487	-0.174173	0.506281
C56	C	1.518520	-0.084851	0.506259
C57	C	1.518402	-0.379934	0.233367
C58	C	1.518572	-0.379744	0.116591
C59	C	1.652959	-0.278925	0.897149
C60	C	1.720186	-0.228474	0.952012
C61	C	1.720212	-0.228445	1.061734
C62	C	1.653001	-0.278871	1.116595
C63	C	1.585773	-0.329322	1.061732
C64	C	1.585757	-0.329347	0.952008
C65	C	1.451345	-0.430195	1.061728
C66	C	1.451323	-0.430229	0.952007
C67	C	1.384134	-0.480622	1.116590
C68	C	1.316910	-0.531078	1.061727
C69	C	1.316888	-0.531105	0.951998
C70	C	1.384096	-0.480681	0.897144
C71	C	1.791421	-0.879002	0.506299
C72	C	1.908198	-0.878978	0.506327
C73	C	1.518348	-0.879100	0.232269
C74	C	1.518303	-0.879095	0.115493
C75	C	1.244420	-0.879227	0.506310
C76	C	1.127644	-0.879275	0.506313
C77	C	1.518484	-0.879171	0.779270
C78	C	1.518235	-0.879327	0.896047
C79	C	1.908241	-0.979950	0.640573
C80	C	1.963123	-1.030421	0.707708
C81	C	2.072845	-1.030395	0.707729
C82	C	2.127687	-0.979894	0.640606
C83	C	2.072804	-0.929424	0.573471
C84	C	1.963080	-0.929454	0.573459
C85	C	2.072761	-0.828457	0.439222
C86	C	1.963040	-0.828477	0.439204
C87	C	2.127603	-0.777956	0.372099
C88	C	2.072721	-0.727481	0.304967
C89	C	1.962993	-0.727508	0.304949
C90	C	1.908157	-0.778007	0.372069
C91	C	1.383977	-0.980048	0.115442
C92	C	1.316799	-1.030521	0.060557
C93	C	1.316761	-1.030513	-0.049165
C94	C	1.383907	-0.980024	-0.104003
C95	C	1.451086	-0.929550	-0.049117
C96	C	1.451118	-0.929566	0.060607
C97	C	1.585405	-0.828595	-0.049067
C98	C	1.585449	-0.828606	0.060654
C99	C	1.652551	-0.778105	-0.103906
C100	C	1.719736	-0.727635	-0.049020
C101	C	1.719772	-0.727646	0.060709
C102	C	1.652628	-0.778132	0.115540
H103	H	1.118576	-0.572572	0.762242
H104	H	1.918459	-1.071539	0.762356
H105	H	1.818900	-0.979968	0.640572
O106	O	1.383855	-0.980138	0.222025
C107	C	1.310213	-1.035538	0.258657
H108	H	1.248811	-1.046607	0.195424
H109	H	1.270361	-1.011769	0.332077
H110	H	1.351917	-1.093036	0.278093
H111	H	1.774906	-0.187416	0.907332
H112	H	1.383861	-0.980014	-0.193345
H113	H	2.217028	-0.979885	0.640621
O114	O	0.802689	-0.480950	0.640752
C115	C	0.766086	-0.460769	0.741481
H116	H	0.829344	-0.474298	0.801963
H117	H	0.692683	-0.496370	0.760099
H118	H	0.746631	-0.395324	0.743834
H119	H	1.652511	-0.778098	-0.193247
O120	O	1.251630	-1.079659	-0.102446
C121	C	1.274638	-1.158264	-0.075649
H122	H	1.358576	-1.162200	-0.045466
H123	H	1.265611	-1.197229	-0.147829
H124	H	1.218332	-1.178926	-0.011985
H125	H	1.262187	-0.572127	1.106403
O126	O	1.127186	-0.179340	0.239981
C127	C	1.235800	-0.190176	0.254328
H128	H	1.250824	-0.216088	0.335354
H129	H	1.277506	-0.131082	0.247312
H130	H	1.266896	-0.232118	0.191921
O131	O	2.126000	-1.079445	0.773043
C132	C	2.054075	-1.124039	0.832262
H133	H	1.975853	-1.091758	0.835930
H134	H	2.085798	-1.132491	0.915033
H135	H	2.042413	-1.183928	0.793710
H136	H	1.262132	-0.572180	0.907336
H137	H	1.384089	-0.480701	0.807803
O138	O	1.251427	-1.079482	0.113778
C139	C	1.146697	-1.062307	0.086950
H140	H	1.141344	-0.999291	0.056818
H141	H	1.094818	-1.069138	0.159101
H142	H	1.119241	-1.104603	0.023239
H143	H	2.216944	-0.777943	0.372116
O144	O	0.910767	-0.580564	0.772664
C145	C	0.847283	-0.631471	0.712755
H146	H	0.830817	-0.603578	0.633190
H147	H	0.770142	-0.642086	0.755535
H148	H	0.889552	-0.689913	0.701098
H149	H	1.774947	-0.187358	1.106403
O150	O	2.126155	-0.678456	0.239869
C151	C	2.234765	-0.689277	0.254257
H152	H	2.249769	-0.715157	0.335305
H153	H	2.276464	-0.630182	0.247214
H154	H	2.265888	-0.731240	0.191888
H155	H	0.819846	-0.278911	0.372196
O156	O	1.909846	-0.678406	0.239698
C157	C	1.981783	-0.633849	0.180444
H158	H	2.060004	-0.631125	0.223495
H159	H	1.950075	-0.571701	0.169307
H160	H	1.993440	-0.662688	0.100618
H161	H	1.818816	-0.778030	0.372065
O162	O	1.653188	-0.278908	1.223178
C163	C	1.753884	-0.299141	1.259863
H164	H	1.797294	-0.333552	1.196651
H165	H	1.746357	-0.336941	1.333277
H166	H	1.799427	-0.243294	1.279324
H167	H	1.774396	-0.686527	-0.093678
H168	H	1.774471	-0.686539	0.105390
H169	H	1.384155	-0.480592	1.205931
H170	H	1.652654	-0.778149	0.204882
H171	H	1.218059	-0.480937	0.640510
H172	H	0.919332	-0.187266	0.250459
H173	H	1.217974	-0.278895	0.372143
H174	H	1.652955	-0.278950	0.807808
