data_functionalizedCrystal
_audit_creation_method	'MofGen! by Chris Wilmer'
_symmetry_space_group_name_H-M	'P1'
_symmetry_Int_Tables_number	1
_symmetry_cell_setting	triclinic
loop_
_symmetry_equiv_pos_as_xyz
  x,y,z
_cell_length_a	13.635800
_cell_length_b	17.296766
_cell_length_c	11.102315
_cell_angle_alpha	82.266142
_cell_angle_beta	108.606275
_cell_angle_gamma	77.378987
loop_
_atom_site_label
_atom_site_type_symbol
_atom_site_fract_x
_atom_site_fract_y
_atom_site_fract_z
V1	V	2.044205	-0.111105	0.409043
O2	O	2.035841	0.005335	0.388101
O3	O	2.021228	-0.220298	0.418897
O4	O	2.032775	-0.109397	0.581668
O5	O	2.024214	-0.106333	0.224203
V6	V	2.284206	-0.097177	0.385397
O7	O	2.178697	-0.141656	0.460910
O8	O	2.374813	-0.066625	0.333530
O9	O	2.195580	0.012016	0.375543
O10	O	2.351268	-0.213616	0.406339
O11	O	2.362896	-0.101948	0.570237
O12	O	2.184032	-0.098884	0.212772
V13	V	2.544205	-0.111105	0.409043
O14	O	2.535841	0.005335	0.388101
O15	O	2.521228	-0.220298	0.418897
O16	O	2.532775	-0.109397	0.581668
O17	O	2.524214	-0.106333	0.224203
V18	V	2.784206	-0.097177	0.385397
O19	O	2.678697	-0.141656	0.460910
O20	O	2.874813	-0.066625	0.333530
O21	O	2.695580	0.012016	0.375543
O22	O	2.851268	-0.213616	0.406339
O23	O	2.862896	-0.101948	0.570237
O24	O	2.684032	-0.098884	0.212772
C25	C	1.943613	-0.246916	0.415709
C26	C	1.965555	-0.336183	0.424917
C27	C	1.946970	-0.366652	0.311538
C28	C	1.967597	-0.450528	0.320195
C29	C	2.006802	-0.503934	0.442231
C30	C	2.025390	-0.473460	0.555618
C31	C	2.004771	-0.389586	0.546961
C32	C	2.070512	-0.757755	0.474259
C33	C	2.091128	-0.841635	0.482907
C34	C	2.033335	-0.818697	0.247482
C35	C	2.012712	-0.734821	0.238836
C36	C	2.031307	-0.704355	0.352224
C37	C	2.027883	-0.589669	0.451082
C38	C	2.010233	-0.618622	0.343372
C39	C	1.958342	-0.105451	0.623338
C40	C	1.989647	-0.104778	0.764543
C41	C	2.104866	0.038631	0.378728
C42	C	2.072544	0.127897	0.369528
C43	C	2.090137	-0.102833	0.171096
C44	C	2.048451	-0.103502	0.029889
C45	C	2.443613	-0.246916	0.415709
C46	C	2.465555	-0.336183	0.424917
C47	C	2.458342	-0.105451	0.623338
C48	C	2.489647	-0.104778	0.764543
C49	C	2.172838	-0.112803	0.778436
C50	C	2.279138	-0.116501	0.851720
C51	C	2.308545	-0.115868	0.984394
C52	C	2.231642	-0.111533	1.043784
C53	C	2.125343	-0.107834	0.970500
C54	C	2.095946	-0.108471	0.837825
C55	C	1.942152	-0.099804	0.956605
C56	C	1.912744	-0.100443	0.823933
C57	C	1.865249	-0.095468	1.015996
C58	C	1.758950	-0.091776	0.942713
C59	C	1.729545	-0.092411	0.810032
C60	C	1.806445	-0.096744	0.750649
C61	C	2.604866	0.038631	0.378728
C62	C	2.572544	0.127897	0.369528
C63	C	2.590137	-0.102833	0.171096
C64	C	2.548451	-0.103502	0.029889
C65	C	2.567450	-0.382198	0.436063
C66	C	2.588086	-0.466076	0.444734
C67	C	2.506823	-0.503937	0.442251
C68	C	2.404920	-0.457916	0.431109
C69	C	2.384287	-0.374040	0.422447
C70	C	2.643142	0.173911	0.358386
C71	C	2.612779	0.257789	0.349721
C72	C	2.511819	0.295649	0.352207
C73	C	2.441215	0.249629	0.363346
C74	C	2.471576	0.165754	0.372002
C75	C	2.534503	-0.251854	0.817794
C76	C	2.571635	-0.325072	0.910755
C77	C	2.601048	-0.324435	1.043428
C78	C	2.593332	-0.250572	1.083140
C79	C	2.556200	-0.177353	0.990178
C80	C	2.526786	-0.177998	0.857505
C81	C	2.511351	-0.030280	0.936928
C82	C	2.481930	-0.030915	0.804255
C83	C	2.503635	0.043584	0.976640
C84	C	2.466496	0.116804	0.883678
C85	C	2.437080	0.116164	0.750998
C86	C	2.444799	0.042304	0.711293
H87	H	1.915038	-0.323173	0.212163
H88	H	2.460224	0.176938	0.916024
F89	F	1.947824	-0.482951	0.199521
F90	F	2.750598	0.133633	0.355739
H91	H	1.642981	-0.089380	0.750364
F92	F	2.653955	-0.341921	0.438715
F93	F	2.528797	-0.593206	0.451470
F94	F	2.624653	-0.249898	1.224345
F95	F	1.970986	-0.677988	0.108948
F96	F	2.318441	-0.498221	0.428464
F97	F	2.696543	-0.515040	0.456586
H98	H	2.487111	0.363946	0.345157
F99	F	2.687937	0.306752	0.337870
F100	F	1.677116	-0.087159	1.005927
F101	F	2.132917	-0.898475	0.612805
H102	H	2.059806	-0.633161	0.550444
F103	F	2.579850	-0.403680	0.868482
F104	F	2.333766	0.289935	0.365983
H105	H	2.019916	-0.364781	0.639287
H106	H	2.085643	-0.732960	0.566586
F107	F	2.275831	-0.325075	0.410575
F108	F	2.396427	0.116789	0.383864
F109	F	2.503183	-0.252537	0.676592
F110	F	1.968523	-0.561783	0.213498
H111	H	2.420843	0.041776	0.603267
H112	H	2.018200	-0.843512	0.155169
H113	H	2.148906	-0.113330	0.670411
F114	F	2.397575	0.194095	0.652070
F115	F	2.067123	-0.530301	0.685500
H116	H	2.631285	-0.384056	1.119119
H117	H	2.527595	0.044097	1.084672
F118	F	2.360977	-0.121120	0.788506
H119	H	2.255592	-0.111007	1.151811
F120	F	2.421677	-0.119796	1.062387
H121	H	1.889199	-0.094948	1.124024
F122	F	1.775161	-0.097425	0.609449
