data_functionalizedCrystal
_audit_creation_method	'MofGen! by Chris Wilmer'
_symmetry_space_group_name_H-M	'P1'
_symmetry_Int_Tables_number	1
_symmetry_cell_setting	triclinic
loop_
_symmetry_equiv_pos_as_xyz
  x,y,z
_cell_length_a	14.908571
_cell_length_b	14.909042
_cell_length_c	10.686551
_cell_angle_alpha	97.938673
_cell_angle_beta	97.927145
_cell_angle_gamma	83.236050
loop_
_atom_site_label
_atom_site_type_symbol
_atom_site_fract_x
_atom_site_fract_y
_atom_site_fract_z
Zn1	Zn	1.446071	-0.398888	0.797848
Zn2	Zn	1.443064	-0.561912	0.573453
Zn3	Zn	1.283055	-0.401825	0.573486
Zn4	Zn	1.302204	-0.542665	0.774602
O5	O	1.368599	-0.476323	0.679847
O6	O	1.572845	-0.427339	0.777797
O7	O	1.412567	-0.549959	0.395380
O8	O	1.297924	-0.274268	0.612991
O9	O	1.570636	-0.547112	0.612935
O10	O	1.417691	-0.272110	0.777829
O11	O	1.295009	-0.432345	0.395404
O12	O	1.158423	-0.413682	0.590450
O13	O	1.330560	-0.514309	0.955763
O14	O	1.172491	-0.517157	0.738208
O15	O	1.436258	-0.408677	0.972842
O16	O	1.431134	-0.686526	0.590393
O17	O	1.327645	-0.672386	0.738176
C18	C	1.381167	-0.712429	0.661788
C19	C	1.386630	-0.813439	0.654111
C20	C	1.132482	-0.463651	0.661811
C21	C	1.031474	-0.458250	0.654123
C22	C	1.289011	-0.988589	0.793422
C23	C	1.294141	-1.083496	0.786213
C24	C	1.402013	-1.098163	0.632478
C25	C	1.396884	-1.003255	0.639687
C26	C	1.340382	-0.948471	0.720163
C27	C	1.335258	-0.853562	0.727378
C28	C	1.443124	-0.868231	0.573637
C29	C	1.448254	-0.963138	0.566428
C30	C	0.856363	-0.556041	0.793305
C31	C	0.761457	-0.550969	0.786086
C32	C	0.746753	-0.443029	0.632473
C33	C	0.841659	-0.448101	0.639692
C34	C	0.896461	-0.504610	0.720110
C35	C	0.991369	-0.509686	0.727321
C36	C	0.976664	-0.401743	0.573716
C37	C	0.881757	-0.396671	0.566497
C38	C	1.605637	-0.489045	0.697955
C39	C	1.706649	-0.494466	0.705672
C40	C	1.385881	-0.459018	1.011767
C41	C	1.393245	-0.451645	1.153212
C42	C	1.356007	-0.239294	0.698007
C43	C	1.350641	-0.138286	0.705745
C44	C	1.351432	-0.493496	0.349228
C45	C	1.344230	-0.500624	0.207817
H46	H	1.289254	-0.808958	0.792909
C47	C	1.237639	-1.127627	0.866800
H48	H	1.248780	-1.191997	0.850977
H49	H	1.254495	-1.108287	0.954514
H50	H	1.174775	-1.109832	0.844606
H51	H	0.728813	-0.592847	0.845693
C52	C	1.457555	-0.387372	1.236231
H53	H	1.487322	-0.357639	1.183007
H54	H	1.423361	-0.343240	1.288459
H55	H	1.501673	-0.421596	1.288431
H56	H	1.243012	-0.943983	0.858958
H57	H	1.448005	-1.142784	0.566946
C58	C	0.686461	-0.380887	0.544011
H59	H	0.624196	-0.385242	0.550190
H60	H	0.699730	-0.319699	0.568600
H61	H	0.698252	-0.399403	0.458648
C62	C	1.051650	-0.571838	0.815780
H63	H	1.014173	-0.601734	0.858348
H64	H	1.088239	-0.615905	0.766812
H65	H	1.089719	-0.536210	0.876778
C66	C	1.510406	-1.023404	0.477920
H67	H	1.506110	-1.085674	0.484124
H68	H	1.491877	-1.011636	0.392566
H69	H	1.571587	-1.010090	0.502487
C70	C	0.916648	-0.618199	0.881753
H71	H	0.879173	-0.648102	0.924316
H72	H	0.953235	-0.662259	0.832775
H73	H	0.954717	-0.582575	0.942755
C74	C	1.279940	-0.564909	1.124804
H75	H	1.250186	-0.594657	1.178025
H76	H	1.235824	-0.530707	1.072584
H77	H	1.314158	-0.609042	1.072595
H78	H	0.837125	-0.350661	0.501027
C79	C	1.499610	-0.824101	0.493015
H80	H	1.488454	-0.759731	0.508818
H81	H	1.562474	-0.841890	0.515171
H82	H	1.482727	-0.843447	0.405303
C83	C	1.020773	-0.345164	0.493201
H84	H	1.085145	-0.356272	0.509021
H85	H	1.001453	-0.361996	0.405476
H86	H	1.002943	-0.282312	0.515456
