data_functionalizedCrystal
_audit_creation_method	'MofGen! by Chris Wilmer'
_symmetry_space_group_name_H-M	'P1'
_symmetry_Int_Tables_number	1
_symmetry_cell_setting	triclinic
loop_
_symmetry_equiv_pos_as_xyz
  x,y,z
_cell_length_a	21.295417
_cell_length_b	11.169417
_cell_length_c	11.169409
_cell_angle_alpha	90.019824
_cell_angle_beta	89.958601
_cell_angle_gamma	89.968614
loop_
_atom_site_label
_atom_site_type_symbol
_atom_site_fract_x
_atom_site_fract_y
_atom_site_fract_z
Zn1	Zn	-0.250543	-1.834794	-0.678467
Zn2	Zn	0.249457	-1.334794	-0.178467
Zn3	Zn	-0.355832	-1.834613	-0.477752
Zn4	Zn	0.144168	-1.334613	0.022248
Zn5	Zn	-0.250582	-1.634080	-0.477802
Zn6	Zn	0.249418	-1.134080	0.022198
Zn7	Zn	-0.355780	-1.634017	-0.678397
Zn8	Zn	0.144220	-1.134017	-0.178397
O9	O	-0.303184	-1.734376	-0.578105
O10	O	0.196816	-1.234376	-0.078105
O11	O	-0.264516	-2.002720	-0.651851
O12	O	0.235484	-1.502720	-0.151851
O13	O	-0.341908	-1.807962	-0.309809
O14	O	0.158092	-1.307962	0.190191
O15	O	-0.162487	-1.660807	-0.504470
O16	O	0.337513	-1.160807	-0.004470
O17	O	-0.341870	-2.002587	-0.504386
O18	O	0.158130	-1.502587	-0.004386
O19	O	-0.162459	-1.808271	-0.651898
O20	O	0.337541	-1.308271	-0.151898
O21	O	-0.264581	-1.660632	-0.309845
O22	O	0.235419	-1.160632	0.190155
O23	O	-0.264531	-1.466122	-0.504402
O24	O	0.235469	-0.966122	-0.004402
O25	O	-0.341783	-1.660700	-0.846356
O26	O	0.158217	-1.160700	-0.346356
O27	O	-0.341820	-1.466076	-0.651779
O28	O	0.158180	-0.966076	-0.151779
O29	O	-0.264466	-1.808210	-0.846408
O30	O	0.235534	-1.308210	-0.346408
O31	O	-0.443914	-1.807901	-0.504318
O32	O	0.056086	-1.307901	-0.004318
O33	O	-0.443877	-1.660524	-0.651731
O34	O	0.056123	-1.160524	-0.151731
C35	C	-0.303175	-1.422551	-0.578089
C36	C	0.196825	-0.922551	-0.078089
C37	C	-0.303186	-1.289151	-0.578111
C38	C	0.196814	-0.789151	-0.078111
C39	C	-0.466736	-1.734219	-0.578038
C40	C	0.033264	-1.234219	-0.078038
C41	C	-0.536704	-1.734261	-0.578050
C42	C	-0.036704	-1.234261	-0.078050
C43	C	-0.303114	-1.734468	-0.891147
C44	C	0.196886	-1.234468	-0.391147
C45	C	-0.303085	-1.734507	-1.024547
C46	C	0.196915	-1.234507	-0.524547
C47	C	-0.569569	-1.811069	-0.501371
C48	C	-0.069569	-1.311069	-0.001371
C49	C	-0.635312	-1.811125	-0.501398
C50	C	-0.135312	-1.311125	-0.001398
C51	C	-0.668187	-1.734352	-0.578091
C52	C	-0.168187	-1.234352	-0.078091
C53	C	-0.635313	-1.657539	-0.654785
C54	C	-0.135313	-1.157539	-0.154785
C55	C	-0.569572	-1.657494	-0.654765
C56	C	-0.069572	-1.157494	-0.154765
N57	N	-0.771452	-1.629362	-0.587235
N58	N	-0.271452	-1.129362	-0.087235
N59	N	-0.833904	-1.629409	-0.587248
N60	N	-0.333904	-1.129409	-0.087248
C61	C	-0.866261	-1.734487	-0.578160
C62	C	-0.366261	-1.234487	-0.078160
N63	N	-0.833808	-1.839518	-0.569035
N64	N	-0.333808	-1.339518	-0.069035
N65	N	-0.771351	-1.839470	-0.569016
N66	N	-0.271351	-1.339470	-0.069016
C67	C	-0.739472	-1.734394	-0.578123
C68	C	-0.239472	-1.234394	-0.078123
C69	C	-0.970412	-1.811362	-0.501506
C70	C	-0.470412	-1.311362	-0.001506
C71	C	-1.036156	-1.811420	-0.501541
C72	C	-0.536156	-1.311420	-0.001541
C73	C	-1.036156	-1.657824	-0.654923
C74	C	-0.536156	-1.157824	-0.154923
C75	C	-0.970413	-1.657776	-0.654894
C76	C	-0.470413	-1.157776	-0.154894
C77	C	-0.937546	-1.734543	-0.578179
C78	C	-0.437546	-1.234543	-0.078179
C79	C	-0.138994	-1.734567	-0.578198
C80	C	0.361006	-1.234567	-0.078198
C81	C	-0.069026	-1.734648	-0.578237
C82	C	0.430974	-1.234648	-0.078237
C83	C	-0.303194	-2.047418	-0.578121
C84	C	0.196806	-1.547418	-0.078121
C85	C	-0.303199	-2.180818	-0.578128
C86	C	0.196801	-1.680818	-0.078128
C87	C	-0.303209	-1.734353	-0.266280
C88	C	0.196791	-1.234353	0.233720
C89	C	-0.303061	-1.734547	-0.132880
C90	C	0.196939	-1.234547	0.367120
H91	H	-0.662076	-1.873675	-0.438956
H92	H	-0.162076	-1.373675	0.061044
O93	O	-0.670765	-1.574718	-0.737495
O94	O	-0.170765	-1.074718	-0.237495
H95	H	-0.722001	-1.587640	-0.724615
H96	H	-0.222001	-1.087640	-0.224615
O97	O	-0.534118	-1.893869	-0.418637
O98	O	-0.034118	-1.393869	0.081363
H99	H	-0.504110	-1.954878	-0.472397
H100	H	-0.004110	-1.454878	0.027603
H101	H	-0.542813	-1.594947	-0.717208
H102	H	-0.042813	-1.094947	-0.217208
H103	H	-0.943650	-1.873874	-0.439044
H104	H	-0.443650	-1.373874	0.060956
H105	H	-0.943653	-1.595227	-0.717328
H106	H	-0.443653	-1.095227	-0.217328
H107	H	-1.062914	-1.873973	-0.439102
H108	H	-0.562914	-1.373973	0.060898
H109	H	-1.062922	-1.595319	-0.717374
H110	H	-0.562922	-1.095319	-0.217374
