data_functionalizedCrystal
_audit_creation_method	'MofGen! by Chris Wilmer'
_symmetry_space_group_name_H-M	'P1'
_symmetry_Int_Tables_number	1
_symmetry_cell_setting	triclinic
loop_
_symmetry_equiv_pos_as_xyz
  x,y,z
_cell_length_a	19.288840
_cell_length_b	14.750779
_cell_length_c	19.288865
_cell_angle_alpha	77.397155
_cell_angle_beta	96.868869
_cell_angle_gamma	77.410996
loop_
_atom_site_label
_atom_site_type_symbol
_atom_site_fract_x
_atom_site_fract_y
_atom_site_fract_z
O1	O	0.906202	0.079997	-0.101716
O2	O	1.406202	0.579997	0.398284
O3	O	0.703945	0.079965	-0.113417
O4	O	1.203945	0.579965	0.386583
O5	O	0.810921	0.079963	-0.006432
O6	O	1.310921	0.579963	0.493568
O7	O	0.799225	0.079999	-0.208700
O8	O	1.299225	0.579999	0.291300
O9	O	0.841162	-0.079688	0.023808
O10	O	1.341162	0.420312	0.523808
O11	O	0.734186	-0.079686	-0.083177
O12	O	1.234186	0.420314	0.416823
O13	O	0.936443	-0.079654	-0.071476
O14	O	1.436443	0.420346	0.428524
Zn15	Zn	0.840116	-0.105018	-0.072525
Zn16	Zn	1.340116	0.394982	0.427475
Zn17	Zn	0.800272	0.105329	-0.112367
Zn18	Zn	1.300272	0.605329	0.387633
O19	O	0.829466	-0.079652	-0.178460
O20	O	1.329466	0.420348	0.321540
C21	C	0.693189	0.000135	-0.097922
C22	C	1.193189	0.500135	0.402078
C23	C	0.616087	0.000122	-0.096797
C24	C	1.116087	0.500122	0.403203
C25	C	0.563399	0.087150	-0.112743
C26	C	1.063399	0.587150	0.387257
C27	C	0.490950	0.087162	-0.111683
C28	C	0.990950	0.587162	0.388317
C29	C	0.471195	0.000140	-0.094663
C30	C	0.971195	0.500140	0.405337
C31	C	0.523893	-0.086899	-0.078719
C32	C	1.023893	0.413101	0.421281
C33	C	0.596340	-0.086908	-0.079787
C34	C	1.096340	0.413092	0.420213
C35	C	0.374495	-0.066525	-0.039658
C36	C	0.874495	0.433475	0.460342
C37	C	0.302049	-0.066512	-0.038587
C38	C	0.802049	0.433488	0.461413
C39	C	0.247746	0.000165	-0.091373
C40	C	0.747746	0.500165	0.408627
C41	C	0.265895	0.066845	-0.145225
C42	C	0.765895	0.566845	0.354775
C43	C	0.338342	0.066836	-0.146292
C44	C	0.838342	0.566836	0.353708
C45	C	0.392641	0.000140	-0.093504
C46	C	0.892641	0.500140	0.406496
C47	C	0.116499	0.087211	-0.106172
C48	C	0.616499	0.587211	0.393828
C49	C	0.044049	0.087219	-0.105115
C50	C	0.544049	0.587219	0.394885
C51	C	0.076995	-0.086844	-0.072144
C52	C	0.576995	0.413156	0.427856
C53	C	0.149443	-0.086850	-0.073208
C54	C	0.649443	0.413150	0.426792
C55	C	0.169190	0.000181	-0.090219
C56	C	0.669190	0.500181	0.409781
N57	N	0.867313	-0.248574	-0.045333
N58	N	1.367313	0.251426	0.454667
C59	C	0.697122	-0.600389	-0.215466
C60	C	1.197122	-0.100389	0.284534
C61	C	0.716185	-0.700889	-0.196416
C62	C	1.216185	-0.200889	0.303584
C63	C	0.810932	-0.700853	-0.101716
C64	C	1.310932	-0.200853	0.398284
C65	C	0.791874	-0.600352	-0.120756
C66	C	1.291874	-0.100352	0.379244
C67	C	0.734969	-0.550128	-0.177632
C68	C	1.234969	-0.050128	0.322368
C69	C	0.829722	-0.550090	-0.082921
C70	C	1.329722	-0.050090	0.417079
C71	C	0.810668	-0.449597	-0.101962
C72	C	1.310668	0.050403	0.398038
C73	C	0.753767	-0.399366	-0.158837
C74	C	1.253767	0.100634	0.341163
C75	C	0.715915	-0.449635	-0.196672
C76	C	1.215915	0.050365	0.303328
C77	C	0.886630	-0.600316	-0.026049
C78	C	1.386630	-0.100316	0.473951
C79	C	0.924478	-0.550055	0.011786
C80	C	1.424478	-0.050055	0.511786
C81	C	0.905421	-0.449560	-0.007251
C82	C	1.405421	0.050440	0.492749
C83	C	0.848519	-0.399329	-0.064127
C84	C	1.348519	0.100671	0.435873
C85	C	0.943272	-0.399291	0.030584
C86	C	1.443272	0.100709	0.530584
C87	C	0.924218	-0.298799	0.011543
C88	C	1.424218	0.201201	0.511543
C89	C	0.829465	-0.298836	-0.083167
C90	C	1.329465	0.201164	0.416833
C91	C	0.947198	0.000178	-0.086971
C92	C	1.447198	0.500178	0.413029
C93	C	1.024299	0.000197	-0.088096
C94	C	1.524299	0.500197	0.411904
C95	C	0.825666	0.000134	0.034565
C96	C	1.325666	0.500134	0.534565
C97	C	0.824539	0.000126	0.111670
C98	C	1.324539	0.500126	0.611670
N99	N	0.773080	0.248885	-0.139554
N100	N	1.273080	0.748885	0.360446
C101	C	0.814721	0.000178	-0.219458
C102	C	1.314721	0.500178	0.280542
C103	C	0.815847	0.000193	-0.296564
C104	C	1.315847	0.500193	0.203436
C105	C	0.887306	0.000131	0.156371
C106	C	1.387306	0.500131	0.656371
C107	C	0.886243	0.000146	0.228815
C108	C	1.386243	0.500146	0.728815
C109	C	0.822412	0.000136	0.256559
C110	C	1.322412	0.500136	0.756559
C111	C	0.759635	0.000137	0.211847
C112	C	1.259635	0.500137	0.711847
C113	C	0.760698	0.000131	0.139403
C114	C	1.260698	0.500131	0.639403
C115	C	0.782826	-0.055794	0.375436
C116	C	1.282826	0.444206	0.875436
C117	C	0.781766	-0.055794	0.447880
C118	C	1.281766	0.444206	0.947880
C119	C	0.819128	0.000157	0.480000
C120	C	1.319128	0.500157	0.980000
C121	C	0.857564	0.056097	0.439671
C122	C	1.357564	0.556097	0.939671
C123	C	0.858628	0.056092	0.367227
C124	C	1.358628	0.556092	0.867227
C125	C	0.821251	0.000143	0.335112
C126	C	1.321251	0.500143	0.835112
C127	C	0.880747	0.000180	0.603254
C128	C	1.380747	0.500180	1.103254
C129	C	0.879679	0.000201	0.675698
C130	C	1.379679	0.500201	1.175698
C131	C	0.753071	0.000182	0.658730
C132	C	1.253071	0.500182	1.158730
C133	C	0.754139	0.000171	0.586286
C134	C	1.254139	0.500171	1.086286
C135	C	0.817979	0.000165	0.558553
C136	C	1.317979	0.500165	1.058553
H137	H	0.001148	0.158091	-0.118105
H138	H	0.501148	0.658091	0.381895
H139	H	0.701098	0.000179	0.681317
H140	H	1.201098	0.500179	1.181317
H141	H	0.418705	-0.120825	0.003330
H142	H	0.918705	0.379175	0.503330
H143	H	0.448043	0.158033	-0.124669
H144	H	0.948043	0.658033	0.375331
H145	H	0.930793	0.000211	0.712092
H146	H	1.430793	0.500211	1.212092
Br147	Br	0.668949	0.000163	0.525616
Br148	Br	1.168949	0.500163	1.025616
Br149	Br	0.973941	0.000150	0.118732
Br150	Br	1.473941	0.500150	0.618732
Br151	Br	1.020507	-0.467462	0.107761
Br152	Br	1.520507	0.032538	0.607761
Br153	Br	0.975588	-0.230584	0.062887
Br154	Br	1.475588	0.269416	0.562887
Br155	Br	0.732116	-0.131736	0.331852
Br156	Br	1.232116	0.368264	0.831852
Br157	Br	0.277427	-0.157024	0.034482
Br158	Br	0.777427	0.342976	0.534482
Br159	Br	0.497084	-0.205001	-0.055628
Br160	Br	0.997084	0.294999	0.444372
Br161	Br	0.967387	0.000163	0.565614
Br162	Br	1.467387	0.500163	1.065614
H163	H	0.192344	-0.157718	-0.060219
H164	H	0.692344	0.342282	0.439781
Br165	Br	1.001707	-0.618222	0.088969
Br166	Br	1.501707	-0.118222	0.588969
H167	H	0.738256	-0.317538	-0.174341
H168	H	1.238256	0.182462	0.325659
H169	H	0.937357	0.000154	0.265217
H170	H	1.437357	0.500154	0.765217
Br171	Br	0.619882	-0.532222	-0.292647
Br172	Br	1.119882	-0.032222	0.207353
Br173	Br	0.664815	-0.769094	-0.247776
Br174	Br	1.164815	-0.269094	0.252224
H175	H	0.353115	0.121127	-0.190141
H176	H	0.853115	0.621127	0.309859
Br177	Br	0.910783	0.132011	0.312494
Br178	Br	1.410783	0.632011	0.812494
H179	H	0.902144	-0.682144	-0.010550
H180	H	1.402144	-0.182144	0.489450
H181	H	0.639240	-0.157779	-0.066802
H182	H	1.139240	0.342221	0.433198
H183	H	0.887987	0.101659	0.465821
H184	H	1.387987	0.601659	0.965821
Br185	Br	0.752226	-0.230669	-0.160349
Br186	Br	1.252226	0.269331	0.339651
H187	H	0.707663	0.000131	0.234440
H188	H	1.207663	0.500131	0.734440
Br189	Br	0.729610	-0.131718	0.502607
Br190	Br	1.229610	0.368282	1.002607
Br191	Br	0.675506	0.000127	0.078732
Br192	Br	1.175506	0.500127	0.578732
Br193	Br	0.050192	-0.204947	-0.049056
Br194	Br	0.550192	0.295053	0.450944
Br195	Br	0.590196	0.205262	-0.135830
Br196	Br	1.090196	0.705262	0.364170
Br197	Br	0.888161	-0.769020	-0.024532
Br198	Br	1.388161	-0.269020	0.475468
Br199	Br	0.192206	0.157340	-0.216870
Br200	Br	0.692206	0.657340	0.283130
Br201	Br	0.638676	-0.381468	-0.273854
Br202	Br	1.138676	0.118532	0.226146
Br203	Br	0.143304	0.205321	-0.129262
Br204	Br	0.643304	0.705321	0.370738
