data_functionalizedCrystal
_audit_creation_method	'MofGen! by Chris Wilmer'
_symmetry_space_group_name_H-M	'P1'
_symmetry_Int_Tables_number	1
_symmetry_cell_setting	triclinic
loop_
_symmetry_equiv_pos_as_xyz
  x,y,z
_cell_length_a	17.077404
_cell_length_b	12.594516
_cell_length_c	17.077396
_cell_angle_alpha	90.024821
_cell_angle_beta	90.018362
_cell_angle_gamma	90.009786
loop_
_atom_site_label
_atom_site_type_symbol
_atom_site_fract_x
_atom_site_fract_y
_atom_site_fract_z
Zn1	Zn	1.200115	-0.423800	0.443839
Zn2	Zn	1.700115	0.076200	0.943839
Zn3	Zn	1.200047	-0.601800	0.312581
Zn4	Zn	1.700047	-0.101800	0.812581
Zn5	Zn	1.068847	-0.423830	0.312589
Zn6	Zn	1.568847	0.076170	0.812589
Zn7	Zn	1.068840	-0.601730	0.443807
Zn8	Zn	1.568840	-0.101730	0.943807
O9	O	1.134462	-0.512790	0.378204
O10	O	1.634462	-0.012790	0.878204
O11	O	1.309953	-0.447429	0.426437
O12	O	1.809953	0.052571	0.926437
O13	O	1.182618	-0.578234	0.202735
O14	O	1.682618	-0.078234	0.702735
O15	O	1.086291	-0.274880	0.330016
O16	O	1.586291	0.225120	0.830016
O17	O	1.309903	-0.578205	0.330003
O18	O	1.809903	-0.078205	0.830003
O19	O	1.182733	-0.274858	0.426445
O20	O	1.682733	0.225142	0.926445
O21	O	1.086225	-0.447480	0.202741
O22	O	1.586225	0.052520	0.702741
O23	O	0.958999	-0.447412	0.329986
O24	O	1.458999	0.052588	0.829986
O25	O	1.086280	-0.578085	0.553659
O26	O	1.586280	-0.078085	1.053659
O27	O	0.958994	-0.578115	0.426391
O28	O	1.458994	-0.078115	0.926391
O29	O	1.182727	-0.447361	0.553682
O30	O	1.682727	0.052639	1.053682
O31	O	1.182611	-0.750737	0.329972
O32	O	1.682611	-0.250737	0.829972
O33	O	1.086214	-0.750685	0.426383
O34	O	1.586214	-0.250685	0.926383
C35	C	0.930514	-0.512760	0.378187
C36	C	1.430514	-0.012760	0.878187
C37	C	0.843265	-0.512773	0.378198
C38	C	1.343265	-0.012773	0.878198
C39	C	0.802301	-0.444799	0.428488
C40	C	1.302301	0.055201	0.928488
C41	C	0.720321	-0.444805	0.428491
C42	C	1.220321	0.055195	0.928491
C43	C	0.679305	-0.512793	0.378208
C44	C	1.179305	-0.012793	0.878208
C45	C	0.720275	-0.580770	0.327913
C46	C	1.220275	-0.080770	0.827913
C47	C	0.802254	-0.580757	0.327906
C48	C	1.302254	-0.080757	0.827906
C49	C	0.549405	-0.580794	0.327932
C50	C	1.049405	-0.080794	0.827932
C51	C	0.467420	-0.580809	0.327940
C52	C	0.967420	-0.080809	0.827940
C53	C	0.467472	-0.444843	0.428518
C54	C	0.967472	0.055157	0.928518
C55	C	0.549451	-0.444830	0.428511
C56	C	1.049451	0.055170	0.928511
C57	C	0.590414	-0.512808	0.378216
C58	C	1.090414	-0.012808	0.878216
C59	C	1.134426	-0.789331	0.378191
C60	C	1.634426	-0.289331	0.878191
C61	C	1.134482	-0.907637	0.378211
C62	C	1.634482	-0.407637	0.878211
C63	C	1.186974	-0.976879	0.325829
C64	C	1.686974	-0.476879	0.825829
C65	C	1.206155	-1.047582	0.397476
C66	C	1.706155	-0.547582	0.897476
C67	C	1.115399	-1.047733	0.306610
C68	C	1.615399	-0.547733	0.806610
C69	C	1.153700	-0.976781	0.449895
C70	C	1.653700	-0.476781	0.949895
C71	C	1.062911	-0.976926	0.358981
C72	C	1.562911	-0.476926	0.858981
C73	C	1.082065	-1.047597	0.430677
C74	C	1.582065	-0.547597	0.930677
C75	C	1.339207	-0.512821	0.378222
C76	C	1.839207	-0.012821	0.878222
C77	C	1.426456	-0.512834	0.378230
C78	C	1.926456	-0.012834	0.878230
C79	C	1.134510	-0.512712	0.582949
C80	C	1.634510	-0.012712	1.082949
C81	C	1.134530	-0.512678	0.670198
C82	C	1.634530	-0.012678	1.170198
C83	C	1.134520	-0.235169	0.378235
C84	C	1.634520	0.264831	0.878235
C85	C	1.134545	-0.116864	0.378248
C86	C	1.634545	0.383136	0.878248
C87	C	1.134460	-0.512791	0.174256
C88	C	1.634460	-0.012791	0.674256
C89	C	1.134592	-0.512525	0.087007
C90	C	1.634592	-0.012525	0.587007
C91	C	1.184752	-0.444604	0.711202
C92	C	1.684752	0.055396	1.211202
C93	C	1.184761	-0.444569	0.793182
C94	C	1.684761	0.055431	1.293182
C95	C	1.134552	-0.512614	0.834158
C96	C	1.634552	-0.012614	1.334158
C97	C	1.084325	-0.580691	0.793149
C98	C	1.584325	-0.080691	1.293149
C99	C	1.084312	-0.580720	0.711170
C100	C	1.584312	-0.080720	1.211170
C101	C	1.084357	-0.580627	0.964019
C102	C	1.584357	-0.080627	1.464019
C103	C	1.084370	-0.580599	1.046004
C104	C	1.584370	-0.080599	1.546004
C105	C	1.184806	-0.444476	1.046032
C106	C	1.684806	0.055524	1.546032
C107	C	1.184793	-0.444505	0.964053
C108	C	1.684793	0.055495	1.464053
C109	C	1.134566	-0.512584	0.923049
C110	C	1.634566	-0.012584	1.423049
H111	H	0.434115	-0.389490	0.469468
H112	H	0.934115	0.110510	0.969468
H113	H	1.225701	-0.389042	1.079420
H114	H	1.725701	0.110958	1.579420
H115	H	1.037702	-1.078452	0.475043
H116	H	1.537702	-0.578452	0.975043
N117	N	1.236029	-0.375094	0.669338
N118	N	1.736029	0.124906	1.169338
N119	N	1.236011	-0.375124	0.596143
N120	N	1.736011	0.124876	1.096143
H121	H	1.272224	-0.326028	0.566577
H122	H	1.772224	0.173972	1.066577
H123	H	1.043445	-0.636047	0.930636
H124	H	1.543445	-0.136047	1.430636
H125	H	1.002376	-0.945864	0.342674
H126	H	1.502376	-0.445864	0.842674
H127	H	0.582843	-0.389475	0.469460
H128	H	1.082843	0.110525	0.969460
H129	H	0.686873	-0.636121	0.286968
H130	H	1.186873	-0.136121	0.786968
N131	N	1.033018	-0.650176	0.834997
N132	N	1.533018	-0.150176	1.334997
N133	N	0.960586	-0.643084	0.825829
N134	N	1.460586	-0.143084	1.325829
H135	H	0.924346	-0.692154	0.855386
H136	H	1.424346	-0.192154	1.355386
N137	N	0.425534	-0.650259	0.276571
N138	N	0.925534	-0.150259	0.776571
N139	N	0.462115	-0.710940	0.231664
N140	N	0.962115	-0.210940	0.731664
H141	H	0.432534	-0.759990	0.195383
H142	H	0.932534	-0.259990	0.695383
H143	H	1.231371	-0.945827	0.281571
H144	H	1.731371	-0.445827	0.781571
H145	H	1.169806	-0.945748	0.510515
H146	H	1.669806	-0.445748	1.010515
N147	N	1.236078	-0.375015	0.922181
N148	N	1.736078	0.124985	1.422181
N149	N	1.286078	-0.412494	0.876436
N150	N	1.786078	0.087506	1.376436
H151	H	1.322298	-0.363415	0.846862
H152	H	1.822298	0.136585	1.346862
H153	H	1.266707	-1.078620	0.413761
H154	H	1.766707	-0.578620	0.913761
N155	N	0.591237	-0.650229	0.276546
N156	N	1.091237	-0.150229	0.776546
N157	N	0.554609	-0.710927	0.231653
N158	N	1.054609	-0.210927	0.731653
H159	H	0.584153	-0.759966	0.195362
H160	H	1.084153	-0.259966	0.695362
H161	H	1.043484	-0.636005	1.079364
H162	H	1.543484	-0.136005	1.579364
N163	N	0.678490	-0.375335	0.479845
N164	N	1.178490	0.124665	0.979845
N165	N	0.715120	-0.314624	0.524726
N166	N	1.215120	0.185376	1.024726
H167	H	0.685578	-0.265546	0.560990
H168	H	1.185578	0.234454	1.060990
H169	H	0.835690	-0.389438	0.469436
H170	H	1.335690	0.110562	0.969436
H171	H	1.225659	-0.389139	0.826564
H172	H	1.725659	0.110861	1.326564
H173	H	1.099233	-1.078898	0.246042
H174	H	1.599233	-0.578898	0.746042
N175	N	0.844101	-0.650175	0.276525
N176	N	1.344101	-0.150175	0.776525
N177	N	0.834915	-0.642983	0.204102
N178	N	1.334915	-0.142983	0.704102
H179	H	0.864470	-0.692007	0.167809
H180	H	1.364470	-0.192007	0.667809
N181	N	1.033002	-0.650256	0.669295
N182	N	1.533002	-0.150256	1.169295
N183	N	0.988173	-0.711003	0.705887
N184	N	1.488173	-0.211003	1.205887
H185	H	0.951930	-0.760112	0.676315
H186	H	1.451930	-0.260112	1.176315
