data_functionalizedCrystal
_audit_creation_method	'MofGen! by Chris Wilmer'
_symmetry_space_group_name_H-M	'P1'
_symmetry_Int_Tables_number	1
_symmetry_cell_setting	triclinic
loop_
_symmetry_equiv_pos_as_xyz
  x,y,z
_cell_length_a	12.827893
_cell_length_b	12.827892
_cell_length_c	12.827885
_cell_angle_alpha	89.970214
_cell_angle_beta	89.980538
_cell_angle_gamma	90.015362
loop_
_atom_site_label
_atom_site_type_symbol
_atom_site_fract_x
_atom_site_fract_y
_atom_site_fract_z
Zn1	Zn	1.597672	-0.415983	-0.590849
Zn2	Zn	2.097672	0.084017	-0.090849
Zn3	Zn	1.597565	-0.590761	-0.416109
Zn4	Zn	2.097565	-0.090761	0.083891
Zn5	Zn	1.422912	-0.416034	-0.416122
Zn6	Zn	1.922912	0.083966	0.083878
Zn7	Zn	1.422898	-0.590683	-0.590809
Zn8	Zn	1.922898	-0.090683	-0.090809
O9	O	1.510262	-0.503365	-0.503472
O10	O	2.010262	-0.003365	-0.003472
O11	O	1.743893	-0.439179	-0.567680
O12	O	2.243893	0.060821	-0.067680
O13	O	1.574358	-0.567637	-0.269875
O14	O	2.074358	-0.067637	0.230125
O15	O	1.446145	-0.269791	-0.439322
O16	O	1.946145	0.230209	0.060678
O17	O	1.743815	-0.567587	-0.439300
O18	O	2.243815	-0.067587	0.060700
O19	O	1.574540	-0.269754	-0.567693
O20	O	2.074540	0.230246	-0.067693
O21	O	1.446042	-0.439266	-0.269884
O22	O	1.946042	0.060734	0.230116
O23	O	1.276674	-0.439190	-0.439284
O24	O	1.776674	0.060810	0.060716
O25	O	1.446121	-0.567455	-0.737050
O26	O	1.946121	-0.067455	-0.237050
O27	O	1.276664	-0.567504	-0.567625
O28	O	1.776664	-0.067504	-0.067625
O29	O	1.574526	-0.439104	-0.737080
O30	O	2.074526	0.060896	-0.237080
O31	O	1.574345	-0.736986	-0.439261
O32	O	2.074345	-0.236986	0.060739
O33	O	1.446018	-0.736929	-0.567612
O34	O	1.946018	-0.236929	-0.067612
C35	C	1.238752	-0.503345	-0.503452
C36	C	1.738752	-0.003345	-0.003452
C37	C	1.122599	-0.503362	-0.503469
C38	C	1.622599	-0.003362	-0.003469
C39	C	1.070837	-0.566954	-0.566878
C40	C	1.570837	-0.066954	-0.066878
C41	C	0.950786	-0.566973	-0.566896
C42	C	1.450786	-0.066973	-0.066896
C43	C	1.510196	-0.774875	-0.503454
C44	C	2.010196	-0.274875	-0.003454
C45	C	1.510264	-0.891028	-0.503481
C46	C	2.010264	-0.391028	-0.003481
C47	C	1.573840	-0.942807	-0.440039
C48	C	2.073840	-0.442807	0.059961
C49	C	1.573911	-1.062857	-0.440066
C50	C	2.073911	-0.562857	0.059934
C51	C	1.782832	-0.503386	-0.503493
C52	C	2.282832	-0.003386	-0.003493
C53	C	1.898985	-0.503395	-0.503502
C54	C	2.398985	-0.003395	-0.003502
C55	C	1.510334	-0.503265	-0.776043
C56	C	2.010334	-0.003265	-0.276043
C57	C	1.510365	-0.503222	-0.892196
C58	C	2.010365	-0.003222	-0.392196
C59	C	1.510356	-0.230795	-0.503514
C60	C	2.010356	0.269205	-0.003514
C61	C	1.510396	-0.114642	-0.503531
C62	C	2.010396	0.385358	-0.003531
C63	C	1.446890	-0.439688	-0.943985
C64	C	1.946890	0.060312	-0.443985
C65	C	1.446920	-0.439642	-1.064036
C66	C	1.946920	0.060358	-0.564036
C67	C	1.510250	-0.503390	-0.231962
C68	C	2.010250	-0.003390	0.268038
C69	C	1.510422	-0.503138	-0.115810
C70	C	2.010422	-0.003138	0.384190
H71	H	1.115398	-0.621381	-0.621155
H72	H	1.615398	-0.121381	-0.121155
C73	C	1.436799	-0.951205	-0.576886
C74	C	1.936799	-0.451205	-0.076886
N75	N	1.381462	-0.996528	-0.632175
N76	N	1.881462	-0.496528	-0.132175
C77	C	1.062404	-0.429825	-0.430145
C78	C	1.562404	0.070175	0.069855
N79	N	1.017066	-0.374436	-0.374915
N80	N	1.517066	0.125564	0.125085
H81	H	1.564729	-0.557583	-0.936734
H82	H	2.064729	-0.057583	-0.436734
C83	C	1.373450	-0.366238	-0.883822
C84	C	1.873450	0.133762	-0.383822
N85	N	1.318138	-0.310908	-0.838508
N86	N	1.818138	0.189092	-0.338508
C87	C	1.647302	-0.882630	-0.366632
C88	C	2.147302	-0.382630	0.133368
N89	N	1.702634	-0.837307	-0.311338
N90	N	2.202634	-0.337307	0.188662
C91	C	1.373503	-0.366154	-1.124201
C92	C	1.873503	0.133846	-0.624201
N93	N	1.318201	-0.310802	-1.169521
N94	N	1.818201	0.189198	-0.669521
C95	C	1.647443	-1.123009	-0.366683
C96	C	2.147443	-0.623009	0.133317
N97	N	1.702831	-1.168319	-0.311410
N98	N	2.202831	-0.668319	0.188590
C99	C	1.583843	-0.576628	-1.055651
C100	C	2.083843	-0.076628	-0.555651
N101	N	1.639142	-0.631982	-1.010332
N102	N	2.139142	-0.131982	-0.510332
H103	H	0.943493	-0.448952	-0.449208
H104	H	1.443493	0.051048	0.050792
C105	C	0.890652	-0.640528	-0.640239
C106	C	1.390652	-0.140528	-0.140239
N107	N	0.845357	-0.695930	-0.695484
N108	N	1.345357	-0.195930	-0.195484
H109	H	1.455959	-1.070121	-0.557845
H110	H	1.955959	-0.570121	-0.057845
