data_functionalizedCrystal
_audit_creation_method	'MofGen! by Chris Wilmer'
_symmetry_space_group_name_H-M	'P1'
_symmetry_Int_Tables_number	1
_symmetry_cell_setting	triclinic
loop_
_symmetry_equiv_pos_as_xyz
  x,y,z
_cell_length_a	11.792241
_cell_length_b	17.699083
_cell_length_c	16.776229
_cell_angle_alpha	90.008282
_cell_angle_beta	90.003025
_cell_angle_gamma	96.261785
loop_
_atom_site_label
_atom_site_type_symbol
_atom_site_fract_x
_atom_site_fract_y
_atom_site_fract_z
O1	O	1.505659	-0.103739	-0.066213
O2	O	2.005659	0.396261	0.433787
O3	O	1.175190	-0.114431	-0.066231
O4	O	1.675190	0.385569	0.433769
O5	O	1.349761	0.001054	-0.066214
O6	O	1.849761	0.501054	0.433786
O7	O	1.331088	-0.219224	-0.066229
O8	O	1.831088	0.280776	0.433771
O9	O	1.349758	0.001065	0.066362
O10	O	1.849758	0.501065	0.566362
O11	O	1.175187	-0.114420	0.066345
O12	O	1.675187	0.385580	0.566345
O13	O	1.505656	-0.103729	0.066364
O14	O	2.005656	0.396271	0.566364
Zn15	Zn	1.340421	-0.109073	0.087404
Zn16	Zn	1.840421	0.390927	0.587404
Zn17	Zn	1.340425	-0.109087	-0.087271
Zn18	Zn	1.840425	0.390913	0.412729
O19	O	1.331085	-0.219214	0.066347
O20	O	1.831085	0.280786	0.566347
C21	C	1.132906	-0.113754	0.000055
C22	C	1.632906	0.386246	0.500055
C23	C	1.006916	-0.111744	0.000048
C24	C	1.506916	0.388256	0.500048
N25	N	1.340429	-0.109090	-0.206483
N26	N	1.840429	0.390910	0.293517
C27	C	1.349091	0.029260	0.000074
C28	C	1.849091	0.529260	0.500074
C29	C	1.347083	0.113289	0.000074
C30	C	1.847083	0.613289	0.500074
C31	C	0.776248	-0.108048	0.000071
C32	C	1.276248	0.391952	0.500071
C33	C	0.904609	-0.110101	0.000058
C34	C	1.404609	0.389899	0.500058
C35	C	1.547941	-0.104406	0.000076
C36	C	2.047941	0.395594	0.500076
C37	C	1.673930	-0.106416	0.000078
C38	C	2.173930	0.393584	0.500078
C39	C	1.331756	-0.247420	0.000057
C40	C	1.831756	0.252580	0.500057
C41	C	1.333763	-0.331449	0.000051
C42	C	1.833763	0.168551	0.500051
C43	C	1.449553	0.161364	0.000081
C44	C	1.949553	0.661364	0.500081
C45	C	1.447660	0.240317	0.000074
C46	C	1.947660	0.740317	0.500074
C47	C	1.343297	0.271194	0.000066
C48	C	1.843297	0.771194	0.500066
C49	C	1.240819	0.223113	0.000056
C50	C	1.740819	0.723113	0.500056
C51	C	1.242713	0.144161	0.000058
C52	C	1.742713	0.644161	0.500058
C53	C	1.233178	0.541517	0.000049
C54	C	1.733178	1.041517	0.500049
C55	C	1.231292	0.620475	0.000050
C56	C	1.731292	1.120475	0.500050
C57	C	1.438126	0.637673	0.000066
C58	C	1.938126	1.137673	0.500066
C59	C	1.440020	0.558721	0.000067
C60	C	1.940020	1.058721	0.500067
C61	C	1.337543	0.510647	0.000054
C62	C	1.837543	1.010647	0.500054
C63	C	1.339596	0.425037	0.000060
C64	C	1.839596	0.925037	0.500060
C65	C	1.341242	0.356803	0.000065
C66	C	1.841242	0.856803	0.500065
C67	C	1.417872	-0.058056	-0.248192
C68	C	1.917872	0.441944	0.251808
C69	C	1.417876	-0.058054	-0.331644
C70	C	1.917876	0.441946	0.168356
C71	C	1.340431	-0.109084	-0.373385
C72	C	1.840431	0.390916	0.126615
C73	C	1.262984	-0.160124	-0.331670
C74	C	1.762984	0.339876	0.168330
C75	C	1.262986	-0.160129	-0.248219
C76	C	1.762986	0.339871	0.251781
C77	C	1.262975	-0.160106	-0.668217
C78	C	1.762975	0.339894	-0.168217
C79	C	1.262977	-0.160095	-0.751674
C80	C	1.762977	0.339905	-0.251674
C81	C	1.417866	-0.058030	-0.751642
C82	C	1.917866	0.441970	-0.251642
C83	C	1.417868	-0.058035	-0.668192
C84	C	1.917868	0.441965	-0.168192
C85	C	1.340425	-0.109078	-0.626483
C86	C	1.840425	0.390922	-0.126483
C87	C	1.340423	-0.109080	-0.535995
C88	C	1.840423	0.390920	-0.035995
C89	C	1.340427	-0.109078	-0.463872
C90	C	1.840427	0.390922	0.036128
N91	N	1.340427	-0.109063	0.206615
N92	N	1.840427	0.390937	0.706615
H93	H	1.534538	0.136230	0.000093
H94	H	2.034538	0.636230	0.500093
H95	H	1.480927	-0.016480	-0.634209
H96	H	1.980927	0.483520	-0.134209
Br97	Br	1.522975	0.011209	-0.191552
Br98	Br	2.022975	0.511209	0.308448
Br99	Br	1.522971	0.011243	-0.808250
Br100	Br	2.022971	0.511243	-0.308250
Br101	Br	1.522983	0.011206	-0.388253
Br102	Br	2.022983	0.511206	0.111747
Br103	Br	1.157885	-0.229386	-0.388315
Br104	Br	1.657885	0.270614	0.111685
H105	H	1.149735	0.502384	0.000039
H106	H	1.649735	1.002384	0.500039
H107	H	1.199925	-0.201687	-0.214260
H108	H	1.699925	0.298313	0.285740
Br109	Br	1.157876	-0.229374	-0.611618
Br110	Br	1.657876	0.270626	-0.111618
Br111	Br	1.157865	-0.229354	-0.808323
Br112	Br	1.657865	0.270646	-0.308323
Br113	Br	1.577205	0.702920	0.000084
Br114	Br	2.077205	1.202920	0.500084
Br115	Br	1.586732	0.305559	0.000083
Br116	Br	2.086732	0.805559	0.500083
H117	H	1.159272	0.105019	0.000052
H118	H	1.659272	0.605019	0.500052
H119	H	1.525003	0.533586	0.000078
H120	H	2.025003	1.033586	0.500078
H121	H	1.146302	0.645611	0.000045
H122	H	1.646302	1.145611	0.500045
H123	H	1.155844	0.248259	0.000044
H124	H	1.655844	0.748259	0.500044
