data_functionalizedCrystal
_audit_creation_method	'MofGen! by Chris Wilmer'
_symmetry_space_group_name_H-M	'P1'
_symmetry_Int_Tables_number	1
_symmetry_cell_setting	triclinic
loop_
_symmetry_equiv_pos_as_xyz
  x,y,z
_cell_length_a	18.050591
_cell_length_b	18.050590
_cell_length_c	18.050582
_cell_angle_alpha	90.023337
_cell_angle_beta	90.010544
_cell_angle_gamma	90.017393
loop_
_atom_site_label
_atom_site_type_symbol
_atom_site_fract_x
_atom_site_fract_y
_atom_site_fract_z
Zn1	Zn	1.135342	-0.295730	0.419822
Zn2	Zn	1.635342	0.204270	0.919822
Zn3	Zn	1.135274	-0.419913	0.295630
Zn4	Zn	1.635274	0.080087	0.795630
Zn5	Zn	1.011162	-0.295739	0.295655
Zn6	Zn	1.511162	0.204261	0.795655
Zn7	Zn	1.011131	-0.419880	0.419788
Zn8	Zn	1.511131	0.080120	0.919788
O9	O	1.073227	-0.357815	0.357724
O10	O	1.573227	0.142185	0.857724
O11	O	1.239258	-0.312213	0.403351
O12	O	1.739258	0.187787	0.903351
O13	O	1.118795	-0.403459	0.191709
O14	O	1.618795	0.096541	0.691709
O15	O	1.027676	-0.191813	0.312151
O16	O	1.527676	0.308187	0.812151
O17	O	1.239208	-0.403450	0.312108
O18	O	1.739208	0.096550	0.812108
O19	O	1.118911	-0.191806	0.403376
O20	O	1.618911	0.308194	0.903376
O21	O	1.027610	-0.312228	0.191727
O22	O	1.527610	0.187772	0.691727
O23	O	0.907233	-0.312196	0.312118
O24	O	1.407233	0.187804	0.812118
O25	O	1.027623	-0.403393	0.523717
O26	O	1.527623	0.096607	1.023717
O27	O	0.907210	-0.403402	0.403318
O28	O	1.407210	0.096598	0.903318
O29	O	1.118881	-0.312181	0.523742
O30	O	1.618881	0.187819	1.023742
O31	O	1.118764	-0.523833	0.312075
O32	O	1.618764	-0.023833	0.812075
O33	O	1.027557	-0.523809	0.403294
O34	O	1.527557	-0.023809	0.903294
C35	C	0.880275	-0.357797	0.357718
C36	C	1.380275	0.142203	0.857718
C37	C	0.797729	-0.357807	0.357733
C38	C	1.297729	0.142193	0.857733
C39	C	1.073170	-0.550767	0.357694
C40	C	1.573170	-0.050767	0.857694
C41	C	1.073214	-0.633313	0.357706
C42	C	1.573214	-0.133313	0.857706
C43	C	0.548913	-0.407508	0.407260
C44	C	1.048913	0.092492	0.907260
C45	C	0.598286	-0.425579	0.339473
C46	C	1.098286	0.074421	0.839473
C47	C	0.500609	-0.357831	0.357731
C48	C	1.000609	0.142169	0.857731
C49	C	0.598317	-0.339783	0.425514
C50	C	1.098317	0.160217	0.925514
C51	C	0.646594	-0.357821	0.357736
C52	C	1.146594	0.142179	0.857736
C53	C	0.548895	-0.375937	0.289909
C54	C	1.048895	0.124063	0.789909
C55	C	0.548922	-0.290110	0.375996
C56	C	1.048922	0.209890	0.875996
C57	C	0.598273	-0.308155	0.308163
C58	C	1.098273	0.191845	0.808163
C59	C	0.416511	-0.357838	0.357730
C60	C	0.916511	0.142162	0.857730
C61	C	0.730690	-0.357813	0.357730
C62	C	1.230690	0.142187	0.857730
C63	C	1.122915	-0.832750	0.308171
C64	C	1.622915	-0.332750	0.808171
C65	C	1.141051	-0.882089	0.375950
C66	C	1.641051	-0.382089	0.875950
C67	C	1.073256	-0.784444	0.357736
C68	C	1.573256	-0.284444	0.857736
C69	C	1.055196	-0.882186	0.289988
C70	C	1.555196	-0.382186	0.789988
C71	C	1.073298	-0.930429	0.357759
C72	C	1.573298	-0.430429	0.857759
C73	C	1.091426	-0.832695	0.425550
C74	C	1.591426	-0.332695	0.925550
C75	C	1.005539	-0.832788	0.339543
C76	C	1.505539	-0.332788	0.839543
C77	C	1.023649	-0.882105	0.407368
C78	C	1.523649	-0.382105	0.907368
C79	C	1.073233	-0.700345	0.357722
C80	C	1.573233	-0.200345	0.857722
C81	C	1.073320	-1.014525	0.357780
C82	C	1.573320	-0.514525	0.857780
C83	C	1.266933	-0.357834	0.357730
C84	C	1.766933	0.142166	0.857730
C85	C	1.349478	-0.357842	0.357733
C86	C	1.849478	0.142158	0.857733
C87	C	1.073256	-0.357782	0.551430
C88	C	1.573256	0.142218	1.051430
C89	C	1.073269	-0.357768	0.633975
C90	C	1.573269	0.142232	1.133975
C91	C	1.073305	-0.164110	0.357770
C92	C	1.573305	0.335890	0.857770
C93	C	1.073338	-0.081564	0.357789
C94	C	1.573338	0.418436	0.857789
C95	C	1.073241	-0.357794	0.164772
C96	C	1.573241	0.142206	0.664772
C97	C	1.073372	-0.357599	0.082226
C98	C	1.573372	0.142401	0.582226
C99	C	1.023680	-0.407302	0.833413
C100	C	1.523680	0.092698	1.333413
C101	C	1.091439	-0.425457	0.882799
C102	C	1.591439	0.074543	1.382799
C103	C	1.073305	-0.357712	0.785106
C104	C	1.573305	0.142288	1.285106
C105	C	1.005584	-0.339536	0.882802
C106	C	1.505584	0.160464	1.382802
C107	C	1.073335	-0.357658	0.931091
C108	C	1.573335	0.142342	1.431091
C109	C	1.141099	-0.375902	0.833405
C110	C	1.641099	0.124098	1.333405
C111	C	1.055199	-0.289950	0.833403
C112	C	1.555199	0.210050	1.333403
C113	C	1.123004	-0.308079	0.882767
C114	C	1.623004	0.191921	1.382767
C115	C	1.073287	-0.357744	0.701008
C116	C	1.573287	0.142256	1.201008
C117	C	1.073360	-0.357626	1.015188
C118	C	1.573360	0.142374	1.515188
H119	H	0.527240	-0.449554	0.449090
H120	H	1.027240	0.050446	0.949090
H121	H	1.198335	-0.903747	0.391353
H122	H	1.698335	-0.403747	0.891353
F123	F	1.035207	-0.910601	0.215089
F124	F	1.535207	-0.410601	0.715089
H125	H	0.619809	-0.266140	0.266232
H126	H	1.119809	0.233860	0.766232
H127	H	0.981672	-0.903639	0.449342
H128	H	1.481672	-0.403639	0.949342
H129	H	0.981754	-0.449294	0.811743
H130	H	1.481754	0.050706	1.311743
F131	F	1.111510	-0.804404	0.500470
F132	F	1.611510	-0.304404	1.000470
H133	H	0.948301	-0.324186	0.904500
H134	H	1.448301	0.175814	1.404500
F135	F	0.626631	-0.500428	0.319277
F136	F	1.126631	-0.000428	0.819277
H137	H	1.106771	-0.482739	0.904496
H138	H	1.606771	0.017261	1.404496
H139	H	0.948271	-0.811114	0.324120
H140	H	1.448271	-0.311114	0.824120
H141	H	1.198399	-0.391318	0.811797
H142	H	1.698399	0.108682	1.311797
F143	F	1.177934	-0.253235	0.910917
F144	F	1.677934	0.246765	1.410917
F145	F	0.626694	-0.319836	0.500436
F146	F	1.126694	0.180164	1.000436
H147	H	0.527277	-0.391267	0.232572
H148	H	1.027277	0.108733	0.732572
F149	F	0.520556	-0.215280	0.396218
F150	F	1.020556	0.284720	0.896218
F151	F	1.177823	-0.804422	0.253440
F152	F	1.677823	-0.304422	0.753440
H153	H	1.039846	-0.232684	0.811690
H154	H	1.539846	0.267316	1.311690
