data_functionalizedCrystal
_audit_creation_method	'MofGen! by Chris Wilmer'
_symmetry_space_group_name_H-M	'P1'
_symmetry_Int_Tables_number	1
_symmetry_cell_setting	triclinic
loop_
_symmetry_equiv_pos_as_xyz
  x,y,z
_cell_length_a	18.050590
_cell_length_b	21.295417
_cell_length_c	18.050582
_cell_angle_alpha	89.974292
_cell_angle_beta	90.000767
_cell_angle_gamma	90.018869
loop_
_atom_site_label
_atom_site_type_symbol
_atom_site_fract_x
_atom_site_fract_y
_atom_site_fract_z
Zn1	Zn	1.135285	-0.250831	-0.419585
Zn2	Zn	1.385285	-0.000831	-0.169585
Zn3	Zn	1.635285	0.249169	0.080415
Zn4	Zn	1.885285	0.499169	0.330415
Zn5	Zn	1.135192	-0.356092	-0.295389
Zn6	Zn	1.385192	-0.106092	-0.045389
Zn7	Zn	1.635192	0.143908	0.204611
Zn8	Zn	1.885192	0.393908	0.454611
Zn9	Zn	1.011104	-0.250821	-0.295444
Zn10	Zn	1.261104	-0.000821	-0.045444
Zn11	Zn	1.511104	0.249179	0.204556
Zn12	Zn	1.761104	0.499179	0.454556
Zn13	Zn	1.011049	-0.356047	-0.419571
Zn14	Zn	1.261049	-0.106047	-0.169571
Zn15	Zn	1.511049	0.143953	0.080429
Zn16	Zn	1.761049	0.393953	0.330429
O17	O	1.073157	-0.303448	-0.357497
O18	O	1.323157	-0.053448	-0.107497
O19	O	1.573157	0.196552	0.142503
O20	O	1.823157	0.446552	0.392503
O21	O	1.239197	-0.264818	-0.403093
O22	O	1.489197	-0.014818	-0.153093
O23	O	1.739197	0.235182	0.096907
O24	O	1.989197	0.485182	0.346907
O25	O	1.118716	-0.342143	-0.191471
O26	O	1.368716	-0.092143	0.058529
O27	O	1.618716	0.157857	0.308529
O28	O	1.868716	0.407857	0.558529
O29	O	1.027639	-0.162733	-0.311940
O30	O	1.277639	0.087267	-0.061940
O31	O	1.527639	0.337267	0.188060
O32	O	1.777639	0.587267	0.438060
O33	O	1.239129	-0.342153	-0.311847
O34	O	1.489129	-0.092153	-0.061847
O35	O	1.739129	0.157847	0.188153
O36	O	1.989129	0.407847	0.438153
O37	O	1.118874	-0.162741	-0.403147
O38	O	1.368874	0.087259	-0.153147
O39	O	1.618874	0.337259	0.096853
O40	O	1.868874	0.587259	0.346853
O41	O	1.027549	-0.264801	-0.191512
O42	O	1.277549	-0.014801	0.058488
O43	O	1.527549	0.235199	0.308488
O44	O	1.777549	0.485199	0.558488
O45	O	0.907172	-0.264756	-0.311926
O46	O	1.157172	-0.014756	-0.061926
O47	O	1.407172	0.235244	0.188074
O48	O	1.657172	0.485244	0.438074
O49	O	1.027545	-0.342075	-0.523498
O50	O	1.277545	-0.092075	-0.273498
O51	O	1.527545	0.157925	-0.023498
O52	O	1.777545	0.407925	0.226502
O53	O	0.907132	-0.342065	-0.403122
O54	O	1.157132	-0.092065	-0.153122
O55	O	1.407132	0.157935	0.096878
O56	O	1.657132	0.407935	0.346878
O57	O	1.118820	-0.264773	-0.523508
O58	O	1.368820	-0.014773	-0.273508
O59	O	1.618820	0.235227	-0.023508
O60	O	1.868820	0.485227	0.226492
O61	O	1.118663	-0.444176	-0.311833
O62	O	1.368663	-0.194176	-0.061833
O63	O	1.618663	0.055824	0.188167
O64	O	1.868663	0.305824	0.438167
O65	O	1.027455	-0.444142	-0.403069
O66	O	1.277455	-0.194142	-0.153069
O67	O	1.527455	0.055858	0.096931
O68	O	1.777455	0.305858	0.346931
C69	C	0.880205	-0.303405	-0.357529
C70	C	1.130205	-0.053405	-0.107529
C71	C	1.380205	0.196595	0.142471
C72	C	1.630205	0.446595	0.392471
C73	C	0.797660	-0.303402	-0.357560
C74	C	1.047660	-0.053402	-0.107560
C75	C	1.297660	0.196598	0.142440
C76	C	1.547660	0.446598	0.392440
C77	C	0.598208	-0.345562	-0.407035
C78	C	0.848208	-0.095562	-0.157035
C79	C	1.098208	0.154438	0.092965
C80	C	1.348208	0.404438	0.342965
C81	C	0.548817	-0.288165	-0.425314
C82	C	0.798817	-0.038165	-0.175314
C83	C	1.048817	0.211835	0.074686
C84	C	1.298817	0.461835	0.324686
C85	C	0.646529	-0.303437	-0.357524
C86	C	0.896529	-0.053437	-0.107524
C87	C	1.146529	0.196563	0.142476
C88	C	1.396529	0.446563	0.392476
C89	C	0.548839	-0.360867	-0.339245
C90	C	0.798839	-0.110867	-0.089245
C91	C	1.048839	0.139133	0.160755
C92	C	1.298839	0.389133	0.410755
C93	C	0.500544	-0.303476	-0.357491
C94	C	0.750544	-0.053476	-0.107491
C95	C	1.000544	0.196524	0.142509
C96	C	1.250544	0.446524	0.392509
C97	C	0.598225	-0.246009	-0.375838
C98	C	0.848225	0.003991	-0.125838
C99	C	1.098225	0.253991	0.124162
C100	C	1.348225	0.503991	0.374162
C101	C	0.598251	-0.318749	-0.289738
C102	C	0.848251	-0.068749	-0.039738
C103	C	1.098251	0.181251	0.210262
C104	C	1.348251	0.431251	0.460262
C105	C	0.548882	-0.261313	-0.307991
C106	C	0.798882	-0.011313	-0.057991
C107	C	1.048882	0.238687	0.192009
C108	C	1.298882	0.488687	0.442009
C109	C	0.730627	-0.303415	-0.357545
C110	C	0.980627	-0.053415	-0.107545
C111	C	1.230627	0.196585	0.142455
C112	C	1.480627	0.446585	0.392455
C113	C	0.416448	-0.303491	-0.357469
C114	C	0.666448	-0.053491	-0.107469
C115	C	0.916448	0.196509	0.142531
C116	C	1.166448	0.446509	0.392531
C117	C	1.073063	-0.467000	-0.357460
C118	C	1.323063	-0.217000	-0.107460
C119	C	1.573063	0.033000	0.142540
C120	C	1.823063	0.283000	0.392540
C121	C	1.073090	-0.536968	-0.357468
C122	C	1.323090	-0.286968	-0.107468
C123	C	1.573090	-0.036968	0.142532
C124	C	1.823090	0.213032	0.392532
C125	C	1.120569	-0.569781	-0.404994
C126	C	1.370569	-0.319781	-0.154994
C127	C	1.620569	-0.069781	0.095006
C128	C	1.870569	0.180219	0.345006
C129	C	1.120595	-0.635523	-0.405012
C130	C	1.370595	-0.385523	-0.155012
C131	C	1.620595	-0.135523	0.094988
C132	C	1.870595	0.114477	0.344988
C133	C	1.073150	-0.668450	-0.357492
C134	C	1.323150	-0.418450	-0.107492
C135	C	1.573150	-0.168450	0.142508
C136	C	1.823150	0.081550	0.392508
C137	C	1.025662	-0.635629	-0.309963
C138	C	1.275662	-0.385629	-0.059963
C139	C	1.525662	-0.135629	0.190037
C140	C	1.775662	0.114371	0.440037
C141	C	1.025632	-0.569888	-0.309952
C142	C	1.275632	-0.319888	-0.059952
C143	C	1.525632	-0.069888	0.190048
C144	C	1.775632	0.180112	0.440048
N145	N	1.067546	-0.771706	-0.292499
N146	N	1.317546	-0.521706	-0.042499
N147	N	1.567546	-0.271706	0.207501
N148	N	1.817546	-0.021706	0.457501
N149	N	1.067579	-0.834158	-0.292512
N150	N	1.317579	-0.584158	-0.042512
N151	N	1.567579	-0.334158	0.207488
N152	N	1.817579	-0.084158	0.457488
C153	C	1.073237	-0.866525	-0.357525
C154	C	1.323237	-0.616525	-0.107525
C155	C	1.573237	-0.366525	0.142475
C156	C	1.823237	-0.116525	0.392475
N157	N	1.078875	-0.834081	-0.422526
N158	N	1.328875	-0.584081	-0.172526
N159	N	1.578875	-0.334081	0.077474
N160	N	1.828875	-0.084081	0.327474
N161	N	1.078846	-0.771624	-0.422512
N162	N	1.328846	-0.521624	-0.172512
N163	N	1.578846	-0.271624	0.077488
N164	N	1.828846	-0.021624	0.327488
C165	C	1.073178	-0.739735	-0.357499
C166	C	1.323178	-0.489735	-0.107499
C167	C	1.573178	-0.239735	0.142501
C168	C	1.823178	0.010265	0.392501
C169	C	1.120747	-0.970624	-0.405074
C170	C	1.370747	-0.720624	-0.155074
C171	C	1.620747	-0.470624	0.094926
C172	C	1.870747	-0.220624	0.344926
C173	C	1.120768	-1.036367	-0.405094
C174	C	1.370768	-0.786367	-0.155094
C175	C	1.620768	-0.536367	0.094906
C176	C	1.870768	-0.286367	0.344906
C177	C	1.025839	-1.036472	-0.310039
C178	C	1.275839	-0.786472	-0.060039
C179	C	1.525839	-0.536472	0.189961
C180	C	1.775839	-0.286472	0.439961
C181	C	1.025814	-0.970729	-0.310026
C182	C	1.275814	-0.720729	-0.060026
C183	C	1.525814	-0.470729	0.189974
C184	C	1.775814	-0.220729	0.439974
C185	C	1.073272	-0.937809	-0.357542
C186	C	1.323272	-0.687809	-0.107542
C187	C	1.573272	-0.437809	0.142458
C188	C	1.823272	-0.187809	0.392458
C189	C	1.266863	-0.303492	-0.357465
C190	C	1.516863	-0.053492	-0.107465
C191	C	1.766863	0.196508	0.142535
C192	C	2.016863	0.446508	0.392535
C193	C	1.349409	-0.303510	-0.357452
C194	C	1.599409	-0.053510	-0.107452
C195	C	1.849409	0.196490	0.142548
C196	C	2.099409	0.446490	0.392548
C197	C	1.073187	-0.303420	-0.551203
C198	C	1.323187	-0.053420	-0.301203
C199	C	1.573187	0.196580	-0.051203
C200	C	1.823187	0.446580	0.198797
C201	C	1.073199	-0.303408	-0.633749
C202	C	1.323199	-0.053408	-0.383749
C203	C	1.573199	0.196592	-0.133749
C204	C	1.823199	0.446592	0.116251
C205	C	1.073273	-0.139258	-0.357551
C206	C	1.323273	0.110742	-0.107551
C207	C	1.573273	0.360742	0.142449
C208	C	1.823273	0.610742	0.392449
C209	C	1.073322	-0.069290	-0.357574
C210	C	1.323322	0.180710	-0.107574
C211	C	1.573322	0.430710	0.142426
C212	C	1.823322	0.680710	0.392426
C213	C	1.023601	-0.345387	-0.833194
C214	C	1.273601	-0.095387	-0.583194
C215	C	1.523601	0.154613	-0.333194
C216	C	1.773601	0.404613	-0.083194
C217	C	1.091356	-0.360785	-0.882566
C218	C	1.341356	-0.110785	-0.632566
C219	C	1.591356	0.139215	-0.382566
C220	C	1.841356	0.389215	-0.132566
C221	C	1.073236	-0.303360	-0.784879
C222	C	1.323236	-0.053360	-0.534879
C223	C	1.573236	0.196640	-0.284879
C224	C	1.823236	0.446640	-0.034879
C225	C	1.005518	-0.287944	-0.882589
C226	C	1.255518	-0.037944	-0.632589
C227	C	1.505518	0.212056	-0.382589
C228	C	1.755518	0.462056	-0.132589
C229	C	1.073265	-0.303315	-0.930864
C230	C	1.323265	-0.053315	-0.680864
C231	C	1.573265	0.196685	-0.430864
C232	C	1.823265	0.446685	-0.180864
C233	C	1.141026	-0.318788	-0.833164
C234	C	1.391026	-0.068788	-0.583164
C235	C	1.641026	0.181212	-0.333164
C236	C	1.891026	0.431212	-0.083164
C237	C	1.055142	-0.245921	-0.833183
C238	C	1.305142	0.004079	-0.583183
C239	C	1.555142	0.254079	-0.333183
C240	C	1.805142	0.504079	-0.083183
C241	C	1.122944	-0.261297	-0.882532
C242	C	1.372944	-0.011297	-0.632532
C243	C	1.622944	0.238703	-0.382532
C244	C	1.872944	0.488703	-0.132532
C245	C	1.073218	-0.303388	-0.700781
C246	C	1.323218	-0.053388	-0.450781
C247	C	1.573218	0.196612	-0.200781
C248	C	1.823218	0.446612	0.049219
C249	C	1.073291	-0.303287	-1.014961
C250	C	1.323291	-0.053287	-0.764961
C251	C	1.573291	0.196713	-0.514961
C252	C	1.823291	0.446713	-0.264961
C253	C	1.073171	-0.303430	-0.164545
C254	C	1.323171	-0.053430	0.085455
C255	C	1.573171	0.196570	0.335455
C256	C	1.823171	0.446570	0.585455
C257	C	1.073303	-0.303265	-0.082000
C258	C	1.323303	-0.053265	0.168000
C259	C	1.573303	0.196735	0.418000
C260	C	1.823303	0.446735	0.668000
H261	H	0.527360	-0.225664	-0.266107
H262	H	0.777360	0.024336	-0.016107
H263	H	1.027360	0.274336	0.233893
H264	H	1.277360	0.524336	0.483893
Br265	Br	1.185151	-0.925943	-0.469561
Br266	Br	1.435151	-0.675943	-0.219561
Br267	Br	1.685151	-0.425943	0.030439
Br268	Br	1.935151	-0.175943	0.280439
H269	H	0.527103	-0.275226	-0.482625
H270	H	0.777103	-0.025226	-0.232625
H271	H	1.027103	0.224774	0.017375
H272	H	1.277103	0.474774	0.267375
H273	H	0.619869	-0.381124	-0.448952
H274	H	0.869869	-0.131124	-0.198952
H275	H	1.119869	0.118876	0.051048
H276	H	1.369869	0.368876	0.301048
H277	H	0.527142	-0.409418	-0.323800
H278	H	0.777142	-0.159418	-0.073800
H279	H	1.027142	0.090582	0.176200
H280	H	1.277142	0.340582	0.426200
H281	H	0.987155	-0.944011	-0.271323
H282	H	1.237155	-0.694011	-0.021323
H283	H	1.487155	-0.444011	0.228677
H284	H	1.737155	-0.194011	0.478677
H285	H	0.986968	-0.543170	-0.271250
H286	H	1.236968	-0.293170	-0.021250
H287	H	1.486968	-0.043170	0.228750
H288	H	1.736968	0.206830	0.478750
H289	H	0.981666	-0.380974	-0.811530
H290	H	1.231666	-0.130974	-0.561530
H291	H	1.481666	0.119026	-0.311530
H292	H	1.731666	0.369026	-0.061530
H293	H	0.619828	-0.197444	-0.391350
H294	H	0.869828	0.052556	-0.141350
H295	H	1.119828	0.302556	0.108650
H296	H	1.369828	0.552556	0.358650
Br297	Br	1.116896	-0.441714	-0.918720
Br298	Br	1.366896	-0.191714	-0.668720
Br299	Br	1.616896	0.058286	-0.418720
Br300	Br	1.866896	0.308286	-0.168720
Br301	Br	1.029574	-0.165012	-0.796999
Br302	Br	1.279574	0.084988	-0.546999
Br303	Br	1.529574	0.334988	-0.296999
Br304	Br	1.779574	0.584988	-0.046999
Br305	Br	1.236524	-0.340587	-0.797137
Br306	Br	1.486524	-0.090587	-0.547137
Br307	Br	1.736524	0.159413	-0.297137
Br308	Br	1.986524	0.409413	-0.047137
H309	H	1.159210	-0.542979	-0.443686
H310	H	1.409210	-0.292979	-0.193686
H311	H	1.659210	-0.042979	0.056314
H312	H	1.909210	0.207021	0.306314
H313	H	0.948238	-0.274925	-0.904300
H314	H	1.198238	-0.024925	-0.654300
H315	H	1.448238	0.225075	-0.404300
H316	H	1.698238	0.475075	-0.154300
Br317	Br	0.634442	-0.340330	-0.194225
Br318	Br	0.884442	-0.090330	0.055775
Br319	Br	1.134442	0.159670	0.305775
Br320	Br	1.384442	0.409670	0.555775
Br321	Br	1.185039	-0.680066	-0.469511
Br322	Br	1.435039	-0.430066	-0.219511
Br323	Br	1.685039	-0.180066	0.030489
Br324	Br	1.935039	0.069934	0.280489
Br325	Br	1.193001	-0.202027	-0.918418
Br326	Br	1.443001	0.047973	-0.668418
Br327	Br	1.693001	0.297973	-0.418418
Br328	Br	1.943001	0.547973	-0.168418
H329	H	0.987031	-0.662442	-0.271274
H330	H	1.237031	-0.412442	-0.021274
H331	H	1.487031	-0.162442	0.228726
H332	H	1.737031	0.087558	0.478726
Br333	Br	0.961444	-1.081150	-0.245550
Br334	Br	1.211444	-0.831150	0.004450
Br335	Br	1.461444	-0.581150	0.254450
Br336	Br	1.711444	-0.331150	0.504450
Br337	Br	1.185198	-1.080901	-0.469610
Br338	Br	1.435198	-0.830901	-0.219610
Br339	Br	1.685198	-0.580901	0.030390
Br340	Br	1.935198	-0.330901	0.280390
