data_functionalizedCrystal
_audit_creation_method	'MofGen! by Chris Wilmer'
_symmetry_space_group_name_H-M	'P1'
_symmetry_Int_Tables_number	1
_symmetry_cell_setting	triclinic
loop_
_symmetry_equiv_pos_as_xyz
  x,y,z
_cell_length_a	16.120490
_cell_length_b	16.120297
_cell_length_c	16.120484
_cell_angle_alpha	84.385569
_cell_angle_beta	89.835900
_cell_angle_gamma	90.129683
loop_
_atom_site_label
_atom_site_type_symbol
_atom_site_fract_x
_atom_site_fract_y
_atom_site_fract_z
Zn1	Zn	1.224990	-0.554787	0.422331
Zn2	Zn	1.558323	-0.221453	0.755664
Zn3	Zn	1.891657	0.111880	1.088997
Zn4	Zn	1.224886	-0.422092	0.555015
Zn5	Zn	1.558219	-0.088758	0.888348
Zn6	Zn	1.891552	0.244575	1.221681
Zn7	Zn	1.093729	-0.408032	0.408239
Zn8	Zn	1.427062	-0.074699	0.741573
Zn9	Zn	1.760396	0.258634	1.074906
Zn10	Zn	1.078882	-0.554027	0.554239
Zn11	Zn	1.412216	-0.220694	0.887573
Zn12	Zn	1.745549	0.112639	1.220906
O13	O	1.155622	-0.484735	0.484956
O14	O	1.488955	-0.151401	0.818289
O15	O	1.822288	0.181932	1.151623
O16	O	1.341012	-0.543386	0.446153
O17	O	1.674346	-0.210053	0.779487
O18	O	2.007679	0.123280	1.112820
O19	O	1.213657	-0.303594	0.529972
O20	O	1.546990	0.029739	0.863305
O21	O	1.880324	0.363073	1.196639
O22	O	1.117398	-0.421933	0.293478
O23	O	1.450731	-0.088600	0.626812
O24	O	1.784065	0.244733	0.960145
O25	O	1.340936	-0.445896	0.543636
O26	O	1.674269	-0.112562	0.876969
O27	O	2.007602	0.220771	1.210303
O28	O	1.213835	-0.529753	0.303831
O29	O	1.547168	-0.196420	0.637165
O30	O	1.880502	0.136913	0.970498
O31	O	1.117297	-0.293264	0.422137
O32	O	1.450630	0.040069	0.755470
O33	O	1.783963	0.373402	1.088803
O34	O	0.975724	-0.421197	0.421385
O35	O	1.309057	-0.087864	0.754718
O36	O	1.642390	0.245470	1.088051
O37	O	1.092094	-0.670761	0.542314
O38	O	1.425428	-0.337428	0.875647
O39	O	1.758761	-0.004094	1.208981
O40	O	0.964816	-0.528459	0.528650
O41	O	1.298149	-0.195126	0.861984
O42	O	1.631483	0.138208	1.195317
O43	O	1.199439	-0.671319	0.445401
O44	O	1.532772	-0.337986	0.778735
O45	O	1.866106	-0.004652	1.112068
O46	O	1.199261	-0.445159	0.671542
O47	O	1.532594	-0.111826	1.004876
O48	O	1.865928	0.221507	1.338209
O49	O	1.091993	-0.542092	0.670972
O50	O	1.425326	-0.208759	1.004306
O51	O	1.758660	0.124575	1.337639
C52	C	0.940183	-0.473221	0.473405
C53	C	1.273516	-0.139887	0.806738
C54	C	1.606849	0.193446	1.140072
C55	C	0.848015	-0.468316	0.468484
C56	C	1.181348	-0.134982	0.801818
C57	C	1.514682	0.198351	1.135151
C58	C	0.632820	-0.510179	0.510474
C59	C	0.966154	-0.176845	0.843807
C60	C	1.299487	0.156488	1.177140
C61	C	0.679267	-0.459359	0.459508
C62	C	1.012601	-0.126026	0.792841
C63	C	1.345934	0.207307	1.126175
C64	C	0.773167	-0.464344	0.464504
C65	C	1.106501	-0.131011	0.797837
C66	C	1.439834	0.202323	1.131171
C67	C	0.538912	-0.505195	0.505479
C68	C	0.872245	-0.171862	0.838812
C69	C	1.205579	0.161471	1.172146
C70	C	1.144122	-0.702127	0.495343
C71	C	1.477456	-0.368794	0.828676
C72	C	1.810789	-0.035460	1.162010
C73	C	1.139222	-0.794767	0.499770
C74	C	1.472555	-0.461433	0.833103
C75	C	1.805889	-0.128100	1.166436
C76	C	1.130245	-0.964378	0.507831
C77	C	1.463579	-0.631045	0.841164
C78	C	1.796912	-0.297712	1.174497
C79	C	1.181175	-1.005939	0.461840
C80	C	1.514508	-0.672606	0.795174
C81	C	1.847841	-0.339273	1.128507
C82	C	1.176180	-1.100317	0.466326
C83	C	1.509514	-0.766984	0.799659
C84	C	1.842847	-0.433650	1.132992
C85	C	1.135239	-0.869992	0.503346
C86	C	1.468572	-0.536659	0.836680
C87	C	1.801905	-0.203325	1.170013
C88	C	1.371902	-0.496294	0.496553
C89	C	1.705235	-0.162961	0.829886
C90	C	2.038569	0.170373	1.163220
C91	C	1.464068	-0.501220	0.501495
C92	C	1.797401	-0.167887	0.834828
C93	C	2.130734	0.165447	1.168162
C94	C	1.144026	-0.495088	0.701500
C95	C	1.477359	-0.161755	1.034834
C96	C	1.810693	0.171578	1.368167
C97	C	1.139140	-0.499550	0.794144
C98	C	1.472473	-0.166216	1.127478
C99	C	1.805806	0.167117	1.460811
C100	C	1.167128	-0.268187	0.474552
C101	C	1.500461	0.065146	0.807885
C102	C	1.833794	0.398479	1.141218
C103	C	1.172201	-0.175545	0.469899
C104	C	1.505534	0.157788	0.803233
C105	C	1.838868	0.491121	1.136566
C106	C	1.167284	-0.474360	0.267568
C107	C	1.500618	-0.141027	0.600902
C108	C	1.833951	0.192307	0.934235
C109	C	1.172254	-0.469939	0.174931
C110	C	1.505588	-0.136605	0.508264
C111	C	1.838921	0.196728	0.841597
C112	C	1.130223	-0.507712	0.963767
C113	C	1.463556	-0.174379	1.297100
C114	C	1.796889	0.158955	1.630434
C115	C	1.181169	-0.461779	1.005313
C116	C	1.514502	-0.128445	1.338647
C117	C	1.847835	0.204888	1.671980
C118	C	1.176207	-0.466320	1.099697
C119	C	1.509541	-0.132987	1.433030
C120	C	1.842874	0.200346	1.766364
C121	C	1.135183	-0.503171	0.869375
C122	C	1.468516	-0.169838	1.202708
C123	C	1.801850	0.163495	1.536041
H124	H	1.228527	-0.970641	0.419097
H125	H	1.561860	-0.637308	0.752431
H126	H	1.895194	-0.303974	1.085764
C127	C	0.638109	-0.396350	0.396438
C128	C	0.971442	-0.063017	0.729772
C129	C	1.304775	0.270316	1.063105
C130	C	0.551806	-0.403830	0.403997
C131	C	0.885139	-0.070497	0.737331
C132	C	1.218473	0.262836	1.070664
C133	C	0.513860	-0.345782	0.345936
C134	C	0.847193	-0.012449	0.679269
C135	C	1.180526	0.320885	1.012602
H136	H	0.654485	-0.406605	0.341727
H137	H	0.987819	-0.073271	0.675060
H138	H	1.321152	0.260062	1.008393
H139	H	0.654526	-0.341638	0.406648
H140	H	0.987859	-0.008305	0.739982
H141	H	1.321192	0.325029	1.073315
H142	H	0.535396	-0.458530	0.393781
H143	H	0.868729	-0.125197	0.727114
H144	H	1.202062	0.208137	1.060448
H145	H	0.535406	-0.393568	0.458696
H146	H	0.868739	-0.060235	0.792029
H147	H	1.202072	0.273099	1.125363
H148	H	0.530277	-0.291070	0.356146
H149	H	0.863610	0.042264	0.689479
H150	H	1.196943	0.375597	1.022812
H151	H	0.530243	-0.356042	0.291228
H152	H	0.863576	-0.022708	0.624561
H153	H	1.196909	0.310625	0.957895
H154	H	0.455300	-0.350844	0.351062
H155	H	0.788633	-0.017511	0.684395
H156	H	1.121967	0.315822	1.017728
C157	C	0.673979	-0.573090	0.573632
C158	C	1.007312	-0.239757	0.906965
C159	C	1.340646	0.093576	1.240298
C160	C	0.760281	-0.565561	0.566110
C161	C	1.093614	-0.232228	0.899444
C162	C	1.426948	0.101106	1.232777
C163	C	0.798234	-0.623490	0.624286
C164	C	1.131567	-0.290156	0.957620
C165	C	1.464901	0.043177	1.290953
H166	H	0.657629	-0.627841	0.563529
H167	H	0.990963	-0.294508	0.896863
H168	H	1.324296	0.038825	1.230196
H169	H	0.657541	-0.562730	0.628306
H170	H	0.990874	-0.229397	0.961640
H171	H	1.324207	0.103936	1.294973
H172	H	0.776712	-0.575927	0.511448
H173	H	1.110046	-0.242594	0.844782
H174	H	1.443379	0.090740	1.178115
H175	H	0.776654	-0.510823	0.576221
H176	H	1.109988	-0.177489	0.909554
H177	H	1.443321	0.155844	1.242887
H178	H	0.781796	-0.613130	0.678961
H179	H	1.115129	-0.279796	1.012294
H180	H	1.448463	0.053537	1.345628
H181	H	0.781878	-0.678236	0.614179
H182	H	1.115211	-0.344903	0.947512
H183	H	1.448545	-0.011570	1.280845
H184	H	0.856793	-0.618384	0.619196
H185	H	1.190127	-0.285050	0.952529
H186	H	1.523460	0.048283	1.285863
C187	C	1.067066	-0.564771	1.010701
C188	C	1.400400	-0.231438	1.344034
C189	C	1.733733	0.101896	1.677368
C190	C	1.021045	-0.606274	0.953825
C191	C	1.354378	-0.272941	1.287158
C192	C	1.687711	0.060393	1.620492
C193	C	0.962865	-0.658849	0.997041
C194	C	1.296198	-0.325515	1.330374
C195	C	1.629532	0.007818	1.663708
H196	H	1.030825	-0.532617	1.041256
H197	H	1.364158	-0.199284	1.374590
H198	H	1.697491	0.134050	1.707923
H199	H	1.095066	-0.604449	1.048036
H200	H	1.428399	-0.271116	1.381369
H201	H	1.761732	0.062218	1.714702
H202	H	0.993047	-0.566602	0.916505
H203	H	1.326380	-0.233268	1.249838
H204	H	1.659713	0.100065	1.583172
H205	H	1.057264	-0.638444	0.923268
H206	H	1.390597	-0.305110	1.256601
H207	H	1.723930	0.028223	1.589934
H208	H	0.990864	-0.698526	1.034376
H209	H	1.324198	-0.365193	1.367709
H210	H	1.657531	-0.031860	1.701042
H211	H	0.926629	-0.626688	1.027595
H212	H	1.259963	-0.293355	1.360928
H213	H	1.593296	0.039978	1.694261
H214	H	0.931638	-0.687020	0.958458
H215	H	1.264971	-0.353687	1.291791
H216	H	1.598304	-0.020354	1.625125
H217	H	1.228511	-0.419042	0.969997
H218	H	1.561844	-0.085709	1.303331
H219	H	1.895178	0.247624	1.636664
H220	H	1.082897	-0.999674	0.550570
H221	H	1.416230	-0.666341	0.883904
H222	H	1.749564	-0.333008	1.217237
