data_functionalizedCrystal
_audit_creation_method	'MofGen! by Chris Wilmer'
_symmetry_space_group_name_H-M	'P1'
_symmetry_Int_Tables_number	1
_symmetry_cell_setting	triclinic
loop_
_symmetry_equiv_pos_as_xyz
  x,y,z
_cell_length_a	17.699083
_cell_length_b	10.268362
_cell_length_c	17.699083
_cell_angle_alpha	90.006174
_cell_angle_beta	96.716985
_cell_angle_gamma	90.001874
loop_
_atom_site_label
_atom_site_type_symbol
_atom_site_fract_x
_atom_site_fract_y
_atom_site_fract_z
O1	O	-1.004076	0.108107	0.095712
O2	O	-0.504076	0.608107	0.595712
O3	O	-0.783697	0.108153	0.108164
O4	O	-0.283697	0.608153	0.608164
O5	O	-0.900113	0.108117	-0.008251
O6	O	-0.400113	0.608117	0.491749
O7	O	-0.887660	0.108143	0.212127
O8	O	-0.387660	0.608143	0.712127
O9	O	-0.900103	-0.108483	-0.008256
O10	O	-0.400103	0.391517	0.491744
O11	O	-0.783687	-0.108448	0.108160
O12	O	-0.283687	0.391552	0.608160
O13	O	-1.004066	-0.108493	0.095707
O14	O	-0.504066	0.391507	0.595707
Cu15	Cu	-0.893876	-0.128248	0.101933
Cu16	Cu	-0.393876	0.371752	0.601933
Cu17	Cu	-0.893888	0.127908	0.101938
Cu18	Cu	-0.393888	0.627908	0.601938
O19	O	-0.887650	-0.108458	0.212122
O20	O	-0.387650	0.391542	0.712122
C21	C	-0.755495	-0.000141	0.107716
C22	C	-0.255495	0.499859	0.607716
C23	C	-0.671477	-0.000124	0.106377
C24	C	-0.171477	0.499876	0.606377
C25	C	-0.622856	-0.000116	0.174710
C26	C	-0.122856	0.499884	0.674710
C27	C	-0.543913	-0.000132	0.173448
C28	C	-0.043913	0.499868	0.673448
C29	C	-0.513592	-0.000147	0.103852
C30	C	-0.013592	0.499853	0.603852
C31	C	-0.562219	-0.000159	0.035513
C32	C	-0.062219	0.499841	0.535513
C33	C	-0.641161	-0.000152	0.036776
C34	C	-0.141161	0.499848	0.536776
C35	C	-0.243856	-0.000188	0.030418
C36	C	0.256144	0.499812	0.530418
C37	C	-0.164908	-0.000190	0.029160
C38	C	0.335092	0.499810	0.529160
C39	C	-0.146608	-0.000168	0.167090
C40	C	0.353392	0.499832	0.667090
C41	C	-0.225550	-0.000161	0.168353
C42	C	0.274450	0.499839	0.668353
C43	C	-0.274170	-0.000180	0.100015
C44	C	0.225830	0.499820	0.600015
C45	C	-0.359769	-0.000165	0.101384
C46	C	0.140231	0.499835	0.601384
C47	C	-0.427995	-0.000153	0.102481
C48	C	0.072005	0.499847	0.602481
N49	N	-0.893873	-0.308414	0.101928
N50	N	-0.393873	0.191586	0.601928
C51	C	-0.893884	-0.574084	0.101937
C52	C	-0.393884	-0.074084	0.601937
C53	C	-0.893875	-0.426246	0.101934
C54	C	-0.393875	0.073754	0.601934
C55	C	-0.032268	-0.000193	0.096156
C56	C	0.467732	0.499807	0.596156
C57	C	-0.116286	-0.000192	0.097494
C58	C	0.383714	0.499808	0.597494
C59	C	-0.899662	-0.000183	-0.036451
C60	C	-0.399662	0.499817	0.463549
C61	C	-0.898323	-0.000183	-0.120469
C62	C	-0.398323	0.499817	0.379531
N63	N	-0.893896	0.308073	0.101937
N64	N	-0.393896	0.808073	0.601937
C65	C	-0.966656	-0.000199	-0.169090
C66	C	-0.466656	0.499801	0.330910
C67	C	-0.965394	-0.000188	-0.248033
C68	C	-0.465394	0.499812	0.251967
C69	C	-0.895798	-0.000169	-0.278354
C70	C	-0.395798	0.499831	0.221646
C71	C	-0.827459	-0.000149	-0.229727
C72	C	-0.327459	0.499851	0.270273
C73	C	-0.828722	-0.000152	-0.150785
C74	C	-0.328722	0.499848	0.349215
C75	C	-0.822364	-0.000137	-0.548090
C76	C	-0.322364	0.499863	-0.048090
C77	C	-0.821106	-0.000139	-0.627038
C78	C	-0.321106	0.499861	-0.127038
C79	C	-0.959036	-0.000173	-0.645338
C80	C	-0.459036	0.499827	-0.145338
C81	C	-0.960299	-0.000176	-0.566396
C82	C	-0.460299	0.499824	-0.066396
C83	C	-0.891961	-0.000149	-0.517776
C84	C	-0.391961	0.499851	-0.017776
C85	C	-0.893330	-0.000159	-0.432177
C86	C	-0.393330	0.499841	0.067823
C87	C	-0.894427	-0.000168	-0.363951
C88	C	-0.394427	0.499832	0.136049
C89	C	-0.888102	-0.000154	0.240322
C90	C	-0.388102	0.499846	0.740322
C91	C	-0.889440	-0.000146	0.324340
C92	C	-0.389440	0.499854	0.824340
H93	H	-0.647537	-0.000103	0.231384
H94	H	-0.147537	0.499897	0.731384
H95	H	-1.014680	-0.000189	-0.684934
H96	H	-0.514680	0.499811	-0.184934
O97	O	-0.496791	-0.000065	0.239897
O98	O	0.003209	0.499935	0.739897
C99	C	-0.486970	-0.000115	0.376843
C100	C	0.013030	0.499885	0.876843
C101	C	-0.540422	-0.000156	0.301643
C102	C	-0.040422	0.499844	0.801643
H103	H	-0.522224	-0.000216	0.426784
H104	H	-0.022224	0.499784	0.926784
H105	H	-0.449560	0.090547	0.379754
H106	H	0.050440	0.590547	0.879754
H107	H	-0.449546	-0.090747	0.379659
H108	H	0.050454	0.409253	0.879659
H109	H	-0.577893	0.090415	0.298776
H110	H	-0.077893	0.590415	0.798776
H111	H	-0.577780	-0.090878	0.298764
H112	H	-0.077780	0.409122	0.798764
O113	O	-1.034330	-0.000156	-0.139765
O114	O	-0.534330	0.499844	0.360235
C115	C	-1.171009	-0.000251	-0.166259
C116	C	-0.671009	0.499749	0.333741
C117	C	-1.094421	-0.000277	-0.199566
C118	C	-0.594421	0.499723	0.300434
H119	H	-1.219612	-0.000376	-0.214591
H120	H	-0.719612	0.499624	0.285409
H121	H	-1.175103	0.090417	-0.129780
H122	H	-0.675103	0.590417	0.370220
H123	H	-1.175007	-0.090877	-0.129737
H124	H	-0.675007	0.409123	0.370263
H125	H	-1.090371	0.090288	-0.236122
H126	H	-0.590371	0.590288	0.263878
H127	H	-1.090360	-0.091005	-0.236001
H128	H	-0.590360	0.408995	0.263999
H129	H	-0.250232	-0.000143	0.225025
H130	H	0.249768	0.499857	0.725025
H131	H	-0.283434	-0.000204	-0.025228
H132	H	0.216566	0.499796	0.474772
O133	O	-0.756053	-0.000059	-0.500759
O134	O	-0.256053	0.499941	-0.000759
C135	C	-0.696857	-0.000110	-0.371036
C136	C	-0.196857	0.499890	0.128964
C137	C	-0.772013	-0.000171	-0.424555
C138	C	-0.272013	0.499829	0.075445
H139	H	-0.709735	-0.000228	-0.309413
H140	H	-0.209735	0.499772	0.190587
H141	H	-0.662597	0.090566	-0.381986
H142	H	-0.162597	0.590566	0.118014
H143	H	-0.662593	-0.090728	-0.382094
H144	H	-0.162593	0.409272	0.117906
H145	H	-0.806338	0.090385	-0.413528
H146	H	-0.306338	0.590385	0.086472
H147	H	-0.806216	-0.090907	-0.413593
H148	H	-0.306216	0.409093	0.086407
O149	O	-0.099408	0.000068	0.233496
O150	O	0.400592	0.500068	0.733496
C151	C	-0.059639	0.112268	0.351022
C152	C	0.440361	0.612268	0.851022
C153	C	-0.113120	0.112172	0.275841
C154	C	0.386880	0.612172	0.775841
H155	H	-0.070717	0.202880	0.385286
H156	H	0.429283	0.702880	0.885286
H157	H	0.002007	0.112339	0.338214
H158	H	0.502007	0.612339	0.838214
H159	H	-0.070649	0.021590	0.385249
H160	H	0.429351	0.521590	0.885249
H161	H	-0.102178	0.202834	0.241578
H162	H	0.397822	0.702834	0.741578
H163	H	-0.174748	0.112032	0.288703
H164	H	0.325252	0.612032	0.788703
H165	H	-0.773078	-0.000138	-0.111198
H166	H	-0.273078	0.499862	0.388802
O167	O	-1.031755	0.000028	-0.295291
O168	O	-0.531755	0.500028	0.204709
C169	C	-1.110376	0.112198	-0.395055
C170	C	-0.610376	0.612198	0.104945
C171	C	-1.035198	0.112125	-0.341569
C172	C	-0.535198	0.612125	0.158431
H173	H	-1.113176	0.202805	-0.432496
H174	H	-0.613176	0.702805	0.067504
H175	H	-1.160361	0.112262	-0.359858
H176	H	-0.660361	0.612262	0.140142
H177	H	-1.113221	0.021515	-0.432447
H178	H	-0.613221	0.521515	0.067553
H179	H	-1.032278	0.202793	-0.304167
H180	H	-0.532278	0.702793	0.195833
H181	H	-0.985248	0.111993	-0.376812
H182	H	-0.485248	0.611993	0.123188
H183	H	-0.140225	-0.000204	-0.027517
H184	H	0.359775	0.499796	0.472483
O185	O	-0.753477	0.000121	-0.656456
O186	O	-0.253477	0.500121	-0.156456
C187	C	-0.635194	0.112347	-0.664932
C188	C	-0.135194	0.612347	-0.164932
C189	C	-0.711758	0.112231	-0.631579
C190	C	-0.211758	0.612231	-0.131579
H191	H	-0.601436	0.202964	-0.644819
H192	H	-0.101436	0.702964	-0.144819
H193	H	-0.645988	0.112423	-0.729708
H194	H	-0.145988	0.612423	-0.229708
H195	H	-0.601452	0.021674	-0.644916
H196	H	-0.101452	0.521674	-0.144916
H197	H	-0.745539	0.202888	-0.651537
H198	H	-0.245539	0.702888	-0.151537
H199	H	-0.700910	0.112086	-0.566806
H200	H	-0.200910	0.612086	-0.066806
H201	H	-0.680748	-0.000158	-0.018868
H202	H	-0.180748	0.499842	0.481132
H203	H	-0.537526	-0.000190	-0.021154
H204	H	-0.037526	0.499810	0.478846
H205	H	-1.016971	-0.000197	-0.541714
H206	H	-0.516971	0.499803	-0.041714
O207	O	-0.759786	-0.000069	-0.259052
O208	O	-0.259786	0.499931	0.240948
C209	C	-0.623107	-0.000107	-0.232561
C210	C	-0.123107	0.499893	0.267439
C211	C	-0.699694	-0.000165	-0.199252
C212	C	-0.199694	0.499835	0.300748
H213	H	-0.574502	-0.000213	-0.184230
H214	H	-0.074502	0.499787	0.315770
H215	H	-0.619022	0.090562	-0.269029
H216	H	-0.119022	0.590562	0.230971
H217	H	-0.619102	-0.090732	-0.269094
H218	H	-0.119102	0.409268	0.230906
H219	H	-0.703751	0.090398	-0.162686
H220	H	-0.203751	0.590398	0.337314
H221	H	-0.703747	-0.090895	-0.162828
H222	H	-0.203747	0.409105	0.337172
