data_functionalizedCrystal
_audit_creation_method	'MofGen! by Chris Wilmer'
_symmetry_space_group_name_H-M	'P1'
_symmetry_Int_Tables_number	1
_symmetry_cell_setting	triclinic
loop_
_symmetry_equiv_pos_as_xyz
  x,y,z
_cell_length_a	11.026607
_cell_length_b	10.723024
_cell_length_c	9.198806
_cell_angle_alpha	90.003648
_cell_angle_beta	89.998911
_cell_angle_gamma	83.473057
loop_
_atom_site_label
_atom_site_type_symbol
_atom_site_fract_x
_atom_site_fract_y
_atom_site_fract_z
O1	O	0.170518	-1.693992	-0.120878
O2	O	0.186840	-1.334363	-0.120883
O3	O	0.001778	-1.484372	-0.120876
O4	O	0.355580	-1.543983	-0.120886
O5	O	0.001777	-1.484357	0.120909
O6	O	0.186840	-1.334348	0.120902
O7	O	0.170518	-1.693977	0.120907
Cu8	Cu	0.178679	-1.514161	0.142981
Cu9	Cu	0.178679	-1.514179	-0.142958
O10	O	0.355580	-1.543968	0.120899
C11	C	0.185652	-1.287599	0.000009
C12	C	0.182098	-1.148278	0.000007
C13	C	-0.043525	-1.473367	0.000015
C14	C	-0.178512	-1.440584	0.000009
C15	C	0.171706	-1.740741	0.000011
C16	C	0.175259	-1.880062	0.000004
C17	C	-0.251564	-1.531104	0.000008
C18	C	-0.391080	-1.497223	0.000003
C19	C	0.400883	-1.554973	0.000006
C20	C	0.535869	-1.587756	0.000002
N21	N	0.178677	-1.514157	0.344095
C22	C	0.285649	-1.095646	0.000003
C23	C	0.281979	-0.951650	0.000001
N24	N	0.178671	-1.514191	-0.344072
C25	C	0.100633	-1.577068	0.416295
C26	C	0.100628	-1.577086	0.583707
H27	H	-0.431820	-1.394636	-0.000008
H28	H	0.370627	-0.906351	-0.000008
C29	C	0.060135	-1.066444	0.000081
C30	C	-0.034687	-1.142906	0.000119
C31	C	-0.147059	-1.067568	0.000205
H32	H	0.054126	-1.014946	-0.084212
H33	H	0.054231	-1.014979	0.084431
H34	H	-0.028785	-1.194349	-0.084223
H35	H	-0.028718	-1.194403	0.084405
H36	H	-0.152963	-1.016104	0.084555
H37	H	-0.153055	-1.016075	-0.084089
H38	H	-0.211409	-1.119437	0.000244
C39	C	-0.232993	-1.303852	-0.000224
C40	C	-0.305053	-1.279816	-0.124603
C41	C	-0.355269	-1.153874	-0.124858
H42	H	-0.169197	-1.251317	-0.000297
H43	H	-0.281996	-1.287266	0.084045
H44	H	-0.256052	-1.296389	-0.208850
H45	H	-0.368868	-1.332319	-0.124557
H46	H	-0.404272	-1.137288	-0.040589
H47	H	-0.291465	-1.101350	-0.124927
H48	H	-0.404176	-1.137552	-0.209241
C49	C	0.407528	-1.177630	0.000301
C50	C	0.473490	-1.151911	0.124709
C51	C	0.585767	-1.227417	0.125042
H52	H	0.452613	-1.160412	-0.083918
H53	H	0.393855	-1.263524	0.000382
H54	H	0.487167	-1.066037	0.124614
H55	H	0.428442	-1.169135	0.208948
H56	H	0.572094	-1.313311	0.125123
H57	H	0.630841	-1.210193	0.040818
H58	H	0.630531	-1.209986	0.209457
H59	H	0.086607	-0.925352	-0.000002
H60	H	0.033815	-1.630952	0.645796
C61	C	0.011369	-1.648689	0.333511
C62	C	-0.108242	-1.601289	0.370365
C63	C	-0.190494	-1.667230	0.294106
H64	H	0.024908	-1.735147	0.358288
H65	H	0.023160	-1.639094	0.231992
H66	H	-0.120028	-1.610896	0.471861
H67	H	-0.121821	-1.514840	0.345584
H68	H	-0.178704	-1.657635	0.192587
H69	H	-0.176944	-1.753685	0.318889
H70	H	-0.271659	-1.635071	0.319090
C71	C	0.267837	-1.442582	0.572976
C72	C	0.342564	-1.526129	0.485552
C73	C	0.424708	-1.460207	0.409091
H74	H	0.316916	-1.403116	0.639837
H75	H	0.223781	-1.380665	0.513524
H76	H	0.386616	-1.588023	0.544998
H77	H	0.293519	-1.565597	0.418663
H78	H	0.380652	-1.398290	0.349639
H79	H	0.473778	-1.420744	0.475963
H80	H	0.475412	-1.516881	0.349755
C81	C	-0.197014	-1.667814	0.000087
C82	C	-0.069479	-1.674240	0.000127
C83	C	-0.019191	-1.800158	0.000219
H84	H	-0.223171	-1.708399	-0.084205
H85	H	-0.223244	-1.708284	0.084438
H86	H	-0.043260	-1.633787	-0.084216
H87	H	-0.043288	-1.633682	0.084412
H88	H	-0.045420	-1.840628	0.084570
H89	H	-0.045356	-1.840732	-0.084074
H90	H	0.067346	-1.804535	0.000259
H91	H	-0.423393	-1.690344	-0.000106
H92	H	0.245487	-1.460305	0.406221
