data_functionalizedCrystal
_audit_creation_method	'MofGen! by Chris Wilmer'
_symmetry_space_group_name_H-M	'P1'
_symmetry_Int_Tables_number	1
_symmetry_cell_setting	triclinic
loop_
_symmetry_equiv_pos_as_xyz
  x,y,z
_cell_length_a	18.215407
_cell_length_b	12.759399
_cell_length_c	12.759393
_cell_angle_alpha	90.032031
_cell_angle_beta	89.978212
_cell_angle_gamma	89.984436
loop_
_atom_site_label
_atom_site_type_symbol
_atom_site_fract_x
_atom_site_fract_y
_atom_site_fract_z
Zn1	Zn	1.125136	0.418191	-0.594072
Zn2	Zn	1.458469	0.751525	-0.260738
Zn3	Zn	1.791803	1.084858	0.072595
Zn4	Zn	1.125061	0.593910	-0.418391
Zn5	Zn	1.458395	0.927244	-0.085057
Zn6	Zn	1.791728	1.260577	0.248276
Zn7	Zn	1.002064	0.418247	-0.418401
Zn8	Zn	1.335398	0.751581	-0.085068
Zn9	Zn	1.668731	1.084914	0.248266
Zn10	Zn	1.002056	0.593830	-0.594022
Zn11	Zn	1.335389	0.927163	-0.260689
Zn12	Zn	1.668722	1.260497	0.072645
O13	O	1.063579	0.506045	-0.506221
O14	O	1.396913	0.839378	-0.172888
O15	O	1.730246	1.172711	0.160445
O16	O	1.228110	0.441511	-0.570784
O17	O	1.561444	0.774844	-0.237451
O18	O	1.894777	1.108177	0.095883
O19	O	1.108718	0.570665	-0.271371
O20	O	1.442051	0.903998	0.061962
O21	O	1.775385	1.237332	0.395296
O22	O	1.018425	0.271219	-0.441729
O23	O	1.351759	0.604552	-0.108396
O24	O	1.685092	0.937885	0.224937
O25	O	1.228055	0.570611	-0.441712
O26	O	1.561389	0.903944	-0.108378
O27	O	1.894722	1.237277	0.224955
O28	O	1.108845	0.271178	-0.570794
O29	O	1.442179	0.604511	-0.237461
O30	O	1.775512	0.937844	0.095873
O31	O	1.018353	0.441606	-0.271378
O32	O	1.351686	0.774940	0.061955
O33	O	1.685019	1.108273	0.395288
O34	O	0.899079	0.441529	-0.441681
O35	O	1.232412	0.774862	-0.108348
O36	O	1.565746	1.108195	0.224986
O37	O	1.018410	0.570474	-0.741050
O38	O	1.351743	0.903808	-0.407716
O39	O	1.685077	1.237141	-0.074383
O40	O	0.899072	0.570529	-0.570709
O41	O	1.232406	0.903862	-0.237375
O42	O	1.565739	1.237195	0.095958
O43	O	1.108837	0.441433	-0.741086
O44	O	1.442170	0.774766	-0.407753
O45	O	1.775503	1.108100	-0.074420
O46	O	1.108709	0.740921	-0.441663
O47	O	1.442043	1.074254	-0.108330
O48	O	1.775376	1.407587	0.225003
O49	O	1.018337	0.740862	-0.570699
O50	O	1.351671	1.074195	-0.237365
O51	O	1.685004	1.407528	0.095968
C52	C	1.063534	0.779012	-0.506197
C53	C	1.396868	1.112345	-0.172864
C54	C	1.730201	1.445679	0.160469
C55	C	1.063582	0.895789	-0.506222
C56	C	1.396916	1.229122	-0.172889
C57	C	1.730249	1.562455	0.160444
C58	C	0.872373	0.506027	-0.506191
C59	C	1.205706	0.839360	-0.172858
C60	C	1.539040	1.172693	0.160475
C61	C	0.790574	0.506044	-0.506203
C62	C	1.123908	0.839378	-0.172870
C63	C	1.457241	1.172711	0.160463
C64	C	1.063631	0.505938	-0.780255
C65	C	1.396964	0.839272	-0.446921
C66	C	1.730297	1.172605	-0.113588
C67	C	1.063653	0.505893	-0.897032
C68	C	1.396986	0.839227	-0.563698
C69	C	1.730319	1.172560	-0.230365
C70	C	0.602396	0.573320	-0.573304
C71	C	0.935729	0.906654	-0.239970
C72	C	1.269063	1.239987	0.093363
C73	C	0.525537	0.573324	-0.573317
C74	C	0.858871	0.906657	-0.239984
C75	C	1.192204	1.239990	0.093350
C76	C	0.525515	0.438788	-0.439162
C77	C	0.858848	0.772122	-0.105829
C78	C	1.192181	1.105455	0.227505
C79	C	0.602372	0.438780	-0.439155
C80	C	0.935705	0.772114	-0.105822
C81	C	1.269039	1.105447	0.227512
C82	C	0.640811	0.506052	-0.506224
C83	C	0.974144	0.839386	-0.172891
C84	C	1.307477	1.172719	0.160442
C85	C	0.487095	0.506063	-0.506244
C86	C	0.820428	0.839397	-0.172911
C87	C	1.153761	1.172730	0.160422
C88	C	0.403761	0.506067	-0.506258
C89	C	0.737094	0.839400	-0.172925
C90	C	1.070428	1.172733	0.160409
C91	C	0.724150	0.506048	-0.506212
C92	C	1.057483	0.839382	-0.172879
C93	C	1.390816	1.172715	0.160454
C94	C	1.255532	0.506063	-0.506252
C95	C	1.588866	0.839397	-0.172919
C96	C	1.922199	1.172730	0.160414
C97	C	1.337331	0.506072	-0.506265
C98	C	1.670664	0.839405	-0.172932
C99	C	2.003998	1.172738	0.160401
C100	C	1.063645	0.232011	-0.506268
C101	C	1.396978	0.565345	-0.172935
C102	C	1.730311	0.898678	0.160398
C103	C	1.063673	0.115235	-0.506288
C104	C	1.397006	0.448568	-0.172955
C105	C	1.730339	0.781901	0.160378
C106	C	1.110693	0.950646	-0.439110
C107	C	1.444026	1.283980	-0.105777
C108	C	1.777359	1.617313	0.227557
C109	C	1.110740	1.060370	-0.439145
C110	C	1.444073	1.393704	-0.105812
C111	C	1.777407	1.727037	0.227521
C112	C	1.016560	1.060369	-0.573408
C113	C	1.349894	1.393703	-0.240075
C114	C	1.683227	1.727036	0.093258
C115	C	1.016517	0.950647	-0.573377
C116	C	1.349851	1.283981	-0.240044
C117	C	1.683184	1.617314	0.093289
C118	C	1.016616	0.438680	-0.951897
C119	C	1.349950	0.772013	-0.618564
C120	C	1.683283	1.105347	-0.285230
C121	C	1.016634	0.438648	-1.061621
C122	C	1.349967	0.771981	-0.728288
C123	C	1.683300	1.105314	-0.394954
C124	C	1.110730	0.573045	-1.061605
C125	C	1.444063	0.906378	-0.728271
C126	C	1.777396	1.239711	-0.394938
C127	C	1.110708	0.573081	-0.951883
C128	C	1.444041	0.906415	-0.618549
C129	C	1.777375	1.239748	-0.285216
C130	C	1.063571	0.506075	-0.233254
C131	C	1.396904	0.839408	0.100079
C132	C	1.730237	1.172741	0.433413
C133	C	1.063691	0.505824	-0.116478
C134	C	1.397025	0.839157	0.216855
C135	C	1.730358	1.172491	0.550189
H136	H	0.633691	0.628095	-0.627919
H137	H	0.967024	0.961428	-0.294585
H138	H	1.300357	1.294761	0.038748
H139	H	0.494264	0.628098	-0.627941
H140	H	0.827597	0.961432	-0.294608
H141	H	1.160930	1.294765	0.038725
H142	H	0.978154	0.905979	-0.628033
H143	H	1.311488	1.239313	-0.294700
H144	H	1.644821	1.572646	0.038633
H145	H	0.978240	1.105049	-0.628082
H146	H	1.311574	1.438382	-0.294749
H147	H	1.644907	1.771715	0.038585
H148	H	0.494208	0.384019	-0.384555
H149	H	0.827542	0.717353	-0.051221
H150	H	1.160875	1.050686	0.282112
Cl151	Cl	0.650668	0.354201	-0.354826
Cl152	Cl	0.984002	0.687535	-0.021493
Cl153	Cl	1.317335	1.020868	0.311841
H154	H	0.978301	0.383971	-0.907241
H155	H	1.311634	0.717304	-0.573907
H156	H	1.644967	1.050638	-0.240574
H157	H	1.149017	0.905983	-0.384430
H158	H	1.482350	1.239316	-0.051096
H159	H	1.815684	1.572650	0.282237
Cl160	Cl	0.957490	0.354161	-1.130590
Cl161	Cl	1.290823	0.687494	-0.797257
Cl162	Cl	1.624156	1.020828	-0.463924
H163	H	1.149013	0.627819	-0.907210
H164	H	1.482346	0.961152	-0.573877
H165	H	1.815679	1.294485	-0.240543
Cl166	Cl	1.169969	1.129330	-0.354774
Cl167	Cl	1.503302	1.462663	-0.021441
Cl168	Cl	1.836636	1.795996	0.311893
H169	H	1.149041	0.627746	-1.106278
H170	H	1.482374	0.961080	-0.772944
H171	H	1.815708	1.294413	-0.439611
