data_functionalizedCrystal
_audit_creation_method	'MofGen! by Chris Wilmer'
_symmetry_space_group_name_H-M	'P1'
_symmetry_Int_Tables_number	1
_symmetry_cell_setting	triclinic
loop_
_symmetry_equiv_pos_as_xyz
  x,y,z
_cell_length_a	18.366186
_cell_length_b	19.288864
_cell_length_c	19.288865
_cell_angle_alpha	96.863755
_cell_angle_beta	89.988521
_cell_angle_gamma	90.022894
loop_
_atom_site_label
_atom_site_type_symbol
_atom_site_fract_x
_atom_site_fract_y
_atom_site_fract_z
O1	O	-0.060791	-0.921353	0.086649
O2	O	0.439209	-0.421353	0.586649
O3	O	-0.060743	-0.719092	0.098337
O4	O	0.439257	-0.219092	0.598337
O5	O	-0.060754	-0.826067	-0.008637
O6	O	0.439246	-0.326067	0.491363
O7	O	-0.060780	-0.814378	0.193623
O8	O	0.439220	-0.314378	0.693623
O9	O	0.060345	-0.826049	-0.008643
O10	O	0.560345	-0.326049	0.491357
O11	O	0.060357	-0.719074	0.098332
O12	O	0.560357	-0.219074	0.598332
O13	O	0.060308	-0.921335	0.086643
O14	O	0.560308	-0.421335	0.586643
Zn15	Zn	0.079559	-0.820201	0.092487
Zn16	Zn	0.579559	-0.320201	0.592487
Zn17	Zn	-0.079994	-0.820225	0.092494
Zn18	Zn	0.420006	-0.320225	0.592494
O19	O	0.060319	-0.814360	0.193618
O20	O	0.560319	-0.314360	0.693618
C21	C	-0.000187	-0.693207	0.097959
C22	C	0.499813	-0.193207	0.597959
C23	C	-0.000167	-0.616103	0.096830
C24	C	0.499833	-0.116103	0.596830
C25	C	-0.000202	-0.825682	-0.034516
C26	C	0.499798	-0.325682	0.465484
C27	C	-0.000195	-0.824553	-0.111620
C28	C	0.499805	-0.324553	0.388380
N29	N	0.188451	-0.820190	0.092482
N30	N	0.688451	-0.320190	0.592482
N31	N	-0.188885	-0.820242	0.092493
N32	N	0.311115	-0.320242	0.592493
C33	C	0.226546	-0.867574	0.045137
C34	C	0.726546	-0.367574	0.545137
C35	C	0.302774	-0.867578	0.045134
C36	C	0.802774	-0.367578	0.545134
C37	C	0.340903	-0.820206	0.092488
C38	C	0.840903	-0.320206	0.592488
C39	C	0.302799	-0.772813	0.139836
C40	C	0.802799	-0.272813	0.639836
C41	C	0.226572	-0.772805	0.139834
C42	C	0.726572	-0.272805	0.639834
C43	C	0.461657	-0.810907	0.155775
C44	C	0.961657	-0.310907	0.655775
C45	C	0.537882	-0.810920	0.155779
C46	C	1.037882	-0.310920	0.655779
C47	C	0.576011	-0.820225	0.092496
C48	C	1.076011	-0.320225	0.592496
C49	C	0.537905	-0.829533	0.029207
C50	C	1.037905	-0.329533	0.529207
C51	C	0.461679	-0.829525	0.029204
C52	C	0.961679	-0.329525	0.529204
C53	C	0.423558	-0.820208	0.092496
C54	C	0.923558	-0.320208	0.592496
C55	C	0.696761	-0.867617	0.045144
C56	C	1.196761	-0.367617	0.545144
C57	C	0.772990	-0.867616	0.045140
C58	C	1.272990	-0.367616	0.545140
C59	C	0.773014	-0.772854	0.139849
C60	C	1.273014	-0.272854	0.639849
C61	C	0.696786	-0.772851	0.139847
C62	C	1.196786	-0.272851	0.639847
C63	C	0.658664	-0.820236	0.092495
C64	C	1.158664	-0.320236	0.592495
C65	C	-0.000250	-0.947220	0.087022
C66	C	0.499750	-0.447220	0.587022
C67	C	-0.000274	-1.024324	0.088151
C68	C	0.499726	-0.524324	0.588151
C69	C	-0.000187	-0.571407	0.159598
C70	C	0.499813	-0.071407	0.659598
C71	C	-0.000195	-0.498960	0.158537
C72	C	0.499805	0.001040	0.658537
C73	C	-0.000198	-0.471212	0.094705
C74	C	0.499802	0.028788	0.594705
C75	C	-0.000174	-0.515918	0.031929
C76	C	0.499826	-0.015918	0.531929
C77	C	-0.000159	-0.588364	0.032991
C78	C	0.499841	-0.088364	0.532991
C79	C	-0.042642	-0.362956	0.044527
C80	C	0.457358	0.137044	0.544527
C81	C	-0.042662	-0.290512	0.043468
C82	C	0.457338	0.209488	0.543468
C83	C	-0.000241	-0.247767	0.091425
C84	C	0.499759	0.252233	0.591425
C85	C	0.042189	-0.277473	0.140454
C86	C	0.542189	0.222527	0.640454
C87	C	0.042205	-0.349918	0.141517
C88	C	0.542205	0.150082	0.641517
C89	C	-0.000214	-0.392658	0.093546
C90	C	0.499786	0.107342	0.593546
C91	C	-0.000269	-0.124514	0.153047
C92	C	0.499731	0.375486	0.653047
C93	C	-0.000272	-0.052066	0.151984
C94	C	0.499728	0.447934	0.651984
C95	C	-0.000259	-0.069026	0.025374
C96	C	0.499741	0.430974	0.525374
C97	C	-0.000248	-0.141473	0.026439
C98	C	0.499752	0.358527	0.526439
C99	C	-0.000256	-0.169212	0.090278
C100	C	0.499744	0.330788	0.590278
C101	C	-0.000207	-0.887321	-0.156316
C102	C	0.499793	-0.387321	0.343684
C103	C	-0.000218	-0.886260	-0.228763
C104	C	0.499782	-0.386260	0.271237
C105	C	-0.000203	-0.822428	-0.256511
C106	C	0.499797	-0.322428	0.243489
C107	C	-0.000196	-0.759652	-0.211805
C108	C	0.499804	-0.259652	0.288195
C109	C	-0.000192	-0.760714	-0.139359
C110	C	0.499808	-0.260714	0.360641
C111	C	0.042227	-0.772242	-0.364800
C112	C	0.542227	-0.272242	0.135200
C113	C	0.042228	-0.771182	-0.437245
C114	C	0.542228	-0.271182	0.062755
C115	C	-0.000219	-0.819148	-0.479956
C116	C	0.499781	-0.319148	0.020044
C117	C	-0.042657	-0.868186	-0.450216
C118	C	0.457343	-0.368186	0.049784
C119	C	-0.042653	-0.869248	-0.377771
C120	C	0.457347	-0.369248	0.122229
C121	C	-0.000208	-0.821269	-0.335065
C122	C	0.499792	-0.321269	0.164935
C123	C	-0.000244	-0.880770	-0.603209
C124	C	0.499756	-0.380770	-0.103209
C125	C	-0.000259	-0.879707	-0.675657
C126	C	0.499741	-0.379707	-0.175657
C127	C	-0.000230	-0.753097	-0.658697
C128	C	0.499770	-0.253097	-0.158697
C129	C	-0.000221	-0.754162	-0.586250
C130	C	0.499779	-0.254162	-0.086250
C131	C	-0.000225	-0.818001	-0.558511
C132	C	0.499775	-0.318001	-0.058511
C133	C	-0.000234	-0.814745	0.219497
C134	C	0.499766	-0.314745	0.719497
C135	C	-0.000246	-0.815874	0.296601
C136	C	0.499754	-0.315874	0.796601
H137	H	0.195509	-0.906156	0.006579
H138	H	0.695509	-0.406156	0.506579
C139	C	-0.089349	-0.920956	-0.497187
C140	C	0.410651	-0.420956	0.002813
H141	H	-0.114615	-0.950314	-0.469100
H142	H	0.385385	-0.450314	0.030900
H143	H	-0.123463	-0.896537	-0.522225
H144	H	0.376537	-0.396537	-0.022225
H145	H	-0.058763	-0.948582	-0.529211
H146	H	0.441237	-0.448582	-0.029211
C147	C	-0.000257	-0.950986	-0.572688
C148	C	0.499743	-0.450986	-0.072688
H149	H	-0.000243	-0.942630	-0.523141
H150	H	0.499757	-0.442630	-0.023141
H151	H	-0.042494	-0.976829	-0.588033
H152	H	0.457506	-0.476829	-0.088033
H153	H	0.041971	-0.976815	-0.588057
H154	H	0.541971	-0.476815	-0.088057
H155	H	-0.000195	-0.593987	0.211580
H156	H	0.499805	-0.093987	0.711580
H157	H	-0.000209	-0.462561	0.209652
H158	H	0.499791	0.037439	0.709652
H159	H	0.333797	-0.906165	0.006578
H160	H	0.833797	-0.406165	0.506578
C161	C	-0.000146	-0.637532	-0.036057
C162	C	0.499854	-0.137532	0.463943
H163	H	-0.000153	-0.610633	-0.074226
H164	H	0.499847	-0.110633	0.425774
H165	H	0.042087	-0.666126	-0.038277
H166	H	0.542087	-0.166126	0.461723
H167	H	-0.042379	-0.666164	-0.038268
H168	H	0.457621	-0.166164	0.461732
H169	H	-0.000273	-0.930822	-0.712049
H170	H	0.499727	-0.430822	-0.212049
H171	H	0.568901	-0.803346	0.207313
H172	H	1.068901	-0.303346	0.707313
H173	H	0.076756	-0.374102	0.181436
H174	H	0.576756	0.125898	0.681436
H175	H	-0.000212	-0.939303	-0.133736
H176	H	0.499788	-0.439303	0.366264
C177	C	0.088907	-0.717244	-0.469952
C178	C	0.588907	-0.217244	0.030048
H179	H	0.114177	-0.688821	-0.434140
H180	H	0.614177	-0.188821	0.065860
H181	H	0.123018	-0.740834	-0.501436
H182	H	0.623018	-0.240834	-0.001436
H183	H	0.058318	-0.688790	-0.494450
H184	H	0.558318	-0.188790	0.005550
H185	H	0.333848	-0.734240	0.178392
H186	H	0.833848	-0.234240	0.678392
H187	H	0.076733	-0.242671	0.179506
H188	H	0.576733	0.257329	0.679506
H189	H	0.804058	-0.734279	0.178402
H190	H	1.304058	-0.234279	0.678402
C191	C	-0.000182	-0.485399	-0.038285
C192	C	0.499818	0.014601	0.461715
H193	H	-0.000202	-0.435851	-0.029928
H194	H	0.499798	0.064149	0.470072
H195	H	0.042053	-0.500729	-0.064125
H196	H	0.542053	-0.000729	0.435875
H197	H	-0.042412	-0.500781	-0.064116
H198	H	0.457588	-0.000781	0.435884
H199	H	-0.000185	-0.707679	-0.234401
H200	H	0.499815	-0.207679	0.265599
H201	H	-0.000231	-0.937375	-0.265162
H202	H	0.499769	-0.437375	0.234838
C203	C	-0.089338	-0.923178	-0.345058
C204	C	0.410662	-0.423178	0.154942
H205	H	-0.114624	-0.951592	-0.380866
H206	H	0.385376	-0.451592	0.119134
H207	H	-0.058759	-0.951633	-0.320557
H208	H	0.441241	-0.451633	0.179443
H209	H	-0.123447	-0.899574	-0.313575
H210	H	0.376553	-0.399574	0.186425
C211	C	-0.000216	-0.682883	-0.689210
C212	C	0.499784	-0.182883	-0.189210
H213	H	-0.000217	-0.691238	-0.738758
H214	H	0.499783	-0.191238	-0.238758
H215	H	-0.042439	-0.657053	-0.673842
H216	H	0.457561	-0.157053	-0.173842
H217	H	0.042027	-0.657041	-0.673865
H218	H	0.542027	-0.157041	-0.173865
C219	C	-0.000270	-0.155031	0.223265
C220	C	0.499730	0.344969	0.723265
H221	H	-0.000273	-0.118032	0.260497
H222	H	0.499727	0.381968	0.760497
H223	H	-0.042496	-0.182961	0.226314
H224	H	0.457504	0.317039	0.726314
H225	H	0.041969	-0.182917	0.226308
H226	H	0.541969	0.317083	0.726308
C227	C	0.184666	-0.720686	0.191920
C228	C	0.684666	-0.220686	0.691920
H229	H	0.218289	-0.692474	0.220126
H230	H	0.718289	-0.192474	0.720126
H231	H	0.154947	-0.691852	0.167008
H232	H	0.654947	-0.191852	0.667008
H233	H	0.154914	-0.745583	0.220773
H234	H	0.654914	-0.245583	0.720773
C235	C	-0.000294	-0.002900	0.221032
C236	C	0.499706	0.497100	0.721032
H237	H	-0.000303	-0.029799	0.259201
H238	H	0.499697	0.470201	0.759201
H239	H	0.041931	0.025737	0.223253
H240	H	0.541931	0.525737	0.723253
H241	H	-0.042535	0.025690	0.223246
H242	H	0.457465	0.525690	0.723246
H243	H	0.076796	-0.733180	-0.330029
H244	H	0.576796	-0.233180	0.169971
C245	C	0.654821	-0.919726	-0.006947
C246	C	1.154821	-0.419726	0.493053
H247	H	0.603966	-0.912941	-0.000163
H248	H	1.103966	-0.412941	0.499837
H249	H	0.667328	-0.912329	-0.053284
H250	H	1.167328	-0.412329	0.446716
H251	H	0.667287	-0.966061	0.000479
H252	H	1.167287	-0.466061	0.500479
H253	H	-0.000182	-0.709599	-0.102967
H254	H	0.499818	-0.209599	0.397033
C255	C	-0.000266	-0.038513	-0.044840
C256	C	0.499734	0.461487	0.455160
H257	H	-0.000283	0.011035	-0.036485
H258	H	0.499717	0.511035	0.463515
H259	H	0.041966	-0.053845	-0.070682
H260	H	0.541966	0.446155	0.429318
H261	H	-0.042499	-0.053893	-0.070669
H262	H	0.457501	0.446107	0.429331
H263	H	-0.077215	-0.266331	0.003548
H264	H	0.422785	0.233669	0.503548
H265	H	-0.000208	-0.703049	-0.549857
H266	H	0.499792	-0.203049	-0.049857
H267	H	-0.000236	-0.177866	-0.024674
H268	H	0.499764	0.322134	0.475326
H269	H	0.568948	-0.837110	-0.022324
H270	H	1.068948	-0.337110	0.477676
C271	C	0.654879	-0.720736	0.191934
C272	C	1.154879	-0.220736	0.691934
H273	H	0.688503	-0.692526	0.220141
H274	H	1.188503	-0.192526	0.720141
H275	H	0.625163	-0.691900	0.167023
H276	H	1.125163	-0.191900	0.667023
H277	H	0.625125	-0.745632	0.220786
H278	H	1.125125	-0.245632	0.720786
C279	C	0.814896	-0.919742	-0.006941
C280	C	1.314896	-0.419742	0.493059
H281	H	0.781271	-0.947964	-0.035136
H282	H	1.281271	-0.447964	0.464864
H283	H	0.844652	-0.894858	-0.035796
H284	H	1.344652	-0.394858	0.464204
H285	H	0.844609	-0.948576	0.017982
H286	H	1.344609	-0.448576	0.517982
C287	C	0.419722	-0.800676	0.225391
C288	C	0.919722	-0.300676	0.725391
H289	H	0.453331	-0.795146	0.263083
H290	H	0.953331	-0.295146	0.763083
H291	H	0.390005	-0.760227	0.226904
H292	H	0.890005	-0.260227	0.726904
H293	H	0.389967	-0.840355	0.229138
H294	H	0.889967	-0.340355	0.729138
H295	H	0.430657	-0.837102	-0.022328
H296	H	0.930657	-0.337102	0.477672
H297	H	-0.077191	-0.397755	0.005473
H298	H	0.422809	0.102245	0.505473
