data_functionalizedCrystal
_audit_creation_method	'MofGen! by Chris Wilmer'
_symmetry_space_group_name_H-M	'P1'
_symmetry_Int_Tables_number	1
_symmetry_cell_setting	triclinic
loop_
_symmetry_equiv_pos_as_xyz
  x,y,z
_cell_length_a	16.120490
_cell_length_b	16.120444
_cell_length_c	10.686551
_cell_angle_alpha	91.291368
_cell_angle_beta	97.502252
_cell_angle_gamma	90.165174
loop_
_atom_site_label
_atom_site_type_symbol
_atom_site_fract_x
_atom_site_fract_y
_atom_site_fract_z
Zn1	Zn	1.299161	-0.355281	0.840282
Zn2	Zn	1.281312	-0.504003	0.639306
Zn3	Zn	1.148278	-0.358926	0.618009
Zn4	Zn	1.152949	-0.487282	0.839134
O5	O	1.220425	-0.426373	0.734183
O6	O	1.413658	-0.380482	0.823015
O7	O	1.254240	-0.493281	0.459830
O8	O	1.173808	-0.242485	0.639061
O9	O	1.400545	-0.489747	0.675359
O10	O	1.284661	-0.239807	0.802364
O11	O	1.156501	-0.386694	0.444183
O12	O	1.032033	-0.370481	0.637948
O13	O	1.181769	-0.461249	1.015937
O14	O	1.035465	-0.464783	0.800408
O15	O	1.289190	-0.364268	1.016780
O16	O	1.258770	-0.617743	0.674246
O17	O	1.164462	-0.605458	0.821059
C18	C	1.003447	-0.416213	0.716743
C19	C	0.910623	-0.411886	0.709314
C20	C	0.701025	-0.448816	0.772721
C21	C	0.740678	-0.403992	0.695749
C22	C	0.835245	-0.408385	0.703299
C23	C	0.606451	-0.444423	0.765172
C24	C	1.210210	-0.641667	0.749868
C25	C	1.205919	-0.733772	0.756627
C26	C	1.242906	-0.949498	0.699409
C27	C	1.198100	-0.902404	0.768981
C28	C	1.202452	-0.808568	0.762105
C29	C	1.238555	-1.043342	0.706284
C30	C	1.438251	-0.436573	0.751691
C31	C	1.531075	-0.440920	0.759152
C32	C	1.237992	-0.410487	1.063443
C33	C	1.245478	-0.403717	1.203754
C34	C	1.230704	-0.210239	0.718465
C35	C	1.235085	-0.118135	0.711767
C36	C	1.202977	-0.442140	0.406202
C37	C	1.195664	-0.448684	0.265888
H38	H	0.703605	-0.362317	0.624182
C39	C	1.299130	-0.908768	0.611964
H40	H	1.294705	-0.850129	0.618750
H41	H	1.355584	-0.924569	0.636013
H42	H	1.281771	-0.926462	0.527168
C43	C	1.141857	-0.943130	0.856415
H44	H	1.114319	-0.901240	0.899166
H45	H	1.101383	-0.977579	0.807583
H46	H	1.175179	-0.975689	0.916454
H47	H	0.738096	-0.490488	0.844281
H48	H	1.147292	-0.492365	1.211741
C49	C	1.310837	-0.344712	1.276901
H50	H	1.307464	-0.347745	1.364774
H51	H	1.365233	-0.360495	1.260740
H52	H	1.300122	-0.289487	1.250326
