data_functionalizedCrystal
_audit_creation_method	'MofGen! by Chris Wilmer'
_symmetry_space_group_name_H-M	'P1'
_symmetry_Int_Tables_number	1
_symmetry_cell_setting	triclinic
loop_
_symmetry_equiv_pos_as_xyz
  x,y,z
_cell_length_a	10.654550
_cell_length_b	23.532407
_cell_length_c	9.730223
_cell_angle_alpha	89.994043
_cell_angle_beta	89.996251
_cell_angle_gamma	83.666790
loop_
_atom_site_label
_atom_site_type_symbol
_atom_site_fract_x
_atom_site_fract_y
_atom_site_fract_z
O1	O	1.665300	0.079982	-0.114418
O2	O	1.299580	0.087603	-0.114398
O3	O	1.493468	0.000933	-0.114384
O4	O	1.471412	0.166652	-0.114433
O5	O	1.493466	0.000935	0.114196
O6	O	1.299578	0.087605	0.114182
O7	O	1.665298	0.079985	0.114161
Zn8	Zn	1.482437	0.083795	0.150464
Zn9	Zn	1.482440	0.083792	-0.150700
O10	O	1.471409	0.166655	0.114147
C11	C	1.252799	0.087044	-0.000105
C12	C	1.113408	0.085370	-0.000096
C13	C	1.032306	0.136400	-0.000131
C14	C	0.901335	0.134824	-0.000154
C15	C	0.932582	0.031183	-0.000113
C16	C	1.063550	0.032760	-0.000080
C17	C	1.082164	0.189010	-0.000147
C18	C	1.001060	0.240045	-0.000184
C19	C	0.870089	0.238468	-0.000207
C20	C	0.820222	0.185858	-0.000194
C21	C	1.492905	-0.020286	-0.000090
C22	C	1.491217	-0.083514	-0.000079
C23	C	1.595364	-0.481938	-0.000161
C24	C	1.593795	-0.541349	-0.000171
O25	O	1.690341	-0.577464	-0.000227
N26	N	1.478529	-0.564726	-0.000164
C27	C	1.364824	-0.528689	-0.000160
O28	O	1.266636	-0.554029	-0.000156
C29	C	1.366394	-0.469280	-0.000159
C30	C	1.481668	-0.445906	-0.000153
C31	C	1.710629	-0.458564	-0.000156
C32	C	1.712197	-0.399158	-0.000143
C33	C	1.598500	-0.363126	-0.000135
C34	C	1.483236	-0.386500	-0.000140
C35	C	1.252690	-0.433244	-0.000165
C36	C	1.254270	-0.373832	-0.000166
C37	C	1.369544	-0.350458	-0.000159
C38	C	1.371107	-0.291061	-0.000119
N39	N	1.486374	-0.267684	-0.000126
C40	C	1.600070	-0.303716	-0.000134
C41	C	1.361535	-0.653453	-0.000163
C42	C	1.359964	-0.712861	-0.000154
C43	C	1.588936	-0.725517	-0.000168
C44	C	1.590506	-0.666108	-0.000167
C45	C	1.476802	-0.630076	-0.000171
C46	C	1.603355	-0.178958	-0.000106
C47	C	1.604913	-0.119546	-0.000087
C48	C	1.375942	-0.106896	-0.000081
C49	C	1.374383	-0.166303	-0.000092
C50	C	1.488100	-0.202333	-0.000109
O51	O	1.274613	-0.254911	-0.000068
O52	O	1.698241	-0.278369	-0.000157
C53	C	1.712079	0.080543	-0.000135
C54	C	1.851469	0.082217	-0.000152
C55	C	1.471972	0.187873	-0.000149
C56	C	1.473661	0.251101	-0.000169
N57	N	1.482444	0.083797	0.356000
N58	N	1.482443	0.083786	-0.356237
C59	C	1.568320	0.045432	0.427932
C60	C	1.568317	0.045425	0.571815
C61	C	1.396559	0.122152	0.571821
C62	C	1.396557	0.122156	0.427941
C63	C	1.654207	0.007073	0.355992
C64	C	1.740090	-0.031294	0.427924
C65	C	1.740087	-0.031301	0.571807
C66	C	1.654201	0.007059	0.643758
H67	H	0.891969	-0.011650	-0.000125
H68	H	0.804057	0.280023	-0.000223
O69	O	1.313263	0.159395	0.641922
C70	C	1.331661	0.151156	0.784340
H71	H	1.431762	0.130291	0.803981
H72	H	1.317150	0.194222	0.839020
H73	H	1.260949	0.122292	0.825181
H74	H	1.129587	-0.008793	-0.000055
O75	O	1.251157	-0.618396	0.000036
C76	C	1.245191	-0.583669	0.118439
H77	H	1.344824	-0.580259	0.157899
H78	H	1.197828	-0.539214	0.091822
H79	H	1.188100	-0.603450	0.201340
O80	O	1.717007	-0.096936	-0.000148
C81	C	1.817017	-0.141483	-0.000128
H82	H	1.782329	-0.181972	-0.043409
H83	H	1.897541	-0.128742	-0.066494
H84	H	1.852052	-0.149757	0.109529
O85	O	1.713736	-0.214011	0.000067
C86	C	1.719699	-0.248752	0.118463
H87	H	1.620066	-0.252167	0.157927
H88	H	1.767068	-0.293203	0.091834
H89	H	1.776785	-0.228979	0.201364
H90	H	1.681514	-0.754865	-0.000180
H91	H	1.158822	-0.452264	-0.000179
H92	H	1.161675	-0.344497	-0.000171
H93	H	1.280517	-0.185334	-0.000059
H94	H	1.188805	0.190300	-0.000134
O95	O	1.247954	-0.735536	-0.000389
C96	C	1.178684	-0.717143	-0.118749
H97	H	1.246107	-0.704513	-0.201492
H98	H	1.125711	-0.753335	-0.158492
H99	H	1.108221	-0.678710	-0.091974
H100	H	1.806065	-0.380133	-0.000143
H101	H	1.041671	0.282878	-0.000183
H102	H	0.713576	0.184578	-0.000191
O103	O	1.823421	-0.068522	0.357826
C104	C	1.804969	-0.060311	0.215407
H105	H	1.757526	-0.015222	0.195740
H106	H	1.900129	-0.066278	0.160696
H107	H	1.742334	-0.092791	0.174623
H108	H	1.326628	0.153395	0.369373
H109	H	1.684372	-0.647081	-0.000163
O110	O	1.821198	-0.493479	-0.000098
C111	C	1.923254	-0.460096	-0.000130
H112	H	1.890785	-0.415895	0.043138
H113	H	2.002872	-0.481682	0.066240
H114	H	1.958630	-0.455719	-0.109790
H115	H	1.283373	-0.077548	-0.000069
O116	O	1.823626	-0.068591	0.641472
C117	C	1.899403	-0.102455	0.547116
H118	H	1.900524	-0.079096	0.444553
H119	H	1.999793	-0.110719	0.588681
H120	H	1.859170	-0.144933	0.531815
H121	H	1.654197	0.007046	0.760917
H122	H	1.654220	0.007076	0.238835
