data_functionalizedCrystal
_audit_creation_method	'MofGen! by Chris Wilmer'
_symmetry_space_group_name_H-M	'P1'
_symmetry_Int_Tables_number	1
_symmetry_cell_setting	triclinic
loop_
_symmetry_equiv_pos_as_xyz
  x,y,z
_cell_length_a	10.686220
_cell_length_b	12.594516
_cell_length_c	10.685880
_cell_angle_alpha	94.341733
_cell_angle_beta	89.641569
_cell_angle_gamma	94.397503
loop_
_atom_site_label
_atom_site_type_symbol
_atom_site_fract_x
_atom_site_fract_y
_atom_site_fract_z
Zn1	Zn	1.972249	-0.332254	-0.562388
Zn2	Zn	1.956029	-0.497766	-0.352643
Zn3	Zn	1.746379	-0.334424	-0.368710
Zn4	Zn	1.762446	-0.524820	-0.578416
O5	O	1.859276	-0.422316	-0.465539
O6	O	2.145641	-0.341980	-0.521133
O7	O	1.914706	-0.465684	-0.179233
O8	O	1.776405	-0.185187	-0.394419
O9	O	2.133723	-0.463580	-0.367034
O10	O	1.942351	-0.183593	-0.536713
O11	O	1.760677	-0.345677	-0.191038
O12	O	1.572967	-0.371910	-0.409961
O13	O	1.803789	-0.509690	-0.751831
O14	O	1.584772	-0.511794	-0.564030
O15	O	1.957931	-0.368213	-0.740056
O16	O	1.930285	-0.650304	-0.382576
O17	O	1.788061	-0.670180	-0.548450
C18	C	1.533353	-0.445024	-0.490479
C19	C	1.393924	-0.454766	-0.501178
C20	C	1.859193	-0.698862	-0.465533
C21	C	1.859275	-0.817164	-0.465564
C22	C	1.781906	-0.897264	-0.555725
C23	C	1.742561	-0.963435	-0.443599
C24	C	1.898736	-0.961785	-0.577700
C25	C	1.819864	-0.881778	-0.353383
C26	C	1.976099	-0.880122	-0.487556
C27	C	1.936791	-0.946254	-0.375349
C28	C	2.186471	-0.399520	-0.440503
C29	C	2.325902	-0.389806	-0.429834
C30	C	1.884462	-0.441728	-0.792732
C31	C	1.895194	-0.450000	-0.932162
C32	C	1.859395	-0.144689	-0.465570
C33	C	1.859447	-0.026381	-0.465583
C34	C	1.834260	-0.402898	-0.139614
C35	C	1.823770	-0.394309	-0.000166
H36	H	1.345487	-0.517843	-0.570441
H37	H	1.964564	-0.504012	-0.980615
H38	H	1.716344	-0.875397	-0.631878
O39	O	1.383601	-0.314669	-0.347024
C40	C	1.407426	-0.247250	-0.130696
C41	C	1.342005	-0.332420	-0.224341
H42	H	1.373801	-0.261558	-0.031490
H43	H	1.513359	-0.252531	-0.136392
H44	H	1.383484	-0.164553	-0.154902
H45	H	1.365846	-0.415157	-0.200198
H46	H	1.236088	-0.327045	-0.218628
H47	H	1.786444	-0.846921	-0.258540
O48	O	1.624728	-1.006820	-0.421616
C49	C	1.409859	-1.031378	-0.491713
C50	C	1.543251	-0.982214	-0.516764
H51	H	1.343942	-1.011484	-0.568609
H52	H	1.411161	-1.121764	-0.491085
H53	H	1.375706	-0.997219	-0.396833
H54	H	1.577485	-1.016289	-0.611645
H55	H	1.541872	-0.891830	-0.517311
H56	H	1.754401	-0.340305	-0.951720
H57	H	2.002286	-0.967918	-0.299029
O58	O	2.093822	-0.836744	-0.510009
C59	C	2.268463	-0.828469	-0.653595
C60	C	2.135132	-0.877658	-0.628322
H61	H	2.301913	-0.861545	-0.749237
H62	H	2.267438	-0.737957	-0.652533
H63	H	2.334783	-0.849545	-0.577670
H64	H	2.068736	-0.856664	-0.704219
H65	H	2.136258	-0.968159	-0.629337
O66	O	1.938339	-1.003420	-0.690926
C67	C	1.901363	-1.026190	-0.913902
C68	C	1.856405	-0.978965	-0.785757
H69	H	1.835127	-1.006455	-0.990603
H70	H	2.000223	-0.990586	-0.933484
H71	H	1.901982	-1.116565	-0.912470
H72	H	1.855707	-0.888593	-0.787095
H73	H	1.757572	-1.014651	-0.766225
