data_functionalizedCrystal
_audit_creation_method	'MofGen! by Chris Wilmer'
_symmetry_space_group_name_H-M	'P1'
_symmetry_Int_Tables_number	1
_symmetry_cell_setting	triclinic
loop_
_symmetry_equiv_pos_as_xyz
  x,y,z
_cell_length_a	27.732046
_cell_length_b	26.210047
_cell_length_c	10.654550
_cell_angle_alpha	89.998439
_cell_angle_beta	83.563453
_cell_angle_gamma	89.989653
loop_
_atom_site_label
_atom_site_type_symbol
_atom_site_fract_x
_atom_site_fract_y
_atom_site_fract_z
O1	O	-0.641867	0.042353	-0.149404
O2	O	-0.501214	0.042370	-0.172125
O3	O	-0.574774	0.042362	0.022111
O4	O	-0.568307	0.042362	-0.343639
O5	O	-0.574751	-0.042496	0.022111
O6	O	-0.501191	-0.042488	-0.172125
O7	O	-0.641843	-0.042505	-0.149404
Cu8	Cu	-0.571515	-0.050245	-0.160764
Cu9	Cu	-0.571543	0.050110	-0.160764
O10	O	-0.568283	-0.042496	-0.343639
C11	C	-0.483193	-0.000057	-0.171648
C12	C	-0.429529	-0.000051	-0.170213
C13	C	-0.091372	-0.000069	-0.275957
C14	C	0.110321	-0.000071	-0.270633
O15	O	0.140974	-0.000093	-0.367324
N16	N	0.130162	-0.000070	-0.155460
C17	C	0.099576	-0.000072	-0.041610
O18	O	0.121080	-0.000076	0.056474
C19	C	-0.102116	-0.000073	-0.046936
C20	C	-0.121954	-0.000069	-0.162117
C21	C	-0.111211	-0.000066	-0.391128
C22	C	-0.161631	-0.000062	-0.392458
C23	C	-0.192213	-0.000062	-0.278617
C24	C	-0.172374	-0.000066	-0.163447
C25	C	-0.132701	-0.000078	0.066912
C26	C	-0.183126	-0.000080	0.065570
C27	C	-0.202964	-0.000076	-0.049610
C28	C	-0.253376	-0.000062	-0.050936
N29	N	-0.273217	-0.000064	-0.166108
C30	C	-0.242636	-0.000064	-0.279949
C31	C	0.205468	-0.000070	-0.038822
C32	C	0.255890	-0.000069	-0.037490
C33	C	0.266632	-0.000070	-0.266513
C34	C	0.216208	-0.000067	-0.267844
C35	C	0.185627	-0.000071	-0.153995
C36	C	-0.348522	-0.000056	-0.282734
C37	C	-0.398947	-0.000051	-0.284054
C38	C	-0.409684	-0.000053	-0.055031
C39	C	-0.359263	-0.000056	-0.053711
C40	C	-0.328683	-0.000059	-0.167572
O41	O	-0.284058	-0.000046	0.045704
O42	O	-0.264149	-0.000071	-0.378019
C43	C	-0.040952	-0.000072	-0.274627
C44	C	-0.021113	-0.000076	-0.159457
C45	C	-0.051695	-0.000076	-0.045616
C46	C	0.029309	-0.000075	-0.158125
C47	C	0.059891	-0.000075	-0.271966
C48	C	0.040050	-0.000076	-0.387138
C49	C	-0.010370	-0.000072	-0.388468
C50	C	-0.031854	-0.000075	0.069557
C51	C	0.018567	-0.000078	0.070878
C52	C	0.049148	-0.000078	-0.042963
N53	N	-0.571499	-0.120829	-0.160763
C54	C	-0.574288	-0.000066	0.068889
C55	C	-0.572867	-0.000062	0.208273
C56	C	0.340135	-0.000074	-0.149884
C57	C	0.286472	-0.000069	-0.151331
C58	C	-0.601106	-0.473346	-0.236387
C59	C	-0.601120	-0.687005	-0.236386
O60	O	-0.626281	-0.714630	-0.300670
N61	N	-0.571554	-0.713722	-0.160751
C62	C	-0.541985	-0.687022	-0.085105
O63	O	-0.516841	-0.714650	-0.020763
C64	C	-0.541974	-0.473364	-0.085100
C65	C	-0.571538	-0.446650	-0.160750
C66	C	-0.630668	-0.446631	-0.312029
C67	C	-0.630662	-0.393220	-0.312034
C68	C	-0.601094	-0.366523	-0.236396
C69	C	-0.571532	-0.393238	-0.160754
C70	C	-0.512407	-0.446665	-0.009449
C71	C	-0.512408	-0.393247	-0.009452
C72	C	-0.541972	-0.366533	-0.085101
C73	C	-0.541958	-0.313130	-0.085122
N74	N	-0.571524	-0.286413	-0.160756
C75	C	-0.601092	-0.313109	-0.236394
C76	C	-0.541992	-0.799195	-0.085115
C77	C	-0.541994	-0.852610	-0.085118
C78	C	-0.601130	-0.852589	-0.236397
C79	C	-0.601125	-0.799174	-0.236400
C80	C	-0.571558	-0.772478	-0.160750
C81	C	-0.601077	-0.200941	-0.236399
C82	C	-0.601067	-0.147525	-0.236401
C83	C	-0.541933	-0.147551	-0.085117
C84	C	-0.541941	-0.200962	-0.085120
C85	C	-0.571517	-0.227656	-0.160764
O86	O	-0.516814	-0.285472	-0.020861
O87	O	-0.626240	-0.285473	-0.300705
C88	C	-0.601111	-0.526758	-0.236382
C89	C	-0.571549	-0.553473	-0.160740
C90	C	-0.541981	-0.526776	-0.085103
C91	C	-0.571551	-0.606887	-0.160743
C92	C	-0.601119	-0.633583	-0.236380
C93	C	-0.630685	-0.606866	-0.312015
C94	C	-0.630679	-0.553454	-0.312020
C95	C	-0.512416	-0.553494	-0.009468
C96	C	-0.512423	-0.606905	-0.009471
C97	C	-0.541991	-0.633602	-0.085108
N98	N	-0.571562	0.120694	-0.160755
C99	C	-0.568770	-0.000067	-0.390417
C100	C	-0.570191	-0.000068	-0.529801
C101	C	-0.570872	0.046190	0.404729
C102	C	-0.572212	0.046193	0.273765
C103	C	-0.572187	-0.046324	0.273753
C104	C	-0.570851	-0.046326	0.404716
H105	H	-0.086316	-0.000067	-0.483837
H106	H	0.180572	-0.000074	0.053893
H107	H	-0.570297	-0.083997	0.458024
H108	H	-0.570334	0.083857	0.458041
N109	N	-0.660874	-0.365940	-0.389283
N110	N	-0.692669	-0.336132	-0.339680
H111	H	-0.714009	-0.316869	-0.394239
N112	N	-0.572859	-0.093579	0.206882
N113	N	-0.606710	-0.124557	0.233745
H114	H	-0.607183	-0.157933	0.186522
N115	N	-0.419202	-0.000043	-0.401724
N116	N	-0.391888	-0.000043	-0.503356
H117	H	-0.406191	-0.000038	-0.586460
N118	N	-0.112435	-0.000085	0.184554
N119	N	-0.085502	0.035680	0.210874
H120	H	-0.071188	0.035673	0.293964
N121	N	-0.660896	-0.634133	-0.389273
N122	N	-0.687296	-0.610281	-0.456803
H123	H	-0.708633	-0.629540	-0.511358
N124	N	-0.482217	-0.473946	0.067848
N125	N	-0.500817	-0.503744	0.151218
H126	H	-0.479494	-0.523012	0.205814
H127	H	-0.654754	-0.531708	-0.373621
N128	N	-0.440919	-0.000051	0.061263
N129	N	-0.438894	0.035714	0.138099
H130	H	-0.460954	0.035711	0.220235
N131	N	-0.317297	-0.000062	-0.399050
N132	N	-0.335025	-0.000060	-0.501864
H133	H	-0.312973	-0.000062	-0.584014
N134	N	0.071294	-0.000088	-0.503426
N135	N	0.069267	-0.035862	-0.580237
H136	H	0.091335	-0.035874	-0.662361
N137	N	-0.181883	-0.000058	-0.510124
N138	N	-0.154565	-0.000058	-0.611750
H139	H	-0.168864	-0.000055	-0.694859
H140	H	0.034714	-0.000077	0.164678
H141	H	-0.572768	0.083861	0.220465
H142	H	-0.654748	-0.468362	-0.373622
N143	N	-0.030622	-0.000066	-0.506134
N144	N	-0.003304	-0.000066	-0.607760
H145	H	-0.017603	-0.000062	-0.690869
H146	H	-0.488344	-0.628652	0.052129
N147	N	-0.482212	-0.365987	0.067859
N148	N	-0.455826	-0.389850	0.135406
H149	H	-0.434502	-0.370599	0.190013
N150	N	-0.482206	-0.526236	0.067801
N151	N	-0.455812	-0.550103	0.135317
H152	H	-0.434471	-0.530855	0.189886
H153	H	-0.056749	-0.000076	0.162262
N154	N	0.195954	-0.000063	-0.385507
N155	N	0.223271	-0.000060	-0.487136
H156	H	0.208969	-0.000057	-0.570242
H157	H	0.291540	-0.000070	-0.359207
H158	H	-0.625142	-0.125776	-0.298009
N159	N	0.276143	-0.000062	0.080175
N160	N	0.248827	-0.000062	0.181804
H161	H	0.263128	-0.000058	0.264910
H162	H	-0.208024	-0.000084	0.158282
H163	H	-0.625199	-0.777426	-0.298001
N164	N	-0.339004	-0.000051	0.063951
N165	N	-0.366317	-0.000048	0.165585
H166	H	-0.352013	-0.000049	0.248687
N167	N	-0.511790	-0.771924	-0.007842
N168	N	-0.530377	-0.742117	0.075534
H169	H	-0.509044	-0.722858	0.130105
N170	N	-0.631292	-0.228195	-0.313669
N171	N	-0.657682	-0.204328	-0.381196
H172	H	-0.679020	-0.223576	-0.435773
N173	N	-0.631325	-0.879872	-0.313666
N174	N	-0.631317	-0.927562	-0.313652
H175	H	-0.652642	-0.946834	-0.368219
N176	N	-0.511783	-0.879894	-0.007875
N177	N	-0.466793	-0.873936	-0.023720
H178	H	-0.445456	-0.893204	0.030837
N179	N	-0.511732	-0.228246	-0.007862
N180	N	-0.485331	-0.204401	0.059655
H181	H	-0.463996	-0.223666	0.114225
N182	N	-0.511732	-0.120267	-0.007874
N183	N	-0.511736	-0.072577	-0.007895
H184	H	-0.490408	-0.053305	0.046663
