data_functionalizedCrystal
_audit_creation_method	'MofGen! by Chris Wilmer'
_symmetry_space_group_name_H-M	'P1'
_symmetry_Int_Tables_number	1
_symmetry_cell_setting	triclinic
loop_
_symmetry_equiv_pos_as_xyz
  x,y,z
_cell_length_a	19.188925
_cell_length_b	10.723024
_cell_length_c	9.798715
_cell_angle_alpha	89.997773
_cell_angle_beta	90.004645
_cell_angle_gamma	96.194791
loop_
_atom_site_label
_atom_site_type_symbol
_atom_site_fract_x
_atom_site_fract_y
_atom_site_fract_z
O1	O	0.927159	-0.155746	0.113517
O2	O	0.723983	-0.176724	0.113513
O3	O	0.830257	0.015438	0.113510
O4	O	0.820884	-0.347909	0.113520
O5	O	0.830250	0.015439	-0.113472
O6	O	0.723975	-0.176723	-0.113469
O7	O	0.927151	-0.155745	-0.113465
Zn8	Zn	0.825562	-0.166234	-0.149505
Zn9	Zn	0.825572	-0.166236	0.149553
O10	O	0.820876	-0.347908	-0.113462
C11	C	0.697964	-0.176046	0.000021
C12	C	0.620446	-0.174010	0.000020
C13	C	0.059320	-0.273132	0.000026
C14	C	0.132155	-0.275056	0.000033
C15	C	0.176357	-0.162301	0.000027
C16	C	0.147718	-0.047614	0.000050
C17	C	0.074883	-0.045693	0.000056
N18	N	0.296501	-0.080671	-0.077241
N19	N	0.365690	-0.082503	-0.077250
C20	C	0.395804	-0.168081	0.000012
N21	N	0.354113	-0.251776	0.077265
N22	N	0.284917	-0.249948	0.077268
C23	C	0.255335	-0.164371	0.000022
C24	C	0.503412	-0.284847	0.000007
C25	C	0.576249	-0.286766	0.000023
C26	C	0.591810	-0.059320	0.000026
C27	C	0.518974	-0.057405	0.000024
C28	C	0.474779	-0.170171	0.000008
C29	C	0.829571	0.061924	0.000021
C30	C	0.827531	0.200436	0.000025
C31	C	0.953170	-0.156424	0.000030
C32	C	1.030688	-0.158460	0.000040
C33	C	0.821562	-0.394394	0.000030
C34	C	0.823603	-0.532906	0.000034
N35	N	0.825560	-0.166232	-0.353605
C36	C	0.886996	0.276655	0.000028
C37	C	0.884888	0.419815	0.000033
C38	C	0.866270	-0.237747	-0.421380
C39	C	0.866281	-0.237745	-0.578543
N40	N	0.825580	-0.166228	0.353653
H41	H	0.467426	-0.376668	-0.000003
O42	O	0.945605	0.497986	0.000280
C43	C	0.948239	0.574189	0.117821
H44	H	0.912795	0.526253	0.199983
H45	H	1.004406	0.589252	0.157284
H46	H	0.929647	0.668679	0.091244
H47	H	0.023340	-0.364956	0.000019
H48	H	0.775060	0.241167	0.000033
O49	O	0.047183	0.065814	0.000002
C50	C	0.101811	0.164927	0.000041
H51	H	0.151448	0.130226	-0.042931
H52	H	0.086206	0.245019	-0.065855
H53	H	0.111952	0.199683	0.108938
O54	O	0.907785	-0.310979	-0.648003
C55	C	0.889264	-0.437801	-0.613163
H56	H	0.833038	-0.450428	-0.573817
H57	H	0.893687	-0.499057	-0.707190
H58	H	0.926090	-0.466472	-0.530313
H59	H	0.155472	-0.368438	0.000009
O60	O	0.783952	-0.093360	-0.576688
C61	C	0.736800	-0.169945	-0.494085
H62	H	0.759130	-0.262309	-0.472801
H63	H	0.728735	-0.119956	-0.393555
H64	H	0.684409	-0.189499	-0.549100
H65	H	0.183711	0.044192	0.000049
H66	H	0.599558	-0.380149	0.000023
H67	H	0.790716	-0.105001	-0.411933
O68	O	0.491042	0.053880	0.000085
C69	C	0.417279	0.031398	0.000058
H70	H	0.400647	-0.066074	0.043027
H71	H	0.394571	0.104749	0.065963
H72	H	0.396972	0.037341	-0.108835
O73	O	0.634809	0.050131	0.000206
C74	C	0.677397	0.055833	0.117780
H75	H	0.681556	-0.043191	0.156967
H76	H	0.731906	0.102617	0.091344
H77	H	0.653169	0.112684	0.200100
H78	H	0.901118	-0.298969	-0.363052
O79	O	0.949537	0.227869	-0.000033
C80	C	0.937719	0.095792	-0.000000
H81	H	0.883363	0.065058	-0.042973
H82	H	0.978985	0.055952	-0.065900
H83	H	0.941252	0.059564	0.108894
O84	O	0.762818	0.389108	0.000215
C85	C	0.723692	0.411527	0.117791
H86	H	0.740298	0.510371	0.156987
H87	H	0.665503	0.401925	0.091354
H88	H	0.733634	0.340417	0.200104
