data_functionalizedCrystal
_audit_creation_method	'MofGen! by Chris Wilmer'
_symmetry_space_group_name_H-M	'P1'
_symmetry_Int_Tables_number	1
_symmetry_cell_setting	triclinic
loop_
_symmetry_equiv_pos_as_xyz
  x,y,z
_cell_length_a	10.723024
_cell_length_b	10.967829
_cell_length_c	9.798715
_cell_angle_alpha	77.868973
_cell_angle_beta	89.996609
_cell_angle_gamma	84.591738
loop_
_atom_site_label
_atom_site_type_symbol
_atom_site_fract_x
_atom_site_fract_y
_atom_site_fract_z
O1	O	1.657189	0.175026	-0.154642
O2	O	1.294037	0.191780	-0.158586
O3	O	1.483988	0.001825	-0.113905
O4	O	1.467239	0.364981	-0.199323
O5	O	1.483974	0.001824	0.113078
O6	O	1.294023	0.191779	0.068396
O7	O	1.657175	0.175026	0.072341
Zn8	Zn	1.475597	0.183402	0.106407
Zn9	Zn	1.475616	0.183403	-0.192652
O10	O	1.467225	0.364980	0.027659
C11	C	1.247531	0.190560	-0.044809
C12	C	1.108976	0.186912	-0.043953
C13	C	1.482761	-0.044675	0.010521
C14	C	1.479112	-0.183231	0.043102
C15	C	1.033995	0.293201	-0.068954
C16	C	0.890791	0.289433	-0.068069
C17	C	1.477492	-0.244997	-0.059957
C18	C	1.473720	-0.388201	-0.026286
C19	C	1.703682	0.176245	-0.041440
C20	C	1.842236	0.179893	-0.042305
C21	C	1.468452	0.411480	-0.096769
C22	C	1.472101	0.550036	-0.129360
N23	N	1.475593	0.183401	0.310507
N24	N	1.475629	0.183394	-0.396750
C25	C	1.555348	0.103293	0.397127
C26	C	1.555368	0.103289	0.554291
H27	H	0.826360	0.380425	-0.089478
H28	H	1.075818	0.386988	-0.091006
H29	H	1.477698	-0.236368	0.156263
O30	O	1.636670	0.021324	0.346870
C31	C	1.707397	-0.195077	0.353735
C32	C	1.615207	-0.102399	0.410761
H33	H	1.690095	-0.295126	0.405388
H34	H	1.692845	-0.180569	0.235958
H35	H	1.807574	-0.178133	0.377711
H36	H	1.514994	-0.119286	0.386886
H37	H	1.629869	-0.116928	0.528524
H38	H	1.407322	0.251977	0.352701
O39	O	1.473523	-0.386660	-0.264420
C40	C	1.366636	-0.333559	-0.488391
C41	C	1.364873	-0.405258	-0.335456
H42	H	1.278814	-0.348592	-0.545875
H43	H	1.369285	-0.229318	-0.491662
H44	H	1.453175	-0.369762	-0.540882
H45	H	1.278346	-0.369161	-0.282872
H46	H	1.362289	-0.509489	-0.332284
O47	O	0.919212	0.071412	-0.016972
C48	C	1.082422	-0.056371	-0.104552
C49	C	0.995328	0.066540	-0.133409
H50	H	1.143965	-0.060363	-0.198684
H51	H	1.144146	-0.060384	-0.008683
H52	H	1.023557	-0.139412	-0.084954
H53	H	1.054094	0.149649	-0.153072
H54	H	0.933599	0.070443	-0.229245
O55	O	1.059154	0.074988	-0.017388
C56	C	1.042879	-0.120168	0.146059
C57	C	1.099357	0.006558	0.116168
H58	H	1.075383	-0.175541	0.254025
H59	H	0.936268	-0.103345	0.142189
H60	H	1.075247	-0.175473	0.064031
H61	H	1.067087	0.061929	0.198165
H62	H	1.205962	-0.010354	0.119988
O63	O	1.479025	-0.181451	-0.194907
C64	C	1.374993	-0.021108	-0.376064
C65	C	1.373105	-0.092956	-0.223198
H66	H	1.289353	0.050438	-0.398994
H67	H	1.463729	0.029259	-0.393996
H68	H	1.373257	-0.089906	-0.448406
H69	H	1.374794	-0.024243	-0.150760
H70	H	1.284377	-0.143343	-0.205381
O71	O	1.471864	-0.451689	0.108668
C72	C	1.359997	-0.585555	0.283592
C73	C	1.361962	-0.513742	0.130719
H74	H	1.271138	-0.635722	0.301476
H75	H	1.445505	-0.657267	0.306589
H76	H	1.361862	-0.516756	0.355918
H77	H	1.360055	-0.582445	0.058293
H78	H	1.276463	-0.442012	0.107837
O79	O	1.637003	0.021585	0.642969
C80	C	1.853180	-0.050172	0.703719
C81	C	1.760867	0.042454	0.603206
H82	H	1.953343	-0.033349	0.671590
H83	H	1.838793	-0.035601	0.814672
H84	H	1.835731	-0.150209	0.699251
H85	H	1.778259	0.142528	0.607551
H86	H	1.775275	0.027774	0.492298
O87	O	1.394116	0.265343	0.514671
C88	C	1.227581	0.432526	0.490151
C89	C	1.319845	0.339807	0.590628
H90	H	1.167491	0.492737	0.551527
H91	H	1.282163	0.495223	0.408534
H92	H	1.164722	0.378187	0.436007
H93	H	1.382726	0.394044	0.644870
H94	H	1.265185	0.277110	0.672159
