data_functionalizedCrystal
_audit_creation_method	'MofGen! by Chris Wilmer'
_symmetry_space_group_name_H-M	'P1'
_symmetry_Int_Tables_number	1
_symmetry_cell_setting	triclinic
loop_
_symmetry_equiv_pos_as_xyz
  x,y,z
_cell_length_a	19.121241
_cell_length_b	19.121459
_cell_length_c	11.169409
_cell_angle_alpha	87.524226
_cell_angle_beta	87.532897
_cell_angle_gamma	89.914667
loop_
_atom_site_label
_atom_site_type_symbol
_atom_site_fract_x
_atom_site_fract_y
_atom_site_fract_z
Zn1	Zn	1.083743	-0.233410	-0.740755
Zn2	Zn	1.088647	-0.350674	-0.531874
Zn3	Zn	0.966494	-0.238444	-0.531149
Zn4	Zn	0.971466	-0.355605	-0.723591
O5	O	1.027588	-0.294533	-0.631842
O6	O	1.182503	-0.244796	-0.720533
O7	O	1.072415	-0.335829	-0.363823
O8	O	0.977914	-0.139668	-0.565833
O9	O	1.186106	-0.330949	-0.567069
O10	O	1.064056	-0.135971	-0.719829
O11	O	0.982670	-0.253374	-0.363290
O12	O	0.869044	-0.258155	-0.549190
O13	O	0.986388	-0.339352	-0.893823
O14	O	0.872697	-0.344233	-0.690577
O15	O	1.068877	-0.249577	-0.906433
O16	O	1.077236	-0.449436	-0.550427
O17	O	0.991144	-0.453058	-0.691281
C18	C	0.845432	-0.302276	-0.617943
C19	C	0.767506	-0.305605	-0.612024
C20	C	1.035281	-0.476684	-0.619098
C21	C	1.038637	-0.554606	-0.613690
C22	C	1.059879	-0.995223	-0.579403
C23	C	1.056720	-0.922007	-0.584486
C24	C	1.010285	-0.887314	-0.660301
C25	C	0.967002	-0.925841	-0.731029
C26	C	0.970158	-0.999056	-0.725940
C27	C	0.998509	-0.666349	-0.679329
C28	C	0.995358	-0.593128	-0.684416
C29	C	1.085075	-0.589299	-0.537870
C30	C	1.088230	-0.662515	-0.532792
C31	C	1.044944	-0.701036	-0.603516
C32	C	1.007057	-0.812475	-0.665501
C33	C	1.048170	-0.775874	-0.598309
C34	C	0.729023	-0.262385	-0.689256
C35	C	0.655803	-0.265509	-0.683684
C36	C	0.621067	-0.311858	-0.600886
C37	C	0.659554	-0.355080	-0.523646
C38	C	0.732773	-0.351951	-0.529213
C39	C	0.400088	-0.323542	-0.580070
C40	C	0.326864	-0.326669	-0.574511
C41	C	0.323118	-0.237097	-0.734549
C42	C	0.396338	-0.233975	-0.740113
C43	C	0.434819	-0.277195	-0.662869
C44	C	0.546224	-0.315055	-0.595191
C45	C	0.509660	-0.273994	-0.668559
C46	C	1.210455	-0.286761	-0.645797
C47	C	1.288381	-0.283449	-0.651743
C48	C	1.027640	-0.294453	-0.944895
C49	C	1.027663	-0.294419	-1.078299
C50	C	1.019883	-0.111670	-0.644665
C51	C	1.016600	-0.033745	-0.650129
C52	C	1.027573	-0.294561	-0.320015
C53	C	1.027678	-0.294391	-0.186635
H54	H	1.097695	-1.023464	-0.517673
O55	O	1.093361	-0.809592	-0.524851
C56	C	1.140429	-0.849953	-0.593779
H57	H	1.143763	-0.827658	-0.690175
H58	H	1.194437	-0.848453	-0.554532
H59	H	1.121148	-0.906383	-0.592367
H60	H	1.126041	-0.690757	-0.471053
H61	H	0.969250	-0.784223	-0.727234
O62	O	0.618385	-0.223457	-0.758544
C63	C	0.574080	-0.179950	-0.690298
H64	H	0.595934	-0.174607	-0.597770
H65	H	0.570976	-0.126063	-0.737580
H66	H	0.519507	-0.203995	-0.680361
H67	H	1.120316	-0.557928	-0.480289
H68	H	0.517934	-0.352792	-0.527777
H69	H	0.957543	-0.564885	-0.746159
O70	O	0.762652	-0.217301	-0.769726
C71	C	0.712982	-0.179837	-0.836716
H72	H	0.660673	-0.179607	-0.783764
H73	H	0.731802	-0.123705	-0.855151
H74	H	0.706309	-0.205904	-0.925403
H75	H	0.298584	-0.364415	-0.507086
O76	O	0.543325	-0.229012	-0.749147
C77	C	0.526138	-0.245193	-0.866288
H78	H	0.474116	-0.274411	-0.862776
H79	H	0.521515	-0.194741	-0.923605
H80	H	0.568885	-0.279510	-0.907206
H81	H	0.963257	-0.697704	-0.736908
H82	H	0.929190	-0.897590	-0.792755
H83	H	0.424615	-0.196236	-0.807541
H84	H	0.934919	-1.030420	-0.783538
O85	O	0.285663	-0.195213	-0.809617
C86	C	0.245038	-0.236986	-0.881033
H87	H	0.236305	-0.290557	-0.834008
H88	H	0.192347	-0.210638	-0.895279
H89	H	0.273610	-0.243539	-0.971557
H90	H	0.431410	-0.358735	-0.517173
H91	H	0.764105	-0.387145	-0.466321
O92	O	1.098837	-0.884692	-0.515751
C93	C	1.140490	-0.931013	-0.447731
H94	H	1.145148	-0.983077	-0.493452
H95	H	1.194820	-0.907464	-0.440702
H96	H	1.115186	-0.939953	-0.354037
O97	O	0.625785	-0.400179	-0.443379
C98	C	0.585360	-0.447304	-0.505194
H99	H	0.607639	-0.450753	-0.601078
H100	H	0.586801	-0.501264	-0.457798
H101	H	0.528952	-0.428002	-0.506689
