data_functionalizedCrystal
_audit_creation_method	'MofGen! by Chris Wilmer'
_symmetry_space_group_name_H-M	'P1'
_symmetry_Int_Tables_number	1
_symmetry_cell_setting	triclinic
loop_
_symmetry_equiv_pos_as_xyz
  x,y,z
_cell_length_a	17.699083
_cell_length_b	16.176319
_cell_length_c	17.699103
_cell_angle_alpha	90.012529
_cell_angle_beta	96.712962
_cell_angle_gamma	90.005199
loop_
_atom_site_label
_atom_site_type_symbol
_atom_site_fract_x
_atom_site_fract_y
_atom_site_fract_z
O1	O	-1.004079	0.068631	0.095714
O2	O	-0.783701	0.068662	0.108166
O3	O	-0.900108	0.068630	-0.008248
O4	O	-0.887671	0.068663	0.212128
O5	O	-0.900106	-0.068863	-0.008259
O6	O	-0.783699	-0.068832	0.108156
O7	O	-1.004077	-0.068862	0.095703
Cu8	Cu	-0.893888	-0.081401	0.101928
Cu9	Cu	-0.893890	0.081201	0.101941
O10	O	-0.887669	-0.068830	0.212118
C11	C	-0.755503	-0.000081	0.107715
C12	C	-0.671485	-0.000071	0.106376
C13	C	-0.622869	-0.000060	0.174709
C14	C	-0.543925	-0.000070	0.173447
C15	C	-0.513600	-0.000085	0.103851
C16	C	-0.562222	-0.000098	0.035513
C17	C	-0.641164	-0.000094	0.036776
C18	C	-0.243859	-0.000117	0.030418
C19	C	-0.164910	-0.000119	0.029160
C20	C	-0.146620	-0.000093	0.167088
C21	C	-0.225562	-0.000089	0.168351
C22	C	-0.274177	-0.000106	0.100014
C23	C	-0.359777	-0.000097	0.101383
C24	C	-0.428002	-0.000089	0.102480
N25	N	-0.893891	-0.195766	0.101919
C26	C	-0.899659	-0.000119	-0.036450
C27	C	-0.898315	-0.000126	-0.120468
C28	C	-0.032275	-0.000115	0.096155
C29	C	-0.116293	-0.000114	0.097493
N30	N	-0.893892	0.195566	0.101944
C31	C	-0.945533	0.238816	0.050497
C32	C	-0.945536	0.325363	0.050496
C33	C	-0.893894	0.368659	0.101938
C34	C	-0.842251	0.325402	0.153390
C35	C	-0.842252	0.238857	0.153395
C36	C	-0.842245	0.674431	0.153373
C37	C	-0.842246	0.760982	0.153363
C38	C	-0.945529	0.760937	0.050474
C39	C	-0.945530	0.674391	0.050478
C40	C	-0.893890	0.631143	0.101933
C41	C	-0.893889	0.537299	0.101935
C42	C	-0.893891	0.462501	0.101933
C43	C	-0.890091	0.074877	-0.636173
C44	C	-0.891354	0.074870	-0.557230
C45	C	-0.891982	-0.000083	-0.517777
C46	C	-0.891356	-0.075033	-0.557273
C47	C	-0.890099	-0.075025	-0.636216
C48	C	-0.896426	-0.075068	-0.238907
C49	C	-0.897681	-0.075071	-0.159958
C50	C	-0.897681	0.074826	-0.159921
C51	C	-0.896424	0.074834	-0.238863
C52	C	-0.895802	-0.000115	-0.278353
C53	C	-0.894434	-0.000106	-0.363952
C54	C	-0.893344	-0.000093	-0.432178
C55	C	-0.888119	-0.000079	0.240320
C56	C	-0.889463	-0.000067	0.324337
H57	H	-0.680747	-0.000102	-0.018868
H58	H	-0.800205	0.360658	0.195279
H59	H	-0.107027	-0.000084	0.222732
H60	H	-0.800202	0.203643	0.195289
H61	H	-0.987580	0.796159	0.008579
H62	H	-0.898189	0.135854	-0.127759
C63	C	-0.889408	0.157332	-0.679565
N64	N	-0.888899	0.219440	-0.712246
C65	C	-0.785462	0.808605	0.209985
N66	N	-0.742704	0.844475	0.252640
C67	C	-0.785432	0.626868	0.209968
N68	N	-0.742636	0.591041	0.252596
H69	H	-0.537525	-0.000122	-0.021153
C70	C	-0.892044	0.157314	-0.513794
N71	N	-0.892565	0.219415	-0.481079
H72	H	-0.895908	0.135868	-0.270981
C73	C	-1.002342	0.191199	-0.006096
N74	N	-1.045134	0.155337	-0.048723
H75	H	-0.898189	-0.136110	-0.127838
C76	C	-0.895730	-0.157515	-0.282333
N77	N	-0.895201	-0.219618	-0.315044
H78	H	-0.891873	-0.136061	-0.525145
C79	C	-0.889405	-0.157469	-0.679654
N80	N	-0.888885	-0.219569	-0.712371
C81	C	-1.002341	0.372934	-0.006104
N82	N	-1.045129	0.408765	-0.048738
C83	C	-0.490450	-0.000074	0.248618
N84	N	-0.450173	-0.000082	0.305241
C85	C	-0.656219	-0.000045	0.251271
N86	N	-0.681336	-0.000038	0.308940
H87	H	-0.140223	-0.000132	-0.027517
C88	C	-0.258915	-0.000078	0.244912
N89	N	-0.284035	-0.000075	0.302579
C90	C	-0.297326	-0.000130	-0.044756
N91	N	-0.337600	-0.000139	-0.101381
C92	C	-1.002332	0.626771	-0.006120
N93	N	-1.045117	0.590905	-0.048751
