data_functionalizedCrystal
_audit_creation_method	'MofGen! by Chris Wilmer'
_symmetry_space_group_name_H-M	'P1'
_symmetry_Int_Tables_number	1
_symmetry_cell_setting	triclinic
loop_
_symmetry_equiv_pos_as_xyz
  x,y,z
_cell_length_a	16.704493
_cell_length_b	20.016444
_cell_length_c	16.704464
_cell_angle_alpha	62.458069
_cell_angle_beta	90.000586
_cell_angle_gamma	57.659548
loop_
_atom_site_label
_atom_site_type_symbol
_atom_site_fract_x
_atom_site_fract_y
_atom_site_fract_z
Zr1	Zr	0.761582	0.731247	-0.160776
O2	O	0.624821	0.870622	-0.278987
O3	O	0.803502	0.591873	-0.124536
O4	O	0.791383	0.731246	-0.291108
O5	O	0.646504	0.731249	0.018978
O6	O	0.922777	0.731245	-0.300671
O7	O	0.636939	0.731248	-0.112415
O8	O	0.944454	0.481931	-0.002704
O9	O	0.624827	0.980562	-0.278989
O10	O	0.919444	0.649198	-0.116219
O11	O	0.828525	0.649199	-0.011025
O12	O	0.814257	0.813294	-0.207142
O13	O	0.723338	0.813295	-0.101948
Zr14	Zr	0.986395	0.731245	0.033528
Zr15	Zr	0.971140	0.731245	-0.176028
Zr16	Zr	0.776838	0.731248	0.048781
Zr17	Zr	0.761592	0.906589	-0.160779
Zr18	Zr	0.986386	0.555903	0.033532
O19	O	0.944476	0.870620	-0.002712
O20	O	0.922785	0.870619	-0.300674
O21	O	0.646512	0.870623	0.018975
O22	O	1.123157	0.591870	0.151739
O23	O	1.101466	0.591870	-0.146223
O24	O	0.825193	0.591874	0.173426
O25	O	1.101473	0.731243	-0.146226
O26	O	0.956594	0.731246	0.163860
O27	O	0.825201	0.731248	0.173424
O28	O	1.111039	0.731244	-0.014833
O29	O	0.791397	0.980561	-0.291113
O30	O	0.956580	0.481932	0.163865
O31	O	1.123151	0.481930	0.151741
O32	O	1.111025	0.481929	-0.014828
O33	O	0.636953	0.980563	-0.112419
O34	O	0.803523	0.980561	-0.124543
O35	O	0.933721	0.649199	0.079895
O36	O	1.024640	0.649197	-0.025299
O37	O	0.919453	0.813293	-0.116222
O38	O	0.828534	0.813294	-0.011028
C39	C	0.873977	0.511919	-0.063620
C40	C	0.873972	0.437482	-0.063618
C41	C	0.796334	0.326787	-0.130744
C42	C	0.796340	0.256843	-0.130748
C43	C	0.951651	0.135705	0.003500
C44	C	0.951648	0.205649	0.003499
C45	C	0.873984	0.301190	-0.063622
C46	C	0.873994	0.161302	-0.063625
C47	C	0.874001	0.085465	-0.063629
C48	C	0.873977	0.377033	-0.063620
C49	C	0.611864	0.731249	-0.044545
C50	C	0.522901	0.731250	-0.038070
C51	C	0.345200	0.731234	-0.170682
C52	C	0.261611	0.731235	-0.164601
C53	C	0.272138	0.731246	-0.019827
C54	C	0.355727	0.731245	-0.025907
C55	C	0.392254	0.731241	-0.101338
C56	C	0.475840	0.731246	-0.107421
C57	C	0.486369	0.731250	0.037357
C58	C	0.402780	0.731251	0.043437
C59	C	1.136114	0.731243	-0.082702
C60	C	1.225076	0.731242	-0.089178
C61	C	0.854907	0.731245	-0.325747
C62	C	0.848430	0.731245	-0.414709
C63	C	0.874001	0.950573	-0.063628
C64	C	0.874005	1.025010	-0.063629
C65	C	0.766925	0.731244	-0.534831
C66	C	0.773004	0.731244	-0.451243
C67	C	0.917786	0.731242	-0.461769
C68	C	0.911707	0.731242	-0.545357
C69	C	0.836274	0.731244	-0.581886
C70	C	0.830192	0.731250	-0.665479
C71	C	0.974978	0.731241	-0.676000
C72	C	0.981056	0.731242	-0.592411
C73	C	0.893071	0.731247	0.198499
C74	C	0.899548	0.731247	0.287462
C75	C	1.136101	0.511917	-0.082698
C76	C	1.225060	0.437478	-0.089172
C77	C	0.893059	0.511920	0.198504
C78	C	0.899531	0.437483	0.287467
C79	C	1.155184	0.511917	0.179425
C80	C	1.250619	0.437479	0.261913
C81	C	0.592794	0.950575	-0.306673
C82	C	0.497359	1.025013	-0.389161
C83	C	0.611876	0.950576	-0.044549
C84	C	0.522918	1.025014	-0.038076
C85	C	0.854919	0.950572	-0.325751
C86	C	0.848447	1.025009	-0.414715
C87	C	1.211924	0.402521	-0.139680
C88	C	1.295500	0.332588	-0.145782
C89	C	1.392213	0.297608	-0.101369
C90	C	1.405347	0.332572	-0.050859
C91	C	1.321771	0.402509	-0.044764
C92	C	0.957482	0.402526	0.376714
C93	C	0.963561	0.332594	0.460313
C94	C	0.911693	0.297616	0.454663
C95	C	0.853734	0.332579	0.365407
C96	C	0.847651	0.402515	0.281811
C97	C	1.342904	0.402522	0.245740
C98	C	1.432582	0.332589	0.323238
C99	C	1.429974	0.297610	0.416909
C100	C	1.337679	0.332575	0.433081
C101	C	1.248002	0.402511	0.355584
C102	C	0.405074	1.059979	-0.372988
C103	C	0.315395	1.129934	-0.450486
C104	C	0.318004	1.164916	-0.544156
C105	C	0.410299	1.129947	-0.560329
C106	C	0.499975	1.059999	-0.482831
C107	C	0.536053	1.059978	0.012424
C108	C	0.452475	1.129931	0.018502
C109	C	0.355763	1.164913	-0.025913
C110	C	0.342629	1.129946	-0.076419
C111	C	0.426206	1.060000	-0.082503
C112	C	0.900327	1.059966	-0.409034
C113	C	0.894265	1.129898	-0.492618
C114	C	0.836317	1.164878	-0.581882
C115	C	0.784435	1.129914	-0.587560
C116	C	0.790503	1.059979	-0.503977
H117	H	1.014885	0.184799	0.058158
H118	H	1.484101	0.304081	-0.014701
H119	H	0.505577	0.731246	-0.168842
Cl120	Cl	0.391112	0.731243	-0.265514
H121	H	0.244976	1.221872	-0.607251
Cl122	Cl	0.545525	0.731267	0.124531
H123	H	1.031444	0.731245	-0.714324
H124	H	0.412410	1.158439	-0.636604
H125	H	1.332481	0.430961	-0.003629
Cl126	Cl	0.469009	1.173870	0.082004
H127	H	1.010759	0.304135	0.532980
Cl128	Cl	0.250704	1.252845	-0.018254
Cl129	Cl	0.919353	0.209694	0.559766
H130	H	1.133182	0.431001	-0.175859
H131	H	1.042475	0.731236	-0.562658
H132	H	0.575115	1.031530	-0.496012
Cl133	Cl	0.657625	1.016020	0.068264
H134	H	1.460257	0.240661	-0.106339
H135	H	0.811506	0.304090	0.360821
H136	H	1.014882	0.057909	0.058148
Cl137	Cl	1.278966	0.288645	-0.209278
H138	H	0.999721	0.430998	0.381332
Cl139	Cl	0.774798	0.446447	0.169618
H140	H	1.345046	0.430991	0.169475
H141	H	1.507724	0.304128	0.310053
H142	H	0.748251	1.031525	-0.508615
Cl143	Cl	0.221040	1.173930	-0.132246
Cl144	Cl	0.698703	0.446893	-0.215128
Cl145	Cl	0.828696	1.252801	-0.686949
Cl146	Cl	0.356857	0.731254	0.138261
H147	H	0.415497	1.031534	-0.123622
H148	H	1.503002	0.240663	0.480004
H149	H	0.733111	0.277693	-0.185406
Cl150	Cl	0.202462	0.731224	-0.251779
Cl151	Cl	0.959488	1.173843	-0.485457
H152	H	0.979207	0.731231	-0.432011
H153	H	0.947514	1.031496	-0.336360
H154	H	0.402931	1.031500	-0.296722
Cl155	Cl	0.711579	1.173908	-0.699784
H156	H	1.172864	0.430964	0.368766
Cl157	Cl	0.226219	0.731237	0.075002
H158	H	0.768768	0.731255	-0.695222
Cl159	Cl	0.672088	0.731261	-0.580762
H160	H	1.335570	0.304085	0.509358
H161	H	0.716535	0.731243	-0.412932
H162	H	0.240255	1.158394	-0.437299
