data_functionalizedCrystal
_audit_creation_method	'MofGen! by Chris Wilmer'
_symmetry_space_group_name_H-M	'P1'
_symmetry_Int_Tables_number	1
_symmetry_cell_setting	triclinic
loop_
_symmetry_equiv_pos_as_xyz
  x,y,z
_cell_length_a	21.395362
_cell_length_b	19.805405
_cell_length_c	21.395356
_cell_angle_alpha	89.970920
_cell_angle_beta	89.957023
_cell_angle_gamma	90.042288
loop_
_atom_site_label
_atom_site_type_symbol
_atom_site_fract_x
_atom_site_fract_y
_atom_site_fract_z
Zn1	Zn	0.957872	-0.269193	-0.354580
Zn2	Zn	1.207872	-0.019193	-0.104580
Zn3	Zn	1.457872	0.230807	0.145420
Zn4	Zn	1.707872	0.480807	0.395420
Zn5	Zn	0.957784	-0.382381	-0.249800
Zn6	Zn	1.207784	-0.132381	0.000200
Zn7	Zn	1.457784	0.117619	0.250200
Zn8	Zn	1.707784	0.367619	0.500200
Zn9	Zn	0.853089	-0.269243	-0.249781
Zn10	Zn	1.103089	-0.019243	0.000219
Zn11	Zn	1.353089	0.230757	0.250219
Zn12	Zn	1.603089	0.480757	0.500219
Zn13	Zn	0.853064	-0.382377	-0.354504
Zn14	Zn	1.103064	-0.132377	-0.104504
Zn15	Zn	1.353064	0.117623	0.145496
Zn16	Zn	1.603064	0.367623	0.395496
O17	O	0.905452	-0.325799	-0.302166
O18	O	1.155452	-0.075799	-0.052166
O19	O	1.405452	0.174201	0.197834
O20	O	1.655452	0.424201	0.447834
O21	O	1.045539	-0.284189	-0.340720
O22	O	1.295539	-0.034189	-0.090720
O23	O	1.545539	0.215811	0.159280
O24	O	1.795539	0.465811	0.409280
O25	O	0.943870	-0.367396	-0.162119
O26	O	1.193870	-0.117396	0.087881
O27	O	1.443870	0.132604	0.337881
O28	O	1.693870	0.382604	0.587881
O29	O	0.867036	-0.174520	-0.263706
O30	O	1.117036	0.075480	-0.013706
O31	O	1.367036	0.325480	0.236294
O32	O	1.617036	0.575480	0.486294
O33	O	1.045474	-0.367348	-0.263738
O34	O	1.295474	-0.117348	-0.013738
O35	O	1.545474	0.132652	0.236262
O36	O	1.795474	0.382652	0.486262
O37	O	0.944020	-0.174483	-0.340701
O38	O	1.194020	0.075517	-0.090701
O39	O	1.444020	0.325517	0.159299
O40	O	1.694020	0.575517	0.409299
O41	O	0.866951	-0.284274	-0.162105
O42	O	1.116951	-0.034274	0.087895
O43	O	1.366951	0.215726	0.337895
O44	O	1.616951	0.465726	0.587895
O45	O	0.765408	-0.284270	-0.263633
O46	O	1.015408	-0.034270	-0.013633
O47	O	1.265408	0.215730	0.236367
O48	O	1.515408	0.465730	0.486367
O49	O	0.866994	-0.367341	-0.442192
O50	O	1.116994	-0.117341	-0.192192
O51	O	1.366994	0.132659	0.057808
O52	O	1.616994	0.382659	0.307808
O53	O	0.765390	-0.367389	-0.340573
O54	O	1.015390	-0.117389	-0.090573
O55	O	1.265390	0.132611	0.159427
O56	O	1.515390	0.382611	0.409427
O57	O	0.943996	-0.284185	-0.442247
O58	O	1.193996	-0.034185	-0.192247
O59	O	1.443996	0.215815	0.057753
O60	O	1.693996	0.465815	0.307753
O61	O	0.943846	-0.477097	-0.263665
O62	O	1.193846	-0.227097	-0.013665
O63	O	1.443846	0.022903	0.236335
O64	O	1.693846	0.272903	0.486335
O65	O	0.866908	-0.477094	-0.340591
O66	O	1.116908	-0.227094	-0.090591
O67	O	1.366908	0.022906	0.159409
O68	O	1.616908	0.272906	0.409409
C69	C	0.742665	-0.325835	-0.302093
C70	C	0.992665	-0.075835	-0.052093
C71	C	1.242665	0.174165	0.197907
C72	C	1.492665	0.424165	0.447907
C73	C	0.673024	-0.325866	-0.302077
C74	C	0.923024	-0.075866	-0.052077
C75	C	1.173024	0.174134	0.197923
C76	C	1.423024	0.424134	0.447923
C77	C	0.640317	-0.369204	-0.342080
C78	C	0.890317	-0.119204	-0.092080
C79	C	1.140317	0.130796	0.157920
C80	C	1.390317	0.380796	0.407920
C81	C	0.574882	-0.369187	-0.342108
C82	C	0.824882	-0.119187	-0.092108
C83	C	1.074882	0.130813	0.157892
C84	C	1.324882	0.380813	0.407892
C85	C	0.542155	-0.325840	-0.302122
C86	C	0.792155	-0.075840	-0.052122
C87	C	1.042155	0.174160	0.197878
C88	C	1.292155	0.424160	0.447878
C89	C	0.574869	-0.282494	-0.262116
C90	C	0.824869	-0.032494	-0.012116
C91	C	1.074869	0.217506	0.237884
C92	C	1.324869	0.467506	0.487884
C93	C	0.640303	-0.282507	-0.262094
C94	C	0.890303	-0.032507	-0.012094
C95	C	1.140303	0.217493	0.237906
C96	C	1.390303	0.467493	0.487906
C97	C	0.438431	-0.320397	-0.245717
C98	C	0.688431	-0.070397	0.004283
C99	C	0.938431	0.179603	0.254283
C100	C	1.188431	0.429603	0.504283
C101	C	0.372998	-0.320389	-0.245738
C102	C	0.622998	-0.070389	0.004262
C103	C	0.872998	0.179611	0.254262
C104	C	1.122998	0.429611	0.504262
C105	C	0.340335	-0.325796	-0.302191
C106	C	0.590335	-0.075796	-0.052191
C107	C	0.840335	0.174204	0.197809
C108	C	1.090335	0.424204	0.447809
C109	C	0.373112	-0.331225	-0.358624
C110	C	0.623112	-0.081225	-0.108624
C111	C	0.873112	0.168775	0.141376
C112	C	1.123112	0.418775	0.391376
C113	C	0.438546	-0.331239	-0.358602
C114	C	0.688546	-0.081239	-0.108602
C115	C	0.938546	0.168761	0.141398
C116	C	1.188546	0.418761	0.391398
C117	C	0.471203	-0.325821	-0.302142
C118	C	0.721203	-0.075821	-0.052142
C119	C	0.971203	0.174179	0.197858
C120	C	1.221203	0.424179	0.447858
C121	C	0.236676	-0.369118	-0.342227
C122	C	0.486676	-0.119118	-0.092227
C123	C	0.736676	0.130882	0.157773
C124	C	0.986676	0.380882	0.407773
C125	C	0.171239	-0.369096	-0.342256
C126	C	0.421239	-0.119096	-0.092256
C127	C	0.671239	0.130904	0.157744
C128	C	0.921239	0.380904	0.407744
C129	C	0.171228	-0.282407	-0.262259
C130	C	0.421228	-0.032407	-0.012259
C131	C	0.671228	0.217593	0.237741
C132	C	0.921228	0.467593	0.487741
C133	C	0.236663	-0.282425	-0.262236
C134	C	0.486663	-0.032425	-0.012236
C135	C	0.736663	0.217575	0.237764
C136	C	0.986663	0.467575	0.487764
C137	C	0.269383	-0.325784	-0.302219
C138	C	0.519383	-0.075784	-0.052219
C139	C	0.769383	0.174216	0.197781
C140	C	1.019383	0.424216	0.447781
C141	C	0.905382	-0.501655	-0.302136
C142	C	1.155382	-0.251655	-0.052136
C143	C	1.405382	-0.001655	0.197864
C144	C	1.655382	0.248345	0.447864
C145	C	0.905409	-0.576887	-0.302144
C146	C	1.155409	-0.326887	-0.052144
C147	C	1.405409	-0.076887	0.197856
C148	C	1.655409	0.173113	0.447856
C149	C	0.945509	-0.612210	-0.262130
C150	C	1.195509	-0.362210	-0.012130
C151	C	1.445509	-0.112210	0.237870
C152	C	1.695509	0.137790	0.487870
C153	C	0.945536	-0.682898	-0.262144
C154	C	1.195536	-0.432898	-0.012144
C155	C	1.445536	-0.182898	0.237856
C156	C	1.695536	0.067102	0.487856
C157	C	0.905459	-0.718262	-0.302169
C158	C	1.155459	-0.468262	-0.052169
C159	C	1.405459	-0.218262	0.197831
C160	C	1.655459	0.031738	0.447831
C161	C	0.865357	-0.682934	-0.342187
C162	C	1.115357	-0.432934	-0.092187
C163	C	1.365357	-0.182934	0.157813
C164	C	1.615357	0.067066	0.407813
C165	C	0.865334	-0.612247	-0.342175
C166	C	1.115334	-0.362247	-0.092175
C167	C	1.365334	-0.112247	0.157825
C168	C	1.615334	0.137753	0.407825
C169	C	0.865449	-0.968007	-0.342233
C170	C	1.115449	-0.718007	-0.092233
C171	C	1.365449	-0.468007	0.157767
C172	C	1.615449	-0.218007	0.407767
C173	C	0.865474	-1.038699	-0.342240
C174	C	1.115474	-0.788699	-0.092240
C175	C	1.365474	-0.538699	0.157760
C176	C	1.615474	-0.288699	0.407760
C177	C	0.945651	-1.038659	-0.262202
C178	C	1.195651	-0.788659	-0.012202
C179	C	1.445651	-0.538659	0.237798
C180	C	1.695651	-0.288659	0.487798
C181	C	0.945628	-0.967972	-0.262191
C182	C	1.195628	-0.717972	-0.012191
C183	C	1.445628	-0.467972	0.237809
C184	C	1.695628	-0.217972	0.487809
C185	C	0.905529	-0.932650	-0.302210
C186	C	1.155529	-0.682650	-0.052210
C187	C	1.405529	-0.432650	0.197790
C188	C	1.655529	-0.182650	0.447790
C189	C	0.905501	-0.856001	-0.302196
C190	C	1.155501	-0.606001	-0.052196
C191	C	1.405501	-0.356001	0.197804
C192	C	1.655501	-0.106001	0.447804
C193	C	0.905483	-0.794909	-0.302181
C194	C	1.155483	-0.544909	-0.052181
C195	C	1.405483	-0.294909	0.197819
C196	C	1.655483	-0.044909	0.447819
C197	C	1.068876	-0.325763	-0.302239
C198	C	1.318876	-0.075763	-0.052239
C199	C	1.568876	0.174237	0.197761
C200	C	1.818876	0.424237	0.447761
C201	C	1.138517	-0.325748	-0.302271
C202	C	1.388517	-0.075748	-0.052271
C203	C	1.638517	0.174252	0.197729
C204	C	1.888517	0.424252	0.447729
C205	C	0.905502	-0.325757	-0.465589
C206	C	1.155502	-0.075757	-0.215589
C207	C	1.405502	0.174243	0.034411
C208	C	1.655502	0.424243	0.284411
C209	C	0.905523	-0.325739	-0.535231
C210	C	1.155523	-0.075739	-0.285231
C211	C	1.405523	0.174261	-0.035231
C212	C	1.655523	0.424261	0.214769
C213	C	0.905540	-0.149256	-0.302210
C214	C	1.155540	0.100744	-0.052210
C215	C	1.405540	0.350744	0.197790
C216	C	1.655540	0.600744	0.447790
C217	C	0.905578	-0.074024	-0.302229
C218	C	1.155578	0.175976	-0.052229
C219	C	1.405578	0.425976	0.197771
C220	C	1.655578	0.675976	0.447771
C221	C	0.865482	-0.282452	-0.567927
C222	C	1.115482	-0.032452	-0.317927
C223	C	1.365482	0.217548	-0.067927
C224	C	1.615482	0.467548	0.182073
C225	C	0.865479	-0.282440	-0.633362
C226	C	1.115479	-0.032440	-0.383362
C227	C	1.365479	0.217560	-0.133362
C228	C	1.615479	0.467560	0.116638
C229	C	0.905530	-0.325707	-0.666099
C230	C	1.155530	-0.075707	-0.416099
C231	C	1.405530	0.174293	-0.166099
C232	C	1.655530	0.424293	0.083901
C233	C	0.945574	-0.369002	-0.633395
C234	C	1.195574	-0.119002	-0.383395
C235	C	1.445574	0.130998	-0.133395
C236	C	1.695574	0.380998	0.116605
C237	C	0.945570	-0.369018	-0.567961
C238	C	1.195570	-0.119018	-0.317961
C239	C	1.445570	0.130982	-0.067961
C240	C	1.695570	0.380982	0.182039
C241	C	0.961982	-0.331011	-0.769804
C242	C	1.211982	-0.081011	-0.519804
C243	C	1.461982	0.168989	-0.269804
C244	C	1.711982	0.418989	-0.019804
C245	C	0.961987	-0.330990	-0.835237
C246	C	1.211987	-0.080990	-0.585237
C247	C	1.461987	0.169010	-0.335237
C248	C	1.711987	0.419010	-0.085237
C249	C	0.905540	-0.325661	-0.867920
C250	C	1.155540	-0.075661	-0.617920
C251	C	1.405540	0.174339	-0.367920
C252	C	1.655540	0.424339	-0.117920
C253	C	0.849087	-0.320338	-0.835161
C254	C	1.099087	-0.070338	-0.585161
C255	C	1.349087	0.179662	-0.335161
C256	C	1.599087	0.429662	-0.085161
C257	C	0.849084	-0.320354	-0.769727
C258	C	1.099084	-0.070354	-0.519727
C259	C	1.349084	0.179646	-0.269727
C260	C	1.599084	0.429646	-0.019727
C261	C	0.905538	-0.325694	-0.737051
C262	C	1.155538	-0.075694	-0.487051
C263	C	1.405538	0.174306	-0.237051
C264	C	1.655538	0.424306	0.012949
C265	C	0.865493	-0.282358	-0.971569
C266	C	1.115493	-0.032358	-0.721569
C267	C	1.365493	0.217642	-0.471569
C268	C	1.615493	0.467642	-0.221569
C269	C	0.865490	-0.282351	-1.037005
C270	C	1.115490	-0.032351	-0.787005
C271	C	1.365490	0.217649	-0.537005
C272	C	1.615490	0.467649	-0.287005
C273	C	0.945590	-0.368909	-1.037037
C274	C	1.195590	-0.118909	-0.787037
C275	C	1.445590	0.131091	-0.537037
C276	C	1.695590	0.381091	-0.287037
C277	C	0.945587	-0.368920	-0.971601
C278	C	1.195587	-0.118920	-0.721601
C279	C	1.445587	0.131080	-0.471601
C280	C	1.695587	0.381080	-0.221601
C281	C	0.905540	-0.325642	-0.938871
C282	C	1.155540	-0.075642	-0.688871
C283	C	1.405540	0.174358	-0.438871
C284	C	1.655540	0.424358	-0.188871
C285	C	0.905439	-0.325792	-0.139378
C286	C	1.155439	-0.075792	0.110622
C287	C	1.405439	0.174208	0.360622
C288	C	1.655439	0.424208	0.610622
C289	C	0.905540	-0.325619	-0.069738
C290	C	1.155540	-0.075619	0.180262
C291	C	1.405540	0.174381	0.430262
C292	C	1.655540	0.424381	0.680262
H293	H	0.465231	-0.335657	-0.404552
H294	H	0.715231	-0.085657	-0.154552
H295	H	0.965231	0.164343	0.095448
H296	H	1.215231	0.414343	0.345448
F297	F	0.789008	-0.314663	-0.869939
F298	F	1.039008	-0.064663	-0.619939
F299	F	1.289008	0.185337	-0.369939
F300	F	1.539008	0.435337	-0.119939
F301	F	0.822655	-0.574654	-0.384765
F302	F	1.072655	-0.324654	-0.134765
F303	F	1.322655	-0.074654	0.115235
F304	F	1.572655	0.175346	0.365235
H305	H	0.978305	-1.067427	-0.229618
H306	H	1.228305	-0.817427	0.020382
H307	H	1.478305	-0.567427	0.270382
H308	H	1.728305	-0.317427	0.520382
F309	F	0.136431	-0.415221	-0.384838
F310	F	0.386431	-0.165221	-0.134838
F311	F	0.636431	0.084779	0.115162
F312	F	0.886431	0.334779	0.365162
F313	F	0.271501	-0.415260	-0.384783
F314	F	0.521501	-0.165260	-0.134783
F315	F	0.771501	0.084740	0.115217
F316	F	1.021501	0.334740	0.365217
H317	H	0.548247	-0.404477	-0.374685
H318	H	0.798247	-0.154477	-0.124685
H319	H	1.048247	0.095523	0.125315
H320	H	1.298247	0.345523	0.375315
F321	F	0.988218	-0.720489	-0.219558
F322	F	1.238218	-0.470489	0.030442
F323	F	1.488218	-0.220489	0.280442
F324	F	1.738218	0.029511	0.530442
F325	F	0.822771	-0.930424	-0.384825
F326	F	1.072771	-0.680424	-0.134825
F327	F	1.322771	-0.430424	0.115175
F328	F	1.572771	-0.180424	0.365175
H329	H	0.803118	-0.316022	-0.743058
H330	H	1.053118	-0.066022	-0.493058
H331	H	1.303118	0.183978	-0.243058
H332	H	1.553118	0.433978	0.006942
F333	F	0.988190	-0.415091	-0.533162
F334	F	1.238190	-0.165091	-0.283162
F335	F	1.488190	0.084909	-0.033162
F336	F	1.738190	0.334909	0.216838
F337	F	0.540038	-0.236359	-0.219563
F338	F	0.790038	0.013641	0.030437
F339	F	1.040038	0.263641	0.280437
F340	F	1.290038	0.513641	0.530437
H341	H	0.666932	-0.247215	-0.229519
H342	H	0.916932	0.002785	0.020481
H343	H	1.166932	0.252785	0.270481
H344	H	1.416932	0.502785	0.520481
F345	F	0.338120	-0.314611	-0.185677
F346	F	0.588120	-0.064611	0.064323
F347	F	0.838120	0.185389	0.314323
F348	F	1.088120	0.435389	0.564323
F349	F	0.988195	-0.415052	-0.668237
F350	F	1.238195	-0.165052	-0.418237
F351	F	1.488195	0.084948	-0.168237
F352	F	1.738195	0.334948	0.081763
F353	F	0.822817	-1.076335	-0.384843
F354	F	1.072817	-0.826335	-0.134843
F355	F	1.322817	-0.576335	0.115157
F356	F	1.572817	-0.326335	0.365157
H357	H	0.144582	-0.247110	-0.229705
H358	H	0.394582	0.002890	0.020295
H359	H	0.644582	0.252890	0.270295
H360	H	0.894582	0.502890	0.520295
F361	F	0.675137	-0.415348	-0.384635
F362	F	0.925137	-0.165348	-0.134635
F363	F	1.175137	0.084652	0.115365
F364	F	1.425137	0.334652	0.365365
H365	H	0.346519	-0.335627	-0.404594
H366	H	0.596519	-0.085627	-0.154594
H367	H	0.846519	0.164373	0.095406
H368	H	1.096519	0.414373	0.345406
H369	H	0.832879	-0.247104	-1.063625
H370	H	1.082879	0.002896	-0.813625
H371	H	1.332879	0.252896	-0.563625
H372	H	1.582879	0.502896	-0.313625
F373	F	1.022067	-0.336660	-0.870095
F374	F	1.272067	-0.086660	-0.620095
F375	F	1.522067	0.163340	-0.370095
F376	F	1.772067	0.413340	-0.120095
F377	F	0.822707	-0.720573	-0.384788
F378	F	1.072707	-0.470573	-0.134788
F379	F	1.322707	-0.220573	0.115212
F380	F	1.572707	0.029427	0.365212
F381	F	1.022064	-0.336688	-0.735027
F382	F	1.272064	-0.086688	-0.485027
F383	F	1.522064	0.163312	-0.235027
F384	F	1.772064	0.413312	0.014973
H385	H	0.978142	-0.583421	-0.229535
H386	H	1.228142	-0.333421	0.020465
H387	H	1.478142	-0.083421	0.270465
H388	H	1.728142	0.166579	0.520465
F389	F	0.988211	-0.414961	-1.071873
F390	F	1.238211	-0.164961	-0.821873
F391	F	1.488211	0.085039	-0.571873
F392	F	1.738211	0.335039	-0.321873
H393	H	0.832869	-0.247214	-0.541282
H394	H	1.082869	0.002786	-0.291282
H395	H	1.332869	0.252786	-0.041282
H396	H	1.582869	0.502786	0.208718
H397	H	0.263293	-0.247138	-0.229658
H398	H	0.513293	0.002862	0.020342
H399	H	0.763293	0.252862	0.270342
H400	H	1.013293	0.502862	0.520342
H401	H	0.465020	-0.315991	-0.199743
H402	H	0.715020	-0.065991	0.050257
H403	H	0.965020	0.184009	0.300257
H404	H	1.215020	0.434009	0.550257
F405	F	0.822871	-0.236355	-0.668167
F406	F	1.072871	0.013645	-0.418167
F407	F	1.322871	0.263645	-0.168167
F408	F	1.572871	0.513645	0.081833
F409	F	0.822869	-0.236301	-0.936733
F410	F	1.072869	0.013699	-0.686733
F411	F	1.322869	0.263699	-0.436733
F412	F	1.572869	0.513699	-0.186733
H413	H	0.978261	-0.939181	-0.229597
H414	H	1.228261	-0.689181	0.020403
H415	H	1.478261	-0.439181	0.270403
H416	H	1.728261	-0.189181	0.520403
H417	H	0.978195	-0.404168	-0.944980
H418	H	1.228195	-0.154168	-0.694980
H419	H	1.478195	0.095832	-0.444980
H420	H	1.728195	0.345832	-0.194980
