data_functionalizedCrystal
_audit_creation_method	'MofGen! by Chris Wilmer'
_symmetry_space_group_name_H-M	'P1'
_symmetry_Int_Tables_number	1
_symmetry_cell_setting	triclinic
loop_
_symmetry_equiv_pos_as_xyz
  x,y,z
_cell_length_a	15.944557
_cell_length_b	15.021413
_cell_length_c	15.944499
_cell_angle_alpha	89.992737
_cell_angle_beta	96.510511
_cell_angle_gamma	89.994532
loop_
_atom_site_label
_atom_site_type_symbol
_atom_site_fract_x
_atom_site_fract_y
_atom_site_fract_z
O1	O	-1.114505	0.073987	0.108349
O2	O	-0.869954	0.073997	0.121700
O3	O	-0.998930	0.073993	-0.007253
O4	O	-0.985529	0.073991	0.237302
O5	O	-0.998910	-0.074071	-0.007235
O6	O	-0.869933	-0.074068	0.121719
O7	O	-1.114485	-0.074077	0.108368
Zn8	Zn	-0.992206	-0.097581	0.115046
Zn9	Zn	-0.992233	0.097500	0.115022
O10	O	-0.985508	-0.074073	0.237321
C11	C	-0.838650	-0.000034	0.121154
C12	C	-0.745405	-0.000030	0.119490
C13	C	-0.474789	-0.000044	0.034582
C14	C	-0.525353	-0.073049	0.075523
C15	C	-0.409764	-0.000051	0.113554
C16	C	-0.525354	0.072931	0.075526
C17	C	-0.574676	-0.000040	0.116466
C18	C	-0.459099	-0.073117	0.154474
C19	C	-0.459097	0.072929	0.154465
C20	C	-0.509627	-0.000094	0.195464
C21	C	-0.314763	-0.000059	0.111874
C22	C	-0.669674	-0.000038	0.118152
N23	N	-0.992194	-0.230718	0.115062
C24	C	-0.932546	-0.470400	0.174662
C25	C	-1.008443	-0.529738	0.190971
C26	C	-0.992215	-0.412325	0.115041
C27	C	-0.916339	-0.529729	0.098751
C28	C	-0.992229	-0.587749	0.115023
C29	C	-1.068150	-0.470356	0.131388
C30	C	-0.975996	-0.470343	0.039135
C31	C	-1.051948	-0.529654	0.055411
C32	C	-0.992206	-0.311268	0.115054
C33	C	-0.992247	-0.688804	0.115009
C34	C	-0.145790	-0.000049	0.108902
C35	C	-0.239040	-0.000060	0.110533
C36	C	-0.998372	-0.000037	-0.038538
C37	C	-0.996727	-0.000030	-0.131787
N38	N	-0.992252	0.230638	0.114999
C39	C	-1.071659	-0.000038	-0.423321
C40	C	-1.032697	-0.073043	-0.362288
C41	C	-0.990750	-0.000040	-0.467424
C42	C	-1.032695	0.072937	-0.362312
C43	C	-0.993691	-0.000034	-0.302515
C44	C	-0.951766	-0.073105	-0.407618
C45	C	-0.951776	0.072940	-0.407649
C46	C	-0.912756	-0.000083	-0.346633
C47	C	-0.989059	-0.000045	-0.562424
C48	C	-0.995376	-0.000035	-0.207516
C49	C	-0.986067	-0.000042	0.268606
C50	C	-0.987712	-0.000043	0.361855
H51	H	-0.430153	0.134650	0.187780
C52	C	-1.078911	-0.156425	-0.335131
C53	C	-1.032129	-0.223763	-0.273751
C54	C	-1.078348	-0.307143	-0.246601
C55	C	-1.171349	-0.323186	-0.280829
C56	C	-1.218137	-0.255846	-0.342212
C57	C	-1.171918	-0.172466	-0.369362
H58	H	-0.963279	-0.211889	-0.248410
H59	H	-1.043712	-0.356992	-0.201161
H60	H	-1.205563	-0.384908	-0.260730
H61	H	-1.286987	-0.267720	-0.367553
H62	H	-1.206554	-0.122617	-0.414802
H63	H	-0.554286	0.134648	0.042153
C64	C	-0.905594	0.156322	-0.434842
C65	C	-0.813063	0.173260	-0.399436
C66	C	-0.766889	0.256650	-0.426633
C67	C	-0.813246	0.323101	-0.489236
C68	C	-0.905783	0.306165	-0.524646
C69	C	-0.951957	0.222775	-0.497449
H70	H	-0.778742	0.124066	-0.353090
H71	H	-0.698387	0.269186	-0.400420
H72	H	-0.779065	0.384831	-0.509369
H73	H	-0.940104	0.355358	-0.570992
H74	H	-1.020459	0.210238	-0.523662
C75	C	-0.864448	-0.435241	0.242825
C76	C	-0.868619	-0.458712	0.336278
C77	C	-0.800526	-0.423551	0.404442
C78	C	-0.728262	-0.364919	0.379151
C79	C	-0.724088	-0.341444	0.285693
C80	C	-0.792180	-0.376605	0.217530
H81	H	-0.922116	-0.502118	0.355004
H82	H	-0.803616	-0.440929	0.473626
H83	H	-0.677855	-0.338890	0.429610
H84	H	-0.670591	-0.298038	0.266968
H85	H	-0.789090	-0.359227	0.148346
H86	H	-1.022174	-0.555826	0.255155
H87	H	-0.845552	-0.000123	-0.313452
H88	H	-1.138804	-0.000110	-0.456649
C89	C	-1.078962	0.156314	-0.335216
C90	C	-1.088377	0.172028	-0.241306
C91	C	-1.134658	0.255399	-0.214224
C92	C	-1.171523	0.323057	-0.281053
C93	C	-1.162109	0.307345	-0.374969
C94	C	-1.115829	0.223974	-0.402051
H95	H	-1.061087	0.121942	-0.191829
H96	H	-1.141626	0.267030	-0.144700
H97	H	-1.205782	0.384774	-0.261005
H98	H	-1.189400	0.357431	-0.424446
H99	H	-1.108860	0.212343	-0.471575
H100	H	-0.852165	-0.555811	0.084981
H101	H	-0.917564	-0.134890	-0.427593
H102	H	-1.132338	-0.444386	0.145235
H103	H	-0.459149	-0.000114	-0.033433
H104	H	-0.554281	-0.134768	0.042179
H105	H	-1.102470	-0.555507	0.004981
H106	H	-0.430275	-0.134904	0.187808
H107	H	-0.962242	-0.444234	-0.025029
H108	H	-0.525106	-0.000137	0.263532
