data_functionalizedCrystal
_audit_creation_method	'MofGen! by Chris Wilmer'
_symmetry_space_group_name_H-M	'P1'
_symmetry_Int_Tables_number	1
_symmetry_cell_setting	triclinic
loop_
_symmetry_equiv_pos_as_xyz
  x,y,z
_cell_length_a	11.026607
_cell_length_b	11.792241
_cell_length_c	9.482944
_cell_angle_alpha	100.368392
_cell_angle_beta	98.185432
_cell_angle_gamma	96.389716
loop_
_atom_site_label
_atom_site_type_symbol
_atom_site_fract_x
_atom_site_fract_y
_atom_site_fract_z
O1	O	1.630386	0.495180	0.120908
O2	O	1.276723	0.440988	0.120909
O3	O	1.462136	0.304616	0.120898
O4	O	1.444974	0.631552	0.120919
O5	O	1.427940	0.266071	-0.120896
O6	O	1.242527	0.402443	-0.120885
O7	O	1.596190	0.456635	-0.120886
Cu8	Cu	1.416236	0.426020	-0.142963
Cu9	Cu	1.456677	0.471603	0.142986
O10	O	1.410778	0.593007	-0.120875
C11	C	1.214349	0.411718	0.000012
C12	C	1.079439	0.381916	0.000012
C13	C	1.443960	0.242839	0.000002
C14	C	1.440732	0.116184	0.000003
C15	C	1.006175	0.464207	0.000018
C16	C	0.866738	0.433406	0.000018
C17	C	1.434802	-0.115702	0.000028
C18	C	1.438097	0.013335	0.000014
C19	C	1.658565	0.485905	0.000014
C20	C	1.793477	0.515709	0.000024
C21	C	1.428954	0.654785	0.000025
C22	C	1.432183	0.781441	0.000033
N23	N	1.387801	0.393960	-0.344085
C24	C	1.448281	0.462145	-0.416281
C25	C	1.424633	0.435461	-0.583700
N26	N	1.485121	0.503656	0.344108
H27	H	1.046680	0.557460	0.000015
H28	H	1.355345	0.357324	-0.645829
H29	H	1.554415	0.581789	-0.593765
O30	O	1.296015	0.290466	-0.426367
H31	H	1.291837	0.285755	-0.544952
H32	H	0.833974	0.608969	0.000020
H33	H	1.038938	0.288667	0.000043
H34	H	0.826243	0.340151	0.000049
O35	O	1.540055	0.565647	-0.333999
H36	H	1.544218	0.570370	-0.215413
