data_functionalizedCrystal
_audit_creation_method	'MofGen! by Chris Wilmer'
_symmetry_space_group_name_H-M	'P1'
_symmetry_Int_Tables_number	1
_symmetry_cell_setting	triclinic
loop_
_symmetry_equiv_pos_as_xyz
  x,y,z
_cell_length_a	10.723024
_cell_length_b	13.448316
_cell_length_c	14.971486
_cell_angle_alpha	89.998269
_cell_angle_beta	84.041053
_cell_angle_gamma	89.995222
loop_
_atom_site_label
_atom_site_type_symbol
_atom_site_fract_x
_atom_site_fract_y
_atom_site_fract_z
O1	O	1.655879	-0.082681	0.125452
O2	O	2.155879	0.417319	0.625452
O3	O	1.292601	-0.082684	0.137460
O4	O	1.792601	0.417316	0.637460
O5	O	1.483977	-0.082680	0.001309
O6	O	1.983977	0.417320	0.501309
O7	O	1.464503	-0.082684	0.261604
O8	O	1.964503	0.417316	0.761604
O9	O	1.483957	0.082703	0.001307
O10	O	1.983957	0.582703	0.501307
O11	O	1.292582	0.082700	0.137459
O12	O	1.792582	0.582700	0.637459
O13	O	1.655860	0.082703	0.125451
O14	O	2.155860	0.582703	0.625451
Cu15	Cu	1.474219	0.097802	0.131455
Cu16	Cu	1.974219	0.597802	0.631455
Cu17	Cu	1.474242	-0.097783	0.131456
Cu18	Cu	1.974242	0.402217	0.631456
O19	O	1.464484	0.082700	0.261603
O20	O	1.964484	0.582700	0.761603
C21	C	1.246101	0.000008	0.136586
C22	C	1.746101	0.500008	0.636586
C23	C	1.107574	0.000007	0.133971
C24	C	1.607574	0.500007	0.633971
N25	N	1.474212	0.235367	0.131453
N26	N	1.974212	0.735367	0.631453
N27	N	1.474258	-0.235347	0.131451
N28	N	1.974258	0.264653	0.631451
C29	C	1.031795	0.000005	0.210155
C30	C	1.531795	0.500005	0.710155
C31	C	0.888620	0.000004	0.207454
C32	C	1.388620	0.500004	0.707454
C33	C	1.702360	0.000009	0.126325
C34	C	2.202360	0.500009	0.626325
C35	C	1.840887	0.000004	0.128940
C36	C	2.340887	0.500004	0.628940
C37	C	1.549968	0.287403	0.186201
C38	C	2.049968	0.787403	0.686201
C39	C	1.549984	0.391506	0.186197
C40	C	2.049984	0.891506	0.686197
C41	C	1.474236	0.443571	0.131450
C42	C	1.974236	0.943571	0.631450
C43	C	1.398477	0.391528	0.076696
C44	C	1.898477	0.891528	0.576696
C45	C	1.398469	0.287427	0.076695
C46	C	1.898469	0.787427	0.576695
C47	C	1.398497	0.608508	0.076702
C48	C	1.898497	1.108508	0.576702
C49	C	1.398502	0.712617	0.076703
C50	C	1.898502	1.212617	0.576703
C51	C	1.550011	0.712587	0.186204
C52	C	2.050011	1.212587	0.686204
C53	C	1.550003	0.608486	0.186203
C54	C	2.050003	1.108486	0.686203
C55	C	1.474242	0.556450	0.131450
C56	C	1.974242	1.056450	0.631450
C57	C	1.465365	0.000007	0.294933
C58	C	1.965365	0.500007	0.794933
C59	C	1.467975	0.000006	0.394244
C60	C	1.967975	0.500006	0.894244
C61	C	1.483096	0.000010	-0.032022
C62	C	1.983096	0.500010	0.467978
C63	C	1.480486	0.000005	-0.131333
C64	C	1.980486	0.500005	0.368667
C65	C	1.469212	-0.090146	0.440898
C66	C	1.969212	0.409854	0.940898
C67	C	1.471681	-0.090147	0.534210
C68	C	1.971681	0.409853	1.034210
C69	C	1.472902	0.000004	0.580867
C70	C	1.972902	0.500004	1.080867
C71	C	1.471668	0.090163	0.534206
C72	C	1.971668	0.590163	1.034206
C73	C	1.469209	0.090163	0.440895
C74	C	1.969209	0.590163	0.940895
C75	C	1.476791	0.090156	0.728696
C76	C	1.976791	0.590156	1.228696
C77	C	1.479248	0.090157	0.822013
C78	C	1.979248	0.590157	1.322013
C79	C	1.479263	-0.090154	0.822011
C80	C	1.979263	0.409846	1.322011
C81	C	1.476804	-0.090154	0.728700
C82	C	1.976804	0.409846	1.228700
C83	C	1.475567	0.000005	0.682045
C84	C	1.975567	0.500005	1.182045
H85	H	1.072915	0.000010	0.277377
H86	H	1.572915	0.500010	0.777377
Br87	Br	1.652770	0.537826	0.260530
Br88	Br	2.152770	1.037826	0.760530
Br89	Br	1.295706	0.783277	0.002398
Br90	Br	1.795706	1.283277	0.502398
H91	H	1.480260	-0.163565	0.860002
H92	H	1.980260	0.336435	1.360002
Br93	Br	0.780100	-0.000011	0.316164
Br94	Br	1.280100	0.499989	0.816164
Br95	Br	1.475124	0.212517	0.665379
Br96	Br	1.975124	0.712517	1.165379
Br97	Br	0.949399	-0.000006	0.020226
Br98	Br	1.449399	0.499994	0.520226
Br99	Br	1.295702	0.537888	0.002376
Br100	Br	1.795702	1.037888	0.502376
H101	H	1.611694	0.754960	0.230789
H102	H	2.111694	1.254960	0.730789
Br103	Br	1.473368	-0.212502	0.597522
Br104	Br	1.973368	0.287498	1.097522
Br105	Br	1.652770	0.216752	0.260509
Br106	Br	2.152770	0.716752	0.760509
Br107	Br	1.467542	0.212517	0.377576
Br108	Br	1.967542	0.712517	0.877576
Br109	Br	1.480937	0.212506	0.885331
Br110	Br	1.980937	0.712506	1.385331
H111	H	1.066454	-0.000018	0.066749
H112	H	1.566454	0.499982	0.566749
Br113	Br	1.652800	0.462123	0.260501
Br114	Br	2.152800	0.962123	0.760501
H115	H	1.475802	-0.163564	0.690715
H116	H	1.975802	0.336436	1.190715
Br117	Br	1.473338	0.212514	0.597524
Br118	Br	1.973338	0.712514	1.097524
H119	H	1.336780	0.245060	0.032114
H120	H	1.836780	0.745060	0.532114
Br121	Br	1.467541	-0.212502	0.377588
Br122	Br	1.967541	0.287498	0.877588
Br123	Br	1.295680	0.462187	0.002391
Br124	Br	1.795680	0.962187	0.502391
