data_functionalizedCrystal
_audit_creation_method	'MofGen! by Chris Wilmer'
_symmetry_space_group_name_H-M	'P1'
_symmetry_Int_Tables_number	1
_symmetry_cell_setting	triclinic
loop_
_symmetry_equiv_pos_as_xyz
  x,y,z
_cell_length_a	23.532407
_cell_length_b	14.853567
_cell_length_c	13.330367
_cell_angle_alpha	90.008763
_cell_angle_beta	90.001508
_cell_angle_gamma	96.758196
loop_
_atom_site_label
_atom_site_type_symbol
_atom_site_fract_x
_atom_site_fract_y
_atom_site_fract_z
O1	O	0.755740	-0.109425	0.083290
O2	O	1.089073	0.223908	0.416624
O3	O	1.422407	0.557242	0.749957
O4	O	0.589946	-0.125260	0.083319
O5	O	0.923279	0.208074	0.416652
O6	O	1.256612	0.541407	0.749985
O7	O	0.677272	0.013936	0.083307
O8	O	1.010605	0.347269	0.416640
O9	O	1.343938	0.680603	0.749974
O10	O	0.668414	-0.248621	0.083302
O11	O	1.001748	0.084713	0.416636
O12	O	1.335081	0.418046	0.749969
O13	O	0.677258	0.013914	-0.083540
O14	O	1.010592	0.347247	0.249793
O15	O	1.343925	0.680580	0.583126
O16	O	0.589932	-0.125282	-0.083528
O17	O	0.923266	0.208051	0.249805
O18	O	1.256599	0.541385	0.583138
O19	O	0.755727	-0.109447	-0.083557
O20	O	1.089060	0.223886	0.249777
O21	O	1.422393	0.557219	0.583110
Cu22	Cu	0.672828	-0.117367	-0.098777
Cu23	Cu	1.006162	0.215967	0.234556
Cu24	Cu	1.339495	0.549300	0.567890
Cu25	Cu	0.672844	-0.117340	0.098539
Cu26	Cu	1.006178	0.215993	0.431872
Cu27	Cu	1.339511	0.549326	0.765206
O28	O	0.668401	-0.248643	-0.083545
O29	O	1.001734	0.084691	0.249788
O30	O	1.335068	0.418024	0.583122
C31	C	0.568721	-0.124868	-0.000101
C32	C	0.902055	0.208466	0.333232
C33	C	1.235388	0.541799	0.666566
C34	C	0.505499	-0.123655	-0.000090
C35	C	0.838832	0.209678	0.333243
C36	C	1.172166	0.543011	0.666577
C37	C	0.106722	-0.198424	-0.000137
C38	C	0.440056	0.134909	0.333197
C39	C	0.773389	0.468242	0.666530
C40	C	0.047317	-0.197298	-0.000143
C41	C	0.380650	0.136035	0.333191
C42	C	0.713984	0.469369	0.666524
O43	O	0.010875	-0.266610	-0.000180
O44	O	0.344208	0.066724	0.333153
O45	O	0.677542	0.400057	0.666486
N46	N	0.024330	-0.114546	-0.000140
N47	N	0.357663	0.218787	0.333194
N48	N	0.690996	0.552120	0.666527
C49	C	0.060751	-0.032916	-0.000141
C50	C	0.394084	0.300418	0.333193
C51	C	0.727418	0.633751	0.666526
O52	O	0.035744	0.037575	-0.000140
O53	O	0.369077	0.370908	0.333194
O54	O	0.702410	0.704241	0.666527
C55	C	0.120155	-0.034043	-0.000142
C56	C	0.453488	0.299291	0.333192
C57	C	0.786822	0.632624	0.666525
C58	C	0.143139	-0.116800	-0.000135
C59	C	0.476472	0.216534	0.333199
C60	C	0.809806	0.549867	0.666532
C61	C	0.129707	-0.281175	-0.000131
C62	C	0.463040	0.052159	0.333203
C63	C	0.796373	0.385492	0.666536
C64	C	0.189108	-0.282300	-0.000123
C65	C	0.522441	0.051033	0.333211
C66	C	0.855774	0.384366	0.666544
C67	C	0.225524	-0.200676	-0.000121
C68	C	0.558858	0.132657	0.333213
C69	C	0.892191	0.465991	0.666546
C70	C	0.202540	-0.117926	-0.000127
C71	C	0.535873	0.215408	0.333207
C72	C	0.869207	0.548741	0.666540
C73	C	0.156575	0.047587	-0.000150
C74	C	0.489909	0.380921	0.333183
C75	C	0.823242	0.714254	0.666517
C76	C	0.215983	0.046453	-0.000152
C77	C	0.549316	0.379786	0.333182
C78	C	0.882649	0.713120	0.666515
C79	C	0.238966	-0.036304	-0.000145
C80	C	0.572300	0.297029	0.333189
C81	C	0.905633	0.630362	0.666522
C82	C	0.298358	-0.037427	-0.000117
C83	C	0.631691	0.295906	0.333217
C84	C	0.965024	0.629240	0.666550
N85	N	0.321345	-0.120179	-0.000120
N86	N	0.654678	0.213155	0.333214
N87	N	0.988012	0.546488	0.666547
C88	C	0.284928	-0.201803	-0.000122
C89	C	0.618262	0.131530	0.333212
C90	C	0.951595	0.464864	0.666545
C91	C	-0.064002	-0.030555	-0.000140
C92	C	0.269332	0.302779	0.333193
C93	C	0.602665	0.636112	0.666526
C94	C	-0.123405	-0.029427	-0.000132
C95	C	0.209929	0.303907	0.333201
C96	C	0.543262	0.637240	0.666535
C97	C	-0.136834	-0.193810	-0.000136
C98	C	0.196499	0.139524	0.333197
C99	C	0.529832	0.472857	0.666531
C100	C	-0.077431	-0.194937	-0.000137
C101	C	0.255903	0.138397	0.333196
C102	C	0.589236	0.471730	0.666530
C103	C	-0.041014	-0.113306	-0.000143
C104	C	0.292319	0.220027	0.333190
C105	C	0.625652	0.553360	0.666523
C106	C	0.409675	-0.204161	-0.000104
C107	C	0.743009	0.129172	0.333229
C108	C	1.076342	0.462505	0.666563
C109	C	0.469082	-0.205280	-0.000092
C110	C	0.802416	0.128054	0.333241
C111	C	1.135749	0.461387	0.666575
C112	C	0.482507	-0.040897	-0.000093
C113	C	0.815840	0.292436	0.333240
C114	C	1.149174	0.625769	0.666573
C115	C	0.423105	-0.039778	-0.000100
C116	C	0.756439	0.293555	0.333233
C117	C	1.089772	0.626888	0.666567
C118	C	0.386690	-0.121418	-0.000109
C119	C	0.720024	0.211916	0.333224
C120	C	1.053357	0.545249	0.666558
O121	O	0.334835	0.031848	-0.000083
O122	O	0.668168	0.365182	0.333250
O123	O	1.001501	0.698515	0.666584
O124	O	0.309944	-0.272282	-0.000136
O125	O	0.643277	0.061052	0.333197
O126	O	0.976611	0.394385	0.666531
C127	C	0.676864	0.047509	-0.000114
C128	C	1.010197	0.380842	0.333220
C129	C	1.343530	0.714176	0.666553
C130	C	0.675661	0.147580	-0.000105
C131	C	1.008994	0.480913	0.333228
C132	C	1.342328	0.814246	0.666562
C133	C	0.776951	-0.109839	-0.000135
C134	C	1.110285	0.223494	0.333199
C135	C	1.443618	0.556827	0.666532
C136	C	0.840174	-0.111052	-0.000139
C137	C	1.173507	0.222282	0.333194
C138	C	1.506840	0.555615	0.666527
C139	C	0.668809	-0.282216	-0.000122
C140	C	1.002142	0.051117	0.333211
C141	C	1.335476	0.384451	0.666545
C142	C	0.670012	-0.382286	-0.000124
C143	C	1.003345	-0.048953	0.333209
C144	C	1.336678	0.284380	0.666542
N145	N	0.672821	-0.117385	-0.237559
N146	N	1.006155	0.215949	0.095775
N147	N	1.339488	0.549282	0.429108
C148	C	0.618704	0.559490	-0.000114
C149	C	0.952037	0.892824	0.333219
C150	C	1.285370	1.226157	0.666552
C151	C	0.722449	0.581906	-0.000132
C152	C	1.055782	0.915239	0.333201
C153	C	1.389115	1.248573	0.666535
C154	C	0.723580	0.487885	-0.000126
C155	C	1.056913	0.821218	0.333207
C156	C	1.390246	1.154551	0.666541
C157	C	0.672272	0.429662	-0.000116
C158	C	1.005605	0.762995	0.333217
C159	C	1.338938	1.096328	0.666551
C160	C	0.619833	0.465460	-0.000112
C161	C	0.953166	0.798793	0.333222
C162	C	1.286500	1.132127	0.666555
C163	C	0.776017	0.452079	-0.000141
C164	C	1.109351	0.785413	0.333193
C165	C	1.442684	1.118746	0.666526
C166	C	0.777150	0.358053	-0.000136
C167	C	1.110484	0.691386	0.333197
C168	C	1.443817	1.024719	0.666531
C169	C	0.725842	0.299828	-0.000119
C170	C	1.059175	0.633161	0.333215
C171	C	1.392508	0.966494	0.666548
C172	C	0.673401	0.335631	-0.000113
C173	C	1.006734	0.668965	0.333220
C174	C	1.340068	1.002298	0.666553
C175	C	0.622093	0.277408	-0.000103
C176	C	0.955426	0.610742	0.333230
C177	C	1.288760	0.944075	0.666564
C178	C	0.569652	0.313210	-0.000090
C179	C	0.902985	0.646543	0.333243
C180	C	1.236318	0.979877	0.666576
C181	C	0.568524	0.407235	-0.000094
C182	C	0.901858	0.740569	0.333239
C183	C	1.235191	1.073902	0.666572
C184	C	0.726969	0.205803	-0.000115
C185	C	1.060302	0.539136	0.333218
C186	C	1.393635	0.872469	0.666552
C187	C	0.623222	0.183378	-0.000100
C188	C	0.956556	0.516711	0.333233
C189	C	1.289889	0.850045	0.666566
C190	C	0.707433	-0.171725	-0.710178
C191	C	1.040766	0.161608	-0.376845
C192	C	1.374100	0.494941	-0.043511
C193	C	0.638273	-0.062919	-0.710153
C194	C	0.971606	0.270414	-0.376819
C195	C	1.304939	0.603748	-0.043486
C196	C	0.638264	-0.062933	-0.605134
C197	C	0.971598	0.270400	-0.271801
C198	C	1.304931	0.603734	0.061532
C199	C	0.672841	-0.117343	-0.552633
C200	C	1.006175	0.215990	-0.219300
C201	C	1.339508	0.549324	0.114034
C202	C	0.707427	-0.171739	-0.605150
C203	C	1.040760	0.161594	-0.271817
C204	C	1.374094	0.494928	0.061517
C205	C	0.603684	-0.008531	-0.552610
C206	C	0.937017	0.324802	-0.219276
C207	C	1.270350	0.658136	0.114057
C208	C	0.603675	-0.008542	-0.447585
C209	C	0.937008	0.324791	-0.114251
C210	C	1.270341	0.658124	0.219082
C211	C	0.638249	-0.062958	-0.395082
C212	C	0.971583	0.270375	-0.061748
C213	C	1.304916	0.603709	0.271585
C214	C	0.672836	-0.117357	-0.447605
C215	C	1.006169	0.215977	-0.114272
C216	C	1.339502	0.549310	0.219062
C217	C	0.707413	-0.171767	-0.395104
C218	C	1.040746	0.161567	-0.061770
C219	C	1.374079	0.494900	0.271563
C220	C	0.741996	-0.226171	-0.447625
C221	C	1.075330	0.107162	-0.114292
C222	C	1.408663	0.440495	0.219041
C223	C	0.742001	-0.226155	-0.552647
C224	C	1.075335	0.107179	-0.219313
C225	C	1.408668	0.440512	0.114020
C226	C	0.638244	-0.062975	-0.290060
C227	C	0.971578	0.270359	0.043273
C228	C	1.304911	0.603692	0.376607
C229	C	0.707407	-0.171780	-0.290076
C230	C	1.040740	0.161553	0.043258
C231	C	1.374073	0.494886	0.376591
N232	N	0.672856	-0.117315	0.237321
N233	N	1.006189	0.216018	0.570654
N234	N	1.339522	0.549352	0.903987
H235	H	-0.142112	0.037962	-0.000122
H236	H	0.191221	0.371296	0.333211
H237	H	0.524554	0.704629	0.666545
H238	H	0.770159	-0.270446	-0.595419
H239	H	1.103492	0.062888	-0.262086
H240	H	1.436826	0.396221	0.071247
H241	H	0.581440	0.135978	-0.000088
H242	H	0.914774	0.469311	0.333246
H243	H	1.248107	0.802644	0.666579
H244	H	0.770152	-0.270468	-0.404865
H245	H	1.103485	0.062866	-0.071532
H246	H	1.436818	0.396199	0.261802
Cl247	Cl	0.843075	0.313053	-0.000135
Cl248	Cl	1.176408	0.646386	0.333198
Cl249	Cl	1.509742	0.979720	0.666531
H250	H	0.512168	0.025559	-0.000088
H251	H	0.845501	0.358892	0.333246
H252	H	1.178835	0.692226	0.666579
H253	H	0.100061	-0.347647	-0.000136
H254	H	0.433395	-0.014314	0.333197
H255	H	0.766728	0.319020	0.666531
Cl256	Cl	0.750874	-0.240192	-0.224082
Cl257	Cl	1.084208	0.093142	0.109251
Cl258	Cl	1.417541	0.426475	0.442584
Cl259	Cl	0.750903	-0.240122	-0.776201
Cl260	Cl	1.084237	0.093211	-0.442868
Cl261	Cl	1.417570	0.426545	-0.109535
Cl262	Cl	0.261760	0.149081	-0.000161
Cl263	Cl	0.595093	0.482414	0.333172
Cl264	Cl	0.928426	0.815747	0.666505
H265	H	0.527877	0.265793	-0.000089
H266	H	0.861210	0.599126	0.333244
H267	H	1.194544	0.932459	0.666578
H268	H	0.575538	0.035774	-0.595364
H269	H	0.908871	0.369108	-0.262031
H270	H	1.242205	0.702441	0.071303
H271	H	0.610125	-0.018615	-0.752906
H272	H	0.943459	0.314719	-0.419572
H273	H	1.276792	0.648052	-0.086239
H274	H	0.576007	0.588645	-0.000100
H275	H	0.909341	0.921978	0.333233
H276	H	1.242674	1.255311	0.666567
Cl277	Cl	0.502605	0.452250	-0.000075
Cl278	Cl	0.835938	0.785583	0.333258
Cl279	Cl	1.169271	1.118916	0.666591
Cl280	Cl	0.560189	0.059834	-0.381567
Cl281	Cl	0.893522	0.393167	-0.048234
Cl282	Cl	1.226855	0.726501	0.285099
Cl283	Cl	0.786946	0.655101	-0.000161
Cl284	Cl	1.120280	0.988434	0.333172
Cl285	Cl	1.453613	1.321767	0.666505
Cl286	Cl	-0.018227	0.072077	-0.000136
Cl287	Cl	0.315107	0.405411	0.333197
Cl288	Cl	0.648440	0.738744	0.666530
Cl289	Cl	0.594782	0.005430	-0.224037
Cl290	Cl	0.928115	0.338764	0.109296
Cl291	Cl	1.261448	0.672097	0.442629
Cl292	Cl	-0.048543	-0.298978	-0.000132
Cl293	Cl	0.284790	0.034356	0.333202
Cl294	Cl	0.618124	0.367689	0.666535
Cl295	Cl	0.840514	0.525276	-0.000175
Cl296	Cl	1.173847	0.858610	0.333158
Cl297	Cl	1.507181	1.191943	0.666491
H298	H	0.137873	0.114977	-0.000156
H299	H	0.471206	0.448310	0.333177
H300	H	0.804539	0.781643	0.666510
Cl301	Cl	0.394210	0.064260	-0.000114
Cl302	Cl	0.727544	0.397594	0.333220
Cl303	Cl	1.060877	0.730927	0.666553
H304	H	0.487792	-0.272673	-0.000086
H305	H	0.821125	0.060660	0.333248
H306	H	1.154459	0.393993	0.666581
Cl307	Cl	0.217992	-0.386344	-0.000121
Cl308	Cl	0.551326	-0.053010	0.333212
Cl309	Cl	0.884659	0.280323	0.666546
Cl310	Cl	0.363906	-0.306795	-0.000114
Cl311	Cl	0.697239	0.026538	0.333219
Cl312	Cl	1.030572	0.359872	0.666553
H313	H	-0.166496	-0.260273	-0.000142
H314	H	0.166837	0.073061	0.333191
H315	H	0.500171	0.406394	0.666524
Cl316	Cl	0.792889	0.160798	-0.000150
Cl317	Cl	1.126223	0.494131	0.333184
Cl318	Cl	1.459556	0.827464	0.666517
