data_functionalizedCrystal
_audit_creation_method	'MofGen! by Chris Wilmer'
_symmetry_space_group_name_H-M	'P1'
_symmetry_Int_Tables_number	1
_symmetry_cell_setting	triclinic
loop_
_symmetry_equiv_pos_as_xyz
  x,y,z
_cell_length_a	17.000383
_cell_length_b	12.837942
_cell_length_c	11.295483
_cell_angle_alpha	85.469583
_cell_angle_beta	86.217792
_cell_angle_gamma	94.785378
loop_
_atom_site_label
_atom_site_type_symbol
_atom_site_fract_x
_atom_site_fract_y
_atom_site_fract_z
O1	O	1.063717	-0.029685	-0.099107
O2	O	0.834818	-0.067048	-0.099092
O3	O	0.944192	0.102073	-0.099092
O4	O	0.954344	-0.198806	-0.099107
O5	O	0.934584	0.087240	0.098959
O6	O	0.825210	-0.081881	0.098959
O7	O	1.054109	-0.044518	0.098944
Cu8	Cu	0.938782	-0.064554	0.117035
Cu9	Cu	0.950145	-0.047012	-0.117183
O10	O	0.944735	-0.213639	0.098944
C11	C	0.800512	-0.076471	-0.000064
C12	C	0.712606	-0.082438	-0.000058
C13	C	0.215314	-0.120963	-0.000104
C14	C	0.297911	-0.115348	-0.000103
C15	C	0.341514	-0.017898	-0.000089
C16	C	0.302516	0.073945	-0.000089
C17	C	0.219921	0.068330	-0.000098
C18	C	0.591013	0.003790	-0.000067
C19	C	0.673614	0.009397	-0.000054
C20	C	0.669003	-0.179897	-0.000071
C21	C	0.586406	-0.185503	-0.000073
C22	C	0.547416	-0.093660	-0.000079
C23	C	0.425941	-0.012157	-0.000084
C24	C	0.462991	-0.099401	-0.000092
C25	C	0.935958	0.132965	-0.000067
C26	C	0.925731	0.247110	-0.000068
C27	C	1.088415	-0.035095	-0.000086
C28	C	1.176321	-0.029127	-0.000100
C29	C	0.952969	-0.244531	-0.000084
C30	C	0.963197	-0.358675	-0.000090
N31	N	0.930796	-0.076891	0.281771
C32	C	1.048686	0.499276	-0.000101
C33	C	1.039080	0.606527	-0.000102
C34	C	0.896914	0.568864	-0.000080
C35	C	0.906520	0.461613	-0.000079
C36	C	0.982409	0.426824	-0.000088
C37	C	0.992013	0.319571	-0.000078
C38	C	0.849848	0.281911	-0.000064
C39	C	0.840242	0.389161	-0.000066
N40	N	0.958137	-0.034667	-0.281919
C41	C	1.015622	0.054197	0.531061
C42	C	1.009593	0.044867	0.655725
C43	C	0.912705	-0.104874	0.655765
C44	C	0.918734	-0.095545	0.531101
C45	C	0.970195	-0.016008	0.468753
C46	C	0.976228	-0.006683	0.344088
C47	C	0.879336	-0.156419	0.344130
C48	C	0.873307	-0.165749	0.468794
H49	H	0.709114	0.088758	-0.000048
H50	H	1.046583	0.102035	0.706452
H51	H	1.018132	0.058077	0.293325
H52	H	1.093051	0.665516	-0.000117
H53	H	0.461451	0.067187	-0.000069
C54	C	0.349964	0.179693	-0.000260
C55	C	0.402484	0.196069	-0.102128
C56	C	0.446211	0.293467	-0.102314
H57	H	0.315007	0.233683	-0.000322
H58	H	0.378969	0.180654	0.068776
H59	H	0.373481	0.195117	-0.171145
H60	H	0.437457	0.142103	-0.102088
H61	H	0.475217	0.294429	-0.033279
H62	H	0.411249	0.347450	-0.102373
H63	H	0.481857	0.304587	-0.171424
H64	H	0.835130	0.597210	-0.000086
C65	C	0.817361	-0.252135	0.536275
C66	C	0.778854	-0.311605	0.455022
C67	C	0.727302	-0.391185	0.517139
H68	H	0.846608	-0.296164	0.584903
H69	H	0.779252	-0.221742	0.584891
H70	H	0.816958	-0.341997	0.406427
H71	H	0.749593	-0.267605	0.406391
H72	H	0.689194	-0.360791	0.565754
H73	H	0.756555	-0.435206	0.565765
H74	H	0.701164	-0.431538	0.462018
H75	H	0.778456	0.417502	-0.000063
H76	H	0.795880	0.222906	-0.000044
C77	C	1.071510	0.140645	0.463576
C78	C	1.109994	0.200144	0.544827
C79	C	1.161477	0.279797	0.482706
H80	H	1.109641	0.110350	0.414925
H81	H	1.042192	0.184628	0.414984
H82	H	1.139311	0.156168	0.593399
H83	H	1.071884	0.230464	0.593480
H84	H	1.132159	0.323780	0.434113
H85	H	1.199603	0.249493	0.434057
H86	H	1.187589	0.320183	0.537824
C87	C	0.711189	-0.279729	-0.000018
C88	C	0.655323	-0.366274	-0.000006
C89	C	0.694154	-0.458262	0.000053
H90	H	0.746668	-0.276445	-0.069062
H91	H	0.739938	-0.286714	0.069077
H92	H	0.626588	-0.359290	-0.069094
H93	H	0.619842	-0.369592	0.069032
H94	H	0.722903	-0.465247	0.069148
H95	H	0.729632	-0.454967	-0.068992
H96	H	0.656255	-0.516994	0.000072
H97	H	0.870801	-0.169625	0.706544
H98	H	0.329655	-0.190130	-0.000118
H99	H	0.188175	0.143113	-0.000097
H100	H	0.559277	0.078575	-0.000068
C101	C	0.415563	-0.205118	-0.000292
C102	C	0.372947	-0.206224	-0.102176
C103	C	0.329232	-0.303587	-0.102388
H104	H	0.450521	-0.259104	-0.000351
H105	H	0.379846	-0.216418	0.068733
H106	H	0.408661	-0.194935	-0.171183
H107	H	0.337975	-0.152258	-0.102139
H108	H	0.293515	-0.314887	-0.033363
H109	H	0.364196	-0.357566	-0.102443
H110	H	0.300307	-0.304347	-0.171508
H111	H	0.842349	-0.213587	0.293385
C112	C	0.539012	-0.291293	0.000142
C113	C	0.486519	-0.307696	0.102040
C114	C	0.442852	-0.405144	0.102288
H115	H	0.509983	-0.292344	-0.068848
H116	H	0.574032	-0.345226	0.000200
H117	H	0.451503	-0.253778	0.101971
H118	H	0.515527	-0.306667	0.171047
H119	H	0.477872	-0.459076	0.102346
H120	H	0.413828	-0.406185	0.033293
H121	H	0.407236	-0.416290	0.171429
H122	H	1.110477	0.470950	-0.000096
C123	C	0.168030	-0.226779	-0.000367
C124	C	0.191671	-0.274860	-0.102282
C125	C	0.148126	-0.372334	-0.102577
H126	H	0.177231	-0.270047	0.068612
H127	H	0.113248	-0.217013	-0.000435
H128	H	0.246439	-0.284631	-0.102203
H129	H	0.182468	-0.231623	-0.171277
H130	H	0.093344	-0.362568	-0.102645
H131	H	0.157330	-0.415593	-0.033594
H132	H	0.164155	-0.404965	-0.171730
H133	H	1.053805	0.291247	-0.000080
