data_functionalizedCrystal
_audit_creation_method	'MofGen! by Chris Wilmer'
_symmetry_space_group_name_H-M	'P1'
_symmetry_Int_Tables_number	1
_symmetry_cell_setting	triclinic
loop_
_symmetry_equiv_pos_as_xyz
  x,y,z
_cell_length_a	19.188930
_cell_length_b	19.188930
_cell_length_c	13.101039
_cell_angle_alpha	93.345801
_cell_angle_beta	86.639939
_cell_angle_gamma	83.144779
loop_
_atom_site_label
_atom_site_type_symbol
_atom_site_fract_x
_atom_site_fract_y
_atom_site_fract_z
O1	O	0.930013	0.083287	-0.085556
O2	O	1.263346	0.416620	0.247777
O3	O	1.596680	0.749953	0.581110
O4	O	0.726699	0.095024	-0.085488
O5	O	1.060032	0.428358	0.247846
O6	O	1.393365	0.761691	0.581179
O7	O	0.834222	-0.012499	-0.085504
O8	O	1.167555	0.320834	0.247829
O9	O	1.500889	0.654167	0.581163
O10	O	0.822489	0.190810	-0.085540
O11	O	1.155823	0.524144	0.247793
O12	O	1.489156	0.857477	0.581127
O13	O	0.826507	-0.004772	0.084927
O14	O	1.159841	0.328561	0.418260
O15	O	1.493174	0.661895	0.751594
O16	O	0.718984	0.102752	0.084943
O17	O	1.052317	0.436085	0.418277
O18	O	1.385651	0.769418	0.751610
O19	O	0.922298	0.091014	0.084875
O20	O	1.255632	0.424348	0.418208
O21	O	1.588965	0.757681	0.751541
Zn22	Zn	0.819416	0.098110	0.111969
Zn23	Zn	1.152749	0.431443	0.445302
Zn24	Zn	1.486083	0.764776	0.778635
Zn25	Zn	0.829581	0.087929	-0.112582
Zn26	Zn	1.162914	0.421262	0.220752
Zn27	Zn	1.496247	0.754595	0.554085
O28	O	0.814775	0.198538	0.084891
O29	O	1.148108	0.531871	0.418224
O30	O	1.481441	0.865204	0.751558
C31	C	0.696830	0.098508	-0.000263
C32	C	1.030163	0.431842	0.333070
C33	C	1.363496	0.765175	0.666404
C34	C	0.619324	0.097369	-0.000236
C35	C	0.952657	0.430702	0.333097
C36	C	1.285991	0.764035	0.666431
C37	C	0.574401	0.160458	-0.000263
C38	C	0.907735	0.493792	0.333070
C39	C	1.241068	0.827125	0.666403
C40	C	0.501578	0.159386	-0.000274
C41	C	0.834911	0.492720	0.333059
C42	C	1.168245	0.826053	0.666392
C43	C	0.473682	0.095220	-0.000279
C44	C	0.807015	0.428553	0.333055
C45	C	1.140348	0.761887	0.666388
C46	C	0.518614	0.032122	-0.000246
C47	C	0.851947	0.365456	0.333088
C48	C	1.185281	0.698789	0.666421
C49	C	0.591435	0.033197	-0.000224
C50	C	0.924768	0.366530	0.333109
C51	C	1.258102	0.699863	0.666442
N52	N	0.368329	0.043542	-0.058316
N53	N	0.701662	0.376875	0.275017
N54	N	1.034995	0.710208	0.608350
N55	N	0.299151	0.042525	-0.058339
N56	N	0.632484	0.375858	0.274995
N57	N	0.965818	0.709192	0.608328
C58	C	0.254276	0.091979	-0.000341
C59	C	0.587609	0.425312	0.332993
C60	C	0.920943	0.758646	0.666326
N61	N	0.281191	0.142498	0.057668
N62	N	0.614524	0.475831	0.391001
N63	N	0.947857	0.809165	0.724334
N64	N	0.350375	0.143516	0.057686
N65	N	0.683708	0.476850	0.391019
N66	N	1.017041	0.810183	0.724352
C67	C	0.394720	0.094048	-0.000301
C68	C	0.728053	0.427381	0.333032
C69	C	1.061387	0.760715	0.666366
C70	C	0.130389	0.153911	-0.000379
C71	C	0.463722	0.487244	0.332955
C72	C	0.797056	0.820577	0.666288
C73	C	0.057565	0.152836	-0.000383
C74	C	0.390898	0.486169	0.332950
C75	C	0.724231	0.819503	0.666283
C76	C	0.074603	0.025570	-0.000365
C77	C	0.407936	0.358903	0.332968
C78	C	0.741269	0.692236	0.666302
C79	C	0.147425	0.026647	-0.000350
C80	C	0.480758	0.359980	0.332983
C81	C	0.814092	0.693313	0.666317
C82	C	0.175314	0.090819	-0.000362
C83	C	0.508647	0.424152	0.332972
C84	C	0.841981	0.757485	0.666305
C85	C	0.829985	-0.034646	-0.000285
C86	C	1.163318	0.298687	0.333048
C87	C	1.496651	0.632020	0.666381
C88	C	0.828843	-0.112151	-0.000276
C89	C	1.162177	0.221183	0.333057
C90	C	1.495510	0.554516	0.666391
C91	C	0.891935	-0.157075	-0.000293
C92	C	1.225268	0.176258	0.333041
C93	C	1.558602	0.509591	0.666374
C94	C	0.890864	-0.229900	-0.000309
C95	C	1.224197	0.103434	0.333025
C96	C	1.557531	0.436767	0.666358
C97	C	0.826697	-0.257795	-0.000288
C98	C	1.160030	0.075538	0.333046
C99	C	1.493364	0.408871	0.666379
C100	C	0.763597	-0.212861	-0.000277
C101	C	1.096931	0.120472	0.333056
C102	C	1.430264	0.453806	0.666390
C103	C	0.764671	-0.140039	-0.000271
C104	C	1.098004	0.193295	0.333062
C105	C	1.431337	0.526628	0.666395
N106	N	0.775024	-0.363170	0.057730
N107	N	1.108357	-0.029837	0.391063
N108	N	1.441690	0.303497	0.724397
N109	N	0.774008	-0.432349	0.057727
N110	N	1.107342	-0.099015	0.391060
N111	N	1.440675	0.234318	0.724393
C112	C	0.823460	-0.477205	-0.000307
C113	C	1.156793	-0.143872	0.333026
C114	C	1.490126	0.189462	0.666359
N115	N	0.873975	-0.450270	-0.058325
N116	N	1.207308	-0.116937	0.275008
N117	N	1.540642	0.216397	0.608342
N118	N	0.874992	-0.381085	-0.058317
N119	N	1.208326	-0.047752	0.275016
N120	N	1.541659	0.285582	0.608350
C121	C	0.825526	-0.336758	-0.000295
C122	C	1.158860	-0.003425	0.333039
C123	C	1.492193	0.329908	0.666372
C124	C	0.885395	-0.601095	-0.000343
C125	C	1.218728	-0.267762	0.332991
C126	C	1.552061	0.065572	0.666324
C127	C	0.884321	-0.673921	-0.000365
C128	C	1.217655	-0.340587	0.332968
C129	C	1.550988	-0.007254	0.666302
C130	C	0.757052	-0.656880	-0.000323
C131	C	1.090386	-0.323547	0.333010
C132	C	1.423719	0.009787	0.666344
C133	C	0.758128	-0.584056	-0.000311
C134	C	1.091461	-0.250723	0.333022
C135	C	1.424795	0.082610	0.666356
C136	C	0.822301	-0.556168	-0.000316
C137	C	1.155634	-0.222835	0.333017
C138	C	1.488967	0.110498	0.666351
C139	C	0.952167	0.087530	-0.000352
C140	C	1.285500	0.420863	0.332981
C141	C	1.618834	0.754197	0.666315
C142	C	1.029673	0.088669	-0.000386
C143	C	1.363007	0.422002	0.332947
C144	C	1.696340	0.755336	0.666281
C145	C	0.819012	0.220685	-0.000330
C146	C	1.152346	0.554018	0.333004
C147	C	1.485679	0.887351	0.666337
C148	C	0.820154	0.298189	-0.000346
C149	C	1.153487	0.631522	0.332988
C150	C	1.486820	0.964855	0.666321
N151	N	0.812484	0.105058	0.265218
N152	N	1.145818	0.438391	0.598552
N153	N	1.479151	0.771724	0.931885
N154	N	0.836518	0.080975	-0.265831
N155	N	1.169851	0.414308	0.067502
N156	N	1.503185	0.747642	0.400836
C157	C	0.803053	0.114517	0.474262
C158	C	1.136386	0.447850	0.807596
C159	C	1.469720	0.781184	1.140929
C160	C	0.845947	0.071518	0.525131
C161	C	1.179280	0.404851	0.858465
C162	C	1.512614	0.738185	1.191798
C163	C	0.840699	0.076781	0.641451
C164	C	1.174033	0.410115	0.974784
C165	C	1.507366	0.743448	1.308117
C166	C	0.808300	0.109255	0.357933
C167	C	1.141633	0.442588	0.691266
C168	C	1.474966	0.775921	1.024599
H169	H	0.464995	0.210763	-0.000294
H170	H	0.798328	0.544096	0.333040
H171	H	1.131662	0.877430	0.666373
Br172	Br	0.669967	-0.694731	-0.000305
Br173	Br	1.003300	-0.361397	0.333028
Br174	Br	1.336634	-0.028064	0.666362
Br175	Br	0.676513	-0.250718	-0.000262
Br176	Br	1.009847	0.082615	0.333072
Br177	Br	1.343180	0.415949	0.666405
H178	H	0.153097	0.206164	-0.000373
H179	H	0.486430	0.539497	0.332960
H180	H	0.819763	0.872831	0.666294
H181	H	0.706752	-0.547477	-0.000292
H182	H	1.040085	-0.214144	0.333042
H183	H	1.373418	0.119190	0.666375
Br184	Br	-0.003405	0.238466	-0.000411
Br185	Br	0.329928	0.571799	0.332922
Br186	Br	0.663261	0.905133	0.666256
Br187	Br	0.480756	-0.054961	-0.000241
Br188	Br	0.814090	0.278372	0.333092
Br189	Br	1.147423	0.611706	0.666426
H190	H	0.762393	0.155280	0.518066
H191	H	1.095726	0.488614	0.851399
H192	H	1.429059	0.821947	1.184732
H193	H	0.886611	0.030753	0.481323
H194	H	1.219944	0.364086	0.814656
H195	H	1.553278	0.697420	1.147990
H196	H	0.713292	-0.103460	-0.000258
H197	H	1.046626	0.229873	0.333076
H198	H	1.379959	0.563206	0.666409
H199	H	0.628012	-0.018180	-0.000203
H200	H	0.961345	0.315153	0.333131
H201	H	1.294679	0.648487	0.666464
H202	H	0.597103	0.212712	-0.000275
H203	H	0.930437	0.546046	0.333059
H204	H	1.263770	0.879379	0.666392
H205	H	0.937648	-0.578388	-0.000351
H206	H	1.270981	-0.245054	0.332982
H207	H	1.604315	0.088279	0.666315
H208	H	0.051893	-0.026679	-0.000432
H209	H	0.385226	0.306655	0.332901
H210	H	0.718560	0.639988	0.666235
H211	H	0.184003	-0.024728	-0.000333
H212	H	0.517336	0.308605	0.333000
H213	H	0.850669	0.641938	0.666333
H214	H	0.944190	-0.134374	-0.000300
H215	H	1.277523	0.198959	0.333033
H216	H	1.610856	0.532293	0.666367
H217	H	0.942243	-0.266485	-0.000326
H218	H	1.275576	0.066849	0.333007
H219	H	1.608909	0.400182	0.666341
H220	H	0.935701	-0.710499	-0.000384
H221	H	1.269034	-0.377165	0.332949
H222	H	1.602367	-0.043832	0.666283
