data_functionalizedCrystal
_audit_creation_method	'MofGen! by Chris Wilmer'
_symmetry_space_group_name_H-M	'P1'
_symmetry_Int_Tables_number	1
_symmetry_cell_setting	triclinic
loop_
_symmetry_equiv_pos_as_xyz
  x,y,z
_cell_length_a	19.077105
_cell_length_b	13.897448
_cell_length_c	19.077569
_cell_angle_alpha	87.677269
_cell_angle_beta	85.299277
_cell_angle_gamma	87.714101
loop_
_atom_site_label
_atom_site_type_symbol
_atom_site_fract_x
_atom_site_fract_y
_atom_site_fract_z
Zn1	Zn	1.093753	-0.420033	-0.441858
Zn2	Zn	1.088950	-0.587564	-0.323971
Zn3	Zn	0.971135	-0.420047	-0.319253
Zn4	Zn	0.975846	-0.575047	-0.437091
O5	O	1.032421	-0.500673	-0.380543
O6	O	1.191767	-0.447489	-0.430189
O7	O	1.069341	-0.570587	-0.224694
O8	O	0.987440	-0.285064	-0.335538
O9	O	1.188238	-0.570573	-0.343578
O10	O	1.077526	-0.285054	-0.425615
O11	O	0.982782	-0.447512	-0.221228
O12	O	0.873110	-0.435375	-0.330915
O13	O	0.995468	-0.549240	-0.536374
O14	O	0.876570	-0.549254	-0.417490
O15	O	1.082094	-0.435352	-0.539877
O16	O	1.073908	-0.720884	-0.338956
O17	O	0.990810	-0.711688	-0.422064
C18	C	0.849261	-0.490959	-0.373174
C19	C	0.770905	-0.486825	-0.370038
C20	C	1.032369	-0.751285	-0.380521
C21	C	1.032412	-0.858501	-0.380537
C22	C	0.735910	-0.544270	-0.413568
C23	C	0.662286	-0.540374	-0.410625
C24	C	0.623658	-0.479036	-0.364147
C25	C	0.658658	-0.421585	-0.320615
C26	C	0.732281	-0.425477	-0.323562
C27	C	0.403276	-0.461022	-0.350510
C28	C	0.329648	-0.457136	-0.347564
C29	C	0.333281	-0.575925	-0.437576
C30	C	0.406905	-0.579816	-0.440516
C31	C	0.441898	-0.522360	-0.396986
N32	N	0.548403	-0.475054	-0.361136
N33	N	0.517153	-0.526338	-0.400002
C34	C	1.032488	-1.054797	-0.380584
C35	C	1.032444	-0.945564	-0.380560
C36	C	1.216297	-0.510426	-0.387942
C37	C	1.294653	-0.514582	-0.391095
C38	C	1.039842	-0.490898	-0.564420
C39	C	1.043004	-0.486733	-0.642777
C40	C	1.032493	-0.249082	-0.380582
C41	C	1.032524	-0.141868	-0.380598
C42	C	0.999389	-0.544067	-0.677767
C43	C	1.002366	-0.540154	-0.751392
C44	C	1.048955	-0.478900	-0.790026
C45	C	1.092575	-0.421564	-0.755031
C46	C	1.089601	-0.425483	-0.681407
C47	C	1.062690	-0.460825	-1.010413
C48	C	1.065659	-0.456908	-1.084042
C49	C	0.975451	-0.575500	-1.080398
C50	C	0.972478	-0.579409	-1.006773
C51	C	1.016100	-0.522077	-0.971785
N52	N	1.051998	-0.474896	-0.865283
N53	N	1.013061	-0.526086	-0.896529
C54	C	1.025070	-0.510342	-0.197383
C55	C	1.022044	-0.514243	-0.119032
H56	H	0.633797	-0.587153	-0.446071
O57	O	0.287980	-0.390970	-0.297438
H58	H	0.324682	-0.351663	-0.267669
O59	O	0.949128	-0.610128	-0.636108
H60	H	0.979302	-0.662664	-0.603820
H61	H	0.966851	-0.586842	-0.779878
H62	H	0.760772	-0.378694	-0.288119
H63	H	0.934551	-0.629304	-0.975323
O64	O	0.448569	-0.645963	-0.490652
H65	H	0.411866	-0.685247	-0.520433
H66	H	0.939936	-0.622177	-1.108894
H67	H	0.304782	-0.622700	-0.473016
O68	O	0.616985	-0.355439	-0.270484
H69	H	0.631609	-0.279854	-0.283236
H70	H	1.130512	-0.371695	-0.786493
O71	O	1.136641	-0.363643	-0.643662
H72	H	1.169532	-0.320384	-0.682894
O73	O	0.441014	-0.399087	-0.303541
H74	H	0.401782	-0.355802	-0.270716
O75	O	0.777574	-0.610410	-0.463710
H76	H	0.809827	-0.662881	-0.433447
H77	H	1.103595	-0.407020	-1.115496
H78	H	1.098210	-0.414141	-0.981935
