data_functionalizedCrystal
_audit_creation_method	'MofGen! by Chris Wilmer'
_symmetry_space_group_name_H-M	'P1'
_symmetry_Int_Tables_number	1
_symmetry_cell_setting	triclinic
loop_
_symmetry_equiv_pos_as_xyz
  x,y,z
_cell_length_a	9.130307
_cell_length_b	9.065218
_cell_length_c	9.065218
_cell_angle_alpha	85.015885
_cell_angle_beta	89.997755
_cell_angle_gamma	90.003314
loop_
_atom_site_label
_atom_site_type_symbol
_atom_site_fract_x
_atom_site_fract_y
_atom_site_fract_z
O1	O	-0.121797	-1.960400	-0.216346
O2	O	-0.121798	-1.531115	-0.234092
O3	O	-0.121794	-1.754631	-0.010577
O4	O	-0.121800	-1.736884	-0.439862
O5	O	0.121805	-1.754614	-0.010591
O6	O	0.121801	-1.531099	-0.234107
O7	O	0.121802	-1.960384	-0.216360
Cu8	Cu	0.144044	-1.745740	-0.225235
Cu9	Cu	-0.144040	-1.745759	-0.225218
O10	O	0.121799	-1.736868	-0.439876
C11	C	0.000001	-1.476120	-0.232394
C12	C	0.000000	-1.312277	-0.227294
N13	N	0.346667	-1.745737	-0.225246
N14	N	-0.346663	-1.745773	-0.225195
C15	C	0.653329	-1.564426	-0.043694
C16	C	0.576658	-1.473736	0.047038
C17	C	0.423324	-1.473708	0.047011
C18	C	0.346658	-1.564384	-0.043755
C19	C	0.423329	-1.655074	-0.134487
C20	C	0.576666	-1.655089	-0.134453
C21	C	0.423338	-1.836427	-0.315978
C22	C	0.576671	-1.836449	-0.315961
C23	C	0.346672	-1.927103	-0.406744
C24	C	0.423343	-2.017788	-0.497486
C25	C	0.576686	-2.017810	-0.497456
C26	C	0.653342	-1.927139	-0.406693
C27	C	0.000003	-1.752917	0.044403
C28	C	-0.000004	-1.747817	0.208245
C29	C	-0.000000	-2.015378	-0.218059
C30	C	-0.000009	-2.179221	-0.223158
C31	C	-0.000002	-1.738582	-0.494855
C32	C	-0.000004	-1.743681	-0.658698
H33	H	0.778181	-1.564428	-0.043673
C34	C	0.338975	-1.373953	0.146815
C35	C	0.360006	-1.393454	0.315932
C36	C	0.275656	-1.293700	0.415736
C37	C	0.170275	-1.174446	0.346423
C38	C	0.149240	-1.154940	0.177297
C39	C	0.233590	-1.254694	0.077494
H40	H	0.438019	-1.481738	0.367250
H41	H	0.291228	-1.308141	0.540934
H42	H	0.107834	-1.100603	0.420304
H43	H	0.071227	-1.066657	0.125980
H44	H	0.218018	-1.240253	-0.047705
C45	C	0.661020	-2.117572	-0.597265
C46	C	0.639901	-2.286683	-0.577887
C47	C	0.724230	-2.386446	-0.677698
C48	C	0.829678	-2.317099	-0.796887
C49	C	0.850802	-2.147978	-0.816270
C50	C	0.766473	-2.048215	-0.716459
H51	H	0.561837	-2.338027	-0.489652
H52	H	0.708592	-2.511641	-0.663348
H53	H	0.892103	-2.390949	-0.870772
H54	H	0.928866	-2.096635	-0.904506
H55	H	0.782111	-1.923021	-0.730809
H56	H	0.639096	-1.399913	0.120942
H57	H	0.221806	-1.564367	-0.043755
H58	H	0.221820	-1.927081	-0.406753
H59	H	0.360909	-2.091615	-0.571373
H60	H	0.778194	-1.927145	-0.406664
