data_functionalizedCrystal
_audit_creation_method	'MofGen! by Chris Wilmer'
_symmetry_space_group_name_H-M	'P1'
_symmetry_Int_Tables_number	1
_symmetry_cell_setting	triclinic
loop_
_symmetry_equiv_pos_as_xyz
  x,y,z
_cell_length_a	16.959455
_cell_length_b	13.897447
_cell_length_c	16.959447
_cell_angle_alpha	90.028096
_cell_angle_beta	90.014322
_cell_angle_gamma	90.016477
loop_
_atom_site_label
_atom_site_type_symbol
_atom_site_fract_x
_atom_site_fract_y
_atom_site_fract_z
Zn1	Zn	1.208387	-0.384074	0.446921
Zn2	Zn	1.208311	-0.545393	0.314747
Zn3	Zn	1.076215	-0.384105	0.314758
Zn4	Zn	1.076181	-0.545321	0.446886
O5	O	1.142273	-0.464723	0.380828
O6	O	1.318988	-0.405491	0.429398
O7	O	1.190770	-0.524040	0.204138
O8	O	1.093794	-0.249119	0.332309
O9	O	1.318931	-0.524011	0.332291
O10	O	1.190900	-0.249097	0.429408
O11	O	1.093720	-0.405543	0.204146
O12	O	0.965600	-0.405473	0.332275
O13	O	1.093736	-0.523888	0.557502
O14	O	0.965575	-0.523917	0.429349
O15	O	1.190867	-0.405421	0.557527
O16	O	1.190737	-0.680365	0.332257
O17	O	1.093662	-0.680312	0.429338
C18	C	0.936907	-0.464691	0.380810
C19	C	0.849051	-0.464701	0.380821
C20	C	0.477564	-0.402998	0.330388
C21	C	0.477586	-0.526527	0.431314
C22	C	0.560132	-0.526513	0.431309
C23	C	0.601398	-0.464742	0.380842
C24	C	0.560117	-0.402985	0.330379
C25	C	0.601419	-0.588276	0.481765
C26	C	0.683970	-0.588266	0.481762
C27	C	0.725237	-0.526489	0.431298
C28	C	0.683951	-0.464728	0.380834
C29	C	0.725217	-0.402957	0.330367
C30	C	0.683932	-0.341191	0.279906
C31	C	0.601384	-0.341208	0.279916
C32	C	0.807785	-0.526472	0.431288
C33	C	0.807770	-0.402944	0.330359
C34	C	1.142209	-0.715337	0.380810
C35	C	1.142254	-0.822551	0.380828
C36	C	1.142292	-0.909621	0.380846
C37	C	1.142348	-1.018854	0.380867
C38	C	1.348442	-0.464756	0.380847
C39	C	1.436298	-0.464770	0.380855
C40	C	1.142306	-0.464643	0.586997
C41	C	1.142320	-0.464609	0.674853
C42	C	1.142359	-0.213130	0.380864
C43	C	1.142396	-0.105916	0.380879
C44	C	1.142286	-0.464733	0.175462
C45	C	1.142425	-0.464495	0.087606
C46	C	1.091843	-0.526188	1.046318
C47	C	1.192986	-0.402827	1.046340
C48	C	1.192965	-0.402848	0.963794
C49	C	1.142383	-0.464540	0.922506
C50	C	1.091822	-0.526212	0.963765
C51	C	1.243531	-0.341184	0.922529
C52	C	1.243513	-0.341203	0.839978
C53	C	1.192926	-0.402891	0.798689
C54	C	1.142362	-0.464564	0.839953
C55	C	1.091780	-0.526257	0.798665
C56	C	1.041212	-0.587926	0.839927
C57	C	1.041235	-0.587900	0.922475
C58	C	1.192902	-0.402917	0.716141
C59	C	1.091759	-0.526281	0.716111
H60	H	1.050561	-0.576511	0.682501
H61	H	0.717541	-0.290901	0.238812
H62	H	0.443983	-0.576824	0.472398
H63	H	1.234172	-0.352606	1.079961
H64	H	0.567815	-0.638574	0.522847
H65	H	0.567763	-0.290922	0.238832
O66	O	1.292596	-0.281300	0.962757
C67	C	1.337494	-0.226652	1.089943
C68	C	1.281870	-0.294501	1.044480
H69	H	1.328853	-0.237316	1.156024
H70	H	1.323647	-0.148849	1.073791
H71	H	1.401209	-0.243608	1.073662
H72	H	1.218136	-0.277632	1.060737
H73	H	1.295785	-0.372284	1.060635
H74	H	0.841363	-0.352635	0.289266
O75	O	0.437430	-0.343140	0.281288
C76	C	0.344156	-0.330003	0.174632
C77	C	0.389573	-0.397903	0.230174
H78	H	0.305441	-0.374250	0.133304
H79	H	0.387796	-0.285870	0.138504
H80	H	0.305567	-0.279606	0.211016
H81	H	0.428164	-0.448358	0.193852
H82	H	0.345891	-0.441968	0.266306
H83	H	0.717576	-0.638559	0.522850
H84	H	0.841395	-0.576764	0.472370
O85	O	0.992104	-0.647763	0.799694
C86	C	0.947298	-0.702510	0.672504
C87	C	1.002936	-0.634682	0.717972
H88	H	0.956048	-0.691972	0.606424
H89	H	0.883552	-0.685554	0.688669
H90	H	0.961143	-0.780276	0.688766
H91	H	0.989162	-0.556893	0.701734
H92	H	1.066665	-0.651721	0.701803
H93	H	1.284688	-0.290987	0.806390
H94	H	1.000068	-0.638111	0.956078
O95	O	1.241934	-0.342883	0.676094
C96	C	1.280396	-0.178825	0.650905
C97	C	1.224804	-0.246708	0.696293
H98	H	1.266578	-0.101055	0.667232
H99	H	1.271688	-0.189354	0.584804
H100	H	1.344125	-0.195827	0.667120
H101	H	1.161054	-0.229748	0.680144
H102	H	1.233581	-0.236167	0.762383
O103	O	1.042798	-0.586060	1.086517
C104	C	0.997958	-0.640653	1.213673
C105	C	1.053555	-0.572815	1.168247
H106	H	1.006624	-0.629953	1.279760
H107	H	1.011809	-0.718460	1.197487
H108	H	0.934234	-0.623718	1.197393
H109	H	1.117297	-0.589663	1.184503
H110	H	1.039636	-0.495027	1.184437
