data_functionalizedCrystal
_audit_creation_method	'MofGen! by Chris Wilmer'
_symmetry_space_group_name_H-M	'P1'
_symmetry_Int_Tables_number	1
_symmetry_cell_setting	triclinic
loop_
_symmetry_equiv_pos_as_xyz
  x,y,z
_cell_length_a	15.995350
_cell_length_b	19.288865
_cell_length_c	18.366186
_cell_angle_alpha	90.010368
_cell_angle_beta	90.005438
_cell_angle_gamma	83.314311
loop_
_atom_site_label
_atom_site_type_symbol
_atom_site_fract_x
_atom_site_fract_y
_atom_site_fract_z
O1	O	-1.110653	-0.089530	-0.060497
O2	O	-0.866836	-0.100586	-0.060513
O3	O	-0.995790	0.006054	-0.060490
O4	O	-0.981700	-0.196170	-0.060519
O5	O	-0.995768	0.006057	0.060610
O6	O	-0.866814	-0.100583	0.060587
O7	O	-1.110631	-0.089527	0.060603
Zn8	Zn	-0.988719	-0.095055	0.079822
Zn9	Zn	-0.988748	-0.095059	-0.079732
O10	O	-0.981678	-0.196167	0.060580
C11	C	-0.835632	-0.100128	0.000035
C12	C	-0.742687	-0.098757	0.000030
C13	C	-0.995326	0.031933	0.000062
C14	C	-0.993965	0.109040	0.000068
C15	C	-1.141835	-0.089986	0.000053
C16	C	-1.234781	-0.091356	0.000054
C17	C	-0.404958	-0.093836	0.000046
C18	C	-0.452679	-0.017889	0.000327
C19	C	-0.549364	-0.019260	0.000049
C20	C	-0.572509	-0.096277	0.000038
C21	C	-0.531294	-0.133739	-0.069118
C22	C	-0.434665	-0.131831	-0.069171
C23	C	-0.434295	-0.133397	0.068542
C24	C	-0.531240	-0.133379	0.069451
C25	C	-0.667202	-0.097661	0.000032
C26	C	-0.310266	-0.092455	0.000047
C27	C	-0.982142	-0.222047	0.000027
C28	C	-0.983503	-0.299154	0.000015
N29	N	-0.988705	-0.095052	0.188713
C30	C	-1.069629	0.153540	0.000077
C31	C	-1.068350	0.225990	0.000065
C32	C	-0.991403	0.253937	0.000060
C33	C	-0.915729	0.209428	0.000047
C34	C	-0.917010	0.136979	0.000052
C35	C	-0.930906	0.362383	0.042474
C36	C	-0.929628	0.434831	0.042475
C37	C	-0.987450	0.477393	0.000043
C38	C	-1.046563	0.447501	-0.042379
C39	C	-1.047844	0.375052	-0.042374
C40	C	-0.990006	0.332495	0.000055
C41	C	-1.061733	0.600453	0.000038
C42	C	-1.060451	0.672904	0.000022
C43	C	-0.907827	0.656340	0.000011
C44	C	-0.909111	0.583890	0.000020
C45	C	-0.986066	0.555951	0.000037
N46	N	-0.988769	-0.095057	-0.188623
C47	C	-1.039320	-0.137207	0.226804
C48	C	-1.039333	-0.137205	0.303032
C49	C	-0.988717	-0.095056	0.341166
C50	C	-0.938099	-0.052892	0.303065
C51	C	-0.938094	-0.052890	0.226839
C52	C	-0.913241	-0.093103	0.461942
C53	C	-0.913245	-0.093110	0.538167
C54	C	-0.988736	-0.095058	0.576273
C55	C	-1.064224	-0.097014	0.538145
C56	C	-1.064218	-0.097012	0.461919
C57	C	-0.988718	-0.095053	0.423821
C58	C	-1.039369	-0.137214	0.697020
C59	C	-1.039385	-0.137207	0.773249
C60	C	-0.938143	-0.052898	0.773280
C61	C	-0.938136	-0.052901	0.697053
C62	C	-0.988747	-0.095063	0.658927
H63	H	-0.577895	0.010187	0.049623
H64	H	-0.851778	-0.091522	0.569206
Cl65	Cl	-0.422614	0.028769	-0.075803
H66	H	-0.434262	0.012470	0.049922
H67	H	-1.124394	0.577704	0.000049
H68	H	-0.847497	0.547657	0.000017
Cl69	Cl	-1.103025	-0.190204	0.821136
H70	H	-0.413844	-0.108566	0.120960
H71	H	-0.853078	0.232187	0.000041
Cl72	Cl	-0.874485	0.000084	0.649164
H73	H	-1.125695	-0.098604	0.569169
H74	H	-0.881491	0.459163	0.077013
H75	H	-0.896931	-0.018579	0.804328
Cl76	Cl	-0.384548	-0.217916	-0.074029
Cl77	Cl	-0.592534	0.026306	-0.076742
Cl78	Cl	-0.552797	-0.221092	-0.073119
H79	H	-1.095974	0.350716	-0.076917
Cl80	Cl	-0.874470	0.000098	0.351004
Cl81	Cl	-1.155581	0.728849	0.000028
Cl82	Cl	-0.858211	0.308883	0.095824
Cl83	Cl	-0.811093	0.691467	0.000000
H84	H	-0.559776	-0.107722	-0.120578
Cl85	Cl	-0.573456	-0.091088	0.148440
Cl86	Cl	-0.821881	0.081033	0.000041
Cl87	Cl	-1.102968	-0.190204	0.350929
Cl88	Cl	-1.103013	-0.190200	0.649086
H89	H	-1.093646	0.482154	-0.076931
Cl90	Cl	-1.163478	0.281943	0.000076
H91	H	-1.080535	-0.171536	0.195767
Cl92	Cl	-1.166372	0.118420	0.000078
Cl93	Cl	-0.406568	-0.089656	-0.148972
H94	H	-0.851762	-0.091522	0.430923
Cl95	Cl	-1.159112	-0.099468	0.413988
H96	H	-0.546393	-0.189542	0.073620
H97	H	-0.402322	-0.189392	0.069002
Cl98	Cl	-0.874453	0.000105	0.178950
