data_functionalizedCrystal
_audit_creation_method	'MofGen! by Chris Wilmer'
_symmetry_space_group_name_H-M	'P1'
_symmetry_Int_Tables_number	1
_symmetry_cell_setting	triclinic
loop_
_symmetry_equiv_pos_as_xyz
  x,y,z
_cell_length_a	17.077404
_cell_length_b	16.959454
_cell_length_c	17.077395
_cell_angle_alpha	89.976524
_cell_angle_beta	89.984359
_cell_angle_gamma	90.020300
loop_
_atom_site_label
_atom_site_type_symbol
_atom_site_fract_x
_atom_site_fract_y
_atom_site_fract_z
Zn1	Zn	1.200040	-0.314687	-0.443863
Zn2	Zn	1.700040	0.185313	0.056137
Zn3	Zn	1.199962	-0.446872	-0.312606
Zn4	Zn	1.699962	0.053128	0.187394
Zn5	Zn	1.068781	-0.314711	-0.312611
Zn6	Zn	1.568781	0.185289	0.187389
Zn7	Zn	1.068746	-0.446828	-0.443829
Zn8	Zn	1.568746	0.053172	0.056171
O9	O	1.134382	-0.380774	-0.378227
O10	O	1.634382	0.119226	0.121773
O11	O	1.309877	-0.332229	-0.426463
O12	O	1.809877	0.167771	0.073537
O13	O	1.182543	-0.429369	-0.202759
O14	O	1.682543	0.070631	0.297241
O15	O	1.086239	-0.204097	-0.330038
O16	O	1.586239	0.295903	0.169962
O17	O	1.309820	-0.429345	-0.330029
O18	O	1.809820	0.070655	0.169971
O19	O	1.182675	-0.204079	-0.426469
O20	O	1.682675	0.295921	0.073531
O21	O	1.086164	-0.332272	-0.202763
O22	O	1.586164	0.167728	0.297237
O23	O	0.958929	-0.332229	-0.330006
O24	O	1.458929	0.167771	0.169994
O25	O	1.086181	-0.429270	-0.553681
O26	O	1.586181	0.070730	-0.053681
O27	O	0.958904	-0.429294	-0.426411
O28	O	1.458904	0.070706	0.073589
O29	O	1.182642	-0.332187	-0.553706
O30	O	1.682642	0.167813	-0.053706
O31	O	1.182509	-0.557477	-0.329996
O32	O	1.682509	-0.057477	0.170004
O33	O	1.086106	-0.557444	-0.426406
O34	O	1.586106	-0.057444	0.073594
C35	C	0.930435	-0.380760	-0.378206
C36	C	1.430435	0.119240	0.121794
C37	C	0.843185	-0.380773	-0.378215
C38	C	1.343185	0.119227	0.121785
C39	C	1.134317	-0.586141	-0.378214
C40	C	1.634317	-0.086141	0.121786
C41	C	1.134360	-0.673997	-0.378234
C42	C	1.634360	-0.173997	0.121766
C43	C	0.802202	-0.431391	-0.428333
C44	C	1.302202	0.068609	0.071667
C45	C	0.720221	-0.431393	-0.428345
C46	C	1.220221	0.068607	0.071655
C47	C	0.679225	-0.380780	-0.378236
C48	C	1.179225	0.119220	0.121764
C49	C	0.720214	-0.330156	-0.328116
C50	C	1.220214	0.169844	0.171884
C51	C	0.802193	-0.330151	-0.328108
C52	C	1.302193	0.169849	0.171892
C53	C	0.549344	-0.330172	-0.328134
C54	C	1.049344	0.169828	0.171866
C55	C	0.467359	-0.330178	-0.328141
C56	C	0.967359	0.169822	0.171859
C57	C	0.467373	-0.431413	-0.428372
C58	C	0.967373	0.068587	0.071628
C59	C	0.549351	-0.431408	-0.428364
C60	C	1.049351	0.068592	0.071636
C61	C	0.590334	-0.380785	-0.378243
C62	C	1.090334	0.119215	0.121757
C63	C	1.084258	-1.045486	-0.428422
C64	C	1.584258	-0.545486	0.071578
C65	C	1.184726	-1.045460	-0.328112
C66	C	1.684726	-0.545460	0.171888
C67	C	1.184698	-0.962914	-0.328105
C68	C	1.684698	-0.462914	0.171895
C69	C	1.134449	-0.921650	-0.378256
C70	C	1.634449	-0.421650	0.121744
C71	C	1.084227	-0.962932	-0.428415
C72	C	1.584227	-0.462932	0.071585
C73	C	1.234914	-0.921625	-0.277942
C74	C	1.734914	-0.421625	0.222058
C75	C	1.234888	-0.839074	-0.277932
C76	C	1.734888	-0.339074	0.222068
C77	C	1.184642	-0.797809	-0.328088
C78	C	1.684642	-0.297809	0.171912
C79	C	1.134418	-0.839097	-0.378249
C80	C	1.634418	-0.339097	0.121751
C81	C	1.084169	-0.797833	-0.428400
C82	C	1.584169	-0.297833	0.071600
C83	C	1.033949	-0.839119	-0.478566
C84	C	1.533949	-0.339119	0.021434
C85	C	1.033981	-0.921667	-0.478571
C86	C	1.533981	-0.421667	0.021429
C87	C	1.184610	-0.715261	-0.328083
C88	C	1.684610	-0.215261	0.171917
C89	C	1.084138	-0.715279	-0.428393
C90	C	1.584138	-0.215279	0.071607
C91	C	1.339127	-0.380789	-0.378250
C92	C	1.839127	0.119211	0.121750
C93	C	1.426376	-0.380796	-0.378259
C94	C	1.926376	0.119204	0.121741
C95	C	1.134416	-0.380721	-0.582972
C96	C	1.634416	0.119279	-0.082972
C97	C	1.134430	-0.380698	-0.670222
C98	C	1.634430	0.119302	-0.170222
C99	C	1.134470	-0.174606	-0.378258
C100	C	1.634470	0.325394	0.121742
C101	C	1.134507	-0.086749	-0.378271
C102	C	1.634507	0.413251	0.121729
C103	C	1.184745	-0.330039	-1.046050
C104	C	1.684745	0.169961	-0.546050
C105	C	1.184729	-0.330067	-0.964070
C106	C	1.684729	0.169933	-0.464070
C107	C	1.134495	-0.380623	-0.923071
C108	C	1.634495	0.119377	-0.423071
C109	C	1.084280	-0.431160	-0.964056
C110	C	1.584280	0.068840	-0.464056
C111	C	1.084300	-0.431136	-1.046035
C112	C	1.584300	0.068864	-0.546035
C113	C	1.084239	-0.431206	-0.793186
C114	C	1.584239	0.068794	-0.293186
C115	C	1.084217	-0.431230	-0.711201
C116	C	1.584217	0.068770	-0.211201
C117	C	1.184667	-0.330137	-0.711221
C118	C	1.684667	0.169863	-0.211221
C119	C	1.184688	-0.330113	-0.793200
C120	C	1.684688	0.169887	-0.293200
C121	C	1.134472	-0.380649	-0.834180
C122	C	1.634472	0.119351	-0.334180
C123	C	1.134394	-0.380771	-0.174279
C124	C	1.634394	0.119229	0.325721
C125	C	1.134532	-0.380571	-0.087030
C126	C	1.634532	0.119429	0.412970
H127	H	0.835575	-0.472609	-0.469136
H128	H	1.335575	0.027391	0.030864
Br129	Br	0.604963	-0.261467	-0.260114
Br130	Br	1.104963	0.238533	0.239886
H131	H	1.225494	-0.681650	-0.287235
H132	H	1.725494	-0.181650	0.212765
Br133	Br	1.016108	-0.499777	-0.908415
Br134	Br	1.516108	0.000223	-0.408415
H135	H	1.225589	-0.288942	-0.826579
H136	H	1.725589	0.211058	-0.326579
H137	H	0.686857	-0.472612	-0.469156
H138	H	1.186857	0.027388	0.030844
H139	H	0.582728	-0.472626	-0.469164
H140	H	1.082728	0.027374	0.030836
H141	H	0.434000	-0.472630	-0.469185
H142	H	0.934000	0.027370	0.030815
Br143	Br	1.252917	-1.101460	-0.260052
Br144	Br	1.752917	-0.601460	0.239948
Br145	Br	1.303108	-0.977628	-0.209887
Br146	Br	1.803108	-0.477628	0.290113
Br147	Br	0.664577	-0.261458	-0.260116
Br148	Br	1.164577	0.238542	0.239884
H149	H	0.433982	-0.288955	-0.287347
H150	H	0.933982	0.211045	0.212653
Br151	Br	1.252842	-0.261574	-0.655607
Br152	Br	1.752842	0.238426	-0.155607
H153	H	0.835560	-0.288928	-0.287301
H154	H	1.335560	0.211072	0.212699
Br155	Br	1.016046	-0.499845	-0.655559
Br156	Br	1.516046	0.000155	-0.155559
H157	H	1.043222	-0.681688	-0.469236
H158	H	1.543222	-0.181688	0.030764
H159	H	0.993032	-0.805512	-0.519396
H160	H	1.493032	-0.305512	-0.019396
Br161	Br	0.965832	-0.977702	-0.546647
Br162	Br	1.465832	-0.477702	-0.046647
H163	H	1.043413	-0.472285	-1.079400
H164	H	1.543413	0.027715	-0.579400
H165	H	1.043372	-1.079104	-0.469268
H166	H	1.543372	-0.579104	0.030732
Br167	Br	1.303047	-0.783051	-0.209858
Br168	Br	1.803047	-0.283051	0.290142
H169	H	1.225646	-0.288865	-1.079426
H170	H	1.725646	0.211135	-0.579426
Br171	Br	1.252880	-0.261487	-0.908457
Br172	Br	1.752880	0.238513	-0.408457
Br173	Br	1.016089	-0.499793	-0.848801
Br174	Br	1.516089	0.000207	-0.348801
