data_functionalizedCrystal
_audit_creation_method	'MofGen! by Chris Wilmer'
_symmetry_space_group_name_H-M	'P1'
_symmetry_Int_Tables_number	1
_symmetry_cell_setting	triclinic
loop_
_symmetry_equiv_pos_as_xyz
  x,y,z
_cell_length_a	18.050591
_cell_length_b	18.050589
_cell_length_c	18.050583
_cell_angle_alpha	90.031910
_cell_angle_beta	90.011642
_cell_angle_gamma	90.027061
loop_
_atom_site_label
_atom_site_type_symbol
_atom_site_fract_x
_atom_site_fract_y
_atom_site_fract_z
Zn1	Zn	1.135301	-0.295629	0.419848
Zn2	Zn	1.385301	-0.045629	0.669848
Zn3	Zn	1.635301	0.204371	0.919848
Zn4	Zn	1.885301	0.454371	1.169848
Zn5	Zn	1.135209	-0.419842	0.295668
Zn6	Zn	1.385209	-0.169842	0.545668
Zn7	Zn	1.635209	0.080158	0.795668
Zn8	Zn	1.885209	0.330158	1.045668
Zn9	Zn	1.011117	-0.295668	0.295682
Zn10	Zn	1.261117	-0.045668	0.545682
Zn11	Zn	1.511117	0.204332	0.795682
Zn12	Zn	1.761117	0.454332	1.045682
Zn13	Zn	1.011068	-0.419779	0.419826
Zn14	Zn	1.261068	-0.169779	0.669826
Zn15	Zn	1.511068	0.080221	0.919826
Zn16	Zn	1.761068	0.330221	1.169826
O17	O	1.073174	-0.357730	0.357756
O18	O	1.323174	-0.107730	0.607756
O19	O	1.573174	0.142270	0.857756
O20	O	1.823174	0.392270	1.107756
O21	O	1.239213	-0.312116	0.403379
O22	O	1.489213	-0.062116	0.653379
O23	O	1.739213	0.187884	0.903379
O24	O	1.989213	0.437884	1.153379
O25	O	1.118730	-0.403413	0.191745
O26	O	1.368730	-0.153413	0.441745
O27	O	1.618730	0.096587	0.691745
O28	O	1.868730	0.346587	0.941745
O29	O	1.027650	-0.191738	0.312168
O30	O	1.277650	0.058262	0.562168
O31	O	1.527650	0.308262	0.812168
O32	O	1.777650	0.558262	1.062168
O33	O	1.239146	-0.403375	0.312144
O34	O	1.489146	-0.153375	0.562144
O35	O	1.739146	0.096625	0.812144
O36	O	1.989146	0.346625	1.062144
O37	O	1.118887	-0.191710	0.403393
O38	O	1.368887	0.058290	0.653393
O39	O	1.618887	0.308290	0.903393
O40	O	1.868887	0.558290	1.153393
O41	O	1.027561	-0.312183	0.191755
O42	O	1.277561	-0.062183	0.441755
O43	O	1.527561	0.187817	0.691755
O44	O	1.777561	0.437817	0.941755
O45	O	0.907186	-0.312122	0.312146
O46	O	1.157186	-0.062122	0.562146
O47	O	1.407186	0.187878	0.812146
O48	O	1.657186	0.437878	1.062146
O49	O	1.027565	-0.403268	0.523753
O50	O	1.277565	-0.153268	0.773753
O51	O	1.527565	0.096732	1.023753
O52	O	1.777565	0.346732	1.273753
O53	O	0.907150	-0.403306	0.403354
O54	O	1.157150	-0.153306	0.653354
O55	O	1.407150	0.096694	0.903354
O56	O	1.657150	0.346694	1.153354
O57	O	1.118838	-0.312055	0.523770
O58	O	1.368838	-0.062055	0.773770
O59	O	1.618838	0.187945	1.023770
O60	O	1.868838	0.437945	1.273770
O61	O	1.118682	-0.523758	0.312122
O62	O	1.368682	-0.273758	0.562122
O63	O	1.618682	-0.023758	0.812122
O64	O	1.868682	0.226242	1.062122
O65	O	1.027476	-0.523712	0.403341
O66	O	1.277476	-0.273712	0.653341
O67	O	1.527476	-0.023712	0.903341
O68	O	1.777476	0.226288	1.153341
C69	C	0.880222	-0.357712	0.357750
C70	C	1.130222	-0.107712	0.607750
C71	C	1.380222	0.142288	0.857750
C72	C	1.630222	0.392288	1.107750
C73	C	0.797676	-0.357722	0.357765
C74	C	1.047676	-0.107722	0.607765
C75	C	1.297676	0.142278	0.857765
C76	C	1.547676	0.392278	1.107765
C77	C	0.548852	-0.407410	0.407296
C78	C	0.798852	-0.157410	0.657296
C79	C	1.048852	0.092590	0.907296
C80	C	1.298852	0.342590	1.157296
C81	C	0.598221	-0.425497	0.339512
C82	C	0.848221	-0.175497	0.589512
C83	C	1.098221	0.074503	0.839512
C84	C	1.348221	0.324503	1.089512
C85	C	0.500555	-0.357745	0.357764
C86	C	0.750555	-0.107745	0.607764
C87	C	1.000555	0.142255	0.857764
C88	C	1.250555	0.392255	1.107764
C89	C	0.598268	-0.339681	0.425545
C90	C	0.848268	-0.089681	0.675545
C91	C	1.098268	0.160319	0.925545
C92	C	1.348268	0.410319	1.175545
C93	C	0.646540	-0.357735	0.357768
C94	C	0.896540	-0.107735	0.607768
C95	C	1.146540	0.142265	0.857768
C96	C	1.396540	0.392265	1.107768
C97	C	0.548837	-0.375867	0.289943
C98	C	0.798837	-0.125867	0.539943
C99	C	1.048837	0.124133	0.789943
C100	C	1.298837	0.374133	1.039943
C101	C	0.548880	-0.290020	0.376022
C102	C	0.798880	-0.040020	0.626022
C103	C	1.048880	0.209980	0.876022
C104	C	1.298880	0.459980	1.126022
C105	C	0.598227	-0.308081	0.308191
C106	C	0.848227	-0.058081	0.558191
C107	C	1.098227	0.191919	0.808191
C108	C	1.348227	0.441919	1.058191
C109	C	0.416457	-0.357752	0.357762
C110	C	0.666457	-0.107752	0.607762
C111	C	0.916457	0.142248	0.857762
C112	C	1.166457	0.392248	1.107762
C113	C	0.730637	-0.357728	0.357762
C114	C	0.980637	-0.107728	0.607762
C115	C	1.230637	0.142272	0.857762
C116	C	1.480637	0.392272	1.107762
C117	C	1.073084	-0.550682	0.357744
C118	C	1.323084	-0.300682	0.607744
C119	C	1.573084	-0.050682	0.857744
C120	C	1.823084	0.199318	1.107744
C121	C	1.073114	-0.633228	0.357763
C122	C	1.323114	-0.383228	0.607763
C123	C	1.573114	-0.133228	0.857763
C124	C	1.823114	0.116772	1.107763
C125	C	1.023565	-0.832680	0.407350
C126	C	1.273565	-0.582680	0.657350
C127	C	1.523565	-0.332680	0.907350
C128	C	1.773565	-0.082680	1.157350
C129	C	1.005465	-0.882130	0.339584
C130	C	1.255465	-0.632130	0.589584
C131	C	1.505465	-0.382130	0.839584
C132	C	1.755465	-0.132130	1.089584
C133	C	1.073187	-0.784358	0.357773
C134	C	1.323187	-0.534358	0.607773
C135	C	1.573187	-0.284358	0.857773
C136	C	1.823187	-0.034358	1.107773
C137	C	1.091322	-0.881990	0.425547
C138	C	1.341322	-0.631990	0.675547
C139	C	1.591322	-0.381990	0.925547
C140	C	1.841322	-0.131990	1.175547
C141	C	1.073256	-0.930343	0.357788
C142	C	1.323256	-0.680343	0.607788
C143	C	1.573256	-0.430343	0.857788
C144	C	1.823256	-0.180343	1.107788
C145	C	1.055052	-0.832721	0.289971
C146	C	1.305052	-0.582721	0.539971
C147	C	1.555052	-0.332721	0.789971
C148	C	1.805052	-0.082721	1.039971
C149	C	1.140940	-0.832576	0.375979
C150	C	1.390940	-0.582576	0.625979
C151	C	1.640940	-0.332576	0.875979
C152	C	1.890940	-0.082576	1.125979
C153	C	1.122867	-0.882004	0.308166
C154	C	1.372867	-0.632004	0.558166
C155	C	1.622867	-0.382004	0.808166
C156	C	1.872867	-0.132004	1.058166
C157	C	1.073145	-0.700260	0.357765
C158	C	1.323145	-0.450260	0.607765
C159	C	1.573145	-0.200260	0.857765
C160	C	1.823145	0.049740	1.107765
C161	C	1.073297	-1.014440	0.357788
C162	C	1.323297	-0.764440	0.607788
C163	C	1.573297	-0.514440	0.857788
C164	C	1.823297	-0.264440	1.107788
C165	C	1.266879	-0.357748	0.357763
C166	C	1.516879	-0.107748	0.607763
C167	C	1.766879	0.142252	0.857763
C168	C	2.016879	0.392252	1.107763
C169	C	1.349425	-0.357756	0.357765
C170	C	1.599425	-0.107756	0.607765
C171	C	1.849425	0.142244	0.857765
C172	C	2.099425	0.392244	1.107765
C173	C	1.073206	-0.357650	0.551462
C174	C	1.323206	-0.107650	0.801462
C175	C	1.573206	0.142350	1.051462
C176	C	1.823206	0.392350	1.301462
C177	C	1.073220	-0.357617	0.634007
C178	C	1.323220	-0.107617	0.884007
C179	C	1.573220	0.142383	1.134007
C180	C	1.823220	0.392383	1.384007
C181	C	1.073284	-0.164024	0.357785
C182	C	1.323284	0.085976	0.607785
C183	C	1.573284	0.335976	0.857785
C184	C	1.823284	0.585976	1.107785
C185	C	1.073331	-0.081478	0.357797
C186	C	1.323331	0.168522	0.607797
C187	C	1.573331	0.418522	0.857797
C188	C	1.823331	0.668522	1.107797
C189	C	1.073184	-0.357755	0.164804
C190	C	1.323184	-0.107755	0.414804
C191	C	1.573184	0.142245	0.664804
C192	C	1.823184	0.392245	0.914804
C193	C	1.073314	-0.357580	0.082258
C194	C	1.323314	-0.107580	0.332258
C195	C	1.573314	0.142420	0.582258
C196	C	1.823314	0.392420	0.832258
C197	C	1.122905	-0.307991	0.833467
C198	C	1.372905	-0.057991	1.083467
C199	C	1.622905	0.192009	1.333467
C200	C	1.872905	0.442009	1.583467
C201	C	1.055171	-0.289814	0.882866
C202	C	1.305171	-0.039814	1.132866
C203	C	1.555171	0.210186	1.382866
C204	C	1.805171	0.460186	1.632866
C205	C	1.073250	-0.357604	0.785138
C206	C	1.323250	-0.107604	1.035138
C207	C	1.573250	0.142396	1.285138
C208	C	1.823250	0.392396	1.535138
C209	C	1.141011	-0.375734	0.882821
C210	C	1.391011	-0.125734	1.132821
C211	C	1.641011	0.124266	1.382821
C212	C	1.891011	0.374266	1.632821
C213	C	1.073285	-0.357590	0.931123
C214	C	1.323285	-0.107590	1.181123
C215	C	1.573285	0.142410	1.431123
C216	C	1.823285	0.392410	1.681123
C217	C	1.005481	-0.339391	0.833449
C218	C	1.255481	-0.089391	1.083449
C219	C	1.505481	0.160609	1.333449
C220	C	1.755481	0.410609	1.583449
C221	C	1.091367	-0.425344	0.833400
C222	C	1.341367	-0.175344	1.083400
C223	C	1.591367	0.074656	1.333400
C224	C	1.841367	0.324656	1.583400
C225	C	1.023586	-0.407192	0.882776
C226	C	1.273586	-0.157192	1.132776
C227	C	1.523586	0.092808	1.382776
C228	C	1.773586	0.342808	1.632776
C229	C	1.073231	-0.357610	0.701040
C230	C	1.323231	-0.107610	0.951040
C231	C	1.573231	0.142390	1.201040
C232	C	1.823231	0.392390	1.451040
C233	C	1.073296	-0.357584	1.015220
C234	C	1.323296	-0.107584	1.265220
C235	C	1.573296	0.142416	1.515220
C236	C	1.823296	0.392416	1.765220
H237	H	0.527173	-0.449447	0.449130
H238	H	0.777173	-0.199447	0.699130
H239	H	1.027173	0.050553	0.949130
H240	H	1.277173	0.300553	1.199130
H241	H	0.981539	-0.811022	0.449217
H242	H	1.231539	-0.561022	0.699217
H243	H	1.481539	-0.311022	0.949217
H244	H	1.731539	-0.061022	1.199217
H245	H	0.527215	-0.391211	0.232607
H246	H	0.777215	-0.141211	0.482607
H247	H	1.027215	0.108789	0.732607
H248	H	1.277215	0.358789	0.982607
H249	H	0.981562	-0.449142	0.904291
H250	H	1.231562	-0.199142	1.154291
H251	H	1.481562	0.050858	1.404291
H252	H	1.731562	0.300858	1.654291
H253	H	1.198301	-0.391074	0.904511
H254	H	1.448301	-0.141074	1.154511
H255	H	1.698301	0.108926	1.404511
H256	H	1.948301	0.358926	1.654511
H257	H	0.948201	-0.903913	0.324200
H258	H	1.198201	-0.653913	0.574200
H259	H	1.448201	-0.403913	0.824200
H260	H	1.698201	-0.153913	1.074200
H261	H	1.039859	-0.232522	0.904594
H262	H	1.289859	0.017478	1.154594
H263	H	1.539859	0.267478	1.404594
H264	H	1.789859	0.517478	1.654594
H265	H	0.619893	-0.482767	0.324065
H266	H	0.869893	-0.232767	0.574065
H267	H	1.119893	0.017233	0.824065
H268	H	1.369893	0.267233	1.074065
H269	H	1.106634	-0.903632	0.482856
H270	H	1.356634	-0.653632	0.732856
H271	H	1.606634	-0.403632	0.982856
H272	H	1.856634	-0.153632	1.232856
H273	H	1.164827	-0.266009	0.811814
H274	H	1.414827	-0.016009	1.061814
H275	H	1.664827	0.233991	1.311814
H276	H	1.914827	0.483991	1.561814
H277	H	0.619769	-0.266077	0.266256
H278	H	0.869769	-0.016077	0.516256
H279	H	1.119769	0.233923	0.766256
H280	H	1.369769	0.483923	1.016256
H281	H	0.527190	-0.232766	0.391488
H282	H	0.777190	0.017234	0.641488
H283	H	1.027190	0.267234	0.891488
H284	H	1.277190	0.517234	1.141488
H285	H	1.106699	-0.482619	0.811658
H286	H	1.356699	-0.232619	1.061658
H287	H	1.606699	0.017381	1.311658
H288	H	1.856699	0.267381	1.561658
H289	H	0.619981	-0.324407	0.482865
H290	H	0.869981	-0.074407	0.732865
H291	H	1.119981	0.175593	0.982865
H292	H	1.369981	0.425593	1.232865
H293	H	1.039674	-0.811168	0.232646
H294	H	1.289674	-0.561168	0.482646
H295	H	1.539674	-0.311168	0.732646
H296	H	1.789674	-0.061168	0.982646
H297	H	1.164860	-0.903524	0.266198
H298	H	1.414860	-0.653524	0.516198
H299	H	1.664860	-0.403524	0.766198
H300	H	1.914860	-0.153524	1.016198
H301	H	1.198192	-0.810795	0.391396
H302	H	1.448192	-0.560795	0.641396
H303	H	1.698192	-0.310795	0.891396
H304	H	1.948192	-0.060795	1.141396
H305	H	0.948174	-0.323984	0.811853
H306	H	1.198174	-0.073984	1.061853
H307	H	1.448174	0.176016	1.311853
H308	H	1.698174	0.426016	1.561853
