data_functionalizedCrystal
_audit_creation_method	'MofGen! by Chris Wilmer'
_symmetry_space_group_name_H-M	'P1'
_symmetry_Int_Tables_number	1
_symmetry_cell_setting	triclinic
loop_
_symmetry_equiv_pos_as_xyz
  x,y,z
_cell_length_a	6.817900
_cell_length_b	9.582860
_cell_length_c	27.923559
_cell_angle_alpha	94.918747
_cell_angle_beta	98.965071
_cell_angle_gamma	111.206767
loop_
_atom_site_label
_atom_site_type_symbol
_atom_site_fract_x
_atom_site_fract_y
_atom_site_fract_z
V1	V	-4.017140	-0.209183	-0.151178
O2	O	-3.963707	0.007862	-0.148392
O3	O	-4.008279	-0.412668	-0.150056
O4	O	-3.946496	-0.206926	-0.217153
O5	O	-4.025918	-0.199304	-0.080831
V6	V	-4.498527	-0.183108	-0.142775
O7	O	-4.283084	-0.266380	-0.169612
O8	O	-4.682780	-0.125911	-0.124342
O9	O	-4.284181	0.020377	-0.143897
O10	O	-4.669357	-0.400153	-0.145561
O11	O	-4.607146	-0.192987	-0.213122
O12	O	-4.345964	-0.185365	-0.076801
C13	C	-3.863619	-0.462243	-0.147649
C14	C	-3.937513	-0.628601	-0.147171
C15	C	-3.784807	-0.199797	-0.233236
C16	C	-3.808593	-0.199299	-0.287170
C17	C	-4.020759	-0.333531	-0.628498
C18	C	-4.110282	-0.331746	-0.831207
O19	O	-4.176701	-0.448152	-0.863263
N20	N	-4.057082	-0.194376	-0.849683
C21	C	-3.981508	-0.057443	-0.817477
O22	O	-3.938333	0.059439	-0.837843
C23	C	-3.892000	-0.059230	-0.614769
C24	C	-3.945186	-0.196608	-0.596296
C25	C	-4.073941	-0.470898	-0.610025
C26	C	-4.051550	-0.471342	-0.559350
C27	C	-3.975976	-0.334419	-0.527149
C28	C	-3.922794	-0.197052	-0.545622
C29	C	-3.816442	0.077701	-0.582564
C30	C	-3.794075	0.077241	-0.531885
C31	C	-3.847260	-0.060137	-0.513412
C32	C	-3.824830	-0.060574	-0.462746
N33	N	-3.878030	-0.197944	-0.444270
C34	C	-3.953603	-0.334867	-0.476472
C35	C	-4.028502	-0.056514	-0.923902
C36	C	-4.050875	-0.056067	-0.974579
C37	C	-4.179652	-0.330371	-0.988306
C38	C	-4.157263	-0.330816	-0.937628
C39	C	-4.081702	-0.193884	-0.905427
C40	C	-3.906574	-0.335789	-0.370051
C41	C	-3.884166	-0.336221	-0.319371
C42	C	-3.755403	-0.061919	-0.305649
C43	C	-3.777797	-0.061486	-0.356324
C44	C	-3.853395	-0.198434	-0.388525
O45	O	-3.758449	0.055770	-0.430662
O46	O	-3.996811	-0.451733	-0.456097
C47	C	-4.043150	-0.333086	-0.679172
C48	C	-3.989968	-0.195719	-0.697645
C49	C	-3.914395	-0.058797	-0.665444
C50	C	-4.012341	-0.195272	-0.748322
C51	C	-4.087914	-0.332195	-0.780524
C52	C	-4.141115	-0.469565	-0.762049
C53	C	-4.118723	-0.470009	-0.711374
C54	C	-3.861194	0.078573	-0.683919
C55	C	-3.883589	0.079006	-0.734594
C56	C	-3.959162	-0.057916	-0.766796
C57	C	-4.092186	0.069944	-0.146303
C58	C	-3.997529	0.236301	-0.146784
C59	C	-4.170997	-0.192499	-0.060715
C60	C	-4.126448	-0.192990	-0.006781
H61	H	-3.927474	-0.448096	-0.304334
O62	O	-3.712531	0.224938	-0.497153
H63	H	-3.835878	0.225707	-0.475575
O64	O	-3.720432	0.086680	-0.376253
H65	H	-3.664128	0.181814	-0.345346
H66	H	-3.966971	0.054998	-0.897688
O67	O	-4.222601	-0.617243	-0.796788
H68	H	-4.255813	-0.712853	-0.775433
O69	O	-4.108921	-0.619517	-0.539431
H70	H	-4.280735	-0.690796	-0.554291
O71	O	-3.673855	0.085754	-0.270909
H72	H	-3.797216	0.086501	-0.249333
H73	H	-4.162035	-0.581876	-0.696339
H74	H	-3.799660	0.190074	-0.657705
H75	H	-3.840258	0.190885	-0.749629
H76	H	-4.200572	-0.442681	-0.922592
H77	H	-3.968127	-0.447305	-0.396264
O78	O	-4.155448	-0.618587	-0.644755
H79	H	-4.032076	-0.619323	-0.666329
O80	O	-4.261190	-0.478059	-1.023042
H81	H	-4.267825	-0.454655	-1.061383
H82	H	-4.007537	0.055801	-0.989614
O83	O	-3.758957	0.225878	-0.602480
H84	H	-3.702630	0.320999	-0.571567
