data_functionalizedCrystal
_audit_creation_method	'MofGen! by Chris Wilmer'
_symmetry_space_group_name_H-M	'P1'
_symmetry_Int_Tables_number	1
_symmetry_cell_setting	triclinic
loop_
_symmetry_equiv_pos_as_xyz
  x,y,z
_cell_length_a	6.817900
_cell_length_b	9.582860
_cell_length_c	16.255661
_cell_angle_alpha	93.082919
_cell_angle_beta	103.488922
_cell_angle_gamma	111.206767
loop_
_atom_site_label
_atom_site_type_symbol
_atom_site_fract_x
_atom_site_fract_y
_atom_site_fract_z
V1	V	-4.066850	-0.208264	-0.263715
O2	O	-4.012501	0.008764	-0.258855
O3	O	-4.057621	-0.411756	-0.261758
O4	O	-4.017900	-0.205606	-0.378800
O5	O	-4.052497	-0.198813	-0.141002
V6	V	-4.545474	-0.182240	-0.249056
O7	O	-4.338856	-0.265349	-0.295870
O8	O	-4.723666	-0.125156	-0.216901
O9	O	-4.331497	0.021252	-0.251013
O10	O	-4.717220	-0.399268	-0.253917
O11	O	-4.677224	-0.191691	-0.371769
O12	O	-4.371218	-0.184898	-0.133971
C13	C	-3.912169	-0.461346	-0.257558
C14	C	-3.985905	-0.627706	-0.256725
C15	C	-3.861499	-0.198379	-0.406856
C16	C	-3.903020	-0.197553	-0.500938
C17	C	-3.811674	-0.187680	-0.723764
C18	C	-3.992647	-0.315100	-0.793145
C19	C	-3.979106	-0.196003	-0.673188
C20	C	-3.872142	-0.067125	-0.771446
C21	C	-4.052584	-0.194499	-0.839573
C22	C	-4.159583	-0.323537	-0.741338
C23	C	-4.038994	-0.075449	-0.719624
C24	C	-4.220111	-0.202905	-0.788985
C25	C	-3.936772	-0.196871	-0.577338
C26	C	-4.094937	-0.193643	-0.935422
C27	C	-4.140293	0.070834	-0.255211
C28	C	-4.045794	0.237193	-0.256049
C29	C	-4.190961	-0.192130	-0.105911
C30	C	-4.128678	-0.192948	-0.011828
H31	H	-3.973502	-0.416420	-0.825155
H32	H	-4.058060	0.025876	-0.687591
C33	C	-4.450766	-0.211209	-0.826801
C34	C	-4.441444	-0.082081	-0.864797
C35	C	-4.653878	-0.089676	-0.899633
H36	H	-4.529874	-0.298992	-0.868767
H37	H	-4.522076	-0.216143	-0.782683
H38	H	-4.370166	-0.077162	-0.908910
H39	H	-4.362377	0.005721	-0.822848
H40	H	-4.725188	-0.094610	-0.855516
H41	H	-4.732969	-0.177463	-0.941596
H42	H	-4.647582	-0.002059	-0.925410
C43	C	-3.581087	-0.179245	-0.685614
C44	C	-3.544177	-0.178783	-0.597164
C45	C	-3.331788	-0.171003	-0.561989
H46	H	-3.564416	-0.264482	-0.710929
H47	H	-3.478712	-0.089018	-0.696425
H48	H	-3.646522	-0.268999	-0.586360
H49	H	-3.560801	-0.093550	-0.571826
H50	H	-3.229413	-0.080776	-0.572800
H51	H	-3.315137	-0.256242	-0.587311
H52	H	-3.306710	-0.170674	-0.501972
C53	C	-4.320826	-0.468134	-0.723108
C54	C	-4.279640	-0.467295	-0.634539
C55	C	-4.428102	-0.600481	-0.617712
H56	H	-4.465630	-0.473998	-0.745947
H57	H	-4.304637	-0.553191	-0.748927
H58	H	-4.295849	-0.382261	-0.608730
H59	H	-4.134865	-0.461455	-0.611680
H60	H	-4.411913	-0.685538	-0.643530
H61	H	-4.572896	-0.606334	-0.640555
H62	H	-4.400165	-0.599936	-0.557617
C63	C	-3.710305	0.077336	-0.789538
C64	C	-3.497354	0.084681	-0.756380
C65	C	-3.348200	0.217739	-0.773017
H66	H	-3.738607	0.077419	-0.849584
H67	H	-3.725256	0.162540	-0.763255
H68	H	-3.482410	-0.000500	-0.782666
H69	H	-3.468983	0.084623	-0.696335
H70	H	-3.363152	0.302942	-0.746734
H71	H	-3.376523	0.217810	-0.833063
H72	H	-3.203696	0.222747	-0.750515
