data_functionalizedCrystal
_audit_creation_method	'MofGen! by Chris Wilmer'
_symmetry_space_group_name_H-M	'P1'
_symmetry_Int_Tables_number	1
_symmetry_cell_setting	triclinic
loop_
_symmetry_equiv_pos_as_xyz
  x,y,z
_cell_length_a	16.625548
_cell_length_b	12.759400
_cell_length_c	12.759393
_cell_angle_alpha	90.030580
_cell_angle_beta	89.979761
_cell_angle_gamma	89.984247
loop_
_atom_site_label
_atom_site_type_symbol
_atom_site_fract_x
_atom_site_fract_y
_atom_site_fract_z
Zn1	Zn	1.232721	0.418185	-0.594070
Zn2	Zn	1.732721	0.918185	-0.094070
Zn3	Zn	1.232644	0.593900	-0.418390
Zn4	Zn	1.732644	1.093900	0.081610
Zn5	Zn	1.097884	0.418239	-0.418400
Zn6	Zn	1.597884	0.918239	0.081600
Zn7	Zn	1.097872	0.593825	-0.594022
Zn8	Zn	1.597872	1.093825	-0.094022
O9	O	1.165280	0.506037	-0.506221
O10	O	1.665280	1.006037	-0.006221
O11	O	1.345544	0.441502	-0.570782
O12	O	1.845544	0.941502	-0.070782
O13	O	1.214740	0.570653	-0.271371
O14	O	1.714740	1.070653	0.228629
O15	O	1.115808	0.271211	-0.441727
O16	O	1.615808	0.771211	0.058273
O17	O	1.345486	0.570600	-0.441711
O18	O	1.845486	1.070600	0.058289
O19	O	1.214873	0.271171	-0.570791
O20	O	1.714873	0.771171	-0.070791
O21	O	1.115733	0.441595	-0.271378
O22	O	1.615733	0.941595	0.228622
O23	O	0.985050	0.441523	-0.441680
O24	O	1.485050	0.941523	0.058320
O25	O	1.115788	0.570472	-0.741050
O26	O	1.615788	1.070472	-0.241050
O27	O	0.985041	0.570525	-0.570709
O28	O	1.485041	1.070525	-0.070709
O29	O	1.214861	0.441429	-0.741085
O30	O	1.714861	0.941429	-0.241085
O31	O	1.214728	0.740911	-0.441664
O32	O	1.714728	1.240911	0.058336
O33	O	1.115712	0.740856	-0.570700
O34	O	1.615712	1.240856	-0.070700
C35	C	1.165232	0.779005	-0.506199
C36	C	1.665232	1.279005	-0.006199
C37	C	1.165286	0.895781	-0.506225
C38	C	1.665286	1.395781	-0.006225
C39	C	0.955789	0.506022	-0.506191
C40	C	1.455789	1.006022	-0.006191
C41	C	0.866168	0.506041	-0.506204
C42	C	1.366168	1.006041	-0.006204
C43	C	1.165332	0.505936	-0.780254
C44	C	1.665332	1.005936	-0.280254
C45	C	1.165353	0.505893	-0.897031
C46	C	1.665353	1.005893	-0.397031
C47	C	0.537993	0.506048	-0.506249
C48	C	1.037993	1.006048	-0.006249
C49	C	0.629301	0.506043	-0.506233
C50	C	1.129301	1.006043	-0.006233
C51	C	0.702078	0.506045	-0.506225
C52	C	1.202078	1.006045	-0.006225
C53	C	0.793392	0.506039	-0.506211
C54	C	1.293392	1.006039	-0.006211
C55	C	1.375589	0.506053	-0.506251
C56	C	1.875589	1.006053	-0.006251
C57	C	1.465210	0.506060	-0.506264
C58	C	1.965210	1.006060	-0.006264
C59	C	1.165350	0.232004	-0.506266
C60	C	1.665350	0.732004	-0.006266
C61	C	1.165380	0.115227	-0.506285
C62	C	1.665380	0.615227	-0.006285
C63	C	1.216901	0.950637	-0.439110
C64	C	1.716901	1.450637	0.060890
C65	C	1.216950	1.060361	-0.439142
C66	C	1.716950	1.560361	0.060858
C67	C	1.113763	1.060364	-0.573407
C68	C	1.613763	1.560364	-0.073407
C69	C	1.113718	0.950642	-0.573379
C70	C	1.613718	1.450642	-0.073379
C71	C	1.276473	0.950637	-0.361590
C72	C	1.776473	1.450637	0.138410
C73	C	1.276522	1.060361	-0.361622
C74	C	1.776522	1.560361	0.138378
C75	C	1.216945	0.573021	-1.061610
C76	C	1.716945	1.073021	-0.561610
C77	C	1.216915	0.573065	-0.951886
C78	C	1.716915	1.073065	-0.451886
C79	C	1.113813	0.438679	-0.951906
C80	C	1.613813	0.938679	-0.451906
C81	C	1.113840	0.438640	-1.061628
C82	C	1.613840	0.938640	-0.561628
C83	C	1.276472	0.650605	-1.061598
C84	C	1.776472	1.150605	-0.561598
C85	C	1.276442	0.650649	-0.951874
C86	C	1.776442	1.150649	-0.451874
C87	C	1.165276	0.506062	-0.233253
C88	C	1.665276	1.006062	0.266747
C89	C	1.165410	0.505810	-0.116477
C90	C	1.665410	1.005810	0.383523
H91	H	1.071697	0.905979	-0.628039
H92	H	1.571697	1.405979	-0.128039
F93	F	1.058935	0.367192	-0.893522
F94	F	1.558935	0.867192	-0.393522
F95	F	1.058961	0.367143	-1.120018
F96	F	1.558961	0.867143	-0.620018
F97	F	1.354060	1.104733	-0.399824
F98	F	1.854060	1.604733	0.100176
F99	F	1.058885	1.118759	-0.644875
F100	F	1.558885	1.618759	-0.144875
H101	H	1.335807	0.621450	-1.095639
H102	H	1.835807	1.121450	-0.595639
H103	H	1.254066	0.727967	-0.917829
H104	H	1.754066	1.227967	-0.417829
H105	H	1.338900	0.920778	-0.383446
H106	H	1.838900	1.420778	0.116554
F107	F	1.247244	0.906259	-0.260526
F108	F	1.747244	1.406259	0.239474
F109	F	1.254721	1.099397	-0.255253
F110	F	1.754721	1.599397	0.244747
F111	F	1.254598	0.756944	-1.100502
F112	F	1.754598	1.256944	-0.600502
F113	F	1.358062	0.622182	-0.912954
F114	F	1.858062	1.122182	-0.412954
