data_functionalizedCrystal
_audit_creation_method	'MofGen! by Chris Wilmer'
_symmetry_space_group_name_H-M	'P1'
_symmetry_Int_Tables_number	1
_symmetry_cell_setting	triclinic
loop_
_symmetry_equiv_pos_as_xyz
  x,y,z
_cell_length_a	11.169417
_cell_length_b	17.077402
_cell_length_c	17.077396
_cell_angle_alpha	90.029038
_cell_angle_beta	90.015939
_cell_angle_gamma	90.026478
loop_
_atom_site_label
_atom_site_type_symbol
_atom_site_fract_x
_atom_site_fract_y
_atom_site_fract_z
Zn1	Zn	1.834796	-0.312482	0.443765
Zn2	Zn	1.834646	-0.443757	0.312498
Zn3	Zn	1.634094	-0.312512	0.312521
Zn4	Zn	1.634037	-0.443713	0.443730
O5	O	1.734393	-0.378116	0.378128
O6	O	2.002726	-0.329902	0.426357
O7	O	1.808003	-0.426378	0.202654
O8	O	1.660804	-0.202661	0.329956
O9	O	2.002615	-0.426349	0.329916
O10	O	1.808259	-0.202639	0.426380
O11	O	1.660659	-0.329953	0.202671
O12	O	1.466137	-0.329910	0.329921
O13	O	1.660707	-0.426274	0.553581
O14	O	1.466095	-0.426303	0.426319
O15	O	1.808204	-0.329859	0.553607
O16	O	1.807948	-0.553598	0.329881
O17	O	1.660561	-0.553565	0.426297
C18	C	1.422568	-0.378105	0.378119
C19	C	1.289168	-0.378120	0.378134
C20	C	1.734265	-0.582064	0.378100
C21	C	1.734319	-0.669314	0.378114
C22	C	1.811304	-1.045053	0.428428
C23	C	1.811250	-0.963072	0.428410
C24	C	1.734509	-0.922162	0.378160
C25	C	1.657825	-0.963237	0.327920
C26	C	1.657886	-1.045216	0.327936
C27	C	1.657702	-0.792367	0.327894
C28	C	1.657639	-0.710382	0.327879
C29	C	1.811066	-0.710223	0.428368
C30	C	1.811127	-0.792202	0.428383
C31	C	1.734441	-0.833271	0.378144
C32	C	2.047435	-0.378127	0.378138
C33	C	2.180835	-0.378132	0.378142
C34	C	1.734466	-0.378058	0.582873
C35	C	1.734497	-0.378033	0.670123
C36	C	1.734555	-0.173372	0.378174
C37	C	1.734624	-0.086122	0.378194
C38	C	1.734390	-0.378117	0.174181
C39	C	1.734591	-0.377920	0.086931
C40	C	1.811301	-0.327826	0.711128
C41	C	1.811315	-0.327800	0.793108
C42	C	1.734531	-0.377986	0.834082
C43	C	1.657718	-0.428195	0.793071
C44	C	1.657698	-0.428217	0.711092
C45	C	1.657766	-0.428148	0.963941
C46	C	1.657787	-0.428128	1.045926
C47	C	1.811383	-0.327731	1.045957
C48	C	1.811364	-0.327753	0.963978
C49	C	1.734552	-0.377964	0.922973
H50	H	1.873784	-1.078356	0.469355
O51	O	1.894189	-0.273632	0.919781
H52	H	1.873659	-0.212016	0.935519
H53	H	1.873860	-0.286918	0.826491
O54	O	1.894223	-0.273566	1.090177
H55	H	1.881327	-0.281971	1.154065
H56	H	1.595144	-0.469093	0.677707
O57	O	1.574961	-0.482247	1.090125
H58	H	1.521531	-0.517156	1.047841
H59	H	1.595194	-0.469054	0.826439
O60	O	1.574914	-0.482297	0.919710
H61	H	1.521529	-0.517195	0.961972
O62	O	1.893888	-0.836329	0.482586
H63	H	1.954998	-0.873671	0.447493
O64	O	1.893988	-0.918773	0.482569
H65	H	1.947362	-0.960993	0.517511
O66	O	1.574881	-0.666253	0.273677
H67	H	1.521581	-0.708581	0.238736
H68	H	1.873506	-0.676780	0.469274
H69	H	1.595345	-0.929923	0.287002
O70	O	1.574987	-0.836668	0.273713
H71	H	1.521602	-0.794450	0.238775
H72	H	1.595445	-1.078653	0.287030
H73	H	1.873832	-0.286961	0.677772
