data_functionalizedCrystal
_audit_creation_method	'MofGen! by Chris Wilmer'
_symmetry_space_group_name_H-M	'P1'
_symmetry_Int_Tables_number	1
_symmetry_cell_setting	triclinic
loop_
_symmetry_equiv_pos_as_xyz
  x,y,z
_cell_length_a	10.686220
_cell_length_b	25.639240
_cell_length_c	10.686551
_cell_angle_alpha	94.417087
_cell_angle_beta	89.691918
_cell_angle_gamma	94.415314
loop_
_atom_site_label
_atom_site_type_symbol
_atom_site_fract_x
_atom_site_fract_y
_atom_site_fract_z
Zn1	Zn	1.972187	-0.127473	0.562325
Zn2	Zn	2.472187	0.372527	1.062325
Zn3	Zn	1.955884	-0.222110	0.352521
Zn4	Zn	2.455884	0.277890	0.852521
Zn5	Zn	1.746295	-0.140848	0.368636
Zn6	Zn	2.246295	0.359152	0.868636
Zn7	Zn	1.762315	-0.221050	0.578299
Zn8	Zn	2.262315	0.278950	1.078299
O9	O	1.859170	-0.177870	0.465445
O10	O	2.359170	0.322130	0.965445
O11	O	2.145571	-0.134872	0.521065
O12	O	2.645571	0.365128	1.021065
O13	O	1.914554	-0.217371	0.179110
O14	O	2.414554	0.282629	0.679110
O15	O	1.776379	-0.065903	0.394388
O16	O	2.276379	0.434097	0.894388
O17	O	2.133592	-0.204402	0.366922
O18	O	2.633592	0.295598	0.866922
O19	O	1.942341	-0.056076	0.536691
O20	O	2.442341	0.443924	1.036691
O21	O	1.760570	-0.157669	0.190950
O22	O	2.260570	0.342331	0.690950
O23	O	1.572874	-0.156641	0.409878
O24	O	2.072874	0.343359	0.909878
O25	O	1.803682	-0.202596	0.751729
O26	O	2.303682	0.297404	1.251729
O27	O	1.584644	-0.215565	0.563916
O28	O	2.084644	0.284435	1.063916
O29	O	1.957875	-0.133845	0.739992
O30	O	2.457875	0.366155	1.239992
O31	O	1.930087	-0.295140	0.382412
O32	O	2.430087	0.204860	0.882412
O33	O	1.787873	-0.294362	0.548290
O34	O	2.287873	0.205638	1.048290
C35	C	1.533242	-0.187440	0.490380
C36	C	2.033242	0.312560	0.990380
C37	C	1.393811	-0.191546	0.501077
C38	C	1.893811	0.308454	1.001077
C39	C	1.858985	-0.313721	0.465361
C40	C	2.358985	0.186279	0.965361
C41	C	1.859024	-0.371834	0.465357
C42	C	2.359024	0.128166	0.965357
C43	C	1.945638	-0.727028	0.539684
C44	C	2.445638	-0.227028	1.039684
C45	C	1.945677	-0.781631	0.539706
C46	C	2.445677	-0.281631	1.039706
O47	O	2.019100	-0.805482	0.602817
O48	O	2.519100	-0.305482	1.102817
N49	N	1.859354	-0.814100	0.465553
N50	N	2.359354	-0.314100	0.965553
C51	C	1.772978	-0.791964	0.391382
C52	C	2.272978	-0.291964	0.891382
O53	O	1.699556	-0.824596	0.328312
O54	O	2.199556	-0.324596	0.828312
C55	C	1.772934	-0.737363	0.391367
C56	C	2.272934	-0.237363	0.891367
C57	C	1.859271	-0.704896	0.465516
C58	C	2.359271	-0.204896	0.965516
C59	C	2.031966	-0.694562	0.613827
C60	C	2.531966	-0.194562	1.113827
C61	C	2.031929	-0.639964	0.613803
C62	C	2.531929	-0.139964	1.113803
C63	C	1.945562	-0.617831	0.539634
C64	C	2.445562	-0.117831	1.039634
C65	C	1.859233	-0.650298	0.465491
C66	C	2.359233	-0.150298	0.965491
C67	C	1.686553	-0.715228	0.317204
C68	C	2.186553	-0.215228	0.817204
C69	C	1.686516	-0.660623	0.317196
C70	C	2.186516	-0.160623	0.817196
C71	C	1.772853	-0.628156	0.391344
C72	C	2.272853	-0.128156	0.891344
C73	C	1.772829	-0.573567	0.391298
C74	C	2.272829	-0.073567	0.891298
N75	N	1.859152	-0.541098	0.465451
N76	N	2.359152	-0.041098	0.965451
C77	C	1.945518	-0.563230	0.539619
C78	C	2.445518	-0.063230	1.039619
C79	C	1.773075	-0.906631	0.391421
C80	C	2.273075	-0.406631	0.891421
C81	C	1.773124	-0.961231	0.391428
C82	C	2.273124	-0.461231	0.891428
C83	C	1.945821	-0.950894	0.539755
C84	C	2.445821	-0.450894	1.039755
C85	C	1.945777	-0.896292	0.539740
C86	C	2.445777	-0.396292	1.039740
C87	C	1.859398	-0.874161	0.465574
C88	C	2.359398	-0.374161	0.965574
C89	C	1.945433	-0.448569	0.539561
C90	C	2.445433	0.051431	1.039561
C91	C	1.945391	-0.393966	0.539526
C92	C	2.445391	0.106034	1.039526
C93	C	1.772690	-0.404309	0.391205
C94	C	2.272690	0.095691	0.891205
C95	C	1.772736	-0.458907	0.391234
C96	C	2.272736	0.041093	0.891234
C97	C	1.859112	-0.481035	0.465422
C98	C	2.359112	0.018965	0.965422
O99	O	1.699440	-0.549678	0.328224
O100	O	2.199440	-0.049678	0.828224
O101	O	2.018917	-0.530593	0.602691
O102	O	2.518917	-0.030593	1.102691
C103	C	2.186371	-0.168263	0.440414
C104	C	2.686371	0.331737	0.940414
C105	C	2.325805	-0.164169	0.429747
C106	C	2.825805	0.335831	0.929747
C107	C	1.884384	-0.166610	0.792651
C108	C	2.384384	0.333390	1.292651
C109	C	1.895128	-0.161812	0.932086
C110	C	2.395128	0.338188	1.432086
C111	C	1.859392	-0.041487	0.465555
C112	C	2.359392	0.458513	0.965555
C113	C	1.859487	0.016632	0.465602
C114	C	2.359487	0.516632	0.965602
C115	C	1.834127	-0.189047	0.139507
C116	C	2.334127	0.310953	0.639507
C117	C	1.823626	-0.193690	0.000054
C118	C	2.323626	0.306310	0.500054
H119	H	2.015701	-0.367533	0.599906
H120	H	2.515701	0.132467	1.099906
F121	F	1.985902	-0.121340	0.995458
F122	F	2.485902	0.378660	1.495458
H123	H	1.345358	-0.218130	0.570326
H124	H	1.845358	0.281870	1.070326
F125	F	2.037366	-0.472112	0.618518
F126	F	2.537366	0.027888	1.118518
H127	H	1.374251	-0.137591	0.360494
H128	H	1.874251	0.362409	0.860494
F129	F	2.123894	-0.718108	0.692780
F130	F	2.623894	-0.218108	1.192780
H131	H	1.616249	-0.741654	0.256823
H132	H	2.116249	-0.241654	0.756823
H133	H	2.102228	-0.613532	0.674184
H134	H	2.602228	-0.113532	1.174184
F135	F	2.037666	-0.861743	0.618659
F136	F	2.537666	-0.361743	1.118659
F137	F	1.680861	-0.493461	0.312301
F138	F	2.180861	0.006539	0.812301
F139	F	2.037740	-0.974458	0.618693
F140	F	2.537740	-0.474458	1.118693
F141	F	1.681247	-0.995779	0.312492
F142	F	2.181247	-0.495779	0.812492
H143	H	1.702737	-0.888615	0.331016
H144	H	2.202737	-0.388615	0.831016
F145	F	1.680778	-0.380744	0.312272
F146	F	2.180778	0.119256	0.812272
F147	F	1.594576	-0.637073	0.238257
F148	F	2.094576	-0.137073	0.738257
H149	H	1.754193	-0.224655	0.951571
H150	H	2.254193	0.275345	1.451571
