data_functionalizedCrystal
_audit_creation_method	'MofGen! by Chris Wilmer'
_symmetry_space_group_name_H-M	'P1'
_symmetry_Int_Tables_number	1
_symmetry_cell_setting	triclinic
loop_
_symmetry_equiv_pos_as_xyz
  x,y,z
_cell_length_a	14.395555
_cell_length_b	20.919309
_cell_length_c	14.395555
_cell_angle_alpha	89.999957
_cell_angle_beta	60.000749
_cell_angle_gamma	57.442980
loop_
_atom_site_label
_atom_site_type_symbol
_atom_site_fract_x
_atom_site_fract_y
_atom_site_fract_z
Zr1	Zr	0.944205	0.641785	-0.085642
O2	O	1.150023	0.535419	-0.239981
O3	O	0.746724	0.674389	-0.038327
O4	O	0.940510	0.674394	-0.232123
O5	O	0.956244	0.535413	0.106681
O6	O	0.928112	0.784024	-0.225926
O7	O	0.956237	0.535414	-0.046186
O8	O	0.581463	0.784014	0.120738
O9	O	1.302892	0.535422	-0.239983
O10	O	0.815610	0.770113	-0.013526
O11	O	0.824868	0.688297	0.095933
O12	O	1.053027	0.688303	-0.132237
O13	O	1.062285	0.606488	-0.022778
Zr14	Zr	0.924442	0.816630	0.168046
Zr15	Zr	0.924431	0.816631	-0.075760
Zr16	Zr	0.944216	0.641784	0.158163
Zr17	Zr	1.188014	0.641790	-0.085646
Zr18	Zr	0.680634	0.816625	0.168049
O19	O	1.121923	0.784026	0.120731
O20	O	1.121907	0.784028	-0.225929
O21	O	1.150039	0.535417	0.106679
O22	O	0.718624	0.922996	0.322385
O23	O	0.718608	0.922998	-0.024275
O24	O	0.746740	0.674387	0.308332
O25	O	0.912403	0.923002	-0.024278
O26	O	0.928137	0.784021	0.314526
O27	O	0.940535	0.674391	0.308330
O28	O	0.912410	0.923001	0.128589
O29	O	1.287175	0.674402	-0.232128
O30	O	0.581472	0.784013	0.314531
O31	O	0.565755	0.922993	0.322387
O32	O	0.565746	0.922994	0.128594
O33	O	1.302901	0.535421	-0.046191
O34	O	1.287184	0.674401	-0.038335
O35	O	0.815620	0.770112	0.214640
O36	O	0.806362	0.851927	0.105181
O37	O	1.043779	0.770118	-0.013529
O38	O	1.053037	0.688302	0.095929
C39	C	0.629356	0.729201	0.041206
C40	C	0.525853	0.729199	0.041207
C41	C	0.470308	0.684592	0.100893
C42	C	0.488216	0.652263	-0.008209
C43	C	0.323552	0.761508	0.150276
C44	C	0.545192	0.696825	-0.067961
C45	C	0.380460	0.806113	0.090605
C46	C	0.398412	0.773803	-0.018561
C47	C	0.959058	0.510502	0.028840
C48	C	0.967452	0.436275	0.024644
C49	C	0.847470	0.444105	0.084633
C50	C	0.855366	0.374358	0.080688
C51	C	0.983245	0.296782	0.016747
C52	C	1.103236	0.288954	-0.043243
C53	C	1.095339	0.358700	-0.039291
C54	C	1.013289	0.084058	0.001721
C55	C	1.021177	0.014310	-0.002230
C56	C	0.773306	0.099719	0.121704
C57	C	0.765420	0.169463	0.125645
C58	C	0.885411	0.161629	0.065659
C59	C	0.991319	0.225489	0.012711
C60	C	0.877336	0.232921	0.069703
C61	C	1.239291	0.729214	0.041197
C62	C	1.342794	0.729216	0.041196
C63	C	0.934310	0.729209	-0.263762
C64	C	0.934305	0.729210	-0.367264
C65	C	0.909589	0.947913	0.053564
C66	C	0.901195	1.022140	0.057759
C67	C	0.804854	0.773820	-0.363126
C68	C	0.875745	0.696891	-0.460497
C69	C	0.863421	0.806120	-0.454322
C70	C	1.005201	0.652236	-0.463274
C71	C	0.992853	0.761519	-0.457082
C72	C	1.063840	0.684545	-0.554473
C73	C	0.934337	0.729206	0.346165
C74	C	0.934342	0.729205	0.449667
C75	C	0.604622	0.947907	0.053568
C76	C	0.492724	1.022131	0.057765
C77	C	0.629370	0.729199	0.346169
C78	C	0.525872	0.729197	0.449673
C79	C	0.604636	0.947905	0.358531
C80	C	0.492743	1.022129	0.466230
C81	C	1.264011	0.510510	-0.276128
C82	C	1.375904	0.436286	-0.383827
C83	C	1.264025	0.510508	0.028836
C84	C	1.375923	0.436284	0.024639
C85	C	1.239277	0.729216	-0.263766
C86	C	1.342775	0.729218	-0.367269
C87	C	0.445003	1.014282	-0.002239
C88	C	0.339877	1.084017	0.001682
C89	C	0.282468	1.161601	0.065613
C90	C	0.330199	1.169449	0.125618
C91	C	0.435330	1.099715	0.121690
C92	C	0.435363	1.099700	0.459671
C93	C	0.330241	1.169448	0.560856
C94	C	0.282493	1.161623	0.668600
C95	C	0.339883	1.084045	0.675157
C96	C	0.445010	1.014298	0.573972
C97	C	1.433295	0.358715	-0.377267
C98	C	1.538448	0.288967	-0.478453
C99	C	1.586201	0.296792	-0.586197
C100	C	1.528805	0.374370	-0.592753
C101	C	1.423661	0.444117	-0.491569
C102	C	1.423654	0.444133	0.084632
C103	C	1.528807	0.374398	0.080685
C104	C	1.586219	0.296814	0.016750
C105	C	1.538483	0.288966	-0.043250
C106	C	1.433340	0.358700	-0.039309
C107	C	0.470332	0.684584	0.445538
C108	C	0.323535	0.761514	0.542906
C109	C	0.488220	0.652289	0.536737
C110	C	0.380370	0.806171	0.545680
C111	C	0.545135	0.696891	0.539494
C112	C	0.398342	0.773866	0.636882
H113	H	0.335941	0.871137	0.132421
H114	H	0.743337	0.507267	0.136705
H115	H	0.757664	0.380740	0.129539
C116	C	0.508141	0.928945	-0.072579
N117	N	0.555697	0.864672	-0.125570
H118	H	0.474171	1.106117	0.170559
C119	C	0.673136	0.659938	0.536072
N120	N	0.769560	0.632095	0.533483
H121	H	1.095438	0.162319	-0.039350
H122	H	0.501808	0.646818	0.151285
C123	C	1.360526	0.529470	0.154963
N124	N	1.312990	0.593743	0.207933
H125	H	0.301029	1.077611	-0.047182
C126	C	0.267025	1.254799	0.195947
N127	N	0.219430	1.319088	0.248927
H128	H	0.283524	1.232610	0.555497
H129	H	0.196891	1.218422	0.750982
H130	H	0.491716	0.951139	0.579329
H131	H	0.300991	1.077686	0.762895
C132	C	1.701854	0.220060	-0.697492
N133	N	1.788958	0.162263	-0.781317
H134	H	1.394481	0.352298	-0.088160
C135	C	0.548367	0.564402	-0.064658
N136	N	0.593669	0.498225	-0.107166
H137	H	1.394422	0.352329	-0.289547
C138	C	0.487873	1.108327	0.341162
N139	N	0.527423	1.114831	0.251905
H140	H	0.773218	0.296086	0.121769
C141	C	1.601563	0.203638	-0.471214
N142	N	1.649098	0.139370	-0.465759
H143	H	1.567699	0.380732	-0.680490
H144	H	1.376933	0.507276	-0.496923
C145	C	0.356047	0.824908	0.747348
N146	N	0.324182	0.863356	0.830554
C147	C	1.701874	0.220112	0.012433
N148	N	1.788982	0.162342	0.009189
H149	H	1.567655	0.380804	0.129549
C150	C	1.601634	0.203615	-0.113556
N151	N	1.649192	0.139327	-0.166499
H152	H	0.501673	0.646919	0.363650
C153	C	0.166813	1.238303	0.069930
N154	N	0.079697	1.296073	0.073183
C155	C	0.195579	0.798434	0.546256
N156	N	0.099209	0.826237	0.548773
C157	C	0.319927	0.894083	0.549534
N158	N	0.274402	0.960296	0.552431
C159	C	1.086114	0.564323	-0.467133
N160	N	1.147051	0.498109	-0.470033
C161	C	0.673076	0.659811	-0.192640
N162	N	0.769402	0.631928	-0.286547
C163	C	0.548404	0.564417	0.532995
N164	N	0.593737	0.498231	0.530167
H165	H	0.228858	0.788825	0.242518
C166	C	1.145284	0.075430	-0.064286
N167	N	1.244709	0.068932	-0.114012
C168	C	0.624743	0.254794	0.195985
N169	N	0.518783	0.319067	0.248964
H170	H	0.367200	0.811524	-0.069113
C171	C	0.782424	0.893992	-0.450575
N172	N	0.721408	0.960178	-0.447745
H173	H	0.675616	0.106088	0.170541
H174	H	1.193041	0.352320	-0.088126
C175	C	1.243905	0.203618	-0.113583
N176	N	1.349859	0.139342	-0.166571
H177	H	1.125317	-0.048857	-0.054303
H178	H	0.695402	0.811481	-0.281236
H179	H	0.826258	0.669557	-0.462973
H180	H	1.173395	0.646765	-0.636238
H181	H	1.042293	0.788872	-0.454562
