data_functionalizedCrystal
_audit_creation_method	'MofGen! by Chris Wilmer'
_symmetry_space_group_name_H-M	'P1'
_symmetry_Int_Tables_number	1
_symmetry_cell_setting	triclinic
loop_
_symmetry_equiv_pos_as_xyz
  x,y,z
_cell_length_a	9.065215
_cell_length_b	19.188930
_cell_length_c	7.540329
_cell_angle_alpha	89.991297
_cell_angle_beta	89.997574
_cell_angle_gamma	84.079739
loop_
_atom_site_label
_atom_site_type_symbol
_atom_site_fract_x
_atom_site_fract_y
_atom_site_fract_z
O1	O	1.956850	0.102360	-0.147485
O2	O	1.527273	0.110759	-0.147495
O3	O	1.754458	0.005000	-0.147455
O4	O	1.729665	0.208119	-0.147525
O5	O	1.754445	0.004999	0.147510
O6	O	1.527259	0.110757	0.147470
O7	O	1.956836	0.102358	0.147480
Cu8	Cu	1.742047	0.106558	0.174407
Cu9	Cu	1.742063	0.106559	-0.174423
O10	O	1.729651	0.208117	0.147440
C11	C	1.472308	0.109951	-0.000013
C12	C	1.308548	0.107539	-0.000016
C13	C	1.753648	-0.021018	0.000032
C14	C	1.751238	-0.098541	0.000047
C15	C	1.884543	-0.142430	0.000059
C16	C	1.882279	-0.215272	0.000031
C17	C	1.746702	-0.244221	0.000026
C18	C	1.613380	-0.200322	0.000005
C19	C	1.615648	-0.127482	0.000015
N20	N	1.643065	-0.353031	0.100406
N21	N	1.640920	-0.422226	0.100400
C22	C	1.739860	-0.463683	-0.000010
N23	N	1.841050	-0.433331	-0.100391
N24	N	1.843200	-0.364130	-0.100376
C25	C	1.744228	-0.323202	0.000013
C26	C	1.870719	-0.586555	-0.000032
C27	C	1.868449	-0.659397	-0.000071
C28	C	1.599546	-0.644446	-0.000079
C29	C	1.601820	-0.571605	-0.000058
C30	C	1.737410	-0.542664	-0.000025
C31	C	2.011802	0.103166	-0.000006
C32	C	2.175561	0.105578	-0.000015
C33	C	1.730461	0.234135	-0.000052
C34	C	1.732871	0.311659	-0.000079
N35	N	1.742046	0.106556	0.419756
N36	N	1.742075	0.106556	-0.419771
H37	H	1.994951	-0.118871	0.000079
C38	C	1.457244	-0.523832	-0.000142
C39	C	1.488246	-0.453847	-0.000177
C40	C	1.355094	-0.409819	-0.000287
H41	H	1.401515	-0.532616	0.102686
H42	H	1.401626	-0.532650	-0.103049
H43	H	1.543840	-0.445033	0.102720
H44	H	1.543954	-0.445042	-0.102997
H45	H	1.299476	-0.418637	-0.103194
H46	H	1.299375	-0.418609	0.102542
H47	H	1.376111	-0.362329	-0.000327
H48	H	1.990835	-0.251013	0.000033
C49	C	1.466072	-0.231653	0.000276
C50	C	1.385482	-0.209421	0.151999
C51	C	1.249763	-0.238260	0.152286
H52	H	1.483600	-0.281319	0.000366
H53	H	1.411132	-0.216618	-0.102537
H54	H	1.440410	-0.224461	0.254785
H55	H	1.367914	-0.159759	0.151941
H56	H	1.194822	-0.223225	0.049473
H57	H	1.267305	-0.287925	0.152371
H58	H	1.195060	-0.223175	0.255219
H59	H	1.507091	-0.091747	0.000006
H60	H	1.981125	-0.562990	-0.000014
C61	C	2.013349	-0.706935	0.000030
C62	C	2.132569	-0.665995	0.000111
C63	C	2.266074	-0.709762	0.000229
H64	H	2.018279	-0.735665	-0.102809
H65	H	2.018119	-0.735659	0.102926
H66	H	2.127801	-0.637282	-0.102775
H67	H	2.127688	-0.637265	0.102942
H68	H	2.270844	-0.738487	0.103125
H69	H	2.270989	-0.738491	-0.102612
H70	H	2.346980	-0.681991	0.000300
H71	H	1.489157	-0.668016	-0.000092
