data_functionalizedCrystal
_audit_creation_method	'MofGen! by Chris Wilmer'
_symmetry_space_group_name_H-M	'P1'
_symmetry_Int_Tables_number	1
_symmetry_cell_setting	triclinic
loop_
_symmetry_equiv_pos_as_xyz
  x,y,z
_cell_length_a	17.917603
_cell_length_b	23.196402
_cell_length_c	23.196402
_cell_angle_alpha	59.999102
_cell_angle_beta	90.000533
_cell_angle_gamma	63.036266
loop_
_atom_site_label
_atom_site_type_symbol
_atom_site_fract_x
_atom_site_fract_y
_atom_site_fract_z
Zr1	Zr	-0.093868	0.624393	0.558687
O2	O	-0.208073	0.736633	0.470649
O3	O	-0.058860	0.506586	0.585673
O4	O	-0.208079	0.616362	0.590917
O5	O	0.058854	0.635132	0.461271
O6	O	-0.208081	0.616360	0.685789
O7	O	-0.058854	0.626857	0.465405
O8	O	0.058844	0.419991	0.676409
O9	O	-0.208072	0.831502	0.470651
O10	O	-0.043929	0.557102	0.667987
O11	O	0.043917	0.563280	0.594100
O12	O	-0.131769	0.692527	0.600274
O13	O	-0.043923	0.698704	0.526387
Zr14	Zr	0.093859	0.637587	0.703404
Zr15	Zr	-0.093872	0.624389	0.709997
Zr16	Zr	0.093863	0.637591	0.552094
Zr17	Zr	-0.093865	0.775698	0.558691
Zr18	Zr	0.093856	0.486283	0.703400
O19	O	0.058851	0.755394	0.676418
O20	O	-0.208079	0.736627	0.685792
O21	O	0.058856	0.755400	0.461274
O22	O	0.208064	0.525347	0.791442
O23	O	-0.058866	0.506581	0.800816
O24	O	0.208070	0.525353	0.576299
O25	O	-0.058863	0.626848	0.800819
O26	O	0.208070	0.645618	0.671174
O27	O	0.208072	0.645620	0.576302
O28	O	0.058845	0.635123	0.796686
O29	O	-0.208075	0.831498	0.590922
O30	O	0.208066	0.430482	0.671168
O31	O	0.208062	0.430479	0.791439
O32	O	0.058841	0.419987	0.796680
O33	O	-0.058850	0.841993	0.465411
O34	O	-0.058853	0.841989	0.585682
O35	O	0.131760	0.569454	0.661817
O36	O	0.043913	0.563276	0.735704
O37	O	-0.043926	0.698701	0.667991
O38	O	0.043920	0.704878	0.594104
C39	C	-0.000008	0.441731	0.631040
C40	C	-0.000009	0.377498	0.631039
C41	C	-0.064850	-0.037641	0.581070
C42	C	-0.064849	0.022716	0.581064
C43	C	-0.000005	0.005191	0.631051
C44	C	0.064856	-0.072698	0.681038
C45	C	0.064859	-0.133053	0.681038
C46	C	0.020202	0.062190	0.694136
C47	C	0.020193	0.122545	0.694136
C48	C	-0.000008	0.191344	0.631051
C49	C	-0.020220	0.199788	0.567961
C50	C	-0.020217	0.139433	0.567962
C51	C	-0.000000	0.070631	0.631056
C52	C	-0.064861	0.334670	0.581058
C53	C	-0.064855	0.395027	0.581051
C54	C	0.064847	0.299610	0.681031
C55	C	0.064844	0.239256	0.681032
C56	C	-0.000015	0.256791	0.631046
C57	C	-0.234828	0.614481	0.639292
C58	C	-0.314525	0.608877	0.642091
C59	C	-0.460457	0.598643	0.647218
C60	C	-0.539555	0.663334	0.614874
C61	C	-0.620757	0.657639	0.617727
C62	C	-0.379246	0.604336	0.644366
C63	C	0.234819	0.647499	0.622799
C64	C	0.314516	0.653103	0.620000
C65	C	0.000000	0.630995	0.441780
C66	C	0.000002	0.630997	0.377545
C67	C	-0.000001	0.820249	0.631050
C68	C	0.000000	0.884482	0.631052
C69	C	-0.064849	0.626444	0.349650
C70	C	-0.064848	0.626436	0.289299
C71	C	-0.000004	0.630998	0.256837
C72	C	0.064858	0.635548	0.284741
C73	C	0.064861	0.635547	0.345095
C74	C	0.020203	0.679925	0.136754
C75	C	0.020194	0.679931	0.076398
C76	C	-0.000009	0.630997	0.070687
C77	C	-0.020221	0.582067	0.125333
C78	C	-0.020218	0.582067	0.185687
C79	C	0.000000	0.630999	0.191393
C80	C	-0.064863	0.626434	-0.022647
C81	C	-0.064857	0.626422	-0.082997
C82	C	0.064846	0.635542	-0.087558
C83	C	0.064843	0.635546	-0.027205
C84	C	-0.000016	0.630996	0.005245
C85	C	-0.000010	0.630985	0.820311
C86	C	-0.000011	0.630983	0.884546
C87	C	-0.000013	0.441726	0.820306
C88	C	-0.000016	0.377491	0.884539
C89	C	0.234815	0.458240	0.622794
C90	C	0.314511	0.399611	0.619993
C91	C	0.234810	0.458235	0.812059
C92	C	0.314504	0.399604	0.873493
C93	C	-0.234819	0.803745	0.450032
C94	C	-0.314513	0.862376	0.388597
C95	C	0.000004	0.820254	0.441785
C96	C	0.000007	0.884489	0.377551
C97	C	-0.234824	0.803740	0.639297
C98	C	-0.314520	0.862369	0.642098
C99	C	-0.045878	0.344103	0.879357
C100	C	-0.045899	0.283754	0.939705
C101	C	-0.000051	0.256792	1.005236
C102	C	0.045812	0.290187	1.010417
C103	C	0.045827	0.350538	0.950069
C104	C	0.397797	0.375301	0.654025
C105	C	0.472687	0.320221	0.651391
C106	C	0.464288	0.289448	0.614728
C107	C	0.380993	0.313763	0.580692
C108	C	0.306105	0.368846	0.583322
C109	C	0.306074	0.368845	0.940918
C110	C	0.380948	0.313762	0.998648
C111	C	0.464251	0.289435	0.988952
C112	C	0.472679	0.320200	0.921521
C113	C	0.397806	0.375286	0.863792
C114	C	-0.306083	0.893142	0.321172
C115	C	-0.380957	0.948244	0.263442
C116	C	-0.464260	0.972574	0.273138
C117	C	-0.472688	0.941805	0.340570
C118	C	-0.397815	0.886709	0.398299
C119	C	0.045861	0.917883	0.382734
C120	C	0.045861	0.978247	0.322386
C121	C	0.000011	1.005211	0.256856
C122	C	-0.045849	0.971813	0.251674
C123	C	-0.045853	0.911455	0.312022
C124	C	-0.306093	0.893125	0.678766
C125	C	-0.380968	0.948207	0.681411
C126	C	-0.464270	0.972535	0.647383
C127	C	-0.472695	0.941773	0.610713
C128	C	-0.397821	0.886689	0.608073
H129	H	-0.546288	0.722995	0.585039
H130	H	-0.374091	0.973248	0.711271
H131	H	-0.453725	0.538986	0.677048
H132	H	-0.117659	0.622736	0.376071
N133	N	-0.131087	0.621786	0.260785
N134	N	-0.110108	0.566110	0.254941
H135	H	-0.156890	0.562827	0.234803
N136	N	0.040834	0.729912	0.142592
N137	N	0.040834	0.729905	0.196482
H138	H	0.055406	0.765206	0.200608
N139	N	0.220982	0.393706	0.950821
N140	N	0.154129	0.442893	0.899280
H141	H	0.094034	0.460452	0.906278
N142	N	-0.540739	1.028801	0.650093
N143	N	-0.533193	1.056253	0.682837
H144	H	-0.587196	1.095992	0.684753
H145	H	-0.083191	0.884267	0.307792
N146	N	0.131003	0.640281	0.001290
N147	N	0.180922	0.586692	0.061806
H148	H	0.227623	0.590065	0.081930
H149	H	-0.117672	0.348949	0.540355
H150	H	0.374070	0.288719	1.053549
N151	N	0.557780	0.295335	0.911635
N152	N	0.624616	0.246145	0.963190
H153	H	0.684721	0.228577	0.956211
H154	H	-0.540529	0.961590	0.583008
N155	N	-0.406452	0.855284	0.570610
N156	N	-0.480837	0.877019	0.540232
H157	H	-0.486940	0.854842	0.513772
H158	H	0.404682	0.400323	0.808893
H159	H	0.238292	0.388631	0.555611
N160	N	-0.040865	0.532086	0.241498
N161	N	-0.058906	0.488399	0.236397
H162	H	-0.073486	0.453097	0.275814
H163	H	0.036647	0.719775	0.031907
H164	H	-0.117660	-0.023357	0.540365
H165	H	-0.036677	0.542224	0.120685
N166	N	-0.131101	0.621761	0.010508
N167	N	-0.188986	0.617672	-0.014397
H168	H	-0.235763	0.614363	0.009021
N169	N	0.131076	0.640215	-0.120716
N170	N	0.139039	0.697934	-0.142838
H171	H	0.185817	0.701233	-0.166257
H172	H	-0.117664	0.622709	-0.105707
H173	H	0.404653	0.400351	0.683880
H174	H	0.083140	0.268225	1.063780
H175	H	0.525210	0.244581	1.035965
H176	H	-0.117649	0.086136	0.540352
N177	N	-0.540736	1.028836	0.214165
N178	N	-0.594627	1.011569	0.205609
H179	H	-0.648636	1.051302	0.163956
H180	H	-0.036672	0.146312	0.516592
H181	H	-0.000069	0.207650	1.054370
H182	H	-0.238261	0.873336	0.313264
N183	N	-0.131099	0.474578	0.529980
N184	N	-0.188995	0.490217	0.485354
H185	H	-0.235780	0.546401	0.449283
N186	N	0.040823	0.113922	0.758577
N187	N	-0.005037	0.103116	0.798826
H188	H	0.009533	0.097023	0.844339
N189	N	0.092683	0.384630	0.955381
N190	N	0.133613	0.360543	1.013898
H191	H	0.166707	0.384618	1.017655
H192	H	0.117672	0.639255	0.367807
N193	N	-0.040866	0.270068	0.503521
N194	N	-0.040865	0.323952	0.503527
H195	H	-0.055449	0.373591	0.458018
N196	N	0.557757	0.295400	0.686164
N197	N	0.565236	0.322879	0.718901
H198	H	0.625314	0.305351	0.743460
N199	N	-0.372320	0.979658	0.194573
N200	N	-0.297935	0.957918	0.185932
H201	H	-0.291832	0.980102	0.137294
H202	H	-0.540522	0.961622	0.348457
N203	N	0.372407	0.282333	0.543240
N204	N	0.333348	0.326731	0.479448
H205	H	0.327285	0.304530	0.452999
H206	H	-0.404689	0.861659	0.453198
N207	N	0.092708	0.890355	0.449661
N208	N	0.133638	0.920191	0.454266
H209	H	0.166723	0.900756	0.501532
H210	H	0.083209	1.005429	0.326618
H211	H	-0.238271	0.873327	0.706477
N212	N	0.040825	-0.008082	0.758579
N213	N	-0.014062	-0.028577	0.770656
H214	H	0.000503	-0.078206	0.816167
N215	N	0.540799	0.233172	0.612063
N216	N	0.594688	0.169615	0.667095
H217	H	0.648728	0.129867	0.665218
N218	N	0.131084	0.281714	0.732083
N219	N	0.131076	0.335607	0.732075
H220	H	0.177860	0.322971	0.768131
H221	H	0.117649	0.175843	0.721735
N222	N	0.000026	1.066869	0.195222
N223	N	0.040976	1.096673	0.199868
H224	H	0.040991	1.140219	0.156341
H225	H	0.117657	0.639260	0.258308
N226	N	-0.092679	0.999372	0.184729
N227	N	-0.092658	1.053262	0.130859
H228	H	-0.125729	1.072725	0.083576
H229	H	0.117669	-0.196467	0.721740
N230	N	0.131091	-0.090589	0.732090
N231	N	0.131080	-0.036695	0.732084
H232	H	0.177863	-0.049331	0.768139
N233	N	-0.092739	0.249648	0.934390
N234	N	-0.073280	0.217343	0.902216
H235	H	-0.106359	0.193256	0.898459
N236	N	-0.092711	0.371620	0.812429
N237	N	-0.133653	0.341793	0.807824
H238	H	-0.166732	0.361224	0.760558
