data_functionalizedCrystal
_audit_creation_method	'MofGen! by Chris Wilmer'
_symmetry_space_group_name_H-M	'P1'
_symmetry_Int_Tables_number	1
_symmetry_cell_setting	triclinic
loop_
_symmetry_equiv_pos_as_xyz
  x,y,z
_cell_length_a	16.625539
_cell_length_b	13.032831
_cell_length_c	16.625545
_cell_angle_alpha	97.169868
_cell_angle_beta	89.971893
_cell_angle_gamma	97.191849
loop_
_atom_site_label
_atom_site_type_symbol
_atom_site_fract_x
_atom_site_fract_y
_atom_site_fract_z
Zn1	Zn	-0.612179	-1.597616	-0.477784
Zn2	Zn	-0.362179	-1.347616	-0.227784
Zn3	Zn	-0.112179	-1.097616	0.022216
Zn4	Zn	0.137821	-0.847616	0.272216
Zn5	Zn	-0.477333	-1.597481	-0.612614
Zn6	Zn	-0.227333	-1.347481	-0.362614
Zn7	Zn	0.022667	-1.097481	-0.112614
Zn8	Zn	0.272667	-0.847481	0.137386
Zn9	Zn	-0.460266	-1.422857	-0.460662
Zn10	Zn	-0.210266	-1.172857	-0.210662
Zn11	Zn	0.039734	-0.922857	0.039338
Zn12	Zn	0.289734	-0.672857	0.289338
Zn13	Zn	-0.595038	-1.422809	-0.595424
Zn14	Zn	-0.345038	-1.172809	-0.345424
Zn15	Zn	-0.095038	-0.922809	-0.095424
Zn16	Zn	0.154962	-0.672809	0.154576
O17	O	-0.536204	-1.510191	-0.536621
O18	O	-0.286204	-1.260191	-0.286621
O19	O	-0.036204	-1.010191	-0.036621
O20	O	0.213796	-0.760191	0.213379
O21	O	-0.608608	-1.743837	-0.510030
O22	O	-0.358608	-1.493837	-0.260030
O23	O	-0.108608	-1.243837	-0.010030
O24	O	0.141392	-0.993837	0.239970
O25	O	-0.362233	-1.574281	-0.592486
O26	O	-0.112233	-1.324281	-0.342486
O27	O	0.137767	-1.074281	-0.092486
O28	O	0.387767	-0.824281	0.157514
O29	O	-0.480448	-1.446115	-0.350109
O30	O	-0.230448	-1.196115	-0.100109
O31	O	0.019552	-0.946115	0.149891
O32	O	0.269552	-0.696115	0.399891
O33	O	-0.509537	-1.743738	-0.609089
O34	O	-0.259537	-1.493738	-0.359089
O35	O	-0.009537	-1.243738	-0.109089
O36	O	0.240463	-0.993738	0.140911
O37	O	-0.592058	-1.574510	-0.362688
O38	O	-0.342058	-1.324510	-0.112688
O39	O	-0.092058	-1.074510	0.137312
O40	O	0.157942	-0.824510	0.387312
O41	O	-0.349694	-1.445985	-0.480848
O42	O	-0.099694	-1.195985	-0.230848
O43	O	0.150306	-0.945985	0.019152
O44	O	0.400306	-0.695985	0.269152
O45	O	-0.463827	-1.276612	-0.464179
O46	O	-0.213827	-1.026612	-0.214179
O47	O	0.036173	-0.776612	0.035821
O48	O	0.286173	-0.526612	0.285821
O49	O	-0.710148	-1.446034	-0.579790
O50	O	-0.460148	-1.196034	-0.329790
O51	O	-0.210148	-0.946034	-0.079790
O52	O	0.039852	-0.696034	0.170210
O53	O	-0.562844	-1.276577	-0.563187
O54	O	-0.312844	-1.026577	-0.313187
O55	O	-0.062844	-0.776577	-0.063187
O56	O	0.187156	-0.526577	0.186813
O57	O	-0.722741	-1.574464	-0.493361
O58	O	-0.472741	-1.324464	-0.243361
O59	O	-0.222741	-1.074464	0.006639
O60	O	0.027259	-0.824464	0.256639
O61	O	-0.492916	-1.574234	-0.723159
O62	O	-0.242916	-1.324234	-0.473159
O63	O	0.007084	-1.074234	-0.223159
O64	O	0.257084	-0.824234	0.026841
O65	O	-0.579394	-1.445903	-0.710529
O66	O	-0.329394	-1.195903	-0.460529
O67	O	-0.079394	-0.945903	-0.210529
O68	O	0.170606	-0.695903	0.039471
C69	C	-0.509624	-1.238676	-0.509960
C70	C	-0.259624	-0.988676	-0.259960
C71	C	-0.009624	-0.738676	-0.009960
C72	C	0.240376	-0.488676	0.240040
C73	C	-0.498272	-1.122521	-0.498574
C74	C	-0.248272	-0.872521	-0.248574
C75	C	0.001728	-0.622521	0.001426
C76	C	0.251728	-0.372521	0.251426
C77	C	-0.746520	-1.510259	-0.536568
C78	C	-0.496520	-1.260259	-0.286568
C79	C	-0.246520	-1.010259	-0.036568
C80	C	0.003480	-0.760259	0.213432
C81	C	-0.836144	-1.510288	-0.536545
C82	C	-0.586144	-1.260288	-0.286545
C83	C	-0.336144	-1.010288	-0.036545
C84	C	-0.086144	-0.760288	0.213455
C85	C	-0.536167	-1.510077	-0.746101
C86	C	-0.286167	-1.260077	-0.496101
C87	C	-0.036167	-1.010077	-0.246101
C88	C	0.213833	-0.760077	0.003899
C89	C	-0.536188	-1.510124	-0.835727
C90	C	-0.286188	-1.260124	-0.585727
C91	C	-0.036188	-1.010124	-0.335727
C92	C	0.213812	-0.760124	-0.085727
C93	C	-1.164324	-1.510336	-0.536460
C94	C	-0.914324	-1.260336	-0.286460
C95	C	-0.664324	-1.010336	-0.036460
C96	C	-0.414324	-0.760336	0.213540
C97	C	-1.073014	-1.510320	-0.536486
C98	C	-0.823014	-1.260320	-0.286486
C99	C	-0.573014	-1.010320	-0.036486
C100	C	-0.323014	-0.760320	0.213514
C101	C	-1.000237	-1.510312	-0.536503
C102	C	-0.750237	-1.260312	-0.286503
C103	C	-0.500237	-1.010312	-0.036503
C104	C	-0.250237	-0.760312	0.213497
C105	C	-0.908921	-1.510295	-0.536528
C106	C	-0.658921	-1.260295	-0.286528
C107	C	-0.408921	-1.010295	-0.036528
C108	C	-0.158921	-0.760295	0.213472
C109	C	-0.326712	-1.510183	-0.536622
C110	C	-0.076712	-1.260183	-0.286622
C111	C	0.173288	-1.010183	-0.036622
C112	C	0.423288	-0.760183	0.213378
C113	C	-0.237109	-1.510357	-0.536438
C114	C	0.012891	-1.260357	-0.286438
C115	C	0.262891	-1.010357	-0.036438
C116	C	0.512891	-0.760357	0.213562
C117	C	-0.562888	-1.782766	-0.563387
C118	C	-0.312888	-1.532766	-0.313387
C119	C	-0.062888	-1.282766	-0.063387
C120	C	0.187112	-1.032766	0.186613
C121	C	-0.574260	-1.898921	-0.574793
C122	C	-0.324260	-1.648921	-0.324793
C123	C	-0.074260	-1.398921	-0.074793
C124	C	0.175740	-1.148921	0.175207
C125	C	-0.542129	-1.070746	-0.542564
C126	C	-0.292129	-0.820746	-0.292564
C127	C	-0.042129	-0.570746	-0.042564
C128	C	0.207871	-0.320746	0.207436
C129	C	-0.530397	-0.950693	-0.530797
C130	C	-0.280397	-0.700693	-0.280797
C131	C	-0.030397	-0.450693	-0.030797
C132	C	0.219603	-0.200693	0.219203
C133	C	-0.536208	-1.510165	-0.908513
C134	C	-0.286208	-1.260165	-0.658513
C135	C	-0.036208	-1.010165	-0.408513
C136	C	0.213792	-0.760165	-0.158513
C137	C	-0.536232	-1.510226	-0.999828
C138	C	-0.286232	-1.260226	-0.749828
C139	C	-0.036232	-1.010226	-0.499828
C140	C	0.213768	-0.760226	-0.249828
C141	C	-0.536247	-1.510280	-1.072609
C142	C	-0.286247	-1.260280	-0.822609
C143	C	-0.036247	-1.010280	-0.572609
C144	C	0.213753	-0.760280	-0.322609
C145	C	-0.536270	-1.510340	-1.163929
C146	C	-0.286270	-1.260340	-0.913929
C147	C	-0.036270	-1.010340	-0.663929
C148	C	0.213730	-0.760340	-0.413929
C149	C	-0.536261	-1.510333	-0.326326
C150	C	-0.286261	-1.260333	-0.076326
C151	C	-0.036261	-1.010333	0.173674
C152	C	0.213739	-0.760333	0.423674
C153	C	-0.536285	-1.510394	-0.236711
C154	C	-0.286285	-1.260394	0.013289
C155	C	-0.036285	-1.010394	0.263289
C156	C	0.213715	-0.760394	0.513289
H157	H	-0.588364	-1.115297	-0.588934
H158	H	-0.338364	-0.865297	-0.338934
H159	H	-0.088364	-0.615297	-0.088934
H160	H	0.161636	-0.365297	0.161066
Br161	Br	-0.453339	-0.876453	-0.453492
Br162	Br	-0.203339	-0.626453	-0.203492
Br163	Br	0.046661	-0.376453	0.046508
Br164	Br	0.296661	-0.126453	0.296508
Br165	Br	-0.651341	-0.973158	-0.652075
Br166	Br	-0.401341	-0.723158	-0.402075
Br167	Br	-0.151341	-0.473158	-0.152075
Br168	Br	0.098659	-0.223158	0.097925
H169	H	-0.452042	-1.077970	-0.452198
H170	H	-0.202042	-0.827970	-0.202198
H171	H	0.047958	-0.577970	0.047802
H172	H	0.297958	-0.327970	0.297802
