data_functionalizedCrystal
_audit_creation_method	'MofGen! by Chris Wilmer'
_symmetry_space_group_name_H-M	'P1'
_symmetry_Int_Tables_number	1
_symmetry_cell_setting	triclinic
loop_
_symmetry_equiv_pos_as_xyz
  x,y,z
_cell_length_a	14.908520
_cell_length_b	14.908779
_cell_length_c	14.908308
_cell_angle_alpha	83.241764
_cell_angle_beta	83.639235
_cell_angle_gamma	89.836586
loop_
_atom_site_label
_atom_site_type_symbol
_atom_site_fract_x
_atom_site_fract_y
_atom_site_fract_z
Zn1	Zn	0.462183	-1.325899	-0.460117
Zn2	Zn	0.962183	-0.825899	0.039883
Zn3	Zn	0.604822	-1.325796	-0.317493
Zn4	Zn	1.104822	-0.825796	0.182507
Zn5	Zn	0.445762	-1.184281	-0.316513
Zn6	Zn	0.945762	-0.684281	0.183487
Zn7	Zn	0.604768	-1.165773	-0.477546
Zn8	Zn	1.104768	-0.665773	0.022454
O9	O	0.529384	-1.250437	-0.392918
O10	O	1.029384	-0.750437	0.107082
O11	O	0.487999	-1.452123	-0.434314
O12	O	0.987999	-0.952123	0.065686
O13	O	0.576873	-1.314727	-0.190282
O14	O	1.076873	-0.814727	0.309718
O15	O	0.321700	-1.210855	-0.327859
O16	O	0.821700	-0.710855	0.172141
O17	O	0.592796	-1.452048	-0.329529
O18	O	1.092796	-0.952048	0.170471
O19	O	0.333764	-1.314901	-0.433364
O20	O	0.833764	-0.814901	0.066636
O21	O	0.460012	-1.210755	-0.189562
O22	O	0.960012	-0.710755	0.310438
O23	O	0.459960	-1.055588	-0.344759
O24	O	0.959960	-0.555588	0.155241
O25	O	0.592704	-1.179312	-0.602316
O26	O	1.092704	-0.679312	-0.102316
O27	O	0.576781	-1.041990	-0.463069
O28	O	1.076781	-0.541990	0.036931
O29	O	0.487946	-1.296955	-0.589511
O30	O	0.987946	-0.796955	-0.089511
O31	O	0.731055	-1.296781	-0.346429
O32	O	1.231055	-0.796781	0.153571
O33	O	0.731015	-1.179212	-0.464019
O34	O	1.231015	-0.679212	0.035981
C35	C	0.516583	-1.016057	-0.405699
C36	C	1.016583	-0.516057	0.094301
C37	C	0.511130	-0.915785	-0.411190
C38	C	1.011130	-0.415785	0.088810
C39	C	0.609840	-0.727304	-0.312209
C40	C	1.109840	-0.227304	0.187791
C41	C	0.604719	-0.633090	-0.317365
C42	C	1.104719	-0.133090	0.182635
C43	C	0.495773	-0.633140	-0.426665
C44	C	0.995773	-0.133140	0.073335
C45	C	0.500894	-0.727354	-0.421508
C46	C	1.000894	-0.227354	0.078492
C47	C	0.557928	-0.774433	-0.364277
C48	C	1.057928	-0.274433	0.135723
C49	C	0.563044	-0.868650	-0.359116
C50	C	1.063044	-0.368650	0.140884
C51	C	0.454103	-0.868697	-0.468420
C52	C	0.954103	-0.368697	0.031580
C53	C	0.448982	-0.774483	-0.473576
C54	C	0.948982	-0.274483	0.026424
C55	C	0.763770	-1.236000	-0.407240
C56	C	1.263770	-0.736000	0.092760
C57	C	0.864048	-1.229905	-0.413393
C58	C	1.364048	-0.729905	0.086607
C59	C	0.294084	-1.264954	-0.378558
C60	C	0.794084	-0.764954	0.121442
C61	C	0.193814	-1.271140	-0.372439
C62	C	0.693814	-0.771140	0.127561
C63	C	1.052472	-1.340988	-0.302596
C64	C	1.552472	-0.840988	0.197404
C65	C	1.146692	-1.335264	-0.308374
C66	C	1.646692	-0.835264	0.191626
C67	C	1.146710	-1.212738	-0.430731
C68	C	1.646710	-0.712738	0.069269
C69	C	1.052490	-1.218462	-0.424953
C70	C	1.552490	-0.718462	0.075047
C71	C	1.005374	-1.282588	-0.360882
C72	C	1.505374	-0.782588	0.139118
C73	C	0.911152	-1.288307	-0.355100
C74	C	1.411152	-0.788307	0.144900
C75	C	0.911172	-1.165786	-0.477461
C76	C	1.411172	-0.665786	0.022539
C77	C	1.005392	-1.160062	-0.483240
C78	C	1.505392	-0.660062	0.016760
C79	C	0.542151	-1.236080	-0.629785
C80	C	1.042151	-0.736080	-0.129785
C81	C	0.547591	-1.229962	-0.730724
C82	C	1.047591	-0.729962	-0.230724
C83	C	0.542229	-0.485734	-0.380079
C84	C	1.042229	0.014266	0.119921
C85	C	0.547686	-0.586005	-0.374590
C86	C	1.047686	-0.086005	0.125410
C87	C	0.448710	-1.340967	-0.907066
C88	C	0.948710	-0.840967	-0.407066
C89	C	0.453819	-1.335222	-1.001907
C90	C	0.953819	-0.835222	-0.501907
C91	C	0.562913	-1.212723	-1.015248
C92	C	1.062913	-0.712723	-0.515248
C93	C	0.557804	-1.218468	-0.920407
C94	C	1.057804	-0.718468	-0.420407
C95	C	0.500701	-1.282593	-0.866319
C96	C	1.000701	-0.782593	-0.366319
C97	C	0.495598	-1.288342	-0.771477
C98	C	0.995598	-0.788342	-0.271477
C99	C	0.604686	-1.165840	-0.784820
C100	C	1.104686	-0.665840	-0.284820
C101	C	0.609795	-1.160094	-0.879661
C102	C	1.109795	-0.660094	-0.379661
C103	C	0.516604	-1.264794	-0.156964
C104	C	1.016604	-0.764794	0.343036
C105	C	0.510919	-1.271102	-0.056001
C106	C	1.010919	-0.771102	0.443999
H107	H	0.411828	-0.907080	-0.510813
H108	H	0.911828	-0.407080	-0.010813
C109	C	0.396626	-1.399440	-1.046724
C110	C	0.896626	-0.899440	-0.546724
N111	N	0.353547	-1.447812	-1.080480
N112	N	0.853547	-0.947812	-0.580480
C113	C	1.198496	-1.399505	-0.244251
C114	C	1.698496	-0.899505	0.255749
N115	N	1.237514	-1.447894	-0.195950
N116	N	1.737514	-0.947894	0.304050
C117	C	0.625696	-1.142170	-1.074760
C118	C	1.125696	-0.642170	-0.574760
N119	N	0.672979	-1.089023	-1.119586
N120	N	1.172979	-0.589023	-0.619586
C121	C	0.433019	-0.581339	-0.489593
C122	C	0.933019	-0.081339	0.010407
N123	N	0.385744	-0.542323	-0.536981
N124	N	0.885744	-0.042323	-0.036981
H125	H	0.647024	-1.118309	-0.751635
H126	H	1.147024	-0.618309	-0.251635
C127	C	0.859357	-1.101542	-0.541581
C128	C	1.359357	-0.601542	-0.041581
N129	N	0.820328	-1.053153	-0.589873
N130	N	1.320328	-0.553153	-0.089873
H131	H	1.043767	-1.107855	-0.535406
H132	H	1.543767	-0.607855	-0.035406
C133	C	1.000643	-1.411524	-0.232116
C134	C	1.500643	-0.911524	0.267884
N135	N	0.961606	-1.464655	-0.179031
N136	N	1.461606	-0.964655	0.320969
C137	C	0.432782	-1.358878	-0.711981
C138	C	0.932782	-0.858878	-0.211981
N139	N	0.385463	-1.412005	-0.667172
N140	N	0.885463	-0.912005	-0.167172
H141	H	0.872791	-1.340520	-0.302928
H142	H	1.372791	-0.840520	0.197072
C143	C	0.385902	-1.411508	-0.847567
C144	C	0.885902	-0.911508	-0.347567
N145	N	0.338593	-1.464641	-0.802754
N146	N	0.838593	-0.964641	-0.302754
H147	H	0.656284	-1.107884	-0.923712
H148	H	1.156284	-0.607884	-0.423712
H149	H	0.609482	-0.906980	-0.312514
H150	H	1.109482	-0.406980	0.187486
H151	H	0.656274	-0.765638	-0.265603
H152	H	1.156274	-0.265638	0.234397
C153	C	1.198553	-1.142203	-0.501202
C154	C	1.698553	-0.642203	-0.001202
N155	N	1.237602	-1.089074	-0.554279
N156	N	1.737602	-0.589074	-0.054279
C157	C	0.661821	-0.581252	-0.260081
C158	C	1.161821	-0.081252	0.239919
N159	N	0.704832	-0.542208	-0.216931
N160	N	1.204832	-0.042208	0.283069
C161	C	0.386232	-0.722687	-0.536512
C162	C	0.886232	-0.222687	-0.036512
N163	N	0.338961	-0.683677	-0.583909
N164	N	0.838961	-0.183677	-0.083909
