data_functionalizedCrystal
_audit_creation_method	'MofGen! by Chris Wilmer'
_symmetry_space_group_name_H-M	'P1'
_symmetry_Int_Tables_number	1
_symmetry_cell_setting	triclinic
loop_
_symmetry_equiv_pos_as_xyz
  x,y,z
_cell_length_a	19.188930
_cell_length_b	19.188925
_cell_length_c	9.016244
_cell_angle_alpha	89.998107
_cell_angle_beta	89.978791
_cell_angle_gamma	83.143665
loop_
_atom_site_label
_atom_site_type_symbol
_atom_site_fract_x
_atom_site_fract_y
_atom_site_fract_z
O1	O	0.926146	0.087165	-0.123816
O2	O	0.722835	0.098899	-0.123714
O3	O	0.830360	-0.008624	-0.123760
O4	O	0.818621	0.194688	-0.123770
O5	O	0.830344	-0.008621	0.122921
O6	O	0.722819	0.098902	0.122967
O7	O	0.926131	0.087167	0.122865
Cu8	Cu	0.824473	0.093035	0.145440
Cu9	Cu	0.824492	0.093032	-0.146289
O10	O	0.818606	0.194691	0.122910
C11	C	0.696816	0.098520	-0.000361
C12	C	0.619311	0.097380	-0.000322
C13	C	0.829972	-0.034634	-0.000420
C14	C	0.828833	-0.112138	-0.000422
C15	C	0.884297	-0.673909	-0.000488
C16	C	0.885374	-0.601085	-0.000475
C17	C	0.822282	-0.556151	-0.000444
C18	C	0.758108	-0.584045	-0.000387
C19	C	0.757033	-0.656867	-0.000385
N20	N	0.776611	-0.435471	-0.084384
N21	N	0.777636	-0.366294	-0.084389
C22	C	0.825516	-0.336742	-0.000446
N23	N	0.872342	-0.378982	0.083483
N24	N	0.871319	-0.448166	0.083482
C25	C	0.823440	-0.477187	-0.000445
C26	C	0.890852	-0.229893	-0.000478
C27	C	0.891926	-0.157068	-0.000456
C28	C	0.764659	-0.140029	-0.000384
C29	C	0.763587	-0.212852	-0.000391
C30	C	0.826685	-0.257780	-0.000445
C31	C	0.574386	0.160471	-0.000348
C32	C	0.501563	0.159399	-0.000365
C33	C	0.473667	0.095233	-0.000384
C34	C	0.518602	0.032134	-0.000349
C35	C	0.591424	0.033207	-0.000318
N36	N	0.365693	0.046185	-0.084397
N37	N	0.296515	0.045169	-0.084430
C38	C	0.254259	0.091995	-0.000474
N39	N	0.283793	0.139884	0.083496
N40	N	0.352978	0.140902	0.083523
C41	C	0.394705	0.094062	-0.000417
C42	C	0.130369	0.153928	-0.000517
C43	C	0.057544	0.152854	-0.000524
C44	C	0.074586	0.025586	-0.000523
C45	C	0.147409	0.026662	-0.000501
C46	C	0.175296	0.090835	-0.000505
C47	C	0.952150	0.087546	-0.000492
C48	C	1.029654	0.088687	-0.000541
C49	C	0.818993	0.220700	-0.000433
C50	C	0.820132	0.298205	-0.000440
N51	N	0.824466	0.093036	0.350626
N52	N	0.824505	0.093025	-0.351475
C53	C	0.766775	0.150366	0.585683
C54	C	0.766898	0.150576	0.413792
C55	C	0.897270	0.108727	0.412926
C56	C	0.896954	0.109132	0.584871
C57	C	0.810079	0.019822	0.585183
C58	C	0.808398	0.020318	0.413229
H59	H	0.935677	-0.710485	-0.000524
H60	H	0.754844	0.008406	0.372515
O61	O	0.488516	-0.037074	-0.000362
H62	H	0.531993	-0.080767	-0.000324
H63	H	0.713288	-0.103444	-0.000345
H64	H	0.847729	-0.024333	0.370237
H65	H	0.942231	-0.266475	-0.000521
O66	O	0.195867	-0.041388	-0.000490
H67	H	0.229420	-0.043944	0.100075
O68	O	0.954584	-0.570997	-0.000552
H69	H	0.984899	-0.589061	0.099957
H70	H	0.706738	-0.547455	-0.000357
O71	O	0.639887	-0.034843	-0.000296
H72	H	0.608259	-0.079644	-0.000316
O73	O	0.009083	0.220905	-0.000539
H74	H	0.018994	0.251618	-0.101089
O75	O	0.160456	0.223138	-0.000491
H76	H	0.116979	0.266831	-0.000484
O77	O	0.687825	-0.686952	-0.000334
H78	H	0.657522	-0.668893	-0.100862
O79	O	0.044511	-0.043625	-0.000544
H80	H	-0.013675	-0.033773	-0.000578
O81	O	0.961136	-0.126985	-0.000526
H82	H	1.004828	-0.170463	-0.000584
H83	H	0.776083	0.204904	0.372636
H84	H	0.712774	0.141260	0.371676
H85	H	0.711337	-0.235557	-0.000362
H86	H	0.597087	0.212725	-0.000354
O87	O	0.694849	0.138241	0.640544
H88	H	0.671590	0.184791	0.704283
O89	O	0.453093	0.227449	-0.000409
H90	H	0.484720	0.272252	-0.000417
H91	H	0.775835	0.204387	0.628867
H92	H	0.909700	0.162511	0.624949
H93	H	0.941242	0.069002	0.626435
O94	O	0.955523	0.054872	0.358728
H95	H	0.933149	0.016261	0.286634
H96	H	0.910323	0.161498	0.369837
H97	H	0.758160	0.004679	0.628658
H98	H	0.852182	-0.022846	0.625817
