data_functionalizedCrystal
_audit_creation_method	'MofGen! by Chris Wilmer'
_symmetry_space_group_name_H-M	'P1'
_symmetry_Int_Tables_number	1
_symmetry_cell_setting	triclinic
loop_
_symmetry_equiv_pos_as_xyz
  x,y,z
_cell_length_a	16.120490
_cell_length_b	16.120531
_cell_length_c	16.120297
_cell_angle_alpha	84.389419
_cell_angle_beta	90.129683
_cell_angle_gamma	89.829344
loop_
_atom_site_label
_atom_site_type_symbol
_atom_site_fract_x
_atom_site_fract_y
_atom_site_fract_z
Zn1	Zn	1.224942	0.422327	-0.554758
Zn2	Zn	1.474942	0.672327	-0.304758
Zn3	Zn	1.724942	0.922327	-0.054758
Zn4	Zn	1.974942	1.172327	0.195242
Zn5	Zn	1.224822	0.555010	-0.422054
Zn6	Zn	1.474822	0.805010	-0.172054
Zn7	Zn	1.724822	1.055010	0.077946
Zn8	Zn	1.974822	1.305010	0.327946
Zn9	Zn	1.093682	0.408236	-0.408005
Zn10	Zn	1.343682	0.658236	-0.158005
Zn11	Zn	1.593682	0.908236	0.091995
Zn12	Zn	1.843682	1.158236	0.341995
Zn13	Zn	1.078819	0.554234	-0.553990
Zn14	Zn	1.328819	0.804234	-0.303990
Zn15	Zn	1.578819	1.054234	-0.053990
Zn16	Zn	1.828819	1.304234	0.196010
O17	O	1.155566	0.484952	-0.484702
O18	O	1.405566	0.734952	-0.234702
O19	O	1.655566	0.984952	0.015298
O20	O	1.905566	1.234952	0.265298
O21	O	1.340961	0.446149	-0.543356
O22	O	1.590961	0.696149	-0.293356
O23	O	1.840961	0.946149	-0.043356
O24	O	2.090961	1.196149	0.206644
O25	O	1.213596	0.529967	-0.303558
O26	O	1.463596	0.779967	-0.053558
O27	O	1.713596	1.029967	0.196442
O28	O	1.963596	1.279967	0.446442
O29	O	1.117365	0.293476	-0.421914
O30	O	1.367365	0.543476	-0.171914
O31	O	1.617365	0.793476	0.078086
O32	O	1.867365	1.043476	0.328086
O33	O	1.340873	0.543631	-0.445859
O34	O	1.590873	0.793631	-0.195859
O35	O	1.840873	1.043631	0.054141
O36	O	2.090873	1.293631	0.304141
O37	O	1.213800	0.303828	-0.529733
O38	O	1.463800	0.553828	-0.279733
O39	O	1.713800	0.803828	-0.029733
O40	O	1.963800	1.053828	0.220267
O41	O	1.117249	0.422133	-0.293236
O42	O	1.367249	0.672133	-0.043236
O43	O	1.617249	0.922133	0.206764
O44	O	1.867249	1.172133	0.456764
O45	O	0.975675	0.421381	-0.421169
O46	O	1.225675	0.671381	-0.171169
O47	O	1.475675	0.921381	0.078831
O48	O	1.725675	1.171381	0.328831
O49	O	1.092032	0.542309	-0.670724
O50	O	1.342032	0.792309	-0.420724
O51	O	1.592032	1.042309	-0.170724
O52	O	1.842032	1.292309	0.079276
O53	O	0.964755	0.528645	-0.528424
O54	O	1.214755	0.778645	-0.278424
O55	O	1.464755	1.028645	-0.028424
O56	O	1.714755	1.278645	0.221576
O57	O	1.199388	0.445397	-0.671289
O58	O	1.449388	0.695397	-0.421289
O59	O	1.699388	0.945397	-0.171289
O60	O	1.949388	1.195397	0.078711
O61	O	1.199184	0.671536	-0.445114
O62	O	1.449184	0.921536	-0.195114
O63	O	1.699184	1.171536	0.054886
O64	O	1.949184	1.421536	0.304886
O65	O	1.091916	0.670966	-0.542047
O66	O	1.341916	0.920966	-0.292047
O67	O	1.591916	1.170966	-0.042047
O68	O	1.841916	1.420966	0.207953
C69	C	0.940129	0.473401	-0.473189
C70	C	1.190129	0.723401	-0.223189
C71	C	1.440129	0.973401	0.026811
C72	C	1.690129	1.223401	0.276811
C73	C	0.847961	0.468480	-0.468284
C74	C	1.097961	0.718480	-0.218284
C75	C	1.347961	0.968480	0.031716
C76	C	1.597961	1.218480	0.281716
C77	C	0.632762	0.510469	-0.510144
C78	C	0.882762	0.760469	-0.260144
C79	C	1.132762	1.010469	-0.010144
C80	C	1.382762	1.260469	0.239856
C81	C	0.679215	0.459504	-0.459329
C82	C	0.929215	0.709504	-0.209329
C83	C	1.179215	0.959504	0.040671
C84	C	1.429215	1.209504	0.290671
C85	C	0.773114	0.464500	-0.464313
C86	C	1.023114	0.714500	-0.214313
C87	C	1.273114	0.964500	0.035687
C88	C	1.523114	1.214500	0.285687
C89	C	0.538854	0.505474	-0.505161
C90	C	0.788854	0.755474	-0.255161
C91	C	1.038854	1.005474	-0.005161
C92	C	1.288854	1.255474	0.244839
C93	C	1.143946	0.701494	-0.495041
C94	C	1.393946	0.951494	-0.245041
C95	C	1.643946	1.201494	0.004959
C96	C	1.893946	1.451494	0.254959
C97	C	1.139049	0.794137	-0.499496
C98	C	1.389049	1.044137	-0.249496
C99	C	1.639049	1.294137	0.000504
C100	C	1.889049	1.544137	0.250504
C101	C	1.130113	0.963758	-0.507647
C102	C	1.380113	1.213758	-0.257647
C103	C	1.630113	1.463758	-0.007647
C104	C	1.880113	1.713758	0.242353
C105	C	1.181054	1.005304	-0.461711
C106	C	1.431054	1.255304	-0.211711
C107	C	1.681054	1.505304	0.038289
C108	C	1.931054	1.755304	0.288289
C109	C	1.176082	1.099687	-0.466246
C110	C	1.426082	1.349687	-0.216246
C111	C	1.676082	1.599687	0.033754
C112	C	1.926082	1.849687	0.283754
C113	C	1.135084	0.869367	-0.503113
C114	C	1.385084	1.119367	-0.253113
C115	C	1.635084	1.369367	-0.003113
C116	C	1.885084	1.619367	0.246887
C117	C	1.371845	0.496548	-0.496261
C118	C	1.621845	0.746548	-0.246261
C119	C	1.871845	0.996548	0.003739
C120	C	2.121845	1.246548	0.253739
C121	C	1.464010	0.501490	-0.501186
C122	C	1.714010	0.751490	-0.251186
C123	C	1.964010	1.001490	-0.001186
C124	C	2.214010	1.251490	0.248814
C125	C	1.144066	0.495339	-0.702094
C126	C	1.394066	0.745339	-0.452094
C127	C	1.644066	0.995339	-0.202094
C128	C	1.894066	1.245339	0.047906
C129	C	1.139165	0.499765	-0.794733
C130	C	1.389165	0.749765	-0.544733
C131	C	1.639165	0.999765	-0.294733
C132	C	1.889165	1.249765	-0.044733
C133	C	1.167225	1.267564	-0.474325
C134	C	1.417225	1.517564	-0.224325
C135	C	1.667225	1.767564	0.025675
C136	C	1.917225	2.017564	0.275675
C137	C	1.172120	1.174920	-0.469860
C138	C	1.422120	1.424920	-0.219860
C139	C	1.672120	1.674920	0.030140
C140	C	1.922120	1.924920	0.280140
C141	C	1.130187	0.507826	-0.964344
C142	C	1.380187	0.757826	-0.714344
C143	C	1.630187	1.007826	-0.464344
C144	C	1.880187	1.257826	-0.214344
C145	C	1.181122	0.461836	-1.005908
C146	C	1.431122	0.711836	-0.755908
C147	C	1.681122	0.961836	-0.505908
C148	C	1.931122	1.211836	-0.255908
C149	C	1.176127	0.466321	-1.100286
C150	C	1.426127	0.716321	-0.850286
C151	C	1.676127	0.966321	-0.600286
C152	C	1.926127	1.216321	-0.350286
C153	C	1.135181	0.503342	-0.869958
C154	C	1.385181	0.753342	-0.619958
C155	C	1.635181	1.003342	-0.369958
C156	C	1.885181	1.253342	-0.119958
C157	C	1.167073	0.474547	-0.268156
C158	C	1.417073	0.724547	-0.018156
C159	C	1.667073	0.974547	0.231844
C160	C	1.917073	1.224547	0.481844
C161	C	1.172147	0.469895	-0.175514
C162	C	1.422147	0.719895	0.074486
C163	C	1.672147	0.969895	0.324486
C164	C	1.922147	1.219895	0.574486
H165	H	0.648464	0.412119	-0.412080
H166	H	0.898464	0.662119	-0.162080
H167	H	1.148464	0.912119	0.087920
H168	H	1.398464	1.162119	0.337920
H169	H	0.663511	0.557851	-0.557388
H170	H	0.913511	0.807851	-0.307388
H171	H	1.163511	1.057851	-0.057388
H172	H	1.413511	1.307851	0.192612
H173	H	1.082769	0.999071	-0.550376
H174	H	1.332769	1.249071	-0.300376
H175	H	1.582769	1.499071	-0.050376
H176	H	1.832769	1.749071	0.199624
F177	F	1.242938	0.959147	-0.405853
F178	F	1.492938	1.209147	-0.155853
F179	F	1.742938	1.459147	0.094147
F180	F	1.992938	1.709147	0.344147
F181	F	1.243036	0.405984	-0.959779
F182	F	1.493036	0.655984	-0.709779
F183	F	1.743036	0.905984	-0.459779
F184	F	1.993036	1.155984	-0.209779
H185	H	1.082834	0.550565	-0.999637
H186	H	1.332834	0.800565	-0.749637
H187	H	1.582834	1.050565	-0.499637
H188	H	1.832834	1.300565	-0.249637
