data_functionalizedCrystal
_audit_creation_method	'MofGen! by Chris Wilmer'
_symmetry_space_group_name_H-M	'P1'
_symmetry_Int_Tables_number	1
_symmetry_cell_setting	triclinic
loop_
_symmetry_equiv_pos_as_xyz
  x,y,z
_cell_length_a	23.532407
_cell_length_b	23.532357
_cell_length_c	18.266242
_cell_angle_alpha	89.988103
_cell_angle_beta	89.993638
_cell_angle_gamma	82.838519
loop_
_atom_site_label
_atom_site_type_symbol
_atom_site_fract_x
_atom_site_fract_y
_atom_site_fract_z
O1	O	0.755251	0.069138	-0.060843
O2	O	1.255251	0.569138	0.439157
O3	O	0.589386	0.079141	-0.060856
O4	O	1.089386	0.579141	0.439144
O5	O	0.677335	-0.008794	-0.060834
O6	O	1.177335	0.491206	0.439166
O7	O	0.667302	0.157073	-0.060865
O8	O	1.167302	0.657073	0.439135
O9	O	0.677320	-0.008799	0.060928
O10	O	1.177320	0.491201	0.560928
O11	O	0.589371	0.079137	0.060906
O12	O	1.089371	0.579137	0.560906
O13	O	0.755236	0.069133	0.060918
O14	O	1.255236	0.569133	0.560918
Zn15	Zn	0.672301	0.074134	0.080244
Zn16	Zn	1.172301	0.574134	0.580244
Zn17	Zn	0.672320	0.074140	-0.080182
Zn18	Zn	1.172320	0.574140	0.419818
O19	O	0.667287	0.157069	0.060897
O20	O	1.167287	0.657069	0.560897
C21	C	0.677076	-0.030013	0.000049
C22	C	1.177076	0.469987	0.500049
C23	C	0.676322	-0.093232	0.000056
C24	C	1.176322	0.406768	0.500056
C25	C	0.568162	0.078884	0.000023
C26	C	1.068162	0.578884	0.500023
C27	C	0.504945	0.078118	0.000019
C28	C	1.004945	0.578118	0.500019
C29	C	0.671593	-0.485240	-0.066357
C30	C	1.171593	0.014760	0.433643
C31	C	0.670876	-0.544640	-0.066361
C32	C	1.170876	-0.044640	0.433639
O33	O	0.670492	-0.575354	-0.122808
O34	O	1.170492	-0.075354	0.377192
N35	N	0.670512	-0.574354	0.000011
N36	N	1.170512	-0.074354	0.500011
C37	C	0.670860	-0.544664	0.066391
C38	C	1.170860	-0.044664	0.566391
O39	O	0.670484	-0.575392	0.122844
O40	O	1.170484	-0.075392	0.622844
C41	C	0.671573	-0.485265	0.066394
C42	C	1.171573	0.014735	0.566394
C43	C	0.671942	-0.455555	0.000018
C44	C	1.171942	0.044445	0.500018
C45	C	0.671962	-0.455531	-0.132727
C46	C	1.171962	0.044469	0.367273
C47	C	0.672680	-0.396135	-0.132723
C48	C	1.172680	0.103865	0.367277
C49	C	0.673030	-0.366450	-0.066348
C50	C	1.173030	0.133550	0.433652
C51	C	0.672661	-0.396160	0.000023
C52	C	1.172661	0.103840	0.500023
C53	C	0.671917	-0.455576	0.132773
C54	C	1.171917	0.044424	0.632773
C55	C	0.672629	-0.396173	0.132771
C56	C	1.172629	0.103827	0.632771
C57	C	0.672999	-0.366463	0.066395
C58	C	1.172999	0.133537	0.566395
C59	C	0.673728	-0.307079	0.066402
C60	C	1.173728	0.192921	0.566402
N61	N	0.674092	-0.277366	0.000031
N62	N	1.174092	0.222634	0.500031
C63	C	0.673743	-0.307051	-0.066344
C64	C	1.173743	0.192949	0.433656
C65	C	0.669361	-0.669405	0.066378
C66	C	1.169361	-0.169405	0.566378
C67	C	0.668652	-0.728804	0.066376
C68	C	1.168652	-0.228804	0.566376
C69	C	0.668667	-0.728776	-0.066376
C70	C	1.168667	-0.228776	0.433624
C71	C	0.669380	-0.669377	-0.066373
C72	C	1.169380	-0.169377	0.433627
C73	C	0.669725	-0.639692	0.000007
C74	C	1.169725	-0.139692	0.500007
C75	C	0.675252	-0.182317	-0.066330
C76	C	1.175252	0.317683	0.433670
C77	C	0.675972	-0.122917	-0.066319
C78	C	1.175972	0.377083	0.433681
C79	C	0.675954	-0.122950	0.066432
C80	C	1.175954	0.377050	0.566432
C81	C	0.675237	-0.182345	0.066422
C82	C	1.175237	0.317655	0.566422
C83	C	0.674883	-0.212027	0.000035
C84	C	1.174883	0.287973	0.500035
O85	O	0.674110	-0.276327	0.122821
O86	O	1.174110	0.223673	0.622821
O87	O	0.674111	-0.276315	-0.122789
O88	O	1.174111	0.223685	0.377211
C89	C	0.238788	0.022922	0.000049
C90	C	0.738788	0.522922	0.500049
C91	C	0.298188	0.023633	0.000049
C92	C	0.798188	0.523633	0.500049
O93	O	0.334940	-0.020154	0.000082
O94	O	0.834940	0.479846	0.500082
N95	N	0.320805	0.075911	0.000034
N96	N	0.820805	0.575911	0.500034
C97	C	0.284018	0.127480	0.000027
C98	C	0.784018	0.627480	0.500027
O99	O	0.308710	0.172012	0.000015
O100	O	0.808710	0.672012	0.500015
C101	C	0.224619	0.126768	0.000033
C102	C	0.724619	0.626768	0.500033
C103	C	0.202006	0.074487	0.000040
C104	C	0.702006	0.574487	0.500040
C105	C	0.216174	-0.029355	0.000057
C106	C	0.716174	0.470645	0.500057
C107	C	0.156778	-0.030066	0.000056
C108	C	0.656778	0.469934	0.500056
C109	C	0.119996	0.021499	0.000047
C110	C	0.619996	0.521499	0.500047
C111	C	0.142610	0.073776	0.000039
C112	C	0.642610	0.573776	0.500039
C113	C	0.187833	0.178337	0.000031
C114	C	0.687833	0.678337	0.500031
C115	C	0.128431	0.177620	0.000037
C116	C	0.628431	0.677620	0.500037
C117	C	0.105818	0.125339	0.000045
C118	C	0.605818	0.625339	0.500045
C119	C	0.046431	0.124630	0.000029
C120	C	0.546431	0.624630	0.500029
N121	N	0.023815	0.072353	0.000044
N122	N	0.523815	0.572353	0.500044
C123	C	0.060597	0.020787	0.000053
C124	C	0.560597	0.520787	0.500053
C125	C	0.408760	0.128971	0.000017
C126	C	0.908760	0.628971	0.500017
C127	C	0.468158	0.129684	0.000006
C128	C	0.968158	0.629684	0.500006
C129	C	0.482324	0.025837	0.000029
C130	C	0.982324	0.525837	0.500029
C131	C	0.422925	0.025125	0.000035
C132	C	0.922925	0.525125	0.500035
C133	C	0.386143	0.076694	0.000032
C134	C	0.886143	0.576694	0.500032
C135	C	-0.064140	0.019297	0.000050
C136	C	0.435860	0.519297	0.500050
C137	C	-0.123542	0.018591	0.000046
C138	C	0.376458	0.518591	0.500046
C139	C	-0.137702	0.122438	0.000027
C140	C	0.362298	0.622438	0.500027
C141	C	-0.078306	0.123145	0.000027
C142	C	0.421694	0.623145	0.500027
C143	C	-0.041525	0.071570	0.000041
C144	C	0.458475	0.571570	0.500041
O145	O	0.009644	0.168394	-0.000002
O146	O	0.509644	0.668394	0.499998
O147	O	0.035897	-0.023737	0.000074
O148	O	0.535897	0.476263	0.500074
C149	C	0.776459	0.069390	0.000037
C150	C	1.276459	0.569390	0.500037
C151	C	0.839676	0.070156	0.000037
C152	C	1.339676	0.570156	0.500037
C153	C	0.667545	0.178288	0.000012
C154	C	1.167545	0.678288	0.500012
C155	C	0.668300	0.241506	0.000000
C156	C	1.168300	0.741506	0.500000
N157	N	0.672292	0.074130	0.189731
N158	N	1.172292	0.574130	0.689731
N159	N	0.672334	0.074140	-0.189669
N160	N	1.172334	0.574140	0.310331
C161	C	0.711248	0.035211	0.228050
C162	C	1.211248	0.535211	0.728050
C163	C	0.711252	0.035208	0.304695
C164	C	1.211252	0.535208	0.804695
C165	C	0.672304	0.074134	0.343018
C166	C	1.172304	0.574134	0.843018
C167	C	0.633341	0.113056	0.304690
C168	C	1.133341	0.613056	0.804690
C169	C	0.633334	0.113054	0.228047
C170	C	1.133334	0.613054	0.728047
N171	N	0.664761	0.124571	0.463341
N172	N	1.164761	0.624571	0.963341
N173	N	0.664771	0.124571	0.536149
N174	N	1.164771	0.624571	1.036149
C175	C	0.672320	0.074143	0.573941
C176	C	1.172320	0.574143	1.073941
N177	N	0.679871	0.023712	0.536174
N178	N	1.179871	0.523712	1.036174
N179	N	0.679865	0.023713	0.463359
N180	N	1.179865	0.523713	0.963359
C181	C	0.672307	0.074141	0.426125
C182	C	1.172307	0.574141	0.926125
C183	C	0.711283	0.035218	0.695366
C184	C	1.211283	0.535218	1.195366
C185	C	0.711283	0.035214	0.772013
C186	C	1.211283	0.535214	1.272013
C187	C	0.633374	0.113067	0.772007
C188	C	1.133374	0.613067	1.272007
C189	C	0.633372	0.113066	0.695362
C190	C	1.133372	0.613066	1.195362
C191	C	0.672329	0.074141	0.657046
C192	C	1.172329	0.574141	1.157046
H193	H	0.674961	-0.206477	-0.120388
H194	H	1.174961	0.293523	0.379612
O195	O	0.676363	-0.090870	-0.137913
O196	O	1.176363	0.409130	0.362087
H197	H	0.675991	-0.121494	-0.184066
H198	H	1.175991	0.378506	0.315934
H199	H	0.669680	-0.645191	-0.120422
H200	H	1.169680	-0.145191	0.379578
H201	H	0.601652	0.144759	0.664161
H202	H	1.101652	0.644759	1.164161
H203	H	-0.034199	-0.022700	0.000061
H204	H	0.465801	0.477300	0.500061
H205	H	0.672979	-0.371951	-0.186773
H206	H	1.172979	0.128049	0.313227
H207	H	0.138372	-0.072639	0.000065
H208	H	0.638372	0.427361	0.500065
H209	H	0.743003	0.003522	0.664168
H210	H	1.243003	0.503522	1.164168
O211	O	0.088757	0.233242	0.000035
O212	O	0.588757	0.733242	0.500035
H213	H	0.096761	0.258278	-0.049599
H214	H	0.596761	0.758278	0.450401
O215	O	0.669741	-0.637391	0.137978
O216	O	1.169741	-0.137391	0.637978
H217	H	0.708887	-0.615626	0.141156
H218	H	1.208887	-0.115626	0.641156
O219	O	0.671571	-0.487542	-0.204323
O220	O	1.171571	0.012458	0.295677
H221	H	0.671945	-0.456894	-0.250466
H222	H	1.171945	0.043106	0.249534
O223	O	-0.147930	-0.037802	0.000065
O224	O	0.352070	0.462198	0.500065
H225	H	-0.133122	-0.062566	-0.049553
H226	H	0.366878	0.437434	0.450447
O227	O	0.668282	-0.760797	-0.137971
O228	O	1.168282	-0.260797	0.362029
H229	H	0.667716	-0.807090	-0.126816
H230	H	1.167716	-0.307090	0.373184
O231	O	0.591337	0.155050	0.346015
O232	O	1.091337	0.655050	0.846015
H233	H	0.563803	0.131223	0.380959
H234	H	1.063803	0.631223	0.880959
O235	O	0.668259	-0.760847	0.137966
O236	O	1.168259	-0.260847	0.637966
H237	H	0.668618	-0.730219	0.184117
H238	H	1.168618	-0.230219	0.684117
H239	H	0.676241	-0.098770	0.120473
H240	H	1.176241	0.401230	0.620473
O241	O	0.492546	0.186072	-0.000001
O242	O	0.992546	0.686072	0.499999
H243	H	0.456985	0.221806	-0.000000
H244	H	0.956985	0.721806	0.500000
O245	O	0.671512	-0.487611	0.204365
O246	O	1.171512	0.012389	0.704365
H247	H	0.671867	-0.456979	0.250513
H248	H	1.171867	0.043021	0.750513
O249	O	0.673008	-0.364155	0.204368
O250	O	1.173008	0.135845	0.704368
H251	H	0.672637	-0.394798	0.250516
H252	H	1.172637	0.105202	0.750516
H253	H	0.674941	-0.206537	0.120471
H254	H	1.174941	0.293463	0.620471
O255	O	0.255842	-0.084977	0.000066
O256	O	0.755842	0.415023	0.500066
H257	H	0.230128	-0.121442	0.000068
H258	H	0.730128	0.378558	0.500068
O259	O	0.369088	0.184596	0.000001
O260	O	0.869088	0.684596	0.500001
H261	H	0.394799	0.221063	-0.000017
H262	H	0.894799	0.721063	0.499983
H263	H	0.404518	-0.017447	0.000041
H264	H	0.904518	0.482553	0.500041
H265	H	0.512283	-0.016151	0.000037
H266	H	1.012283	0.483849	0.500037
H267	H	0.206234	0.220910	0.000022
H268	H	0.706234	0.720910	0.500022
H269	H	-0.167661	0.164421	0.000016
H270	H	0.332339	0.664421	0.500016
O271	O	-0.053909	0.179531	0.000017
O272	O	0.446091	0.679531	0.500017
H273	H	-0.089468	0.215268	0.000013
H274	H	0.410532	0.715268	0.500013
H275	H	0.742968	0.003516	0.196855
H276	H	1.242968	0.503516	0.696855
O277	O	0.753276	-0.006764	0.346039
O278	O	1.253276	0.493236	0.846039
H279	H	0.780367	-0.033826	0.306519
H280	H	1.280367	0.466174	0.806519
O281	O	0.591320	0.155037	0.186710
O282	O	1.091320	0.655037	0.686710
H283	H	0.564238	0.182107	0.226232
H284	H	1.064238	0.682107	0.726232
H285	H	0.743004	0.003519	0.803212
H286	H	1.243004	0.503519	1.303212
H287	H	0.601660	0.144759	0.803209
H288	H	1.101660	0.644759	1.303209
