data_functionalizedCrystal
_audit_creation_method	'MofGen! by Chris Wilmer'
_symmetry_space_group_name_H-M	'P1'
_symmetry_Int_Tables_number	1
_symmetry_cell_setting	triclinic
loop_
_symmetry_equiv_pos_as_xyz
  x,y,z
_cell_length_a	13.897449
_cell_length_b	13.897441
_cell_length_c	17.638166
_cell_angle_alpha	78.824324
_cell_angle_beta	78.754357
_cell_angle_gamma	89.976606
loop_
_atom_site_label
_atom_site_type_symbol
_atom_site_fract_x
_atom_site_fract_y
_atom_site_fract_z
Zn1	Zn	1.396979	-0.623024	0.314654
Zn2	Zn	1.364218	-0.494318	0.446855
Zn3	Zn	1.235659	-0.461744	0.314690
Zn4	Zn	1.203008	-0.655550	0.446802
O5	O	1.299966	-0.558659	0.380750
O6	O	1.527613	-0.605971	0.332197
O7	O	1.347118	-0.355024	0.429361
O8	O	1.284434	-0.455893	0.204069
O9	O	1.503544	-0.511411	0.429325
O10	O	1.402955	-0.574385	0.204042
O11	O	1.252667	-0.331092	0.332260
O12	O	1.096348	-0.487432	0.332208
O13	O	1.228785	-0.786208	0.429235
O14	O	1.072359	-0.629821	0.429270
O15	O	1.371295	-0.762311	0.332146
O16	O	1.315458	-0.542950	0.557464
O17	O	1.197017	-0.661407	0.557425
C18	C	1.049355	-0.558622	0.380738
C19	C	0.942138	-0.558634	0.380752
C20	C	0.855067	-0.558651	0.380755
C21	C	0.745833	-0.558681	0.380760
C22	C	1.300052	-0.810235	0.380680
C23	C	1.300088	-0.917441	0.380651
C24	C	1.300128	-1.113723	0.380597
C25	C	1.300102	-1.004499	0.380629
C26	C	1.551556	-0.558696	0.380763
C27	C	1.658769	-0.558712	0.380768
C28	C	1.249165	-0.609264	0.586126
C29	C	1.227521	-0.630945	0.673987
C30	C	1.299950	-0.308048	0.380763
C31	C	1.300156	-0.200787	0.380570
C32	C	1.350992	-0.507877	0.174572
C33	C	1.372736	-0.486237	0.086712
C34	C	1.135296	-0.723128	0.797831
C35	C	1.155642	-0.702748	0.715272
C36	C	1.279079	-0.579490	0.715250
C37	C	1.258740	-0.599856	0.797810
C38	C	1.186849	-0.671677	0.839094
C39	C	1.310293	-0.548404	0.839074
C40	C	1.289959	-0.568773	0.921626
C41	C	1.218073	-0.640592	0.962916
C42	C	1.166515	-0.692045	0.921647
C43	C	1.382189	-0.476589	0.797788
C44	C	1.433742	-0.425137	0.839051
C45	C	1.413403	-0.445501	0.921606
C46	C	1.341517	-0.517320	0.962895
C47	C	1.464961	-0.394048	0.962875
C48	C	1.444627	-0.414416	1.045428
C49	C	1.321183	-0.537688	1.045448
H50	H	1.262646	-0.596177	1.079064
H51	H	1.107978	-0.750533	0.955263
H52	H	1.398745	-0.460010	0.730568
C53	C	1.544044	-0.315053	0.917455
C54	C	1.533422	-0.208204	0.928864
C55	C	1.612506	-0.129209	0.883445
C56	C	1.702212	-0.157064	0.826617
C57	C	1.712837	-0.263918	0.815205
C58	C	1.633753	-0.342913	0.860624
H59	H	1.467013	-0.187579	0.970934
H60	H	1.604640	-0.050108	0.891893
H61	H	1.760754	-0.098587	0.792995
H62	H	1.779245	-0.284543	0.773135
H63	H	1.641619	-0.422014	0.852176
H64	H	1.076759	-0.781616	0.831447
H65	H	1.492279	-0.366663	0.805428
H66	H	1.486609	-0.372522	1.079025
H67	H	1.113656	-0.744653	0.681680
H68	H	1.337616	-0.521015	0.681627
H69	H	1.201522	-0.657179	1.030136
