data_functionalizedCrystal
_audit_creation_method	'MofGen! by Chris Wilmer'
_symmetry_space_group_name_H-M	'P1'
_symmetry_Int_Tables_number	1
_symmetry_cell_setting	triclinic
loop_
_symmetry_equiv_pos_as_xyz
  x,y,z
_cell_length_a	12.827893
_cell_length_b	12.759400
_cell_length_c	12.827885
_cell_angle_alpha	89.969506
_cell_angle_beta	89.980538
_cell_angle_gamma	90.014655
loop_
_atom_site_label
_atom_site_type_symbol
_atom_site_fract_x
_atom_site_fract_y
_atom_site_fract_z
Zn1	Zn	1.597677	-0.418216	-0.590844
Zn2	Zn	1.597572	-0.593932	-0.416102
Zn3	Zn	1.422918	-0.418267	-0.416117
Zn4	Zn	1.422906	-0.593854	-0.590802
O5	O	1.510268	-0.506067	-0.503466
O6	O	1.743899	-0.441537	-0.567675
O7	O	1.574365	-0.570684	-0.269868
O8	O	1.446148	-0.271240	-0.439319
O9	O	1.743822	-0.570634	-0.439293
O10	O	1.574543	-0.271202	-0.567690
O11	O	1.446047	-0.441624	-0.269879
O12	O	1.276680	-0.441548	-0.439278
O13	O	1.446128	-0.570501	-0.737043
O14	O	1.276671	-0.570550	-0.567618
O15	O	1.574532	-0.441461	-0.737074
O16	O	1.574354	-0.740942	-0.439252
O17	O	1.446027	-0.740885	-0.567603
C18	C	1.238758	-0.506047	-0.503446
C19	C	1.122605	-0.506064	-0.503462
C20	C	1.070844	-0.569998	-0.566871
C21	C	0.950793	-0.570017	-0.566889
C22	C	1.510206	-0.779035	-0.503444
C23	C	1.510275	-0.895811	-0.503470
C24	C	1.577169	-0.950668	-0.436711
C25	C	1.577233	-1.060392	-0.436743
C26	C	1.443500	-1.060393	-0.570296
C27	C	1.443442	-0.950671	-0.570268
C28	C	1.644002	-0.895809	-0.369913
C29	C	1.710900	-0.950666	-0.303148
C30	C	1.710965	-1.060390	-0.303180
C31	C	1.644130	-1.115257	-0.369977
C32	C	1.782838	-0.506088	-0.503487
C33	C	1.898991	-0.506097	-0.503495
C34	C	1.510340	-0.505966	-0.776036
C35	C	1.510371	-0.505923	-0.892190
C36	C	1.510359	-0.232034	-0.503511
C37	C	1.510397	-0.115257	-0.503530
C38	C	1.446895	-0.442048	-0.943980
C39	C	1.446925	-0.442002	-1.064030
C40	C	1.510256	-0.506092	-0.231956
C41	C	1.510428	-0.505839	-0.115803
H42	H	0.943498	-0.451362	-0.449202
H43	H	0.906279	-0.624756	-0.621173
O44	O	1.378688	-1.113641	-0.635322
C45	C	1.401437	-1.086713	-0.739488
H46	H	1.484902	-1.056479	-0.744832
H47	H	1.392447	-1.158839	-0.791123
H48	H	1.345361	-1.023049	-0.766741
H49	H	1.564736	-0.560577	-0.936727
H50	H	1.388972	-0.906006	-0.624630
H51	H	1.644196	-1.204602	-0.370006
O52	O	1.381931	-0.376814	-0.891019
C53	C	1.322935	-0.317396	-0.962482
H54	H	1.319257	-0.360324	-1.040309
H55	H	1.240622	-0.306228	-0.930862
H56	H	1.361219	-0.237588	-0.974062
O57	O	1.575213	-0.571233	-1.062799
C58	C	1.552350	-0.675958	-1.089355
H59	H	1.512270	-0.678174	-1.168626
H60	H	1.627756	-0.723079	-1.092976
H61	H	1.498539	-0.711305	-1.027938
H62	H	1.115405	-0.624717	-0.621148
H63	H	1.392586	-0.387311	-1.108569
O64	O	1.775970	-0.897421	-0.238377
C65	C	1.880126	-0.924145	-0.261293
H66	H	1.885379	-0.954231	-0.344791
H67	H	1.931717	-0.851952	-0.252310
H68	H	1.907506	-0.987860	-0.205309
H69	H	1.078043	-0.451337	-0.449194
O70	O	1.644106	-0.789224	-0.369783
C71	C	1.717416	-0.752564	-0.296492
H72	H	1.778516	-0.815754	-0.281924
H73	H	1.757012	-0.679099	-0.328036
H74	H	1.676002	-0.733195	-0.220255
O75	O	1.776118	-1.113694	-0.238514
C76	C	1.843601	-1.177031	-0.298132
H77	H	1.849907	-1.143894	-0.380440
H78	H	1.924073	-1.178178	-0.260467
H79	H	1.811394	-1.260236	-0.301696
