data_functionalizedCrystal
_audit_creation_method	'MofGen! by Chris Wilmer'
_symmetry_space_group_name_H-M	'P1'
_symmetry_Int_Tables_number	1
_symmetry_cell_setting	triclinic
loop_
_symmetry_equiv_pos_as_xyz
  x,y,z
_cell_length_a	10.489689
_cell_length_b	8.965430
_cell_length_c	10.489741
_cell_angle_alpha	89.998489
_cell_angle_beta	95.471502
_cell_angle_gamma	89.992709
loop_
_atom_site_label
_atom_site_type_symbol
_atom_site_fract_x
_atom_site_fract_y
_atom_site_fract_z
O1	O	-1.694093	0.124149	0.179640
O2	O	-1.322889	0.124128	0.196602
O3	O	-1.516937	0.124130	0.002521
O4	O	-1.500044	0.124147	0.373720
O5	O	-1.516920	-0.123949	0.002537
O6	O	-1.322871	-0.123951	0.196618
O7	O	-1.694075	-0.123930	0.179656
Cu8	Cu	-1.508471	-0.146592	0.188138
Cu9	Cu	-1.508492	0.146790	0.188119
O10	O	-1.500026	-0.123932	0.373736
C11	C	-1.275347	0.000086	0.195343
C12	C	-1.133714	0.000077	0.191552
C13	C	-0.951326	0.000094	0.308272
C14	C	-1.043481	0.122408	0.249961
C15	C	-1.043437	-0.122179	0.249945
C16	C	-0.973529	0.122515	0.126424
C17	C	-0.973475	-0.122181	0.126425
C18	C	-1.065603	0.000163	0.068025
N19	N	-1.508466	-0.352941	0.188151
C20	C	-0.741614	0.000108	0.180935
C21	C	-0.883240	0.000101	0.184786
C22	C	-1.419471	-0.549652	0.278607
C23	C	-1.392615	-0.450195	0.163468
C24	C	-1.535265	-0.450190	0.303280
C25	C	-1.481594	-0.549593	0.072899
C26	C	-1.624295	-0.549597	0.212787
C27	C	-1.597487	-0.450185	0.097565
C28	C	-1.515652	0.000092	-0.045002
C29	C	-1.511835	0.000094	-0.186631
N30	N	-1.508508	0.353139	0.188097
C31	C	-1.388368	0.000098	-0.254748
C32	C	-1.446684	-0.122215	-0.346873
C33	C	-1.446731	0.122372	-0.346864
C34	C	-1.570202	-0.122319	-0.276891
C35	C	-1.570232	0.122377	-0.276872
C36	C	-1.628638	0.000035	-0.368970
C37	C	-1.501311	0.000110	0.421260
C38	C	-1.505128	0.000117	0.562888
H39	H	-1.074386	-0.225583	0.302223
C40	C	-1.639860	0.260136	-0.235236
C41	C	-1.643535	0.257529	-0.102180
C42	C	-1.707668	0.384410	-0.063776
H43	H	-1.595976	0.347070	-0.258808
H44	H	-1.724772	0.261024	-0.275859
H45	H	-1.558638	0.256655	-0.061571
H46	H	-1.687427	0.170623	-0.078574
H47	H	-1.792580	0.385298	-0.104399
H48	H	-1.663778	0.471335	-0.087356
H49	H	-1.710180	0.382651	0.026504
H50	H	-1.458831	-0.593074	-0.024509
H51	H	-1.730243	-0.000027	-0.418413
H52	H	-1.344141	-0.593325	0.355037
H53	H	-1.672768	-0.406788	0.020963
C54	C	-1.377080	0.260385	-0.387919
C55	C	-1.336295	0.345562	-0.279788
C56	C	-1.272135	0.472712	-0.317553
H57	H	-1.304930	0.231177	-0.430223
H58	H	-1.433390	0.318084	-0.444571
H59	H	-1.279988	0.287874	-0.223157
H60	H	-1.408420	0.374809	-0.237471
H61	H	-1.328445	0.530411	-0.374205
H62	H	-1.199991	0.443490	-0.359858
H63	H	-1.244465	0.530527	-0.244194
C64	C	-1.377116	-0.260045	-0.388476
C65	C	-1.375505	-0.258890	-0.521785
C66	C	-1.311437	-0.385837	-0.560150
H67	H	-1.291718	-0.260051	-0.349130
H68	H	-1.420166	-0.346944	-0.363435
H69	H	-1.332452	-0.172014	-0.546813
H70	H	-1.460885	-0.258906	-0.561162
H71	H	-1.354487	-0.472737	-0.535109
H72	H	-1.226043	-0.385833	-0.520797
H73	H	-1.310346	-0.385078	-0.650604
C74	C	-1.754786	-0.607796	0.240923
C75	C	-1.782325	-0.557552	0.361667
C76	C	-1.902513	-0.611155	0.387652
H77	H	-1.818328	-0.572294	0.177601
H78	H	-1.754084	-0.713756	0.239989
H79	H	-1.783038	-0.451614	0.362591
H80	H	-1.718815	-0.593050	0.425015
H81	H	-1.901811	-0.717114	0.386718
H82	H	-1.966045	-0.575649	0.324322
H83	H	-1.921209	-0.577083	0.469583
C84	C	-1.639933	-0.260179	-0.235636
C85	C	-1.746791	-0.216688	-0.174271
C86	C	-1.811042	-0.343642	-0.136232
H87	H	-1.667083	-0.318610	-0.308759
H88	H	-1.583878	-0.317359	-0.178312
H89	H	-1.802836	-0.159533	-0.231592
H90	H	-1.719677	-0.158275	-0.101133
H91	H	-1.754987	-0.400822	-0.078907
H92	H	-1.838184	-0.402064	-0.209361
H93	H	-1.883545	-0.314151	-0.094580
H94	H	-1.294680	-0.406521	0.142604
C95	C	-1.252988	-0.000373	-0.188575
C96	C	-1.188926	-0.128748	-0.223843
C97	C	-1.064223	-0.129250	-0.162896
H98	H	-1.208532	0.085536	-0.213487
H99	H	-1.256311	0.000434	-0.098384
H100	H	-1.185597	-0.129541	-0.314014
H101	H	-1.233343	-0.214678	-0.198930
H102	H	-1.067546	-0.128443	-0.072705
H103	H	-1.019780	-0.043335	-0.187812
H104	H	-1.020746	-0.216357	-0.186808
H105	H	-0.901635	0.000218	0.409777
H106	H	-1.074484	0.225814	0.302207
H107	H	-1.115061	0.000222	-0.033574
C108	C	-0.932733	0.260613	0.056715
C109	C	-1.040890	0.346296	0.017015
C110	C	-1.003357	0.473510	-0.047213
H111	H	-0.875509	0.317960	0.112689
H112	H	-0.891147	0.231432	-0.015918
H113	H	-1.082457	0.375478	0.089638
H114	H	-1.098126	0.288993	-0.038975
H115	H	-0.961770	0.444329	-0.119847
H116	H	-0.946132	0.530845	0.008769
H117	H	-1.076736	0.531654	-0.074168
H118	H	-0.942445	-0.225597	0.074226
H119	H	-1.557931	-0.406555	0.400671
