data_functionalizedCrystal
_audit_creation_method	'MofGen! by Chris Wilmer'
_symmetry_space_group_name_H-M	'P1'
_symmetry_Int_Tables_number	1
_symmetry_cell_setting	triclinic
loop_
_symmetry_equiv_pos_as_xyz
  x,y,z
_cell_length_a	12.759401
_cell_length_b	12.594516
_cell_length_c	12.759393
_cell_angle_alpha	90.028050
_cell_angle_beta	90.020938
_cell_angle_gamma	90.017577
loop_
_atom_site_label
_atom_site_type_symbol
_atom_site_fract_x
_atom_site_fract_y
_atom_site_fract_z
Zn1	Zn	1.606257	-0.423647	0.594038
Zn2	Zn	1.606143	-0.601663	0.418366
Zn3	Zn	1.430555	-0.423704	0.418373
Zn4	Zn	1.430543	-0.601589	0.594003
O5	O	1.518375	-0.512651	0.506195
O6	O	1.753263	-0.447269	0.570746
O7	O	1.582809	-0.578111	0.271345
O8	O	1.453915	-0.274751	0.441693
O9	O	1.753179	-0.578056	0.441680
O10	O	1.583002	-0.274709	0.570754
O11	O	1.453805	-0.447365	0.271351
O12	O	1.283533	-0.447293	0.441659
O13	O	1.453894	-0.577930	0.741029
O14	O	1.283524	-0.577985	0.570694
O15	O	1.582990	-0.447197	0.741054
O16	O	1.582797	-0.750599	0.441646
O17	O	1.453784	-0.750545	0.570686
C18	C	1.245407	-0.512638	0.506174
C19	C	1.128631	-0.512658	0.506190
C20	C	1.073791	-0.580812	0.573272
C21	C	0.964067	-0.580817	0.573293
C22	C	0.964031	-0.444509	0.439140
C23	C	1.073753	-0.444500	0.439125
C24	C	1.518306	-0.789192	0.506185
C25	C	1.518372	-0.907497	0.506215
C26	C	1.448195	-0.976759	0.576351
C27	C	1.422594	-1.047629	0.480484
C28	C	1.544069	-1.047427	0.602099
C29	C	1.492721	-0.976808	0.410297
C30	C	1.614240	-0.976600	0.531977
C31	C	1.588675	-1.047438	0.436044
C32	C	1.792408	-0.512665	0.506216
C33	C	1.909184	-0.512671	0.506226
C34	C	1.518453	-0.512549	0.780228
C35	C	1.518487	-0.512505	0.897005
C36	C	1.518472	-0.235030	0.506228
C37	C	1.518514	-0.116725	0.506242
C38	C	1.518357	-0.512676	0.233228
C39	C	1.518527	-0.512420	0.116451
C40	C	1.585712	-0.444422	0.951882
C41	C	1.585730	-0.444376	1.061606
C42	C	1.451294	-0.580506	1.061567
C43	C	1.451272	-0.580546	0.951844
H44	H	1.118405	-0.388994	0.384499
Cl45	Cl	1.680398	-1.095053	0.344389
Cl46	Cl	1.356411	-0.928839	0.667791
Cl47	Cl	1.366806	-0.666044	1.130515
H48	H	1.396521	-0.635987	0.907162
H49	H	1.470950	-0.945916	0.329198
Cl50	Cl	1.739282	-0.928395	0.565656
H51	H	1.565747	-1.078448	0.683176
H52	H	0.919337	-0.389018	0.384537
H53	H	1.341587	-1.078851	0.458716
Cl54	Cl	1.670206	-0.358881	0.882945
Cl55	Cl	0.895131	-0.666499	0.657632
Cl56	Cl	1.142776	-0.666492	0.657586
H57	H	1.640470	-0.388934	1.106282
