data_functionalizedCrystal
_audit_creation_method	'MofGen! by Chris Wilmer'
_symmetry_space_group_name_H-M	'P1'
_symmetry_Int_Tables_number	1
_symmetry_cell_setting	triclinic
loop_
_symmetry_equiv_pos_as_xyz
  x,y,z
_cell_length_a	19.805405
_cell_length_b	19.805407
_cell_length_c	11.169409
_cell_angle_alpha	90.023742
_cell_angle_beta	89.960143
_cell_angle_gamma	89.977440
loop_
_atom_site_label
_atom_site_type_symbol
_atom_site_fract_x
_atom_site_fract_y
_atom_site_fract_z
Zn1	Zn	-0.269478	-1.034766	-0.678605
Zn2	Zn	-0.382687	-1.034672	-0.477896
Zn3	Zn	-0.269510	-0.921572	-0.477926
Zn4	Zn	-0.382623	-0.921544	-0.678527
O5	O	-0.326074	-0.978138	-0.578239
O6	O	-0.284509	-1.129470	-0.652001
O7	O	-0.367714	-1.019641	-0.309950
O8	O	-0.174789	-0.936638	-0.504592
O9	O	-0.367683	-1.129401	-0.504541
O10	O	-0.174766	-1.019801	-0.652030
O11	O	-0.284563	-0.936547	-0.309972
O12	O	-0.284501	-0.826851	-0.504516
O13	O	-0.367573	-0.936591	-0.846487
O14	O	-0.367604	-0.826831	-0.651897
O15	O	-0.284446	-1.019775	-0.846545
O16	O	-0.477395	-1.019614	-0.504465
O17	O	-0.477348	-0.936500	-0.651868
C18	C	-0.326050	-0.802282	-0.578202
C19	C	-0.326055	-0.727050	-0.578215
C20	C	-0.282822	-0.691743	-0.655112
C21	C	-0.282824	-0.621055	-0.655114
C22	C	-0.326063	-0.585675	-0.578223
C23	C	-0.369298	-0.620987	-0.501317
C24	C	-0.369292	-0.691674	-0.501310
C25	C	-0.369323	-0.335914	-0.501341
C26	C	-0.369327	-0.265222	-0.501356
C27	C	-0.282855	-0.265294	-0.655145
C28	C	-0.282849	-0.335981	-0.655139
C29	C	-0.326081	-0.371287	-0.578228
C30	C	-0.326077	-0.447936	-0.578226
C31	C	-0.326071	-0.509028	-0.578231
C32	C	-0.501930	-0.978062	-0.578181
C33	C	-0.577162	-0.978092	-0.578196
C34	C	-0.612509	-1.021411	-0.501524
C35	C	-0.683197	-1.021440	-0.501550
C36	C	-0.718538	-0.978145	-0.578244
C37	C	-0.683187	-0.934824	-0.654924
C38	C	-0.612500	-0.934799	-0.654903
C39	C	-0.968260	-0.934923	-0.655013
C40	C	-1.038952	-0.934950	-0.655026
C41	C	-1.038957	-1.021565	-0.501660
C42	C	-0.968270	-1.021540	-0.501639
C43	C	-0.932925	-0.978221	-0.578324
C44	C	-0.856277	-0.978191	-0.578296
C45	C	-0.795185	-0.978171	-0.578267
C46	C	-0.149532	-0.978233	-0.578323
C47	C	-0.074300	-0.978274	-0.578359
C48	C	-0.325999	-0.978190	-0.891281
C49	C	-0.325967	-0.978213	-1.024681
C50	C	-0.326095	-0.154681	-0.578265
C51	C	-0.326090	-0.229913	-0.578249
C52	C	-0.326100	-0.978126	-0.266414
C53	C	-0.325942	-0.978235	-0.133014
H54	H	-0.404497	-0.720421	-0.438691
O55	O	-0.578286	-1.063531	-0.426980
C56	C	-0.585761	-1.149417	-0.274807
C57	C	-0.624599	-1.101761	-0.359186
H58	H	-0.623188	-1.180328	-0.219956
H59	H	-0.552631	-1.184827	-0.329896
H60	H	-0.552704	-1.118337	-0.212041
H61	H	-0.657693	-1.132786	-0.421969
H62	H	-0.657686	-1.066349	-0.304023
O63	O	-1.073253	-0.892967	-0.729711
C64	C	-1.094785	-0.860047	-0.933816
C65	C	-1.055910	-0.907642	-0.849381
H66	H	-1.080767	-0.871885	-1.030586
H67	H	-1.151386	-0.867509	-0.920757
H68	H	-1.080947	-0.805473	-0.912597
H69	H	-1.069691	-0.962233	-0.870548
H70	H	-0.999318	-0.900121	-0.862456
O71	O	-0.411260	-0.370309	-0.426685
C72	C	-0.449618	-0.479172	-0.358565
C73	C	-0.402074	-0.440301	-0.443153
H74	H	-0.442217	-0.535767	-0.371868
H75	H	-0.437675	-0.465301	-0.261802
H76	H	-0.504200	-0.465218	-0.379464
H77	H	-0.347475	-0.454233	-0.422362
H78	H	-0.414074	-0.454175	-0.539892
O79	O	-0.717590	-0.892861	-0.729484
C80	C	-0.797297	-0.883737	-0.891575
C81	C	-0.758392	-0.931338	-0.807195
H82	H	-0.830284	-0.914827	-0.954442
H83	H	-0.830489	-0.848384	-0.836488
H84	H	-0.759878	-0.852756	-0.946318
H85	H	-0.795762	-0.962363	-0.752434
H86	H	-0.725190	-0.966647	-0.862351
O87	O	-0.717511	-1.063683	-0.427329
C88	C	-0.797122	-1.155233	-0.411651
C89	C	-0.758325	-1.107384	-0.495786
H90	H	-0.830140	-1.190568	-0.466963
H91	H	-0.759692	-1.186215	-0.356967
H92	H	-0.830292	-1.124303	-0.348717
H93	H	-0.725155	-1.138262	-0.558793
H94	H	-0.795792	-1.076400	-0.550386
O95	O	-0.240917	-0.726139	-0.729934
C96	C	-0.231904	-0.806022	-0.891947
C97	C	-0.279442	-0.767102	-0.807307
H98	H	-0.263032	-0.839160	-0.954508
H99	H	-0.201016	-0.768672	-0.946995
H100	H	-0.196462	-0.839083	-0.836931
H101	H	-0.314925	-0.734040	-0.862230
H102	H	-0.310283	-0.804487	-0.752255
O103	O	-0.578267	-0.892656	-0.729424
C104	C	-0.585717	-0.806783	-0.881617
C105	C	-0.624568	-0.854460	-0.797252
H106	H	-0.623134	-0.775899	-0.936496
H107	H	-0.552691	-0.771349	-0.826516
H108	H	-0.552554	-0.837846	-0.944359
H109	H	-0.657767	-0.823452	-0.734494
H110	H	-0.657551	-0.889896	-0.852428
H111	H	-0.247621	-0.592310	-0.717734
O112	O	-0.411324	-0.586726	-0.426513
C113	C	-0.497129	-0.594121	-0.274029
C114	C	-0.449554	-0.633003	-0.358659
H115	H	-0.528061	-0.631519	-0.219165
H116	H	-0.466053	-0.561036	-0.211296
H117	H	-0.532529	-0.561015	-0.329044
H118	H	-0.414145	-0.666146	-0.303740
H119	H	-0.480673	-0.666046	-0.421395
H120	H	-0.404539	-0.236418	-0.438738
H121	H	-0.939498	-1.056792	-0.439184
O122	O	-0.240782	-0.370244	-0.729868
C123	C	-0.155035	-0.362853	-0.882455
C124	C	-0.202633	-0.323968	-0.797869
H125	H	-0.124190	-0.325456	-0.937474
H126	H	-0.119562	-0.395924	-0.827519
H127	H	-0.186158	-0.395973	-0.945055
H128	H	-0.171565	-0.290811	-0.735252
H129	H	-0.238109	-0.290940	-0.852881
H130	H	-1.067744	-1.056840	-0.439224
H131	H	-0.247651	-0.236539	-0.717765
H132	H	-0.939487	-0.899650	-0.717450
