data_functionalizedCrystal
_audit_creation_method	'MofGen! by Chris Wilmer'
_symmetry_space_group_name_H-M	'P1'
_symmetry_Int_Tables_number	1
_symmetry_cell_setting	triclinic
loop_
_symmetry_equiv_pos_as_xyz
  x,y,z
_cell_length_a	14.519709
_cell_length_b	23.532407
_cell_length_c	12.996460
_cell_angle_alpha	90.004951
_cell_angle_beta	90.000602
_cell_angle_gamma	83.264412
loop_
_atom_site_label
_atom_site_type_symbol
_atom_site_fract_x
_atom_site_fract_y
_atom_site_fract_z
O1	O	1.222987	0.074649	0.085444
O2	O	0.954406	0.083440	0.085477
O3	O	1.096796	-0.003850	0.085440
O4	O	1.080598	0.161940	0.085480
O5	O	1.096778	-0.003845	-0.085693
O6	O	0.954388	0.083445	-0.085657
O7	O	1.222969	0.074654	-0.085690
Cu8	Cu	1.088677	0.079050	-0.101299
Cu9	Cu	1.088698	0.079044	0.101086
O10	O	1.080579	0.161945	-0.085654
C11	C	0.920042	0.083033	-0.000086
C12	C	0.817676	0.081805	-0.000075
C13	C	0.442833	0.077286	-0.000123
C14	C	0.547126	0.078541	-0.000109
C15	C	0.630251	0.079545	-0.000098
C16	C	0.734551	0.080801	-0.000086
C17	C	1.096374	-0.025066	-0.000129
C18	C	1.095134	-0.088288	-0.000137
C19	C	1.171619	-0.487046	-0.000090
C20	C	1.170467	-0.546452	-0.000082
O21	O	1.241369	-0.582876	-0.000052
N22	N	1.085816	-0.569460	-0.000072
C23	C	1.002312	-0.533059	-0.000060
O24	O	0.930205	-0.558084	-0.000050
C25	C	1.003465	-0.473655	-0.000061
C26	C	1.088121	-0.450650	-0.000081
C27	C	1.256268	-0.464041	-0.000109
C28	C	1.257420	-0.404640	-0.000119
C29	C	1.173922	-0.368244	-0.000110
C30	C	1.089273	-0.391249	-0.000091
C31	C	0.919962	-0.437255	-0.000041
C32	C	0.921123	-0.377847	-0.000041
C33	C	1.005779	-0.354843	-0.000061
C34	C	1.006927	-0.295451	-0.000091
N35	N	1.091578	-0.272443	-0.000101
C36	C	1.175075	-0.308839	-0.000110
C37	C	0.999897	-0.657813	-0.000057
C38	C	0.998743	-0.717216	-0.000064
C39	C	1.166898	-0.730604	-0.000084
C40	C	1.168051	-0.671200	-0.000084
C41	C	1.084548	-0.634804	-0.000067
C42	C	1.177487	-0.184092	-0.000132
C43	C	1.178632	-0.124685	-0.000146
C44	C	1.010477	-0.111301	-0.000121
C45	C	1.009332	-0.170703	-0.000112
C46	C	1.092845	-0.207098	-0.000114
O47	O	0.936062	-0.258992	-0.000117
O48	O	1.247171	-0.283806	-0.000106
C49	C	1.257333	0.075061	-0.000125
C50	C	1.359700	0.076289	-0.000130
C51	C	1.081001	0.183160	-0.000082
C52	C	1.082241	0.246383	-0.000067
N53	N	1.088668	0.079054	-0.243647
C54	C	1.088673	0.079056	-0.336752
C55	C	1.088681	0.079052	-0.453558
C56	C	1.088693	0.079045	-0.546656
C57	C	1.088703	0.079042	-0.663468
N58	N	1.088714	0.079036	0.243433
H59	H	1.247572	-0.105958	-0.000165
H60	H	0.929808	-0.735940	-0.000065
H61	H	1.326355	-0.385915	-0.000131
O62	O	0.840089	-0.342412	0.000018
C63	C	0.767328	-0.244964	-0.000045
C64	C	0.859163	-0.285027	-0.000084
H65	H	0.782717	-0.198560	-0.000149
H66	H	0.725641	-0.253295	0.071601
H67	H	0.725631	-0.253384	-0.071638
H68	H	0.900934	-0.276630	0.071461
H69	H	0.900780	-0.276688	-0.071776
O70	O	0.929346	-0.075965	-0.000288
C71	C	0.785934	-0.046360	-0.088870
C72	C	0.877790	-0.086402	-0.088833
H73	H	0.744216	-0.054793	-0.160440
H74	H	0.801250	0.000060	-0.088939
H75	H	0.744302	-0.054730	-0.017205
H76	H	0.919467	-0.078084	-0.160486
H77	H	0.862408	-0.132808	-0.088711
O78	O	0.837783	-0.459658	0.000126
C79	C	0.738865	-0.518900	0.088866
C80	C	0.831981	-0.493581	0.088787
H81	H	0.734135	-0.546323	0.160551
H82	H	0.734074	-0.546419	0.017303
H83	H	0.679413	-0.482663	0.088831
H84	H	0.891486	-0.529782	0.088858
H85	H	0.836691	-0.466047	0.160344
O86	O	1.258695	-0.219358	-0.000183
C87	C	1.425601	-0.226353	-0.000155
C88	C	1.333704	-0.186349	-0.000113
H89	H	1.486270	-0.199680	-0.000077
H90	H	1.429326	-0.254493	-0.071789
H91	H	1.429234	-0.254506	0.071449
H92	H	1.330010	-0.158160	-0.071669
H93	H	1.330018	-0.158247	0.071568
H94	H	0.940399	-0.189434	-0.000124
O95	O	1.250227	-0.648788	0.000043
C96	C	1.349162	-0.589526	0.088728
C97	C	1.256053	-0.614854	0.088696
H98	H	1.353911	-0.562094	0.160408
H99	H	1.353918	-0.562013	0.017159
H100	H	1.408621	-0.625758	0.088669
H101	H	1.196540	-0.578659	0.088791
H102	H	1.251378	-0.642381	0.160259
H103	H	0.931894	-0.628182	-0.000052
H104	H	1.324266	-0.493670	-0.000112
H105	H	1.234886	-0.760249	-0.000087
