data_functionalizedCrystal
_audit_creation_method	'MofGen! by Chris Wilmer'
_symmetry_space_group_name_H-M	'P1'
_symmetry_Int_Tables_number	1
_symmetry_cell_setting	triclinic
loop_
_symmetry_equiv_pos_as_xyz
  x,y,z
_cell_length_a	16.959455
_cell_length_b	21.395361
_cell_length_c	21.395355
_cell_angle_alpha	90.021511
_cell_angle_beta	89.976580
_cell_angle_gamma	89.972345
loop_
_atom_site_label
_atom_site_type_symbol
_atom_site_fract_x
_atom_site_fract_y
_atom_site_fract_z
Zn1	Zn	1.208396	0.249562	-0.354229
Zn2	Zn	1.708396	0.749562	0.145771
Zn3	Zn	1.208273	0.354322	-0.249446
Zn4	Zn	1.708273	0.854322	0.250554
Zn5	Zn	1.076204	0.249557	-0.249468
Zn6	Zn	1.576204	0.749557	0.250532
Zn7	Zn	1.076165	0.354300	-0.354189
Zn8	Zn	1.576165	0.854300	0.145811
O9	O	1.142260	0.301935	-0.301833
O10	O	1.642260	0.801935	0.198167
O11	O	1.318991	0.263470	-0.340338
O12	O	1.818991	0.763470	0.159662
O13	O	1.190719	0.340431	-0.161771
O14	O	1.690719	0.840431	0.338229
O15	O	1.093807	0.161880	-0.263391
O16	O	1.593807	0.661880	0.236609
O17	O	1.318900	0.340437	-0.263354
O18	O	1.818900	0.840437	0.236646
O19	O	1.190928	0.161884	-0.340359
O20	O	1.690928	0.661884	0.159641
O21	O	1.093688	0.263461	-0.161787
O22	O	1.593688	0.763461	0.338213
O23	O	0.965588	0.263440	-0.263352
O24	O	1.465588	0.763440	0.236648
O25	O	1.093741	0.340400	-0.441872
O26	O	1.593741	0.840400	0.058128
O27	O	0.965559	0.340394	-0.340289
O28	O	1.465559	0.840394	0.159711
O29	O	1.190891	0.263449	-0.441902
O30	O	1.690891	0.763449	0.058098
O31	O	1.190681	0.441997	-0.263315
O32	O	1.690681	0.941997	0.236685
O33	O	1.093622	0.441981	-0.340268
O34	O	1.593622	0.941981	0.159732
C35	C	1.142155	0.464723	-0.301798
C36	C	1.642155	0.964723	0.198202
C37	C	1.142183	0.534364	-0.301804
C38	C	1.642183	1.034364	0.198196
C39	C	0.936893	0.301915	-0.301819
C40	C	1.436893	0.801915	0.198181
C41	C	0.849037	0.301921	-0.301828
C42	C	1.349037	0.801921	0.198172
C43	C	1.142325	0.301923	-0.465257
C44	C	1.642325	0.801923	0.034743
C45	C	1.142353	0.301917	-0.534898
C46	C	1.642353	0.801917	-0.034898
C47	C	0.477552	0.261832	-0.261855
C48	C	0.977552	0.761832	0.238145
C49	C	0.477571	0.342090	-0.341847
C50	C	0.977571	0.842090	0.158153
C51	C	0.560116	0.342081	-0.341843
C52	C	1.060116	0.842081	0.158157
C53	C	0.601384	0.301948	-0.301844
C54	C	1.101384	0.801948	0.198156
C55	C	0.560105	0.261823	-0.261849
C56	C	1.060105	0.761823	0.238151
C57	C	0.601401	0.382209	-0.381833
C58	C	1.101401	0.882209	0.118167
C59	C	0.683952	0.382202	-0.381830
C60	C	1.183952	0.882202	0.118170
C61	C	0.725221	0.342065	-0.341834
C62	C	1.225221	0.842065	0.158166
C63	C	0.683937	0.301939	-0.301838
C64	C	1.183937	0.801939	0.198162
C65	C	0.725205	0.261805	-0.261839
C66	C	1.225205	0.761805	0.238161
C67	C	0.683922	0.221675	-0.221845
C68	C	1.183922	0.721675	0.278155
C69	C	0.601374	0.221686	-0.221853
C70	C	1.101374	0.721686	0.278147
C71	C	0.807769	0.342054	-0.341826
C72	C	1.307769	0.842054	0.158174
C73	C	0.807758	0.261796	-0.261832
C74	C	1.307758	0.761796	0.238168
C75	C	1.348428	0.301956	-0.301848
C76	C	1.848428	0.801956	0.198152
C77	C	1.436284	0.301966	-0.301854
C78	C	1.936284	0.801966	0.198146
C79	C	1.142386	0.138512	-0.301882
C80	C	1.642386	0.638512	0.198118
C81	C	1.142440	0.068871	-0.301903
C82	C	1.642440	0.568871	0.198097
C83	C	1.192766	0.567065	-0.261776
C84	C	1.692766	1.067065	0.238224
C85	C	1.192803	0.632500	-0.261790
C86	C	1.692803	1.132500	0.238210
C87	C	1.142242	0.665232	-0.301826
C88	C	1.642242	1.165232	0.198174
C89	C	1.091655	0.632524	-0.341862
C90	C	1.591655	1.132524	0.158138
C91	C	1.091625	0.567090	-0.341852
C92	C	1.591625	1.067090	0.158148
C93	C	1.071072	0.768945	-0.306737
C94	C	1.571072	1.268945	0.193263
C95	C	1.071100	0.834378	-0.306743
C96	C	1.571100	1.334378	0.193257
C97	C	1.142334	0.867053	-0.301863
C98	C	1.642334	1.367053	0.198137
C99	C	1.213542	0.834288	-0.296962
C100	C	1.713542	1.334288	0.203038
C101	C	1.213513	0.768854	-0.296952
C102	C	1.713513	1.268854	0.203048
C103	C	1.142269	0.736185	-0.301842
C104	C	1.642269	1.236185	0.198158
C105	C	1.192962	0.970706	-0.261847
C106	C	1.692962	1.470706	0.238153
C107	C	1.193000	1.036143	-0.261865
C108	C	1.693000	1.536143	0.238135
C109	C	1.091845	1.036165	-0.341935
C110	C	1.591845	1.536165	0.158065
C111	C	1.091814	0.970730	-0.341920
C112	C	1.591814	1.470730	0.158080
C113	C	1.142371	0.938004	-0.301872
C114	C	1.642371	1.438004	0.198128
C115	C	1.192937	0.261847	-0.567628
C116	C	1.692937	0.761847	-0.067628
C117	C	1.192936	0.261820	-0.633063
C118	C	1.692936	0.761820	-0.133063
C119	C	1.142359	0.301874	-0.665766
C120	C	1.642359	0.801874	-0.165766
C121	C	1.091766	0.341947	-0.633029
C122	C	1.591766	0.841947	-0.133029
C123	C	1.091763	0.341969	-0.567594
C124	C	1.591763	0.841969	-0.067594
C125	C	1.136082	0.358290	-0.769429
C126	C	1.636082	0.858290	-0.269429
C127	C	1.136090	0.358269	-0.834862
C128	C	1.636090	0.858269	-0.334862
C129	C	1.142364	0.301808	-0.867587
C130	C	1.642364	0.801808	-0.367587
C131	C	1.148646	0.245366	-0.834871
C132	C	1.648646	0.745366	-0.334871
C133	C	1.148643	0.245387	-0.769437
C134	C	1.648643	0.745387	-0.269437
C135	C	1.142357	0.301856	-0.736719
C136	C	1.642357	0.801856	-0.236719
C137	C	1.192949	0.261706	-0.971269
C138	C	1.692949	0.761706	-0.471269
C139	C	1.192943	0.261678	-1.036706
C140	C	1.692943	0.761678	-0.536706
C141	C	1.091777	0.341810	-1.036670
C142	C	1.591777	0.841810	-0.536670
C143	C	1.091779	0.341833	-0.971235
C144	C	1.591779	0.841833	-0.471235
C145	C	1.142370	0.301781	-0.938538
C146	C	1.642370	0.801781	-0.438538
C147	C	1.142240	0.301903	-0.139046
C148	C	1.642240	0.801903	0.360954
C149	C	1.142365	0.301732	-0.069405
C150	C	1.642365	0.801732	0.430595
H151	H	0.841352	0.229111	-0.229264
H152	H	1.341352	0.729111	0.270736
Br153	Br	1.022972	0.522707	-0.396182
Br154	Br	1.522972	1.022707	0.103818
Br155	Br	1.157167	0.168735	-0.879275
Br156	Br	1.657167	0.668735	-0.379275
H157	H	0.717533	0.189002	-0.189275
H158	H	1.217533	0.689002	0.310725
Br159	Br	0.421530	0.207367	-0.207586
Br160	Br	0.921530	0.707367	0.292414
Br161	Br	0.545344	0.167228	-0.167582
Br162	Br	1.045344	0.667228	0.332418
H163	H	1.234132	0.944060	-0.229240
H164	H	1.734132	1.444060	0.270760
Br165	Br	1.023042	0.676944	-0.396203
Br166	Br	1.523042	1.176944	0.103797
Br167	Br	1.261603	0.207350	-0.926892
Br168	Br	1.761603	0.707350	-0.426892
Br169	Br	1.261592	0.207490	-0.523256
Br170	Br	1.761592	0.707490	-0.023256
H171	H	1.153755	0.199430	-0.742802
H172	H	1.653755	0.699430	-0.242802
Br173	Br	1.261458	0.676890	-0.207461
Br174	Br	1.761458	1.176890	0.292539
H175	H	1.271492	0.742178	-0.292964
H176	H	1.771492	1.242178	0.207036
Br177	Br	1.023233	1.080581	-0.396277
Br178	Br	1.523233	1.580581	0.103723
H179	H	1.013118	0.861050	-0.310727
H180	H	1.513118	1.361050	0.189273
Br181	Br	1.261570	0.207420	-0.677492
Br182	Br	1.761570	0.707420	-0.177492
Br183	Br	0.421565	0.396570	-0.396112
Br184	Br	0.921565	0.896570	0.103888
H185	H	0.567795	0.414888	-0.414393
H186	H	1.067795	0.914888	0.085607
Br187	Br	1.261611	0.207302	-1.081127
Br188	Br	1.761611	0.707302	-0.581127
H189	H	0.841378	0.374729	-0.374387
H190	H	1.341378	0.874729	0.125613
H191	H	1.050588	0.374417	-1.063297
H192	H	1.550588	0.874417	-0.563297
H193	H	1.050593	0.374466	-0.944586
H194	H	1.550593	0.874466	-0.444586
Br195	Br	1.127576	0.434869	-0.879255
Br196	Br	1.627576	0.934869	-0.379255
Br197	Br	0.974388	0.724606	-0.313363
Br198	Br	1.474388	1.224606	0.186637
H199	H	0.717557	0.414878	-0.414396
H200	H	1.217557	0.914878	0.085604
Br201	Br	1.023120	0.396303	-0.677410
Br202	Br	1.523120	0.896303	-0.177410
Br203	Br	1.023159	0.926347	-0.396246
Br204	Br	1.523159	1.426347	0.103754
H205	H	1.130762	0.404255	-0.742790
H206	H	1.630762	0.904255	-0.242790
H207	H	1.233935	0.540421	-0.229168
H208	H	1.733935	1.040421	0.270832
Br209	Br	1.310224	0.878624	-0.290329
Br210	Br	1.810224	1.378624	0.209671
H211	H	1.234196	1.062767	-0.229270
H212	H	1.734196	1.562767	0.270730
Br213	Br	1.023106	0.396352	-0.523172
Br214	Br	1.523106	0.896352	-0.023172
