data_functionalizedCrystal
_audit_creation_method	'MofGen! by Chris Wilmer'
_symmetry_space_group_name_H-M	'P1'
_symmetry_Int_Tables_number	1
_symmetry_cell_setting	triclinic
loop_
_symmetry_equiv_pos_as_xyz
  x,y,z
_cell_length_a	17.699083
_cell_length_b	8.597304
_cell_length_c	16.776229
_cell_angle_alpha	82.293521
_cell_angle_beta	89.998886
_cell_angle_gamma	84.315083
loop_
_atom_site_label
_atom_site_type_symbol
_atom_site_fract_x
_atom_site_fract_y
_atom_site_fract_z
O1	O	1.005724	0.198467	-0.079804
O2	O	1.505724	0.698467	0.420196
O3	O	0.785560	0.224288	-0.081603
O4	O	1.285560	0.724288	0.418397
O5	O	0.899974	-0.017107	-0.065009
O6	O	1.399974	0.482893	0.434991
O7	O	0.891310	0.439863	-0.096397
O8	O	1.391310	0.939863	0.403603
O9	O	0.899958	-0.017122	0.067569
O10	O	1.399958	0.482878	0.567569
O11	O	0.785544	0.224274	0.050975
O12	O	1.285544	0.724274	0.550975
O13	O	1.005709	0.198453	0.052774
O14	O	1.505709	0.698453	0.552774
Zn15	Zn	0.895624	0.211361	0.072924
Zn16	Zn	1.395624	0.711361	0.572924
Zn17	Zn	0.895644	0.211380	-0.101753
Zn18	Zn	1.395644	0.711380	0.398247
O19	O	0.891295	0.439848	0.036180
O20	O	1.391295	0.939848	0.536180
C21	C	0.757347	0.223356	-0.015254
C22	C	1.257347	0.723356	0.484746
C23	C	0.673306	0.220580	-0.015073
C24	C	1.173306	0.720580	0.484927
C25	C	0.625860	0.362274	-0.024806
C26	C	1.125860	0.862274	0.475194
C27	C	0.546895	0.359657	-0.024615
C28	C	1.046895	0.859657	0.475385
C29	C	0.515378	0.215344	-0.014698
C30	C	1.015378	0.715344	0.485302
C31	C	0.562830	0.073639	-0.004963
C32	C	1.062830	0.573639	0.495037
C33	C	0.641794	0.076258	-0.005147
C34	C	1.141794	0.576258	0.494853
C35	C	0.244379	0.063073	-0.004217
C36	C	0.744379	0.563073	0.495783
C37	C	0.165410	0.060465	-0.004036
C38	C	0.665410	0.560465	0.495964
C39	C	0.149481	0.346472	-0.023685
C40	C	0.649481	0.846472	0.476315
C41	C	0.228445	0.349091	-0.023870
C42	C	0.728445	0.849091	0.476130
C43	C	0.275890	0.207387	-0.014130
C44	C	0.775890	0.707387	0.485870
C45	C	0.361513	0.210227	-0.014335
C46	C	0.861513	0.710227	0.485665
C47	C	0.429757	0.212502	-0.014499
C48	C	0.929757	0.712502	0.485501
C49	C	0.899035	-0.075583	0.005294
C50	C	1.399035	0.424417	0.505294
C51	C	0.896252	-0.249800	0.017255
C52	C	1.396252	0.250200	0.517255
C53	C	1.033921	0.199385	-0.013577
C54	C	1.533921	0.699385	0.486423
C55	C	1.117962	0.202161	-0.013763
C56	C	1.617962	0.702161	0.486237
C57	C	0.892234	0.498324	-0.034125
C58	C	1.392234	0.998324	0.465875
C59	C	0.895017	0.672541	-0.046091
C60	C	1.395017	1.172541	0.453909
N61	N	0.895616	0.211346	0.192136
N62	N	1.395616	0.711346	0.692136
N63	N	0.895659	0.211382	-0.220964
N64	N	1.395659	0.711382	0.279036
C65	C	0.946294	0.104500	0.241198
C66	C	1.446294	0.604500	0.741198
C67	C	0.946298	0.104499	0.324650
C68	C	1.446298	0.604499	0.824650
C69	C	0.895627	0.211352	0.359039
C70	C	1.395627	0.711352	0.859039
C71	C	0.844943	0.318204	0.309971
C72	C	1.344943	0.818204	0.809971
C73	C	0.844936	0.318196	0.226520
C74	C	1.344936	0.818196	0.726520
C75	C	0.844971	0.318234	0.646516
C76	C	1.344971	0.818234	1.146516
C77	C	0.844983	0.318237	0.729972
C78	C	1.344983	0.818237	1.229972
C79	C	0.946333	0.104537	0.744645
C80	C	1.446333	0.604537	1.244645
C81	C	0.946326	0.104530	0.661195
C82	C	1.446326	0.604530	1.161195
C83	C	0.895640	0.211375	0.612135
C84	C	1.395640	0.711375	1.112135
C85	C	0.895635	0.211373	0.521647
C86	C	1.395635	0.711373	1.021647
C87	C	0.895635	0.211363	0.449525
C88	C	1.395635	0.711363	0.949525
H89	H	0.110841	0.461854	-0.031612
H90	H	0.610841	0.961854	0.468388
H91	H	0.680424	-0.039124	0.002777
H92	H	1.180424	0.460876	0.502777
H93	H	0.896086	-0.260665	-0.109479
H94	H	1.396086	0.239335	0.390521
O95	O	0.295542	-0.089764	0.006286
O96	O	0.795542	0.410236	0.506286
H97	H	0.331905	-0.095415	-0.047358
H98	H	0.831905	0.404585	0.452642
H99	H	0.895171	-0.316599	0.080647
H100	H	1.395171	0.183401	0.580647
H101	H	0.987602	0.017533	0.784600
H102	H	1.487602	0.517533	1.284600
O103	O	0.528842	-0.082020	0.005737
O104	O	1.028842	0.417980	0.505737
H105	H	0.465963	-0.060040	0.004223
H106	H	0.965963	0.439960	0.504223
O107	O	1.000944	-0.010755	0.204109
O108	O	1.500944	0.489245	0.704109
H109	H	1.036178	-0.085064	0.252249
H110	H	1.536178	0.414936	0.752249
O111	O	1.000972	-0.010713	0.377568
O112	O	1.500972	0.489287	0.877568
H113	H	1.036216	-0.084992	0.339634
H114	H	1.536216	0.415008	0.839634
H115	H	0.803682	0.405201	0.337975
H116	H	1.303682	0.905201	0.837975
O117	O	1.000973	-0.010726	0.624103
O118	O	1.500973	0.489274	1.124103
H119	H	1.036209	-0.085038	0.672241
H120	H	1.536209	0.414962	1.172241
H121	H	0.508267	0.475038	-0.032542
H122	H	1.008267	0.975038	0.467458
H123	H	0.803718	0.405253	0.757969
H124	H	1.303718	0.905253	1.257969
H125	H	0.803702	0.405234	0.606577
H126	H	1.303702	0.905234	1.106577
O127	O	0.790280	0.433443	0.173597
O128	O	1.290280	0.933443	0.673597
H129	H	0.755051	0.507759	0.211526
H130	H	1.255051	1.007759	0.711526
H131	H	0.651515	0.479790	-0.032882
H132	H	1.151515	0.979790	0.467118
H133	H	0.254101	0.466605	-0.031949
H134	H	0.754101	0.966605	0.468051
H135	H	0.139752	-0.057059	0.004041
H136	H	0.639752	0.442941	0.504041
