data_functionalizedCrystal
_audit_creation_method	'MofGen! by Chris Wilmer'
_symmetry_space_group_name_H-M	'P1'
_symmetry_Int_Tables_number	1
_symmetry_cell_setting	triclinic
loop_
_symmetry_equiv_pos_as_xyz
  x,y,z
_cell_length_a	15.625691
_cell_length_b	10.654556
_cell_length_c	9.130313
_cell_angle_alpha	89.998135
_cell_angle_beta	71.926772
_cell_angle_gamma	95.643306
loop_
_atom_site_label
_atom_site_type_symbol
_atom_site_fract_x
_atom_site_fract_y
_atom_site_fract_z
O1	O	-0.126643	1.666522	-0.054489
O2	O	-0.138700	1.300919	-0.048101
O3	O	-0.001505	1.493483	-0.120942
O4	O	-0.263839	1.473958	0.018353
O5	O	-0.001501	1.493470	0.122654
O6	O	-0.138696	1.300906	0.195496
O7	O	-0.126639	1.666509	0.189108
Cu8	Cu	-0.132667	1.483706	0.214544
Cu9	Cu	-0.132672	1.483722	-0.073537
O10	O	-0.263835	1.473945	0.261950
C11	C	-0.137812	1.254124	0.073225
C12	C	-0.135160	1.114709	0.071811
C13	C	-0.131427	0.918209	-0.062945
C14	C	-0.133914	1.049206	-0.061634
C15	C	-0.133909	1.049210	0.203948
C16	C	-0.131416	0.918217	0.202632
C17	C	-0.297427	1.474837	0.157988
C18	C	-0.397517	1.477491	0.211134
C19	C	-0.726771	1.486222	-0.277873
C20	C	-0.820822	1.488702	-0.227877
C21	C	-0.820783	1.488686	0.037664
C22	C	-0.726731	1.486201	-0.012310
C23	C	-0.679732	1.484970	-0.170080
C24	C	-0.679692	1.484949	0.095483
C25	C	-0.585647	1.482470	0.045512
C26	C	-0.538641	1.481243	-0.112252
C27	C	-0.585687	1.482492	-0.220051
C28	C	-0.726691	1.486188	0.253253
C29	C	-0.679652	1.484936	0.361046
C30	C	-0.585607	1.482449	0.311076
C31	C	-0.538601	1.481222	0.153312
C32	C	-0.538561	1.481200	0.418875
C33	C	-0.444516	1.478722	0.368904
C34	C	-0.444556	1.478743	0.103341
C35	C	0.032088	1.492591	-0.016983
C36	C	0.132178	1.489937	-0.070139
C37	C	-0.127528	1.713304	0.067779
C38	C	-0.130180	1.852719	0.069184
N39	N	-0.132664	1.483705	0.417165
N40	N	-0.132669	1.483734	-0.276161
C41	C	-0.071939	1.569000	0.461576
C42	C	-0.071939	1.569012	0.614913
C43	C	-0.193396	1.398429	0.679418
C44	C	-0.193391	1.398411	0.526081
H45	H	-0.130400	0.864894	0.310234
H46	H	-0.022490	1.638449	0.372897
H47	H	-0.022491	1.638467	0.651065
H48	H	-0.406289	1.477719	-0.025130
H49	H	-0.242840	1.328986	0.768113
C50	C	-0.872487	1.490033	0.211200
H51	H	-0.935235	1.491681	0.225526
H52	H	-0.850657	1.562793	0.254179
H53	H	-0.863477	1.416433	0.260955
C54	C	-0.260193	1.304584	0.477226
H55	H	-0.296370	1.253802	0.564056
H56	H	-0.227411	1.252253	0.400018
H57	H	-0.298022	1.349824	0.437484
H58	H	-0.130420	0.864885	-0.171608
H59	H	-0.576840	1.482215	0.547332
H60	H	-0.462064	1.479229	-0.152935
H61	H	-0.547420	1.481467	-0.348522
H62	H	-0.688504	1.485198	-0.406345
C63	C	-0.872567	1.490073	-0.346454
H64	H	-0.935308	1.491734	-0.294102
H65	H	-0.863571	1.416497	-0.405805
H66	H	-0.850753	1.562857	-0.412594
H67	H	-0.134918	1.102554	0.312599
H68	H	-0.717931	1.485943	0.489503
C69	C	-0.135292	1.121239	-0.206972
H70	H	-0.134205	1.063464	-0.286628
H71	H	-0.083789	1.181822	-0.239852
H72	H	-0.188747	1.162853	-0.184106
H73	H	-0.803268	1.488211	0.293934
H74	H	-0.406216	1.477699	0.456681
