data_functionalizedCrystal
_audit_creation_method	'MofGen! by Chris Wilmer'
_symmetry_space_group_name_H-M	'P1'
_symmetry_Int_Tables_number	1
_symmetry_cell_setting	triclinic
loop_
_symmetry_equiv_pos_as_xyz
  x,y,z
_cell_length_a	12.827893
_cell_length_b	12.759394
_cell_length_c	12.759387
_cell_angle_alpha	89.968340
_cell_angle_beta	89.979087
_cell_angle_gamma	90.014808
loop_
_atom_site_label
_atom_site_type_symbol
_atom_site_fract_x
_atom_site_fract_y
_atom_site_fract_z
Zn1	Zn	1.597691	-0.418212	-0.594010
Zn2	Zn	1.597581	-0.593929	-0.418328
Zn3	Zn	1.422927	-0.418264	-0.418346
Zn4	Zn	1.422919	-0.593849	-0.593966
O5	O	1.510279	-0.506064	-0.506162
O6	O	1.743912	-0.441532	-0.570717
O7	O	1.574371	-0.570682	-0.271309
O8	O	1.446159	-0.271236	-0.441674
O9	O	1.743832	-0.570631	-0.441644
O10	O	1.574557	-0.271198	-0.570734
O11	O	1.446053	-0.441622	-0.271322
O12	O	1.276690	-0.441545	-0.441631
O13	O	1.446145	-0.570495	-0.740993
O14	O	1.276684	-0.570546	-0.570658
O15	O	1.574549	-0.441455	-0.741025
O16	O	1.574363	-0.740939	-0.441601
O17	O	1.446039	-0.740881	-0.570641
C18	C	1.238770	-0.506043	-0.506142
C19	C	1.122616	-0.506060	-0.506159
C20	C	1.070856	-0.569994	-0.569907
C21	C	0.950806	-0.570012	-0.569925
C22	C	1.510217	-0.779031	-0.506137
C23	C	1.510285	-0.895808	-0.506161
C24	C	1.644009	-0.895815	-0.371892
C25	C	1.710898	-0.950680	-0.304770
C26	C	1.710960	-1.060401	-0.304799
C27	C	1.644127	-1.115261	-0.371959
C28	C	1.577238	-1.060396	-0.439081
C29	C	1.577181	-0.950672	-0.439043
C30	C	1.443521	-1.060389	-0.573354
C31	C	1.443453	-0.950667	-0.573321
C32	C	1.376688	-1.115249	-0.640514
C33	C	1.309792	-1.060384	-0.707632
C34	C	1.309733	-0.950656	-0.707600
C35	C	1.376563	-0.895803	-0.640444
C36	C	1.782850	-0.506085	-0.506183
C37	C	1.899003	-0.506094	-0.506192
C38	C	1.510358	-0.505961	-0.780196
C39	C	1.510392	-0.505917	-0.896973
C40	C	1.510371	-0.232030	-0.506211
C41	C	1.510410	-0.115254	-0.506232
C42	C	1.644108	-0.371556	-0.897026
C43	C	1.710981	-0.304360	-0.951914
C44	C	1.711006	-0.304322	-1.061636
C45	C	1.644150	-0.371485	-1.116472
C46	C	1.577277	-0.438681	-1.061585
C47	C	1.577261	-0.438714	-0.951860
C48	C	1.443557	-0.573034	-1.061531
C49	C	1.443535	-0.573080	-0.951809
C50	C	1.376701	-0.640197	-1.116368
C51	C	1.309832	-0.707400	-1.061480
C52	C	1.309810	-0.707436	-0.951752
C53	C	1.376663	-0.640276	-0.896922
C54	C	1.510261	-0.506090	-0.233195
C55	C	1.510430	-0.505838	-0.116419
H56	H	1.078053	-0.451334	-0.451599
H57	H	1.255397	-0.762073	-1.106136
H58	H	0.906294	-0.624752	-0.624500
H59	H	1.644104	-0.371590	-0.807685
H60	H	1.376747	-1.204590	-0.640537
H61	H	1.643953	-0.806474	-0.371849
H62	H	0.943508	-0.451359	-0.451608
H63	H	1.376515	-0.806462	-0.640404
H64	H	1.644167	-0.371438	-1.205814
H65	H	1.765432	-1.105072	-0.250147
N66	N	1.783102	-0.231932	-0.892778
H67	H	1.857758	-0.248269	-0.911897
H68	H	1.766827	-0.156884	-0.911912
H69	H	1.765315	-0.906004	-0.250091
N70	N	1.237592	-0.891483	-0.780003
H71	H	1.195269	-0.942889	-0.822549
H72	H	1.189220	-0.846036	-0.737187
H73	H	1.376656	-0.640303	-0.807580
N74	N	1.237720	-1.119550	-0.780067
H75	H	1.247914	-1.197383	-0.769905
H76	H	1.163082	-1.100453	-0.763647
N77	N	1.783132	-0.231855	-1.120849
H78	H	1.740690	-0.183149	-1.166378
H79	H	1.825468	-0.189380	-1.069404
H80	H	1.644192	-1.204602	-0.371985
N81	N	1.129871	-0.642486	-0.642187
H82	H	1.207266	-0.632199	-0.631926
H83	H	1.110829	-0.717519	-0.625718
H84	H	1.376722	-0.640157	-1.205709
N85	N	1.237667	-0.779898	-0.892553
H86	H	1.195318	-0.822431	-0.943945
H87	H	1.280162	-0.828550	-0.847022
