data_functionalizedCrystal
_audit_creation_method	'MofGen! by Chris Wilmer'
_symmetry_space_group_name_H-M	'P1'
_symmetry_Int_Tables_number	1
_symmetry_cell_setting	triclinic
loop_
_symmetry_equiv_pos_as_xyz
  x,y,z
_cell_length_a	15.500227
_cell_length_b	14.044220
_cell_length_c	14.044209
_cell_angle_alpha	93.188416
_cell_angle_beta	93.084513
_cell_angle_gamma	86.902009
loop_
_atom_site_label
_atom_site_type_symbol
_atom_site_fract_x
_atom_site_fract_y
_atom_site_fract_z
O1	O	0.071861	-1.281228	-0.226116
O2	O	0.571861	-0.781228	0.273884
O3	O	0.071883	-1.004557	-0.217809
O4	O	0.571883	-0.504557	0.282191
O5	O	0.071860	-1.138740	-0.083627
O6	O	0.571860	-0.638740	0.416373
O7	O	0.071884	-1.147045	-0.360297
O8	O	0.571884	-0.647045	0.139703
O9	O	-0.072027	-1.130595	-0.091735
O10	O	0.427973	-0.630595	0.408265
O11	O	-0.072004	-0.996412	-0.225916
O12	O	0.427996	-0.496412	0.274084
O13	O	-0.072026	-1.273082	-0.234223
O14	O	0.427974	-0.773082	0.265777
Cu15	Cu	-0.085153	-1.134003	-0.230810
Cu16	Cu	0.414847	-0.634003	0.269190
Cu17	Cu	0.085010	-1.143636	-0.221222
Cu18	Cu	0.585010	-0.643636	0.278778
O19	O	-0.072003	-1.138899	-0.368405
O20	O	0.427997	-0.638899	0.131595
C21	C	-0.000058	-0.964863	-0.218227
C22	C	0.499942	-0.464863	0.281773
C23	C	-0.000050	-0.858721	-0.207382
C24	C	0.499950	-0.358721	0.292618
N25	N	-0.204837	-1.127235	-0.237554
N26	N	0.295163	-0.627235	0.262446
C27	C	-0.000085	-1.131032	-0.052059
C28	C	0.499915	-0.631032	0.447941
C29	C	-0.000088	-1.120188	0.054084
C30	C	0.499912	-0.620188	0.554084
C31	C	-0.250123	-1.184116	-0.180721
C32	C	0.249877	-0.684116	0.319279
C33	C	-0.340695	-1.179007	-0.185831
C34	C	0.159305	-0.679007	0.314169
C35	C	-0.385979	-1.117021	-0.247779
C36	C	0.114021	-0.617021	0.252221
C37	C	-0.340687	-1.060133	-0.304614
C38	C	0.159313	-0.560133	0.195386
C39	C	-0.250116	-1.065238	-0.299499
C40	C	0.249884	-0.565238	0.200501
C41	C	-0.659443	-1.098629	-0.266191
C42	C	-0.159443	-0.598629	0.233809
C43	C	-0.750020	-1.093530	-0.271304
C44	C	-0.250020	-0.593530	0.228696
C45	C	-0.750022	-1.212404	-0.152519
C46	C	-0.250022	-0.712404	0.347481
C47	C	-0.659450	-1.217507	-0.147413
C48	C	-0.159450	-0.717507	0.352587
C49	C	-0.614165	-1.160616	-0.204245
C50	C	-0.114165	-0.660616	0.295755
C51	C	-0.478558	-1.111799	-0.253006
C52	C	0.021442	-0.611799	0.246994
C53	C	-0.521588	-1.165834	-0.199012
C54	C	-0.021588	-0.665834	0.300988
N55	N	0.204694	-1.150412	-0.214471
N56	N	0.704694	-0.650412	0.285529
C57	C	-0.000083	-1.312777	-0.233805
C58	C	0.499917	-0.812777	0.266195
C59	C	-0.000085	-1.418919	-0.244650
C60	C	0.499915	-0.918919	0.255350
C61	C	-0.000069	-0.664382	-0.187557
C62	C	0.499931	-0.164382	0.312443
C63	C	-0.000066	-0.613252	-0.264471
C64	C	0.499934	-0.113252	0.235529
C65	C	-0.000077	-0.505115	-0.253440
C66	C	0.499923	-0.005115	0.246560
C67	C	-0.000059	-0.772529	-0.198586
C68	C	0.499941	-0.272529	0.301414
C69	C	-0.000079	-1.100364	0.248422
C70	C	0.499921	-0.600364	0.748422
C71	C	-0.000084	-1.177278	0.299551
C72	C	0.499916	-0.677278	0.799551
C73	C	-0.000079	-1.166248	0.407688
C74	C	0.499921	-0.666248	0.907688
C75	C	-0.000084	-1.111393	0.140275
C76	C	0.499916	-0.611393	0.640275
C77	C	-0.000063	-1.146609	0.600027
C78	C	0.499937	-0.646609	1.100027
C79	C	-0.000075	-1.157459	0.493884
C80	C	0.499925	-0.657459	0.993884
H81	H	-0.213259	-1.234596	-0.130281
H82	H	0.286741	-0.734596	0.369719
H83	H	-0.000031	-1.251415	0.262115
H84	H	0.499969	-0.751415	0.762115
H85	H	-0.000056	-0.650691	-0.338604
H86	H	0.499944	-0.150691	0.161396
C87	C	-0.479522	-0.999533	-0.365207
C88	C	0.020478	-0.499533	0.134793
C89	C	-0.390461	-0.991998	-0.372712
C90	C	0.109539	-0.491998	0.127288
H91	H	-0.510247	-0.957473	-0.407255
H92	H	-0.010247	-0.457473	0.092745
H93	H	-0.494376	-0.982941	-0.301454
H94	H	0.005624	-0.482941	0.198546
H95	H	-0.494343	-1.063293	-0.381838
H96	H	0.005657	-0.563293	0.118162
H97	H	-0.375639	-0.928238	-0.356073
H98	H	0.124361	-0.428238	0.143927
H99	H	-0.375601	-1.008584	-0.436479
H100	H	0.124399	-0.508584	0.063521
C101	C	-0.520618	-1.277388	-0.086111
C102	C	-0.020618	-0.777388	0.413889
C103	C	-0.609677	-1.285142	-0.078819
C104	C	-0.109677	-0.785142	0.421181
H105	H	-0.489892	-1.319001	-0.043621
H106	H	0.010108	-0.819001	0.456379
H107	H	-0.506023	-1.213475	-0.069949
H108	H	-0.006023	-0.713475	0.430051
H109	H	-0.505538	-1.294447	-0.149709
H110	H	-0.005538	-0.794447	0.350291
H111	H	-0.624757	-1.268076	-0.015223
H112	H	-0.124757	-0.768076	0.484777
H113	H	-0.624278	-1.349069	-0.094975
H114	H	-0.124278	-0.849069	0.405025
H115	H	-0.000072	-1.026237	0.285859
H116	H	0.499928	-0.526237	0.785859
H117	H	-0.377567	-1.225324	-0.139553
H118	H	0.122433	-0.725324	0.360447
H119	H	-0.622579	-1.052307	-0.312467
H120	H	-0.122579	-0.552307	0.187533
C121	C	-0.000075	-0.514954	-0.095790
C122	C	0.499925	-0.014954	0.404210
C123	C	-0.000072	-0.613849	-0.087483
C124	C	0.499928	-0.113849	0.412517
H125	H	-0.000069	-0.483751	-0.034009
H126	H	0.499931	0.016249	0.465991
H127	H	-0.050250	-0.494186	-0.132307
H128	H	0.449750	0.005814	0.367693
H129	H	0.050103	-0.499856	-0.126675
H130	H	0.550103	0.000144	0.373325
H131	H	-0.050254	-0.628948	-0.056605
H132	H	0.449746	-0.128948	0.443395
H133	H	0.050108	-0.634624	-0.050952
H134	H	0.550108	-0.134624	0.449048
C135	C	-0.222199	-1.024717	-0.458428
C136	C	0.277801	-0.524717	0.041572
C137	C	-0.200332	-1.002718	-0.361974
C138	C	0.299668	-0.502718	0.138026
H139	H	-0.191459	-0.986119	-0.496995
H140	H	0.308541	-0.486119	0.003005
H141	H	-0.282611	-1.012802	-0.470335
H142	H	0.217389	-0.512802	0.029665
H143	H	-0.207340	-1.090148	-0.473369
H144	H	0.292660	-0.590148	0.026631
H145	H	-0.215197	-0.937287	-0.347031
H146	H	0.284803	-0.437287	0.152969
H147	H	-0.139906	-1.014625	-0.350062
H148	H	0.360094	-0.514625	0.149938
C149	C	-0.777924	-1.252918	0.006409
C150	C	-0.277924	-0.752918	0.506409
C151	C	-0.799802	-1.274923	-0.090041
C152	C	-0.299802	-0.774923	0.409959
H153	H	-0.808653	-1.291518	0.044984
H154	H	-0.308653	-0.791518	0.544984
H155	H	-0.792779	-1.187495	0.021349
H156	H	-0.292779	-0.687495	0.521349
H157	H	-0.717502	-1.264834	0.018307
H158	H	-0.217502	-0.764834	0.518307
H159	H	-0.860223	-1.263000	-0.101940
H160	H	-0.360223	-0.763000	0.398060
H161	H	-0.784952	-1.340362	-0.104986
H162	H	-0.284952	-0.840362	0.395014
H163	H	-0.786886	-1.043051	-0.321753
H164	H	-0.286886	-0.543051	0.178247
H165	H	-0.515436	-1.061330	-0.303447
H166	H	-0.015436	-0.561330	0.196553
H167	H	-0.484715	-1.216299	-0.148570
H168	H	0.015285	-0.716299	0.351430
