data_functionalizedCrystal
_audit_creation_method	'MofGen! by Chris Wilmer'
_symmetry_space_group_name_H-M	'P1'
_symmetry_Int_Tables_number	1
_symmetry_cell_setting	triclinic
loop_
_symmetry_equiv_pos_as_xyz
  x,y,z
_cell_length_a	23.196402
_cell_length_b	23.196402
_cell_length_c	14.560438
_cell_angle_alpha	89.999423
_cell_angle_beta	60.001682
_cell_angle_gamma	60.000268
loop_
_atom_site_label
_atom_site_type_symbol
_atom_site_fract_x
_atom_site_fract_y
_atom_site_fract_z
Zr1	Zr	0.631008	0.555377	-0.120514
O2	O	0.751273	0.463328	-0.267149
O3	O	0.510742	0.583593	-0.075568
O4	O	0.631010	0.583593	-0.267164
O5	O	0.631004	0.463330	0.075588
O6	O	0.631011	0.678463	-0.267169
O7	O	0.631006	0.463328	-0.075553
O8	O	0.415875	0.678463	0.075561
O9	O	0.846140	0.463331	-0.267143
O10	O	0.560210	0.666430	-0.056396
O11	O	0.560208	0.595631	0.056403
O12	O	0.701807	0.595632	-0.169177
O13	O	0.701805	0.524833	-0.056378
Zr14	Zr	0.631007	0.706688	0.120530
Zr15	Zr	0.631010	0.706684	-0.120522
Zr16	Zr	0.631005	0.555381	0.120538
Zr17	Zr	0.782310	0.555381	-0.120503
Zr18	Zr	0.479705	0.706683	0.120520
O19	O	0.751273	0.678472	0.075584
O20	O	0.751276	0.678466	-0.267161
O21	O	0.751269	0.463333	0.075596
O22	O	0.510742	0.798737	0.267165
O23	O	0.510746	0.798731	-0.075580
O24	O	0.510739	0.583598	0.267177
O25	O	0.631011	0.798735	-0.075572
O26	O	0.631005	0.678472	0.267180
O27	O	0.631004	0.583602	0.267185
O28	O	0.631009	0.798737	0.075569
O29	O	0.846142	0.583599	-0.267149
O30	O	0.415873	0.678466	0.267166
O31	O	0.415875	0.798734	0.267159
O32	O	0.415877	0.798731	0.075555
O33	O	0.846138	0.463334	-0.075538
O34	O	0.846140	0.583602	-0.075545
O35	O	0.560208	0.666433	0.169193
O36	O	0.560210	0.737232	0.056395
O37	O	0.701807	0.666434	-0.056386
O38	O	0.701805	0.595635	0.056412
C39	C	0.441751	0.631027	-0.000005
C40	C	0.377519	0.631025	-0.000009
C41	C	0.347350	0.667977	-0.058893
C42	C	0.286989	0.667984	-0.058884
C43	C	0.256811	0.631025	-0.000006
C44	C	0.286984	0.594072	0.058891
C45	C	0.347339	0.594073	0.058889
C46	C	0.194781	0.569121	-0.008406
C47	C	0.134432	0.569119	-0.008412
C48	C	0.070656	0.631026	0.000005
C49	C	0.067246	0.692935	0.008406
C50	C	0.127600	0.692935	0.008405
C51	C	0.191367	0.631022	0.000003
C52	C	-0.024964	0.667988	-0.058872
C53	C	-0.085330	0.667997	-0.058854
C54	C	-0.085327	0.594079	0.058913
C55	C	-0.024969	0.594077	0.058903
C56	C	0.005212	0.631030	0.000005
C57	C	0.631005	0.441771	0.000019
C58	C	0.631004	0.377537	0.000022
C59	C	0.557094	0.384318	0.058882
C60	C	0.557093	0.323964	0.058887
C61	C	0.631006	0.256829	0.000010
C62	C	0.704925	0.250051	-0.058853
C63	C	0.704924	0.310405	-0.058846
C64	C	0.687634	0.132900	-0.098618
C65	C	0.687632	0.072548	-0.098627
C66	C	0.631012	0.070675	-0.000008
C67	C	0.574380	0.129168	0.098620
C68	C	0.574379	0.189522	0.098626
C69	C	0.631015	0.191381	-0.000003
C70	C	0.557096	0.012015	0.058862
C71	C	0.557098	-0.048341	0.058870
C72	C	0.704932	-0.122255	-0.058880
C73	C	0.704928	-0.061898	-0.058877
C74	C	0.631008	0.005235	-0.000008
C75	C	0.820264	0.631038	0.000021
C76	C	0.884496	0.631039	0.000025
C77	C	0.631011	0.631028	-0.301511
C78	C	0.631012	0.631026	-0.403844
C79	C	0.631010	0.820294	-0.000002
C80	C	0.631011	0.884527	-0.000006
C81	C	0.704923	0.594071	-0.510791
C82	C	0.704919	0.594079	-0.606940
C83	C	0.557087	0.667999	-0.489181
C84	C	0.557091	0.667994	-0.393035
C85	C	0.631004	0.631037	0.301528
C86	C	0.631003	0.631039	0.403861
C87	C	0.441754	0.820289	-0.000015
C88	C	0.377523	0.884521	-0.000023
C89	C	0.441748	0.631032	0.301515
C90	C	0.377515	0.631032	0.403843
C91	C	0.441751	0.820294	0.301504
C92	C	0.377519	0.884527	0.403829
C93	C	0.820264	0.441771	-0.301488
C94	C	0.884496	0.377538	-0.403813
C95	C	0.820261	0.441776	0.000032
C96	C	0.884492	0.377544	0.000040
C97	C	0.820267	0.631033	-0.301498
C98	C	0.884500	0.631033	-0.403827
C99	C	0.347360	0.877726	-0.058913
C100	C	0.287017	0.938073	-0.058943
C101	C	0.256834	1.005214	-0.000076
C102	C	0.287003	1.012006	0.058815
C103	C	0.347349	0.951660	0.058838
C104	C	0.347351	0.667990	0.510784
C105	C	0.287006	0.667987	0.606941
C106	C	0.256822	0.631030	0.596156
C107	C	0.286992	0.594068	0.489205
C108	C	0.347340	0.594067	0.393049
C109	C	0.347356	0.951654	0.393002
C110	C	0.287012	1.012014	0.489138
C111	C	0.256827	1.005245	0.596100
C112	C	0.286996	0.938111	0.606925
C113	C	0.347344	0.877753	0.510790
C114	C	0.914666	0.310411	-0.392986
C115	C	0.975029	0.250051	-0.489122
C116	C	1.005217	0.256820	-0.596084
C117	C	0.975044	0.323954	-0.606908
C118	C	0.914686	0.384312	-0.510773
C119	C	0.914661	0.384338	0.058919
C120	C	0.975021	0.323992	0.058922
C121	C	1.005207	0.256851	0.000052
C122	C	0.975034	0.250059	-0.058834
C123	C	0.914679	0.310405	-0.058844
C124	C	0.914665	0.667997	-0.393006
C125	C	0.975010	0.668011	-0.489145
C126	C	1.005194	0.631056	-0.596105
C127	C	0.975024	0.594091	-0.606923
C128	C	0.914675	0.594082	-0.510785
H129	H	0.262421	0.698075	-0.106836
Cl130	Cl	-0.123259	0.547616	0.132931
Cl131	Cl	0.464170	0.332484	0.132881
H132	H	0.733742	0.024928	-0.178937
H133	H	0.371894	0.823097	0.519621
Cl134	Cl	0.797849	-0.070423	-0.132884
Cl135	Cl	1.081065	0.631072	-0.716954
H136	H	0.207695	1.054346	-0.000103
H137	H	0.246717	0.518702	-0.015283
Cl138	Cl	1.013000	0.332451	-0.741384
H139	H	0.262455	1.066672	0.480305
H140	H	0.999578	0.329536	0.106879
H141	H	1.054351	0.207719	0.000069
H142	H	0.890117	0.304863	-0.106787
H143	H	0.262460	0.932529	-0.106899
Cl144	Cl	0.797851	0.547603	-0.524383
H145	H	0.124818	0.743343	0.015248
Cl146	Cl	0.180953	0.631040	0.717050
Cl147	Cl	0.180960	1.081132	0.716946
Cl148	Cl	1.012945	0.165662	-0.475488
Cl149	Cl	0.249041	0.547617	0.132918
Cl150	Cl	0.385249	0.547605	0.258614
Cl151	Cl	1.012986	0.547629	-0.741395
Cl152	Cl	0.249036	0.547612	0.475665
H153	H	0.137218	0.518709	-0.015258
H154	H	0.262448	0.698089	0.694016
Cl155	Cl	0.464164	0.714464	-0.475603
H156	H	0.890098	0.698090	-0.305923
Cl157	Cl	0.249046	1.096417	0.132820
H158	H	0.765104	0.563987	-0.694018
H159	H	1.054364	0.207666	-0.674354
Cl160	Cl	0.464167	0.714454	-0.258577
Cl161	Cl	0.249040	0.929614	0.741400
Cl162	Cl	0.385295	0.960182	0.258548
Cl163	Cl	0.876769	0.547599	-0.524409
Cl164	Cl	0.385256	0.960214	0.132887
Cl165	Cl	0.758823	0.135244	-0.222607
H166	H	0.890091	0.304886	-0.305901
Cl167	Cl	0.876760	0.468698	-0.524404
Cl168	Cl	0.876731	0.468736	0.132930
Cl169	Cl	1.012986	0.165648	-0.132832
H170	H	0.496902	0.438977	0.106810
Cl171	Cl	0.385281	0.714458	0.524372
H172	H	0.371934	0.823063	-0.106863
Cl173	Cl	1.012931	0.714481	-0.475518
H174	H	0.015313	0.743348	0.015274
Cl175	Cl	0.385287	0.714434	-0.132933
H176	H	-0.109897	0.698091	-0.106800
Cl177	Cl	0.012963	0.547619	0.132930
Cl178	Cl	0.385268	0.547615	0.132921
Cl179	Cl	0.503194	0.263049	0.222611
Cl180	Cl	0.012974	0.714448	-0.132904
H181	H	0.528262	0.127653	0.178918
Cl182	Cl	0.464173	-0.039813	0.132886
Cl183	Cl	0.464169	0.096412	0.132873
Cl184	Cl	0.797845	0.165654	-0.132863
Cl185	Cl	0.797848	0.301879	-0.132849
Cl186	Cl	0.797853	-0.206648	-0.132889
