data_functionalizedCrystal
_audit_creation_method	'MofGen! by Chris Wilmer'
_symmetry_space_group_name_H-M	'P1'
_symmetry_Int_Tables_number	1
_symmetry_cell_setting	triclinic
loop_
_symmetry_equiv_pos_as_xyz
  x,y,z
_cell_length_a	30.570087
_cell_length_b	30.570502
_cell_length_c	30.570330
_cell_angle_alpha	59.999237
_cell_angle_beta	90.000723
_cell_angle_gamma	60.000156
loop_
_atom_site_label
_atom_site_type_symbol
_atom_site_fract_x
_atom_site_fract_y
_atom_site_fract_z
O1	O	-0.372813	-0.313117	0.013002
O2	O	-0.309208	-0.223536	-0.012960
O3	O	-0.309201	-0.313112	0.076614
O4	O	-0.372821	-0.223541	-0.076572
O5	O	-0.236444	-0.385864	0.076614
O6	O	-0.236451	-0.296288	-0.012961
O7	O	-0.300056	-0.385868	0.013002
Cu8	Cu	-0.261611	-0.347721	0.000021
Cu9	Cu	-0.347654	-0.261684	0.000021
O10	O	-0.300064	-0.296292	-0.076572
C11	C	-0.188630	-0.161536	-0.027154
C12	C	-0.215627	-0.192240	-0.023442
C13	C	-0.215074	-0.108522	-0.027523
C14	C	-0.109413	-0.161544	-0.027150
C15	C	-0.051710	-0.192256	-0.023434
C16	C	-0.135977	-0.108530	-0.027519
C17	C	-0.188623	-0.082329	-0.027151
C18	C	-0.215613	-0.028344	-0.023435
C19	C	-0.135984	-0.187617	-0.027523
C20	C	-0.237418	0.015270	-0.020431
C21	C	-0.237437	-0.217046	-0.020442
C22	C	-0.005092	-0.217068	-0.020430
C23	C	-0.264774	0.069986	-0.016664
C24	C	-0.264800	-0.248166	-0.016679
C25	C	0.053392	-0.248197	-0.016663
C26	C	-0.528801	-0.481188	0.031520
C27	C	-0.502231	-0.534204	0.031891
C28	C	-0.449591	-0.481182	0.031517
C29	C	-0.423141	-0.534197	0.031888
C30	C	-0.449586	-0.560398	0.031520
C31	C	-0.502236	-0.455108	0.031889
C32	C	-0.614417	-0.395373	0.025093
C33	C	-0.668514	-0.366213	0.021037
C34	C	-0.695644	-0.391248	0.019003
C35	C	-0.754301	-0.359632	0.014603
C36	C	-0.668681	-0.445447	0.021030
C37	C	-0.614585	-0.474607	0.025088
C38	C	-0.587456	-0.449568	0.027118
C39	C	-0.449787	-0.639586	0.025094
C40	C	-0.424850	-0.689627	0.021038
C41	C	-0.372687	-0.714720	0.019001
C42	C	-0.345647	-0.768975	0.014600
C43	C	-0.345451	-0.689782	0.021026
C44	C	-0.370385	-0.639746	0.025084
C45	C	-0.422553	-0.614648	0.027116
C46	C	-0.449802	-0.395360	0.025087
C47	C	-0.424873	-0.366189	0.021021
C48	C	-0.372709	-0.391218	0.018984
C49	C	-0.345674	-0.359595	0.014580
C50	C	-0.345470	-0.445412	0.021009
C51	C	-0.370398	-0.474583	0.025072
C52	C	-0.422564	-0.449555	0.027111
C53	C	-0.449614	-0.128246	-0.400629
C54	C	-0.502262	-0.075233	-0.427078
C55	C	-0.449615	-0.128246	-0.321417
C56	C	-0.502262	-0.075232	-0.347986
C57	C	-0.528831	-0.049036	-0.400631
C58	C	-0.423166	-0.154322	-0.347984
C59	C	-0.370220	-0.214063	-0.400422
C60	C	-0.345112	-0.243226	-0.425356
C61	C	-0.372180	-0.218195	-0.477520
C62	C	-0.344961	-0.249814	-0.504556
C63	C	-0.424355	-0.163997	-0.504759
C64	C	-0.449461	-0.134835	-0.479828
C65	C	-0.422393	-0.159870	-0.427659
C66	C	-0.614446	0.030146	-0.480023
C67	C	-0.668546	0.080184	-0.505129
C68	C	-0.695679	0.105280	-0.478063
C69	C	-0.754338	0.159533	-0.505281
C70	C	-0.668717	0.080347	-0.425889
C71	C	-0.614620	0.030313	-0.400785
C72	C	-0.587487	0.005212	-0.427852
C73	C	-0.370221	-0.214062	-0.235803
C74	C	-0.345116	-0.243228	-0.181702
C75	C	-0.372185	-0.218197	-0.154571
C76	C	-0.344966	-0.249816	-0.095914
C77	C	-0.424358	-0.164004	-0.181530
C78	C	-0.449465	-0.134837	-0.235628
C79	C	-0.422394	-0.159869	-0.262762
O80	O	0.226352	-0.385902	0.013017
O81	O	0.073165	-0.296321	-0.012944
O82	O	0.162737	-0.385899	0.076629
O83	O	0.136780	-0.296323	-0.076557
O84	O	0.162744	-0.313150	0.076633
O85	O	0.073172	-0.223571	-0.012941
O86	O	0.226358	-0.313153	0.013020
Cu87	Cu	0.149766	-0.261719	0.000040
Cu88	Cu	0.149758	-0.347754	0.000036
O89	O	0.136786	-0.223574	-0.076553
O90	O	-0.300029	0.213262	0.013018
O91	O	-0.236422	0.086039	-0.012943
O92	O	-0.236419	0.086034	0.076630
O93	O	-0.300032	0.213268	-0.076556
O94	O	-0.309178	0.086041	0.076627
O95	O	-0.309181	0.086046	-0.012946
O96	O	-0.372787	0.213269	0.013014
Cu97	Cu	-0.347628	0.149658	0.000033
Cu98	Cu	-0.261582	0.149650	0.000038
O99	O	-0.372791	0.213274	-0.076559
O100	O	-0.926871	0.304514	-0.541043
O101	O	-0.773683	0.177293	-0.477426
O102	O	-0.863251	0.177286	-0.477424
O103	O	-0.837304	0.304521	-0.541044
O104	O	-0.863249	0.177284	-0.550178
O105	O	-0.773681	0.177291	-0.550180
O106	O	-0.926870	0.304512	-0.613796
Cu107	Cu	-0.850275	0.240902	-0.588631
Cu108	Cu	-0.850277	0.240904	-0.502591
O109	O	-0.837302	0.304520	-0.613798
O110	O	-0.309201	-0.313113	-0.613784
O111	O	-0.372818	-0.223544	-0.550172
O112	O	-0.372812	-0.313118	-0.550169
O113	O	-0.309207	-0.223538	-0.613788
O114	O	-0.300054	-0.385871	-0.477413
O115	O	-0.300060	-0.296296	-0.477417
O116	O	-0.236443	-0.385865	-0.541029
Cu117	Cu	-0.261608	-0.347724	-0.502580
Cu118	Cu	-0.347653	-0.261685	-0.588621
O119	O	-0.236449	-0.296291	-0.541032
C120	C	-0.109414	-0.527087	0.338407
C121	C	-0.051710	-0.581072	0.365401
C122	C	-0.135982	-0.500890	0.364854
C123	C	-0.188630	-0.447877	0.259194
C124	C	-0.215624	-0.417169	0.201492
C125	C	-0.215078	-0.421800	0.285761
C126	C	-0.188629	-0.447877	0.338406
C127	C	-0.215624	-0.417170	0.365399
C128	C	-0.135982	-0.500890	0.285762
C129	C	-0.237433	-0.392361	0.387206
C130	C	-0.005091	-0.624685	0.387208
C131	C	-0.237433	-0.392360	0.154874
C132	C	-0.264793	-0.361237	0.414565
C133	C	0.053394	-0.679400	0.414568
C134	C	-0.264793	-0.361236	0.096391
C135	C	0.176946	-0.447922	0.338425
C136	C	0.173235	-0.417217	0.365420
C137	C	0.177313	-0.500935	0.364872
C138	C	0.176943	-0.447918	0.259211
C139	C	0.173228	-0.417209	0.201509
C140	C	0.177310	-0.500931	0.285778
C141	C	0.176940	-0.527129	0.338423
C142	C	0.173221	-0.581113	0.365415
C143	C	0.177316	-0.421844	0.285780
C144	C	0.170216	-0.624726	0.387222
C145	C	0.170236	-0.392409	0.387229
C146	C	0.170226	-0.392399	0.154891
C147	C	0.166446	-0.679441	0.414579
C148	C	0.166474	-0.361287	0.414589
C149	C	0.166460	-0.361273	0.096408
C150	C	-0.188604	-0.161579	0.338412
C151	C	-0.215599	-0.192286	0.365402
C152	C	-0.135956	-0.187664	0.364861
C153	C	-0.188604	-0.082361	0.259204
C154	C	-0.215599	-0.028368	0.201504
C155	C	-0.135956	-0.108566	0.285773
C156	C	-0.109387	-0.161587	0.338416
C157	C	-0.051683	-0.192302	0.365410
C158	C	-0.215053	-0.108558	0.285769
C159	C	-0.005064	-0.217117	0.387219
C160	C	-0.237408	-0.217095	0.387207
C161	C	-0.237408	0.015253	0.154887
C162	C	0.053422	-0.248248	0.414578
C163	C	-0.264769	-0.248218	0.414562
C164	C	-0.264769	0.069978	0.096405
C165	C	0.118279	-0.049060	-0.400613
C166	C	0.117906	-0.075255	-0.427062
C167	C	0.118276	-0.128271	-0.321401
C168	C	0.117903	-0.154346	-0.347969
C169	C	0.118273	-0.128268	-0.400615
C170	C	0.117909	-0.075258	-0.347968
C171	C	0.124714	0.030120	-0.400406
C172	C	0.128775	0.080158	-0.425340
C173	C	0.130810	0.105255	-0.477504
C174	C	0.135216	0.159507	-0.504540
C175	C	0.128781	0.080323	-0.504743
C176	C	0.124718	0.030289	-0.479812
C177	C	0.122687	0.005188	-0.427643
C178	C	0.124697	-0.134488	-0.480007
C179	C	0.128751	-0.163477	-0.505113
C180	C	0.130783	-0.217675	-0.478047
C181	C	0.135181	-0.249111	-0.505265
C182	C	0.128757	-0.242887	-0.425873
C183	C	0.124701	-0.213897	-0.400769
C184	C	0.122673	-0.159700	-0.427836
C185	C	0.124707	-0.134496	-0.235786
C186	C	0.128772	-0.163493	-0.181686
C187	C	0.130804	-0.217690	-0.154554
C188	C	0.135206	-0.249130	-0.095897
C189	C	0.128776	-0.242900	-0.181514
C190	C	0.124715	-0.213908	-0.235612
C191	C	0.122680	-0.159706	-0.262746
O192	O	0.136789	-0.296342	0.522604
O193	O	0.162754	-0.385917	0.458995
O194	O	0.073179	-0.296342	0.458986
O195	O	0.226364	-0.385917	0.522613
O196	O	0.073182	-0.223589	0.386232
O197	O	0.162757	-0.313164	0.386241
O198	O	0.136793	-0.223589	0.449850
Cu199	Cu	0.149775	-0.261734	0.411403
Cu200	Cu	0.149771	-0.347772	0.497442
O201	O	0.226368	-0.313164	0.449859
C202	C	-0.528804	0.518862	-0.400609
C203	C	-0.502236	0.544940	-0.427054
C204	C	-0.449588	0.439638	-0.321396
C205	C	-0.423140	0.465836	-0.347961
C206	C	-0.449589	0.518857	-0.400605
C207	C	-0.502235	0.465841	-0.347966
C208	C	-0.614420	0.525089	-0.400407
C209	C	-0.668520	0.554086	-0.425343
C210	C	-0.695653	0.608291	-0.477505
C211	C	-0.754312	0.639736	-0.504544
C212	C	-0.668692	0.633504	-0.504741
C213	C	-0.614594	0.604507	-0.479808
C214	C	-0.587461	0.550302	-0.427641
C215	C	-0.449795	0.604682	-0.479990
C216	C	-0.424859	0.633844	-0.505092
C217	C	-0.372692	0.608807	-0.478023
C218	C	-0.345654	0.640426	-0.505237
C219	C	-0.345452	0.554601	-0.425851
C220	C	-0.370386	0.525439	-0.400751
C221	C	-0.422557	0.550481	-0.427821
C222	C	-0.449792	0.360445	-0.235787
C223	C	-0.424858	0.310402	-0.181688
C224	C	-0.372692	0.285300	-0.154554
C225	C	-0.345653	0.231038	-0.095899
C226	C	-0.345455	0.310235	-0.181510
C227	C	-0.370387	0.360278	-0.235607
C228	C	-0.422556	0.385380	-0.262743
H229	H	-0.114658	-0.230276	-0.028118
Br230	Br	0.178311	-0.350743	0.250228
H231	H	-0.348217	-0.518710	0.026718
H232	H	0.177901	-0.522854	0.408125
Br233	Br	-0.578001	0.638716	-0.516768
Br234	Br	-0.287159	-0.350668	0.250195
Br235	Br	-0.520598	-0.361394	0.027858
H236	H	-0.447039	0.290102	-0.159746
Br237	Br	-0.100399	-0.072030	0.250225
Br238	Br	-0.274650	-0.723845	0.018265
Br239	Br	-0.100434	-0.537434	0.250211
H240	H	-0.114629	-0.230325	0.408117
Br241	Br	-0.287147	-0.072011	0.250211
H242	H	0.117304	-0.197004	-0.326638
H243	H	-0.302632	-0.287351	-0.403174
H244	H	-0.592668	0.010018	-0.358308
Br245	Br	-0.577599	-0.361390	0.027849
H246	H	-0.302993	-0.465790	0.019346
Br247	Br	0.178293	-0.537469	0.250225
H248	H	-0.348210	-0.619441	0.026729
Br249	Br	-0.520598	0.638668	-0.516729
Br250	Br	-0.100436	-0.537439	0.436953
Br251	Br	-0.520273	-0.061292	-0.272216
H252	H	-0.592633	-0.518737	0.026739
Br253	Br	0.121956	-0.003944	-0.329605
H254	H	0.117309	-0.053326	-0.470318
H255	H	-0.492264	-0.619156	0.026752
H256	H	-0.114644	-0.086607	-0.028117
H257	H	-0.302636	-0.287353	-0.159757
Br258	Br	-0.705104	-0.292662	0.018285
H259	H	-0.523561	-0.556129	0.032487
Br260	Br	-0.351048	-0.570736	0.032875
H261	H	0.117359	-0.053360	-0.326625
Br262	Br	-0.705130	0.114023	-0.575935
H263	H	0.130417	-0.142959	-0.159741
H264	H	-0.447043	0.677977	-0.547571
H265	H	-0.523571	-0.412445	0.032480
H266	H	-0.690779	-0.465828	0.019373
H267	H	0.123048	-0.090360	-0.257877
Br268	Br	-0.537820	-0.038699	-0.499168
H269	H	0.123074	0.009985	-0.501988
H270	H	0.130426	0.100453	-0.403158
Br271	Br	-0.461841	-0.292640	0.018272
H272	H	0.130439	0.100764	-0.547222
Br273	Br	0.121943	-0.060932	-0.516743
H274	H	0.130399	-0.142942	-0.547594
Br275	Br	-0.274648	0.520618	-0.389115
Br276	Br	0.131510	-0.316444	-0.389140
H277	H	0.123048	-0.234425	-0.358290
H278	H	-0.348207	0.380579	-0.257553
H279	H	-0.302976	0.289795	-0.159412
H280	H	-0.379909	-0.196980	-0.326656
Br281	Br	-0.461813	-0.723469	0.018295
Br282	Br	0.121971	-0.248125	-0.272198
H283	H	0.130434	-0.287036	-0.159418
H284	H	-0.379883	0.443905	-0.326627
Br285	Br	-0.537783	0.616043	-0.499149
Br286	Br	-0.537788	0.429300	-0.312415
Br287	Br	-0.333482	-0.248040	-0.329622
H288	H	-0.492270	0.380879	-0.257880
H289	H	-0.348174	-0.234446	-0.257893
Br290	Br	-0.287175	-0.071961	-0.028536
Br291	Br	-0.333421	0.451875	-0.329953
Br292	Br	-0.577596	0.451521	-0.329612
Br293	Br	-0.537815	-0.038684	-0.312440
H294	H	-0.690467	0.533553	-0.403165
H295	H	-0.690792	0.677645	-0.547218
H296	H	-0.446392	-0.143619	-0.547238
H297	H	-0.491939	-0.090703	-0.502010
H298	H	-0.592355	0.009714	-0.502067
H299	H	-0.446401	-0.143624	-0.159434
Br300	Br	-0.705545	0.114414	-0.389157
