data_functionalizedCrystal
_audit_creation_method	'MofGen! by Chris Wilmer'
_symmetry_space_group_name_H-M	'P1'
_symmetry_Int_Tables_number	1
_symmetry_cell_setting	triclinic
loop_
_symmetry_equiv_pos_as_xyz
  x,y,z
_cell_length_a	10.654546
_cell_length_b	12.837942
_cell_length_c	9.730223
_cell_angle_alpha	89.998888
_cell_angle_beta	89.998853
_cell_angle_gamma	89.656212
loop_
_atom_site_label
_atom_site_type_symbol
_atom_site_fract_x
_atom_site_fract_y
_atom_site_fract_z
O1	O	1.683736	0.145701	-0.114320
O2	O	1.319772	0.159588	-0.114316
O3	O	1.493684	0.001684	-0.114309
O4	O	1.509825	0.303605	-0.114326
O5	O	1.493682	0.001688	0.114271
O6	O	1.319771	0.159592	0.114264
O7	O	1.683734	0.145705	0.114260
Zn8	Zn	1.501752	0.152649	0.150554
Zn9	Zn	1.501755	0.152644	-0.150610
O10	O	1.509823	0.303609	0.114254
C11	C	1.272862	0.158571	-0.000025
C12	C	1.133086	0.155523	-0.000024
C13	C	1.067435	0.154078	-0.124629
C14	C	0.936101	0.151206	-0.124640
C15	C	0.936081	0.151218	0.124571
C16	C	1.067412	0.154098	0.124580
C17	C	1.067446	0.154066	-0.268509
C18	C	0.936112	0.151194	-0.268520
C19	C	1.488230	-0.036974	-0.000020
C20	C	1.471968	-0.152168	-0.000022
C21	C	1.667472	-0.391722	-0.000053
C22	C	1.652198	-0.499958	-0.000055
C23	C	1.426146	-0.476876	-0.000038
C24	C	1.441421	-0.368641	-0.000036
C25	C	1.562087	-0.326068	-0.000041
C26	C	1.577360	-0.217831	-0.000029
C27	C	1.351310	-0.194751	-0.000023
C28	C	1.336036	-0.302986	-0.000025
C29	C	1.730644	0.146722	-0.000033
C30	C	1.870421	0.149770	-0.000044
C31	C	1.515277	0.342267	-0.000039
C32	C	1.531539	0.457461	-0.000046
N33	N	1.501760	0.152652	0.356091
N34	N	1.501756	0.152633	-0.356146
C35	C	1.578792	0.082756	0.428020
C36	C	1.578788	0.082743	0.571902
C37	C	1.424715	0.222532	0.571915
C38	C	1.424714	0.222539	0.428034
C39	C	1.667749	0.002053	0.428014
C40	C	1.667744	0.002040	0.571897
H41	H	0.892463	0.225079	-0.313182
H42	H	1.766196	0.019816	0.610945
C43	C	1.295250	-0.523310	0.000033
C44	C	1.304438	-0.632150	0.000057
C45	C	1.183882	-0.674960	0.000143
H46	H	1.251197	-0.500943	-0.079650
H47	H	1.251296	-0.500898	0.079782
H48	H	1.348373	-0.654553	-0.079684
H49	H	1.348468	-0.654547	0.079734
H50	H	1.139928	-0.652548	0.079891
H51	H	1.139839	-0.652586	-0.079542
H52	H	1.190099	-0.748812	0.000171
H53	H	1.738014	-0.553411	-0.000069
H54	H	1.629008	-0.073318	0.616517
C55	C	1.341025	0.298535	0.350187
C56	C	1.273580	0.359752	0.443992
C57	C	1.196481	0.429781	0.372330
H58	H	1.284140	0.260927	0.294055
H59	H	1.391371	0.342137	0.294089
H60	H	1.223238	0.316155	0.500067
H61	H	1.330433	0.397382	0.500127
H62	H	1.246827	0.473384	0.316232
H63	H	1.139604	0.392165	0.316200
H64	H	1.150720	0.471332	0.435966
C65	C	1.205003	-0.349157	-0.000302
C66	C	1.140532	-0.315882	-0.117909
C67	C	1.019826	-0.358403	-0.118218
H68	H	1.160915	-0.326712	0.079322
H69	H	1.210946	-0.423026	-0.000382
H70	H	1.134583	-0.242029	-0.117817
H71	H	1.184581	-0.338326	-0.197552
H72	H	1.025769	-0.432271	-0.118298
H73	H	0.975751	-0.335955	-0.038589
H74	H	0.976072	-0.335839	-0.198018
C75	C	1.125751	0.055490	-0.327757
C76	C	1.201500	0.007851	-0.228069
C77	C	1.255220	-0.082967	-0.282590
H78	H	1.175370	0.072682	-0.405533
H79	H	1.061179	0.008994	-0.354567
H80	H	1.266062	0.054337	-0.201278
H81	H	1.151910	-0.009366	-0.150288
H82	H	1.190648	-0.129462	-0.309401
H83	H	1.304832	-0.065764	-0.360366
H84	H	1.306612	-0.115305	-0.214957
C85	C	1.340993	0.298243	0.650207
C86	C	1.257464	0.242375	0.732828
C87	C	1.180331	0.312086	0.804981
H88	H	1.294995	0.339902	0.586918
H89	H	1.391334	0.341761	0.706420
H90	H	1.207128	0.198875	0.676620
H91	H	1.303427	0.200719	0.796143
H92	H	1.230673	0.355604	0.861194
H93	H	1.134343	0.353742	0.741683
H94	H	1.123656	0.274190	0.861057
C95	C	1.236838	-0.123515	0.000273
C96	C	1.164959	-0.142870	0.117895
C97	C	1.059513	-0.077257	0.118231
H98	H	1.187746	-0.136444	-0.079340
H99	H	1.263165	-0.052941	0.000352
H100	H	1.138630	-0.213427	0.117804
H101	H	1.214013	-0.129934	0.197528
H102	H	1.085840	-0.006683	0.118310
H103	H	1.010431	-0.090191	0.038612
H104	H	1.010736	-0.090373	0.198042
C105	C	1.627461	-0.104324	0.376201
C106	C	1.602819	-0.169403	0.488351
C107	C	1.565687	-0.267396	0.440674
H108	H	1.692670	-0.133939	0.321993
H109	H	1.553758	-0.097037	0.322007
H110	H	1.676514	-0.176693	0.542522
H111	H	1.537603	-0.139822	0.542571
H112	H	1.491983	-0.260110	0.386481
H113	H	1.630901	-0.297001	0.386466
H114	H	1.548951	-0.311561	0.516760
C115	C	0.864832	0.149880	0.259891
C116	C	0.893271	0.239697	0.335045
C117	C	0.827651	0.238504	0.459702
H118	H	0.888650	0.090027	0.311259
H119	H	0.777198	0.148016	0.242099
H120	H	0.980885	0.241551	0.352841
H121	H	0.869449	0.299563	0.283718
H122	H	0.740017	0.236640	0.441910
H123	H	0.851474	0.178648	0.511058
H124	H	0.846928	0.299448	0.510704
H125	H	1.765724	-0.357059	-0.000044
C126	C	1.138631	0.155462	0.259911
C127	C	1.110182	0.065656	0.335088
C128	C	1.175775	0.066871	0.459759
H129	H	1.114797	0.215322	0.311255
H130	H	1.226268	0.157327	0.242137
H131	H	1.022564	0.063800	0.352866
H132	H	1.134019	0.005782	0.283786
H133	H	1.263413	0.068736	0.441985
H134	H	1.151937	0.126734	0.511091
H135	H	1.156491	0.005934	0.510776
C136	C	0.892180	0.053467	-0.341940
C137	C	0.821534	-0.007261	-0.251233
C138	C	0.781031	-0.097284	-0.318819
H139	H	0.962954	0.014591	-0.372620
H140	H	0.841830	0.072474	-0.418631
H141	H	0.871882	-0.026269	-0.174567
H142	H	0.750743	0.031583	-0.220548
H143	H	0.730681	-0.078277	-0.395510
H144	H	0.851812	-0.136151	-0.349496
H145	H	0.733084	-0.138494	-0.257289
C146	C	1.708336	-0.171548	0.000241
C147	C	1.723736	-0.110111	0.117858
C148	C	1.844383	-0.067475	0.118157
H149	H	1.719120	-0.129730	-0.079376
H150	H	1.768950	-0.226127	0.000303
H151	H	1.663140	-0.055539	0.117783
H152	H	1.712978	-0.151905	0.197494
H153	H	1.904997	-0.122054	0.118219
H154	H	1.855156	-0.025662	0.038535
H155	H	1.854852	-0.025793	0.197964
H156	H	1.100259	0.227322	-0.323755
H157	H	1.761690	0.027321	0.383385
