data_functionalizedCrystal
_audit_creation_method	'MofGen! by Chris Wilmer'
_symmetry_space_group_name_H-M	'P1'
_symmetry_Int_Tables_number	1
_symmetry_cell_setting	triclinic
loop_
_symmetry_equiv_pos_as_xyz
  x,y,z
_cell_length_a	14.908783
_cell_length_b	29.839131
_cell_length_c	14.908308
_cell_angle_alpha	93.261283
_cell_angle_beta	89.788727
_cell_angle_gamma	93.332050
loop_
_atom_site_label
_atom_site_type_symbol
_atom_site_fract_x
_atom_site_fract_y
_atom_site_fract_z
Zn1	Zn	1.345201	-0.157134	-0.587801
Zn2	Zn	1.845201	0.342866	-0.087801
Zn3	Zn	1.353730	-0.227701	-0.437429
Zn4	Zn	1.853730	0.272299	0.062571
Zn5	Zn	1.203514	-0.156647	-0.428773
Zn6	Zn	1.703514	0.343353	0.071227
Zn7	Zn	1.194749	-0.236303	-0.579049
Zn8	Zn	1.694749	0.263697	-0.079049
O9	O	1.274298	-0.194446	-0.508263
O10	O	1.774298	0.305554	-0.008263
O11	O	1.472162	-0.163098	-0.575140
O12	O	1.972162	0.336902	-0.075140
O13	O	1.341041	-0.214471	-0.310458
O14	O	1.841041	0.285529	0.189542
O15	O	1.222408	-0.093843	-0.449909
O16	O	1.722408	0.406157	0.050091
O17	O	1.478429	-0.214943	-0.464662
O18	O	1.978429	0.285057	0.035338
O19	O	1.326504	-0.094200	-0.566746
O20	O	1.826504	0.405800	-0.066746
O21	O	1.230678	-0.162269	-0.304099
O22	O	1.730678	0.337731	0.195901
O23	O	1.076521	-0.170611	-0.441422
O24	O	1.576521	0.329389	0.058578
O25	O	1.207469	-0.229605	-0.706032
O26	O	1.707469	0.270395	-0.206032
O27	O	1.070082	-0.229134	-0.551829
O28	O	1.570082	0.270866	-0.051829
O29	O	1.318005	-0.171439	-0.712463
O30	O	1.818005	0.328561	-0.212463
O31	O	1.332542	-0.291711	-0.456175
O32	O	1.832542	0.208289	0.043825
O33	O	1.215740	-0.298031	-0.560222
O34	O	1.715740	0.201969	-0.060222
C35	C	1.040675	-0.200753	-0.494737
C36	C	1.540675	0.299247	0.005263
C37	C	0.940729	-0.203463	-0.488972
C38	C	1.440729	0.296537	0.011028
C39	C	0.746382	-0.154652	-0.593355
C40	C	1.246382	0.345348	-0.093355
C41	C	0.652473	-0.157197	-0.587941
C42	C	1.152473	0.342803	-0.087941
C43	C	0.659001	-0.211094	-0.472726
C44	C	1.159001	0.288906	0.027274
C45	C	0.752910	-0.208549	-0.478140
C46	C	1.252910	0.291451	0.021860
C47	C	0.796597	-0.180328	-0.538457
C48	C	1.296597	0.319672	-0.038457
C49	C	0.890507	-0.177786	-0.543875
C50	C	1.390507	0.322214	-0.043875
C51	C	0.897034	-0.231681	-0.428656
C52	C	1.397034	0.268319	0.071344
C53	C	0.803125	-0.234225	-0.423242
C54	C	1.303125	0.265775	0.076758
C55	C	1.274139	-0.311172	-0.508209
C56	C	1.774139	0.188828	-0.008209
C57	C	1.274151	-0.361106	-0.508221
C58	C	1.774151	0.138894	-0.008221
C59	C	1.335217	-0.667443	-0.454175
C60	C	1.835217	-0.167443	0.045825
C61	C	1.335326	-0.855114	-0.454217
C62	C	1.835326	-0.355114	0.045783
O63	O	1.387120	-0.876569	-0.408224
O64	O	1.887120	-0.376569	0.091776
N65	N	1.274481	-0.881885	-0.508342
N66	N	1.774481	-0.381885	-0.008342
C67	C	1.213608	-0.861736	-0.562464
C68	C	1.713608	-0.361736	-0.062464
O69	O	1.161864	-0.888813	-0.608509
O70	O	1.661864	-0.388813	-0.108509
C71	C	1.213504	-0.674066	-0.562427
C72	C	1.713504	-0.174066	-0.062427
C73	C	1.274347	-0.647297	-0.508292
C74	C	1.774347	-0.147297	-0.008292
C75	C	1.396056	-0.640674	-0.400045
C76	C	1.896056	-0.140674	0.099955
C77	C	1.396025	-0.593759	-0.400032
C78	C	1.896025	-0.093759	0.099968
C79	C	1.335155	-0.573613	-0.454149
C80	C	1.835155	-0.073613	0.045851
C81	C	1.274316	-0.600382	-0.508279
C82	C	1.774316	-0.100382	-0.008279
C83	C	1.152636	-0.653918	-0.616554
C84	C	1.652636	-0.153918	-0.116554
C85	C	1.152617	-0.606997	-0.616542
C86	C	1.652617	-0.106997	-0.116542
C87	C	1.213460	-0.580228	-0.562407
C88	C	1.713460	-0.080228	-0.062407
C89	C	1.213415	-0.533321	-0.562382
C90	C	1.713415	-0.033321	-0.062382
N91	N	1.274260	-0.506550	-0.508257
N92	N	1.774260	-0.006550	-0.008257
C93	C	1.335130	-0.526695	-0.454140
C94	C	1.835130	-0.026695	0.045860
C95	C	1.213666	-0.960266	-0.562479
C96	C	1.713666	-0.460266	-0.062479
C97	C	1.213691	-1.007183	-0.562487
C98	C	1.713691	-0.507183	-0.062487
C99	C	1.335410	-1.000557	-0.454240
C100	C	1.835410	-0.500557	0.045760
C101	C	1.335380	-0.953639	-0.454228
C102	C	1.835380	-0.453639	0.045772
C103	C	1.274511	-0.933494	-0.508354
C104	C	1.774511	-0.433494	-0.008354
C105	C	1.335060	-0.428171	-0.454116
C106	C	1.835060	0.071829	0.045884
C107	C	1.335021	-0.381252	-0.454104
C108	C	1.835021	0.118748	0.045896
C109	C	1.213305	-0.387882	-0.562354
C110	C	1.713305	0.112118	-0.062354
C111	C	1.213340	-0.434797	-0.562362
C112	C	1.713340	0.065203	-0.062362
C113	C	1.274225	-0.454940	-0.508240
C114	C	1.774225	0.045060	-0.008240
O115	O	1.161655	-0.511835	-0.608358
O116	O	1.661655	-0.011835	-0.108358
O117	O	1.386880	-0.499611	-0.408118
O118	O	1.886880	0.000389	0.091882
C119	C	1.335248	-0.714358	-0.454189
C120	C	1.835248	-0.214358	0.045811
C121	C	1.274410	-0.741127	-0.508319
C122	C	1.774410	-0.241127	-0.008319
C123	C	1.213540	-0.720981	-0.562435
C124	C	1.713540	-0.220981	-0.062435
C125	C	1.274434	-0.788044	-0.508327
C126	C	1.774434	-0.288044	-0.008327
C127	C	1.335304	-0.808190	-0.454211
C128	C	1.835304	-0.308190	0.045789
C129	C	1.396149	-0.781418	-0.400086
C130	C	1.896149	-0.281418	0.099914
C131	C	1.396118	-0.734503	-0.400072
C132	C	1.896118	-0.234503	0.099928
C133	C	1.152694	-0.747752	-0.616560
C134	C	1.652694	-0.247752	-0.116560
C135	C	1.152730	-0.794667	-0.616569
C136	C	1.652730	-0.294667	-0.116569
C137	C	1.213600	-0.814813	-0.562452
C138	C	1.713600	-0.314813	-0.062452
C139	C	1.508834	-0.188115	-0.521842
C140	C	2.008834	0.311885	-0.021842
C141	C	1.608779	-0.185417	-0.527629
C142	C	2.108779	0.314583	-0.027629
C143	C	1.260808	-0.201536	-0.742784
C144	C	1.760808	0.298464	-0.242784
C145	C	1.255059	-0.204557	-0.842723
C146	C	1.755059	0.295443	-0.342723
C147	C	1.274482	-0.077265	-0.508338
C148	C	1.774482	0.422735	-0.008338
C149	C	1.274561	-0.027329	-0.508370
C150	C	1.774561	0.472671	-0.008370
C151	C	1.359355	-0.149656	-1.037217
C152	C	1.859355	0.350344	-0.537217
C153	C	1.353956	-0.152493	-1.131119
C154	C	1.853956	0.347507	-0.631119
C155	C	1.238859	-0.213066	-1.124430
C156	C	1.738859	0.286934	-0.624430
C157	C	1.244258	-0.210229	-1.030528
C158	C	1.744258	0.289771	-0.530528
C159	C	1.304509	-0.178523	-0.986925
C160	C	1.804509	0.321477	-0.486925
C161	C	1.309911	-0.175689	-0.893022
C162	C	1.809911	0.324311	-0.393022
C163	C	1.194810	-0.236259	-0.886335
C164	C	1.694810	0.263741	-0.386335
C165	C	1.189412	-0.239096	-0.980237
C166	C	1.689412	0.260904	-0.480237
C167	C	1.287788	-0.187350	-0.274657
C168	C	1.787788	0.312650	0.225343
C169	C	1.293711	-0.184198	-0.174729
C170	C	1.793711	0.315802	0.325271
H171	H	0.926075	-0.154807	-0.592990
H172	H	1.426075	0.345193	-0.092990
N173	N	0.793508	-0.124221	-0.658416
N174	N	1.293508	0.375779	-0.158416
H175	H	0.747446	-0.108343	-0.692377
H176	H	1.247446	0.391657	-0.192377
H177	H	0.834590	-0.101242	-0.624142
H178	H	1.334590	0.398758	-0.124142
N179	N	0.598320	-0.129499	-0.647150
N180	N	1.098320	0.370501	-0.147150
H181	H	0.610976	-0.138021	-0.712312
H182	H	1.110976	0.361979	-0.212312
H183	H	0.532219	-0.135401	-0.634496
H184	H	1.032219	0.364599	-0.134496
H185	H	1.164138	-1.028975	-0.606560
H186	H	1.664138	-0.528975	-0.106560
N187	N	1.374900	-0.141496	-0.845994
N188	N	1.874900	0.358504	-0.345994
H189	H	1.418786	-0.157453	-0.809443
H190	H	1.918786	0.342547	-0.309443
H191	H	1.408760	-0.123651	-0.892164
H192	H	1.908760	0.376349	-0.392164
H193	H	0.767542	-0.257200	-0.374131
H194	H	1.267542	0.242800	0.125869
N195	N	1.400650	-0.352378	-0.395720
N196	N	1.900650	0.147622	0.104280
H197	H	1.390443	-0.358998	-0.330662
H198	H	1.890443	0.141002	0.169338
H199	H	1.464053	-0.359209	-0.413539
H200	H	1.964053	0.140791	0.086461
N201	N	1.087029	-0.726031	-0.674927
N202	N	1.587029	-0.226031	-0.174927
H203	H	1.047480	-0.706616	-0.635934
H204	H	1.547480	-0.206616	-0.135934
H205	H	1.121178	-0.706834	-0.718732
H206	H	1.621178	-0.206834	-0.218732
N207	N	1.424354	-0.115472	-0.990177
N208	N	1.924354	0.384528	-0.490177
H209	H	1.390098	-0.094461	-0.949104
H210	H	1.890098	0.405539	-0.449104
H211	H	1.468207	-0.131475	-0.953679
H212	H	1.968207	0.368525	-0.453679
N213	N	1.413103	-0.121355	-1.185363
N214	N	1.913103	0.378645	-0.685363
H215	H	1.452086	-0.100839	-1.143489
H216	H	1.952086	0.399161	-0.643489
H217	H	1.452452	-0.139692	-1.226725
H218	H	1.952452	0.360308	-0.726725
H219	H	1.163743	-0.371472	-0.606412
H220	H	1.663743	0.128528	-0.106412
H221	H	1.445571	-0.571965	-0.355953
H222	H	1.945571	-0.071965	0.144047
N223	N	0.611875	-0.241521	-0.407658
N224	N	1.111875	0.258479	0.092342
H225	H	0.544766	-0.239233	-0.412556
H226	H	1.044766	0.260767	0.087444
H227	H	0.627444	-0.273595	-0.422472
H228	H	1.127444	0.226405	0.077528
N229	N	1.173843	-0.247243	-1.171465
N230	N	1.673843	0.252757	-0.671465
H231	H	1.178736	-0.244652	-1.238581
H232	H	1.678736	0.255348	-0.738581
H233	H	1.188701	-0.278463	-1.155865
H234	H	1.688701	0.221537	-0.655865
N235	N	0.951193	-0.259380	-0.369447
N236	N	1.451193	0.240620	0.130553
H237	H	1.017313	-0.253488	-0.382029
H238	H	1.517313	0.246512	0.117971
H239	H	0.938468	-0.250846	-0.304307
H240	H	1.438468	0.249154	0.195693
N241	N	1.400727	-0.449893	-0.395744
N242	N	1.900727	0.050107	0.104256
H243	H	1.439257	-0.425810	-0.361454
H244	H	1.939257	0.074190	0.138546
H245	H	1.366568	-0.469115	-0.351989
H246	H	1.866568	0.030885	0.148011
H247	H	1.445629	-0.657071	-0.355977
H248	H	1.945629	-0.157071	0.144023
H249	H	1.384924	-0.931846	-0.410147
H250	H	1.884924	-0.431846	0.089853
N251	N	1.124412	-0.273283	-1.027267
N252	N	1.624412	0.226717	-0.527267
H253	H	1.129307	-0.270697	-1.094385
H254	H	1.629307	0.229303	-0.594385
H255	H	1.139291	-0.304498	-1.011654
H256	H	1.639291	0.195502	-0.511654
N257	N	1.135638	-0.267400	-0.832108
N258	N	1.635638	0.232600	-0.332108
H259	H	1.174383	-0.286059	-0.795252
H260	H	1.674383	0.213941	-0.295252
H261	H	1.096238	-0.249064	-0.790800
H262	H	1.596238	0.250936	-0.290800
N263	N	1.401062	-1.022290	-0.395868
N264	N	1.901062	-0.522290	0.104132
H265	H	1.391839	-1.056073	-0.404092
H266	H	1.891839	-0.556073	0.095908
H267	H	1.464457	-1.012746	-0.413635
H268	H	1.964457	-0.512746	0.086365
N269	N	1.148006	-0.938541	-0.620856
N270	N	1.648006	-0.438541	-0.120856
H271	H	1.109467	-0.962624	-0.655137
H272	H	1.609467	-0.462624	-0.155137
H273	H	1.108518	-0.919120	-0.581810
H274	H	1.608518	-0.419120	-0.081810
N275	N	1.086966	-0.585270	-0.674924
N276	N	1.586966	-0.085270	-0.174924
H277	H	1.048431	-0.609350	-0.709216
H278	H	1.548431	-0.109350	-0.209216
H279	H	1.047474	-0.565849	-0.635882
H280	H	1.547474	-0.065849	-0.135882
N281	N	1.147710	-0.463673	-0.620738
N282	N	1.647710	0.036327	-0.120738
H283	H	1.109143	-0.443789	-0.655015
H284	H	1.609143	0.056211	-0.155015
H285	H	1.181898	-0.483379	-0.664504
H286	H	1.681898	0.016621	-0.164504
H287	H	1.445663	-0.712711	-0.355991
H288	H	1.945663	-0.212711	0.144009
N289	N	1.461796	-0.803151	-0.341708
N290	N	1.961796	-0.303151	0.158292
H291	H	1.452574	-0.836935	-0.349935
H292	H	1.952574	-0.336935	0.150065
H293	H	1.525193	-0.793607	-0.359467
H294	H	2.025193	-0.293607	0.140533
H295	H	1.103087	-0.675706	-0.660632
H296	H	1.603087	-0.175706	-0.160632
H297	H	1.103176	-0.816459	-0.660651
H298	H	1.603176	-0.316459	-0.160651
