data_functionalizedCrystal
_audit_creation_method	'MofGen! by Chris Wilmer'
_symmetry_space_group_name_H-M	'P1'
_symmetry_Int_Tables_number	1
_symmetry_cell_setting	triclinic
loop_
_symmetry_equiv_pos_as_xyz
  x,y,z
_cell_length_a	12.594516
_cell_length_b	12.594517
_cell_length_c	12.759393
_cell_angle_alpha	89.977114
_cell_angle_beta	89.970876
_cell_angle_gamma	90.015485
loop_
_atom_site_label
_atom_site_type_symbol
_atom_site_fract_x
_atom_site_fract_y
_atom_site_fract_z
Zn1	Zn	-0.423695	1.627274	-0.594122
Zn2	Zn	-0.601715	1.627163	-0.418450
Zn3	Zn	-0.423749	1.449276	-0.418448
Zn4	Zn	-0.601631	1.449260	-0.594078
O5	O	-0.512697	1.538243	-0.506274
O6	O	-0.447323	1.776205	-0.570838
O7	O	-0.578165	1.603526	-0.271428
O8	O	-0.274796	1.472941	-0.441770
O9	O	-0.578113	1.776123	-0.441772
O10	O	-0.274757	1.603715	-0.570837
O11	O	-0.447414	1.472833	-0.271427
O12	O	-0.447332	1.300328	-0.441727
O13	O	-0.577969	1.472914	-0.741105
O14	O	-0.578021	1.300316	-0.570761
O15	O	-0.447241	1.603700	-0.741137
O16	O	-0.750649	1.603511	-0.441729
O17	O	-0.750587	1.472806	-0.570762
C18	C	-0.512674	1.261702	-0.506239
C19	C	-0.512690	1.143397	-0.506249
C20	C	-0.441530	1.003355	-0.436228
C21	C	-0.415592	1.074215	-0.532098
C22	C	-0.538580	1.074109	-0.410390
C23	C	-0.486743	1.003471	-0.602247
C24	C	-0.609777	1.003358	-0.480474
C25	C	-0.583876	1.074186	-0.576410
C26	C	-0.789238	1.538173	-0.506264
C27	C	-0.907544	1.538241	-0.506295
C28	C	-0.976802	1.467144	-0.576427
C29	C	-1.047672	1.441209	-0.480558
C30	C	-1.047473	1.564272	-0.602180
C31	C	-0.976856	1.512255	-0.410376
C32	C	-0.976650	1.635363	-0.532062
C33	C	-1.047488	1.609466	-0.436127
C34	C	-0.235077	1.538342	-0.506308
C35	C	-0.116771	1.538384	-0.506322
C36	C	-0.512590	1.538318	-0.780308
C37	C	-0.512544	1.538349	-0.897085
C38	C	-0.512721	1.815864	-0.506310
C39	C	-0.512732	1.934169	-0.506326
C40	C	-0.444468	1.606459	-0.951965
C41	C	-0.444429	1.606484	-1.061690
C42	C	-0.580553	1.470287	-1.061643
C43	C	-0.580585	1.470258	-0.951920
C44	C	-0.376426	1.674551	-0.897130
C45	C	-0.308345	1.742667	-0.952010
C46	C	-0.308307	1.742692	-1.061735
C47	C	-0.376349	1.674602	-1.116578
C48	C	-0.512728	1.538230	-0.233307
C49	C	-0.512473	1.538405	-0.116531
H50	H	-0.464767	0.972571	-0.683370
H51	H	-0.252864	1.798148	-1.106416
H52	H	-0.376452	1.674540	-0.807787
C53	C	-1.089129	1.331771	-0.451331
C54	C	-1.051791	1.304122	-0.351651
C55	C	-1.089944	1.203309	-0.324705
H56	H	-1.164543	1.332665	-0.450836
H57	H	-1.064903	1.281238	-0.501160
H58	H	-1.076023	1.354642	-0.301834
H59	H	-0.976382	1.303205	-0.352120
H60	H	-1.065719	1.152776	-0.374535
H61	H	-1.165357	1.204212	-0.324216
H62	H	-1.064609	1.184532	-0.257075
C63	C	-0.654393	1.396491	-1.121373
C64	C	-0.639816	1.411117	-1.229210
C65	C	-0.707833	1.343167	-1.284264
H66	H	-0.638886	1.324931	-1.103516
H67	H	-0.725937	1.412051	-1.103437
H68	H	-0.568288	1.395550	-1.247139
H69	H	-0.655330	1.482663	-1.247097
H70	H	-0.779377	1.358728	-1.266328
H71	H	-0.692321	1.271612	-1.266399
H72	H	-0.697959	1.353089	-1.357436
C73	C	-0.935736	1.483047	-0.302159
C74	C	-0.972365	1.557258	-0.228911
C75	C	-0.934493	1.530391	-0.129219
H76	H	-0.960622	1.414358	-0.283609
H77	H	-0.860304	1.483192	-0.302768
H78	H	-1.047781	1.557102	-0.228299
H79	H	-0.947482	1.625953	-0.247427
H80	H	-0.859061	1.530535	-0.129828
H81	H	-0.959382	1.461700	-0.110679
H82	H	-0.959332	1.580743	-0.079509
H83	H	-0.252941	1.798097	-0.907350
C84	C	-0.306232	1.115932	-0.561258
C85	C	-0.307929	1.227087	-0.561781
C86	C	-0.207208	1.265549	-0.588646
H87	H	-0.255640	1.091800	-0.511470
H88	H	-0.287357	1.090765	-0.628931
H89	H	-0.326790	1.252244	-0.494117
H90	H	-0.358499	1.251247	-0.611570
H91	H	-0.188334	1.240381	-0.656319
H92	H	-0.156625	1.241410	-0.538855
H93	H	-0.208349	1.340970	-0.589013
C94	C	-0.654639	1.396296	-0.892517
C95	C	-0.714257	1.336708	-0.964021
C96	C	-0.782505	1.268581	-0.909337
H97	H	-0.614070	1.349824	-0.849701
H98	H	-0.701080	1.436984	-0.849744
H99	H	-0.667823	1.296024	-1.006776
H100	H	-0.754848	1.383153	-1.006840
H101	H	-0.828945	1.309268	-0.866564
H102	H	-0.741927	1.222115	-0.866522
H103	H	-0.822971	1.228149	-0.957844
H104	H	-0.381290	0.972259	-0.377054
C105	C	-0.664293	1.115257	-0.655416
C106	C	-0.765497	1.077747	-0.629021
C107	C	-0.839595	1.115551	-0.701787
H108	H	-0.664392	1.190673	-0.654613
H109	H	-0.645815	1.090909	-0.723487
H110	H	-0.783971	1.102101	-0.560968
H111	H	-0.765433	1.002336	-0.629831
H112	H	-0.821117	1.091203	-0.769858
H113	H	-0.839685	1.190967	-0.700979
H114	H	-0.908269	1.090099	-0.683894
C115	C	-0.934960	1.744803	-0.560934
C116	C	-0.873891	1.784712	-0.478172
C117	C	-0.835481	1.885531	-0.504737
H118	H	-0.892287	1.739797	-0.622137
H119	H	-0.993011	1.791137	-0.573873
H120	H	-0.815848	1.738390	-0.465246
H121	H	-0.916541	1.789744	-0.416960
H122	H	-0.893532	1.931865	-0.517677
H123	H	-0.792813	1.880515	-0.565942
H124	H	-0.794050	1.912626	-0.448585
C125	C	-1.088689	1.593415	-0.710378
C126	C	-1.052850	1.518655	-0.783461
C127	C	-1.090780	1.545464	-0.883147
H128	H	-1.164105	1.593874	-0.709600
H129	H	-1.063295	1.661854	-0.729210
H130	H	-1.078249	1.450233	-0.764635
H131	H	-0.977439	1.518184	-0.784272
H132	H	-1.065386	1.613904	-0.901979
H133	H	-1.166195	1.545924	-0.882358
H134	H	-1.066461	1.494750	-0.932748
C135	C	-0.567619	1.115337	-0.302161
C136	C	-0.492846	1.079422	-0.229139
C137	C	-0.519561	1.117363	-0.129426
H138	H	-0.568013	1.190753	-0.302921
H139	H	-0.636070	1.090000	-0.283287
H140	H	-0.424414	1.104763	-0.248008
H141	H	-0.492442	1.004010	-0.228346
H142	H	-0.588011	1.092027	-0.110551
H143	H	-0.519954	1.192779	-0.130197
H144	H	-0.468838	1.092993	-0.079867
H145	H	-0.376300	1.674615	-1.205923
H146	H	-0.945764	1.406912	-0.635649
H147	H	-0.691840	0.972212	-0.458606
H148	H	-1.078330	1.669651	-0.376762
