data_functionalizedCrystal
_audit_creation_method	'MofGen! by Chris Wilmer'
_symmetry_space_group_name_H-M	'P1'
_symmetry_Int_Tables_number	1
_symmetry_cell_setting	triclinic
loop_
_symmetry_equiv_pos_as_xyz
  x,y,z
_cell_length_a	11.026607
_cell_length_b	9.065218
_cell_length_c	7.540329
_cell_angle_alpha	90.001757
_cell_angle_beta	90.002465
_cell_angle_gamma	96.800951
loop_
_atom_site_label
_atom_site_type_symbol
_atom_site_fract_x
_atom_site_fract_y
_atom_site_fract_z
O1	O	-1.616971	-0.619586	-0.147471
O2	O	-1.116971	-0.119586	0.352529
O3	O	-1.262889	-0.549033	-0.147474
O4	O	-0.762889	-0.049033	0.352526
O5	O	-1.447249	-0.371492	-0.147469
O6	O	-0.947249	0.128508	0.352531
O7	O	-1.432611	-0.797127	-0.147476
O8	O	-0.932611	-0.297127	0.352524
O9	O	-1.447238	-0.371486	0.147496
O10	O	-0.947238	0.128514	0.647496
O11	O	-1.262878	-0.549027	0.147491
O12	O	-0.762878	-0.049027	0.647491
O13	O	-1.616960	-0.619580	0.147494
O14	O	-1.116960	-0.119580	0.647494
Cu15	Cu	-1.439918	-0.584303	0.174425
Cu16	Cu	-0.939918	-0.084303	0.674425
Cu17	Cu	-1.439931	-0.584310	-0.174405
Cu18	Cu	-0.939931	-0.084310	0.325595
O19	O	-1.432600	-0.797121	0.147489
O20	O	-0.932600	-0.297121	0.647489
C21	C	-1.217530	-0.536015	0.000008
C22	C	-0.717530	-0.036015	0.500008
C23	C	-1.082389	-0.497214	0.000006
C24	C	-0.582389	0.002786	0.500006
C25	C	-1.445836	-0.316152	0.000011
C26	C	-0.945836	0.183848	0.500011
C27	C	-1.441630	-0.151260	0.000002
C28	C	-0.941630	0.348740	0.500002
C29	C	-1.662319	-0.632598	0.000008
C30	C	-1.162319	-0.132598	0.500008
C31	C	-1.797460	-0.671399	-0.000002
C32	C	-1.297460	-0.171399	0.499998
C33	C	-1.009761	-0.604348	0.000003
C34	C	-0.509761	-0.104348	0.500003
C35	C	-0.870086	-0.564249	0.000001
C36	C	-0.370086	-0.064249	0.500001
C37	C	-1.434012	-0.852461	0.000005
C38	C	-0.934012	-0.352461	0.500005
C39	C	-1.438219	-1.017353	0.000002
C40	C	-0.938219	-0.517353	0.500002
N41	N	-1.439917	-0.584300	0.419774
N42	N	-0.939917	-0.084300	0.919774
N43	N	-1.439941	-0.584304	-0.419754
N44	N	-0.939941	-0.084304	0.080246
H45	H	-1.050987	-0.725756	0.000011
H46	H	-0.550987	-0.225756	0.500011
C47	C	-0.814902	-0.402440	-0.000089
C48	C	-0.314902	0.097560	0.499911
C49	C	-0.687336	-0.394835	-0.000135
C50	C	-0.187336	0.105165	0.499865
C51	C	-0.636458	-0.245805	-0.000245
C52	C	-0.136458	0.254195	0.499755
H53	H	-0.840868	-0.354410	0.102742
H54	H	-0.340868	0.145590	0.602742
H55	H	-0.840942	-0.354538	-0.102993
H56	H	-0.340942	0.145462	0.397007
H57	H	-0.661307	-0.442716	0.102758
H58	H	-0.161307	0.057284	0.602758
H59	H	-0.661336	-0.442833	-0.102959
H60	H	-0.161336	0.057167	0.397041
H61	H	-0.662499	-0.197904	-0.103148
H62	H	-0.162499	0.302096	0.396852
H63	H	-0.662434	-0.197788	0.102588
H64	H	-0.162434	0.302212	0.602588
H65	H	-0.549901	-0.240626	-0.000292
H66	H	-0.049901	0.259374	0.499708
H67	H	-0.838678	-0.792815	0.000008
H68	H	-0.338678	-0.292815	0.500008
H69	H	-1.041163	-0.375807	-0.000037
H70	H	-0.541163	0.124193	0.499963
