data_functionalizedCrystal
_audit_creation_method	'MofGen! by Chris Wilmer'
_symmetry_space_group_name_H-M	'P1'
_symmetry_Int_Tables_number	1
_symmetry_cell_setting	triclinic
loop_
_symmetry_equiv_pos_as_xyz
  x,y,z
_cell_length_a	18.101397
_cell_length_b	15.297621
_cell_length_c	15.296720
_cell_angle_alpha	88.384271
_cell_angle_beta	80.360149
_cell_angle_gamma	80.324031
loop_
_atom_site_label
_atom_site_type_symbol
_atom_site_fract_x
_atom_site_fract_y
_atom_site_fract_z
Zn1	Zn	0.576387	-1.253388	-0.726570
Zn2	Zn	1.076387	-0.753388	-0.226570
Zn3	Zn	0.683023	-1.278649	-0.580074
Zn4	Zn	1.183023	-0.778649	-0.080074
Zn5	Zn	0.534781	-1.132267	-0.554812
Zn6	Zn	1.034781	-0.632267	-0.054812
Zn7	Zn	0.675739	-1.106876	-0.701198
Zn8	Zn	1.175739	-0.606876	-0.201198
O9	O	0.617482	-1.192795	-0.640663
O10	O	1.117482	-0.692795	-0.140663
O11	O	0.610993	-1.379316	-0.728327
O12	O	1.110993	-0.879316	-0.228327
O13	O	0.648994	-1.280429	-0.454151
O14	O	1.148994	-0.780429	0.045849
O15	O	0.436681	-1.148388	-0.577641
O16	O	0.936681	-0.648388	-0.077641
O17	O	0.689338	-1.397875	-0.620697
O18	O	1.189338	-0.897875	-0.120697
O19	O	0.467249	-1.237375	-0.703831
O20	O	0.967249	-0.737375	-0.203831
O21	O	0.540082	-1.172883	-0.435590
O22	O	1.040082	-0.672883	0.064410
O23	O	0.533019	-1.006322	-0.553040
O24	O	1.033019	-0.506322	-0.053040
O25	O	0.676923	-1.105114	-0.827136
O26	O	1.176923	-0.605114	-0.327136
O27	O	0.636580	-0.987667	-0.660589
O28	O	1.136580	-0.487667	-0.160589
O29	O	0.603930	-1.212755	-0.845777
O30	O	1.103930	-0.712755	-0.345777
O31	O	0.785675	-1.255809	-0.596096
O32	O	1.285675	-0.755809	-0.096096
O33	O	0.780324	-1.129608	-0.685085
O34	O	1.280324	-0.629608	-0.185085
C35	C	0.809873	-1.192715	-0.640602
C36	C	1.309873	-0.692715	-0.140602
C37	C	0.892195	-1.192756	-0.640619
C38	C	1.392195	-0.692756	-0.140619
C39	C	0.579495	-0.965212	-0.601321
C40	C	1.079495	-0.465212	-0.101321
C41	C	0.563264	-0.867847	-0.584510
C42	C	1.063264	-0.367847	-0.084510
C43	C	1.042912	-1.192794	-0.640644
C44	C	1.542912	-0.692794	-0.140644
C45	C	1.077620	-1.272249	-0.584729
C46	C	1.577620	-0.772249	-0.084729
C47	C	1.163180	-1.272118	-0.584443
C48	C	1.663180	-0.772118	-0.084443
C49	C	1.191304	-1.192832	-0.640669
C50	C	1.691304	-0.692832	-0.140669
C51	C	1.141959	-1.104756	-0.599867
C52	C	1.641959	-0.604756	-0.099867
C53	C	1.056317	-1.105211	-0.599429
C54	C	1.556317	-0.605211	-0.099429
C55	C	1.089257	-1.200586	-0.737397
C56	C	1.589257	-0.700586	-0.237397
C57	C	1.175194	-1.202731	-0.737270
C58	C	1.675194	-0.702731	-0.237270
C59	C	1.275168	-1.192848	-0.640684
C60	C	1.775168	-0.692848	-0.140684
C61	C	0.959047	-1.192772	-0.640626
C62	C	1.459047	-0.692772	-0.140626
C63	C	1.424341	-1.192879	-0.640726
C64	C	1.924341	-0.692879	-0.140726
C65	C	1.342021	-1.192870	-0.640695
C66	C	1.842021	-0.692870	-0.140695
C67	C	0.733458	-0.554700	-0.760772
C68	C	1.233458	-0.054700	-0.260772
C69	C	0.748713	-0.646180	-0.776564
C70	C	1.248713	-0.146180	-0.276564
C71	C	0.702352	-0.701601	-0.728552
C72	C	1.202352	-0.201601	-0.228552
C73	C	0.640733	-0.665534	-0.664745
C74	C	1.140733	-0.165534	-0.164745
C75	C	0.625480	-0.574046	-0.648947
C76	C	1.125480	-0.074046	-0.148947
C77	C	0.594374	-0.720947	-0.616727
C78	C	1.094374	-0.220947	-0.116727
C79	C	0.532756	-0.684879	-0.552921
C80	C	1.032756	-0.184879	-0.052921
C81	C	0.517505	-0.593400	-0.537126
C82	C	1.017505	-0.093400	-0.037126
C83	C	0.563866	-0.537979	-0.585138
C84	C	1.063866	-0.037979	-0.085138
C85	C	0.609627	-0.812434	-0.632525
C86	C	1.109627	-0.312434	-0.132525
C87	C	0.501650	-0.831780	-0.520701
C88	C	1.001650	-0.331780	-0.020701
C89	C	0.486394	-0.740300	-0.504909
C90	C	0.986394	-0.240300	-0.004909
C91	C	0.644255	-1.153284	-0.869127
C92	C	1.144255	-0.653284	-0.369127
C93	C	0.655664	-1.136447	-0.966484
C94	C	1.155664	-0.636447	-0.466484
C95	C	0.655612	-0.421269	-0.680153
C96	C	1.155612	0.078731	-0.180153
C97	C	0.671844	-0.518634	-0.696962
C98	C	1.171844	-0.018634	-0.196962
C99	C	0.535816	-1.313166	-1.279740
C100	C	1.035816	-0.813166	-0.779740
C101	C	0.525099	-1.328991	-1.188269
C102	C	1.025099	-0.828991	-0.688269
C103	C	0.557739	-1.280856	-1.132818
C104	C	1.057739	-0.780856	-0.632818
C105	C	0.601099	-1.216894	-1.168848
C106	C	1.101099	-0.716894	-0.668848
C107	C	0.611822	-1.201072	-1.260328
C108	C	1.111822	-0.701072	-0.760328
C109	C	0.633745	-1.168763	-1.113407
C110	C	1.133745	-0.668763	-0.613407
C111	C	0.677104	-1.104801	-1.149436
C112	C	1.177104	-0.604801	-0.649436
C113	C	0.687825	-1.088982	-1.240908
C114	C	1.187825	-0.588982	-0.740908
C115	C	0.655185	-1.137116	-1.296359
C116	C	1.155185	-0.637116	-0.796359
C117	C	0.623022	-1.184584	-1.021926
C118	C	1.123022	-0.684584	-0.521926
C119	C	0.699027	-1.072491	-1.002514
C120	C	1.199027	-0.572491	-0.502514
C121	C	0.709745	-1.056666	-1.093986
C122	C	1.209745	-0.556666	-0.593986
C123	C	0.590769	-1.232203	-0.413098
C124	C	1.090769	-0.732203	0.086902
C125	C	0.579179	-1.249210	-0.315770
C126	C	1.079179	-0.749210	0.184230
H127	H	1.197397	-1.337924	-0.611793
H128	H	1.697397	-0.837924	-0.111793
O129	O	0.783478	-0.494941	-0.812535
O130	O	1.283478	0.005059	-0.312535
H131	H	0.781879	-0.500620	-0.884349
H132	H	1.281879	-0.000620	-0.384349
O133	O	1.067825	-1.359731	-0.620738
O134	O	1.567825	-0.859731	-0.120738
H135	H	1.038113	-1.347520	-0.678872
H136	H	1.538113	-0.847520	-0.178872
O137	O	0.547443	-0.439307	-0.568115
O138	O	1.047443	0.060693	-0.068115
H139	H	0.489687	-0.412098	-0.581784
H140	H	0.989687	0.087902	-0.081784
H141	H	0.659797	-0.841791	-0.684478
H142	H	1.159797	-0.341791	-0.184478
O143	O	0.451049	-0.554494	-0.468305
O144	O	0.951049	-0.054494	0.031695
H145	H	0.421368	-0.608396	-0.437579
H146	H	0.921368	-0.108396	0.062421
O147	O	1.035125	-1.267239	-0.490753
O148	O	1.535125	-0.767239	0.009247
H149	H	1.060077	-1.323623	-0.451862
H150	H	1.560077	-0.823623	0.048138
H151	H	0.436224	-0.710921	-0.452957
H152	H	0.936224	-0.210921	0.047043
O153	O	1.014944	-1.094040	-0.505125
O154	O	1.514944	-0.594040	-0.005125
H155	H	0.971453	-1.033095	-0.500142
H156	H	1.471453	-0.533095	-0.000142
O157	O	0.734228	-1.020548	-0.942727
O158	O	1.234228	-0.520548	-0.442727
H159	H	0.773560	-1.066926	-0.907796
H160	H	1.273560	-0.566926	-0.407796
H161	H	0.549011	-1.293745	-1.058339
H162	H	1.049011	-0.793745	-0.558339
O163	O	0.666741	-1.120048	-1.395021
O164	O	1.166741	-0.620048	-0.895021
H165	H	0.702373	-1.067485	-1.410762
H166	H	1.202373	-0.567485	-0.910762
O167	O	0.756508	-0.987678	-1.132849
O168	O	1.256508	-0.487678	-0.632849
H169	H	0.805613	-1.019652	-1.181284
H170	H	1.305613	-0.519652	-0.681284
H171	H	0.798885	-0.675539	-0.828513
H172	H	1.298885	-0.175539	-0.328513
H173	H	0.723139	-1.036907	-1.270241
H174	H	1.223139	-0.536907	-0.770241
H175	H	1.173031	-1.268221	-0.513083
H176	H	1.673031	-0.768221	-0.013083
H177	H	1.032407	-1.044844	-0.637532
H178	H	1.532407	-0.544844	-0.137532
H179	H	1.159269	-1.044649	-0.638653
H180	H	1.659269	-0.544649	-0.138653
O181	O	1.155484	-1.092950	-0.506472
O182	O	1.655484	-0.592950	-0.006472
H183	H	1.197298	-1.149682	-0.488946
H184	H	1.697298	-0.649682	0.011054
O185	O	0.451636	-0.891542	-0.468913
O186	O	0.951636	-0.391542	0.031087
H187	H	0.472588	-0.961213	-0.490625
H188	H	0.972588	-0.461213	0.009375
H189	H	0.587717	-1.236662	-0.992600
H190	H	1.087717	-0.736662	-0.492600
H191	H	1.081305	-1.262866	-0.771481
H192	H	1.581305	-0.762866	-0.271481
O193	O	0.718807	-0.800269	-0.745583
O194	O	1.218807	-0.300269	-0.245583
H195	H	0.669088	-0.821334	-0.767576
H196	H	1.169088	-0.321334	-0.267576
O197	O	0.478338	-1.397974	-1.149407
O198	O	0.978338	-0.897974	-0.649407
H199	H	0.457438	-1.428783	-1.203329
H200	H	0.957438	-0.928783	-0.703329
H201	H	1.209002	-1.267469	-0.767752
H202	H	1.709002	-0.767469	-0.267752
O203	O	1.201651	-1.130000	-0.797108
O204	O	1.701651	-0.630000	-0.297108
H205	H	1.226805	-1.085460	-0.758758
H206	H	1.726805	-0.585460	-0.258758
H207	H	1.066666	-1.142525	-0.779254
H208	H	1.566666	-0.642525	-0.279254
O209	O	0.500618	-1.365063	-1.339560
O210	O	1.000618	-0.865063	-0.839560
H211	H	0.522738	-1.436841	-1.333901
H212	H	1.022738	-0.936841	-0.833901
