data_functionalizedCrystal
_audit_creation_method	'MofGen! by Chris Wilmer'
_symmetry_space_group_name_H-M	'P1'
_symmetry_Int_Tables_number	1
_symmetry_cell_setting	triclinic
loop_
_symmetry_equiv_pos_as_xyz
  x,y,z
_cell_length_a	19.288862
_cell_length_b	19.288864
_cell_length_c	17.766277
_cell_angle_alpha	90.023209
_cell_angle_beta	90.013866
_cell_angle_gamma	83.135763
loop_
_atom_site_label
_atom_site_type_symbol
_atom_site_fract_x
_atom_site_fract_y
_atom_site_fract_z
O1	O	-0.086649	-0.921352	-0.062848
O2	O	0.246684	-0.588019	0.270485
O3	O	0.580018	-0.254686	0.603819
O4	O	-0.098338	-0.719092	-0.062798
O5	O	0.234996	-0.385758	0.270535
O6	O	0.568329	-0.052425	0.603869
O7	O	0.008637	-0.826067	-0.062805
O8	O	0.341971	-0.492734	0.270528
O9	O	0.675304	-0.159401	0.603861
O10	O	-0.193624	-0.814377	-0.062841
O11	O	0.139710	-0.481043	0.270493
O12	O	0.473043	-0.147710	0.603826
O13	O	0.008643	-0.826048	0.062383
O14	O	0.341976	-0.492715	0.395717
O15	O	0.675309	-0.159382	0.729050
O16	O	-0.098332	-0.719073	0.062390
O17	O	0.235001	-0.385740	0.395724
O18	O	0.568334	-0.052406	0.729057
O19	O	-0.086643	-0.921334	0.062341
O20	O	0.246690	-0.588000	0.395674
O21	O	0.580023	-0.254667	0.729007
Cu22	Cu	-0.092487	-0.820202	0.073796
Cu23	Cu	0.240846	-0.486868	0.407130
Cu24	Cu	0.574179	-0.153535	0.740463
Cu25	Cu	-0.092494	-0.820224	-0.074254
Cu26	Cu	0.240840	-0.486890	0.259080
Cu27	Cu	0.574173	-0.153557	0.592413
O28	O	-0.193618	-0.814358	0.062348
O29	O	0.139715	-0.481025	0.395681
O30	O	0.473048	-0.147691	0.729014
C31	C	0.034516	-0.825682	-0.000207
C32	C	0.367850	-0.492349	0.333126
C33	C	0.701183	-0.159015	0.666459
C34	C	0.111620	-0.824554	-0.000197
C35	C	0.444953	-0.491220	0.333136
C36	C	0.778287	-0.157887	0.666469
C37	C	-0.097959	-0.693206	-0.000197
C38	C	0.235375	-0.359872	0.333136
C39	C	0.568708	-0.026539	0.666470
C40	C	-0.096830	-0.616102	-0.000177
C41	C	0.236504	-0.282769	0.333156
C42	C	0.569837	0.050564	0.666489
C43	C	0.156316	-0.887322	-0.000207
C44	C	0.489650	-0.553989	0.333126
C45	C	0.822983	-0.220655	0.666459
C46	C	0.228764	-0.886262	-0.000216
C47	C	0.562097	-0.552928	0.333118
C48	C	0.895430	-0.219595	0.666451
C49	C	0.256511	-0.822430	-0.000199
C50	C	0.589844	-0.489097	0.333134
C51	C	0.923178	-0.155763	0.666467
C52	C	0.211805	-0.759653	-0.000193
C53	C	0.545138	-0.426320	0.333140
C54	C	0.878472	-0.092987	0.666473
C55	C	0.139359	-0.760715	-0.000192
C56	C	0.472693	-0.427382	0.333141
C57	C	0.806026	-0.094049	0.666474
C58	C	0.364801	-0.772245	0.043669
C59	C	0.698134	-0.438911	0.377002
C60	C	1.031467	-0.105578	0.710335
C61	C	0.437245	-0.771185	0.043672
C62	C	0.770578	-0.437852	0.377006
C63	C	1.103912	-0.104519	0.710339
C64	C	0.479957	-0.819152	-0.000206
C65	C	0.813290	-0.485819	0.333128
C66	C	1.146624	-0.152485	0.666461
C67	C	0.450217	-0.868190	-0.044078
C68	C	0.783550	-0.534857	0.289256
C69	C	1.116884	-0.201523	0.622589
C70	C	0.377771	-0.869252	-0.044077
C71	C	0.711105	-0.535918	0.289257
C72	C	1.044438	-0.202585	0.622590
C73	C	0.335065	-0.821271	-0.000201
C74	C	0.668399	-0.487938	0.333133
C75	C	1.001732	-0.154605	0.666466
C76	C	0.603209	-0.880775	-0.000226
C77	C	0.936543	-0.547442	0.333107
C78	C	1.269876	-0.214109	0.666441
C79	C	0.675658	-0.879713	-0.000239
C80	C	1.008991	-0.546379	0.333094
C81	C	1.342324	-0.213046	0.666427
C82	C	0.658697	-0.753102	-0.000209
C83	C	0.992031	-0.419769	0.333124
C84	C	1.325364	-0.086436	0.666457
C85	C	0.586251	-0.754167	-0.000204
C86	C	0.919584	-0.420834	0.333130
C87	C	1.252917	-0.087500	0.666463
C88	C	0.558511	-0.818005	-0.000208
C89	C	0.891845	-0.484672	0.333125
C90	C	1.225178	-0.151339	0.666458
C91	C	-0.087022	-0.947219	-0.000262
C92	C	0.246311	-0.613886	0.333071
C93	C	0.579644	-0.280553	0.666405
C94	C	-0.088151	-1.024323	-0.000287
C95	C	0.245182	-0.690990	0.333047
C96	C	0.578515	-0.357656	0.666380
C97	C	0.780503	-0.814745	-0.000241
C98	C	1.113836	-0.481412	0.333093
C99	C	1.447170	-0.148079	0.666426
C100	C	0.703400	-0.815880	-0.000224
C101	C	1.036733	-0.482547	0.333109
C102	C	1.370067	-0.149213	0.666443
C103	C	-0.159598	-0.571405	-0.000200
C104	C	0.173736	-0.238072	0.333133
C105	C	0.507069	0.095261	0.666467
C106	C	-0.158537	-0.498958	-0.000208
C107	C	0.174796	-0.165625	0.333125
C108	C	0.508130	0.167708	0.666458
C109	C	-0.094705	-0.471211	-0.000209
C110	C	0.238629	-0.137878	0.333125
C111	C	0.571962	0.195455	0.666458
C112	C	-0.031929	-0.515918	-0.000181
C113	C	0.301405	-0.182585	0.333152
C114	C	0.634738	0.150749	0.666485
C115	C	-0.032991	-0.588363	-0.000166
C116	C	0.300342	-0.255030	0.333168
C117	C	0.633676	0.078303	0.666501
C118	C	-0.044528	-0.362956	-0.044084
C119	C	0.288806	-0.029623	0.289249
C120	C	0.622139	0.303710	0.622583
C121	C	-0.043468	-0.290512	-0.044104
C122	C	0.289866	0.042821	0.289229
C123	C	0.623199	0.376155	0.622562
C124	C	-0.091425	-0.247766	-0.000254
C125	C	0.241908	0.085568	0.333080
C126	C	0.575241	0.418901	0.666413
C127	C	-0.140454	-0.277472	0.043608
C128	C	0.192879	0.055862	0.376941
C129	C	0.526212	0.389195	0.710275
C130	C	-0.141517	-0.349917	0.043624
C131	C	0.191816	-0.016584	0.376957
C132	C	0.525150	0.316750	0.710290
C133	C	-0.093546	-0.392657	-0.000225
C134	C	0.239788	-0.059324	0.333108
C135	C	0.573121	0.274009	0.666442
C136	C	-0.153047	-0.124513	-0.000284
C137	C	0.180286	0.208820	0.333049
C138	C	0.513619	0.542154	0.666382
C139	C	-0.151984	-0.052065	-0.000288
C140	C	0.181349	0.281268	0.333046
C141	C	0.514683	0.614602	0.666379
C142	C	-0.025374	-0.069026	-0.000268
C143	C	0.307960	0.264307	0.333065
C144	C	0.641293	0.597640	0.666398
C145	C	-0.026439	-0.141473	-0.000257
C146	C	0.306894	0.191861	0.333076
C147	C	0.640228	0.525194	0.666409
C148	C	-0.090278	-0.169211	-0.000269
C149	C	0.243056	0.164122	0.333064
C150	C	0.576389	0.497455	0.666398
N151	N	-0.092482	-0.820191	0.177927
N152	N	0.240851	-0.486858	0.511260
N153	N	0.574184	-0.153524	0.844593
N154	N	-0.092493	-0.820240	-0.178384
N155	N	0.240840	-0.486906	0.154949
N156	N	0.574174	-0.153573	0.488283
C157	C	-0.045137	-0.867575	0.217310
C158	C	0.288196	-0.534242	0.550644
C159	C	0.621530	-0.200908	0.883977
C160	C	-0.045134	-0.867579	0.296112
C161	C	0.288199	-0.534246	0.629445
C162	C	0.621533	-0.200912	0.962779
C163	C	-0.092488	-0.820206	0.335527
C164	C	0.240845	-0.486872	0.668860
C165	C	0.574179	-0.153539	1.002194
C166	C	-0.139837	-0.772813	0.296134
C167	C	0.193497	-0.439479	0.629467
C168	C	0.526830	-0.106146	0.962801
C169	C	-0.139834	-0.772805	0.217334
C170	C	0.193499	-0.439472	0.550667
C171	C	0.526833	-0.106139	0.884000
C172	C	-0.155776	-0.810906	0.460355
C173	C	0.177558	-0.477573	0.793689
C174	C	0.510891	-0.144240	1.127022
C175	C	-0.155779	-0.810918	0.539154
C176	C	0.177554	-0.477585	0.872488
C177	C	0.510887	-0.144252	1.205821
C178	C	-0.092496	-0.820224	0.578574
C179	C	0.240837	-0.486891	0.911907
C180	C	0.574170	-0.153558	1.245240
C181	C	-0.029207	-0.829533	0.539184
C182	C	0.304127	-0.496199	0.872518
C183	C	0.637460	-0.162866	1.205851
C184	C	-0.029204	-0.829525	0.460384
C185	C	0.304129	-0.496192	0.793717
C186	C	0.637463	-0.162859	1.127051
C187	C	-0.092496	-0.820208	0.420973
C188	C	0.240837	-0.486875	0.754306
C189	C	0.574171	-0.153541	1.087640
C190	C	-0.045144	-0.867615	0.703403
C191	C	0.288190	-0.534282	1.036737
C192	C	0.621523	-0.200949	1.370070
C193	C	-0.045139	-0.867614	0.782206
C194	C	0.288194	-0.534281	1.115540
C195	C	0.621527	-0.200948	1.448873
C196	C	-0.139848	-0.772851	0.782227
C197	C	0.193485	-0.439518	1.115560
C198	C	0.526818	-0.106185	1.448893
C199	C	-0.139846	-0.772849	0.703425
C200	C	0.193487	-0.439516	1.036758
C201	C	0.526820	-0.106182	1.370092
C202	C	-0.092495	-0.820234	0.664018
C203	C	0.240839	-0.486901	0.997351
C204	C	0.574172	-0.153568	1.330685
H205	H	0.133736	-0.939304	-0.000214
H206	H	0.467069	-0.605971	0.333120
H207	H	0.800403	-0.272637	0.666453
F208	F	0.346122	-0.921437	-0.090770
F209	F	0.679455	-0.588103	0.242563
F210	F	1.012789	-0.254770	0.575896
F211	F	0.276341	-0.953071	-0.000228
F212	F	0.609675	-0.619738	0.333106
F213	F	0.943008	-0.286404	0.666439
H214	H	-0.207313	-0.803344	0.571219
H215	H	0.126020	-0.470010	0.904552
H216	H	0.459353	-0.136677	1.237886
F217	F	0.040368	-0.189045	-0.000237
F218	F	0.373702	0.144289	0.333096
F219	F	0.707035	0.477622	0.666430
H220	H	-0.178392	-0.734239	0.328230
H221	H	0.154941	-0.400906	0.661563
H222	H	0.488275	-0.067573	0.994896
H223	H	0.461453	-0.731253	0.079391
H224	H	0.794786	-0.397920	0.412725
H225	H	1.128120	-0.064586	0.746058
F226	F	0.038151	-0.839426	0.418466
F227	F	0.371484	-0.506093	0.751799
F228	F	0.704818	-0.172759	1.085132
F229	F	-0.227541	-0.600923	-0.000210
F230	F	0.105792	-0.267589	0.333123
F231	F	0.439126	0.065744	0.666457
H232	H	-0.006581	-0.906198	0.814273
H233	H	0.326752	-0.572865	1.147607
H234	H	0.660085	-0.239531	1.480940
F235	F	-0.225346	-0.451380	-0.000231
F236	F	0.107987	-0.118047	0.333103
F237	F	0.441321	0.215287	0.666436
F238	F	0.005255	-0.918044	0.661462
F239	F	0.338588	-0.584711	0.994796
F240	F	0.671922	-0.251378	1.328129
F241	F	-0.190241	-0.722419	0.661507
F242	F	0.143092	-0.389086	0.994840
F243	F	0.476426	-0.055753	1.328173
F244	F	0.538679	-0.687359	-0.000190
F245	F	0.872013	-0.354026	0.333143
F246	F	1.205346	-0.020693	0.666477
H247	H	0.026600	-0.046436	-0.000315
H248	H	0.359933	0.286898	0.333018
H249	H	0.693266	0.620231	0.666351
F250	F	0.038149	-0.839442	0.581130
F251	F	0.371482	-0.506108	0.914464
F252	F	0.704816	-0.172775	1.247797
F253	F	-0.223136	-0.801052	0.418410
F254	F	0.110197	-0.467719	0.751744
F255	F	0.443530	-0.134385	1.085077
F256	F	0.008707	-0.258903	-0.090792
F257	F	0.342041	0.074431	0.242541
F258	F	0.675374	0.407764	0.575875
H259	H	0.484992	-0.907249	-0.079808
H260	H	0.818325	-0.573915	0.253526
H261	H	1.151659	-0.240582	0.586859
F262	F	0.688223	-0.685167	-0.000195
F263	F	1.021557	-0.351834	0.333138
F264	F	1.354890	-0.018500	0.666471
F265	F	0.319350	-0.721189	0.090374
F266	F	0.652683	-0.387856	0.423708
F267	F	0.986016	-0.054523	0.757041
F268	F	0.006520	-0.408444	-0.090759
F269	F	0.339853	-0.075110	0.242574
F270	F	0.673186	0.258223	0.575908
F271	F	0.573685	-0.948717	-0.000228
F272	F	0.907018	-0.615383	0.333106
F273	F	1.240351	-0.282050	0.666439
H274	H	0.712049	-0.930828	-0.000252
H275	H	1.045383	-0.597495	0.333082
H276	H	1.378716	-0.264162	0.666415
H277	H	-0.181436	-0.374100	0.079340
H278	H	0.151897	-0.040767	0.412673
H279	H	0.485231	0.292566	0.746006
F280	F	0.241337	-0.691719	-0.000181
F281	F	0.574670	-0.358386	0.333153
F282	F	0.908003	-0.025052	0.666486
H283	H	-0.178389	-0.734219	0.185267
H284	H	0.154944	-0.400885	0.518600
H285	H	0.488278	-0.067552	0.851933
F286	F	-0.190242	-0.722429	0.824171
F287	F	0.143092	-0.389096	1.157505
F288	F	0.476425	-0.055762	1.490838
F289	F	0.091788	-0.693906	-0.000182
F290	F	0.425122	-0.360572	0.333151
F291	F	0.758455	-0.027239	0.666485
H292	H	-0.179506	-0.242669	0.079316
H293	H	0.153828	0.090665	0.412649
H294	H	0.487161	0.423998	0.745983
H295	H	0.020044	-0.493322	-0.000192
H296	H	0.353377	-0.159988	0.333141
H297	H	0.686711	0.173345	0.666475
H298	H	-0.203099	-0.015673	-0.000302
H299	H	0.130234	0.317661	0.333031
H300	H	0.463567	0.650994	0.666365
F301	F	-0.220989	-0.154037	-0.000291
F302	F	0.112344	0.179296	0.333043
F303	F	0.445678	0.512630	0.666376
H304	H	0.018124	-0.624756	-0.000148
H305	H	0.351457	-0.291423	0.333186
H306	H	0.684790	0.041910	0.666519
H307	H	-0.006579	-0.906158	0.185227
H308	H	0.326754	-0.572824	0.518561
H309	H	0.660088	-0.239491	0.851894
H310	H	-0.006578	-0.906166	0.328184
H311	H	0.326755	-0.572833	0.661518
H312	H	0.660089	-0.239499	0.994851
