data_functionalizedCrystal
_audit_creation_method	'MofGen! by Chris Wilmer'
_symmetry_space_group_name_H-M	'P1'
_symmetry_Int_Tables_number	1
_symmetry_cell_setting	triclinic
loop_
_symmetry_equiv_pos_as_xyz
  x,y,z
_cell_length_a	20.919309
_cell_length_b	16.704494
_cell_length_c	16.704482
_cell_angle_alpha	119.824976
_cell_angle_beta	89.771787
_cell_angle_gamma	60.955789
loop_
_atom_site_label
_atom_site_type_symbol
_atom_site_fract_x
_atom_site_fract_y
_atom_site_fract_z
Zr1	Zr	0.680590	0.800963	0.107766
O2	O	0.586907	0.963751	0.241973
O3	O	0.704163	0.635999	0.061232
O4	O	0.717619	0.785053	0.227156
O5	O	0.568690	0.828006	-0.048701
O6	O	0.826581	0.774977	0.221602
O7	O	0.573451	0.814698	0.076049
O8	O	0.802510	0.508347	-0.075207
O9	O	0.592762	1.094635	0.248107
O10	O	0.801751	0.697137	0.043755
O11	O	0.716881	0.714588	-0.045200
O12	O	0.732724	0.890080	0.150155
O13	O	0.647855	0.907531	0.061200
Zr14	Zr	0.846779	0.806118	-0.100055
Zr15	Zr	0.854372	0.784892	0.098907
Zr16	Zr	0.672998	0.822188	-0.091197
Zr17	Zr	0.689927	1.009708	0.117548
Zr18	Zr	0.837442	0.597372	-0.109838
O19	O	0.823207	0.971081	-0.053521
O20	O	0.834003	0.940901	0.229378
O21	O	0.576112	0.993931	-0.040925
O22	O	0.940462	0.643329	-0.234262
O23	O	0.951258	0.613150	0.048636
O24	O	0.693367	0.666179	-0.221667
O25	O	0.958679	0.779074	0.056412
O26	O	0.809750	0.822027	-0.219445
O27	O	0.700788	0.832103	-0.213891
O28	O	0.953919	0.792383	-0.068338
O29	O	0.730895	1.081862	0.241066
O30	O	0.796474	0.525218	-0.233355
O31	O	0.934608	0.512445	-0.240396
O32	O	0.940643	0.495574	-0.082248
O33	O	0.586727	1.111507	0.089959
O34	O	0.724860	1.098733	0.082917
O35	O	0.794645	0.717001	-0.142444
O36	O	0.879515	0.699549	-0.053490
O37	O	0.810489	0.892492	0.052910
O38	O	0.725619	0.909943	-0.036044
C39	C	0.752006	0.542432	-0.008381
C40	C	0.748042	0.453814	-0.012534
C41	C	0.829217	0.269055	0.072523
C42	C	0.825495	0.185790	0.068624
C43	C	0.736881	0.204012	-0.024239
C44	C	0.740603	0.287277	-0.020339
C45	C	0.786771	0.319796	0.028045
C46	C	0.790489	0.403068	0.031950
C47	C	0.701880	0.421283	-0.060918
C48	C	0.698158	0.338018	-0.064818
C49	C	0.546310	0.823641	0.014936
C50	C	0.472536	0.830464	0.018696
C51	C	0.473905	0.732957	-0.035072
C52	C	0.404583	0.739374	-0.031536
C53	C	0.333893	0.843298	0.025774
C54	C	0.332526	0.940812	0.079544
C55	C	0.401846	0.934395	0.076002
C56	C	0.122787	0.867714	0.039242
C57	C	0.053464	0.874123	0.042782
C58	C	0.125527	0.672684	-0.068299
C59	C	0.194846	0.666276	-0.071831
C60	C	0.193472	0.763790	-0.018066
C61	C	0.263034	0.849859	0.029392
C62	C	0.264330	0.757228	-0.021690
C63	C	0.981059	0.783439	-0.007225
C64	C	1.054834	0.776617	-0.010986
C65	C	0.773182	0.776991	0.252727
C66	C	0.776405	0.767980	0.337191
C67	C	0.775364	1.064649	0.016092
C68	C	0.779327	1.153266	0.020245
C69	C	0.816979	0.654575	0.400707
C70	C	0.813951	0.663034	0.321341
C71	C	0.741886	0.864474	0.432418
C72	C	0.744913	0.856015	0.511784
C73	C	0.782460	0.751062	0.495923
C74	C	0.785483	0.742604	0.575292
C75	C	0.713422	0.944042	0.686366
C76	C	0.710394	0.952501	0.607000
C77	C	0.754187	0.830089	0.754984
C78	C	0.750963	0.839098	0.670518
C79	C	0.969380	0.522330	-0.019462
C80	C	1.039191	0.426890	-0.027375
C81	C	0.742509	0.568981	-0.257253
C82	C	0.735322	0.489374	-0.345870
C83	C	0.959883	0.548880	-0.268333
C84	C	1.026471	0.462450	-0.360711
C85	C	0.567487	1.058201	0.276044
C86	C	0.500899	1.144630	0.368422
C87	C	0.557989	1.084750	0.027173
C88	C	0.488178	1.180190	0.035086
C89	C	0.784861	1.038099	0.264964
C90	C	0.792048	1.117706	0.353581
C91	C	1.031383	0.380811	0.019677
C92	C	1.096973	0.291145	0.012261
C93	C	1.170369	0.247555	-0.042214
C94	C	1.178176	0.293643	-0.089268
C95	C	1.112587	0.383313	-0.081845
C96	C	0.772538	0.453249	-0.438255
C97	C	0.765783	0.378463	-0.521528
C98	C	0.721814	0.339796	-0.512414
C99	C	0.684593	0.375928	-0.420019
C100	C	0.691345	0.450719	-0.336748
C101	C	1.102050	0.412752	-0.357660
C102	C	1.164623	0.331553	-0.444452
C103	C	1.151616	0.300047	-0.534293
C104	C	1.076030	0.349754	-0.537342
C105	C	1.013458	0.430958	-0.450551
C106	C	0.425320	1.194338	0.365371
C107	C	0.362748	1.275564	0.452164
C108	C	0.375755	1.307073	0.542006
C109	C	0.451341	1.257361	0.545054
C110	C	0.513912	1.176143	0.458263
C111	C	0.495987	1.226277	-0.011958
C112	C	0.430399	1.315964	-0.004519
C113	C	0.357003	1.359556	0.049959
C114	C	0.349196	1.313465	0.097009
C115	C	0.414784	1.223785	0.089575
C116	C	0.836022	1.156350	0.344436
C117	C	0.842790	1.231137	0.427693
C118	C	0.805579	1.267287	0.520094
C119	C	0.761603	1.228636	0.529238
C120	C	0.754840	1.153843	0.445981
H121	H	0.866803	0.295540	0.111928
H122	H	0.324798	1.373207	0.612670
F123	F	0.411460	1.160817	0.269764
F124	F	0.406461	1.174739	0.139644
H125	H	0.878598	1.262600	0.420229
F126	F	0.812782	1.346891	0.608696
F127	F	0.708028	1.112733	0.455730
H128	H	0.808342	0.484724	-0.445695
F129	F	0.839622	0.437679	0.083447
F130	F	0.870672	0.131788	0.115962
F131	F	0.714636	0.260195	-0.601048
H132	H	0.531460	0.648331	-0.081744
F133	F	0.721998	1.267127	0.627587
F134	F	1.218219	0.213620	-0.626657
F135	F	0.875632	1.117890	0.246103
F136	F	0.701937	0.976162	0.449278
F137	F	0.574094	1.179902	-0.069941
F138	F	0.438724	1.364999	-0.054603
H139	H	0.699302	0.177508	-0.063644
F140	F	0.287205	1.455002	0.057862
H141	H	0.289429	1.348971	0.141365
H142	H	0.842061	0.584465	0.243813
H143	H	1.118955	0.420820	-0.120168
H144	H	0.660571	0.311526	-0.104215
F145	F	0.933022	0.483838	-0.453814
F146	F	0.656698	0.475300	-0.108251
H147	H	0.971627	0.416298	0.064048
F148	F	1.115910	0.446271	-0.262053
F149	F	0.594347	1.123240	0.461525
H150	H	0.661040	0.480121	-0.261528
F151	F	0.805404	0.340019	-0.619852
F152	F	0.856930	0.542879	0.383831
F153	F	-0.021772	0.984738	0.103790
H154	H	0.405705	0.659974	-0.075321
H155	H	0.252402	0.581647	-0.118481
F156	F	0.676681	1.046737	0.787712
F157	F	0.126981	0.568910	-0.125519
H158	H	0.121659	0.947115	0.083039
H159	H	0.400726	1.013797	0.119774
F160	F	0.257289	1.051418	0.140531
F161	F	0.339563	0.646629	-0.082689
F162	F	0.187796	0.960460	0.090384
F163	F	0.670439	1.064193	0.623867
F164	F	0.825440	0.630905	0.558411
H165	H	0.301208	1.316027	0.449663
H166	H	1.090601	0.253631	0.050579
H167	H	0.648794	0.344434	-0.412613
H168	H	1.223769	0.174539	-0.048251
H169	H	1.226164	0.291088	-0.441952
H170	H	1.065451	0.324091	-0.610503
H171	H	1.237943	0.258139	-0.133620
H172	H	0.461923	1.283027	0.618214
