data_functionalizedCrystal
_audit_creation_method	'MofGen! by Chris Wilmer'
_symmetry_space_group_name_H-M	'P1'
_symmetry_Int_Tables_number	1
_symmetry_cell_setting	triclinic
loop_
_symmetry_equiv_pos_as_xyz
  x,y,z
_cell_length_a	15.944545
_cell_length_b	15.538191
_cell_length_c	14.750135
_cell_angle_alpha	97.578019
_cell_angle_beta	77.358569
_cell_angle_gamma	65.384133
loop_
_atom_site_label
_atom_site_type_symbol
_atom_site_fract_x
_atom_site_fract_y
_atom_site_fract_z
O1	O	-0.297277	1.270347	0.079830
O2	O	-0.200291	0.996092	0.079834
O3	O	-0.373340	1.140709	0.079820
O4	O	-0.124228	1.125730	0.079843
O5	O	-0.324401	1.099806	-0.079842
O6	O	-0.151352	0.955189	-0.079829
O7	O	-0.248338	1.229444	-0.079832
Zn8	Zn	-0.192075	1.085822	-0.105180
Zn9	Zn	-0.256554	1.139714	0.105182
O10	O	-0.075289	1.084827	-0.079819
C11	C	-0.165675	0.940546	0.000003
C12	C	-0.135449	0.835974	0.000004
C13	C	-0.435728	0.548168	-0.000009
C14	C	-0.407307	0.449904	-0.000006
C15	C	-0.247440	0.427471	0.000009
C16	C	-0.275847	0.525734	0.000001
C17	C	-0.369993	0.586076	-0.000007
C18	C	-0.210111	0.563641	0.000003
C19	C	-0.238518	0.661897	-0.000000
C20	C	-0.332660	0.722245	-0.000005
C21	C	-0.398399	0.684331	-0.000010
C22	C	-0.115968	0.503300	0.000018
C23	C	-0.050232	0.541207	0.000020
C24	C	-0.078636	0.639462	0.000010
C25	C	-0.172779	0.699811	0.000005
C26	C	-0.012897	0.677376	0.000015
C27	C	-0.041304	0.775632	0.000012
C28	C	-0.201185	0.798066	0.000002
C29	C	-0.379975	1.119636	-0.000012
C30	C	-0.472653	1.117774	-0.000014
C31	C	-0.714260	1.022573	0.000006
C32	C	-0.701801	1.088641	0.078728
C33	C	-0.806280	1.111141	0.000013
C34	C	-0.653585	1.048338	-0.078687
C35	C	-0.642356	1.114394	-0.000002
C36	C	-0.795062	1.177202	0.078800
C37	C	-0.746824	1.136867	-0.078686
C38	C	-0.734423	1.203005	0.000055
C39	C	-0.900712	1.109264	0.000022
C40	C	-0.547931	1.116280	-0.000005
C41	C	-0.068654	1.105900	0.000015
C42	C	0.024022	1.107765	0.000024
C43	C	-0.282955	1.284991	0.000001
C44	C	-0.313182	1.389565	0.000006
N45	N	-0.148072	1.049050	-0.248747
C46	C	-0.423368	1.279176	-0.600498
C47	C	-0.392559	1.253411	-0.701004
C48	C	-0.239343	1.125314	-0.701004
C49	C	-0.270137	1.151071	-0.600496
C50	C	-0.362151	1.228002	-0.550250
C51	C	-0.208920	1.099898	-0.550248
C52	C	-0.239714	1.125650	-0.449749
C53	C	-0.331725	1.202576	-0.399496
C54	C	-0.392945	1.253754	-0.449751
C55	C	-0.116910	1.022963	-0.600496
C56	C	-0.055693	0.971789	-0.550248
C57	C	-0.086484	0.997545	-0.449747
C58	C	-0.178495	1.074471	-0.399494
C59	C	-0.025264	0.946367	-0.399492
C60	C	-0.056058	0.972119	-0.298992
C61	C	-0.209289	1.100223	-0.298994
N62	N	-0.300566	1.176494	0.248748
H63	H	-0.277846	0.847199	-0.000010
H64	H	-0.006209	0.930446	-0.258080
H65	H	-0.091843	1.001995	-0.682329
H66	H	-0.284212	1.162875	-0.258082
H67	H	-0.498291	1.341828	-0.559586
H68	H	-0.164426	1.062674	-0.741926
H69	H	-0.855688	1.231646	0.145426
O70	O	-0.581028	0.983377	-0.158014
C71	C	-0.494109	0.986669	-0.157387
H72	H	-0.498648	1.016590	-0.080660
H73	H	-0.482453	1.036267	-0.203790
C74	C	-0.403203	0.846101	-0.291904
C75	C	-0.408775	0.882842	-0.197665
H76	H	-0.350563	0.782057	-0.316753
H77	H	-0.461762	0.843884	-0.292329
H78	H	-0.393494	0.887442	-0.330561
H79	H	-0.418496	0.841509	-0.159007
H80	H	-0.350215	0.885050	-0.197234
O81	O	-0.451924	1.303000	-0.749964
C82	C	-0.405008	1.263794	-0.849443
H83	H	-0.346614	1.185390	-0.863167
H84	H	-0.370366	1.309801	-0.877970
C85	C	-0.551156	1.361030	-0.884180
C86	C	-0.479441	1.264729	-0.901036
H87	H	-0.597069	1.361611	-0.916007
H88	H	-0.582764	1.387447	-0.817159
H89	H	-0.522276	1.399358	-0.907952
H90	H	-0.508319	1.226406	-0.877253
H91	H	-0.447839	1.238306	-0.968054
O92	O	-0.155925	0.368916	-0.000112
C93	C	-0.088893	0.364895	-0.082815
H94	H	-0.123801	0.432360	-0.110389
H95	H	-0.066241	0.296314	-0.140715
C96	C	0.043756	0.279150	-0.023828
C97	C	0.000885	0.362016	-0.057690
H98	H	0.099138	0.277370	-0.008332
H99	H	-0.001404	0.281856	0.031889
H100	H	0.062625	0.222008	-0.072083
H101	H	-0.017994	0.419156	-0.009431
H102	H	0.046044	0.359320	-0.113399
H103	H	0.019224	0.909149	-0.591170
O104	O	0.064040	0.871569	-0.448414
C105	C	0.054541	0.798556	-0.506513
H106	H	-0.017999	0.832220	-0.521558
H107	H	0.058154	0.738868	-0.467771
C108	C	0.226365	0.712611	-0.583506
C109	C	0.137275	0.753959	-0.601992
H110	H	0.277401	0.685097	-0.642401
H111	H	0.232767	0.761799	-0.544362
H112	H	0.229363	0.662877	-0.551219
H113	H	0.134273	0.803700	-0.634267
H114	H	0.130875	0.704778	-0.641144
H115	H	0.026420	0.492065	0.000030
O116	O	-0.361703	1.227773	-0.301870
C117	C	-0.382108	1.325781	-0.268311
H118	H	-0.398461	1.366429	-0.326236
H119	H	-0.316817	1.327868	-0.250481
C120	C	-0.450421	1.325185	-0.106345
C121	C	-0.470513	1.375112	-0.177487
H122	H	-0.504950	1.355615	-0.050318
H123	H	-0.436671	1.259155	-0.128953
H124	H	-0.396009	1.326929	-0.091498
H125	H	-0.524916	1.373357	-0.192341
H126	H	-0.484275	1.441144	-0.154879
O127	O	-0.360357	0.817741	0.000161
C128	C	-0.439060	0.877904	0.082834
H129	H	-0.438992	0.835892	0.140633
H130	H	-0.509692	0.900549	0.064132
C131	C	-0.429792	1.021383	0.049339
C132	C	-0.429704	0.969786	0.120332
H133	H	-0.424024	1.078062	0.072467
H134	H	-0.376771	0.980851	-0.006362
H135	H	-0.488654	1.040245	0.033760
H136	H	-0.370838	0.950914	0.135900
H137	H	-0.482715	1.010317	0.176036
O138	O	0.078484	0.618694	0.000156
C139	C	0.074347	0.582402	0.082866
H140	H	0.000744	0.584491	0.110430
H141	H	0.085101	0.629572	0.140768
C142	C	0.245127	0.473654	0.023910
C143	C	0.154729	0.476212	0.057759
H144	H	0.294713	0.408152	0.008426
H145	H	0.247916	0.498106	-0.031812
H146	H	0.254075	0.512967	0.072168
H147	H	0.145778	0.436909	0.009498
H148	H	0.151941	0.451750	0.113473
H149	H	-0.475060	0.733464	-0.000022
O150	O	-0.088375	0.407890	0.000189
C151	C	-0.060363	0.390093	0.082875
H152	H	-0.095866	0.461721	0.140670
H153	H	0.021730	0.357869	0.064191
C154	C	-0.049095	0.229450	0.049376
C155	C	-0.092707	0.317424	0.120365
H156	H	-0.069041	0.184622	0.072501
H157	H	-0.067963	0.241438	-0.006333
H158	H	0.019313	0.202609	0.033813
H159	H	-0.161113	0.344269	0.135918
H160	H	-0.073850	0.305439	0.176078
H161	H	-0.467868	1.316406	-0.408839
O162	O	-0.770594	1.161248	-0.158056
C163	C	-0.780558	1.255663	-0.158730
H164	H	-0.737760	1.273479	-0.113315
H165	H	-0.860280	1.311504	-0.127812
C166	C	-0.794128	1.237417	-0.318360
C167	C	-0.741556	1.259295	-0.262586
H168	H	-0.770075	1.239661	-0.382423
H169	H	-0.787419	1.173809	-0.317905
H170	H	-0.860560	1.283954	-0.292584
H171	H	-0.675129	1.212752	-0.288356
H172	H	-0.748253	1.322896	-0.263048
H173	H	-0.512389	0.597301	-0.000021
H174	H	-0.742222	1.279349	0.000099
O175	O	0.022684	0.812293	-0.000031
C176	C	0.111862	0.737972	-0.000002
H177	H	0.117946	0.663474	-0.030230
H178	H	0.115986	0.743698	0.076598
C179	C	0.188016	0.841186	-0.025483
C180	C	0.195492	0.749686	-0.062618
H181	H	0.239603	0.848414	-0.064104
H182	H	0.127934	0.891260	-0.025499
H183	H	0.191449	0.845947	0.038349
H184	H	0.192046	0.744932	-0.126445
H185	H	0.255575	0.699612	-0.062614
H186	H	-0.706678	0.946319	0.000084
O187	O	-0.677875	1.064417	0.158089
C188	C	-0.590540	1.067344	0.157391
H189	H	-0.579557	1.117246	0.111052
H190	H	-0.527549	0.990454	0.126734
C191	C	-0.608555	1.045710	0.317550
C192	C	-0.595069	1.107006	0.260642
H193	H	-0.611346	1.070171	0.381240
H194	H	-0.667393	1.043733	0.318019
H195	H	-0.556060	0.981639	0.291991
H196	H	-0.647569	1.171072	0.286194
H197	H	-0.536240	1.108994	0.260179
H198	H	-0.460845	0.419046	-0.000006
