data_functionalizedCrystal
_audit_creation_method	'MofGen! by Chris Wilmer'
_symmetry_space_group_name_H-M	'P1'
_symmetry_Int_Tables_number	1
_symmetry_cell_setting	triclinic
loop_
_symmetry_equiv_pos_as_xyz
  x,y,z
_cell_length_a	16.109302
_cell_length_b	17.699092
_cell_length_c	15.186229
_cell_angle_alpha	89.997943
_cell_angle_beta	89.994701
_cell_angle_gamma	83.374074
loop_
_atom_site_label
_atom_site_type_symbol
_atom_site_fract_x
_atom_site_fract_y
_atom_site_fract_z
O1	O	1.102966	0.097287	-0.073265
O2	O	1.602966	0.597287	0.426735
O3	O	0.860883	0.109393	-0.073257
O4	O	1.360883	0.609393	0.426743
O5	O	0.988761	-0.006839	-0.073259
O6	O	1.488761	0.493161	0.426741
O7	O	0.975089	0.213519	-0.073263
O8	O	1.475089	0.713519	0.426737
O9	O	0.988752	-0.006841	0.073198
O10	O	1.488752	0.493159	0.573198
O11	O	0.860875	0.109391	0.073200
O12	O	1.360875	0.609391	0.573200
O13	O	1.102957	0.097285	0.073193
O14	O	1.602957	0.597285	0.573193
Zn15	Zn	0.981915	0.103338	0.096449
Zn16	Zn	1.481915	0.603338	0.596449
Zn17	Zn	0.981926	0.103340	-0.096514
Zn18	Zn	1.481926	0.603340	0.403486
O19	O	0.975080	0.213517	0.073194
O20	O	1.475080	0.713517	0.573194
C21	C	0.829905	0.108902	-0.000028
C22	C	1.329905	0.608902	0.499972
C23	C	0.737612	0.107431	-0.000025
C24	C	1.237612	0.607431	0.499975
C25	C	0.525273	0.104030	0.079800
C26	C	1.025273	0.604030	0.579800
C27	C	0.438555	0.102640	0.079797
C28	C	0.938555	0.602640	0.579797
C29	C	0.438575	0.102646	-0.079879
C30	C	0.938575	0.602646	0.420121
C31	C	0.525292	0.104030	-0.079875
C32	C	1.025292	0.604030	0.420125
C33	C	0.568638	0.104726	-0.000033
C34	C	1.068638	0.604726	0.499967
C35	C	0.395203	0.101952	-0.000040
C36	C	0.895203	0.601952	0.499960
C37	C	0.301180	0.100445	-0.000044
C38	C	0.801180	0.600445	0.499956
C39	C	0.662667	0.106232	-0.000029
C40	C	1.162667	0.606232	0.499971
C41	C	0.988265	-0.035037	-0.000032
C42	C	1.488265	0.464963	0.499968
C43	C	0.986792	-0.119057	-0.000036
C44	C	1.486792	0.380943	0.499964
C45	C	0.986107	-0.158525	-0.079871
C46	C	1.486107	0.341475	0.420129
C47	C	0.984717	-0.237470	-0.079872
C48	C	1.484717	0.262530	0.420128
C49	C	0.984019	-0.276946	-0.000037
C50	C	1.484019	0.223054	0.499963
C51	C	0.984702	-0.237473	0.079804
C52	C	1.484702	0.262527	0.579804
C53	C	0.986086	-0.158529	0.079804
C54	C	1.486086	0.341471	0.579804
C55	C	0.979121	-0.555846	0.079805
C56	C	1.479121	-0.055846	0.579805
C57	C	0.977740	-0.634796	0.079799
C58	C	1.477740	-0.134796	0.579799
C59	C	0.977753	-0.634787	-0.079870
C60	C	1.477753	-0.134787	0.420130
C61	C	0.979136	-0.555843	-0.079870
C62	C	1.479136	-0.055843	0.420130
C63	C	0.979815	-0.516376	-0.000030
C64	C	1.479815	-0.016376	0.499970
C65	C	0.981320	-0.430775	-0.000030
C66	C	1.481320	0.069225	0.499970
C67	C	0.982520	-0.362547	-0.000036
C68	C	1.482520	0.137453	0.499964
C69	C	1.133936	0.097776	-0.000039
C70	C	1.633936	0.597776	0.499961
C71	C	1.226228	0.099247	-0.000047
C72	C	1.726228	0.599247	0.499953
C73	C	0.975576	0.241716	-0.000035
C74	C	1.475576	0.741716	0.499965
C75	C	0.977049	0.325736	-0.000037
C76	C	1.477049	0.825736	0.499963
N77	N	0.981913	0.103336	0.228142
N78	N	1.481913	0.603336	0.728142
N79	N	0.981934	0.103336	-0.228207
N80	N	1.481934	0.603336	0.271793
C81	C	1.038556	0.051886	0.453864
C82	C	1.538556	0.551886	0.953864
C83	C	1.038559	0.051884	0.546054
C84	C	1.538559	0.551884	1.046054
C85	C	0.925285	0.154789	0.546065
C86	C	1.425285	0.654789	1.046065
C87	C	0.925279	0.154786	0.453877
C88	C	1.425279	0.654786	0.953877
C89	C	0.981919	0.103336	0.407779
C90	C	1.481919	0.603336	0.907779
C91	C	0.981928	0.103336	0.592156
C92	C	1.481928	0.603336	1.092156
C93	C	0.981930	0.103335	0.692112
C94	C	1.481930	0.603335	1.192112
C95	C	0.981916	0.103336	0.307816
C96	C	1.481916	0.603336	0.807816
H97	H	0.403251	0.102074	0.144805
H98	H	0.903251	0.602074	0.644805
H99	H	0.560601	0.104595	-0.144888
H100	H	1.060601	0.604595	0.355112
H101	H	1.084675	0.009991	0.416333
H102	H	1.584675	0.509991	0.916333
H103	H	0.986679	-0.126389	-0.144882
H104	H	1.486679	0.373611	0.355118
H105	H	0.403271	0.102080	-0.144883
H106	H	0.903271	0.602080	0.355117
H107	H	0.984129	-0.269621	0.144807
H108	H	1.484129	0.230379	0.644807
H109	H	0.986632	-0.126394	0.144814
H110	H	1.486632	0.373606	0.644814
H111	H	0.984162	-0.269601	-0.144881
H112	H	1.484162	0.230399	0.355119
H113	H	0.979709	-0.523705	-0.144880
H114	H	1.479709	-0.023705	0.355120
H115	H	0.977196	-0.666930	-0.144880
H116	H	1.477196	-0.166930	0.355120
H117	H	0.979691	-0.523724	0.144816
H118	H	1.479691	-0.023724	0.644816
H119	H	0.879171	0.196680	0.583607
H120	H	1.379171	0.696680	1.083607
H121	H	0.977170	-0.666936	0.144814
H122	H	1.477170	-0.166936	0.644814
H123	H	0.879154	0.196683	0.416351
H124	H	1.379154	0.696683	0.916351
H125	H	0.560562	0.104597	0.144813
H126	H	1.060562	0.604597	0.644813
H127	H	1.084677	0.009988	0.583574
H128	H	1.584677	0.509988	1.083574
