data_functionalizedCrystal
_audit_creation_method	'MofGen! by Chris Wilmer'
_symmetry_space_group_name_H-M	'P1'
_symmetry_Int_Tables_number	1
_symmetry_cell_setting	triclinic
loop_
_symmetry_equiv_pos_as_xyz
  x,y,z
_cell_length_a	18.101398
_cell_length_b	12.759399
_cell_length_c	12.759393
_cell_angle_alpha	90.032031
_cell_angle_beta	89.973031
_cell_angle_gamma	89.989617
loop_
_atom_site_label
_atom_site_type_symbol
_atom_site_fract_x
_atom_site_fract_y
_atom_site_fract_z
Zn1	Zn	1.132223	0.418336	-0.594217
Zn2	Zn	1.132147	0.594055	-0.418536
Zn3	Zn	1.008376	0.418377	-0.418530
Zn4	Zn	1.008367	0.593959	-0.594151
O5	O	1.070278	0.506182	-0.506359
O6	O	1.235846	0.441669	-0.570942
O7	O	1.115701	0.570808	-0.271514
O8	O	1.024840	0.271350	-0.441861
O9	O	1.235790	0.570769	-0.441870
O10	O	1.115829	0.271321	-0.570937
O11	O	1.024767	0.441738	-0.271510
O12	O	0.904742	0.441645	-0.441797
O13	O	1.024824	0.570606	-0.741181
O14	O	0.904735	0.570645	-0.570825
O15	O	1.115821	0.441576	-0.741229
O16	O	1.115692	0.741064	-0.441806
O17	O	1.024751	0.740993	-0.570830
C18	C	1.070233	0.779149	-0.506335
C19	C	1.070281	0.895926	-0.506360
C20	C	0.877868	0.506139	-0.506304
C21	C	0.795554	0.506146	-0.506305
C22	C	1.070330	0.506076	-0.780392
C23	C	1.070352	0.506030	-0.897169
C24	C	0.496463	0.506212	-0.506393
C25	C	0.527767	0.424643	-0.425609
C26	C	0.613385	0.424862	-0.425264
C27	C	0.644845	0.506178	-0.506350
C28	C	0.613748	0.616855	-0.476103
C29	C	0.528103	0.616402	-0.475541
C30	C	0.528075	0.478067	-0.617615
C31	C	0.613726	0.475602	-0.617008
C32	C	0.728705	0.506166	-0.506327
C33	C	0.412603	0.506231	-0.506414
C34	C	1.263440	0.506225	-0.506414
C35	C	1.345754	0.506244	-0.506438
C36	C	1.070344	0.232149	-0.506406
C37	C	1.070372	0.115372	-0.506426
C38	C	1.117688	0.950790	-0.439253
C39	C	1.117736	1.060514	-0.439289
C40	C	1.022963	1.060501	-0.573539
C41	C	1.022920	0.950778	-0.573509
C42	C	1.023019	0.438811	-0.952028
C43	C	1.023037	0.438779	-1.061752
C44	C	1.117725	0.573188	-1.061748
C45	C	1.117704	0.573225	-0.952026
C46	C	1.070269	0.506212	-0.233391
C47	C	1.070391	0.505961	-0.116615
H48	H	0.634410	0.342791	-0.444222
N49	N	1.166117	0.641800	-1.117769
N50	N	1.208382	0.701801	-1.068771
H51	H	1.242566	0.750253	-1.108333
H52	H	1.156249	0.627967	-0.907358
H53	H	0.507181	0.342321	-0.444358
H54	H	0.506219	0.443040	-0.343674
N55	N	0.974503	0.894715	-0.642065
N56	N	1.000519	0.833409	-0.709030
H57	H	0.966330	0.793813	-0.757451
N58	N	0.639040	0.448206	-0.321873
N59	N	0.593692	0.464395	-0.249747
H60	H	0.611809	0.480885	-0.176722
N61	N	0.639229	0.373436	-0.645639
N62	N	0.677148	0.361373	-0.726652
H63	H	0.695161	0.289216	-0.746873
H64	H	0.984462	0.384097	-0.907367
H65	H	1.156254	0.906131	-0.384578
N66	N	0.974593	1.116549	-0.642122
N67	N	0.974637	1.214514	-0.642142
H68	H	0.940474	1.254099	-0.690579
H69	H	0.508093	0.640269	-0.394233
H70	H	0.634126	0.679259	-0.533102
N71	N	0.502131	0.695233	-0.546132
N72	N	0.547260	0.750413	-0.595649
H73	H	0.528921	0.806092	-0.645498
N74	N	0.640618	0.647307	-0.375204
N75	N	0.682661	0.587691	-0.325398
H76	H	0.701637	0.609191	-0.254135
N77	N	0.974692	0.370125	-1.117808
N78	N	0.927502	0.407054	-1.179013
H79	H	0.893357	0.358566	-1.218606
H80	H	0.506489	0.398766	-0.645116
N81	N	0.640546	0.544761	-0.696542
N82	N	0.683222	0.618038	-0.672857
H83	H	0.702144	0.666913	-0.729020
N84	N	0.502694	0.552619	-0.693112
N85	N	0.461503	0.626189	-0.665270
H86	H	0.443579	0.678851	-0.718579
H87	H	1.156340	1.105179	-0.384645
