data_functionalizedCrystal
_audit_creation_method	'MofGen! by Chris Wilmer'
_symmetry_space_group_name_H-M	'P1'
_symmetry_Int_Tables_number	1
_symmetry_cell_setting	triclinic
loop_
_symmetry_equiv_pos_as_xyz
  x,y,z
_cell_length_a	18.050589
_cell_length_b	14.908783
_cell_length_c	14.909241
_cell_angle_alpha	96.414852
_cell_angle_beta	93.322478
_cell_angle_gamma	93.319292
loop_
_atom_site_label
_atom_site_type_symbol
_atom_site_fract_x
_atom_site_fract_y
_atom_site_fract_z
Zn1	Zn	-0.200479	1.413380	0.591799
Zn2	Zn	0.299521	1.913380	1.091799
Zn3	Zn	-0.332292	1.404521	0.440435
Zn4	Zn	0.167708	1.904521	0.940435
Zn5	Zn	-0.215711	1.253268	0.431700
Zn6	Zn	0.284289	1.753268	0.931700
Zn7	Zn	-0.332233	1.261953	0.583010
Zn8	Zn	0.167767	1.761953	1.083010
O9	O	-0.270179	1.333280	0.511736
O10	O	0.229821	1.833280	1.011736
O11	O	-0.211615	1.538878	0.579053
O12	O	0.288385	2.038878	1.079053
O13	O	-0.323227	1.377114	0.312606
O14	O	0.176773	1.877114	0.812606
O15	O	-0.109761	1.274580	0.452961
O16	O	0.390239	1.774580	0.952961
O17	O	-0.308457	1.532369	0.467847
O18	O	0.191543	2.032369	0.967847
O19	O	-0.098570	1.392214	0.570584
O20	O	0.401430	1.892214	1.070584
O21	O	-0.237575	1.265990	0.306189
O22	O	0.262425	1.765990	0.806189
O23	O	-0.237517	1.127747	0.444438
O24	O	0.262483	1.627747	0.944438
O25	O	-0.308356	1.289382	0.710845
O26	O	0.191644	1.789382	1.210845
O27	O	-0.323126	1.134128	0.555605
O28	O	0.176874	1.634128	1.055605
O29	O	-0.211557	1.400635	0.717303
O30	O	0.288443	1.900635	1.217303
O31	O	-0.436213	1.385536	0.459325
O32	O	0.063787	1.885536	0.959325
O33	O	-0.436170	1.280791	0.564074
O34	O	0.063830	1.780791	1.064074
C35	C	-0.281968	1.098093	0.498121
C36	C	0.218032	1.598093	0.998121
C37	C	-0.287029	0.997480	0.492317
C38	C	0.212971	1.497480	0.992317
C39	C	-0.195817	0.815203	0.597389
C40	C	0.304183	1.315203	1.097389
C41	C	-0.200569	0.720669	0.591939
C42	C	0.299431	1.220669	1.091939
C43	C	-0.301281	0.713874	0.475964
C44	C	0.198719	1.213874	0.975964
C45	C	-0.296529	0.808408	0.481414
C46	C	0.203471	1.308408	0.981414
C47	C	-0.243796	0.859070	0.542129
C48	C	0.256204	1.359070	1.042129
C49	C	-0.239048	0.953607	0.547583
C50	C	0.260952	1.453607	1.047583
C51	C	-0.339756	0.946810	0.431604
C52	C	0.160244	1.446810	0.931604
C53	C	-0.344508	0.852275	0.426155
C54	C	0.155492	1.352275	0.926155
C55	C	-0.463137	1.333170	0.511715
C56	C	0.036863	1.833170	1.011715
C57	C	-0.545680	1.333208	0.511740
C58	C	-0.045680	1.833208	1.011740
C59	C	-0.745132	1.276306	0.568685
C60	C	-0.245132	1.776306	1.068685
C61	C	-0.799834	1.249471	0.484812
C62	C	-0.299834	1.749471	0.984812
C63	C	-0.696805	1.333297	0.511757
C64	C	-0.196805	1.833297	1.011757
C65	C	-0.789182	1.360177	0.595642
C66	C	-0.289182	1.860177	1.095642
C67	C	-0.842785	1.333383	0.511781
C68	C	-0.342785	1.833383	1.011781
C69	C	-0.750424	1.306417	0.427838
C70	C	-0.250424	1.806417	0.927838
C71	C	-0.739764	1.417164	0.538726
C72	C	-0.239764	1.917164	1.038726
C73	C	-0.794444	1.390357	0.454798
C74	C	-0.294444	1.890357	0.954798
C75	C	-0.612710	1.333246	0.511745
C76	C	-0.112710	1.833246	1.011745
C77	C	-0.926879	1.333433	0.511784
C78	C	-0.426879	1.833433	1.011784
C79	C	-0.076465	1.333417	0.511779
C80	C	0.423535	1.833417	1.011779
C81	C	0.006085	1.333475	0.511797
C82	C	0.506085	1.833475	1.011797
C83	C	-0.258251	1.346966	0.747836
C84	C	0.241749	1.846966	1.247836
C85	C	-0.253168	1.352797	0.848448
C86	C	0.246832	1.852797	1.348448
C87	C	-0.258343	1.569386	0.525405
C88	C	0.241657	2.069386	1.025405
C89	C	-0.253300	1.670001	0.531230
C90	C	0.246700	2.170001	1.031230
C91	C	-0.282004	1.319700	0.276557
C92	C	0.217996	1.819700	0.776557
C93	C	-0.286869	1.314044	0.175956
C94	C	0.213131	1.814044	0.675956
C95	C	-0.344430	1.247910	1.030787
C96	C	0.155570	1.747910	1.530787
C97	C	-0.339657	1.253387	1.125320
C98	C	0.160343	1.753387	1.625320
C99	C	-0.238852	1.369231	1.132051
C100	C	0.261148	1.869231	1.632051
C101	C	-0.243625	1.363754	1.037518
C102	C	0.256375	1.863754	1.537518
C103	C	-0.296415	1.303091	0.986888
C104	C	0.203585	1.803091	1.486888
C105	C	-0.301185	1.297611	0.892353
C106	C	0.198815	1.797611	1.392353
C107	C	-0.200384	1.413459	0.899086
C108	C	0.299616	1.913459	1.399086
C109	C	-0.195611	1.418935	0.993619
C110	C	0.304389	1.918935	1.493619
H111	H	-0.196111	0.994854	0.597021
H112	H	0.303889	1.494854	1.097021
N113	N	-0.717953	1.215762	0.628985
N114	N	-0.217953	1.715762	1.128985
N115	N	-0.673773	1.245058	0.694787
N116	N	-0.173773	1.745058	1.194787
H117	H	-0.654576	1.202298	0.737370
H118	H	-0.154576	1.702298	1.237370
H119	H	-0.161283	1.458386	0.863334
H120	H	0.338717	1.958386	1.363334
N121	N	-0.728979	1.277835	0.338821
N122	N	-0.228979	1.777835	0.838821
N123	N	-0.746249	1.321637	0.274820
N124	N	-0.246249	1.821637	0.774820
H125	H	-0.731101	1.301448	0.211954
H126	H	-0.231101	1.801448	0.711954
N127	N	-0.832709	1.160540	0.456208
N128	N	-0.332709	1.660540	0.956208
N129	N	-0.817863	1.096589	0.500310
N130	N	-0.317863	1.596589	1.000310
H131	H	-0.841078	1.033779	0.480114
H132	H	-0.341078	1.533779	0.980114
H133	H	-0.387401	1.198499	0.989563
H134	H	0.112599	1.698499	1.489563
N135	N	-0.388759	0.991617	0.375139
N136	N	0.111241	1.491617	0.875139
N137	N	-0.388481	0.976202	0.291014
N138	N	0.111519	1.476202	0.791014
H139	H	-0.423090	1.007847	0.251137
H140	H	0.076910	1.507847	0.751137
N141	N	-0.151563	0.675847	0.648378
N142	N	0.348437	1.175847	1.148378
N143	N	-0.108455	0.621268	0.613587
N144	N	0.391545	1.121268	1.113587
H145	H	-0.073842	0.589612	0.653449
H146	H	0.426158	1.089612	1.153449
N147	N	-0.821435	1.450856	0.394338
N148	N	-0.321435	1.950856	0.894338
N149	N	-0.810015	1.437889	0.312147
N150	N	-0.310015	1.937889	0.812147
H151	H	-0.829079	1.480613	0.269444
H152	H	-0.329079	1.980613	0.769444
N153	N	-0.355132	0.662102	0.413948
N154	N	0.144868	1.162102	0.913948
N155	N	-0.359360	0.577697	0.409090
N156	N	0.140640	1.077697	0.909090
H157	H	-0.397393	0.541131	0.365290
H158	H	0.102607	1.041131	0.865290
N159	N	-0.141947	0.866946	0.659402
N160	N	0.358053	1.366946	1.159402
N161	N	-0.074238	0.856077	0.652932
N162	N	0.425762	1.356077	1.152932
H163	H	-0.036190	0.892619	0.696729
H164	H	0.463810	1.392619	1.196729
H165	H	-0.378756	1.208454	1.161058
H166	H	0.121244	1.708454	1.661058
H167	H	-0.152632	1.468328	1.034854
H168	H	0.347368	1.968328	1.534854
H169	H	-0.195879	1.418627	1.173290
H170	H	0.304121	1.918627	1.673290
N171	N	-0.706867	1.506070	0.567372
N172	N	-0.206867	2.006070	1.067372
N173	N	-0.717145	1.544071	0.644298
N174	N	-0.217145	2.044071	1.144298
H175	H	-0.693910	1.606863	0.664539
H176	H	-0.193910	2.106863	1.164539
H177	H	-0.387439	0.811013	0.376719
H178	H	0.112561	1.311013	0.876719
N179	N	-0.810763	1.388642	0.684625
N180	N	-0.310763	1.888642	1.184625
N181	N	-0.794017	1.344401	0.748467
N182	N	-0.294017	1.844401	1.248467
H183	H	-0.809257	1.364497	0.811313
H184	H	-0.309257	1.864497	1.311313
H185	H	-0.344162	1.248206	0.851131
H186	H	0.155838	1.748206	1.351131
