data_functionalizedCrystal
_audit_creation_method	'MofGen! by Chris Wilmer'
_symmetry_space_group_name_H-M	'P1'
_symmetry_Int_Tables_number	1
_symmetry_cell_setting	triclinic
loop_
_symmetry_equiv_pos_as_xyz
  x,y,z
_cell_length_a	11.792241
_cell_length_b	14.853567
_cell_length_c	13.930277
_cell_angle_alpha	89.995755
_cell_angle_beta	89.995317
_cell_angle_gamma	83.914173
loop_
_atom_site_label
_atom_site_type_symbol
_atom_site_fract_x
_atom_site_fract_y
_atom_site_fract_z
O1	O	0.148181	1.196945	-0.079765
O2	O	0.165833	0.934554	-0.079782
O3	O	-0.008203	1.072117	-0.079766
O4	O	0.322217	1.059382	-0.079780
O5	O	-0.008206	1.072098	0.079896
O6	O	0.165829	0.934535	0.079880
O7	O	0.148177	1.196926	0.079897
Zn8	Zn	0.157003	1.065728	0.105238
Zn9	Zn	0.157008	1.065753	-0.105123
O10	O	0.322213	1.059363	0.079881
C11	C	0.165032	0.900953	0.000047
C12	C	0.162635	0.800860	0.000041
C13	C	-0.050491	1.071308	0.000064
C14	C	-0.176489	1.068913	0.000063
C15	C	0.049122	0.387884	0.000068
C16	C	0.255880	0.367408	0.000058
C17	C	0.258134	0.461451	0.000055
C18	C	0.155880	0.518715	0.000056
C19	C	0.051372	0.481936	0.000062
C20	C	0.362640	0.498237	0.000040
C21	C	0.364898	0.592285	0.000035
C22	C	0.262642	0.649550	0.000044
C23	C	0.158131	0.612766	0.000050
C24	C	0.055877	0.670030	0.000052
C25	C	-0.048637	0.633248	0.000065
C26	C	-0.050883	0.539201	0.000070
C27	C	0.264889	0.743596	0.000039
C28	C	0.058127	0.764081	0.000046
C29	C	-0.407174	1.064511	0.000047
C30	C	-0.278804	1.066957	0.000056
C31	C	0.364501	1.060173	0.000049
C32	C	0.490500	1.062567	0.000044
C33	C	0.148979	1.230527	0.000066
C34	C	0.151376	1.330621	0.000066
N35	N	0.156999	1.065717	0.248804
N36	N	0.157003	1.065771	-0.248689
C37	C	0.234041	1.004838	0.701067
C38	C	0.079966	1.126693	0.701050
C39	C	0.079963	1.126682	0.600554
C40	C	0.157000	1.065749	0.550310
C41	C	0.234042	1.004827	0.600562
C42	C	0.002930	1.187610	0.550295
C43	C	0.002925	1.187602	0.449793
C44	C	0.079958	1.126664	0.399547
C45	C	0.157001	1.065738	0.449805
C46	C	0.234039	1.004805	0.399561
C47	C	0.311078	0.943875	0.449817
C48	C	0.311075	0.943889	0.550316
C49	C	0.079961	1.126650	0.299048
C50	C	0.234040	1.004794	0.299056
H51	H	-0.025142	0.810700	0.000052
O52	O	-0.071957	1.246870	0.598951
C53	C	-0.139978	1.300623	0.533047
H54	H	-0.093434	1.301883	0.461409
H55	H	-0.157155	1.372529	0.562087
H56	H	-0.224347	1.270924	0.522354
H57	H	0.017242	1.176263	0.258135
H58	H	0.373798	0.894282	0.591241
H59	H	-0.131891	0.679884	0.000060
O60	O	0.461885	0.442519	-0.000090
C61	C	0.466775	0.387517	-0.082784
H62	H	0.376679	0.382326	-0.110346
H63	H	0.508934	0.317047	-0.064179
H64	H	0.518665	0.418699	-0.140695
H65	H	0.296762	0.955226	0.741988
H66	H	-0.135972	0.509244	0.000104
H67	H	0.339131	0.320779	0.000048
H68	H	-0.035970	0.357932	0.000082
H69	H	0.449998	0.622224	0.000025
O70	O	0.309035	0.945693	0.250296
C71	C	0.421422	0.960876	0.274868
H72	H	0.422145	1.033058	0.302483
H73	H	0.478366	0.950776	0.208776
H74	H	0.454637	0.911074	0.333212
O75	O	0.366468	0.779222	-0.000102
C76	C	0.428793	0.750036	-0.082811
H77	H	0.397764	0.684665	-0.110375
H78	H	0.523291	0.737451	-0.064224
H79	H	0.415723	0.804390	-0.140713
O80	O	0.386069	0.884777	0.401049
C81	C	0.498460	0.899958	0.425614
H82	H	0.499185	0.972136	0.453239
H83	H	0.555395	0.889867	0.359517
H84	H	0.531681	0.850149	0.483948
O85	O	0.005181	1.185795	0.750002
C86	C	0.021724	1.172759	0.849481
H87	H	0.063981	1.101294	0.863218
H88	H	-0.064204	1.182376	0.887685
H89	H	0.078769	1.224065	0.877982
O90	O	-0.072170	1.246572	0.400974
C91	C	-0.142301	1.197787	0.343024
H92	H	-0.097066	1.127547	0.327883
H93	H	-0.160511	1.235309	0.272385
H94	H	-0.226033	1.191059	0.381943
