data_functionalizedCrystal
_audit_creation_method	'MofGen! by Chris Wilmer'
_symmetry_space_group_name_H-M	'P1'
_symmetry_Int_Tables_number	1
_symmetry_cell_setting	triclinic
loop_
_symmetry_equiv_pos_as_xyz
  x,y,z
_cell_length_a	15.297476
_cell_length_b	15.299816
_cell_length_c	15.296720
_cell_angle_alpha	69.242954
_cell_angle_beta	88.383492
_cell_angle_gamma	72.651764
loop_
_atom_site_label
_atom_site_type_symbol
_atom_site_fract_x
_atom_site_fract_y
_atom_site_fract_z
Zn1	Zn	1.356903	-0.745280	0.873603
Zn2	Zn	1.401316	-0.883172	0.754315
Zn3	Zn	1.228310	-0.691484	0.691232
Zn4	Zn	1.228236	-0.873760	0.873586
O5	O	1.303691	-0.798424	0.798184
O6	O	1.489046	-0.790025	0.884187
O7	O	1.396985	-0.839169	0.619709
O8	O	1.226812	-0.564630	0.689031
O9	O	1.521676	-0.891333	0.796546
O10	O	1.321289	-0.604153	0.823018
O11	O	1.269878	-0.698337	0.573362
O12	O	1.102049	-0.689211	0.689014
O13	O	1.226686	-0.875292	0.999826
O14	O	1.101994	-0.823128	0.822989
O15	O	1.321217	-0.780898	0.999838
O16	O	1.396912	-1.015914	0.796530
O17	O	1.269751	-1.008999	0.884157
C18	C	1.069286	-0.749311	0.749155
C19	C	0.969006	-0.728327	0.728206
C20	C	0.921873	-0.648653	0.648678
C21	C	0.827655	-0.628934	0.628993
C22	C	0.780560	-0.688884	0.688838
C23	C	0.827691	-0.768556	0.768371
C24	C	0.921920	-0.788281	0.788054
C25	C	0.780607	-0.828512	0.828215
C26	C	0.827738	-0.908184	0.907748
C27	C	0.921957	-0.927904	0.927428
C28	C	0.969053	-0.867955	0.867583
C29	C	0.686378	-0.808787	0.808532
C30	C	0.686425	-0.948415	0.947909
C31	C	0.780643	-0.968133	0.967594
C32	C	1.338165	-1.047207	0.847212
C33	C	1.352990	-1.153659	0.868234
C34	C	1.198275	-1.371746	0.648368
C35	C	1.184340	-1.271728	0.628618
C36	C	1.226502	-1.242206	0.688520
C37	C	1.282600	-1.312711	0.768176
C38	C	1.296530	-1.412739	0.787931
C39	C	1.324757	-1.283198	0.828084
C40	C	1.380855	-1.353704	0.907739
C41	C	1.394783	-1.453721	0.927491
C42	C	1.352622	-1.483243	0.867589
C43	C	1.310827	-1.183171	0.808328
C44	C	1.409082	-1.224164	0.947892
C45	C	1.423017	-1.324182	0.967641
C46	C	1.539012	-0.847729	0.847405
C47	C	1.639292	-0.868740	0.868380
C48	C	1.268989	-0.833046	1.033479
C49	C	1.254201	-0.847800	1.133748
C50	C	1.269105	-0.548678	0.748989
C51	C	1.254366	-0.442251	0.728025
C52	C	1.338301	-0.763878	0.563801
C53	C	1.353226	-0.748891	0.463516
C54	C	1.409394	-0.692815	1.416419
C55	C	1.423294	-0.678956	1.322213
C56	C	1.381022	-0.721165	1.275092
C57	C	1.324848	-0.777237	1.322187
C58	C	1.310952	-0.791104	1.416404
C59	C	1.282580	-0.819454	1.275077
C60	C	1.226405	-0.875526	1.322172
C61	C	1.212511	-0.889390	1.416380
C62	C	1.254784	-0.847180	1.463501
C63	C	1.296475	-0.805587	1.180860
C64	C	1.198033	-0.903876	1.180845
C65	C	1.184133	-0.917736	1.275051
H66	H	0.648080	-0.997231	0.996639
H67	H	1.392343	-0.709878	1.198385
F68	F	1.453955	-1.192750	1.011649
H69	H	1.045772	-0.884004	0.883607
F70	F	1.153045	-0.948807	1.130702
F71	F	1.211384	-1.135742	0.667695
F72	F	0.972119	-1.012708	1.012067
H73	H	1.163948	-1.395794	0.599607
F74	F	0.636228	-0.723996	0.723889
H75	H	1.265151	-1.125774	0.743472
F76	F	0.830816	-1.052927	1.052233
F77	F	1.124629	-1.196698	0.543852
H78	H	1.469034	-0.633305	1.283876
F79	F	1.152740	-0.949083	1.466505
F80	F	1.454385	-0.647909	1.466577
F81	F	1.356258	-0.745913	1.130749
F82	F	1.239997	-0.861932	1.563769
F83	F	1.124350	-0.977411	1.325184
H84	H	0.960228	-0.599855	0.599956
F85	F	1.454471	-1.528755	1.012280
F86	F	0.680284	-0.667893	0.667887
F87	F	0.777500	-0.544142	0.544353
H88	H	1.363968	-1.564685	0.883663
H89	H	1.468692	-1.381601	1.032498
