data_functionalizedCrystal
_audit_creation_method	'MofGen! by Chris Wilmer'
_symmetry_space_group_name_H-M	'P1'
_symmetry_Int_Tables_number	1
_symmetry_cell_setting	triclinic
loop_
_symmetry_equiv_pos_as_xyz
  x,y,z
_cell_length_a	14.044191
_cell_length_b	23.532357
_cell_length_c	22.610064
_cell_angle_alpha	90.003876
_cell_angle_beta	90.012167
_cell_angle_gamma	88.010034
loop_
_atom_site_label
_atom_site_type_symbol
_atom_site_fract_x
_atom_site_fract_y
_atom_site_fract_z
O1	O	1.256389	0.137249	0.049170
O2	O	0.980468	0.132292	0.049177
O3	O	1.126774	0.052289	0.049161
O4	O	1.110084	0.217252	0.049185
O5	O	1.126733	0.052297	-0.049208
O6	O	0.980427	0.132300	-0.049193
O7	O	1.256348	0.137256	-0.049200
Zn8	Zn	1.118381	0.134780	-0.064814
Zn9	Zn	1.118435	0.134769	0.064791
O10	O	1.110042	0.217260	-0.049184
C11	C	0.945154	0.130128	-0.000007
C12	C	0.839991	0.123660	-0.000005
C13	C	0.589374	0.157706	-0.000006
C14	C	0.647448	0.111845	-0.000012
C15	C	0.754589	0.118421	-0.000008
C16	C	0.482223	0.151131	-0.000010
C17	C	1.126336	0.031054	-0.000026
C18	C	1.125081	-0.032233	-0.000031
C19	C	1.117223	-0.424676	0.053622
C20	C	1.116030	-0.484140	0.053625
O21	O	1.115400	-0.514895	0.099228
N22	N	1.115416	-0.513879	0.000005
C23	C	1.115986	-0.484150	-0.053622
O24	O	1.115353	-0.514906	-0.099230
C25	C	1.117172	-0.424687	-0.053625
C26	C	1.117796	-0.394951	-0.000001
C27	C	1.117846	-0.394940	0.107241
C28	C	1.119041	-0.335480	0.107238
C29	C	1.119613	-0.305756	0.053615
C30	C	1.118990	-0.335491	-0.000005
C31	C	1.117734	-0.394959	-0.107251
C32	C	1.118920	-0.335492	-0.107250
C33	C	1.119544	-0.305756	-0.053626
C34	C	1.120757	-0.246307	-0.053631
N35	N	1.121372	-0.216568	-0.000011
C36	C	1.120799	-0.246292	0.053612
C37	C	1.113492	-0.609027	-0.053612
C38	C	1.112313	-0.668489	-0.053610
C39	C	1.112356	-0.668475	0.053638
C40	C	1.113542	-0.609011	0.053635
C41	C	1.114107	-0.579288	0.000008
C42	C	1.123310	-0.121422	0.053600
C43	C	1.124508	-0.061957	0.053592
C44	C	1.124460	-0.061977	-0.053655
C45	C	1.123267	-0.121437	-0.053647
C46	C	1.122688	-0.151158	-0.000015
O47	O	1.121384	-0.215514	-0.099211
O48	O	1.121420	-0.215529	0.099212
C49	C	1.291662	0.139421	-0.000014
C50	C	1.396825	0.145888	-0.000013
C51	C	1.110481	0.238495	0.000004
C52	C	1.111736	0.301781	0.000013
N53	N	1.118351	0.134787	-0.153267
C54	C	1.061290	0.097300	-0.438112
C55	C	1.061281	0.097302	-0.376192
O56	O	1.012726	0.065429	-0.344171
N57	N	1.118390	0.134770	-0.345219
C58	C	1.175520	0.172235	-0.376169
O59	O	1.224096	0.204105	-0.344139
C60	C	1.175534	0.172230	-0.438088
C61	C	1.118413	0.134763	-0.469058
C62	C	1.004174	0.059835	-0.469082
C63	C	1.004182	0.059834	-0.530997
C64	C	1.061306	0.097297	-0.561943
C65	C	1.118421	0.134761	-0.530973
C66	C	1.232668	0.209691	-0.469037
C67	C	1.232677	0.209682	-0.530960
C68	C	1.175556	0.172215	-0.561930
C69	C	1.175552	0.172223	-0.623835
N70	N	1.118442	0.134754	-0.654808
C71	C	1.061319	0.097291	-0.623862
C72	C	1.175489	0.172243	-0.246136
C73	C	1.175471	0.172252	-0.184218
C74	C	1.061232	0.097318	-0.184245
C75	C	1.061246	0.097312	-0.246164
C76	C	1.118379	0.134775	-0.277109
C77	C	1.061340	0.097292	-0.753889
C78	C	1.061350	0.097295	-0.815810
C79	C	1.175592	0.172227	-0.815778
C80	C	1.175578	0.172226	-0.753862
C81	C	1.118449	0.134753	-0.722919
O82	O	1.224085	0.204078	-0.655895
O83	O	1.012761	0.065422	-0.655900
N84	N	1.118473	0.134758	0.153244
H85	H	1.125018	-0.037749	0.097261
O86	O	1.111962	-0.697334	0.105744
C87	C	1.193688	-0.717792	0.197421
C88	C	1.194263	-0.685085	0.138432
H89	H	1.260211	-0.707891	0.223872
H90	H	1.192791	-0.765407	0.188241
H91	H	1.127590	-0.704260	0.223841
H92	H	1.260351	-0.698569	0.111983
H93	H	1.195111	-0.637477	0.147654
H94	H	1.122834	-0.145614	0.097273
O95	O	1.119434	-0.306646	0.159360
C96	C	1.037686	-0.286291	0.251034
C97	C	1.037137	-0.318943	0.192007
H98	H	0.971166	-0.296230	0.277451
H99	H	1.038558	-0.238667	0.241910
H100	H	1.103788	-0.299834	0.277460
H101	H	0.971046	-0.305447	0.165551
H102	H	1.036315	-0.366561	0.201173
H103	H	1.117377	-0.419135	0.150910
H104	H	1.114049	-0.584804	0.097300
H105	H	1.279205	0.240188	-0.556152
H106	H	0.957657	0.029325	-0.443892
H107	H	1.014733	0.066803	-0.271375
O108	O	1.119499	-0.306709	-0.159398
C109	C	1.119233	-0.313002	-0.265771
C110	C	1.118603	-0.345668	-0.206759
H111	H	1.118489	-0.344486	-0.304078
H112	H	1.186112	-0.287023	-0.268509
H113	H	1.053489	-0.283304	-0.268412
H114	H	1.184302	-0.375395	-0.204078
H115	H	1.051681	-0.371610	-0.204046
O116	O	0.626091	0.210422	0.000112
C117	C	0.724215	0.276682	0.051079
C118	C	0.682663	0.216970	0.051022
H119	H	0.769978	0.281991	0.092229
H120	H	0.663630	0.310205	0.051123
H121	H	0.769854	0.282041	0.009896
H122	H	0.637036	0.211556	0.092198
H123	H	0.743293	0.183477	0.050947
H124	H	1.111820	-0.692695	-0.097276
H125	H	0.616702	0.067645	0.000023
O126	O	1.114091	-0.580245	-0.105762
C127	C	1.113864	-0.586546	-0.212135
C128	C	1.113211	-0.619208	-0.153120
H129	H	1.113132	-0.618033	-0.250440
H130	H	1.180745	-0.560569	-0.214865
H131	H	1.048122	-0.556848	-0.214788
H132	H	1.178907	-0.648936	-0.150428
H133	H	1.046287	-0.645149	-0.150415
H134	H	1.222077	0.202742	-0.728645
O135	O	1.116967	-0.423885	-0.159310
C136	C	1.033396	-0.488671	-0.221567
C137	C	1.034178	-0.455963	-0.162577
H138	H	0.966458	-0.514604	-0.224233
H139	H	1.099088	-0.518403	-0.224293
H140	H	1.034037	-0.457183	-0.259868
H141	H	1.033504	-0.487408	-0.124241
H142	H	0.968492	-0.426222	-0.159902
H143	H	1.122767	-0.145649	-0.097312
O144	O	1.005599	0.060980	-0.154208
C145	C	0.846377	0.030566	-0.135320
C146	C	0.909267	0.071757	-0.169362
H147	H	0.768482	0.039257	-0.147568
H148	H	0.856098	0.037005	-0.085738
H149	H	0.868011	-0.015091	-0.147483
H150	H	0.887673	0.117430	-0.157248
H151	H	0.899539	0.065269	-0.218935
O152	O	1.124870	-0.033151	-0.105777
C153	C	1.043023	-0.012634	-0.197401
C154	C	1.042471	-0.045327	-0.138403
H155	H	0.976401	-0.022458	-0.223790
H156	H	1.109033	-0.026171	-0.223904
H157	H	1.044018	0.034967	-0.188165
H158	H	1.041442	-0.092935	-0.147585
H159	H	0.976468	-0.031743	-0.111917
H160	H	1.014831	0.066785	-0.841023
H161	H	1.014820	0.066778	-0.728703
H162	H	0.957672	0.029322	-0.556207
H163	H	1.222098	0.202729	-0.840985
O164	O	1.231038	0.208671	-0.154229
C165	C	1.344303	0.283018	-0.160755
C166	C	1.281429	0.241795	-0.194787
H167	H	1.385046	0.309818	-0.193531
H168	H	1.396963	0.257732	-0.131774
H169	H	1.297387	0.312052	-0.131757
H170	H	1.328269	0.212753	-0.223816
H171	H	1.228763	0.267117	-0.223731
O172	O	1.231093	0.208562	-0.276219
C173	C	1.358963	0.218404	-0.346118
C174	C	1.296073	0.177211	-0.312080
H175	H	1.411502	0.193073	-0.375129
H176	H	1.399844	0.245173	-0.313366
H177	H	1.312048	0.247470	-0.375090
H178	H	1.342919	0.148109	-0.283107
H179	H	1.255186	0.150482	-0.344864
O180	O	1.288250	0.246103	-0.439054
C181	C	1.401539	0.320437	-0.445590
C182	C	1.338647	0.279220	-0.479617
H183	H	1.442286	0.347230	-0.478369
H184	H	1.454195	0.295146	-0.416610
H185	H	1.354635	0.349476	-0.416592
H186	H	1.385475	0.250171	-0.508647
H187	H	1.285985	0.304546	-0.508559
