data_functionalizedCrystal
_audit_creation_method	'MofGen! by Chris Wilmer'
_symmetry_space_group_name_H-M	'P1'
_symmetry_Int_Tables_number	1
_symmetry_cell_setting	triclinic
loop_
_symmetry_equiv_pos_as_xyz
  x,y,z
_cell_length_a	10.686220
_cell_length_b	12.827892
_cell_length_c	10.686551
_cell_angle_alpha	85.594733
_cell_angle_beta	90.307919
_cell_angle_gamma	94.397169
loop_
_atom_site_label
_atom_site_type_symbol
_atom_site_fract_x
_atom_site_fract_y
_atom_site_fract_z
Zn1	Zn	1.972286	-0.254765	-0.562394
Zn2	Zn	2.305619	0.078568	-0.229061
Zn3	Zn	2.638953	0.411902	0.104272
Zn4	Zn	1.956055	-0.443910	-0.352637
Zn5	Zn	2.289388	-0.110576	-0.019304
Zn6	Zn	2.622722	0.222757	0.314029
Zn7	Zn	1.746404	-0.281498	-0.368711
Zn8	Zn	2.079737	0.051835	-0.035378
Zn9	Zn	2.413071	0.385169	0.297955
Zn10	Zn	1.762485	-0.441793	-0.578414
Zn11	Zn	2.095819	-0.108459	-0.245081
Zn12	Zn	2.429152	0.224874	0.088252
O13	O	1.859308	-0.355491	-0.465539
O14	O	2.192641	-0.022158	-0.132206
O15	O	2.525974	0.311175	0.201127
O16	O	2.145675	-0.269554	-0.521138
O17	O	2.479008	0.063780	-0.187805
O18	O	2.812342	0.397113	0.145528
O19	O	1.914722	-0.434439	-0.179224
O20	O	2.248055	-0.101106	0.154109
O21	O	2.581388	0.232227	0.487442
O22	O	1.776431	-0.131710	-0.394426
O23	O	2.109764	0.201623	-0.061093
O24	O	2.443097	0.534956	0.272240
O25	O	2.133750	-0.408517	-0.367031
O26	O	2.467083	-0.075184	-0.033697
O27	O	2.800417	0.258149	0.299636
O28	O	1.942385	-0.112070	-0.536725
O29	O	2.275718	0.221264	-0.203391
O30	O	2.609052	0.554597	0.129942
O31	O	1.760692	-0.315116	-0.191034
O32	O	2.094025	0.018217	0.142300
O33	O	2.427359	0.351550	0.475633
O34	O	1.572995	-0.313063	-0.409960
O35	O	1.906329	0.020270	-0.076627
O36	O	2.239662	0.353603	0.256706
O37	O	1.803838	-0.404909	-0.751835
O38	O	2.137172	-0.071576	-0.418501
O39	O	2.470505	0.261758	-0.085168
O40	O	1.584810	-0.430831	-0.564028
O41	O	1.918143	-0.097498	-0.230695
O42	O	2.251477	0.235836	0.102638
O43	O	1.957978	-0.267501	-0.740065
O44	O	2.291311	0.065833	-0.406732
O45	O	2.624645	0.399166	-0.073398
O46	O	1.930315	-0.589870	-0.382565
O47	O	2.263648	-0.256537	-0.049231
O48	O	2.596982	0.076796	0.284102
O49	O	1.788100	-0.588315	-0.548442
O50	O	2.121433	-0.254982	-0.215109
O51	O	2.454767	0.078352	0.118225
C52	C	1.533387	-0.374619	-0.490478
C53	C	1.866720	-0.041286	-0.157144
C54	C	2.200053	0.292048	0.176189
C55	C	1.393958	-0.382825	-0.501176
C56	C	1.727292	-0.049492	-0.167843
C57	C	2.060625	0.283842	0.165490
C58	C	1.859227	-0.627008	-0.465522
C59	C	2.192561	-0.293674	-0.132189
C60	C	2.525894	0.039659	0.201144
C61	C	1.859311	-0.743154	-0.465548
C62	C	2.192644	-0.409820	-0.132215
C63	C	2.525978	-0.076487	0.201119
C64	C	1.941402	-0.785133	-0.536033
C65	C	2.274735	-0.451800	-0.202699
C66	C	2.608068	-0.118467	0.130634
C67	C	1.941490	-0.905176	-0.536061
C68	C	2.274823	-0.571843	-0.202728
C69	C	2.608157	-0.238510	0.130606
C70	C	2.186501	-0.336290	-0.440504
C71	C	2.519835	-0.002956	-0.107171
C72	C	2.853168	0.330377	0.226162
C73	C	2.325932	-0.328107	-0.429836
C74	C	2.659265	0.005226	-0.096503
C75	C	2.992598	0.338560	0.236831
C76	C	1.884513	-0.332987	-0.792739
C77	C	2.217846	0.000347	-0.459406
C78	C	2.551179	0.333680	-0.126073
C79	C	1.895253	-0.323397	-0.932173
C80	C	2.228587	0.009937	-0.598839
C81	C	2.561920	0.343270	-0.265506
C82	C	1.859424	-0.082911	-0.465582
C83	C	2.192758	0.250422	-0.132248
C84	C	2.526091	0.583756	0.201085
C85	C	1.859474	0.033246	-0.465599
C86	C	2.192808	0.366580	-0.132266
C87	C	2.526141	0.699913	0.201067
C88	C	1.834273	-0.377829	-0.139607
C89	C	2.167606	-0.044496	0.193727
C90	C	2.500940	0.288838	0.527060
C91	C	1.823775	-0.387110	-0.000156
C92	C	2.157108	-0.053777	0.333178
C93	C	2.490442	0.279556	0.666511
H94	H	2.011614	-0.732205	-0.596362
H95	H	2.344947	-0.398872	-0.263029
H96	H	2.678281	-0.065538	0.070304
F97	F	2.033362	-0.952409	-0.614932
F98	F	2.366695	-0.619075	-0.281599
F99	F	2.700029	-0.285742	0.051735
H100	H	1.374363	-0.274985	-0.360563
H101	H	1.707697	0.058348	-0.027229
H102	H	2.041030	0.391681	0.306104
F103	F	1.733050	-0.468004	-0.936808
F104	F	2.066383	-0.134671	-0.603474
F105	F	2.399717	0.198662	-0.270141
H106	H	1.789090	-0.796084	-0.405231
H107	H	2.122423	-0.462751	-0.071898
H108	H	2.455757	-0.129418	0.261436
F109	F	1.330665	-0.452268	-0.591706
F110	F	1.663998	-0.118934	-0.258372
F111	F	1.997331	0.214399	0.074961
F112	F	1.767610	-0.919528	-0.386712
F113	F	2.100944	-0.586195	-0.053378
F114	F	2.434277	-0.252862	0.279955
H115	H	1.964676	-0.261512	-0.980646
H116	H	2.298009	0.071822	-0.647312
H117	H	2.631343	0.405155	-0.313979
