data_functionalizedCrystal
_audit_creation_method	'MofGen! by Chris Wilmer'
_symmetry_space_group_name_H-M	'P1'
_symmetry_Int_Tables_number	1
_symmetry_cell_setting	triclinic
loop_
_symmetry_equiv_pos_as_xyz
  x,y,z
_cell_length_a	17.077404
_cell_length_b	16.120444
_cell_length_c	16.120256
_cell_angle_alpha	84.383140
_cell_angle_beta	87.120369
_cell_angle_gamma	92.924506
loop_
_atom_site_label
_atom_site_type_symbol
_atom_site_fract_x
_atom_site_fract_y
_atom_site_fract_z
Zn1	Zn	1.159632	-0.356807	0.489439
Zn2	Zn	1.659632	0.143193	0.989439
Zn3	Zn	1.159531	-0.489494	0.356750
Zn4	Zn	1.659531	0.010506	0.856750
Zn5	Zn	1.035374	-0.349734	0.349686
Zn6	Zn	1.535374	0.150266	0.849686
Zn7	Zn	1.021316	-0.496534	0.496476
Zn8	Zn	1.521316	0.003466	0.996476
O9	O	1.093963	-0.423142	0.423088
O10	O	1.593963	0.076858	0.923088
O11	O	1.269464	-0.374422	0.471848
O12	O	1.769464	0.125578	0.971848
O13	O	1.148902	-0.465048	0.238850
O14	O	1.648902	0.034952	0.738850
O15	O	1.057782	-0.233707	0.362323
O16	O	1.557782	0.266293	0.862323
O17	O	1.269390	-0.471906	0.374363
O18	O	1.769390	0.028094	0.874363
O19	O	1.149074	-0.238903	0.464999
O20	O	1.649074	0.261097	0.964999
O21	O	1.057684	-0.362367	0.233661
O22	O	1.557684	0.137633	0.733661
O23	O	0.923663	-0.369194	0.369147
O24	O	1.423663	0.130806	0.869147
O25	O	1.033823	-0.483905	0.612505
O26	O	1.533823	0.016095	1.112505
O27	O	0.913335	-0.477047	0.476993
O28	O	1.413335	0.022953	0.976993
O29	O	1.135443	-0.381249	0.607335
O30	O	1.635443	0.118751	1.107335
O31	O	1.135271	-0.607393	0.381187
O32	O	1.635271	-0.107393	0.881187
O33	O	1.033725	-0.612566	0.483843
O34	O	1.533725	-0.112566	0.983843
C35	C	0.890017	-0.423118	0.423068
C36	C	1.390017	0.076882	0.923068
C37	C	0.802766	-0.423128	0.423080
C38	C	1.302766	0.076872	0.923080
C39	C	0.761807	-0.372468	0.473928
C40	C	1.261807	0.127532	0.973928
C41	C	0.679826	-0.372473	0.473932
C42	C	1.179826	0.127527	0.973932
C43	C	0.638806	-0.423144	0.423092
C44	C	1.138806	0.076856	0.923092
C45	C	0.679771	-0.473807	0.372239
C46	C	1.179771	0.026193	0.872239
C47	C	0.761751	-0.473797	0.372231
C48	C	1.261751	0.026203	0.872231
C49	C	0.508899	-0.473827	0.372261
C50	C	1.008899	0.026173	0.872261
C51	C	0.426914	-0.473839	0.372270
C52	C	0.926914	0.026161	0.872270
C53	C	0.426974	-0.372504	0.473961
C54	C	0.926974	0.127496	0.973961
C55	C	0.508954	-0.372493	0.473953
C56	C	1.008954	0.127507	0.973953
C57	C	0.549914	-0.423157	0.423101
C58	C	1.049914	0.076843	0.923101
C59	C	1.082982	-0.640308	0.434063
C60	C	1.582982	-0.140308	0.934063
C61	C	1.078355	-0.733214	0.438786
C62	C	1.578355	-0.233214	0.938786
C63	C	1.118150	-0.942124	0.398766
C64	C	1.618150	-0.442124	0.898766
C65	C	1.069921	-0.903309	0.447419
C66	C	1.569921	-0.403309	0.947419
C67	C	1.074615	-0.808660	0.442614
C68	C	1.574615	-0.308660	0.942614
C69	C	1.113457	-1.036783	0.403569
C70	C	1.613457	-0.536783	0.903569
C71	C	1.298705	-0.423168	0.423108
C72	C	1.798705	0.076832	0.923108
C73	C	1.385954	-0.423178	0.423117
C74	C	1.885954	0.076822	0.923117
C75	C	1.083076	-0.434151	0.641095
C76	C	1.583076	0.065849	1.141095
C77	C	1.078437	-0.438843	0.733997
C78	C	1.578437	0.061157	1.233997
C79	C	1.105007	-0.205129	0.412088
C80	C	1.605007	0.294871	0.912088
C81	C	1.109714	-0.112225	0.407401
C82	C	1.609714	0.387775	0.907401
C83	C	1.104856	-0.412116	0.205926
C84	C	1.604856	0.087884	0.705926
C85	C	1.109659	-0.407189	0.113012
C86	C	1.609659	0.092811	0.613012
C87	C	1.118156	-0.398656	0.942922
C88	C	1.618156	0.101344	1.442922
C89	C	1.069942	-0.447373	0.904082
C90	C	1.569942	0.052627	1.404082
C91	C	1.074670	-0.442626	0.809438
C92	C	1.574670	0.057374	1.309438
C93	C	1.113429	-0.403402	1.037574
C94	C	1.613429	0.096598	1.537574
H95	H	0.646480	-0.331222	0.515338
H96	H	1.146480	0.168778	1.015338
H97	H	0.542350	-0.331237	0.515356
H98	H	1.042350	0.168763	1.015356
F99	F	1.011340	-0.952784	0.506577
F100	F	1.511340	-0.452784	1.006577
F101	F	1.176724	-0.892650	0.339609
F102	F	1.676724	-0.392650	0.839609
H103	H	1.025110	-0.492643	0.941911
H104	H	1.525110	0.007357	1.441911
F105	F	1.176738	-0.339474	0.893479
F106	F	1.676738	0.160526	1.393479
H107	H	0.795199	-0.331207	0.515329
H108	H	1.295199	0.168793	1.015329
H109	H	0.393517	-0.515101	0.330873
H110	H	0.893517	-0.015101	0.830873
F111	F	0.383381	-0.318581	0.528080
F112	F	0.883381	0.181419	1.028080
H113	H	0.542246	-0.515081	0.330850
H114	H	1.042246	-0.015081	0.830850
F115	F	0.636113	-0.527731	0.318127
F116	F	1.136113	-0.027731	0.818127
F117	F	0.805343	-0.527717	0.318113
F118	F	1.305343	-0.027717	0.818113
