data_functionalizedCrystal
_audit_creation_method	'MofGen! by Chris Wilmer'
_symmetry_space_group_name_H-M	'P1'
_symmetry_Int_Tables_number	1
_symmetry_cell_setting	triclinic
loop_
_symmetry_equiv_pos_as_xyz
  x,y,z
_cell_length_a	6.817900
_cell_length_b	17.078472
_cell_length_c	14.858572
_cell_angle_alpha	96.030459
_cell_angle_beta	104.524003
_cell_angle_gamma	99.306020
loop_
_atom_site_label
_atom_site_type_symbol
_atom_site_fract_x
_atom_site_fract_y
_atom_site_fract_z
V1	V	-4.017389	-0.110266	-0.289866
O2	O	-4.026521	0.004785	-0.284445
O3	O	-3.948350	-0.218146	-0.287791
O4	O	-3.974308	-0.108796	-0.416329
O5	O	-4.000383	-0.105322	-0.155017
V6	V	-4.503002	-0.096478	-0.273749
O7	O	-4.274063	-0.140512	-0.325222
O8	O	-4.696526	-0.066233	-0.238393
O9	O	-4.348835	0.011401	-0.275823
O10	O	-4.611268	-0.211530	-0.279170
O11	O	-4.637405	-0.101423	-0.408598
O12	O	-4.322877	-0.097949	-0.147286
C13	C	-3.788158	-0.244437	-0.283195
C14	C	-3.813033	-0.332631	-0.282341
C15	C	-3.821269	-0.104950	-0.447156
C16	C	-3.867193	-0.104461	-0.550540
C17	C	-4.006243	-0.378114	-0.286576
C18	C	-4.029607	-0.460982	-0.285779
C19	C	-3.859754	-0.498365	-0.280742
C20	C	-3.666530	-0.452877	-0.276510
C21	C	-3.643172	-0.370011	-0.277313
C22	C	-3.910149	-0.745764	-0.277848
C23	C	-3.933521	-0.828636	-0.277043
C24	C	-4.296598	-0.836735	-0.286314
C25	C	-4.273220	-0.753867	-0.287111
C26	C	-4.080001	-0.708387	-0.282884
N27	N	-3.883630	-0.583069	-0.279924
N28	N	-4.056132	-0.623685	-0.283708
C29	C	-4.035274	-0.102675	-0.929109
C30	C	-3.988500	-0.103172	-0.823780
C31	C	-3.951235	-0.103569	-0.739828
C32	C	-3.904458	-0.104064	-0.634491
C33	C	-4.172368	0.037688	-0.280417
C34	C	-4.126731	0.125882	-0.281277
C35	C	-4.139257	-0.101798	-0.116454
C36	C	-4.072573	-0.102282	-0.013069
H37	H	-4.144556	-0.347682	-0.290669
O38	O	-3.501516	-0.489204	-0.271451
C39	C	-3.277845	-0.567190	-0.184254
C40	C	-3.464727	-0.526072	-0.189860
H41	H	-3.248070	-0.597023	-0.118304
H42	H	-3.135638	-0.520473	-0.181304
H43	H	-3.311571	-0.614566	-0.249053
H44	H	-3.431202	-0.478701	-0.125077
H45	H	-3.606876	-0.572836	-0.192856
H46	H	-4.453910	-0.873774	-0.289755
O47	O	-3.768504	-0.864969	-0.271989
C48	C	-3.544855	-0.942966	-0.184800
C49	C	-3.731716	-0.901836	-0.190398
H50	H	-3.515079	-0.972798	-0.118849
H51	H	-3.402638	-0.896256	-0.181856
H52	H	-3.578605	-0.990343	-0.249599
H53	H	-3.698165	-0.854464	-0.125615
H54	H	-3.873873	-0.948594	-0.193388
O55	O	-3.722586	-0.701574	-0.273894
C56	C	-3.524899	-0.614173	-0.350302
C57	C	-3.737429	-0.664209	-0.354919
H58	H	-3.536839	-0.583937	-0.415793
H59	H	-3.407446	-0.655093	-0.346614
H60	H	-3.473099	-0.566398	-0.285037
H61	H	-3.789420	-0.711988	-0.420178
H62	H	-3.854752	-0.623238	-0.358556
O63	O	-3.455527	-0.325725	-0.273075
C64	C	-3.178976	-0.216585	-0.187640
C65	C	-3.391507	-0.266662	-0.192331
H66	H	-3.127131	-0.168832	-0.122354
H67	H	-3.190735	-0.186339	-0.253119
H68	H	-3.061646	-0.257558	-0.183946
H69	H	-3.508950	-0.225744	-0.195995
H70	H	-3.379580	-0.296916	-0.126854
H71	H	-4.411539	-0.723436	-0.291220
H72	H	-4.186936	-0.498011	-0.289229
