data_functionalizedCrystal
_audit_creation_method	'MofGen! by Chris Wilmer'
_symmetry_space_group_name_H-M	'P1'
_symmetry_Int_Tables_number	1
_symmetry_cell_setting	triclinic
loop_
_symmetry_equiv_pos_as_xyz
  x,y,z
_cell_length_a	27.732048
_cell_length_b	27.732048
_cell_length_c	18.366186
_cell_angle_alpha	89.988789
_cell_angle_beta	89.996446
_cell_angle_gamma	82.642655
loop_
_atom_site_label
_atom_site_type_symbol
_atom_site_fract_x
_atom_site_fract_y
_atom_site_fract_z
O1	O	0.640930	0.057518	-0.060464
O2	O	1.140930	0.557518	0.439536
O3	O	0.500137	0.066263	-0.060487
O4	O	1.000137	0.566263	0.439513
O5	O	0.574906	-0.008506	-0.060461
O6	O	1.074906	0.491494	0.439539
O7	O	0.566161	0.132287	-0.060490
O8	O	1.066161	0.632287	0.439510
O9	O	0.574894	-0.008510	0.060639
O10	O	1.074894	0.491490	0.560639
O11	O	0.500124	0.066260	0.060613
O12	O	1.000124	0.566260	0.560613
O13	O	0.640918	0.057514	0.060636
O14	O	1.140918	0.557514	0.560636
Zn15	Zn	0.570519	0.061886	0.079851
Zn16	Zn	1.070519	0.561886	0.579851
Zn17	Zn	0.570535	0.061891	-0.079702
Zn18	Zn	1.070535	0.561891	0.420298
O19	O	0.566148	0.132284	0.060610
O20	O	1.066148	0.632284	0.560610
C21	C	0.482124	0.066078	0.000060
C22	C	0.982124	0.566078	0.500060
C23	C	0.428469	0.065525	0.000052
C24	C	0.928469	0.565525	0.500052
C25	C	0.089654	0.106229	0.000075
C26	C	0.589654	0.606229	0.500075
C27	C	-0.112006	0.104178	0.000082
C28	C	0.387994	0.604178	0.500082
O29	O	-0.143262	0.141398	0.000106
O30	O	0.356738	0.641398	0.500106
N31	N	-0.131130	0.059843	0.000090
N32	N	0.368870	0.559843	0.500090
C33	C	-0.099835	0.016017	0.000101
C34	C	0.400165	0.516017	0.500101
O35	O	-0.120728	-0.021740	0.000115
O36	O	0.379272	0.478260	0.500115
C37	C	0.101824	0.018068	0.000099
C38	C	0.601824	0.518068	0.500099
C39	C	0.120944	0.062407	0.000084
C40	C	0.620944	0.562407	0.500084
C41	C	0.108775	0.150563	0.000061
C42	C	0.608775	0.650563	0.500061
C43	C	0.159187	0.151075	0.000055
C44	C	0.659187	0.651075	0.500055
C45	C	0.190477	0.107253	0.000064
C46	C	0.690477	0.607253	0.500064
C47	C	0.171356	0.062919	0.000078
C48	C	0.671356	0.562919	0.500078
C49	C	0.133117	-0.025757	0.000115
C50	C	0.633117	0.474243	0.500115
C51	C	0.183535	-0.025240	0.000117
C52	C	0.683535	0.474760	0.500117
C53	C	0.202655	0.019098	0.000101
C54	C	0.702655	0.519098	0.500101
C55	C	0.253059	0.019609	0.000081
C56	C	0.753059	0.519609	0.500081
N57	N	0.272183	0.063944	0.000073
N58	N	0.772183	0.563944	0.500073
C59	C	0.240892	0.107766	0.000065
C60	C	0.740892	0.607766	0.500065
C61	C	-0.205709	0.014943	0.000100
C62	C	0.294291	0.514943	0.500100
C63	C	-0.256124	0.014430	0.000099
C64	C	0.243876	0.514430	0.500099
C65	C	-0.268291	0.102591	0.000082
C66	C	0.231709	0.602591	0.500082
C67	C	-0.217876	0.103104	0.000078
C68	C	0.282124	0.603104	0.500078
C69	C	-0.186585	0.059278	0.000092
C70	C	0.313415	0.559278	0.500092
C71	C	0.346761	0.108839	0.000052
C72	C	0.846761	0.608839	0.500052
C73	C	0.397178	0.109347	0.000043
C74	C	0.897178	0.609347	0.500043
C75	C	0.409341	0.021186	0.000065
C76	C	0.909341	0.521186	0.500065
C77	C	0.358929	0.020678	0.000069
C78	C	0.858929	0.520678	0.500069
C79	C	0.327639	0.064508	0.000066
C80	C	0.827639	0.564508	0.500066
O81	O	0.284343	-0.017592	0.000066
O82	O	0.784343	0.482408	0.500066
O83	O	0.261794	0.145518	0.000066
O84	O	0.761794	0.645518	0.500066
C85	C	0.039242	0.105716	0.000081
C86	C	0.539242	0.605716	0.500081
C87	C	0.020120	0.061382	0.000095
C88	C	0.520120	0.561382	0.500095
C89	C	0.051411	0.017560	0.000104
C90	C	0.551411	0.517560	0.500104
C91	C	-0.030294	0.060869	0.000094
C92	C	0.469706	0.560869	0.500094
C93	C	-0.061585	0.104691	0.000086
C94	C	0.438415	0.604691	0.500086
C95	C	-0.042461	0.149026	0.000078
C96	C	0.457539	0.649026	0.500078
C97	C	0.007951	0.149539	0.000072
C98	C	0.507951	0.649539	0.500072
C99	C	0.032287	-0.026775	0.000112
C100	C	0.532287	0.473225	0.500112
C101	C	-0.018125	-0.027284	0.000117
C102	C	0.481875	0.472716	0.500117
C103	C	-0.049416	0.016538	0.000108
C104	C	0.450584	0.516538	0.500108
C105	C	0.574716	-0.026515	0.000091
C106	C	1.074716	0.473485	0.500091
C107	C	0.574164	-0.080170	0.000097
C108	C	1.074164	0.419830	0.500097
C109	C	0.614867	-0.418985	0.000066
C110	C	1.114867	0.081015	0.500066
C111	C	0.612816	-0.620645	0.000056
C112	C	1.112816	-0.120645	0.500056
O113	O	0.650037	-0.651900	0.000030
O114	O	1.150037	-0.151900	0.500030
N115	N	0.568481	-0.639768	0.000049
N116	N	1.068481	-0.139768	0.500049
C117	C	0.524656	-0.608474	0.000040
C118	C	1.024656	-0.108474	0.500040
O119	O	0.486899	-0.629367	0.000027
O120	O	0.986899	-0.129367	0.500027
C121	C	0.526707	-0.406815	0.000046
C122	C	1.026707	0.093185	0.500046
C123	C	0.571045	-0.387694	0.000060
C124	C	1.071045	0.112306	0.500060
C125	C	0.659202	-0.399864	0.000079
C126	C	1.159202	0.100136	0.500079
C127	C	0.659714	-0.349452	0.000086
C128	C	1.159714	0.150548	0.500086
C129	C	0.615892	-0.318161	0.000079
C130	C	1.115892	0.181839	0.500079
C131	C	0.571557	-0.337282	0.000066
C132	C	1.071557	0.162718	0.500066
C133	C	0.482882	-0.375521	0.000032
C134	C	0.982882	0.124479	0.500032
C135	C	0.483399	-0.325104	0.000031
C136	C	0.983399	0.174896	0.500031
C137	C	0.527737	-0.305983	0.000045
C138	C	1.027737	0.194017	0.500045
C139	C	0.528247	-0.255580	0.000066
C140	C	1.028247	0.244420	0.500066
N141	N	0.572583	-0.236456	0.000073
N142	N	1.072583	0.263544	0.500073
C143	C	0.616405	-0.267747	0.000080
C144	C	1.116405	0.232253	0.500080
C145	C	0.523582	-0.714348	0.000039
C146	C	1.023582	-0.214348	0.500039
C147	C	0.523069	-0.764762	0.000039
C148	C	1.023069	-0.264762	0.500039
C149	C	0.611230	-0.776930	0.000053
C150	C	1.111230	-0.276930	0.500053
C151	C	0.611742	-0.726514	0.000058
C152	C	1.111742	-0.226514	0.500058
C153	C	0.567917	-0.695224	0.000046
C154	C	1.067917	-0.195224	0.500046
C155	C	0.617477	-0.161878	0.000094
C156	C	1.117477	0.338122	0.500094
C157	C	0.617986	-0.111461	0.000104
C158	C	1.117986	0.388539	0.500104
C159	C	0.529825	-0.099298	0.000086
C160	C	1.029825	0.400702	0.500086
C161	C	0.529316	-0.149710	0.000080
C162	C	1.029316	0.350290	0.500080
C163	C	0.573147	-0.180999	0.000082
C164	C	1.073147	0.319001	0.500082
O165	O	0.491047	-0.224296	0.000084
O166	O	0.991047	0.275704	0.500084
O167	O	0.654156	-0.246844	0.000077
O168	O	1.154156	0.253156	0.500077
C169	C	0.614355	-0.469397	0.000060
C170	C	1.114355	0.030603	0.500060
C171	C	0.570021	-0.488518	0.000047
C172	C	1.070021	0.011482	0.500047
C173	C	0.526198	-0.457228	0.000040
C174	C	1.026198	0.042772	0.500040
C175	C	0.569508	-0.538933	0.000047
C176	C	1.069508	-0.038933	0.500047
C177	C	0.613330	-0.570223	0.000053
C178	C	1.113330	-0.070223	0.500053
C179	C	0.657665	-0.551100	0.000060
C180	C	1.157665	-0.051100	0.500060
C181	C	0.658177	-0.500688	0.000066
C182	C	1.158177	-0.000688	0.500066
C183	C	0.481863	-0.476351	0.000033
C184	C	0.981863	0.023649	0.500033
C185	C	0.481355	-0.526764	0.000028
C186	C	0.981355	-0.026764	0.500028
C187	C	0.525177	-0.558054	0.000034
C188	C	1.025177	-0.058054	0.500034
C189	C	0.658931	0.057699	0.000087
C190	C	1.158931	0.557699	0.500087
C191	C	0.712586	0.058252	0.000091
C192	C	1.212586	0.558252	0.500091
C193	C	0.566338	0.150292	0.000056
C194	C	1.066338	0.650292	0.500056
C195	C	0.566891	0.203947	0.000046
C196	C	1.066891	0.703947	0.500046
N197	N	0.570511	0.061883	0.188743
N198	N	1.070511	0.561883	0.688743
N199	N	0.570547	0.061891	-0.188593
N200	N	1.070547	0.561891	0.311407
C201	C	0.603630	0.028791	0.226854
C202	C	1.103630	0.528791	0.726854
C203	C	0.603633	0.028789	0.303082
C204	C	1.103633	0.528789	0.803082
C205	C	0.570522	0.061887	0.341195
C206	C	1.070522	0.561887	0.841195
C207	C	0.537397	0.094981	0.303074
C208	C	1.037397	0.594981	0.803074
C209	C	0.537392	0.094979	0.226848
C210	C	1.037392	0.594979	0.726848
C211	C	0.563860	0.105958	0.461946
C212	C	1.063860	0.605958	0.961946
C213	C	0.563869	0.105961	0.538171
C214	C	1.063869	0.605961	1.038171
C215	C	0.570536	0.061893	0.576303
C216	C	1.070536	0.561893	1.076303
C217	C	0.577204	0.017820	0.538200
C218	C	1.077204	0.517820	1.038200
C219	C	0.577199	0.017818	0.461974
C220	C	1.077199	0.517818	0.961974
C221	C	0.570524	0.061892	0.423850
C222	C	1.070524	0.561892	0.923850
C223	C	0.603659	0.028796	0.697070
C224	C	1.103659	0.528796	1.197070
C225	C	0.603659	0.028793	0.773299
C226	C	1.103659	0.528793	1.273299
C227	C	0.537426	0.094989	0.773289
C228	C	1.037426	0.594989	1.273289
C229	C	0.537424	0.094988	0.697061
C230	C	1.037424	0.594988	1.197061
C231	C	0.570543	0.061892	0.658956
C232	C	1.070543	0.561892	1.158956
H233	H	0.321291	0.144530	0.000051
H234	H	0.821291	0.644530	0.500051
H235	H	0.493213	-0.165279	0.000089
H236	H	0.993213	0.334721	0.500089
H237	H	0.445246	-0.542327	0.000023
H238	H	0.945246	-0.042327	0.500023
H239	H	0.510457	0.121936	0.666029
H240	H	1.010457	0.621936	1.166029
O241	O	0.557475	0.148759	0.575216
O242	O	1.057475	0.648759	1.075216
C243	C	0.598471	0.152379	0.619312
C244	C	1.098471	0.652379	1.119312
H245	H	0.631193	0.128063	0.596339
H246	H	1.131193	0.628063	1.096339
H247	H	0.606462	0.191689	0.620165
H248	H	1.106462	0.691689	1.120165
H249	H	0.590908	0.140314	0.677087
H250	H	1.090908	0.640314	1.177087
H251	H	-0.202311	0.139207	0.000069
H252	H	0.297689	0.639207	0.500069
O253	O	-0.036718	-0.070346	0.000000
O254	O	0.463282	0.429654	0.500000
C255	C	-0.065527	-0.073281	-0.062702
C256	C	0.434473	0.426719	0.437298
H257	H	-0.053793	-0.048112	-0.106551
H258	H	0.446207	0.451888	0.393449
H259	H	-0.060712	-0.112274	-0.083741
H260	H	0.439288	0.387726	0.416259
H261	H	-0.105370	-0.061832	-0.048519
H262	H	0.394630	0.438168	0.451481
O263	O	0.653831	-0.807281	-0.000042
O264	O	1.153831	-0.307281	0.499958
C265	C	0.680768	-0.798665	-0.062771
C266	C	1.180768	-0.298665	0.437229
H267	H	0.668612	-0.760326	-0.083677
H268	H	1.168612	-0.260326	0.416323
H269	H	0.721111	-0.802515	-0.048668
H270	H	1.221111	-0.302515	0.451332
H271	H	0.674365	-0.826187	-0.106690
H272	H	1.174365	-0.326187	0.393310
O273	O	-0.274637	-0.028671	0.000009
O274	O	0.225363	0.471329	0.500009
C275	C	-0.258620	-0.055354	-0.062712
C276	C	0.241380	0.444646	0.437288
H277	H	-0.223748	-0.042442	-0.083626
H278	H	0.276252	0.457558	0.416374
H279	H	-0.251323	-0.095661	-0.048597
H280	H	0.248677	0.404339	0.451403
H281	H	-0.287836	-0.049535	-0.106631
H282	H	0.212164	0.450465	0.393369
O283	O	0.114632	-0.068870	0.000169
O284	O	0.614632	0.431130	0.500169
C285	C	0.153070	-0.107432	0.000165
C286	C	0.653070	0.392568	0.500165
H287	H	0.187219	-0.094134	0.023080
H288	H	0.687219	0.405866	0.523080
H289	H	0.142767	-0.138409	0.035341
H290	H	0.642767	0.361591	0.535341
H291	H	0.160304	-0.120935	-0.057926
H292	H	0.660304	0.379065	0.442074
H293	H	0.343360	-0.015426	0.000071
H294	H	0.843360	0.484574	0.500071
O295	O	-0.298643	0.145192	0.000174
O296	O	0.201357	0.645192	0.500174
C297	C	-0.290040	0.172122	0.062901
C298	C	0.209960	0.672122	0.562901
H299	H	-0.251704	0.159965	0.083809
H300	H	0.248296	0.659965	0.583809
H301	H	-0.293889	0.212467	0.048795
H302	H	0.206111	0.712467	0.548795
H303	H	-0.317569	0.165713	0.106820
H304	H	0.182431	0.665713	0.606820
H305	H	0.057760	-0.062462	0.000121
H306	H	0.557760	0.437538	0.500121
O307	O	0.700247	-0.581481	0.000193
O308	O	1.200247	-0.081481	0.500193
C309	C	0.727193	-0.572872	0.062905
C310	C	1.227193	-0.072872	0.562905
H311	H	0.701543	-0.555457	0.106743
H312	H	1.201543	-0.055457	0.606743
H313	H	0.746844	-0.608793	0.083953
H314	H	1.246844	-0.108793	0.583953
H315	H	0.754981	-0.547405	0.048731
H316	H	1.254981	-0.047405	0.548731
O317	O	0.026461	0.192641	-0.000037
O318	O	0.526461	0.692641	0.499963
C319	C	0.010445	0.219324	-0.062770
C320	C	0.510445	0.719324	0.437230
H321	H	-0.024424	0.206409	-0.083675
H322	H	0.475576	0.706409	0.416325
H323	H	0.003142	0.259631	-0.048673
H324	H	0.503142	0.759631	0.451327
H325	H	0.039663	0.213511	-0.106688
H326	H	0.539663	0.713511	0.393312
H327	H	0.647846	-0.710950	0.000069
H328	H	1.147846	-0.210950	0.500069
O329	O	0.415692	0.152451	-0.000068
O330	O	0.915692	0.652451	0.499932
C331	C	0.399676	0.179136	-0.062800
C332	C	0.899676	0.679136	0.437200
H333	H	0.364804	0.166225	-0.083702
H334	H	0.864804	0.666225	0.416298
H335	H	0.392379	0.219443	-0.048704
H336	H	0.892379	0.719443	0.451296
H337	H	0.428893	0.173319	-0.106720
H338	H	0.928893	0.673319	0.393280
O339	O	0.078363	0.193123	0.000176
O340	O	0.578363	0.693123	0.500176
C341	C	0.048821	0.195469	0.062880
C342	C	0.548821	0.695469	0.562880
H343	H	0.067458	0.170609	0.106730
H344	H	0.567458	0.670609	0.606730
H345	H	0.042873	0.234451	0.083915
H346	H	0.542873	0.734451	0.583915
H347	H	0.012246	0.183245	0.048700
H348	H	0.512246	0.683245	0.548700
O349	O	0.213978	-0.067781	0.000031
O350	O	0.713978	0.432219	0.500031
C351	C	0.243496	-0.070130	-0.062699
C352	C	0.743496	0.429870	0.437301
H353	H	0.245767	-0.031782	-0.083620
H354	H	0.745767	0.468218	0.416380
H355	H	0.281522	-0.088427	-0.048592
H356	H	0.781522	0.411573	0.451408
H357	H	0.227067	-0.092079	-0.106609
H358	H	0.727067	0.407921	0.393391
H359	H	0.582627	-0.018068	0.430954
H360	H	1.082627	0.481932	0.930954
H361	H	0.558422	0.141846	0.430905
H362	H	1.058422	0.641846	0.930905
H363	H	0.486964	-0.780325	0.000040
H364	H	0.986964	-0.280325	0.500040
O365	O	0.177676	0.194189	0.000081
O366	O	0.677676	0.694189	0.500081
C367	C	0.139240	0.232752	0.000059
C368	C	0.639240	0.732752	0.500059
H369	H	0.105089	0.219455	0.022985
H370	H	0.605089	0.719455	0.522985
H371	H	0.149543	0.263728	0.035216
H372	H	0.649543	0.763728	0.535216
H373	H	0.132008	0.246255	-0.058040
H374	H	0.632008	0.746255	0.441960
O375	O	0.505214	0.127067	0.340175
O376	O	1.005214	0.627067	0.840175
C377	C	0.475586	0.101384	0.384273
C378	C	0.975586	0.601384	0.884273
H379	H	0.495125	0.063426	0.395701
H380	H	0.995125	0.563426	0.895701
H381	H	0.467792	0.121614	0.437870
H382	H	0.967792	0.621614	0.937870
H383	H	0.439884	0.098343	0.354908
H384	H	0.939884	0.598343	0.854908
H385	H	0.582633	-0.018065	0.569246
H386	H	1.082633	0.481935	1.069246
H387	H	0.447710	-0.299629	0.000020
H388	H	0.947710	0.200371	0.500020
H389	H	0.434827	-0.014492	0.000069
H390	H	0.934827	0.485508	0.500069
H391	H	0.695819	-0.333889	0.000094
H392	H	1.195819	0.166111	0.500094
H393	H	0.510422	0.121927	0.195816
H394	H	1.010422	0.621927	0.695816
O395	O	-0.072911	0.191564	-0.000027
O396	O	0.427089	0.691564	0.499973
C397	C	-0.102429	0.193910	-0.062752
C398	C	0.397571	0.693910	0.437248
H399	H	-0.104692	0.155562	-0.083656
H400	H	0.395308	0.655562	0.416344
H401	H	-0.140458	0.212199	-0.048646
H402	H	0.359542	0.712199	0.451354
H403	H	-0.086007	0.215867	-0.106675
H404	H	0.413993	0.715867	0.393325
H405	H	0.654093	-0.095896	0.000117
H406	H	1.154093	0.404104	0.500117
O407	O	0.439798	-0.394063	-0.000116
O408	O	0.939798	0.105937	0.499884
C409	C	0.413118	-0.378015	-0.062834
C410	C	0.913118	0.121985	0.437166
H411	H	0.439063	-0.367717	-0.106659
H412	H	0.939063	0.132283	0.393341
H413	H	0.392782	-0.408400	-0.083899
H414	H	0.892782	0.091600	0.416101
H415	H	0.385936	-0.344954	-0.048661
H416	H	0.885936	0.155046	0.451339
O417	O	0.660097	-0.192199	0.000131
O418	O	1.160097	0.307801	0.500131
C419	C	0.699333	-0.164502	0.000126
C420	C	1.199333	0.335498	0.500126
H421	H	0.686766	-0.126786	0.023052
H422	H	1.186766	0.373214	0.523052
H423	H	0.730012	-0.183324	0.035291
H424	H	1.230012	0.316676	0.535291
H425	H	0.712949	-0.161000	-0.057968
H426	H	1.212949	0.339000	0.442032
H427	H	0.694889	-0.425336	0.000082
H428	H	1.194889	0.074664	0.500082
O429	O	0.480962	-0.684024	0.000066
O430	O	0.980962	-0.184024	0.500066
C431	C	0.441727	-0.711721	0.000044
C432	C	0.941727	-0.211721	0.500044
H433	H	0.454289	-0.749444	0.022970
H434	H	0.954289	-0.249444	0.522970
H435	H	0.411041	-0.692909	0.035202
H436	H	0.911041	-0.192909	0.535202
H437	H	0.428122	-0.715205	-0.058054
H438	H	0.928122	-0.215205	0.441946
H439	H	0.630626	0.001845	0.666043
H440	H	1.130626	0.501845	1.166043
H441	H	-0.180236	-0.020747	0.000112
H442	H	0.319764	0.479253	0.500112
H443	H	0.494146	-0.073812	0.000083
H444	H	0.994146	0.426188	0.500083
H445	H	0.694282	-0.485125	0.000077
H446	H	1.194282	0.014875	0.500077
O447	O	0.439324	-0.445910	0.000126
O448	O	0.939324	0.054090	0.500126
C449	C	0.436969	-0.416404	0.062858
C450	C	0.936969	0.083596	0.562858
H451	H	0.475315	-0.414133	0.083773
H452	H	0.975315	0.085867	0.583773
H453	H	0.418670	-0.378376	0.048756
H454	H	0.918670	0.121624	0.548756
H455	H	0.415018	-0.432842	0.106771
H456	H	0.915018	0.067158	0.606771
O457	O	0.635816	-0.003408	0.189953
O458	O	1.135816	0.496592	0.689953
C459	C	0.665056	-0.032609	0.239944
C460	C	1.165056	0.467391	0.739944
H461	H	0.645247	-0.033015	0.294287
H462	H	1.145247	0.466985	0.794287
H463	H	0.672719	-0.071265	0.217936
H464	H	1.172719	0.428735	0.717936
H465	H	0.700845	-0.017159	0.248035
H466	H	1.200845	0.482841	0.748035
O467	O	0.635827	-0.003292	0.340191
O468	O	1.135827	0.496708	0.840191
C469	C	0.665462	0.022396	0.384251
C470	C	1.165462	0.522396	0.884251
H471	H	0.645923	0.060353	0.395662
H472	H	1.145923	0.560353	0.895662
H473	H	0.673267	0.002168	0.437859
H474	H	1.173267	0.502168	0.937859
H475	H	0.701157	0.025437	0.354862
H476	H	1.201157	0.525437	0.854862
O477	O	0.635880	-0.003372	0.810210
O478	O	1.135880	0.496628	1.310210
C479	C	0.665101	-0.032589	0.760228
C480	C	1.165101	0.467411	1.260228
H481	H	0.665492	-0.012774	0.705884
H482	H	1.165492	0.487226	1.205884
H483	H	0.703760	-0.040223	0.782246
H484	H	1.203760	0.459777	1.282246
H485	H	0.649682	-0.068394	0.752137
H486	H	1.149682	0.431606	1.252137
H487	H	0.510464	0.121937	0.804320
H488	H	1.010464	0.621937	1.304320
