data_functionalizedCrystal
_audit_creation_method	'MofGen! by Chris Wilmer'
_symmetry_space_group_name_H-M	'P1'
_symmetry_Int_Tables_number	1
_symmetry_cell_setting	triclinic
loop_
_symmetry_equiv_pos_as_xyz
  x,y,z
_cell_length_a	15.995350
_cell_length_b	27.732048
_cell_length_c	14.472310
_cell_angle_alpha	89.993924
_cell_angle_beta	89.990621
_cell_angle_gamma	83.067515
loop_
_atom_site_label
_atom_site_type_symbol
_atom_site_fract_x
_atom_site_fract_y
_atom_site_fract_z
O1	O	1.110190	0.062301	-0.076773
O2	O	0.866316	0.069995	-0.076793
O3	O	0.995827	-0.004216	-0.076765
O4	O	0.980679	0.136512	-0.076801
O5	O	0.995794	-0.004212	0.076917
O6	O	0.866282	0.069999	0.076889
O7	O	1.110157	0.062306	0.076909
Cu8	Cu	0.988217	0.066153	0.090931
Cu9	Cu	0.988256	0.066148	-0.090815
O10	O	0.980646	0.136517	0.076881
C11	C	0.835108	0.069679	0.000045
C12	C	0.742170	0.068726	0.000038
C13	C	0.404467	0.065301	0.000059
C14	C	0.452585	0.012449	0.000415
C15	C	0.549263	0.013403	0.000062
C16	C	0.572006	0.067000	0.000049
C17	C	0.530600	0.093065	-0.087714
C18	C	0.433982	0.091738	-0.087781
C19	C	0.433591	0.092835	0.086984
C20	C	0.530536	0.092822	0.088138
C21	C	0.666691	0.067962	0.000041
C22	C	0.309782	0.064340	0.000061
C23	C	0.995493	-0.022222	0.000079
C24	C	0.994535	-0.075881	0.000086
C25	C	1.065040	-0.414392	0.000045
C26	C	1.061487	-0.616067	0.000031
O27	O	1.125959	-0.647045	-0.000004
N28	N	0.984692	-0.635522	0.000026
C29	C	0.908780	-0.604555	0.000018
O30	O	0.843380	-0.625730	0.000003
C31	C	0.912334	-0.402881	0.000024
C32	C	0.989134	-0.383429	0.000039
C33	C	1.141834	-0.394940	0.000058
C34	C	1.142721	-0.344524	0.000067
C35	C	1.066815	-0.313561	0.000061
C36	C	0.990021	-0.333013	0.000047
C37	C	0.836422	-0.371914	0.000009
C38	C	0.837317	-0.321493	0.000009
C39	C	0.914117	-0.302041	0.000023
C40	C	0.915002	-0.251634	0.000050
N41	N	0.991797	-0.232179	0.000056
C42	C	1.067703	-0.263142	0.000061
C43	C	0.906920	-0.710437	0.000016
C44	C	0.906031	-0.760855	0.000016
C45	C	1.058739	-0.772364	0.000028
C46	C	1.059627	-0.721945	0.000035
C47	C	0.983715	-0.690982	0.000021
C48	C	1.069561	-0.157265	0.000080
C49	C	1.070442	-0.106844	0.000092
C50	C	0.917734	-0.095340	0.000075
C51	C	0.916853	-0.145756	0.000067
C52	C	0.992773	-0.176718	0.000067
O53	O	0.850565	-0.220628	0.000075
O54	O	1.133094	-0.241958	0.000055
C55	C	1.064153	-0.464808	0.000036
C56	C	0.987359	-0.484260	0.000022
C57	C	0.911452	-0.453297	0.000017
C58	C	0.986470	-0.534679	0.000022
C59	C	1.062377	-0.565642	0.000028
C60	C	1.139172	-0.546187	0.000033
C61	C	1.140059	-0.495771	0.000042
C62	C	0.834657	-0.472752	0.000011
C63	C	0.833776	-0.523168	0.000004
C64	C	0.909683	-0.554132	0.000010
C65	C	1.141364	0.062621	0.000068
C66	C	1.234302	0.063575	0.000069
C67	C	0.980980	0.154523	0.000035
C68	C	0.981938	0.208182	0.000022
N69	N	0.988195	0.066156	0.218762
N70	N	0.988284	0.066141	-0.218646
C71	C	0.988255	0.066146	0.592853
C72	C	0.918727	0.105721	0.553672
C73	C	0.918884	0.105866	0.446584
C74	C	0.988225	0.066151	0.407262
C75	C	1.075447	0.077167	0.446103
C76	C	1.075055	0.077448	0.553225
C77	C	0.971342	0.015437	0.553394
C78	C	0.969334	0.015775	0.446267
C79	C	0.988213	0.066153	0.302374
C80	C	0.988272	0.066145	0.697742
H81	H	0.413265	0.075558	0.153506
C82	C	1.147022	0.040000	0.588240
N83	N	1.201235	0.011801	0.614610
H84	H	1.122164	-0.706111	0.000046
H85	H	0.853660	0.099266	0.579457
C86	C	0.587280	-0.014467	-0.085067
N87	N	0.615913	-0.035459	-0.149191
C88	C	1.039846	-0.024350	0.587631
N89	N	1.091444	-0.054315	0.613424
H90	H	0.559223	0.074958	-0.153020
H91	H	0.929617	0.143496	0.420941
H92	H	0.929307	0.143140	0.580573
H93	H	1.128394	0.049108	0.420631
C94	C	0.588012	-0.014281	0.085050
N95	N	0.617195	-0.035137	0.149063
H96	H	0.558085	0.073794	0.153064
C97	C	0.821545	-0.782246	0.000011
N98	N	0.757908	-0.798356	0.000001
C99	C	1.095308	0.127411	0.586957
N100	N	1.110556	0.165047	0.612359
C101	C	1.227208	-0.323134	0.000073
N102	N	1.290848	-0.307026	0.000074
C103	C	0.823405	-0.676383	0.000002
N104	N	0.760501	-0.650736	-0.000005
C105	C	0.389736	0.144157	-0.093193
N106	N	0.356414	0.183638	-0.097280
C107	C	0.834241	-0.061271	0.000062
N108	N	0.771354	-0.035609	0.000044
H109	H	0.773883	-0.387743	-0.000008
H110	H	1.202598	-0.479938	0.000054
C111	C	0.550622	0.145621	0.095298
N112	N	0.565757	0.185391	0.100689
C113	C	0.389998	0.145477	0.087776
N114	N	0.357160	0.185125	0.088367
C115	C	0.751149	-0.438698	0.000004
N116	N	0.688245	-0.413051	0.000001
C117	C	0.427905	-0.016090	0.085441
N118	N	0.409308	-0.037586	0.149484
C119	C	0.887312	0.001138	0.589924
N120	N	0.824017	-0.009627	0.617439
C121	C	0.753806	-0.287437	-0.000003
N122	N	0.690905	-0.261786	-0.000008
H123	H	0.854317	-0.161595	0.000081
C124	C	0.882656	0.004482	0.411979
N125	N	0.817368	-0.004022	0.386149
H126	H	0.544216	0.132441	-0.090987
H127	H	1.016736	-0.015055	0.419504
C128	C	0.831264	0.097008	0.411107
N129	N	0.765262	0.090339	0.384390
H130	H	1.090826	0.113726	0.419258
H131	H	0.415933	0.072726	-0.153376
C132	C	0.426489	-0.015967	-0.084118
N133	N	0.406830	-0.037369	-0.147788
H134	H	1.132984	-0.091010	0.000106
H135	H	1.131383	-0.182469	0.000075
H136	H	1.203650	-0.420146	0.000060
H137	H	1.200977	-0.571406	0.000042
H138	H	0.771232	-0.539001	-0.000000
C139	C	1.142237	-0.806433	0.000027
N140	N	1.205123	-0.832096	0.000018
