data_functionalizedCrystal
_audit_creation_method	'MofGen! by Chris Wilmer'
_symmetry_space_group_name_H-M	'P1'
_symmetry_Int_Tables_number	1
_symmetry_cell_setting	triclinic
loop_
_symmetry_equiv_pos_as_xyz
  x,y,z
_cell_length_a	10.654562
_cell_length_b	27.731996
_cell_length_c	9.130313
_cell_angle_alpha	89.992822
_cell_angle_beta	89.996930
_cell_angle_gamma	83.555745
loop_
_atom_site_label
_atom_site_type_symbol
_atom_site_fract_x
_atom_site_fract_y
_atom_site_fract_z
O1	O	1.664937	0.067914	-0.121917
O2	O	1.299186	0.074376	-0.121901
O3	O	1.493455	0.000818	-0.121878
O4	O	1.470668	0.141473	-0.121940
O5	O	1.493452	0.000820	0.121721
O6	O	1.299183	0.074378	0.121698
O7	O	1.664934	0.067916	0.121682
Cu8	Cu	1.482059	0.071147	0.143932
Cu9	Cu	1.482061	0.071145	-0.144151
O10	O	1.470665	0.141475	0.121659
C11	C	1.252407	0.073901	-0.000099
C12	C	1.113025	0.072478	-0.000091
C13	C	1.047521	0.071815	0.132683
C14	C	0.916556	0.070482	0.132659
C15	C	0.916609	0.070476	-0.132925
C16	C	1.047573	0.071806	-0.132900
C17	C	1.047489	0.071821	0.286017
C18	C	0.916523	0.070487	0.285993
C19	C	1.492985	-0.017192	-0.000073
C20	C	1.491576	-0.070857	-0.000058
C21	C	1.482706	-0.403629	-0.132915
C22	C	1.477352	-0.605321	-0.132941
O23	O	1.476607	-0.631397	-0.245871
N24	N	1.476686	-0.630541	-0.000156
C25	C	1.477350	-0.605335	0.132644
O26	O	1.476647	-0.631414	0.245585
C27	C	1.482695	-0.403644	0.132668
C28	C	1.483374	-0.378427	-0.000125
C29	C	1.483384	-0.378412	-0.265698
C30	C	1.484729	-0.327993	-0.265690
C31	C	1.485397	-0.302790	-0.132900
C32	C	1.484719	-0.328007	-0.000117
C33	C	1.483350	-0.378438	0.265467
C34	C	1.484683	-0.328012	0.265461
C35	C	1.485362	-0.302795	0.132668
C36	C	1.486732	-0.252385	0.132680
N37	N	1.487398	-0.227165	-0.000104
C38	C	1.486731	-0.252368	-0.132894
C39	C	1.474546	-0.711226	0.132622
C40	C	1.473212	-0.761649	0.132617
C41	C	1.473212	-0.761631	-0.132969
C42	C	1.474555	-0.711208	-0.132962
C43	C	1.475212	-0.686006	-0.000162
C44	C	1.489557	-0.146483	-0.132868
C45	C	1.490908	-0.096059	-0.132848
C46	C	1.490901	-0.096081	0.132736
C47	C	1.489557	-0.146500	0.132718
C48	C	1.488881	-0.171700	-0.000096
O49	O	1.487464	-0.226277	0.245551
O50	O	1.487406	-0.226279	-0.245818
C51	C	1.481361	-0.454049	-0.132923
C52	C	1.480683	-0.479266	-0.000141
C53	C	1.481351	-0.454064	0.132650
C54	C	1.479349	-0.529689	-0.000146
C55	C	1.478682	-0.554891	-0.132936
C56	C	1.479348	-0.529671	-0.265721
C57	C	1.480693	-0.479251	-0.265713
C58	C	1.480685	-0.479284	0.265434
C59	C	1.479341	-0.529703	0.265416
C60	C	1.478673	-0.554906	0.132625
C61	C	1.711713	0.068391	-0.000123
C62	C	1.851095	0.069814	-0.000141
C63	C	1.471135	0.159484	-0.000149
C64	C	1.472545	0.213149	-0.000174
N65	N	1.482066	0.071149	0.346555
N66	N	1.482064	0.071140	-0.346774
C67	C	1.568110	0.038588	0.423217
C68	C	1.568106	0.038583	0.576554
C69	C	1.396011	0.103702	0.576553
C70	C	1.396010	0.103705	0.423219
C71	C	1.667471	0.000994	0.423219
C72	C	1.667468	0.000988	0.576556
H73	H	0.888434	0.035237	0.333588
Cl74	Cl	1.129921	0.072628	-0.299823
H75	H	1.491464	-0.075530	-0.240989
Cl76	Cl	1.478514	-0.561364	-0.432655
Cl77	Cl	1.807467	0.019177	0.349765
H78	H	1.478798	-0.550231	0.373560
Cl79	Cl	1.287832	0.144627	0.672940
Cl80	Cl	1.481544	-0.447557	-0.432663
H81	H	1.472678	-0.782177	0.240750
H82	H	1.491450	-0.075552	0.240850
Cl83	Cl	0.834319	0.069626	-0.299875
H84	H	1.763627	0.009271	0.618164
Cl85	Cl	1.488710	-0.178155	-0.299836
Cl86	Cl	1.121112	0.020252	0.376949
H87	H	0.868816	0.103891	0.344843
Cl88	Cl	1.090846	0.126244	0.359447
H89	H	1.647608	-0.036157	0.381617
H90	H	1.485277	-0.307465	-0.373824
Cl91	Cl	1.472365	-0.793323	-0.299904
Cl92	Cl	1.481515	-0.447608	0.432388
Cl93	Cl	1.488727	-0.178204	0.299659
H94	H	1.482835	-0.398927	-0.373837
H95	H	1.325935	0.130214	0.360802
H96	H	1.475087	-0.690711	0.240770
Cl97	Cl	1.475405	-0.679512	-0.299907
H98	H	1.482799	-0.398961	0.373602
Cl99	Cl	1.485510	-0.296333	0.432420
Cl100	Cl	1.622653	-0.053212	0.650004
