data_functionalizedCrystal
_audit_creation_method	'MofGen! by Chris Wilmer'
_symmetry_space_group_name_H-M	'P1'
_symmetry_Int_Tables_number	1
_symmetry_cell_setting	triclinic
loop_
_symmetry_equiv_pos_as_xyz
  x,y,z
_cell_length_a	14.044220
_cell_length_b	15.021413
_cell_length_c	14.044220
_cell_angle_alpha	89.996608
_cell_angle_beta	93.188878
_cell_angle_gamma	90.003106
loop_
_atom_site_label
_atom_site_type_symbol
_atom_site_fract_x
_atom_site_fract_y
_atom_site_fract_z
O1	O	1.277172	0.073941	0.230155
O2	O	1.610506	0.407274	0.563489
O3	O	1.943839	0.740608	0.896822
O4	O	1.000501	0.073963	0.221850
O5	O	1.333834	0.407297	0.555183
O6	O	1.667167	0.740630	0.888516
O7	O	1.134684	0.073944	0.087667
O8	O	1.468017	0.407277	0.421000
O9	O	1.801350	0.740610	0.754333
O10	O	1.142989	0.073961	0.364338
O11	O	1.476323	0.407294	0.697671
O12	O	1.809656	0.740627	1.031005
O13	O	1.134662	-0.074121	0.087686
O14	O	1.467995	0.259213	0.421019
O15	O	1.801329	0.592546	0.754352
O16	O	1.000479	-0.074101	0.221869
O17	O	1.333813	0.259232	0.555202
O18	O	1.667146	0.592566	0.888535
O19	O	1.277151	-0.074123	0.230174
O20	O	1.610484	0.259210	0.563508
O21	O	1.943817	0.592543	0.896841
Zn22	Zn	1.138811	-0.097620	0.226024
Zn23	Zn	1.472145	0.235713	0.559358
Zn24	Zn	1.805478	0.569046	0.892691
Zn25	Zn	1.138840	0.097460	0.225999
Zn26	Zn	1.472173	0.430794	0.559333
Zn27	Zn	1.805507	0.764127	0.892666
O28	O	1.142968	-0.074104	0.364357
O29	O	1.476301	0.259230	0.697690
O30	O	1.809634	0.592563	1.031024
C31	C	0.964868	-0.000066	0.218223
C32	C	1.298201	0.333267	0.551557
C33	C	1.631535	0.666601	0.884890
C34	C	0.858725	-0.000058	0.207379
C35	C	1.192059	0.333276	0.540712
C36	C	1.525392	0.666609	0.874045
C37	C	0.664388	-0.000077	0.187553
C38	C	0.997721	0.333257	0.520886
C39	C	1.331054	0.666590	0.854219
C40	C	0.613258	-0.000076	0.264467
C41	C	0.946591	0.333258	0.597800
C42	C	1.279924	0.666591	0.931134
C43	C	0.505122	-0.000086	0.253435
C44	C	0.838455	0.333247	0.586769
C45	C	1.171788	0.666581	0.920102
C46	C	0.772534	-0.000066	0.198583
C47	C	1.105867	0.333267	0.531916
C48	C	1.439200	0.666601	0.865249
N49	N	1.138799	-0.230758	0.226041
N50	N	1.472132	0.102575	0.559375
N51	N	1.805466	0.435909	0.892708
C52	C	1.076740	-0.470432	0.288055
C53	C	1.410073	-0.137099	0.621388
C54	C	1.743406	0.196234	0.954722
C55	C	1.164574	-0.529772	0.313879
C56	C	1.497907	-0.196439	0.647212
C57	C	1.831241	0.136894	0.980545
C58	C	1.138821	-0.412365	0.226020
C59	C	1.472155	-0.079032	0.559353
C60	C	1.805488	0.254302	0.892686
C61	C	1.051012	-0.529767	0.200219
C62	C	1.384346	-0.196433	0.533552
C63	C	1.717679	0.136900	0.866886
C64	C	1.138836	-0.587789	0.226000
C65	C	1.472169	-0.254456	0.559333
C66	C	1.805502	0.078878	0.892667
C67	C	1.226703	-0.470399	0.251890
C68	C	1.560036	-0.137065	0.585223
C69	C	1.893369	0.196268	0.918557
C70	C	1.113081	-0.470388	0.138188
C71	C	1.446415	-0.137054	0.471521
C72	C	1.779748	0.196279	0.804855
C73	C	1.200975	-0.529701	0.163981
C74	C	1.534308	-0.196368	0.497314
C75	C	1.867641	0.136966	0.830647
C76	C	1.138812	-0.311308	0.226033
C77	C	1.472145	0.022026	0.559367
C78	C	1.805479	0.355359	0.892700
C79	C	1.138855	-0.688844	0.225987
C80	C	1.472188	-0.355511	0.559320
C81	C	1.805521	-0.022178	0.892653
C82	C	1.312783	-0.000092	0.233800
C83	C	1.646117	0.333241	0.567134
C84	C	1.979450	0.666575	0.900467
C85	C	1.418926	-0.000094	0.244645
C86	C	1.752259	0.333239	0.577978
C87	C	2.085593	0.666572	0.911312
C88	C	1.131037	-0.000089	0.052054
C89	C	1.464371	0.333245	0.385388
C90	C	1.797704	0.666578	0.718721
C91	C	1.120193	-0.000089	-0.054088
C92	C	1.453526	0.333245	0.279245
C93	C	1.786859	0.666578	0.612578
N94	N	1.138859	0.230598	0.225975
N95	N	1.472193	0.563931	0.559309
N96	N	1.805526	0.897265	0.892642
C97	C	1.100366	-0.000074	-0.248426
C98	C	1.433700	0.333259	0.084907
C99	C	1.767033	0.666592	0.418241
C100	C	1.177281	-0.000078	-0.299556
C101	C	1.510614	0.333255	0.033777
C102	C	1.843947	0.666589	0.367111
C103	C	1.166249	-0.000070	-0.407692
C104	C	1.499582	0.333264	-0.074359
C105	C	1.832916	0.666597	0.258974
C106	C	1.111397	-0.000082	-0.140280
C107	C	1.444730	0.333251	0.193053
C108	C	1.778063	0.666584	0.526387
C109	C	1.146614	-0.000069	0.399969
C110	C	1.479948	0.333264	0.733303
C111	C	1.813281	0.666597	1.066636
C112	C	1.157459	-0.000063	0.506112
C113	C	1.490792	0.333270	0.839446
C114	C	1.824125	0.666603	1.172779
H115	H	1.024301	-0.444409	0.340567
H116	H	1.357634	-0.111076	0.673901
H117	H	1.690968	0.222258	1.007234
H118	H	0.626951	-0.000086	0.113425
H119	H	0.960284	0.333247	0.446758
H120	H	1.293617	0.666581	0.780092
O121	O	0.662838	-0.000052	0.362670
O122	O	0.996171	0.333281	0.696003
O123	O	1.329505	0.666615	1.029337
H124	H	0.741224	-0.000035	0.356040
H125	H	1.074557	0.333298	0.689373
H126	H	1.407890	0.666631	1.022707
O127	O	1.193401	-0.564381	0.412240
O128	O	1.526735	-0.231047	0.745573
O129	O	1.860068	0.102286	1.078906
H130	H	1.141746	-0.540668	0.463611
H131	H	1.475079	-0.207335	0.796945
H132	H	1.808413	0.125999	1.130278
O133	O	1.325109	-0.436014	0.280908
O134	O	1.658442	-0.102680	0.614241
O135	O	1.991775	0.230653	0.947574
H136	H	1.324321	-0.362127	0.280725
H137	H	1.657654	-0.028793	0.614059
H138	H	1.990987	0.304540	0.947392
O139	O	1.002170	-0.000080	-0.298006
O140	O	1.335504	0.333253	0.035327
O141	O	1.668837	0.666586	0.368660
H142	H	1.008808	-0.000088	-0.376391
H143	H	1.342141	0.333245	-0.043057
H144	H	1.675474	0.666579	0.290276
O145	O	1.270605	-0.563973	0.094488
O146	O	1.603938	-0.230639	0.427821
O147	O	1.937272	0.102694	0.761155
H148	H	1.305587	-0.506844	0.060476
H149	H	1.638920	-0.173511	0.393809
H150	H	1.972253	0.159823	0.727143
O151	O	1.084200	-0.435796	0.039840
O152	O	1.417533	-0.102463	0.373173
O153	O	1.750867	0.230871	0.706507
H154	H	1.011243	-0.459529	0.018588
H155	H	1.344576	-0.126196	0.351922
H156	H	1.677910	0.207138	0.685255
O157	O	0.952645	-0.564312	0.171312
O158	O	1.285978	-0.230979	0.504646
O159	O	1.619311	0.102355	0.837979
H160	H	0.901247	-0.540565	0.222925
H161	H	1.234580	-0.207232	0.556258
H162	H	1.567914	0.126102	0.889591
H163	H	1.251414	-0.000024	-0.262117
H164	H	1.584748	0.333309	0.071217
H165	H	1.918081	0.666643	0.404550
