data_functionalizedCrystal
_audit_creation_method	'MofGen! by Chris Wilmer'
_symmetry_space_group_name_H-M	'P1'
_symmetry_Int_Tables_number	1
_symmetry_cell_setting	triclinic
loop_
_symmetry_equiv_pos_as_xyz
  x,y,z
_cell_length_a	18.050591
_cell_length_b	18.050590
_cell_length_c	16.120297
_cell_angle_alpha	87.128980
_cell_angle_beta	87.127539
_cell_angle_gamma	90.014558
loop_
_atom_site_label
_atom_site_type_symbol
_atom_site_fract_x
_atom_site_fract_y
_atom_site_fract_z
Zn1	Zn	1.114082	-0.317053	0.471508
Zn2	Zn	1.120300	-0.434948	0.332095
Zn3	Zn	0.996187	-0.310768	0.332098
Zn4	Zn	0.989873	-0.441195	0.471445
O5	O	1.055110	-0.375991	0.401786
O6	O	1.218830	-0.332709	0.453039
O7	O	1.109081	-0.413231	0.215433
O8	O	1.011866	-0.207679	0.350619
O9	O	1.223398	-0.419326	0.350613
O10	O	1.098483	-0.212296	0.453043
O11	O	1.017896	-0.321997	0.215435
O12	O	0.891426	-0.328053	0.350557
O13	O	1.001105	-0.429972	0.588115
O14	O	0.886787	-0.423877	0.452935
O15	O	1.092360	-0.338766	0.588162
O16	O	1.102958	-0.539700	0.350552
O17	O	1.007134	-0.544289	0.452932
C18	C	0.862160	-0.375961	0.401740
C19	C	0.779615	-0.375967	0.401740
C20	C	0.582659	-0.323807	0.346196
C21	C	0.534176	-0.390617	0.325678
C22	C	0.628482	-0.375992	0.401778
C23	C	0.529884	-0.309205	0.422293
C24	C	0.482496	-0.376009	0.401813
C25	C	0.581088	-0.442836	0.381221
C26	C	0.576799	-0.361379	0.477871
C27	C	0.528337	-0.428238	0.457383
C28	C	0.712582	-0.375981	0.401756
C29	C	0.398398	-0.376028	0.401835
C30	C	1.055055	-0.568942	0.401753
C31	C	1.055098	-0.651488	0.401767
C32	C	1.107306	-0.848420	0.346170
C33	C	1.122011	-0.901192	0.422260
C34	C	1.055138	-0.802620	0.401800
C35	C	1.040508	-0.896931	0.325744
C36	C	1.055179	-0.948606	0.401825
C37	C	1.069876	-0.854307	0.477930
C38	C	0.988343	-0.850039	0.381363
C39	C	1.003020	-0.902791	0.457505
C40	C	1.055117	-0.718521	0.401784
C41	C	1.055200	-1.032704	0.401850
C42	C	1.248814	-0.376022	0.401833
C43	C	1.331359	-0.376035	0.401853
C44	C	1.045335	-0.385766	0.619233
C45	C	1.041169	-0.389932	0.711896
C46	C	1.055186	-0.182288	0.401838
C47	C	1.055218	-0.099743	0.401860
C48	C	1.064891	-0.366200	0.185185
C49	C	1.069201	-0.361826	0.092523
C50	C	1.033536	-0.397521	0.881553
C51	C	1.076831	-0.354239	0.922872
C52	C	1.072584	-0.358462	1.017274
C53	C	1.037782	-0.393299	0.787142
H54	H	1.151435	-0.824631	0.299175
O55	O	1.124956	-0.306293	0.880582
C56	C	1.252482	-0.269122	0.853736
C57	C	1.198065	-0.323453	0.901704
H58	H	1.311603	-0.282987	0.870781
H59	H	1.238777	-0.209971	0.870807
H60	H	1.247348	-0.274218	0.784053
H61	H	1.203169	-0.318424	0.971397
H62	H	1.211786	-0.382582	0.884563
H63	H	0.606432	-0.279719	0.299140
O64	O	1.025587	-0.919367	0.249026
C65	C	0.938898	-0.917591	0.140033
C66	C	0.955686	-0.892150	0.226931
H67	H	0.882390	-0.895584	0.122136
H68	H	0.938465	-0.980782	0.140906
H69	H	0.983443	-0.895197	0.092697
H70	H	0.911159	-0.914491	0.274316
H71	H	0.956145	-0.828957	0.225990
O72	O	0.500010	-0.480890	0.513469
C73	C	0.389926	-0.539685	0.576886
C74	C	0.421908	-0.480017	0.513359
H75	H	0.326777	-0.539009	0.576805
H76	H	0.408187	-0.527708	0.641571
H77	H	0.411149	-0.596554	0.559267
H78	H	0.400700	-0.423124	0.530900
H79	H	0.403652	-0.492058	0.448691
O80	O	0.985580	-0.445493	0.924054
C81	C	0.937528	-0.493438	1.058271
C82	C	0.991879	-0.439088	1.010230
H83	H	0.942591	-0.488267	1.127953
H84	H	0.951302	-0.552594	1.041274
H85	H	0.878411	-0.479652	1.041143
H86	H	1.051015	-0.452806	1.027332
H87	H	0.978042	-0.379948	1.027232
O88	O	0.920927	-0.823214	0.360845
C89	C	0.813447	-0.752807	0.403478
C90	C	0.889775	-0.783158	0.426839
H91	H	0.788244	-0.720402	0.456814
H92	H	0.775247	-0.800918	0.391165
H93	H	0.820367	-0.714586	0.345123
H94	H	0.882925	-0.821368	0.485206
H95	H	0.927947	-0.735011	0.439098
O96	O	0.599263	-0.346466	0.554574
C97	C	0.598650	-0.259191	0.662927
C98	C	0.573173	-0.275989	0.576046
H99	H	0.577554	-0.202217	0.680321
H100	H	0.661828	-0.259819	0.662335
H101	H	0.575382	-0.303133	0.710472
H102	H	0.596388	-0.232064	0.528452
H103	H	0.509993	-0.275387	0.576707
H104	H	0.515342	-0.402990	0.261343
O105	O	0.607898	-0.510189	0.360424
C106	C	0.716259	-0.585757	0.337128
C107	C	0.685996	-0.509444	0.360674
H108	H	0.779403	-0.585185	0.337339
H109	H	0.698405	-0.598345	0.272457
H110	H	0.693361	-0.630258	0.384218
H111	H	0.708879	-0.464893	0.313640
H112	H	0.703843	-0.496919	0.425365
O113	O	0.503180	-0.241756	0.442885
C114	C	0.500563	-0.110523	0.407490
C115	C	0.530869	-0.186861	0.384095
H116	H	0.522925	-0.066122	0.359961
H117	H	0.518885	-0.097570	0.471867
H118	H	0.437393	-0.111376	0.407935
H119	H	0.594039	-0.186065	0.383602
H120	H	0.512490	-0.199784	0.319733
H121	H	1.082208	-0.835565	0.542315
O122	O	1.189469	-0.927929	0.442765
C123	C	1.320702	-0.930436	0.407346
C124	C	1.244349	-0.900121	0.384025
H125	H	1.365095	-0.907954	0.359877
H126	H	1.319951	-0.993606	0.407714
H127	H	1.333589	-0.912152	0.471756
H128	H	1.231414	-0.918351	0.319610
H129	H	1.245139	-0.836955	0.383714
O130	O	0.950485	-0.930990	0.513815
C131	C	0.906572	-0.941194	0.657584
C132	C	0.966121	-0.909226	0.593903
H133	H	0.919185	-0.923597	0.722347
H134	H	0.906645	-1.004317	0.656873
H135	H	0.849765	-0.919290	0.640660
H136	H	1.022958	-0.931074	0.610782
H137	H	0.965984	-0.846105	0.594626
