data_functionalizedCrystal
_audit_creation_method	'MofGen! by Chris Wilmer'
_symmetry_space_group_name_H-M	'P1'
_symmetry_Int_Tables_number	1
_symmetry_cell_setting	triclinic
loop_
_symmetry_equiv_pos_as_xyz
  x,y,z
_cell_length_a	12.645331
_cell_length_b	19.077068
_cell_length_c	12.645323
_cell_angle_alpha	87.733562
_cell_angle_beta	89.977324
_cell_angle_gamma	87.673965
loop_
_atom_site_label
_atom_site_type_symbol
_atom_site_fract_x
_atom_site_fract_y
_atom_site_fract_z
Zn1	Zn	1.603704	0.280215	-0.616341
Zn2	Zn	1.596433	0.397920	-0.446177
Zn3	Zn	1.426417	0.280238	-0.439086
Zn4	Zn	1.419250	0.397874	-0.623390
O5	O	1.511451	0.339062	-0.531248
O6	O	1.751086	0.295838	-0.593785
O7	O	1.573836	0.382338	-0.296891
O8	O	1.455976	0.181744	-0.456682
O9	O	1.745744	0.382315	-0.468767
O10	O	1.586228	0.181727	-0.586910
O11	O	1.448926	0.295878	-0.291681
O12	O	1.277119	0.295834	-0.463517
O13	O	1.443762	0.382237	-0.770800
O14	O	1.271854	0.382260	-0.598924
O15	O	1.579279	0.295793	-0.765621
O16	O	1.566887	0.496405	-0.475602
O17	O	1.436712	0.496371	-0.605800
C18	C	1.500261	0.521925	-0.542259
C19	C	1.495571	0.600155	-0.547004
C20	C	1.236022	0.339045	-0.531217
C21	C	1.118191	0.339055	-0.531229
C22	C	1.511532	0.339007	-0.807751
C23	C	1.511567	0.338984	-0.925579
C24	C	0.953920	0.284434	-0.446482
C25	C	1.076471	0.284575	-0.446131
C26	C	1.069166	0.413197	-0.505185
C27	C	0.946585	0.412899	-0.504611
C28	C	0.952185	0.320238	-0.642379
C29	C	1.074892	0.318582	-0.641656
C30	C	1.787955	0.339079	-0.531281
C31	C	1.905785	0.339086	-0.531295
C32	C	1.522713	0.155484	-0.520219
C33	C	1.527512	0.077254	-0.515518
C34	C	1.561196	0.636902	-0.481503
C35	C	1.556791	0.710407	-0.485973
C36	C	1.486756	0.747164	-0.555939
C37	C	1.421129	0.710412	-0.621447
C38	C	1.425539	0.636908	-0.616982
C39	C	1.466295	0.966998	-0.576561
C40	C	1.461887	1.040507	-0.581019
C41	C	1.597552	1.040497	-0.445546
C42	C	1.601952	0.966992	-0.441082
C43	C	1.536329	0.930246	-0.506594
N44	N	1.482249	0.822298	-0.560507
N45	N	1.540841	0.855113	-0.502031
C46	C	1.426076	0.393109	-1.096386
C47	C	1.426275	0.393377	-0.973842
C48	C	1.622043	0.359114	-0.971313
C49	C	1.621572	0.359454	-1.093932
C50	C	1.487656	0.264425	-1.088282
C51	C	1.485137	0.264872	-0.965702
C52	C	1.511434	0.339065	-0.255819
C53	C	1.511617	0.338890	-0.137979
H54	H	1.109912	0.229595	-0.461943
H55	H	1.408738	0.246076	-1.118080
N56	N	0.909402	0.432948	-0.402912
N57	N	0.849499	0.486237	-0.395086
H58	H	0.823240	0.500395	-0.323259
N59	N	1.383171	0.245834	-0.928049
N60	N	1.330108	0.286657	-0.871867
H61	H	1.258094	0.273214	-0.845268
H62	H	1.103307	0.355485	-0.707866
H63	H	1.404869	1.070433	-0.638013
N64	N	1.565875	0.213738	-1.121605
N65	N	1.622281	0.180050	-1.054478
H66	H	1.677526	0.144257	-1.078015
H67	H	1.344211	0.380780	-0.942981
N68	N	1.703928	0.312074	-1.128339
N69	N	1.681782	0.261014	-1.182011
H70	H	1.739948	0.227556	-1.206312
N71	N	1.115542	0.250130	-0.666386
N72	N	1.096305	0.198393	-0.606754
H73	H	1.125020	0.150047	-0.624214
H74	H	1.095795	0.455006	-0.565216
N75	N	1.445273	0.461927	-1.139194
N76	N	1.531004	0.489556	-1.120956
H77	H	1.544569	0.538158	-1.151191
N78	N	1.106366	0.433610	-0.404605
N79	N	1.156883	0.488260	-0.398175
H80	H	1.183154	0.502674	-0.327138
N81	N	0.912778	0.370167	-0.721585
N82	N	0.860180	0.350231	-0.797660
H83	H	0.832341	0.385496	-0.853590
H84	H	0.927806	0.229289	-0.462078
N85	N	1.349604	0.747967	-0.692920
N86	N	1.345674	0.813595	-0.696899
H87	H	1.295157	0.840118	-0.747378
H88	H	0.924517	0.267117	-0.666928
H89	H	1.343759	0.380633	-1.125108
H90	H	1.412860	0.937086	-0.629902
N91	N	1.647728	0.427736	-1.133952
N92	N	1.734611	0.452202	-1.110913
H93	H	1.753087	0.500427	-1.139174
H94	H	1.618222	0.606979	-0.424525
H95	H	1.441725	0.448581	-0.947857
N96	N	1.703888	0.311137	-0.931869
N97	N	1.681654	0.261454	-0.869462
H98	H	1.739454	0.227568	-0.841602
N99	N	1.558028	0.211517	-0.924048
N100	N	1.566211	0.200575	-0.826223
H101	H	1.617699	0.162896	-0.796797
N102	N	0.914263	0.299885	-0.343710
N103	N	0.850704	0.350972	-0.332659
H104	H	0.822694	0.361887	-0.260077
N105	N	1.648740	0.426685	-0.936879
N106	N	1.586590	0.460132	-0.878678
H107	H	1.605439	0.507856	-0.854359
H108	H	1.610229	0.740323	-0.432634
H109	H	1.104992	0.297032	-0.363722
H110	H	0.914383	0.454998	-0.563934
N111	N	1.673478	0.929463	-0.369582
N112	N	1.665978	0.937743	-0.272264
H113	H	1.716490	0.911244	-0.221754
N114	N	1.664572	1.078043	-0.378637
N115	N	1.660627	1.143671	-0.382628
H116	H	1.707963	1.170189	-0.335373
N117	N	1.358505	0.599381	-0.683904
N118	N	1.295980	0.632206	-0.746372
H119	H	1.248638	0.605703	-0.793643
