data_functionalizedCrystal
_audit_creation_method	'MofGen! by Chris Wilmer'
_symmetry_space_group_name_H-M	'P1'
_symmetry_Int_Tables_number	1
_symmetry_cell_setting	triclinic
loop_
_symmetry_equiv_pos_as_xyz
  x,y,z
_cell_length_a	14.853567
_cell_length_b	19.188930
_cell_length_c	13.930277
_cell_angle_alpha	89.993194
_cell_angle_beta	89.998167
_cell_angle_gamma	83.389856
loop_
_atom_site_label
_atom_site_type_symbol
_atom_site_fract_x
_atom_site_fract_y
_atom_site_fract_z
O1	O	1.195859	0.091152	-0.079776
O2	O	1.695859	0.591152	0.420224
O3	O	0.933339	0.102011	-0.079794
O4	O	1.433339	0.602011	0.420206
O5	O	1.072175	-0.005049	-0.079766
O6	O	1.572175	0.494951	0.420234
O7	O	1.057023	0.198212	-0.079804
O8	O	1.557023	0.698212	0.420196
O9	O	1.072161	-0.005046	0.079896
O10	O	1.572161	0.494954	0.579896
O11	O	0.933325	0.102014	0.079868
O12	O	1.433325	0.602014	0.579868
O13	O	1.195845	0.091155	0.079886
O14	O	1.695845	0.591155	0.579886
Zn15	Zn	1.064583	0.096585	0.105227
Zn16	Zn	1.564583	0.596585	0.605227
Zn17	Zn	1.064601	0.096581	-0.105135
Zn18	Zn	1.564601	0.596581	0.394865
O19	O	1.057009	0.198215	0.079858
O20	O	1.557009	0.698215	0.579858
C21	C	0.899746	0.101521	0.000035
C22	C	1.399746	0.601521	0.500035
C23	C	0.799671	0.100046	0.000029
C24	C	1.299671	0.600046	0.500029
C25	C	1.071677	-0.031060	0.000068
C26	C	1.571677	0.468940	0.500068
C27	C	1.070204	-0.108569	0.000076
C28	C	1.570204	0.391431	0.500076
C29	C	0.387525	0.030218	0.000064
C30	C	0.887525	0.530218	0.500064
C31	C	0.365537	0.157407	0.000039
C32	C	0.865537	0.657407	0.500039
C33	C	0.459563	0.158794	0.000036
C34	C	0.959563	0.658794	0.500036
C35	C	0.517574	0.095891	0.000045
C36	C	1.017574	0.595891	0.500045
C37	C	0.481560	0.031602	0.000058
C38	C	0.981560	0.531602	0.500058
C39	C	0.495585	0.223081	0.000013
C40	C	0.995585	0.723081	0.500013
C41	C	0.589616	0.224470	0.000009
C42	C	1.089616	0.724470	0.500009
C43	C	0.647629	0.161567	0.000025
C44	C	1.147629	0.661567	0.500025
C45	C	0.611610	0.097276	0.000039
C46	C	1.111610	0.597276	0.500039
C47	C	0.669621	0.034373	0.000048
C48	C	1.169621	0.534373	0.500048
C49	C	0.633603	-0.029919	0.000069
C50	C	1.133603	0.470081	0.500069
C51	C	0.539574	-0.031301	0.000074
C52	C	1.039574	0.468699	0.500074
C53	C	0.741659	0.162949	0.000020
C54	C	1.241659	0.662949	0.500020
C55	C	0.763656	0.035757	0.000042
C56	C	1.263656	0.535757	0.500042
C57	C	1.151668	-0.153221	0.000086
C58	C	1.651668	0.346779	0.500086
C59	C	1.150285	-0.226050	0.000071
C60	C	1.650285	0.273950	0.500071
C61	C	1.067432	-0.254223	0.000065
C62	C	1.567432	0.245777	0.500065
C63	C	0.985957	-0.209561	0.000049
C64	C	1.485957	0.290439	0.500049
C65	C	0.987343	-0.136734	0.000055
C66	C	1.487343	0.363266	0.500055
N67	N	1.004096	-0.362438	0.054396
N68	N	1.504096	0.137562	0.554396
N69	N	1.002785	-0.431621	0.054393
N70	N	1.502785	0.068379	0.554393
C71	C	1.063251	-0.473645	0.000045
C72	C	1.563251	0.026355	0.500045
N73	N	1.125091	-0.443875	-0.054287
N74	N	1.625091	0.056125	0.445713
N75	N	1.126405	-0.374686	-0.054279
N76	N	1.626405	0.125314	0.445721
C77	C	1.065920	-0.333190	0.000058
C78	C	1.565920	0.166810	0.500058
C79	C	1.143220	-0.597267	0.000037
C80	C	1.643220	-0.097267	0.500037
C81	C	1.141833	-0.670096	0.000015
C82	C	1.641833	-0.170096	0.500015
C83	C	0.977503	-0.653606	0.000003
C84	C	1.477503	-0.153606	0.500003
C85	C	0.978893	-0.580778	0.000015
C86	C	1.478893	-0.080778	0.500015
C87	C	1.061754	-0.552613	0.000036
C88	C	1.561754	-0.052613	0.500036
C89	C	1.229438	0.091646	0.000055
C90	C	1.729438	0.591646	0.500055
C91	C	1.329513	0.093120	0.000055
C92	C	1.829513	0.593120	0.500055
C93	C	1.057507	0.224226	0.000022
C94	C	1.557507	0.724226	0.500022
C95	C	1.058980	0.301736	0.000008
C96	C	1.558980	0.801736	0.500008
N97	N	1.064577	0.096588	0.248793
N98	N	1.564577	0.596588	0.748793
N99	N	1.064614	0.096573	-0.248701
N100	N	1.564614	0.596573	0.251299
C101	C	1.003093	0.143979	0.299044
C102	C	1.503093	0.643979	0.799044
C103	C	1.126068	0.049193	0.299047
C104	C	1.626068	0.549193	0.799047
C105	C	1.126077	0.049190	0.399543
C106	C	1.626077	0.549190	0.899543
C107	C	1.064593	0.096582	0.449794
C108	C	1.564593	0.596582	0.949794
C109	C	1.003098	0.143976	0.399549
C110	C	1.503098	0.643976	0.899549
C111	C	1.187564	0.001792	0.449795
C112	C	1.687564	0.501792	0.949795
C113	C	1.187576	0.001787	0.550297
C114	C	1.687576	0.501787	1.050297
C115	C	1.126095	0.049182	0.600550
C116	C	1.626095	0.549182	1.100550
C117	C	1.064599	0.096579	0.550299
C118	C	1.564599	0.596579	1.050299
C119	C	1.003114	0.143971	0.600549
C120	C	1.503114	0.643971	1.100549
C121	C	0.941621	0.191371	0.550300
C122	C	1.441621	0.691371	1.050300
C123	C	0.941617	0.191372	0.449801
C124	C	1.441617	0.691372	0.949801
C125	C	1.126099	0.049182	0.701049
C126	C	1.626099	0.549182	1.201049
C127	C	1.003120	0.143968	0.701055
C128	C	1.503120	0.643968	1.201055
H129	H	0.810884	-0.015466	0.000053
H130	H	1.310884	0.484534	0.500053
C131	C	1.255211	-0.050360	0.605562
C132	C	1.755211	0.449640	1.105562
N133	N	1.306152	-0.089639	0.647188
N134	N	1.806152	0.410361	1.147188
H135	H	1.237619	-0.036796	0.408878
H136	H	1.737619	0.463204	0.908878
H137	H	1.219140	-0.130295	0.000100
H138	H	1.719140	0.369705	0.500100
H139	H	0.358195	-0.022127	0.000085
H140	H	0.858195	0.477873	0.500085
C141	C	1.193737	-0.002954	0.756318
C142	C	1.693737	0.497046	1.256318
N143	N	1.244689	-0.042224	0.797946
N144	N	1.744689	0.457776	1.297946
C145	C	1.239905	-0.275176	0.000088
C146	C	1.739905	0.224824	0.500088
N147	N	1.307408	-0.312176	0.000104
N148	N	1.807408	0.187824	0.500104
H149	H	0.953054	0.182563	0.741963
H150	H	1.453054	0.682563	1.241963
H151	H	0.918498	-0.232504	0.000042
H152	H	1.418498	0.267496	0.500042
H153	H	0.510239	-0.083644	0.000114
H154	H	1.010239	0.416356	0.500114
H155	H	0.318299	0.208620	0.000023
H156	H	0.818299	0.708620	0.500023
C157	C	0.873975	0.243503	0.394520
C158	C	1.373975	0.743503	0.894520
N159	N	0.823025	0.282765	0.352878
N160	N	1.323025	0.782765	0.852878
H161	H	0.680849	-0.081134	0.000070
H162	H	1.180849	0.418866	0.500070
C163	C	0.886364	-0.684591	-0.000007
C164	C	1.386364	-0.184591	0.499993
N165	N	0.817715	-0.707933	-0.000017
N166	N	1.317715	-0.207933	0.499983
H167	H	0.770981	0.215294	0.000005
H168	H	1.270981	0.715294	0.500005
H169	H	0.448345	0.274293	-0.000004
H170	H	0.948345	0.774293	0.499996
C171	C	0.935453	0.196116	0.243770
C172	C	1.435453	0.696116	0.743770
N173	N	0.884505	0.235386	0.202136
N174	N	1.384505	0.735386	0.702136
H175	H	0.618933	0.276821	-0.000008
H176	H	1.118933	0.776821	0.499992
C177	C	0.889274	-0.531658	0.000009
C178	C	1.389274	-0.031658	0.500009
N179	N	0.821769	-0.494661	0.000001
N180	N	1.321769	0.005339	0.500001
C181	C	1.234368	-0.566283	0.000046
C182	C	1.734368	-0.066283	0.500046
N183	N	1.303022	-0.542949	0.000050
N184	N	1.803022	-0.042949	0.500050
H185	H	0.891556	0.229955	0.591226
H186	H	1.391556	0.729955	1.091226
C187	C	1.193677	-0.002950	0.243768
C188	C	1.693677	0.497050	0.743768
N189	N	1.244597	-0.042231	0.202127
N190	N	1.744597	0.457769	0.702127
H191	H	1.208174	-0.706452	0.000018
H192	H	1.708174	-0.206452	0.500018
H193	H	0.921003	-0.100377	0.000047
H194	H	1.421003	0.399623	0.500047
