data_functionalizedCrystal
_audit_creation_method	'MofGen! by Chris Wilmer'
_symmetry_space_group_name_H-M	'P1'
_symmetry_Int_Tables_number	1
_symmetry_cell_setting	triclinic
loop_
_symmetry_equiv_pos_as_xyz
  x,y,z
_cell_length_a	14.044220
_cell_length_b	16.109301
_cell_length_c	15.186229
_cell_angle_alpha	90.005167
_cell_angle_beta	90.001537
_cell_angle_gamma	91.674821
loop_
_atom_site_label
_atom_site_type_symbol
_atom_site_fract_x
_atom_site_fract_y
_atom_site_fract_z
O1	O	1.257643	-0.200436	-0.073140
O2	O	1.590977	0.132898	0.260193
O3	O	1.924310	0.466231	0.593526
O4	O	0.981676	-0.193203	-0.073163
O5	O	1.315010	0.140130	0.260171
O6	O	1.648343	0.473464	0.593504
O7	O	1.127241	-0.076352	-0.073142
O8	O	1.460574	0.256981	0.260191
O9	O	1.793908	0.590314	0.593525
O10	O	1.112079	-0.317286	-0.073161
O11	O	1.445412	0.016047	0.260172
O12	O	1.778745	0.349380	0.593506
O13	O	1.127231	-0.076350	0.073315
O14	O	1.460565	0.256984	0.406649
O15	O	1.793898	0.590317	0.739982
O16	O	0.981667	-0.193200	0.073295
O17	O	1.315000	0.140133	0.406628
O18	O	1.648333	0.473466	0.739961
O19	O	1.257634	-0.200433	0.073317
O20	O	1.590967	0.132900	0.406650
O21	O	1.924300	0.466234	0.739984
Zn22	Zn	1.119649	-0.196816	0.096559
Zn23	Zn	1.452982	0.136517	0.429892
Zn24	Zn	1.786315	0.469850	0.763226
Zn25	Zn	1.119661	-0.196820	-0.096405
Zn26	Zn	1.452995	0.136514	0.236929
Zn27	Zn	1.786328	0.469847	0.570262
O28	O	1.112069	-0.317284	0.073296
O29	O	1.445402	0.016050	0.406630
O30	O	1.778736	0.349383	0.739963
C31	C	1.126622	-0.045330	0.000087
C32	C	1.459955	0.288003	0.333420
C33	C	1.793289	0.621336	0.666754
C34	C	1.124781	0.047102	0.000088
C35	C	1.458114	0.380435	0.333422
C36	C	1.791447	0.713769	0.666755
C37	C	0.946358	-0.190036	0.000063
C38	C	1.279691	0.143298	0.333397
C39	C	1.613025	0.476631	0.666730
C40	C	0.841135	-0.180592	0.000055
C41	C	1.174468	0.152742	0.333389
C42	C	1.507802	0.486075	0.666722
N43	N	1.119647	-0.196814	0.228252
N44	N	1.452980	0.136519	0.561585
N45	N	1.786313	0.469853	0.894918
C46	C	0.648479	-0.163326	0.000074
C47	C	0.981812	0.170007	0.333407
C48	C	1.315146	0.503340	0.666741
C49	C	0.590825	-0.230306	0.000072
C50	C	0.924159	0.103028	0.333406
C51	C	1.257492	0.436361	0.666739
C52	C	0.483625	-0.220699	0.000083
C53	C	0.816958	0.112634	0.333416
C54	C	1.150291	0.445968	0.666750
C55	C	0.755690	-0.172932	0.000064
C56	C	1.089023	0.160402	0.333397
C57	C	1.422356	0.493735	0.666730
C58	C	1.292952	-0.203600	0.000089
C59	C	1.626285	0.129733	0.333422
C60	C	1.959619	0.463066	0.666756
C61	C	1.398175	-0.213044	0.000091
C62	C	1.731508	0.120289	0.333425
C63	C	2.064841	0.453622	0.666758
C64	C	1.112688	-0.348306	0.000065
C65	C	1.446021	-0.014972	0.333399
C66	C	1.779355	0.318361	0.666732
C67	C	1.114529	-0.440738	0.000058
C68	C	1.447863	-0.107404	0.333392
C69	C	1.781196	0.225929	0.666725
C70	C	1.206874	0.263266	0.000081
C71	C	1.540207	0.596600	0.333414
C72	C	1.873541	0.929933	0.666748
C73	C	1.205137	0.350116	0.000073
C74	C	1.538470	0.683449	0.333407
C75	C	1.871803	1.016783	0.666740
C76	C	1.032429	0.343091	0.000063
C77	C	1.365763	0.676425	0.333396
C78	C	1.699096	1.009758	0.666730
C79	C	1.034168	0.256243	0.000064
C80	C	1.367501	0.589577	0.333398
C81	C	1.700834	0.922910	0.666731
C82	C	1.121393	0.216333	0.000078
C83	C	1.454726	0.549666	0.333411
C84	C	1.788060	0.883000	0.666744
C85	C	1.117917	0.390031	0.000069
C86	C	1.451250	0.723364	0.333402
C87	C	1.784584	1.056698	0.666736
C88	C	1.116032	0.484197	0.000061
C89	C	1.449366	0.817530	0.333394
C90	C	1.782699	1.150864	0.666728
C91	C	1.123278	0.122161	0.000084
C92	C	1.456611	0.455494	0.333417
C93	C	1.789945	0.788828	0.666751
N94	N	1.119671	-0.196816	-0.228097
N95	N	1.453004	0.136517	0.105236
N96	N	1.786337	0.469851	0.438569
C97	C	1.184125	-0.145093	0.453984
C98	C	1.517458	0.188240	0.787317
C99	C	1.850791	0.521573	1.120650
C100	C	1.184128	-0.145092	0.546173
C101	C	1.517461	0.188242	0.879507
C102	C	1.850794	0.521575	1.212840
C103	C	1.055186	-0.248539	0.546164
C104	C	1.388519	0.084795	0.879498
C105	C	1.721853	0.418128	1.212831
C106	C	1.055179	-0.248536	0.453976
C107	C	1.388512	0.084798	0.787310
C108	C	1.721846	0.418131	1.120643
C109	C	1.119654	-0.196814	0.407888
C110	C	1.452987	0.136519	0.741222
C111	C	1.786321	0.469852	1.074555
C112	C	1.119664	-0.196816	0.592266
C113	C	1.452997	0.136518	0.925599
C114	C	1.786330	0.469851	1.258933
C115	C	1.119666	-0.196814	0.692222
C116	C	1.453000	0.136519	1.025555
C117	C	1.786333	0.469852	1.358889
C118	C	1.119650	-0.196814	0.307926
C119	C	1.452983	0.136519	0.641259
C120	C	1.786317	0.469852	0.974593
H121	H	0.621976	-0.294863	0.000063
H122	H	0.955310	0.038470	0.333396
H123	H	1.288643	0.371803	0.666730
C124	C	0.606397	-0.076117	0.000079
C125	C	0.939730	0.257216	0.333412
C126	C	1.273064	0.590549	0.666746
N127	N	0.574690	-0.010432	0.000078
N128	N	0.908023	0.322901	0.333412
N129	N	1.241356	0.656235	0.666745
H130	H	1.277898	0.230774	0.000090
H131	H	1.611232	0.564108	0.333423
H132	H	1.944565	0.897441	0.666757
C133	C	0.940127	0.204613	0.000056
C134	C	1.273460	0.537947	0.333390
C135	C	1.606793	0.871280	0.666723
N136	N	0.869298	0.165726	0.000047
N137	N	1.202632	0.499059	0.333380
N138	N	1.535965	0.832392	0.666714
C139	C	1.299173	0.401739	0.000085
C140	C	1.632506	0.735072	0.333418
C141	C	1.965840	1.068406	0.666752
N142	N	1.370005	0.440621	0.000095
N143	N	1.703339	0.773954	0.333429
N144	N	2.036672	1.107288	0.666762
C145	C	0.936486	0.387001	0.000066
C146	C	1.269820	0.720334	0.333399
C147	C	1.603153	1.053667	0.666732
N148	N	0.864220	0.420072	0.000074
N149	N	1.197554	0.753406	0.333407
N150	N	1.530887	1.086739	0.666741
C151	C	1.255041	-0.088191	0.403290
C152	C	1.588374	0.245142	0.736624
C153	C	1.921708	0.578475	1.069957
N154	N	1.308454	-0.045328	0.365111
N155	N	1.641788	0.288006	0.698444
N156	N	1.975121	0.621339	1.031777
C157	C	1.255043	-0.088187	0.596874
C158	C	1.588377	0.245146	0.930207
C159	C	1.921710	0.578480	1.263541
N160	N	1.308457	-0.045321	0.635061
N161	N	1.641790	0.288013	0.968395
N162	N	1.975123	0.621346	1.301728
C163	C	0.984266	-0.305428	0.596869
C164	C	1.317599	0.027906	0.930203
C165	C	1.650932	0.361239	1.263536
N166	N	0.930847	-0.348277	0.635060
N167	N	1.264180	-0.014944	0.968393
N168	N	1.597513	0.318389	1.301726
H169	H	1.002675	-0.290653	0.416443
H170	H	1.336008	0.042680	0.749776
H171	H	1.669341	0.376014	1.083109
