data_functionalizedCrystal
_audit_creation_method	'MofGen! by Chris Wilmer'
_symmetry_space_group_name_H-M	'P1'
_symmetry_Int_Tables_number	1
_symmetry_cell_setting	triclinic
loop_
_symmetry_equiv_pos_as_xyz
  x,y,z
_cell_length_a	13.339070
_cell_length_b	13.596369
_cell_length_c	13.339070
_cell_angle_alpha	89.997041
_cell_angle_beta	64.370706
_cell_angle_gamma	90.005180
loop_
_atom_site_label
_atom_site_type_symbol
_atom_site_fract_x
_atom_site_fract_y
_atom_site_fract_z
O1	O	1.496809	0.081817	-0.550529
O2	O	1.996809	0.581817	-0.050529
O3	O	1.181999	0.081813	-0.478269
O4	O	1.681999	0.581813	0.021731
O5	O	1.303274	0.081811	-0.356994
O6	O	1.803274	0.581811	0.143006
O7	O	1.375534	0.081818	-0.671803
O8	O	1.875534	0.581818	-0.171803
O9	O	1.303255	-0.081771	-0.356980
O10	O	1.803255	0.418229	0.143020
O11	O	1.181980	-0.081770	-0.478255
O12	O	1.681980	0.418230	0.021745
O13	O	1.496789	-0.081766	-0.550515
O14	O	1.996789	0.418234	-0.050515
Zn15	Zn	1.339382	-0.107740	-0.514383
Zn16	Zn	1.839382	0.392260	-0.014383
Zn17	Zn	1.339407	0.107787	-0.514401
Zn18	Zn	1.839407	0.607787	-0.014401
O19	O	1.375515	-0.081765	-0.671790
O20	O	1.875515	0.418235	-0.171790
C21	C	1.140874	0.000021	-0.466056
C22	C	1.640874	0.500021	0.033944
C23	C	1.018360	0.000019	-0.429672
C24	C	1.518360	0.500019	0.070328
N25	N	1.339372	-0.254832	-0.514372
N26	N	1.839372	0.245168	-0.014372
C27	C	0.732973	0.000041	-0.712571
C28	C	1.232973	0.500041	-0.212571
C29	C	0.848081	0.000045	-0.746759
C30	C	1.348081	0.500045	-0.246759
C31	C	0.890657	0.000038	-0.667490
C32	C	1.390657	0.500038	-0.167490
C33	C	0.818112	0.000027	-0.554028
C34	C	1.318112	0.500027	-0.054028
C35	C	0.702992	0.000030	-0.519837
C36	C	1.202992	0.500030	-0.019837
C37	C	0.860676	0.000028	-0.474756
C38	C	1.360676	0.500028	0.025244
C39	C	0.788132	0.000017	-0.361294
C40	C	1.288132	0.500017	0.138706
C41	C	0.673023	0.000019	-0.327109
C42	C	1.173023	0.500019	0.172891
C43	C	0.630448	0.000026	-0.406377
C44	C	1.130448	0.500026	0.093623
C45	C	0.975796	0.000025	-0.508947
C46	C	1.475796	0.500025	-0.008947
C47	C	0.945816	0.000015	-0.316213
C48	C	1.445816	0.500015	0.183787
C49	C	0.830707	0.000010	-0.282025
C50	C	1.330707	0.500010	0.217975
C51	C	1.339406	-0.656123	-0.514402
C52	C	1.839406	-0.156123	-0.014402
C53	C	1.339394	-0.544472	-0.514396
C54	C	1.839394	-0.044472	-0.014396
C55	C	1.339390	-0.455481	-0.514388
C56	C	1.839390	0.044519	-0.014388
C57	C	1.339377	-0.343823	-0.514381
C58	C	1.839377	0.156177	-0.014381
C59	C	1.537914	0.000028	-0.562728
C60	C	2.037914	0.500028	-0.062728
C61	C	1.660428	0.000037	-0.599111
C62	C	2.160428	0.500037	-0.099111
C63	C	1.291058	0.000021	-0.315872
C64	C	1.791058	0.500021	0.184128
C65	C	1.254675	0.000025	-0.193358
C66	C	1.754675	0.500025	0.306642
N67	N	1.339423	0.254879	-0.514405
N68	N	1.839423	0.754879	-0.014405
C69	C	1.387730	0.000028	-0.712912
C70	C	1.887730	0.500028	-0.212912
C71	C	1.424114	0.000031	-0.835426
C72	C	1.924114	0.500031	-0.335426
C73	C	1.537574	0.000028	0.092030
C74	C	2.037574	0.500028	0.592030
C75	C	1.571761	0.000019	-0.023079
C76	C	2.071761	0.500019	0.476921
C77	C	1.492492	0.000021	-0.065654
C78	C	1.992492	0.500021	0.434346
C79	C	1.379030	0.000031	0.006890
C80	C	1.879030	0.500031	0.506890
C81	C	1.344839	0.000032	0.122010
C82	C	1.844839	0.500032	0.622010
C83	C	1.299758	0.000025	-0.035674
C84	C	1.799758	0.500025	0.464326
C85	C	1.186296	0.000034	0.036871
C86	C	1.686296	0.500034	0.536871
C87	C	1.152111	0.000036	0.151979
C88	C	1.652111	0.500036	0.651979
C89	C	1.231380	0.000035	0.194555
C90	C	1.731380	0.500035	0.694555
C91	C	1.333949	0.000024	-0.150794
C92	C	1.833949	0.500024	0.349206
C93	C	1.141215	0.000027	-0.120813
C94	C	1.641215	0.500027	0.379187
C95	C	1.107028	0.000036	-0.005705
C96	C	1.607028	0.500036	0.494295
H97	H	1.034852	0.000030	-0.601328
H98	H	1.534852	0.500030	-0.101328
H99	H	0.771625	0.000009	-0.189642
H100	H	1.271625	0.500009	0.310358
H101	H	0.984385	0.000045	-0.695333
H102	H	1.484385	0.500045	-0.195333
H103	H	1.602102	0.000019	0.126707
H104	H	2.102102	0.500019	0.626707
H105	H	1.426331	0.000015	-0.209849
H106	H	1.926331	0.500015	0.290151
H107	H	1.520335	0.000014	-0.159382
H108	H	2.020335	0.500014	0.340618
H109	H	0.907140	0.000062	-0.839139
H110	H	1.407140	0.500062	-0.339139
H111	H	0.980479	0.000013	-0.251665
H112	H	1.480479	0.500013	0.248335
H113	H	0.698296	0.000055	-0.777099
H114	H	1.198296	0.500055	-0.277099
H115	H	0.536718	0.000022	-0.378547
H116	H	1.036718	0.500022	0.121453
H117	H	0.613959	0.000021	-0.234721
H118	H	1.113959	0.500021	0.265279
H119	H	1.664142	0.000010	-0.082137
H120	H	2.164142	0.500010	0.417863
H121	H	1.203550	0.000045	0.288284
H122	H	1.703550	0.500045	0.788284
H123	H	1.076667	0.000024	-0.155477
H124	H	1.576667	0.500024	0.344523
H125	H	1.059723	0.000037	0.211043
H126	H	1.559723	0.500037	0.711043
H127	H	1.014645	0.000043	0.053377
H128	H	1.514645	0.500043	0.553377
