data_functionalizedCrystal
_audit_creation_method	'MofGen! by Chris Wilmer'
_symmetry_space_group_name_H-M	'P1'
_symmetry_Int_Tables_number	1
_symmetry_cell_setting	triclinic
loop_
_symmetry_equiv_pos_as_xyz
  x,y,z
_cell_length_a	21.295417
_cell_length_b	21.395364
_cell_length_c	21.395355
_cell_angle_alpha	90.025298
_cell_angle_beta	89.978549
_cell_angle_gamma	89.952792
loop_
_atom_site_label
_atom_site_type_symbol
_atom_site_fract_x
_atom_site_fract_y
_atom_site_fract_z
Zn1	Zn	-0.250402	-0.957860	-0.354261
Zn2	Zn	-0.000402	-0.707860	-0.104261
Zn3	Zn	0.249598	-0.457860	0.145739
Zn4	Zn	0.499598	-0.207860	0.395739
Zn5	Zn	-0.355653	-0.957763	-0.249478
Zn6	Zn	-0.105653	-0.707763	0.000522
Zn7	Zn	0.144347	-0.457763	0.250522
Zn8	Zn	0.394347	-0.207763	0.500522
Zn9	Zn	-0.250432	-0.853075	-0.249497
Zn10	Zn	-0.000432	-0.603075	0.000503
Zn11	Zn	0.249568	-0.353075	0.250503
Zn12	Zn	0.499568	-0.103075	0.500503
Zn13	Zn	-0.355668	-0.853045	-0.354217
Zn14	Zn	-0.105668	-0.603045	-0.104217
Zn15	Zn	0.144332	-0.353045	0.145783
Zn16	Zn	0.394332	-0.103045	0.395783
O17	O	-0.303039	-0.905436	-0.301863
O18	O	-0.053039	-0.655436	-0.051863
O19	O	0.196961	-0.405436	0.198137
O20	O	0.446961	-0.155436	0.448137
O21	O	-0.264345	-1.045525	-0.340372
O22	O	-0.014345	-0.795525	-0.090372
O23	O	0.235655	-0.545525	0.159628
O24	O	0.485655	-0.295525	0.409628
O25	O	-0.341702	-0.943848	-0.161803
O26	O	-0.091702	-0.693848	0.088197
O27	O	0.158298	-0.443848	0.338197
O28	O	0.408298	-0.193848	0.588197
O29	O	-0.162339	-0.867028	-0.263420
O30	O	0.087661	-0.617028	-0.013420
O31	O	0.337661	-0.367028	0.236580
O32	O	0.587661	-0.117028	0.486580
O33	O	-0.341672	-1.045454	-0.263389
O34	O	-0.091672	-0.795454	-0.013389
O35	O	0.158328	-0.545454	0.236611
O36	O	0.408328	-0.295454	0.486611
O37	O	-0.162316	-0.944014	-0.340390
O38	O	0.087684	-0.694014	-0.090390
O39	O	0.337684	-0.444014	0.159610
O40	O	0.587684	-0.194014	0.409610
O41	O	-0.264397	-0.866934	-0.161816
O42	O	-0.014397	-0.616934	0.088184
O43	O	0.235603	-0.366934	0.338184
O44	O	0.485603	-0.116934	0.588184
O45	O	-0.264411	-0.765393	-0.263377
O46	O	-0.014411	-0.515393	-0.013377
O47	O	0.235589	-0.265393	0.236623
O48	O	0.485589	-0.015393	0.486623
O49	O	-0.341697	-0.866977	-0.441901
O50	O	-0.091697	-0.616977	-0.191901
O51	O	0.158303	-0.366977	0.058099
O52	O	0.408303	-0.116977	0.308099
O53	O	-0.341727	-0.765371	-0.340315
O54	O	-0.091727	-0.515371	-0.090315
O55	O	0.158273	-0.265371	0.159685
O56	O	0.408273	-0.015371	0.409685
O57	O	-0.264359	-0.943984	-0.441933
O58	O	-0.014359	-0.693984	-0.191933
O59	O	0.235641	-0.443984	0.058067
O60	O	0.485641	-0.193984	0.308067
O61	O	-0.443744	-0.943818	-0.263346
O62	O	-0.193744	-0.693818	-0.013346
O63	O	0.056256	-0.443818	0.236654
O64	O	0.306256	-0.193818	0.486654
O65	O	-0.443755	-0.866882	-0.340297
O66	O	-0.193755	-0.616882	-0.090297
O67	O	0.056245	-0.366882	0.159703
O68	O	0.306245	-0.116882	0.409703
C69	C	-0.303074	-0.742648	-0.301844
C70	C	-0.053074	-0.492648	-0.051844
C71	C	0.196926	-0.242648	0.198156
C72	C	0.446926	0.007352	0.448156
C73	C	-0.303105	-0.673007	-0.301850
C74	C	-0.053105	-0.423007	-0.051850
C75	C	0.196895	-0.173007	0.198150
C76	C	0.446895	0.076993	0.448150
C77	C	-0.262907	-0.640353	-0.341997
C78	C	-0.012907	-0.390353	-0.091997
C79	C	0.237093	-0.140353	0.158003
C80	C	0.487093	0.109647	0.408003
C81	C	-0.262892	-0.574918	-0.341998
C82	C	-0.012892	-0.324918	-0.091998
C83	C	0.237108	-0.074918	0.158002
C84	C	0.487108	0.175082	0.408002
C85	C	-0.303086	-0.542138	-0.301860
C86	C	-0.053086	-0.292138	-0.051860
C87	C	0.196914	-0.042138	0.198140
C88	C	0.446914	0.207862	0.448140
C89	C	-0.343287	-0.574800	-0.261705
C90	C	-0.093287	-0.324800	-0.011705
C91	C	0.156713	-0.074800	0.238295
C92	C	0.406713	0.175200	0.488295
C93	C	-0.343296	-0.640234	-0.261700
C94	C	-0.093296	-0.390234	-0.011700
C95	C	0.156704	-0.140234	0.238300
C96	C	0.406704	0.109766	0.488300
C97	C	-0.359779	-0.438414	-0.296818
C98	C	-0.109779	-0.188414	-0.046818
C99	C	0.140221	0.061586	0.203182
C100	C	0.390221	0.311586	0.453182
C101	C	-0.359771	-0.372981	-0.296827
C102	C	-0.109771	-0.122981	-0.046827
C103	C	0.140229	0.127019	0.203173
C104	C	0.390229	0.377019	0.453173
C105	C	-0.303058	-0.340318	-0.301871
C106	C	-0.053058	-0.090318	-0.051871
C107	C	0.196942	0.159682	0.198129
C108	C	0.446942	0.409682	0.448129
C109	C	-0.246351	-0.373095	-0.306919
C110	C	0.003649	-0.123095	-0.056919
C111	C	0.253649	0.126905	0.193081
C112	C	0.503649	0.376905	0.443081
C113	C	-0.246360	-0.438529	-0.306914
C114	C	0.003640	-0.188529	-0.056914
C115	C	0.253640	0.061471	0.193086
C116	C	0.503640	0.311471	0.443086
C117	C	-0.303081	-0.471186	-0.301860
C118	C	-0.053081	-0.221186	-0.051860
C119	C	0.196919	0.028814	0.198140
C120	C	0.446919	0.278814	0.448140
C121	C	-0.262841	-0.236712	-0.342022
C122	C	-0.012841	0.013288	-0.092022
C123	C	0.237159	0.263288	0.157978
C124	C	0.487159	0.513288	0.407978
C125	C	-0.262825	-0.171275	-0.342019
C126	C	-0.012825	0.078725	-0.092019
C127	C	0.237175	0.328725	0.157981
C128	C	0.487175	0.578725	0.407981
C129	C	-0.343225	-0.171158	-0.261729
C130	C	-0.093225	0.078842	-0.011729
C131	C	0.156775	0.328842	0.238271
C132	C	0.406775	0.578842	0.488271
C133	C	-0.343236	-0.236594	-0.261728
C134	C	-0.093236	0.013406	-0.011728
C135	C	0.156764	0.263406	0.238272
C136	C	0.406764	0.513406	0.488272
C137	C	-0.303044	-0.269366	-0.301878
C138	C	-0.053044	-0.019366	-0.051878
C139	C	0.196956	0.230634	0.198122
C140	C	0.446956	0.480634	0.448122
C141	C	-0.466590	-0.905354	-0.301829
C142	C	-0.216590	-0.655354	-0.051829
C143	C	0.033410	-0.405354	0.198171
C144	C	0.283410	-0.155354	0.448171
C145	C	-0.536558	-0.905376	-0.301835
C146	C	-0.286558	-0.655376	-0.051835
C147	C	-0.036558	-0.405376	0.198165
C148	C	0.213442	-0.155376	0.448165
C149	C	-0.569399	-0.945472	-0.261807
C150	C	-0.319399	-0.695472	-0.011807
C151	C	-0.069399	-0.445472	0.238193
C152	C	0.180601	-0.195472	0.488193
C153	C	-0.635141	-0.945501	-0.261821
C154	C	-0.385141	-0.695501	-0.011821
C155	C	-0.135141	-0.445501	0.238179
C156	C	0.114859	-0.195501	0.488179
C157	C	-0.668041	-0.905423	-0.301856
C158	C	-0.418041	-0.655423	-0.051856
C159	C	-0.168041	-0.405423	0.198144
C160	C	0.081959	-0.155423	0.448144
C161	C	-0.635193	-0.865324	-0.341892
C162	C	-0.385193	-0.615324	-0.091892
C163	C	-0.135193	-0.365324	0.158108
C164	C	0.114807	-0.115324	0.408108
C165	C	-0.569452	-0.865300	-0.341881
C166	C	-0.319452	-0.615300	-0.091881
C167	C	-0.069452	-0.365300	0.158119
C168	C	0.180548	-0.115300	0.408119
N169	N	-0.771324	-0.850613	-0.306626
N170	N	-0.521324	-0.600613	-0.056626
N171	N	-0.271324	-0.350613	0.193374
N172	N	-0.021324	-0.100613	0.443374
N173	N	-0.833775	-0.850638	-0.306633
N174	N	-0.583775	-0.600638	-0.056633
N175	N	-0.333775	-0.350638	0.193367
N176	N	-0.083775	-0.100638	0.443367
C177	C	-0.866116	-0.905493	-0.301892
C178	C	-0.616116	-0.655493	-0.051892
C179	C	-0.366116	-0.405493	0.198108
C180	C	-0.116116	-0.155493	0.448108
N181	N	-0.833645	-0.960325	-0.297133
N182	N	-0.583645	-0.710325	-0.047133
N183	N	-0.333645	-0.460325	0.202867
N184	N	-0.083645	-0.210325	0.452867
N185	N	-0.771188	-0.960300	-0.297123
N186	N	-0.521188	-0.710300	-0.047123
N187	N	-0.271188	-0.460300	0.202877
N188	N	-0.021188	-0.210300	0.452877
C189	C	-0.739326	-0.905445	-0.301873
C190	C	-0.489326	-0.655445	-0.051873
C191	C	-0.239326	-0.405445	0.198127
C192	C	0.010674	-0.155445	0.448127
C193	C	-0.970241	-0.945625	-0.261878
C194	C	-0.720241	-0.695625	-0.011878
C195	C	-0.470241	-0.445625	0.238122
C196	C	-0.220241	-0.195625	0.488122
C197	C	-1.035985	-0.945655	-0.261896
C198	C	-0.785985	-0.695655	-0.011896
C199	C	-0.535985	-0.445655	0.238104
C200	C	-0.285985	-0.195655	0.488104
C201	C	-1.036035	-0.865473	-0.341963
C202	C	-0.786035	-0.615473	-0.091963
C203	C	-0.536035	-0.365473	0.158037
C204	C	-0.286035	-0.115473	0.408037
C205	C	-0.970293	-0.865448	-0.341948
C206	C	-0.720293	-0.615448	-0.091948
C207	C	-0.470293	-0.365448	0.158052
C208	C	-0.220293	-0.115448	0.408052
C209	C	-0.937400	-0.905523	-0.301902
C210	C	-0.687400	-0.655523	-0.051902
C211	C	-0.437400	-0.405523	0.198098
C212	C	-0.187400	-0.155523	0.448098
C213	C	-0.138848	-0.905535	-0.301912
C214	C	0.111152	-0.655535	-0.051912
C215	C	0.361152	-0.405535	0.198088
C216	C	0.611152	-0.155535	0.448088
C217	C	-0.068880	-0.905578	-0.301933
C218	C	0.181120	-0.655578	-0.051933
C219	C	0.431120	-0.405578	0.198067
C220	C	0.681120	-0.155578	0.448067
C221	C	-0.303026	-0.905488	-0.465287
C222	C	-0.053026	-0.655488	-0.215287
C223	C	0.196974	-0.405488	0.034713
C224	C	0.446974	-0.155488	0.284713
C225	C	-0.303020	-0.905510	-0.534928
C226	C	-0.053020	-0.655510	-0.284928
C227	C	0.196980	-0.405510	-0.034928
C228	C	0.446980	-0.155510	0.215072
C229	C	-0.303011	-0.068859	-0.301880
C230	C	-0.053011	0.181141	-0.051880
C231	C	0.196989	0.431141	0.198120
C232	C	0.446989	0.681141	0.448120
C233	C	-0.303019	-0.138500	-0.301879
C234	C	-0.053019	0.111500	-0.051879
C235	C	0.196981	0.361500	0.198121
C236	C	0.446981	0.611500	0.448121
C237	C	-0.262749	-0.945606	-0.567659
C238	C	-0.012749	-0.695606	-0.317659
C239	C	0.237251	-0.445606	-0.067659
C240	C	0.487251	-0.195606	0.182341
C241	C	-0.262722	-0.945605	-0.633094
C242	C	-0.012722	-0.695605	-0.383094
C243	C	0.237278	-0.445605	-0.133094
C244	C	0.487278	-0.195605	0.116906
C245	C	-0.302978	-0.905515	-0.665796
C246	C	-0.052978	-0.655515	-0.415796
C247	C	0.197022	-0.405515	-0.165796
C248	C	0.447022	-0.155515	0.084204
C249	C	-0.343252	-0.865411	-0.633057
C250	C	-0.093252	-0.615411	-0.383057
C251	C	0.156748	-0.365411	-0.133057
C252	C	0.406748	-0.115411	0.116943
C253	C	-0.343274	-0.865408	-0.567623
C254	C	-0.093274	-0.615408	-0.317623
C255	C	0.156726	-0.365408	-0.067623
C256	C	0.406726	-0.115408	0.182377
C257	C	-0.359659	-0.900539	-0.769459
C258	C	-0.109659	-0.650539	-0.519459
C259	C	0.140341	-0.400539	-0.269459
C260	C	0.390341	-0.150539	-0.019459
C261	C	-0.359639	-0.900546	-0.834892
C262	C	-0.109639	-0.650546	-0.584892
C263	C	0.140361	-0.400546	-0.334892
C264	C	0.390361	-0.150546	-0.084892
C265	C	-0.302911	-0.905519	-0.867617
C266	C	-0.052911	-0.655519	-0.617617
C267	C	0.197089	-0.405519	-0.367617
C268	C	0.447089	-0.155519	-0.117617
C269	C	-0.246202	-0.910498	-0.834901
C270	C	0.003798	-0.660498	-0.584901
C271	C	0.253798	-0.410498	-0.334901
C272	C	0.503798	-0.160498	-0.084901
C273	C	-0.246223	-0.910495	-0.769467
C274	C	0.003777	-0.660495	-0.519467
C275	C	0.253777	-0.410495	-0.269467
C276	C	0.503777	-0.160495	-0.019467
C277	C	-0.302959	-0.905513	-0.736749
C278	C	-0.052959	-0.655513	-0.486749
C279	C	0.197041	-0.405513	-0.236749
C280	C	0.447041	-0.155513	0.013251
C281	C	-0.262606	-0.945616	-0.971301
C282	C	-0.012606	-0.695616	-0.721301
C283	C	0.237394	-0.445616	-0.471301
C284	C	0.487394	-0.195616	-0.221301
C285	C	-0.262578	-0.945611	-1.036737
C286	C	-0.012578	-0.695611	-0.786737
C287	C	0.237422	-0.445611	-0.536737
C288	C	0.487422	-0.195611	-0.286737
C289	C	-0.343115	-0.865420	-1.036699
C290	C	-0.093115	-0.615420	-0.786699
C291	C	0.156885	-0.365420	-0.536699
C292	C	0.406885	-0.115420	-0.286699
C293	C	-0.343137	-0.865422	-0.971264
C294	C	-0.093137	-0.615422	-0.721264
C295	C	0.156863	-0.365422	-0.471264
C296	C	0.406863	-0.115422	-0.221264
C297	C	-0.302884	-0.905523	-0.938569
C298	C	-0.052884	-0.655523	-0.688569
C299	C	0.197116	-0.405523	-0.438569
C300	C	0.447116	-0.155523	-0.188569
C301	C	-0.303006	-0.905420	-0.139076
C302	C	-0.053006	-0.655420	0.110924
C303	C	0.196994	-0.405420	0.360924
C304	C	0.446994	-0.155420	0.610924
C305	C	-0.302834	-0.905519	-0.069435
C306	C	-0.052834	-0.655519	0.180565
C307	C	0.197166	-0.405519	0.430565
C308	C	0.447166	-0.155519	0.680565
H309	H	-0.200188	-0.465214	-0.311022
H310	H	0.049812	-0.215214	-0.061022
H311	H	0.299812	0.034786	0.188978
H312	H	0.549812	0.284786	0.438978
H313	H	-0.405842	-0.896322	-0.742820
H314	H	-0.155842	-0.646322	-0.492820
H315	H	0.094158	-0.396322	-0.242820
H316	H	0.344158	-0.146322	0.007180
Cl317	Cl	-0.212000	-0.996025	-0.930195
Cl318	Cl	0.038000	-0.746025	-0.680195
Cl319	Cl	0.288000	-0.496025	-0.430195
Cl320	Cl	0.538000	-0.246025	-0.180195
Cl321	Cl	-0.431059	-0.331782	-0.290492
Cl322	Cl	-0.181059	-0.081782	-0.040492
Cl323	Cl	0.068941	0.168218	0.209508
Cl324	Cl	0.318941	0.418218	0.459508
Cl325	Cl	-0.393833	-0.681287	-0.211224
Cl326	Cl	-0.143833	-0.431287	0.038776
Cl327	Cl	0.106167	-0.181287	0.288776
Cl328	Cl	0.356167	0.068713	0.538776
H329	H	-0.375935	-0.832775	-0.944614
H330	H	-0.125935	-0.582775	-0.694614
H331	H	0.124065	-0.332775	-0.444614
H332	H	0.374065	-0.082775	-0.194614
Cl333	Cl	-0.431082	-0.479470	-0.290468
Cl334	Cl	-0.181082	-0.229470	-0.040468
Cl335	Cl	0.068918	0.020530	0.209532
Cl336	Cl	0.318918	0.270530	0.459532
Cl337	Cl	-0.528051	-0.995861	-0.211473
Cl338	Cl	-0.278051	-0.745861	0.038527
Cl339	Cl	-0.028051	-0.495861	0.288527
Cl340	Cl	0.221949	-0.245861	0.538527
Cl341	Cl	-0.928887	-0.996004	-0.211535
Cl342	Cl	-0.678887	-0.746004	0.038465
Cl343	Cl	-0.428887	-0.496004	0.288465
Cl344	Cl	-0.178887	-0.246004	0.538465
H345	H	-0.375952	-0.144470	-0.229047
H346	H	-0.125952	0.105530	0.020953
H347	H	0.124048	0.355530	0.270953
H348	H	0.374048	0.605530	0.520953
H349	H	-0.405815	-0.896495	-0.861524
H350	H	-0.155815	-0.646495	-0.611524
H351	H	0.094185	-0.396495	-0.361524
H352	H	0.344185	-0.146495	-0.111524
H353	H	-1.062722	-0.978310	-0.229303
H354	H	-0.812722	-0.728310	0.020697
H355	H	-0.562722	-0.478310	0.270697
H356	H	-0.312722	-0.228310	0.520697
Cl357	Cl	-0.929006	-0.815035	-0.392268
Cl358	Cl	-0.679006	-0.565035	-0.142268
Cl359	Cl	-0.429006	-0.315035	0.107732
Cl360	Cl	-0.179006	-0.065035	0.357732
Cl361	Cl	-0.393857	-0.815009	-0.674167
Cl362	Cl	-0.143857	-0.565009	-0.424167
Cl363	Cl	0.106143	-0.315009	-0.174167
Cl364	Cl	0.356143	-0.065009	0.075833
H365	H	-0.229781	-0.978261	-1.063386
H366	H	0.020219	-0.728261	-0.813386
H367	H	0.270219	-0.478261	-0.563386
H368	H	0.520219	-0.228261	-0.313386
Cl369	Cl	-0.174936	-0.916750	-0.728341
Cl370	Cl	0.075064	-0.666750	-0.478341
Cl371	Cl	0.325064	-0.416750	-0.228341
Cl372	Cl	0.575064	-0.166750	0.021659
Cl373	Cl	-0.393814	-0.533593	-0.211242
Cl374	Cl	-0.143814	-0.283593	0.038758
Cl375	Cl	0.106186	-0.033593	0.288758
Cl376	Cl	0.356186	0.216407	0.538758
H377	H	-0.230111	-0.263397	-0.374710
H378	H	0.019889	-0.013397	-0.124710
H379	H	0.269889	0.236603	0.125290
H380	H	0.519889	0.486603	0.375290
H381	H	-0.229971	-0.978259	-0.541042
H382	H	0.020029	-0.728259	-0.291042
H383	H	0.270029	-0.478259	-0.041042
H384	H	0.520029	-0.228259	0.208958
Cl385	Cl	-0.212283	-0.130224	-0.392491
Cl386	Cl	0.037717	0.119776	-0.142491
Cl387	Cl	0.287717	0.369776	0.107509
Cl388	Cl	0.537717	0.619776	0.357509
Cl389	Cl	-0.676435	-0.995911	-0.211496
Cl390	Cl	-0.426435	-0.745911	0.038504
Cl391	Cl	-0.176435	-0.495911	0.288504
Cl392	Cl	0.073565	-0.245911	0.538504
Cl393	Cl	-0.212078	-0.996003	-0.674251
Cl394	Cl	0.037922	-0.746003	-0.424251
Cl395	Cl	0.287922	-0.496003	-0.174251
Cl396	Cl	0.537922	-0.246003	0.075749
Cl397	Cl	-0.174882	-0.916752	-0.876034
Cl398	Cl	0.075118	-0.666752	-0.626034
Cl399	Cl	0.325118	-0.416752	-0.376034
Cl400	Cl	0.575118	-0.166752	-0.126034
H401	H	-0.661984	-0.832694	-0.374489
H402	H	-0.411984	-0.582694	-0.124489
H403	H	-0.161984	-0.332694	0.125511
H404	H	0.088016	-0.082694	0.375511
H405	H	-0.542712	-0.832649	-0.374477
H406	H	-0.292712	-0.582649	-0.124477
H407	H	-0.042712	-0.332649	0.125523
H408	H	0.207288	-0.082649	0.375523
Cl409	Cl	-1.077389	-0.815092	-0.392298
Cl410	Cl	-0.827389	-0.565092	-0.142298
Cl411	Cl	-0.577389	-0.315092	0.107702
Cl412	Cl	-0.327389	-0.065092	0.357702
Cl413	Cl	-0.393717	-0.815014	-1.077804
Cl414	Cl	-0.143717	-0.565014	-0.827804
Cl415	Cl	0.106283	-0.315014	-0.577804
Cl416	Cl	0.356283	-0.065014	-0.327804
H417	H	-0.230180	-0.667033	-0.374689
H418	H	0.019820	-0.417033	-0.124689
H419	H	0.269820	-0.167033	0.125311
H420	H	0.519820	0.082967	0.375311
Cl421	Cl	-0.175049	-0.332040	-0.313259
Cl422	Cl	0.074951	-0.082040	-0.063259
Cl423	Cl	0.324951	0.167960	0.186741
Cl424	Cl	0.574951	0.417960	0.436741
Cl425	Cl	-0.212354	-0.533859	-0.392472
Cl426	Cl	0.037646	-0.283859	-0.142472
Cl427	Cl	0.287646	-0.033859	0.107528
Cl428	Cl	0.537646	0.216141	0.357528
Cl429	Cl	-0.393770	-0.277646	-0.211252
Cl430	Cl	-0.143770	-0.027646	0.038748
Cl431	Cl	0.106230	0.222354	0.288748
Cl432	Cl	0.356230	0.472354	0.538748
H433	H	-0.376067	-0.832755	-0.540974
H434	H	-0.126067	-0.582755	-0.290974
H435	H	0.123933	-0.332755	-0.040974
H436	H	0.373933	-0.082755	0.209026
