data_functionalizedCrystal
_audit_creation_method	'MofGen! by Chris Wilmer'
_symmetry_space_group_name_H-M	'P1'
_symmetry_Int_Tables_number	1
_symmetry_cell_setting	triclinic
loop_
_symmetry_equiv_pos_as_xyz
  x,y,z
_cell_length_a	25.639239
_cell_length_b	19.077105
_cell_length_c	25.639214
_cell_angle_alpha	92.374991
_cell_angle_beta	89.879120
_cell_angle_gamma	92.265071
loop_
_atom_site_label
_atom_site_type_symbol
_atom_site_fract_x
_atom_site_fract_y
_atom_site_fract_z
Zn1	Zn	-0.239811	-1.076326	-0.327704
Zn2	Zn	0.260189	-0.576326	0.172296
Zn3	Zn	-0.327379	-1.076098	-0.240261
Zn4	Zn	0.172621	-0.576098	0.259739
Zn5	Zn	-0.236450	-0.958513	-0.236769
Zn6	Zn	0.263550	-0.458513	0.263231
Zn7	Zn	-0.323703	-0.958564	-0.324161
Zn8	Zn	0.176297	-0.458564	0.175839
O9	O	-0.281836	-1.017375	-0.282224
O10	O	0.218164	-0.517375	0.217776
O11	O	-0.254372	-1.174790	-0.319048
O12	O	0.245628	-0.674790	0.180952
O13	O	-0.315449	-1.060383	-0.166629
O14	O	0.184551	-0.560383	0.333371
O15	O	-0.163733	-0.974215	-0.248853
O16	O	0.336267	-0.474215	0.251147
O17	O	-0.318708	-1.174622	-0.254804
O18	O	0.181292	-0.674622	0.245196
O19	O	-0.166202	-1.060772	-0.315662
O20	O	0.333798	-0.560772	0.184338
O21	O	-0.248644	-0.973994	-0.164063
O22	O	0.251356	-0.473994	0.335937
O23	O	-0.245079	-0.860026	-0.245418
O24	O	0.254921	-0.360026	0.254582
O25	O	-0.312442	-0.974302	-0.397800
O26	O	0.187558	-0.474302	0.102200
O27	O	-0.309183	-0.860063	-0.309625
O28	O	0.190817	-0.360063	0.190375
O29	O	-0.250808	-1.060822	-0.400403
O30	O	0.249192	-0.560822	0.099597
O31	O	-0.400054	-1.060433	-0.251369
O32	O	0.099946	-0.560433	0.248631
O33	O	-0.397353	-0.974081	-0.313010
O34	O	0.102647	-0.474081	0.186990
C35	C	-0.417675	-1.017257	-0.282196
C36	C	0.082325	-0.517257	0.217804
C37	C	-0.475789	-1.017271	-0.282204
C38	C	0.024211	-0.517271	0.217796
C39	C	-0.276368	-0.834506	-0.276758
C40	C	0.223632	-0.334506	0.223242
C41	C	-0.274041	-0.756274	-0.274432
C42	C	0.225959	-0.256274	0.225568
C43	C	-0.281590	-1.017593	-0.418604
C44	C	0.218410	-0.517593	0.081396
C45	C	-0.281485	-1.017686	-0.476721
C46	C	0.218515	-0.517686	0.023279
C47	C	-0.837553	-1.062456	-0.250188
C48	C	-0.337553	-0.562456	0.249812
C49	C	-0.892158	-1.062483	-0.250196
C50	C	-0.392158	-0.562483	0.249804
O51	O	-0.921581	-1.100779	-0.222944
O52	O	-0.421581	-0.600779	0.277056
N53	N	-0.918078	-1.017499	-0.282262
N54	N	-0.418078	-0.517499	0.217738
C55	C	-0.889391	-0.972489	-0.314327
C56	C	-0.389391	-0.472489	0.185673
O57	O	-0.916453	-0.934230	-0.341603
O58	O	-0.416453	-0.434230	0.158397
C59	C	-0.834787	-0.972466	-0.314321
C60	C	-0.334787	-0.472466	0.185679
C61	C	-0.808869	-1.017449	-0.282249
C62	C	-0.308869	-0.517449	0.217751
C63	C	-0.811635	-1.107435	-0.218118
C64	C	-0.311635	-0.607435	0.281882
C65	C	-0.757033	-1.107407	-0.218110
C66	C	-0.257033	-0.607407	0.281890
C67	C	-0.728350	-1.062399	-0.250171
C68	C	-0.228350	-0.562399	0.249829
C69	C	-0.754268	-1.017420	-0.282240
C70	C	-0.254268	-0.517420	0.217760
C71	C	-0.806101	-0.927461	-0.346389
C72	C	-0.306101	-0.427461	0.153611
C73	C	-0.751493	-0.927442	-0.346381
C74	C	-0.251493	-0.427442	0.153619
C75	C	-0.725576	-0.972424	-0.314308
C76	C	-0.225576	-0.472424	0.185692
C77	C	-0.670983	-0.972384	-0.314293
C78	C	-0.170983	-0.472384	0.185707
N79	N	-0.645063	-1.017369	-0.282227
N80	N	-0.145063	-0.517369	0.217773
C81	C	-0.673746	-1.062376	-0.250165
C82	C	-0.173746	-0.562376	0.249835
C83	C	-1.004063	-0.972542	-0.314337
C84	C	-0.504063	-0.472542	0.185663
C85	C	-1.058666	-0.972562	-0.314340
C86	C	-0.558666	-0.472562	0.185660
C87	C	-1.061429	-1.062557	-0.250209
C88	C	-0.561429	-0.562557	0.249791
C89	C	-1.006825	-1.062533	-0.250203
C90	C	-0.506825	-0.562533	0.249797
C91	C	-0.978143	-1.017527	-0.282270
C92	C	-0.478143	-0.517527	0.217730
C93	C	-0.559079	-1.062313	-0.250150
C94	C	-0.059079	-0.562313	0.249850
C95	C	-0.504473	-1.062278	-0.250143
C96	C	-0.004473	-0.562278	0.249857
C97	C	-0.501715	-0.972286	-0.314275
C98	C	-0.001715	-0.472286	0.185725
C99	C	-0.556316	-0.972318	-0.314281
C100	C	-0.056316	-0.472318	0.185719
C101	C	-0.584997	-1.017337	-0.282216
C102	C	-0.084997	-0.517337	0.217784
O103	O	-0.641525	-0.934110	-0.341532
O104	O	-0.141525	-0.434110	0.158468
O105	O	-0.646678	-1.100636	-0.222899
O106	O	-0.146678	-0.600636	0.277101
C107	C	-0.145467	-1.017513	-0.282263
C108	C	0.354533	-0.517513	0.217737
C109	C	-0.087354	-1.017572	-0.282280
C110	C	0.412646	-0.517572	0.217720
C111	C	-0.287325	-1.200958	-0.287711
C112	C	0.212675	-0.700958	0.212289
C113	C	-0.289665	-1.279190	-0.290049
C114	C	0.210335	-0.779190	0.209951
C115	C	-0.306374	-0.719559	-0.306716
C116	C	0.193626	-0.219559	0.193284
C117	C	-0.304181	-0.646051	-0.304533
C118	C	0.195819	-0.146051	0.195467
C119	C	-0.269658	-0.609261	-0.270064
C120	C	0.230342	-0.109261	0.229936
C121	C	-0.237321	-0.645982	-0.237779
C122	C	0.262679	-0.145982	0.262221
C123	C	-0.239512	-0.719488	-0.239965
C124	C	0.260488	-0.219488	0.260035
C125	C	-0.259519	-0.389417	-0.259950
C126	C	0.240481	0.110583	0.240050
C127	C	-0.257332	-0.315906	-0.257766
C128	C	0.242668	0.184094	0.242234
C129	C	-0.324192	-0.315981	-0.324521
C130	C	0.175808	0.184019	0.175479
C131	C	-0.326381	-0.389488	-0.326702
C132	C	0.173619	0.110512	0.173298
C133	C	-0.294043	-0.426202	-0.294419
C134	C	0.205957	0.073798	0.205581
N135	N	-0.267416	-0.534124	-0.267831
N136	N	0.232584	-0.034124	0.232169
N137	N	-0.296282	-0.501337	-0.296655
N138	N	0.203718	-0.001337	0.203345
C139	C	-0.282044	-1.017199	-0.146375
C140	C	0.217956	-0.517199	0.353625
C141	C	-0.282006	-1.017242	-0.088263
C142	C	0.217994	-0.517242	0.411737
C143	C	-0.247142	-0.972204	0.273417
C144	C	0.252858	-0.472204	0.773417
C145	C	-0.247095	-0.972245	0.328020
C146	C	0.252905	-0.472245	0.828020
O147	O	-0.217679	-0.933756	0.357383
O148	O	0.282321	-0.433756	0.857383
N149	N	-0.281622	-1.017567	0.354009
N150	N	0.218378	-0.517567	0.854009
C151	C	-0.316193	-1.062856	0.325392
C152	C	0.183807	-0.562856	0.825392
O153	O	-0.345556	-1.101410	0.352511
O154	O	0.154444	-0.601410	0.852511
C155	C	-0.316237	-1.062818	0.270790
C156	C	0.183763	-0.562818	0.770790
C157	C	-0.281712	-1.017488	0.244804
C158	C	0.218288	-0.517488	0.744804
C159	C	-0.212619	-0.926878	0.247431
C160	C	0.287381	-0.426878	0.747431
C161	C	-0.212667	-0.926837	0.192832
C162	C	0.287333	-0.426837	0.692832
C163	C	-0.247237	-0.972121	0.164219
C164	C	0.252763	-0.472121	0.664219
C165	C	-0.281760	-1.017446	0.190205
C166	C	0.218240	-0.517446	0.690205
C167	C	-0.350806	-1.108110	0.242174
C168	C	0.149194	-0.608110	0.742174
C169	C	-0.350847	-1.108068	0.187568
C170	C	0.149153	-0.608068	0.687568
C171	C	-0.316321	-1.062738	0.161582
C172	C	0.183679	-0.562738	0.661582
C173	C	-0.316377	-1.062688	0.106992
C174	C	0.183623	-0.562688	0.606992
N175	N	-0.281851	-1.017366	0.081004
N176	N	0.218149	-0.517366	0.581004
C177	C	-0.247281	-0.972083	0.109617
C178	C	0.252719	-0.472083	0.609617
C179	C	-0.316098	-1.062933	0.440060
C180	C	0.183902	-0.562933	0.940060
C181	C	-0.316057	-1.062968	0.494661
C182	C	0.183943	-0.562968	0.994661
C183	C	-0.246958	-0.972358	0.497286
C184	C	0.253042	-0.472358	0.997286
C185	C	-0.247002	-0.972320	0.442684
C186	C	0.252998	-0.472320	0.942684
C187	C	-0.281572	-1.017611	0.414071
C188	C	0.218428	-0.517611	0.914071
C189	C	-0.247383	-0.971998	-0.005046
C190	C	0.252617	-0.471998	0.494954
C191	C	-0.247435	-0.971958	-0.059650
C192	C	0.252565	-0.471958	0.440350
C193	C	-0.316532	-1.062571	-0.062269
C194	C	0.183468	-0.562571	0.437731
C195	C	-0.316482	-1.062608	-0.007670
C196	C	0.183518	-0.562608	0.492330
C197	C	-0.281904	-1.017319	0.020941
C198	C	0.218096	-0.517319	0.520941
O199	O	-0.345777	-1.101160	0.077595
O200	O	0.154223	-0.601160	0.577595
O201	O	-0.217918	-0.933542	0.082490
O202	O	0.282082	-0.433542	0.582490
H203	H	-0.483372	-1.098908	-0.224024
H204	H	0.016628	-0.598908	0.275976
Br205	Br	-0.200583	-0.910426	-0.094913
Br206	Br	0.299417	-0.410426	0.405087
H207	H	-0.344176	-1.099874	0.515814
H208	H	0.155824	-0.599874	1.015814
Br209	Br	-0.368079	-0.266150	-0.368329
Br210	Br	0.131921	0.233850	0.131671
Br211	Br	-0.200143	-0.910801	0.407423
Br212	Br	0.299857	-0.410801	0.907423
H213	H	-0.218808	-0.935487	0.520593
H214	H	0.281192	-0.435487	1.020593
Br215	Br	-0.190462	-0.596053	-0.191003
Br216	Br	0.309538	-0.096053	0.308997
Br217	Br	-0.591491	-0.911253	-0.357795
Br218	Br	-0.091491	-0.411253	0.142205
H219	H	-0.344253	-1.099813	0.416767
H220	H	0.155747	-0.599813	0.916767
Br221	Br	-1.100367	-1.123636	-0.206694
Br222	Br	-0.600367	-0.623636	0.293306
H223	H	-0.213180	-0.749381	-0.213679
H224	H	0.286820	-0.249381	0.286321
H225	H	-0.184552	-0.889925	0.171679
H226	H	0.315448	-0.389925	0.671679
Br227	Br	-0.373240	-0.439413	-0.373480
Br228	Br	0.126760	0.060587	0.126520
H229	H	-0.478352	-0.935639	-0.340378
H230	H	0.021648	-0.435639	0.159622
H231	H	-0.184465	-0.890002	0.270723
H232	H	0.315535	-0.390002	0.770723
Br233	Br	-0.210480	-0.265976	-0.210977
Br234	Br	0.289520	0.234024	0.289023
Br235	Br	-0.397663	-1.169635	0.277426
Br236	Br	0.102337	-0.669635	0.777426
Br237	Br	-0.348063	-0.596225	-0.348350
Br238	Br	0.151937	-0.096225	0.151650
Br239	Br	-0.200455	-0.910535	0.033775
Br240	Br	0.299545	-0.410535	0.533775
H241	H	-0.233190	-0.419301	-0.233659
H242	H	0.266810	0.080699	0.266341
H243	H	-1.079764	-0.935926	-0.340451
H244	H	-0.579764	-0.435926	0.159549
Br245	Br	-0.965142	-0.911452	-0.357856
Br246	Br	-0.465142	-0.411452	0.142144
Br247	Br	-0.397762	-1.169542	0.148739
Br248	Br	0.102238	-0.669542	0.648739
Br249	Br	-0.353234	-0.769481	-0.353495
Br250	Br	0.146766	-0.269481	0.146505
Br251	Br	-0.363347	-1.124116	0.027598
Br252	Br	0.136653	-0.624116	0.527598
H253	H	-0.582425	-1.098973	-0.224041
H254	H	-0.082425	-0.598973	0.275959
Br255	Br	-0.721868	-1.168468	-0.174588
Br256	Br	-0.221868	-0.668468	0.325412
H257	H	-0.344681	-1.099436	-0.085576
H258	H	0.155319	-0.599436	0.414424
H259	H	-0.834983	-1.144090	-0.192010
H260	H	-0.334983	-0.644090	0.307990
H261	H	-0.985726	-1.099162	-0.224087
H262	H	-0.485726	-0.599162	0.275913
H263	H	-0.728143	-0.890793	-0.372495
H264	H	-0.228143	-0.390793	0.127505
Br265	Br	-0.841262	-0.866417	-0.389924
Br266	Br	-0.341262	-0.366417	0.110076
