data_functionalizedCrystal
_audit_creation_method	'MofGen! by Chris Wilmer'
_symmetry_space_group_name_H-M	'P1'
_symmetry_Int_Tables_number	1
_symmetry_cell_setting	triclinic
loop_
_symmetry_equiv_pos_as_xyz
  x,y,z
_cell_length_a	18.050591
_cell_length_b	19.120786
_cell_length_c	18.050582
_cell_angle_alpha	87.534997
_cell_angle_beta	89.979078
_cell_angle_gamma	92.460873
loop_
_atom_site_label
_atom_site_type_symbol
_atom_site_fract_x
_atom_site_fract_y
_atom_site_fract_z
Zn1	Zn	1.122689	-0.279748	-0.407398
Zn2	Zn	1.372689	-0.029748	-0.157398
Zn3	Zn	1.622689	0.220252	0.092602
Zn4	Zn	1.872689	0.470252	0.342602
Zn5	Zn	1.117309	-0.397198	-0.277904
Zn6	Zn	1.367309	-0.147198	-0.027904
Zn7	Zn	1.617309	0.102802	0.222096
Zn8	Zn	1.867309	0.352802	0.472096
Zn9	Zn	0.998508	-0.279751	-0.283209
Zn10	Zn	1.248508	-0.029751	-0.033209
Zn11	Zn	1.498508	0.220249	0.216791
Zn12	Zn	1.748508	0.470249	0.466791
Zn13	Zn	0.993167	-0.397160	-0.402042
Zn14	Zn	1.243167	-0.147160	-0.152042
Zn15	Zn	1.493167	0.102840	0.097958
Zn16	Zn	1.743167	0.352840	0.347958
O17	O	1.057918	-0.338464	-0.342638
O18	O	1.307918	-0.088464	-0.092638
O19	O	1.557918	0.161536	0.157362
O20	O	1.807918	0.411536	0.407362
O21	O	1.225899	-0.295342	-0.390242
O22	O	1.475899	-0.045342	-0.140242
O23	O	1.725899	0.204658	0.109758
O24	O	1.975899	0.454658	0.359758
O25	O	1.101533	-0.381635	-0.174683
O26	O	1.351533	-0.131635	0.075317
O27	O	1.601533	0.118365	0.325317
O28	O	1.851533	0.368365	0.575317
O29	O	1.019469	-0.181461	-0.304145
O30	O	1.269469	0.068539	-0.054145
O31	O	1.519469	0.318539	0.195855
O32	O	1.769469	0.568539	0.445855
O33	O	1.221946	-0.381632	-0.295104
O34	O	1.471946	-0.131632	-0.045104
O35	O	1.721946	0.118368	0.204896
O36	O	1.971946	0.368368	0.454896
O37	O	1.110704	-0.181458	-0.395386
O38	O	1.360704	0.068542	-0.145386
O39	O	1.610704	0.318542	0.104614
O40	O	1.860704	0.568542	0.354614
O41	O	1.014251	-0.295347	-0.178580
O42	O	1.264251	-0.045347	0.071420
O43	O	1.514251	0.204653	0.321420
O44	O	1.764251	0.454653	0.571420
O45	O	0.893876	-0.295311	-0.298951
O46	O	1.143876	-0.045311	-0.048951
O47	O	1.393876	0.204689	0.201049
O48	O	1.643876	0.454689	0.451049
O49	O	1.010365	-0.381569	-0.506677
O50	O	1.260365	-0.131569	-0.256677
O51	O	1.510365	0.118431	-0.006677
O52	O	1.760365	0.368431	0.243323
O53	O	0.889951	-0.381571	-0.386256
O54	O	1.139951	-0.131571	-0.136256
O55	O	1.389951	0.118429	0.113744
O56	O	1.639951	0.368429	0.363744
O57	O	1.105524	-0.295306	-0.510613
O58	O	1.355524	-0.045306	-0.260613
O59	O	1.605524	0.204694	-0.010613
O60	O	1.855524	0.454694	0.239387
O61	O	1.096354	-0.495482	-0.289909
O62	O	1.346354	-0.245482	-0.039909
O63	O	1.596354	0.004518	0.210091
O64	O	1.846354	0.254518	0.460091
O65	O	1.005147	-0.495455	-0.381112
O66	O	1.255147	-0.245455	-0.131112
O67	O	1.505147	0.004545	0.118888
O68	O	1.755147	0.254545	0.368888
C69	C	0.864967	-0.338438	-0.342598
C70	C	1.114967	-0.088438	-0.092598
C71	C	1.364967	0.161562	0.157402
C72	C	1.614967	0.411562	0.407402
C73	C	0.782421	-0.338444	-0.342598
C74	C	1.032421	-0.088444	-0.092598
C75	C	1.282421	0.161556	0.157402
C76	C	1.532421	0.411556	0.407402
C77	C	0.585086	-0.291481	-0.295238
C78	C	0.835086	-0.041481	-0.045238
C79	C	1.085086	0.208519	0.204762
C80	C	1.335086	0.458519	0.454762
C81	C	0.532780	-0.355544	-0.274069
C82	C	0.782780	-0.105544	-0.024069
C83	C	1.032780	0.144456	0.225931
C84	C	1.282780	0.394456	0.475931
C85	C	0.631290	-0.338465	-0.342631
C86	C	0.881290	-0.088465	-0.092631
C87	C	1.131290	0.161535	0.157369
C88	C	1.381290	0.411535	0.407369
C89	C	0.536513	-0.274424	-0.363797
C90	C	0.786513	-0.024424	-0.113797
C91	C	1.036513	0.225576	0.136203
C92	C	1.286513	0.475576	0.386203
C93	C	0.485304	-0.338480	-0.342661
C94	C	0.735304	-0.088480	-0.092661
C95	C	0.985304	0.161520	0.157339
C96	C	1.235304	0.411520	0.407339
C97	C	0.580070	-0.402562	-0.321425
C98	C	0.830070	-0.152562	-0.071425
C99	C	1.080070	0.097438	0.178575
C100	C	1.330070	0.347438	0.428575
C101	C	0.583809	-0.321399	-0.411186
C102	C	0.833809	-0.071399	-0.161186
C103	C	1.083809	0.178601	0.088814
C104	C	1.333809	0.428601	0.338814
C105	C	0.531524	-0.385506	-0.390041
C106	C	0.781524	-0.135506	-0.140041
C107	C	1.031524	0.114494	0.109959
C108	C	1.281524	0.364494	0.359959
C109	C	0.715389	-0.338455	-0.342612
C110	C	0.965389	-0.088455	-0.092612
C111	C	1.215389	0.161545	0.157388
C112	C	1.465389	0.411545	0.407388
C113	C	0.401207	-0.338497	-0.342680
C114	C	0.651207	-0.088497	-0.092680
C115	C	0.901207	0.161503	0.157320
C116	C	1.151207	0.411503	0.407320
C117	C	1.049607	-0.520954	-0.334370
C118	C	1.299607	-0.270954	-0.084370
C119	C	1.549607	-0.020954	0.165630
C120	C	1.799607	0.229046	0.415630
C121	C	1.046119	-0.599024	-0.330858
C122	C	1.296119	-0.349024	-0.080858
C123	C	1.546119	-0.099024	0.169142
C124	C	1.796119	0.150976	0.419142
C125	C	1.091947	-0.635640	-0.376751
C126	C	1.341947	-0.385640	-0.126751
C127	C	1.591947	-0.135640	0.123249
C128	C	1.841947	0.114360	0.373249
C129	C	1.088667	-0.708995	-0.373452
C130	C	1.338667	-0.458995	-0.123452
C131	C	1.588667	-0.208995	0.126548
C132	C	1.838667	0.041005	0.376548
C133	C	1.039563	-0.745733	-0.324256
C134	C	1.289563	-0.495733	-0.074256
C135	C	1.539563	-0.245733	0.175744
C136	C	1.789563	0.004267	0.425744
C137	C	0.993730	-0.709112	-0.278361
C138	C	1.243730	-0.459112	-0.028361
C139	C	1.493730	-0.209112	0.221639
C140	C	1.743730	0.040888	0.471639
C141	C	0.997007	-0.635758	-0.281664
C142	C	1.247007	-0.385758	-0.031664
C143	C	1.497007	-0.135758	0.218336
C144	C	1.747007	0.114242	0.468336
C145	C	1.027291	-0.967217	-0.311907
C146	C	1.277291	-0.717217	-0.061907
C147	C	1.527291	-0.467217	0.188093
C148	C	1.777291	-0.217217	0.438093
C149	C	1.024019	-1.040576	-0.308606
C150	C	1.274019	-0.790576	-0.058606
C151	C	1.524019	-0.540576	0.191394
C152	C	1.774019	-0.290576	0.441394
C153	C	1.118955	-1.040454	-0.403698
C154	C	1.368955	-0.790454	-0.153698
C155	C	1.618955	-0.540454	0.096302
C156	C	1.868955	-0.290454	0.346302
C157	C	1.122231	-0.967099	-0.406994
C158	C	1.372231	-0.717099	-0.156994
C159	C	1.622231	-0.467099	0.093006
C160	C	1.872231	-0.217099	0.343006
C161	C	1.076395	-0.930484	-0.361102
C162	C	1.326395	-0.680484	-0.111102
C163	C	1.576395	-0.430484	0.138898
C164	C	1.826395	-0.180484	0.388898
C165	C	1.036210	-0.820713	-0.320881
C166	C	1.286210	-0.570713	-0.070881
C167	C	1.536210	-0.320713	0.179119
C168	C	1.786210	-0.070713	0.429119
C169	C	1.079744	-0.855505	-0.364481
C170	C	1.329744	-0.605505	-0.114481
C171	C	1.579744	-0.355505	0.135519
C172	C	1.829744	-0.105505	0.385519
C173	C	1.251623	-0.338491	-0.342679
C174	C	1.501623	-0.088491	-0.092679
C175	C	1.751623	0.161509	0.157321
C176	C	2.001623	0.411509	0.407321
C177	C	1.334168	-0.338502	-0.342696
C178	C	1.584168	-0.088502	-0.092696
C179	C	1.834168	0.161498	0.157304
C180	C	2.084168	0.411498	0.407304
C181	C	1.057949	-0.338433	-0.536345
C182	C	1.307949	-0.088433	-0.286345
C183	C	1.557949	0.161567	-0.036345
C184	C	1.807949	0.411567	0.213655
C185	C	1.057962	-0.338420	-0.618892
C186	C	1.307962	-0.088420	-0.368892
C187	C	1.557962	0.161580	-0.118892
C188	C	1.807962	0.411580	0.131108
C189	C	1.066282	-0.155262	-0.350955
C190	C	1.316282	0.094738	-0.100955
C191	C	1.566282	0.344738	0.149045
C192	C	1.816282	0.594738	0.399045
C193	C	1.069846	-0.077191	-0.354499
C194	C	1.319846	0.172809	-0.104499
C195	C	1.569846	0.422809	0.145501
C196	C	1.819846	0.672809	0.395501
C197	C	1.006255	-0.385265	-0.816205
C198	C	1.256255	-0.135265	-0.566205
C199	C	1.506255	0.114735	-0.316205
C200	C	1.756255	0.364735	-0.066205
C201	C	1.073236	-0.402439	-0.864828
C202	C	1.323236	-0.152439	-0.614828
C203	C	1.573236	0.097561	-0.364828
C204	C	1.823236	0.347561	-0.114828
C205	C	1.058001	-0.338366	-0.770025
C206	C	1.308001	-0.088366	-0.520025
C207	C	1.558001	0.161634	-0.270025
C208	C	1.808001	0.411634	-0.020025
C209	C	0.991057	-0.321173	-0.868484
C210	C	1.241057	-0.071173	-0.618484
C211	C	1.491057	0.178827	-0.368484
C212	C	1.741057	0.428827	-0.118484
C213	C	1.058032	-0.338316	-0.916012
C214	C	1.308032	-0.088316	-0.666012
C215	C	1.558032	0.161684	-0.416012
C216	C	1.808032	0.411684	-0.166012
C217	C	1.125016	-0.355573	-0.817559
C218	C	1.375016	-0.105573	-0.567559
C219	C	1.625016	0.144427	-0.317559
C220	C	1.875016	0.394427	-0.067559
C221	C	1.042793	-0.274278	-0.821212
C222	C	1.292793	-0.024278	-0.571212
C223	C	1.542793	0.225722	-0.321212
C224	C	1.792793	0.475722	-0.071212
C225	C	1.109822	-0.291427	-0.869814
C226	C	1.359822	-0.041427	-0.619814
C227	C	1.609822	0.208573	-0.369814
C228	C	1.859822	0.458573	-0.119814
C229	C	1.057981	-0.338397	-0.685925
C230	C	1.307981	-0.088397	-0.435925
C231	C	1.557981	0.161603	-0.185925
C232	C	1.807981	0.411603	0.064075
C233	C	1.058059	-0.338285	-1.000110
C234	C	1.308059	-0.088285	-0.750110
C235	C	1.558059	0.161715	-0.500110
C236	C	1.808059	0.411715	-0.250110
C237	C	1.057933	-0.338444	-0.149687
C238	C	1.307933	-0.088444	0.100313
C239	C	1.557933	0.161556	0.350313
C240	C	1.807933	0.411556	0.600313
C241	C	1.058073	-0.338260	-0.067150
C242	C	1.308073	-0.088260	0.182850
C243	C	1.558073	0.161740	0.432850
C244	C	1.808073	0.411740	0.682850
H245	H	0.517245	-0.220266	-0.381661
H246	H	0.767245	0.029734	-0.131661
H247	H	1.017245	0.279734	0.118339
H248	H	1.267245	0.529734	0.368339
H249	H	0.984029	-1.070485	-0.268544
H250	H	1.234029	-0.820485	-0.018544
H251	H	1.484029	-0.570485	0.231456
H252	H	1.734029	-0.320485	0.481456
H253	H	0.934431	-0.306652	-0.890828
H254	H	1.184431	-0.056652	-0.640828
H255	H	1.434431	0.193348	-0.390828
H256	H	1.684431	0.443348	-0.140828
H257	H	0.606217	-0.306933	-0.469133
H258	H	0.856217	-0.056933	-0.219133
H259	H	1.106217	0.193067	0.030867
H260	H	1.356217	0.443067	0.280867
H261	H	1.029890	-0.220116	-0.801941
H262	H	1.279890	0.029884	-0.551941
H263	H	1.529890	0.279884	-0.301941
H264	H	1.779890	0.529884	-0.051941
H265	H	0.953745	-0.739029	-0.238308
H266	H	1.203745	-0.489029	0.011692
H267	H	1.453745	-0.239029	0.261692
H268	H	1.703745	0.010971	0.511692
H269	H	0.608531	-0.251791	-0.255112
H270	H	0.858531	-0.001791	-0.005112
H271	H	1.108531	0.248209	0.244888
H272	H	1.358531	0.498209	0.494888
H273	H	0.962532	-0.424978	-0.792735
H274	H	1.212532	-0.174978	-0.542735
H275	H	1.462532	0.075022	-0.292735
H276	H	1.712532	0.325022	-0.042735
H277	H	0.599207	-0.456743	-0.303471
H278	H	0.849207	-0.206743	-0.053471
H279	H	1.099207	0.043257	0.196529
H280	H	1.349207	0.293257	0.446529
H281	H	1.162215	-0.937188	-0.447053
H282	H	1.412215	-0.687188	-0.197053
H283	H	1.662215	-0.437188	0.052947
H284	H	1.912215	-0.187188	0.302947
H285	H	0.959689	-0.605946	-0.244294
H286	H	1.209689	-0.355946	0.005706
H287	H	1.459689	-0.105946	0.255706
H288	H	1.709689	0.144054	0.505706
H289	H	1.131936	-0.605733	-0.416808
H290	H	1.381936	-0.355733	-0.166808
H291	H	1.631936	-0.105733	0.083192
H292	H	1.881936	0.144267	0.333192
H293	H	0.989971	-0.937411	-0.274539
H294	H	1.239971	-0.687411	-0.024539
H295	H	1.489971	-0.437411	0.225461
H296	H	1.739971	-0.187411	0.475461
H297	H	0.510391	-0.369990	-0.216106
H298	H	0.760391	-0.119990	0.033894
H299	H	1.010391	0.130010	0.283894
H300	H	1.260391	0.380010	0.533894
H301	H	1.086118	-0.456616	-0.884082
H302	H	1.336118	-0.206616	-0.634082
H303	H	1.586118	0.043384	-0.384082
H304	H	1.836118	0.293384	-0.134082
H305	H	1.181657	-0.370156	-0.795304
H306	H	1.431657	-0.120156	-0.545304
H307	H	1.681657	0.129844	-0.295304
H308	H	1.931657	0.379844	-0.045304
H309	H	0.508210	-0.425291	-0.430130
H310	H	0.758210	-0.175291	-0.180130
H311	H	1.008210	0.074709	0.069870
H312	H	1.258210	0.324709	0.319870
H313	H	1.119722	-0.825591	-0.404539
H314	H	1.369722	-0.575591	-0.154539
H315	H	1.619722	-0.325591	0.095461
H316	H	1.869722	-0.075591	0.345461
H317	H	1.153644	-0.251744	-0.893146
H318	H	1.403644	-0.001744	-0.643146
H319	H	1.653644	0.248256	-0.393146
H320	H	1.903644	0.498256	-0.143146
H321	H	1.156270	-1.070273	-0.441062
H322	H	1.406270	-0.820273	-0.191062
H323	H	1.656270	-0.570273	0.058938
H324	H	1.906270	-0.320273	0.308938
H325	H	1.125990	-0.738805	-0.410817
H326	H	1.375990	-0.488805	-0.160817
H327	H	1.625990	-0.238805	0.089183
H328	H	1.875990	0.011195	0.339183
H329	H	0.996232	-0.850634	-0.280823
H330	H	1.246232	-0.600634	-0.030823
H331	H	1.496232	-0.350634	0.219177
H332	H	1.746232	-0.100634	0.469177
