data_functionalizedCrystal
_audit_creation_method	'MofGen! by Chris Wilmer'
_symmetry_space_group_name_H-M	'P1'
_symmetry_Int_Tables_number	1
_symmetry_cell_setting	triclinic
loop_
_symmetry_equiv_pos_as_xyz
  x,y,z
_cell_length_a	18.101395
_cell_length_b	16.959455
_cell_length_c	16.959447
_cell_angle_alpha	89.985678
_cell_angle_beta	90.029468
_cell_angle_gamma	89.971949
loop_
_atom_site_label
_atom_site_type_symbol
_atom_site_fract_x
_atom_site_fract_y
_atom_site_fract_z
Zn1	Zn	-0.294875	-1.208323	0.446913
Zn2	Zn	0.038458	-0.874990	0.780247
Zn3	Zn	0.371791	-0.541657	1.113580
Zn4	Zn	-0.418728	-1.208220	0.314737
Zn5	Zn	-0.085395	-0.874887	0.648070
Zn6	Zn	0.247938	-0.541554	0.981403
Zn7	Zn	-0.294899	-1.076152	0.314751
Zn8	Zn	0.038435	-0.742818	0.648084
Zn9	Zn	0.371768	-0.409485	0.981418
Zn10	Zn	-0.418673	-1.076091	0.446875
Zn11	Zn	-0.085340	-0.742758	0.780209
Zn12	Zn	0.247994	-0.409424	1.113542
O13	O	-0.356794	-1.142196	0.380819
O14	O	-0.023460	-0.808863	0.714152
O15	O	0.309873	-0.475530	1.047486
O16	O	-0.311318	-1.318920	0.429390
O17	O	0.022015	-0.985587	0.762723
O18	O	0.355349	-0.652254	1.096057
O19	O	-0.402335	-1.190683	0.204128
O20	O	-0.069002	-0.857350	0.537461
O21	O	0.264332	-0.524017	0.870794
O22	O	-0.191263	-1.093753	0.332304
O23	O	0.142071	-0.760420	0.665638
O24	O	0.475404	-0.427086	0.998971
O25	O	-0.402312	-1.318845	0.332280
O26	O	-0.068979	-0.985511	0.665614
O27	O	0.264354	-0.652178	0.998947
O28	O	-0.191246	-1.190859	0.429404
O29	O	0.142088	-0.857526	0.762737
O30	O	0.475421	-0.524192	1.096070
O31	O	-0.311358	-1.093653	0.204138
O32	O	0.021976	-0.760320	0.537471
O33	O	0.355309	-0.426986	0.870805
O34	O	-0.311304	-0.965533	0.332267
O35	O	0.022029	-0.632199	0.665601
O36	O	0.355363	-0.298866	0.998934
O37	O	-0.402218	-1.093649	0.557491
O38	O	-0.068885	-0.760316	0.890825
O39	O	0.264449	-0.426983	1.224158
O40	O	-0.402241	-0.965488	0.429339
O41	O	-0.068907	-0.632155	0.762672
O42	O	0.264426	-0.298821	1.096005
O43	O	-0.311264	-1.190800	0.557519
O44	O	0.022069	-0.857467	0.890853
O45	O	0.355402	-0.524133	1.224186
O46	O	-0.522354	-1.190624	0.332243
O47	O	-0.189021	-0.857291	0.665577
O48	O	0.144313	-0.523958	0.998910
O49	O	-0.522313	-1.093550	0.429325
O50	O	-0.188980	-0.760216	0.762658
O51	O	0.144353	-0.426883	1.095992
C52	C	-0.356769	-0.936830	0.380801
C53	C	-0.023436	-0.603497	0.714134
C54	C	0.309897	-0.270164	1.047468
C55	C	-0.356777	-0.848974	0.380812
C56	C	-0.023443	-0.515640	0.714145
C57	C	0.309890	-0.182307	1.047479
C58	C	-0.549204	-1.142091	0.380796
C59	C	-0.215871	-0.808757	0.714129
C60	C	0.117462	-0.475424	1.047463
C61	C	-0.631518	-1.142118	0.380812
C62	C	-0.298185	-0.808784	0.714146
C63	C	0.035148	-0.475451	1.047479
C64	C	-0.356732	-1.142229	0.586987
C65	C	-0.023399	-0.808896	0.920321
C66	C	0.309934	-0.475563	1.253654
C67	C	-0.356706	-1.142243	0.674844
C68	C	-0.023373	-0.808910	1.008177
C69	C	0.309960	-0.475577	1.341511
C70	C	-0.930609	-1.142291	0.380855
C71	C	-0.597276	-0.808958	0.714188
C72	C	-0.263943	-0.475625	1.047522
C73	C	-0.899289	-1.081356	0.442088
C74	C	-0.565956	-0.748023	0.775421
C75	C	-0.232623	-0.414689	1.108754
C76	C	-0.813671	-1.081066	0.441896
C77	C	-0.480338	-0.747733	0.775229
C78	C	-0.147005	-0.414400	1.108563
C79	C	-0.782227	-1.142205	0.380834
C80	C	-0.448894	-0.808872	0.714168
C81	C	-0.115560	-0.475538	1.047501
C82	C	-0.813380	-1.119658	0.297530
C83	C	-0.480047	-0.786325	0.630863
C84	C	-0.146713	-0.452992	0.964197
C85	C	-0.899025	-1.119266	0.297896
C86	C	-0.565692	-0.785932	0.631230
C87	C	-0.232359	-0.452599	0.964563
C88	C	-0.898956	-1.225907	0.402193
C89	C	-0.565623	-0.892573	0.735527
C90	C	-0.232290	-0.559240	1.068860
C91	C	-0.813305	-1.225415	0.404020
C92	C	-0.479972	-0.892082	0.737354
C93	C	-0.146639	-0.558748	1.070687
C94	C	-0.698367	-1.142158	0.380818
C95	C	-0.365034	-0.808825	0.714151
C96	C	-0.031701	-0.475491	1.047484
C97	C	-1.014469	-1.142337	0.380866
C98	C	-0.681135	-0.809003	0.714199
C99	C	-0.347802	-0.475670	1.047533
C100	C	-0.163632	-1.142324	0.380860
C101	C	0.169701	-0.808991	0.714193
C102	C	0.503035	-0.475658	1.047526
C103	C	-0.081318	-1.142379	0.380877
C104	C	0.252016	-0.809045	0.714210
C105	C	0.585349	-0.475712	1.047544
C106	C	-0.356819	-1.348365	0.380838
C107	C	-0.023486	-1.015031	0.714171
C108	C	0.309848	-0.681698	1.047504
C109	C	-0.356830	-1.436221	0.380846
C110	C	-0.023496	-1.102888	0.714179
C111	C	0.309837	-0.769555	1.047512
C112	C	-0.309404	-0.477497	0.330380
C113	C	0.023929	-0.144164	0.663713
C114	C	0.357262	0.189170	0.997046
C115	C	-0.404244	-0.477499	0.431304
C116	C	-0.070911	-0.144166	0.764637
C117	C	0.262422	0.189167	1.097970
C118	C	-0.404234	-0.560045	0.431299
C119	C	-0.070900	-0.226712	0.764632
C120	C	0.262433	0.106622	1.097966
C121	C	-0.356808	-0.601321	0.380833
C122	C	-0.023475	-0.267987	0.714166
C123	C	0.309858	0.065346	1.047500
C124	C	-0.309394	-0.560050	0.330372
C125	C	0.023939	-0.226717	0.663705
C126	C	0.357273	0.106616	0.997038
C127	C	-0.451653	-0.601321	0.481754
C128	C	-0.118319	-0.267988	0.815087
C129	C	0.215014	0.065345	1.148420
C130	C	-0.451644	-0.683872	0.481750
C131	C	-0.118311	-0.350539	0.815084
C132	C	0.215022	-0.017206	1.148417
C133	C	-0.404215	-0.725150	0.431287
C134	C	-0.070882	-0.391816	0.764621
C135	C	0.262452	-0.058483	1.097954
C136	C	-0.356798	-0.683874	0.380825
C137	C	-0.023465	-0.350541	0.714158
C138	C	0.309869	-0.017208	1.047491
C139	C	-0.309373	-0.725150	0.330359
C140	C	0.023961	-0.391816	0.663692
C141	C	0.357294	-0.058483	0.997025
C142	C	-0.261951	-0.683876	0.279899
C143	C	0.071382	-0.350543	0.613233
C144	C	0.404715	-0.017209	0.946566
C145	C	-0.261964	-0.601327	0.279909
C146	C	0.071369	-0.267994	0.613242
C147	C	0.404702	0.065339	0.946575
C148	C	-0.404202	-0.807698	0.431278
C149	C	-0.070869	-0.474365	0.764611
C150	C	0.262465	-0.141031	1.097945
C151	C	-0.309362	-0.807703	0.330351
C152	C	0.023971	-0.474370	0.663684
C153	C	0.357304	-0.141037	0.997017
C154	C	-0.356801	-1.142209	0.175453
C155	C	-0.023468	-0.808876	0.508786
C156	C	0.309865	-0.475543	0.842120
C157	C	-0.356619	-1.142348	0.087597
C158	C	-0.023286	-0.809015	0.420930
C159	C	0.310048	-0.475682	0.754263
C160	C	-0.403984	-1.091756	1.046308
C161	C	-0.070650	-0.758423	1.379641
C162	C	0.262683	-0.425089	1.712974
C163	C	-0.309273	-1.192920	1.046332
C164	C	0.024060	-0.859586	1.379665
C165	C	0.357394	-0.526253	1.712999
C166	C	-0.309289	-1.192899	0.963786
C167	C	0.024045	-0.859565	1.297119
C168	C	0.357378	-0.526232	1.630453
C169	C	-0.356653	-1.142306	0.922497
C170	C	-0.023320	-0.808973	1.255830
C171	C	0.310013	-0.475640	1.589164
C172	C	-0.404002	-1.091735	0.963754
C173	C	-0.070669	-0.758402	1.297088
C174	C	0.262664	-0.425068	1.630421
C175	C	-0.261946	-1.243475	0.922523
C176	C	0.071387	-0.910141	1.255856
C177	C	0.404721	-0.576808	1.589189
C178	C	-0.261960	-1.243456	0.839972
C179	C	0.071373	-0.910123	1.173305
C180	C	0.404706	-0.576790	1.506638
C181	C	-0.309322	-1.192859	0.798681
C182	C	0.024012	-0.859526	1.132015
C183	C	0.357345	-0.526193	1.465348
C184	C	-0.356672	-1.142285	0.839944
C185	C	-0.023339	-0.808952	1.173277
C186	C	0.309995	-0.475619	1.506610
C187	C	-0.404037	-1.091693	0.798655
C188	C	-0.070703	-0.758360	1.131988
C189	C	0.262630	-0.425026	1.465321
C190	C	-0.451384	-1.041115	0.839915
C191	C	-0.118050	-0.707781	1.173249
C192	C	0.215283	-0.374448	1.506582
C193	C	-0.451364	-1.041138	0.922464
C194	C	-0.118030	-0.707805	1.255797
C195	C	0.215303	-0.374471	1.589131
C196	C	-0.309342	-1.192836	0.716133
C197	C	0.023992	-0.859502	1.049466
C198	C	0.357325	-0.526169	1.382800
C199	C	-0.404055	-1.091672	0.716101
C200	C	-0.070722	-0.758339	1.049434
C201	C	0.262611	-0.425005	1.382768
H202	H	-0.792606	-1.095172	0.503666
H203	H	-0.459273	-0.761839	0.836999
H204	H	-0.125939	-0.428505	1.170332
Cl205	Cl	-0.511256	-0.735752	0.545186
Cl206	Cl	-0.177923	-0.402419	0.878519
Cl207	Cl	0.155410	-0.069085	1.211852
H208	H	-0.270715	-1.234114	1.079954
H209	H	0.062618	-0.900781	1.413288
H210	H	0.395952	-0.567447	1.746621
H211	H	-0.793014	-1.162645	0.250663
H212	H	-0.459680	-0.829311	0.583996
H213	H	-0.126347	-0.495978	0.917330
Cl214	Cl	-0.780248	-1.299221	0.340187
Cl215	Cl	-0.446915	-0.965888	0.673520
Cl216	Cl	-0.113581	-0.632554	1.006854
H217	H	-0.791993	-1.059184	0.279130
H218	H	-0.458660	-0.725850	0.612463
H219	H	-0.125326	-0.392517	0.945797
Cl220	Cl	-0.932629	-0.986250	0.420558
Cl221	Cl	-0.599295	-0.652917	0.753891
Cl222	Cl	-0.265962	-0.319584	1.087224
H223	H	-0.919210	-1.271306	0.357595
H224	H	-0.585877	-0.937972	0.690928
H225	H	-0.252544	-0.604639	1.024262
H226	H	-0.442814	-0.841299	0.472359
H227	H	-0.109481	-0.507966	0.805692
H228	H	0.223853	-0.174633	1.139025
H229	H	-0.442619	-1.050466	0.682489
H230	H	-0.109286	-0.717133	1.015823
H231	H	0.224047	-0.383799	1.349156
H232	H	-0.793246	-1.019089	0.427762
H233	H	-0.459912	-0.685755	0.761095
H234	H	-0.126579	-0.352422	1.094428
H235	H	-0.792941	-1.242417	0.465328
H236	H	-0.459608	-0.909084	0.798661
H237	H	-0.126274	-0.575751	1.131994
H238	H	-0.270738	-0.841304	0.289259
H239	H	0.062596	-0.507971	0.622593
H240	H	0.395929	-0.174637	0.955926
Cl241	Cl	-0.510929	-0.977520	0.788000
Cl242	Cl	-0.177596	-0.644186	1.121333
Cl243	Cl	0.155737	-0.310853	1.454666
Cl244	Cl	-0.929970	-1.024898	0.269990
Cl245	Cl	-0.596636	-0.691564	0.603323
Cl246	Cl	-0.263303	-0.358231	0.936657
H247	H	-0.919746	-1.161723	0.250718
H248	H	-0.586413	-0.828390	0.584051
H249	H	-0.253080	-0.495057	0.917384
H250	H	-0.270794	-1.234018	0.682542
H251	H	0.062539	-0.900685	1.015876
H252	H	0.395872	-0.567351	1.349209
Cl253	Cl	-0.202437	-1.307036	0.788109
Cl254	Cl	0.130897	-0.973703	1.121442
Cl255	Cl	0.464230	-0.640370	1.454775
H256	H	-0.223341	-0.717493	0.238806
H257	H	0.109992	-0.384160	0.572140
H258	H	0.443326	-0.050827	0.905473
H259	H	-0.920503	-1.246464	0.461904
H260	H	-0.587170	-0.913131	0.795237
H261	H	-0.253837	-0.579797	1.128570
H262	H	-0.223357	-0.567715	0.238827
H263	H	0.109976	-0.234382	0.572160
H264	H	0.443309	0.098952	0.905493
Cl265	Cl	-0.202411	-1.307078	0.974432
Cl266	Cl	0.130922	-0.973744	1.307765
Cl267	Cl	0.464255	-0.640411	1.641098
H268	H	-0.442860	-0.443888	0.472386
H269	H	-0.109527	-0.110554	0.805720
H270	H	0.223807	0.222779	1.139053
Cl271	Cl	-0.931014	-1.102912	0.537767
Cl272	Cl	-0.597680	-0.769578	0.871100
Cl273	Cl	-0.264347	-0.436245	1.204434
H274	H	-0.489914	-0.999962	0.956066
H275	H	-0.156580	-0.666629	1.289399
H276	H	0.176753	-0.333296	1.622732
H277	H	-0.270793	-0.443888	0.289299
H278	H	0.062540	-0.110555	0.622632
H279	H	0.395874	0.222779	0.955966
H280	H	-0.490269	-0.567709	0.522835
H281	H	-0.156935	-0.234376	0.856168
H282	H	0.176398	0.098958	1.189501
H283	H	-0.442530	-1.050574	1.079906
H284	H	-0.109197	-0.717241	1.413239
H285	H	0.224136	-0.383907	1.746573
