data_functionalizedCrystal
_audit_creation_method	'MofGen! by Chris Wilmer'
_symmetry_space_group_name_H-M	'P1'
_symmetry_Int_Tables_number	1
_symmetry_cell_setting	triclinic
loop_
_symmetry_equiv_pos_as_xyz
  x,y,z
_cell_length_a	17.699083
_cell_length_b	10.489741
_cell_length_c	16.176319
_cell_angle_alpha	89.993511
_cell_angle_beta	89.998611
_cell_angle_gamma	83.911094
loop_
_atom_site_label
_atom_site_type_symbol
_atom_site_fract_x
_atom_site_fract_y
_atom_site_fract_z
O1	O	1.005134	0.161296	-0.068630
O2	O	1.505134	0.661296	0.431370
O3	O	0.784893	0.182281	-0.068657
O4	O	1.284893	0.682281	0.431343
O5	O	0.900025	-0.013903	-0.068638
O6	O	1.400025	0.486097	0.431362
O7	O	0.890002	0.357479	-0.068649
O8	O	1.390002	0.857479	0.431351
O9	O	0.900009	-0.013915	0.068855
O10	O	1.400009	0.486085	0.568855
O11	O	0.784877	0.182268	0.068836
O12	O	1.284877	0.682268	0.568836
O13	O	1.005118	0.161283	0.068863
O14	O	1.505118	0.661283	0.568863
Cu15	Cu	0.894996	0.171775	0.081404
Cu16	Cu	1.394996	0.671775	0.581404
Cu17	Cu	0.895015	0.171789	-0.081198
Cu18	Cu	1.395015	0.671789	0.418802
O19	O	0.889986	0.357467	0.068844
O20	O	1.389986	0.857467	0.568844
C21	C	0.756683	0.181523	0.000086
C22	C	1.256683	0.681523	0.500086
C23	C	0.672650	0.179267	0.000076
C24	C	1.172650	0.679267	0.500076
C25	C	0.624782	0.294422	0.000073
C26	C	1.124782	0.794422	0.500073
C27	C	0.545825	0.292295	0.000083
C28	C	1.045825	0.792295	0.500083
C29	C	0.514737	0.175011	0.000091
C30	C	1.014737	0.675011	0.500091
C31	C	0.562611	0.059847	0.000097
C32	C	1.062611	0.559847	0.500097
C33	C	0.641567	0.061975	0.000092
C34	C	1.141567	0.561975	0.500092
C35	C	0.244192	0.051260	0.000118
C36	C	0.744192	0.551260	0.500118
C37	C	0.165230	0.049140	0.000120
C38	C	0.665230	0.549140	0.500120
C39	C	0.148450	0.281580	0.000109
C40	C	0.648450	0.781580	0.500109
C41	C	0.227406	0.283709	0.000104
C42	C	0.727406	0.783709	0.500104
C43	C	0.275273	0.168545	0.000114
C44	C	0.775273	0.668545	0.500114
C45	C	0.360887	0.170853	0.000104
C46	C	0.860887	0.670853	0.500104
C47	C	0.429124	0.172702	0.000096
C48	C	0.929124	0.672702	0.500096
C49	C	0.899260	-0.061427	0.000108
C50	C	1.399260	0.438573	0.500108
C51	C	0.896995	-0.203014	0.000106
C52	C	1.396995	0.296986	0.500106
C53	C	0.823740	-0.269793	0.000091
C54	C	1.323740	0.230207	0.500091
C55	C	0.858337	-0.362565	0.067887
C56	C	1.358337	0.137435	0.567887
C57	C	0.858370	-0.362527	-0.067671
C58	C	1.358370	0.137473	0.432329
C59	C	0.931622	-0.293921	0.067958
C60	C	1.431622	0.206079	0.567958
C61	C	0.931645	-0.293874	-0.067661
C62	C	1.431645	0.206126	0.432339
C63	C	0.966296	-0.386619	0.000151
C64	C	1.466296	0.113381	0.500151
C65	C	1.033328	0.162042	0.000118
C66	C	1.533328	0.662042	0.500118
C67	C	1.117361	0.164297	0.000123
C68	C	1.617361	0.664297	0.500123
C69	C	0.890751	0.404991	0.000096
C70	C	1.390751	0.904991	0.500096
C71	C	0.893016	0.546578	0.000093
C72	C	1.393016	1.046578	0.500093
N73	N	0.894988	0.171764	0.195769
N74	N	1.394988	0.671764	0.695769
N75	N	0.895029	0.171790	-0.195563
N76	N	1.395029	0.671790	0.304437
C77	C	0.945984	0.084929	0.239042
C78	C	1.445984	0.584929	0.739042
C79	C	0.945988	0.084928	0.325589
C80	C	1.445988	0.584928	0.825589
C81	C	0.894999	0.171768	0.368862
C82	C	1.394999	0.671768	0.868862
C83	C	0.843997	0.258607	0.325583
C84	C	1.343997	0.758607	0.825583
C85	C	0.843990	0.258601	0.239037
C86	C	1.343990	0.758601	0.739037
C87	C	0.844023	0.258631	0.674611
C88	C	1.344023	0.758631	1.174611
C89	C	0.844036	0.258632	0.761163
C90	C	1.344036	0.758632	1.261163
C91	C	0.946021	0.084957	0.761162
C92	C	1.446021	0.584957	1.261162
C93	C	0.946014	0.084951	0.674617
C94	C	1.446014	0.584951	1.174617
C95	C	0.895010	0.171785	0.631346
C96	C	1.395010	0.671785	1.131346
C97	C	0.895006	0.171784	0.537502
C98	C	1.395006	0.671784	1.037502
C99	C	0.895006	0.171776	0.462704
C100	C	1.395006	0.671776	0.962704
H101	H	0.109467	0.375352	0.000105
H102	H	0.609467	0.875352	0.500105
N103	N	0.748180	-0.206113	0.000169
N104	N	1.248180	0.293887	0.500169
N105	N	0.703962	-0.223982	0.058284
N106	N	1.203962	0.276018	0.558284
H107	H	0.650599	-0.179008	0.058343
H108	H	1.150599	0.320992	0.558343
H109	H	0.139922	-0.046372	0.000128
H110	H	0.639922	0.453628	0.500128
N111	N	0.819439	-0.400746	0.139777
N112	N	1.319439	0.099254	0.639777
N113	N	0.751642	-0.358372	0.151848
N114	N	1.251642	0.141628	0.651848
H115	H	0.724164	-0.385333	0.202617
H116	H	1.224164	0.114667	0.702617
H117	H	0.827372	-0.392910	-0.124992
H118	H	1.327372	0.107090	0.375008
H119	H	0.283156	-0.042514	0.000127
H120	H	0.783156	0.457486	0.500127
H121	H	0.962584	-0.263669	0.125338
H122	H	1.462584	0.236331	0.625338
N123	N	0.791933	0.347334	0.805354
N124	N	1.291933	0.847334	1.305354
N125	N	0.721971	0.345716	0.795700
N126	N	1.221971	0.845716	1.295700
H127	H	0.685174	0.408358	0.826909
H128	H	1.185174	0.908358	1.326909
N129	N	0.259147	0.403524	0.000106
N130	N	0.759147	0.903524	0.500106
N131	N	0.244708	0.481096	0.058063
N132	N	0.744708	0.981096	0.558063
H133	H	0.267122	0.565719	0.058068
H134	H	0.767122	1.065719	0.558068
H135	H	1.026580	-0.437163	0.000196
H136	H	1.526580	0.062837	0.500196
H137	H	0.506854	0.386067	0.000080
H138	H	1.006854	0.886067	0.500080
N139	N	0.530846	-0.059946	0.000114
N140	N	1.030846	0.440054	0.500114
N141	N	0.460349	-0.061833	0.000117
N142	N	0.960349	0.438167	0.500117
H143	H	0.437915	-0.146440	0.000128
H144	H	0.937915	0.353560	0.500128
H145	H	0.680540	-0.031796	0.000094
H146	H	1.180540	0.468204	0.500094
N147	N	0.970501	-0.255652	-0.139563
N148	N	1.470501	0.244348	0.360437
N149	N	0.945548	-0.277245	-0.209906
N150	N	1.445548	0.222755	0.290094
H151	H	0.972986	-0.250250	-0.260694
H152	H	1.472986	0.249750	0.239306
H153	H	0.987509	0.014219	0.203815
H154	H	1.487509	0.514219	0.703815
N155	N	0.998071	-0.003815	0.369769
N156	N	1.498071	0.496185	0.869769
N157	N	0.996380	-0.121699	0.360083
N158	N	1.496380	0.378301	0.860083
H159	H	1.033164	-0.184391	0.391277
H160	H	1.533164	0.315609	0.891277
H161	H	0.987537	0.014242	0.639387
H162	H	1.487537	0.514242	1.139387
N163	N	0.998114	-0.003742	0.805377
N164	N	1.498114	0.496258	1.305377
N165	N	0.998114	-0.003735	0.882649
N166	N	1.498114	0.496265	1.382649
H167	H	1.034904	-0.066375	0.913875
H168	H	1.534904	0.433625	1.413875
H169	H	0.802495	0.329336	0.639387
H170	H	1.302495	0.829336	1.139387
H171	H	0.802477	0.329310	0.360821
H172	H	1.302477	0.829310	0.860821
N173	N	0.791891	0.347304	0.194845
N174	N	1.291891	0.847304	0.694845
N175	N	0.746367	0.424834	0.233489
N176	N	1.246367	0.924834	0.733489
H177	H	0.709567	0.487480	0.202280
H178	H	1.209567	0.987480	0.702280
H179	H	0.650088	0.389929	0.000065
H180	H	1.150088	0.889929	0.500065
