data_functionalizedCrystal
_audit_creation_method	'MofGen! by Chris Wilmer'
_symmetry_space_group_name_H-M	'P1'
_symmetry_Int_Tables_number	1
_symmetry_cell_setting	triclinic
loop_
_symmetry_equiv_pos_as_xyz
  x,y,z
_cell_length_a	11.169417
_cell_length_b	18.101395
_cell_length_c	11.169409
_cell_angle_alpha	90.035674
_cell_angle_beta	90.019824
_cell_angle_gamma	90.031983
loop_
_atom_site_label
_atom_site_type_symbol
_atom_site_fract_x
_atom_site_fract_y
_atom_site_fract_z
Zn1	Zn	1.834789	-0.294752	0.678515
Zn2	Zn	1.834606	-0.418619	0.477820
Zn3	Zn	1.634075	-0.294797	0.477849
Zn4	Zn	1.634010	-0.418558	0.678465
O5	O	1.734370	-0.356682	0.578162
O6	O	2.002715	-0.311190	0.651901
O7	O	1.807956	-0.402238	0.309874
O8	O	1.660804	-0.191159	0.504501
O9	O	2.002580	-0.402194	0.504451
O10	O	1.808268	-0.191125	0.651929
O11	O	1.660626	-0.311267	0.309896
O12	O	1.466117	-0.311208	0.504453
O13	O	1.660693	-0.402091	0.846421
O14	O	1.466069	-0.402135	0.651844
O15	O	1.808205	-0.311131	0.846458
O16	O	1.807892	-0.522244	0.504403
O17	O	1.660515	-0.522199	0.651816
C18	C	1.422545	-0.356670	0.578147
C19	C	1.289145	-0.356684	0.578169
C20	C	1.734209	-0.549092	0.578127
C21	C	1.734250	-0.631406	0.578152
C22	C	1.734514	-0.930497	0.578217
C23	C	1.642003	-0.899175	0.671195
C24	C	1.641564	-0.813557	0.670904
C25	C	1.734383	-0.782115	0.578186
C26	C	1.700132	-0.813278	0.451699
C27	C	1.699535	-0.898923	0.452255
C28	C	1.861478	-0.898837	0.610612
C29	C	1.860732	-0.813186	0.613386
C30	C	1.734311	-0.698255	0.578160
C31	C	1.734583	-1.014357	0.578234
C32	C	2.047412	-0.356694	0.578178
C33	C	2.180812	-0.356699	0.578185
C34	C	1.734462	-0.356599	0.891205
C35	C	1.734501	-0.356564	1.024605
C36	C	1.734564	-0.163520	0.578224
C37	C	1.734647	-0.081206	0.578250
C38	C	1.734347	-0.356710	0.266338
C39	C	1.734541	-0.356537	0.132938
H40	H	1.663221	-0.919714	0.765288
O41	O	1.943708	-0.923127	0.529928
C42	C	1.947738	-1.000965	0.532081
H43	H	1.913175	-1.021680	0.622029
H44	H	2.044008	-1.020188	0.518849
H45	H	1.889292	-1.023969	0.457107
H46	H	1.933304	-0.791778	0.550600
H47	H	1.608304	-0.791896	0.423764
H48	H	1.547455	-0.793137	0.649447
H49	H	1.763992	-0.919646	0.380617
O50	O	1.898942	-0.924485	0.718727
C51	C	2.012865	-0.895066	0.745044
H52	H	2.059197	-0.878286	0.658290
H53	H	2.068999	-0.938555	0.792921
H54	H	2.002522	-0.844571	0.805201
O55	O	1.667280	-0.788503	0.782810
C56	C	1.781190	-0.814265	0.817618
H57	H	1.804442	-0.865966	0.764153
H58	H	1.780286	-0.828029	0.917197
H59	H	1.850951	-0.769634	0.799651
H60	H	1.765392	-0.792913	0.380534
H61	H	1.886561	-0.792814	0.706473
O62	O	1.530493	-0.925051	0.645895
C63	C	1.530525	-1.002853	0.651846
H64	H	1.625472	-1.024234	0.637803
H65	H	1.469474	-1.026046	0.579139
H66	H	1.496653	-1.021192	0.743404
O67	O	1.588734	-0.922806	0.419723
C68	C	1.503231	-0.895833	0.501627
H69	H	1.548972	-0.882518	0.590314
H70	H	1.431291	-0.939542	0.516721
H71	H	1.460291	-0.843631	0.464079
