data_functionalizedCrystal
_audit_creation_method	'MofGen! by Chris Wilmer'
_symmetry_space_group_name_H-M	'P1'
_symmetry_Int_Tables_number	1
_symmetry_cell_setting	triclinic
loop_
_symmetry_equiv_pos_as_xyz
  x,y,z
_cell_length_a	12.594517
_cell_length_b	12.594516
_cell_length_c	16.625548
_cell_angle_alpha	90.008008
_cell_angle_beta	90.009454
_cell_angle_gamma	90.011248
loop_
_atom_site_label
_atom_site_type_symbol
_atom_site_fract_x
_atom_site_fract_y
_atom_site_fract_z
Zn1	Zn	1.627164	-0.423935	0.455954
Zn2	Zn	1.960498	-0.090602	0.789287
Zn3	Zn	2.293831	0.242732	1.122620
Zn4	Zn	1.627108	-0.601883	0.321129
Zn5	Zn	1.960441	-0.268550	0.654462
Zn6	Zn	2.293775	0.064783	0.987796
Zn7	Zn	1.449208	-0.423917	0.321132
Zn8	Zn	1.782541	-0.090584	0.654465
Zn9	Zn	2.115874	0.242749	0.987798
Zn10	Zn	1.449163	-0.601870	0.455916
Zn11	Zn	1.782497	-0.268537	0.789249
Zn12	Zn	2.115830	0.064797	1.122582
O13	O	1.538161	-0.512901	0.388532
O14	O	1.871494	-0.179568	0.721866
O15	O	2.204828	0.153765	1.055199
O16	O	1.776103	-0.447553	0.438084
O17	O	2.109436	-0.114220	0.771417
O18	O	2.442769	0.219114	1.104750
O19	O	1.603504	-0.578274	0.208297
O20	O	1.936837	-0.244941	0.541630
O21	O	2.270171	0.088393	0.874964
O22	O	1.472856	-0.274974	0.339033
O23	O	1.806190	0.058359	0.672366
O24	O	2.139523	0.391693	1.005700
O25	O	1.776061	-0.578291	0.339028
O26	O	2.109394	-0.244958	0.672362
O27	O	2.442728	0.088376	1.005695
O28	O	1.603600	-0.274987	0.438086
O29	O	1.936933	0.058347	0.771420
O30	O	2.270267	0.391680	1.104753
O31	O	1.472802	-0.447523	0.208299
O32	O	1.806135	-0.114190	0.541632
O33	O	2.139468	0.219143	0.874965
O34	O	1.300256	-0.447510	0.338996
O35	O	1.633589	-0.114177	0.672329
O36	O	1.966923	0.219156	1.005663
O37	O	1.472781	-0.578268	0.568753
O38	O	1.806114	-0.244935	0.902087
O39	O	2.139447	0.088399	1.235420
O40	O	1.300224	-0.578251	0.438022
O41	O	1.633557	-0.244918	0.771355
O42	O	1.966890	0.088415	1.104688
O43	O	1.603557	-0.447540	0.568781
O44	O	1.936890	-0.114207	0.902114
O45	O	2.270224	0.219127	1.235448
O46	O	1.603461	-0.750827	0.338992
O47	O	1.936794	-0.417494	0.672325
O48	O	2.270128	-0.084161	1.005658
O49	O	1.472726	-0.750817	0.438019
O50	O	1.806059	-0.417484	0.771352
O51	O	2.139393	-0.084151	1.104686
C52	C	1.261620	-0.512878	0.388505
C53	C	1.594953	-0.179545	0.721839
C54	C	1.928287	0.153788	1.055172
C55	C	1.143314	-0.512894	0.388513
C56	C	1.476648	-0.179561	0.721846
C57	C	1.809981	0.153773	1.055180
C58	C	1.003285	-0.441706	0.334776
C59	C	1.336618	-0.108373	0.668110
C60	C	1.669951	0.224961	1.001443
C61	C	1.074120	-0.415806	0.408353
C62	C	1.407453	-0.082473	0.741686
C63	C	1.740786	0.250860	1.075020
C64	C	1.074051	-0.538746	0.314944
C65	C	1.407384	-0.205412	0.648278
C66	C	1.740718	0.127921	0.981611
C67	C	1.003364	-0.486986	0.462188
C68	C	1.336697	-0.153653	0.795521
C69	C	1.670031	0.179681	1.128854
C70	C	1.003289	-0.609971	0.368729
C71	C	1.336622	-0.276637	0.702063
C72	C	1.669956	0.056696	1.035396
C73	C	1.074092	-0.584108	0.442357
C74	C	1.407426	-0.250775	0.775690
C75	C	1.740759	0.082559	1.109024
C76	C	1.538112	-0.789442	0.388518
C77	C	1.871445	-0.456109	0.721852
C78	C	2.204778	-0.122776	1.055185
C79	C	1.538188	-0.907748	0.388539
C80	C	1.871521	-0.574414	0.721873
C81	C	2.204854	-0.241081	1.055206
C82	C	1.609377	-0.976968	0.334736
C83	C	1.942710	-0.643634	0.668069
C84	C	2.276044	-0.310301	1.001403
C85	C	1.635366	-1.047698	0.408331
C86	C	1.968699	-0.714365	0.741664
C87	C	2.302033	-0.381031	1.074997
C88	C	1.512332	-1.047816	0.314991
C89	C	1.845665	-0.714483	0.648325
C90	C	2.178999	-0.381150	0.981658
C91	C	1.564226	-0.976920	0.462173
C92	C	1.897560	-0.643587	0.795506
C93	C	2.230893	-0.310253	1.128840
C94	C	1.441147	-0.977032	0.368784
C95	C	1.774481	-0.643699	0.702117
C96	C	2.107814	-0.310365	1.035451
C97	C	1.467099	-1.047730	0.442430
C98	C	1.800433	-0.714397	0.775763
C99	C	2.133766	-0.381064	1.109096
C100	C	1.815782	-0.512925	0.388560
C101	C	2.149115	-0.179592	0.721893
C102	C	2.482448	0.153741	1.055227
C103	C	1.934087	-0.512936	0.388572
C104	C	2.267420	-0.179602	0.721905
C105	C	2.600754	0.153731	1.055238
C106	C	1.538170	-0.512904	0.598841
C107	C	1.871504	-0.179571	0.932175
C108	C	2.204837	0.153762	1.265508
C109	C	1.538174	-0.512906	0.688462
C110	C	1.871508	-0.179572	1.021796
C111	C	2.204841	0.153761	1.355129
C112	C	1.538239	-0.235281	0.388564
C113	C	1.871573	0.098053	0.721898
C114	C	2.204906	0.431386	1.055231
C115	C	1.538273	-0.116975	0.388578
C116	C	1.871606	0.216358	0.721911
C117	C	2.204939	0.549692	1.055244
C118	C	1.538130	-0.512915	1.016638
C119	C	1.871463	-0.179582	1.349971
C120	C	2.204797	0.153752	1.683305
C121	C	1.538139	-0.512916	0.925330
C122	C	1.871473	-0.179583	1.258663
C123	C	2.204806	0.153751	1.591996
C124	C	1.538153	-0.512911	0.852553
C125	C	1.871486	-0.179578	1.185887
C126	C	2.204819	0.153755	1.519220
C127	C	1.538161	-0.512910	0.761239
C128	C	1.871494	-0.179577	1.094572
C129	C	2.204828	0.153756	1.427906
C130	C	1.538141	-0.512920	1.179042
C131	C	1.871475	-0.179587	1.512375
C132	C	2.204808	0.153747	1.845708
C133	C	1.538131	-0.512912	1.089421
C134	C	1.871464	-0.179579	1.422754
C135	C	2.204797	0.153755	1.756087
H136	H	1.105104	-0.560593	0.252703
H137	H	1.438437	-0.227260	0.586036
H138	H	1.771770	0.106074	0.919370
Br139	Br	1.125963	-0.279004	0.436303
Br140	Br	1.459296	0.054330	0.769636
Br141	Br	1.792630	0.387663	1.102969
Br142	Br	1.304337	-0.925259	0.340866
Br143	Br	1.637670	-0.591926	0.674200
Br144	Br	1.971004	-0.258593	1.007533
H145	H	0.972197	-0.381442	0.289364
H146	H	1.305531	-0.048109	0.622698
H147	H	1.638864	0.285225	0.956031
Br148	Br	0.951835	-0.450412	0.565959
Br149	Br	1.285169	-0.117079	0.899292
Br150	Br	1.618502	0.216255	1.232625
Br151	Br	1.125584	-0.684483	0.518222
Br152	Br	1.458917	-0.351149	0.851555
Br153	Br	1.792250	-0.017816	1.184889
H154	H	1.669589	-0.945896	0.289277
H155	H	2.002923	-0.612563	0.622610
H156	H	2.336256	-0.279230	0.955944
Br157	Br	0.951387	-0.746735	0.340754
Br158	Br	1.284720	-0.413401	0.674087
Br159	Br	1.618054	-0.080068	1.007420
Br160	Br	1.772211	-1.099410	0.436235
Br161	Br	2.105544	-0.766076	0.769569
Br162	Br	2.438878	-0.432743	1.102902
H163	H	1.586049	-0.945910	0.524441
H164	H	1.919382	-0.612577	0.857774
H165	H	2.252716	-0.279244	1.191108
H166	H	1.406933	-1.078605	0.487998
H167	H	1.740267	-0.745271	0.821332
H168	H	2.073600	-0.411938	1.154665
H169	H	1.490428	-1.078958	0.252777
H170	H	1.823761	-0.745624	0.586110
H171	H	2.157095	-0.412291	0.919444
