data_functionalizedCrystal
_audit_creation_method	'MofGen! by Chris Wilmer'
_symmetry_space_group_name_H-M	'P1'
_symmetry_Int_Tables_number	1
_symmetry_cell_setting	triclinic
loop_
_symmetry_equiv_pos_as_xyz
  x,y,z
_cell_length_a	11.169417
_cell_length_b	19.077068
_cell_length_c	11.169409
_cell_angle_alpha	92.259065
_cell_angle_beta	89.980176
_cell_angle_gamma	92.327792
loop_
_atom_site_label
_atom_site_type_symbol
_atom_site_fract_x
_atom_site_fract_y
_atom_site_fract_z
Zn1	Zn	1.815630	-0.280126	-0.697665
Zn2	Zn	1.807395	-0.397846	-0.505018
Zn3	Zn	1.614913	-0.280169	-0.497002
Zn4	Zn	1.606803	-0.397789	-0.705659
O5	O	1.711185	-0.338983	-0.601336
O6	O	1.982486	-0.295748	-0.672119
O7	O	1.781809	-0.382278	-0.336008
O8	O	1.648378	-0.181673	-0.516921
O9	O	1.976436	-0.382237	-0.530582
O10	O	1.795844	-0.181642	-0.664347
O11	O	1.640393	-0.295821	-0.330119
O12	O	1.445887	-0.295766	-0.524672
O13	O	1.634556	-0.382139	-0.872546
O14	O	1.439929	-0.382181	-0.677971
O15	O	1.787981	-0.295693	-0.866672
O16	O	1.773945	-0.496329	-0.538333
O17	O	1.626571	-0.496287	-0.685743
C18	C	1.399361	-0.338972	-0.601320
C19	C	1.265960	-0.338984	-0.601343
C20	C	1.698517	-0.521846	-0.613802
C21	C	1.693208	-0.600075	-0.619175
C22	C	1.767503	-0.636826	-0.545014
C23	C	1.762516	-0.710331	-0.550075
C24	C	1.683227	-0.747084	-0.629291
C25	C	1.608929	-0.710328	-0.703460
C26	C	1.613923	-0.636824	-0.698404
C27	C	1.660064	-0.966916	-0.652640
C28	C	1.655073	-1.040425	-0.657687
C29	C	1.808662	-1.040424	-0.504303
C30	C	1.813643	-0.966918	-0.499250
C31	C	1.739350	-0.930169	-0.573423
N32	N	1.678125	-0.822218	-0.634463
N33	N	1.744459	-0.855036	-0.568256
C34	C	2.024226	-0.338994	-0.601353
C35	C	2.157626	-0.338999	-0.601360
C36	C	1.711282	-0.338905	-0.914373
C37	C	1.711324	-0.338871	-1.047771
C38	C	1.723935	-0.155406	-0.588848
C39	C	1.729368	-0.077176	-0.583526
C40	C	1.711160	-0.339010	-0.289513
C41	C	1.711365	-0.338845	-0.156103
H42	H	1.823014	-0.740251	-0.489685
H43	H	1.553426	-0.606902	-0.758795
C44	C	1.567865	-1.080855	-0.744845
C45	C	1.562377	-1.161706	-0.750403
C46	C	1.475178	-1.202136	-0.837559
C47	C	1.393467	-1.161715	-0.919157
C48	C	1.398952	-1.080860	-0.913603
C49	C	1.486151	-1.040430	-0.826447
H50	H	1.622867	-1.191632	-0.689996
H51	H	1.471118	-1.261991	-0.841670
H52	H	1.328917	-1.191644	-0.983675
H53	H	1.338462	-1.050934	-0.974010
H54	H	1.490212	-0.980575	-0.822336
C55	C	1.854723	-0.596401	-0.457875
C56	C	1.844314	-0.606583	-0.322128
C57	C	1.931539	-0.566160	-0.234990
C58	C	2.029174	-0.515555	-0.283598
C59	C	2.039587	-0.505371	-0.419351
C60	C	1.952362	-0.545794	-0.506489
H61	H	1.772035	-0.644046	-0.286140
H62	H	1.923830	-0.573700	-0.134496
H63	H	2.093744	-0.485632	-0.219092
H64	H	2.111866	-0.467908	-0.455339
H65	H	1.960071	-0.538254	-0.606983
H66	H	1.599569	-0.937001	-0.713032
H67	H	1.869149	-1.070353	-0.443917
H68	H	1.544376	-0.740258	-0.767964
C69	C	1.900869	-0.926498	-0.412110
C70	C	1.890452	-0.936685	-0.276365
C71	C	1.977676	-0.896267	-0.189219
C72	C	2.075317	-0.845662	-0.237816
C73	C	2.085738	-0.835473	-0.373568
C74	C	1.998514	-0.875891	-0.460714
H75	H	1.818169	-0.974148	-0.240384
H76	H	1.969961	-0.903810	-0.088726
H77	H	2.139885	-0.815742	-0.173305
H78	H	2.158021	-0.798010	-0.409549
H79	H	2.006229	-0.868348	-0.561207
