data_functionalizedCrystal
_audit_creation_method	'MofGen! by Chris Wilmer'
_symmetry_space_group_name_H-M	'P1'
_symmetry_Int_Tables_number	1
_symmetry_cell_setting	triclinic
loop_
_symmetry_equiv_pos_as_xyz
  x,y,z
_cell_length_a	14.044220
_cell_length_b	14.044190
_cell_length_c	14.048226
_cell_angle_alpha	89.988942
_cell_angle_beta	89.998644
_cell_angle_gamma	93.190328
loop_
_atom_site_label
_atom_site_type_symbol
_atom_site_fract_x
_atom_site_fract_y
_atom_site_fract_z
O1	O	1.277176	0.230171	-0.079079
O2	O	1.777176	0.730171	0.420921
O3	O	1.000505	0.221865	-0.079102
O4	O	1.500505	0.721865	0.420898
O5	O	1.134684	0.087682	-0.079072
O6	O	1.634684	0.587682	0.420928
O7	O	1.142997	0.364354	-0.079109
O8	O	1.642997	0.864354	0.420891
O9	O	1.134666	0.087671	0.079249
O10	O	1.634666	0.587671	0.579249
O11	O	1.000486	0.221855	0.079219
O12	O	1.500486	0.721855	0.579219
O13	O	1.277158	0.230160	0.079243
O14	O	1.777158	0.730160	0.579243
Zn15	Zn	1.138819	0.226006	0.104368
Zn16	Zn	1.638819	0.726006	0.604368
Zn17	Zn	1.138844	0.226019	-0.104227
Zn18	Zn	1.638844	0.726019	0.395773
O19	O	1.142979	0.364344	0.079213
O20	O	1.642979	0.864344	0.579213
C21	C	0.964874	0.218224	0.000056
C22	C	1.464874	0.718224	0.500056
C23	C	0.858731	0.207380	0.000048
C24	C	1.358731	0.707380	0.500048
C25	C	0.664392	0.187553	0.000069
C26	C	1.164392	0.687553	0.500069
C27	C	0.613264	0.264468	0.000063
C28	C	1.113264	0.764468	0.500063
C29	C	0.505128	0.253436	0.000075
C30	C	1.005128	0.753436	0.500075
C31	C	0.772539	0.198583	0.000057
C32	C	1.272539	0.698583	0.500057
C33	C	1.131039	0.052054	0.000091
C34	C	1.631039	0.552054	0.500091
C35	C	1.120191	-0.054089	0.000099
C36	C	1.620191	0.445911	0.500099
C37	C	1.177292	-0.299547	0.000066
C38	C	1.677292	0.200453	0.500066
C39	C	1.100375	-0.248422	0.000066
C40	C	1.600375	0.251578	0.500066
C41	C	1.111404	-0.140285	0.000084
C42	C	1.611404	0.359715	0.500084
C43	C	1.166265	-0.407694	0.000048
C44	C	1.666265	0.092306	0.500048
C45	C	1.312789	0.233801	0.000083
C46	C	1.812789	0.733801	0.500083
C47	C	1.418932	0.244646	0.000085
C48	C	1.918932	0.744646	0.500085
C49	C	1.146624	0.399971	0.000047
C50	C	1.646624	0.899971	0.500047
C51	C	1.157472	0.506114	0.000034
C52	C	1.657472	1.006114	0.500034
N53	N	1.138810	0.225997	0.246729
N54	N	1.638810	0.725997	0.746729
N55	N	1.138860	0.226022	-0.246588
N56	N	1.638860	0.726022	0.253412
C57	C	1.198247	0.166609	0.296560
C58	C	1.698247	0.666609	0.796560
C59	C	1.198253	0.166609	0.396218
C60	C	1.698253	0.666609	0.896218
C61	C	1.138827	0.226003	0.446042
C62	C	1.638827	0.726003	0.946042
C63	C	1.079383	0.285393	0.396204
C64	C	1.579383	0.785393	0.896204
C65	C	1.079372	0.285387	0.296548
C66	C	1.579372	0.785387	0.796548
C67	C	1.079411	0.285402	0.603918
C68	C	1.579411	0.785402	1.103918
C69	C	1.079423	0.285409	0.703581
C70	C	1.579423	0.785409	1.203581
C71	C	1.198292	0.166624	0.703588
C72	C	1.698292	0.666624	1.203588
C73	C	1.198282	0.166618	0.603932
C74	C	1.698282	0.666618	1.103932
C75	C	1.138839	0.226010	0.554100
C76	C	1.638839	0.726010	1.054100
H77	H	0.650706	0.338602	0.000049
H78	H	1.150706	0.838602	0.500049
H79	H	1.026243	-0.285865	0.000054
H80	H	1.526243	0.214135	0.500054
O81	O	0.614810	0.089357	0.000082
O82	O	1.114810	0.589357	0.500082
H83	H	0.536425	0.095994	0.000080
H84	H	1.036425	0.595994	0.500080
H85	H	1.251418	-0.262106	0.000082
H86	H	1.751418	0.237894	0.500082
O87	O	1.262402	0.102555	0.757325
O88	O	1.762402	0.602555	1.257325
H89	H	1.252418	0.112525	0.834993
H90	H	1.752418	0.612525	1.334993
O91	O	1.262339	0.102544	0.242821
O92	O	1.762339	0.602544	0.742821
H93	H	1.303662	0.061241	0.294219
H94	H	1.803662	0.561241	0.794219
O95	O	1.262379	0.102574	0.449968
O96	O	1.762379	0.602574	0.949968
H97	H	1.303715	0.061289	0.398580
H98	H	1.803715	0.561289	0.898580
H99	H	1.031003	0.333762	0.563348
H100	H	1.531003	0.833762	1.063348
H101	H	1.246676	0.118261	0.563365
H102	H	1.746676	0.618261	1.063365
H103	H	1.031030	0.333773	0.744143
H104	H	1.531030	0.833773	1.244143
H105	H	1.030991	0.333749	0.436777
H106	H	1.530991	0.833749	0.936777
O107	O	1.015271	0.349446	0.242793
O108	O	1.515271	0.849446	0.742793
H109	H	0.973956	0.390755	0.294180
H110	H	1.473956	0.890755	0.794180
