data_functionalizedCrystal
_audit_creation_method	'MofGen! by Chris Wilmer'
_symmetry_space_group_name_H-M	'P1'
_symmetry_Int_Tables_number	1
_symmetry_cell_setting	triclinic
loop_
_symmetry_equiv_pos_as_xyz
  x,y,z
_cell_length_a	19.121063
_cell_length_b	18.101398
_cell_length_c	19.121605
_cell_angle_alpha	92.444910
_cell_angle_beta	90.075163
_cell_angle_gamma	87.536641
loop_
_atom_site_label
_atom_site_type_symbol
_atom_site_fract_x
_atom_site_fract_y
_atom_site_fract_z
Zn1	Zn	-0.262316	-1.138672	-0.408103
Zn2	Zn	0.237684	-0.638672	0.091897
Zn3	Zn	-0.384556	-1.128035	-0.295862
Zn4	Zn	0.115444	-0.628035	0.204138
Zn5	Zn	-0.267325	-1.009341	-0.290902
Zn6	Zn	0.232675	-0.509341	0.209098
Zn7	Zn	-0.379507	-1.009742	-0.413078
Zn8	Zn	0.120493	-0.509742	0.086922
O9	O	-0.323426	-1.071447	-0.351986
O10	O	0.176574	-0.571447	0.148014
O11	O	-0.278548	-1.240893	-0.393208
O12	O	0.221452	-0.740893	0.106792
O13	O	-0.373215	-1.107670	-0.197099
O14	O	0.126785	-0.607670	0.302901
O15	O	-0.168553	-1.030781	-0.302291
O16	O	0.331447	-0.530781	0.197709
O17	O	-0.368358	-1.233078	-0.310744
O18	O	0.131642	-0.733078	0.189256
O19	O	-0.164873	-1.125800	-0.388398
O20	O	0.335127	-0.625800	0.111602
O21	O	-0.287085	-1.020467	-0.193455
O22	O	0.212915	-0.520467	0.306545
O23	O	-0.282189	-0.905762	-0.307115
O24	O	0.217811	-0.405762	0.192885
O25	O	-0.359752	-1.031464	-0.510523
O26	O	0.140248	-0.531464	-0.010523
O27	O	-0.364609	-0.906057	-0.396878
O28	O	0.135391	-0.406057	0.103122
O29	O	-0.273652	-1.126189	-0.506868
O30	O	0.226348	-0.626189	-0.006868
O31	O	-0.481994	-1.108059	-0.315568
O32	O	0.018006	-0.608059	0.184432
O33	O	-0.478284	-1.021149	-0.401687
O34	O	0.021716	-0.521149	0.098313
C35	C	-0.323396	-0.879039	-0.351998
C36	C	0.176604	-0.379039	0.148002
C37	C	-0.323399	-0.796726	-0.352021
C38	C	0.176601	-0.296726	0.147979
C39	C	-0.323437	-0.497632	-0.351999
C40	C	0.176563	0.002368	0.148001
C41	C	-0.375567	-0.529143	-0.408218
C42	C	0.124433	-0.029143	0.091782
C43	C	-0.375389	-0.614779	-0.408431
C44	C	0.124611	-0.114779	0.091569
C45	C	-0.323419	-0.646016	-0.352010
C46	C	0.176581	-0.146016	0.147990
C47	C	-0.248715	-0.619083	-0.369055
C48	C	0.251285	-0.119083	0.130945
C49	C	-0.249025	-0.533442	-0.369453
C50	C	0.250975	-0.033442	0.130547
C51	C	-0.345365	-0.524896	-0.278576
C52	C	0.154635	-0.024896	0.221424
C53	C	-0.346970	-0.610495	-0.279040
C54	C	0.153030	-0.110495	0.220960
C55	C	-0.323404	-0.729876	-0.352015
C56	C	0.176596	-0.229876	0.147985
C57	C	-0.323447	-0.413772	-0.351996
C58	C	0.176553	0.086228	0.148004
C59	C	-0.505576	-1.063514	-0.359721
C60	C	-0.005576	-0.563514	0.140279
C61	C	-0.583500	-1.060189	-0.363054
C62	C	-0.083500	-0.560189	0.136946
C63	C	-0.622015	-1.103915	-0.319819
C64	C	-0.122015	-0.603915	0.180181
C65	C	-0.695232	-1.100792	-0.322957
C66	C	-0.195232	-0.600792	0.177043
C67	C	-0.729933	-1.053939	-0.369327
C68	C	-0.229933	-0.553939	0.130673
C69	C	-0.691413	-1.010212	-0.412567
C70	C	-0.191413	-0.510212	0.087433
C71	C	-0.618197	-1.013339	-0.409431
C72	C	-0.118197	-0.513339	0.090569
C73	C	-0.950903	-1.042235	-0.381038
C74	C	-0.450903	-0.542235	0.118962
C75	C	-1.024124	-1.039110	-0.384169
C76	C	-0.524124	-0.539110	0.115831
C77	C	-1.027938	-1.129691	-0.294560
C78	C	-0.527938	-0.629691	0.205440
C79	C	-0.954721	-1.132811	-0.291426
C80	C	-0.454721	-0.632811	0.208574
C81	C	-0.916207	-1.089087	-0.334668
C82	C	-0.416207	-0.589087	0.165332
C83	C	-0.804773	-1.050744	-0.372535
C84	C	-0.304773	-0.550744	0.127465
C85	C	-0.841368	-1.092286	-0.331463
C86	C	-0.341368	-0.592286	0.168537
C87	C	-0.140564	-1.079433	-0.344236
C88	C	0.359436	-0.579433	0.155764
C89	C	-0.062639	-1.082836	-0.340934
C90	C	0.437361	-0.582836	0.159066
C91	C	-0.315580	-1.080058	-0.534845
C92	C	0.184420	-0.580058	-0.034845
C93	C	-0.312237	-1.083727	-0.612768
C94	C	0.187763	-0.583727	-0.112768
C95	C	-0.323454	-0.264608	-0.351979
C96	C	0.176546	0.235392	0.148021
C97	C	-0.323457	-0.346922	-0.351988
C98	C	0.176543	0.153078	0.148012
C99	C	-0.291082	-1.106990	-1.053392
C100	C	0.208918	-0.606990	-0.553392
C101	C	-0.294227	-1.103538	-0.980175
C102	C	0.205773	-0.603538	-0.480175
C103	C	-0.340623	-1.052490	-0.945472
C104	C	0.159377	-0.552490	-0.445472
C105	C	-0.383882	-1.004896	-0.983992
C106	C	0.116118	-0.504896	-0.483992
C107	C	-0.380740	-1.008353	-1.057207
C108	C	0.119260	-0.508353	-0.557207
C109	C	-0.352355	-1.039590	-0.724503
C110	C	0.147645	-0.539590	-0.224503
C111	C	-0.355492	-1.036135	-0.651282
C112	C	0.144508	-0.536135	-0.151282
C113	C	-0.265837	-1.134778	-0.647470
C114	C	0.234163	-0.634778	-0.147470
C115	C	-0.262696	-1.138227	-0.720687
C116	C	0.237304	-0.638227	-0.220687
C117	C	-0.305958	-1.090636	-0.759200
C118	C	0.194042	-0.590636	-0.259200
C119	C	-0.343837	-1.048958	-0.870633
C120	C	0.156163	-0.548958	-0.370633
C121	C	-0.302747	-1.094172	-0.834039
C122	C	0.197253	-0.594172	-0.334039
C123	C	-0.331191	-1.062916	-0.169837
C124	C	0.168809	-0.562916	0.330163
C125	C	-0.334336	-1.059398	-0.091906
C126	C	0.165664	-0.559398	0.408094
H127	H	-0.208615	-0.512772	-0.330205
H128	H	0.291385	-0.012772	0.169795
H129	H	-0.360979	-0.510721	-0.462372
H130	H	0.139021	-0.010721	0.037628
H131	H	-0.430687	-0.632827	-0.398109
H132	H	0.069313	-0.132827	0.101891
H133	H	-0.431038	-0.505579	-0.398047
H134	H	0.068962	-0.005579	0.101953
H135	H	-0.360629	-0.638391	-0.462895
H136	H	0.139371	-0.138391	0.037105
N137	N	-0.803939	-1.142816	-0.281453
N138	N	-0.303939	-0.642816	0.218547
H139	H	-0.818856	-1.128451	-0.231900
H140	H	-0.318856	-0.628451	0.268100
H141	H	-0.816181	-1.195676	-0.292978
H142	H	-0.316181	-0.695676	0.207022
H143	H	-0.381612	-1.007394	-0.842370
H144	H	0.118388	-0.507394	-0.342370
H145	H	-0.421662	-0.963335	-0.955731
H146	H	0.078338	-0.463335	-0.455731
H147	H	-0.230796	-0.516706	-0.423035
H148	H	0.269204	-0.016706	0.076965
N149	N	-1.061554	-0.988573	-0.434184
N150	N	-0.561554	-0.488573	0.065816
H151	H	-1.026046	-0.961349	-0.461103
H152	H	-0.526046	-0.461349	0.038897
H153	H	-1.090507	-1.018927	-0.467942
H154	H	-0.590507	-0.518927	0.032058
H155	H	-0.719672	-0.972067	-0.450325
H156	H	-0.219672	-0.472067	0.049675
H157	H	-0.726588	-1.136397	-0.287750
H158	H	-0.226588	-0.636397	0.212250
N159	N	-0.195685	-0.646066	-0.316328
N160	N	0.304315	-0.146066	0.183672
H161	H	-0.219633	-0.676082	-0.280800
H162	H	0.280367	-0.176082	0.219200
H163	H	-0.157988	-0.677929	-0.341192
H164	H	0.342012	-0.177929	0.158808
N165	N	-0.224217	-0.651761	-0.439230
N166	N	0.275783	-0.151761	0.060770
H167	H	-0.261392	-0.684014	-0.460078
H168	H	0.238608	-0.184014	0.039922
H169	H	-0.215305	-0.610528	-0.471606
H170	H	0.284695	-0.110528	0.028394
N171	N	-0.909368	-0.995071	-0.427669
N172	N	-0.409368	-0.495071	0.072331
H173	H	-0.942463	-0.964913	-0.457515
H174	H	-0.442463	-0.464913	0.042485
H175	H	-0.880253	-0.960776	-0.397806
H176	H	-0.380253	-0.460776	0.102194
N177	N	-0.584588	-1.154453	-0.269810
N178	N	-0.084588	-0.654453	0.230190
H179	H	-0.555640	-1.124153	-0.235999
H180	H	-0.055640	-0.624153	0.264001
H181	H	-0.620140	-1.181672	-0.242948
H182	H	-0.120140	-0.681672	0.257052
N183	N	-0.917294	-1.183356	-0.241423
N184	N	-0.417294	-0.683356	0.258577
H185	H	-0.952804	-1.210588	-0.214513
H186	H	-0.452804	-0.710588	0.285487
H187	H	-0.885660	-1.220242	-0.268694
H188	H	-0.385660	-0.720242	0.231306
N189	N	-0.842204	-1.000203	-0.422537
N190	N	-0.342204	-0.500203	0.077463
H191	H	-0.806698	-0.972971	-0.449451
H192	H	-0.306698	-0.472971	0.050549
H193	H	-0.871154	-1.030553	-0.456302
H194	H	-0.371154	-0.530553	0.043698
N195	N	-0.416498	-0.492104	-0.257247
N196	N	0.083502	0.007896	0.242753
H197	H	-0.435230	-0.459237	-0.294967
H198	H	0.064770	0.040763	0.205033
H199	H	-0.449564	-0.533264	-0.250561
H200	H	0.050436	-0.033264	0.249439
H201	H	-1.059304	-1.165290	-0.259356
H202	H	-0.559304	-0.665290	0.240644
N203	N	-0.219189	-1.186114	-0.605930
N204	N	0.280811	-0.686114	-0.105930
H205	H	-0.189323	-1.218978	-0.639024
H206	H	0.310677	-0.718978	-0.139024
H207	H	-0.188040	-1.155959	-0.574181
H208	H	0.311960	-0.655959	-0.074181
N209	N	-0.241033	-1.162046	-1.090811
N210	N	0.258967	-0.662046	-0.590811
H211	H	-0.252479	-1.213881	-1.078522
H212	H	0.247521	-0.713881	-0.578522
H213	H	-0.245622	-1.156953	-1.143027
H214	H	0.254378	-0.656953	-0.643027
N215	N	-0.576652	-0.966181	-0.456065
N216	N	-0.076652	-0.466181	0.043935
H217	H	-0.609743	-0.936024	-0.485915
H218	H	-0.109743	-0.436024	0.014085
H219	H	-0.547533	-0.931885	-0.426206
H220	H	-0.047533	-0.431885	0.073794
N221	N	-0.427396	-0.957026	-1.098751
N222	N	0.072604	-0.457026	-0.598751
H223	H	-0.457264	-0.924161	-1.065659
H224	H	0.042736	-0.424161	-0.565659
H225	H	-0.397549	-0.925436	-1.127927
H226	H	0.102451	-0.425436	-0.627927
N227	N	-0.295124	-0.497821	-0.223141
N228	N	0.204876	0.002179	0.276859
H229	H	-0.321584	-0.465675	-0.186741
H230	H	0.178416	0.034325	0.313259
H231	H	-0.271801	-0.541642	-0.200159
H232	H	0.228199	-0.041642	0.299841
N233	N	-0.247576	-1.154870	-0.938634
N234	N	0.252424	-0.654870	-0.438634
H235	H	-0.217705	-1.187730	-0.971728
H236	H	0.282295	-0.687730	-0.471728
H237	H	-0.216431	-1.124711	-0.906884
H238	H	0.283569	-0.624711	-0.406884
N239	N	-0.419778	-0.633405	-0.261897
N240	N	0.080222	-0.133405	0.238103
H241	H	-0.437442	-0.666648	-0.301232
H242	H	0.062558	-0.166648	0.198768
H243	H	-0.418496	-0.660942	-0.217043
H244	H	0.081504	-0.160942	0.282957
H245	H	-0.393260	-0.994549	-0.623029
H246	H	0.106740	-0.494549	-0.123029
N247	N	-0.399011	-0.988260	-0.766036
N248	N	0.100989	-0.488260	-0.266036
H249	H	-0.428876	-0.955396	-0.732941
H250	H	0.071124	-0.455396	-0.232941
H251	H	-0.369163	-0.956671	-0.795211
H252	H	0.130837	-0.456671	-0.295211
H253	H	-0.264974	-1.135737	-0.862297
H254	H	0.235026	-0.635737	-0.362297
N255	N	-0.212639	-1.193269	-0.758114
N256	N	0.287361	-0.693269	-0.258114
H257	H	-0.185709	-1.222891	-0.722605
H258	H	0.314291	-0.722891	-0.222605
H259	H	-0.239865	-1.227733	-0.789705
H260	H	0.260135	-0.727733	-0.289705
H261	H	-0.312010	-0.631494	-0.235156
H262	H	0.187990	-0.131494	0.264844
