data_functionalizedCrystal
_audit_creation_method	'MofGen! by Chris Wilmer'
_symmetry_space_group_name_H-M	'P1'
_symmetry_Int_Tables_number	1
_symmetry_cell_setting	triclinic
loop_
_symmetry_equiv_pos_as_xyz
  x,y,z
_cell_length_a	14.519709
_cell_length_b	10.654550
_cell_length_c	9.730223
_cell_angle_alpha	90.003749
_cell_angle_beta	89.997715
_cell_angle_gamma	95.917476
loop_
_atom_site_label
_atom_site_type_symbol
_atom_site_fract_x
_atom_site_fract_y
_atom_site_fract_z
O1	O	0.129528	-1.666589	-0.114406
O2	O	0.141869	-1.300991	-0.114384
O3	O	0.001510	-1.493483	-0.114384
O4	O	0.269887	-1.474097	-0.114407
O5	O	0.001514	-1.493481	0.114196
O6	O	0.141873	-1.300989	0.114195
O7	O	0.129532	-1.666586	0.114174
Zn8	Zn	0.135703	-1.483787	0.150477
Zn9	Zn	0.135698	-1.483790	-0.150687
O10	O	0.269890	-1.474094	0.114173
C11	C	0.140965	-1.254201	-0.000092
C12	C	0.138254	-1.114784	-0.000083
C13	C	-0.032852	-1.492579	-0.000093
C14	C	-0.135247	-1.489871	-0.000092
N15	N	0.135705	-1.483795	0.356013
C16	C	-0.510195	-1.479904	-0.000127
C17	C	-0.405873	-1.482672	-0.000117
C18	C	-0.322725	-1.484887	-0.000109
C19	C	-0.218396	-1.487656	-0.000101
C20	C	0.304253	-1.474999	-0.000120
C21	C	0.406648	-1.477707	-0.000130
C22	C	0.130436	-1.713377	-0.000122
C23	C	0.133147	-1.852794	-0.000140
C24	C	0.220895	-1.034504	-0.000110
C25	C	0.218342	-0.903507	-0.000134
C26	C	0.050500	-0.933085	-0.000108
C27	C	0.053054	-1.064078	-0.000075
C28	C	0.306095	-1.085209	-0.000118
C29	C	0.388743	-1.004928	-0.000147
C30	C	0.386190	-0.873931	-0.000170
C31	C	0.300989	-0.823217	-0.000165
N32	N	0.135688	-1.483793	-0.356224
C33	C	0.073576	-1.569052	0.427939
C34	C	0.073565	-1.569048	0.571822
C35	C	0.197821	-1.398527	0.571840
C36	C	0.197827	-1.398525	0.427959
C37	C	0.011455	-1.654321	0.355993
C38	C	-0.050679	-1.739586	0.427920
C39	C	-0.050691	-1.739583	0.571803
C40	C	0.011432	-1.654315	0.643759
H41	H	0.308183	-1.191871	-0.000105
H42	H	0.011460	-1.654334	0.238836
H43	H	0.453485	-0.808569	-0.000180
H44	H	0.248418	-1.329100	0.369396
H45	H	0.298917	-0.716549	-0.000163
C46	C	-0.105889	-1.815238	0.207352
C47	C	-0.119002	-1.833256	0.348831
H48	H	-0.148078	-1.873058	0.158531
H49	H	-0.116441	-1.731397	0.183813
H50	H	-0.044255	-1.829063	0.183762
H51	H	-0.180634	-1.819422	0.372423
H52	H	-0.108456	-1.917117	0.372380
H53	H	-0.101288	-1.809000	0.630364
H54	H	0.458110	-1.046228	-0.000140
C55	C	0.216657	-1.227679	0.733676
C56	C	0.266107	-1.304815	0.650937
H57	H	0.258818	-1.169832	0.782512
H58	H	0.177972	-1.182422	0.677550
H59	H	0.179654	-1.278472	0.797097
H60	H	0.303104	-1.254022	0.587509
H61	H	0.304808	-1.350075	0.707068
C62	C	-0.027937	-0.745409	-0.000167
C63	C	-0.043148	-0.877340	-0.000122
H64	H	-0.085753	-0.711000	-0.000188
H65	H	0.006118	-0.717850	0.079532
H66	H	0.006129	-0.717905	-0.079890
H67	H	-0.077208	-0.904846	0.079607
H68	H	-0.077217	-0.904910	-0.079829
H69	H	0.011411	-1.654311	0.760918
C70	C	-0.113108	-1.080167	-0.000085
C71	C	-0.037786	-1.152332	-0.000063
H72	H	-0.169188	-1.134654	-0.000084
H73	H	-0.110618	-1.028444	0.079610
H74	H	-0.110607	-1.028474	-0.079812
H75	H	-0.040283	-1.204018	0.079670
H76	H	-0.040277	-1.204077	-0.079766
