data_functionalizedCrystal
_audit_creation_method	'MofGen! by Chris Wilmer'
_symmetry_space_group_name_H-M	'P1'
_symmetry_Int_Tables_number	1
_symmetry_cell_setting	triclinic
loop_
_symmetry_equiv_pos_as_xyz
  x,y,z
_cell_length_a	12.759401
_cell_length_b	15.299816
_cell_length_c	12.759393
_cell_angle_alpha	99.650111
_cell_angle_beta	89.981680
_cell_angle_gamma	80.350487
loop_
_atom_site_label
_atom_site_type_symbol
_atom_site_fract_x
_atom_site_fract_y
_atom_site_fract_z
Zn1	Zn	1.678531	-0.358999	-0.666424
Zn2	Zn	1.708802	-0.509843	-0.521172
Zn3	Zn	1.502846	-0.359046	-0.490770
Zn4	Zn	1.533181	-0.509772	-0.696796
O5	O	1.605840	-0.434415	-0.593790
O6	O	1.829570	-0.379018	-0.647168
O7	O	1.681455	-0.489889	-0.370128
O8	O	1.500787	-0.232832	-0.488637
O9	O	1.851810	-0.489843	-0.540452
O10	O	1.629862	-0.232797	-0.617689
O11	O	1.530140	-0.379099	-0.347792
O12	O	1.359847	-0.379031	-0.518087
O13	O	1.552489	-0.489723	-0.839778
O14	O	1.382134	-0.489769	-0.669454
O15	O	1.659277	-0.378950	-0.817464
O16	O	1.710870	-0.636041	-0.569903
O17	O	1.581842	-0.635990	-0.698933
C18	C	1.332869	-0.434398	-0.593768
C19	C	1.216096	-0.434412	-0.593788
C20	C	1.063162	-0.492176	-0.672538
C21	C	1.172883	-0.492164	-0.672518
C22	C	1.149581	-0.376675	-0.515066
C23	C	1.039862	-0.376692	-0.515082
C24	C	1.019955	-0.549925	-0.751279
C25	C	1.086462	-0.607664	-0.830001
C26	C	1.196184	-0.607652	-0.829981
C27	C	1.239398	-0.549902	-0.751241
C28	C	1.652961	-0.668740	-0.641036
C29	C	1.673215	-0.768985	-0.661283
C30	C	1.461767	-1.051930	-0.449440
C31	C	1.442731	-0.957745	-0.430419
C32	C	1.500351	-0.910551	-0.488133
C33	C	1.577009	-0.957550	-0.564871
C34	C	1.596040	-1.051745	-0.583900
C35	C	1.634624	-0.910365	-0.622593
C36	C	1.711283	-0.957365	-0.699331
C37	C	1.730311	-1.051550	-0.718355
C38	C	1.672692	-1.098745	-0.660642
C39	C	1.615593	-0.816170	-0.603565
C40	C	1.749867	-0.815985	-0.738025
C41	C	1.768902	-0.910170	-0.757045
C42	C	1.879877	-0.434433	-0.593814
C43	C	1.996655	-0.434441	-0.593823
C44	C	1.605890	-0.434323	-0.867805
C45	C	1.605911	-0.434284	-0.984574
C46	C	1.558564	-0.199175	-0.546384
C47	C	1.538418	-0.098930	-0.526182
C48	C	1.527148	-0.376586	-1.027810
C49	C	1.527174	-0.376559	-1.137529
C50	C	1.684737	-0.491932	-1.160767
C51	C	1.684705	-0.491963	-1.051051
C52	C	1.448353	-0.318907	-0.961333
C53	C	1.369584	-0.261203	-1.004568
C54	C	1.369610	-0.261176	-1.114286
C55	C	1.448406	-0.318854	-1.180770
C56	C	1.605838	-0.434442	-0.320828
C57	C	1.605969	-0.434227	-0.204009
H58	H	1.250333	-0.654672	-0.894074
C59	C	1.197114	-0.313147	-0.428468
H60	H	1.271982	-0.321400	-0.439739
H61	H	1.181747	-0.326274	-0.360499
H62	H	1.166944	-0.252566	-0.431757
H63	H	1.328743	-0.549902	-0.751226
C64	C	1.693565	-1.202349	-0.681634
H65	H	1.747452	-1.223584	-0.735620
H66	H	1.630039	-1.223638	-0.704058
H67	H	1.716084	-1.223744	-0.618188
H68	H	1.305427	-0.214249	-0.950430
H69	H	1.414856	-1.090365	-0.402462
C70	C	0.966700	-0.313180	-0.428502
H71	H	1.008143	-0.278775	-0.381614
H72	H	0.930812	-0.347641	-0.389615
H73	H	0.916018	-0.273929	-0.460868
C74	C	1.038929	-0.671155	-0.916640
H75	H	1.094255	-0.705534	-0.963520
H76	H	0.989230	-0.636674	-0.955523
H77	H	1.003992	-0.710432	-0.884332
C78	C	0.899266	-0.549940	-0.751304
H79	H	0.883057	-0.592604	-0.809468
H80	H	0.862747	-0.491759	-0.757849
H81	H	0.877539	-0.565482	-0.686611
C82	C	1.813254	-0.764081	-0.801510
H83	H	1.790950	-0.701254	-0.779180
H84	H	1.800954	-0.779477	-0.875199
H85	H	1.886968	-0.779477	-0.789298
H86	H	1.448325	-0.318921	-0.871993
H87	H	1.553177	-0.777912	-0.541084
H88	H	1.305467	-0.214197	-1.149486
C89	C	1.448433	-0.318825	-1.301459
H90	H	1.390240	-0.276198	-1.317689
H91	H	1.441969	-0.377017	-1.338003
H92	H	1.513107	-0.303220	-1.323136
H93	H	1.748891	-0.538888	-1.214906
C94	C	1.814627	-1.103248	-0.802770
H95	H	1.846224	-1.061654	-0.834412
H96	H	1.781838	-1.139990	-0.855934
H97	H	1.867850	-1.139984	-0.770032
C98	C	1.771342	-0.555427	-1.003482
H99	H	1.760029	-0.547190	-0.928620
H100	H	1.839289	-0.542233	-1.018800
H101	H	1.768139	-0.616021	-1.033670
C102	C	1.479421	-0.806949	-0.467203
H103	H	1.425522	-0.785717	-0.413229
H104	H	1.456911	-0.785602	-0.530673
H105	H	1.542922	-0.785611	-0.444769
H106	H	1.831318	-0.948451	-0.819527
H107	H	1.380316	-0.919481	-0.367941
