data_functionalizedCrystal
_audit_creation_method	'MofGen! by Chris Wilmer'
_symmetry_space_group_name_H-M	'P1'
_symmetry_Int_Tables_number	1
_symmetry_cell_setting	triclinic
loop_
_symmetry_equiv_pos_as_xyz
  x,y,z
_cell_length_a	17.699077
_cell_length_b	15.995292
_cell_length_c	16.776229
_cell_angle_alpha	89.996541
_cell_angle_beta	89.993415
_cell_angle_gamma	83.374596
loop_
_atom_site_label
_atom_site_type_symbol
_atom_site_fract_x
_atom_site_fract_y
_atom_site_fract_z
O1	O	1.004237	0.105864	-0.066272
O2	O	1.504237	0.605864	0.433728
O3	O	0.783879	0.119646	-0.066275
O4	O	1.283879	0.619646	0.433725
O5	O	0.900105	-0.009148	-0.066275
O6	O	1.400105	0.490852	0.433725
O7	O	0.888011	0.234658	-0.066272
O8	O	1.388011	0.734658	0.433728
O9	O	0.900089	-0.009156	0.066302
O10	O	1.400089	0.490844	0.566302
O11	O	0.783863	0.119638	0.066301
O12	O	1.283863	0.619638	0.566301
O13	O	1.004222	0.105856	0.066305
O14	O	1.504222	0.605856	0.566305
Zn15	Zn	0.894040	0.112746	0.087352
Zn16	Zn	1.394040	0.612746	0.587352
Zn17	Zn	0.894060	0.112756	-0.087323
Zn18	Zn	1.394060	0.612756	0.412677
O19	O	0.887996	0.234651	0.066304
O20	O	1.387996	0.734651	0.566304
C21	C	0.755673	0.119149	0.000013
C22	C	1.255673	0.619149	0.500013
C23	C	0.671653	0.117670	0.000011
C24	C	1.171653	0.617670	0.500011
C25	C	0.632176	0.116969	0.072279
C26	C	1.132176	0.616969	0.572279
C27	C	0.553231	0.115566	0.072280
C28	C	1.053231	0.615566	0.572280
C29	C	0.513764	0.114870	0.000012
C30	C	1.013764	0.614870	0.500012
C31	C	0.553247	0.115569	-0.072262
C32	C	1.053247	0.615569	0.427738
C33	C	0.632191	0.116966	-0.072262
C34	C	1.132191	0.616966	0.427738
C35	C	0.234875	0.109934	-0.072264
C36	C	0.734875	0.609934	0.427736
C37	C	0.155926	0.108539	-0.072258
C38	C	0.655926	0.608539	0.427742
C39	C	0.155916	0.108534	0.072279
C40	C	0.655916	0.608534	0.572279
C41	C	0.234860	0.109931	0.072279
C42	C	0.734860	0.609931	0.572279
C43	C	0.274336	0.110625	0.000005
C44	C	0.774336	0.610625	0.500005
C45	C	0.359937	0.112145	0.000005
C46	C	0.859937	0.612145	0.500005
C47	C	0.428164	0.113356	0.000011
C48	C	0.928164	0.613356	0.500011
C49	C	0.899605	-0.040347	0.000012
C50	C	1.399605	0.459653	0.500012
C51	C	0.898129	-0.133297	0.000006
C52	C	1.398129	0.366703	0.500006
C53	C	0.892704	-0.471024	0.000013
C54	C	1.392704	0.028976	0.500013
C55	C	0.976593	-0.447884	0.000310
C56	C	1.476593	0.052116	0.500310
C57	C	0.978188	-0.351212	0.000008
C58	C	1.478188	0.148788	0.500008
C59	C	0.895396	-0.303474	0.000010
C60	C	1.395396	0.196526	0.500010
C61	C	0.853465	-0.332484	-0.075696
C62	C	1.353465	0.167516	0.424304
C63	C	0.852455	-0.429272	-0.075757
C64	C	1.352455	0.070728	0.424243
C65	C	0.850724	-0.429135	0.075008
C66	C	1.350724	0.070865	0.575008
C67	C	0.853833	-0.332649	0.076005
C68	C	1.353833	0.167351	0.576005
C69	C	0.896913	-0.208781	0.000005
C70	C	1.396913	0.291219	0.500005
C71	C	0.891185	-0.565717	0.000012
C72	C	1.391185	-0.065717	0.500012
C73	C	1.032427	0.106353	0.000015
C74	C	1.532427	0.606353	0.500015
C75	C	1.116448	0.107832	0.000011
C76	C	1.616448	0.607832	0.500011
C77	C	0.888496	0.265849	0.000016
C78	C	1.388496	0.765849	0.500016
C79	C	0.889972	0.358799	0.000017
C80	C	1.389972	0.858799	0.500017
N81	N	0.894032	0.112738	0.206564
N82	N	1.394032	0.612738	0.706564
N83	N	0.894075	0.112757	-0.206534
N84	N	1.394075	0.612757	0.293466
C85	C	0.945512	0.055732	0.248281
C86	C	1.445512	0.555732	0.748281
C87	C	0.945517	0.055731	0.331733
C88	C	1.445517	0.555731	0.831733
C89	C	0.894043	0.112742	0.373466
C90	C	1.394043	0.612742	0.873466
C91	C	0.842557	0.169751	0.331743
C92	C	1.342557	0.669751	0.831743
C93	C	0.842550	0.169747	0.248293
C94	C	1.342550	0.669747	0.748293
C95	C	0.842585	0.169767	0.668290
C96	C	1.342585	0.669767	1.168290
C97	C	0.842597	0.169769	0.751747
C98	C	1.342597	0.669769	1.251747
C99	C	0.945551	0.055751	0.751731
C100	C	1.445551	0.555751	1.251731
C101	C	0.945544	0.055747	0.668280
C102	C	1.445544	0.555747	1.168280
C103	C	0.894056	0.112753	0.626564
C104	C	1.394056	0.612753	1.126564
C105	C	0.894051	0.112752	0.536076
C106	C	1.394051	0.612752	1.036076
C107	C	0.894051	0.112747	0.463953
C108	C	1.394051	0.612747	0.963953
H109	H	0.521107	0.114996	-0.131104
H110	H	1.021107	0.614996	0.368896
H111	H	0.987435	0.009311	0.365699
H112	H	1.487435	0.509311	0.865699
F113	F	1.000348	-0.004923	0.796134
F114	F	1.500348	0.495077	1.296134
H115	H	0.521094	0.114981	0.131128
H116	H	1.021094	0.614981	0.631128
F117	F	0.113896	0.107791	0.149199
F118	F	0.613896	0.607791	0.649199
H119	H	0.123794	0.107972	-0.131111
H120	H	0.623794	0.607972	0.368889
F121	F	0.787771	0.230423	0.376160
F122	F	1.287771	0.730423	0.876160
F123	F	0.276859	0.110677	0.149196
F124	F	0.776859	0.610677	0.649196
F125	F	0.674205	0.117709	-0.149180
F126	F	1.174205	0.617709	0.350820
F127	F	1.021380	-0.327236	-0.071049
F128	F	1.521380	0.172764	0.428951
F129	F	1.018851	-0.484569	0.071274
F130	F	1.518851	0.015431	0.571274
F131	F	0.674172	0.117715	0.149199
F132	F	1.174172	0.617715	0.649199
H133	H	0.267008	0.110497	-0.131113
H134	H	0.767008	0.610497	0.368887
F135	F	0.893736	-0.308463	0.149212
F136	F	1.393736	0.191537	0.649212
H137	H	1.011028	-0.332258	0.054276
H138	H	1.511028	0.167742	0.554276
H139	H	1.008754	-0.476965	-0.053676
H140	H	1.508754	0.023035	0.446324
F141	F	0.890433	-0.464400	-0.149724
F142	F	1.390433	0.035600	0.350276
H143	H	0.987461	0.009327	0.634303
H144	H	1.487461	0.509327	1.134303
H145	H	0.882596	-0.312480	-0.132037
H146	H	1.382596	0.187520	0.367963
H147	H	0.790947	-0.443696	-0.079186
H148	H	1.290947	0.056304	0.420814
F149	F	0.773834	-0.290664	-0.079380
F150	F	1.273834	0.209336	0.420620
F151	F	0.885022	-0.466194	0.150010
F152	F	1.385022	0.033806	0.650010
F153	F	0.774845	-0.289395	0.081984
F154	F	1.274845	0.210605	0.581984
H155	H	0.987431	0.009310	0.214307
H156	H	1.487431	0.509310	0.714307
H157	H	0.788976	-0.442998	0.075518
H158	H	1.288976	0.057002	0.575518
F159	F	0.787809	0.230449	0.796161
F160	F	1.287809	0.730449	1.296161
H161	H	0.800662	0.216185	0.634332
H162	H	1.300662	0.716185	1.134332
H163	H	0.800628	0.216167	0.214327
H164	H	1.300628	0.716167	0.714327
