data_functionalizedCrystal
_audit_creation_method	'MofGen! by Chris Wilmer'
_symmetry_space_group_name_H-M	'P1'
_symmetry_Int_Tables_number	1
_symmetry_cell_setting	triclinic
loop_
_symmetry_equiv_pos_as_xyz
  x,y,z
_cell_length_a	11.792241
_cell_length_b	19.288864
_cell_length_c	10.868271
_cell_angle_alpha	89.981837
_cell_angle_beta	89.994719
_cell_angle_gamma	83.664831
loop_
_atom_site_label
_atom_site_type_symbol
_atom_site_fract_x
_atom_site_fract_y
_atom_site_fract_z
O1	O	0.141581	0.922152	-0.102718
O2	O	0.641581	1.422152	0.397282
O3	O	0.160680	0.720000	-0.102634
O4	O	0.660680	1.220000	0.397366
O5	O	-0.014114	0.825982	-0.102669
O6	O	0.485886	1.325982	0.397331
O7	O	0.316376	0.816171	-0.102682
O8	O	0.816376	1.316171	0.397318
O9	O	-0.014121	0.825973	0.101976
O10	O	0.485879	1.325973	0.601976
O11	O	0.160674	0.719991	0.102011
O12	O	0.660674	1.219991	0.602011
O13	O	0.141575	0.922144	0.101927
O14	O	0.641575	1.422144	0.601927
Zn15	Zn	0.151123	0.821066	0.134461
Zn16	Zn	0.651123	1.321066	0.634461
Zn17	Zn	0.151132	0.821078	-0.135167
Zn18	Zn	0.651132	1.321078	0.364833
O19	O	0.316369	0.816162	0.101962
O20	O	0.816369	1.316162	0.601962
C21	C	0.160063	0.694116	-0.000300
C22	C	0.660063	1.194116	0.499700
C23	C	0.158218	0.617002	-0.000268
C24	C	0.658218	1.117002	0.499732
C25	C	-0.056399	0.825361	-0.000347
C26	C	0.443601	1.325361	0.499653
C27	C	-0.182385	0.823517	-0.000347
C28	C	0.317615	1.323517	0.499653
C29	C	0.260779	0.572888	-0.000292
C30	C	0.760779	1.072888	0.499708
C31	C	0.259046	0.500431	-0.000305
C32	C	0.759046	1.000431	0.499695
C33	C	0.154746	0.472091	-0.000320
C34	C	0.654746	0.972091	0.499680
C35	C	0.052171	0.516215	-0.000290
C36	C	0.552171	1.016215	0.499710
C37	C	0.053907	0.588670	-0.000264
C38	C	0.553907	1.088670	0.499736
C39	C	0.072756	0.363366	-0.072054
C40	C	0.572756	0.863366	0.427946
C41	C	0.071024	0.290912	-0.072088
C42	C	0.571024	0.790912	0.427912
C43	C	0.149387	0.248615	-0.000394
C44	C	0.649387	0.748615	0.499606
C45	C	0.229500	0.278780	0.071317
C46	C	0.729500	0.778780	0.571317
C47	C	0.231236	0.351235	0.071343
C48	C	0.731236	0.851235	0.571343
C49	C	0.152852	0.393526	-0.000347
C50	C	0.652852	0.893526	0.499653
C51	C	0.250076	0.125935	-0.000431
C52	C	0.750076	0.625935	0.499569
C53	C	0.248339	0.053477	-0.000436
C54	C	0.748339	0.553477	0.499564
C55	C	0.041460	0.069262	-0.000433
C56	C	0.541460	0.569262	0.499567
C57	C	0.043201	0.141718	-0.000415
C58	C	0.543201	0.641718	0.499585
C59	C	0.147512	0.170050	-0.000419
C60	C	0.647512	0.670050	0.499581
C61	C	-0.413046	0.820125	-0.000366
C62	C	0.086954	1.320125	0.499634
C63	C	-0.284689	0.822009	-0.000356
C64	C	0.215311	1.322009	0.499644
C65	C	0.358654	0.816782	-0.000362
C66	C	0.858654	1.316782	0.499638
C67	C	0.484640	0.818627	-0.000370
C68	C	0.984640	1.318627	0.499630
C69	C	0.142192	0.948028	-0.000409
C70	C	0.642192	1.448028	0.499591
C71	C	0.144037	1.025142	-0.000449
C72	C	0.644037	1.525142	0.499551
N73	N	0.151116	0.821063	0.318475
N74	N	0.651116	1.321063	0.818475
N75	N	0.151130	0.821086	-0.319181
N76	N	0.651130	1.321086	0.180819
C77	C	0.151130	0.821074	0.569481
C78	C	0.651130	1.321074	1.069481
C79	C	0.151126	0.821066	0.429803
C80	C	0.651126	1.321066	0.929803
H81	H	0.345717	0.595951	-0.000298
H82	H	0.845717	1.095951	0.499702
H83	H	0.342567	0.464507	-0.000321
H84	H	0.842567	0.964507	0.499679
F85	F	0.316493	0.383337	0.147664
F86	F	0.816493	0.883337	0.647664
F87	F	-0.055258	0.635621	-0.000239
F88	F	0.444742	1.135621	0.499761
F89	F	-0.058833	0.486052	-0.000299
F90	F	0.441167	0.986052	0.499701
F91	F	-0.065961	0.188669	-0.000396
F92	F	0.434039	0.688669	0.499604
F93	F	0.361091	0.156090	-0.000426
F94	F	0.861091	0.656090	0.499574
F95	F	0.312907	0.233770	0.147624
F96	F	0.812907	0.733770	0.647624
F97	F	0.357505	0.006527	-0.000455
F98	F	0.857505	0.506527	0.499545
H99	H	0.005796	0.266358	-0.130484
H100	H	0.505796	0.766358	0.369516
F101	F	-0.069545	0.039105	-0.000437
F102	F	0.430455	0.539105	0.499563
H103	H	0.008942	0.397800	-0.130443
H104	H	0.508942	0.897800	0.369557
