data_functionalizedCrystal
_audit_creation_method	'MofGen! by Chris Wilmer'
_symmetry_space_group_name_H-M	'P1'
_symmetry_Int_Tables_number	1
_symmetry_cell_setting	triclinic
loop_
_symmetry_equiv_pos_as_xyz
  x,y,z
_cell_length_a	19.121459
_cell_length_b	19.121274
_cell_length_c	15.296720
_cell_angle_alpha	102.475208
_cell_angle_beta	82.354682
_cell_angle_gamma	94.747614
loop_
_atom_site_label
_atom_site_type_symbol
_atom_site_fract_x
_atom_site_fract_y
_atom_site_fract_z
Zn1	Zn	-0.381918	-1.031642	0.432641
Zn2	Zn	-0.048585	-0.698309	0.765974
Zn3	Zn	0.284749	-0.364975	1.099308
Zn4	Zn	-0.479229	-1.056947	0.275077
Zn5	Zn	-0.145895	-0.723614	0.608411
Zn6	Zn	0.187438	-0.390281	0.941744
Zn7	Zn	-0.358303	-0.932619	0.288524
Zn8	Zn	-0.024969	-0.599285	0.621857
Zn9	Zn	0.308364	-0.265952	0.955190
Zn10	Zn	-0.494517	-0.918970	0.432601
Zn11	Zn	-0.161183	-0.585637	0.765935
Zn12	Zn	0.172150	-0.252303	1.099268
O13	O	-0.428492	-0.985044	0.357211
O14	O	-0.095158	-0.651711	0.690544
O15	O	0.238175	-0.318378	1.023878
O16	O	-0.398311	-1.134184	0.406129
O17	O	-0.064978	-0.800851	0.739463
O18	O	0.268355	-0.467518	1.072796
O19	O	-0.446907	-1.056757	0.150623
O20	O	-0.113573	-0.723424	0.483956
O21	O	0.219760	-0.390090	0.817290
O22	O	-0.263705	-0.940876	0.313285
O23	O	0.069629	-0.607542	0.646619
O24	O	0.402962	-0.274209	0.979952
O25	O	-0.469805	-1.152776	0.290368
O26	O	-0.136472	-0.819443	0.623701
O27	O	0.196861	-0.486109	0.957034
O28	O	-0.281055	-1.013628	0.419168
O29	O	0.052279	-0.680294	0.752501
O30	O	0.385612	-0.346961	1.085834
O31	O	-0.358063	-0.965413	0.160502
O32	O	-0.024729	-0.632080	0.493835
O33	O	0.308604	-0.298747	0.827169
O34	O	-0.372887	-0.831623	0.313247
O35	O	-0.039554	-0.498289	0.646580
O36	O	0.293780	-0.164956	0.979913
O37	O	-0.495861	-0.917614	0.558845
O38	O	-0.162528	-0.584280	0.892178
O39	O	0.170805	-0.250947	1.225511
O40	O	-0.472963	-0.821595	0.419100
O41	O	-0.139629	-0.488262	0.752433
O42	O	0.193704	-0.154928	1.085767
O43	O	-0.413136	-1.000393	0.558874
O44	O	-0.079802	-0.667060	0.892207
O45	O	0.253531	-0.333727	1.225541
O46	O	-0.578988	-1.043523	0.290329
O47	O	-0.245654	-0.710189	0.623662
O48	O	0.087679	-0.376856	0.956996
O49	O	-0.590220	-0.942151	0.406061
O50	O	-0.256886	-0.608818	0.739395
O51	O	0.076447	-0.275485	1.072728
C52	C	-0.422022	-0.800891	0.367629
C53	C	-0.088688	-0.467558	0.700962
C54	C	0.244645	-0.134224	1.034295
C55	C	-0.419273	-0.722107	0.372106
C56	C	-0.085940	-0.388774	0.705439
C57	C	0.247393	-0.055441	1.038772
C58	C	-0.455122	-0.694779	0.313857
C59	C	-0.121788	-0.361446	0.647190
C60	C	0.211545	-0.028112	0.980523
C61	C	-0.452541	-0.620752	0.318075
C62	C	-0.119208	-0.287419	0.651409
C63	C	0.214126	0.045915	0.984742
C64	C	-0.414108	-0.574055	0.380539
C65	C	-0.080775	-0.240722	0.713873
C66	C	0.252559	0.092612	1.047206
C67	C	-0.378259	-0.601388	0.438795
C68	C	-0.044925	-0.268054	0.772128
C69	C	0.288408	0.065279	1.105461
C70	C	-0.380844	-0.675413	0.434580
C71	C	-0.047510	-0.342080	0.767913
C72	C	0.285823	-0.008746	1.101246
C73	C	-0.404448	-0.350061	0.396289
C74	C	-0.071115	-0.016728	0.729623
C75	C	0.262218	0.316606	1.062956
C76	C	-0.401864	-0.276031	0.400498
C77	C	-0.068531	0.057302	0.733832
C78	C	0.264802	0.390635	1.067165
C79	C	-0.476148	-0.295401	0.279779
C80	C	-0.142815	0.037933	0.613113
C81	C	0.190519	0.371266	0.946446
C82	C	-0.478726	-0.369427	0.275566
C83	C	-0.145393	-0.036094	0.608900
C84	C	0.187941	0.297240	0.942233
C85	C	-0.442880	-0.396753	0.333825
C86	C	-0.109547	-0.063420	0.667158
C87	C	0.223787	0.269914	1.000491
C88	C	-0.411467	-0.498387	0.384851
C89	C	-0.078134	-0.165054	0.718185
C90	C	0.255199	0.168279	1.051518
C91	C	-0.445525	-0.472419	0.329517
C92	C	-0.112192	-0.139086	0.662850
C93	C	0.221142	0.194248	0.996183
C94	C	-0.609947	-0.994119	0.346750
C95	C	-0.276614	-0.660785	0.680084
C96	C	0.056719	-0.327452	1.013417
C97	C	-0.687581	-0.998062	0.342302
C98	C	-0.354248	-0.664728	0.675635
C99	C	-0.020914	-0.331395	1.008968
C100	C	-1.126365	-1.023028	0.314097
C101	C	-0.793032	-0.689695	0.647430
C102	C	-0.459698	-0.356362	0.980763
C103	C	-1.053420	-1.019317	0.318279
C104	C	-0.720087	-0.685984	0.651612
C105	C	-0.386753	-0.352650	0.984946
C106	C	-1.022816	-0.964657	0.380583
C107	C	-0.689483	-0.631323	0.713917
C108	C	-0.356150	-0.297990	1.047250
C109	C	-1.065161	-0.913700	0.438703
C110	C	-0.731828	-0.580367	0.772037
C111	C	-0.398494	-0.247033	1.105370
C112	C	-1.138104	-0.917409	0.434516
C113	C	-0.804771	-0.584075	0.767849
C114	C	-0.471437	-0.250742	1.101183
C115	C	-0.802869	-0.950814	0.396234
C116	C	-0.469535	-0.617480	0.729568
C117	C	-0.136202	-0.284147	1.062901
C118	C	-0.729920	-0.947110	0.400419
C119	C	-0.396587	-0.613777	0.733752
C120	C	-0.063254	-0.280443	1.067086
C121	C	-0.718184	-1.052727	0.279993
C122	C	-0.384851	-0.719393	0.613326
C123	C	-0.051517	-0.386060	0.946660
C124	C	-0.791130	-1.056433	0.275815
C125	C	-0.457796	-0.723100	0.609148
C126	C	-0.124463	-0.389767	0.942482
C127	C	-0.833467	-1.005474	0.333931
C128	C	-0.500134	-0.672141	0.667265
C129	C	-0.166801	-0.338808	1.000598
C130	C	-0.948255	-0.960863	0.384862
C131	C	-0.614922	-0.627530	0.718195
C132	C	-0.281589	-0.294196	1.051528
C133	C	-0.908026	-1.009266	0.329648
C134	C	-0.574693	-0.675932	0.662982
C135	C	-0.241360	-0.342599	0.996315
C136	C	-0.246331	-0.975952	0.367731
C137	C	0.087003	-0.642618	0.701064
C138	C	0.420336	-0.309285	1.034398
C139	C	-0.168704	-0.972077	0.372214
C140	C	0.164629	-0.638743	0.705547
C141	C	0.497962	-0.305410	1.038881
C142	C	-0.458838	-0.954658	0.592507
C143	C	-0.125505	-0.621325	0.925840
C144	C	0.207829	-0.287992	1.259173
C145	C	-0.471770	-0.941710	0.692775
C146	C	-0.138436	-0.608376	1.026109
C147	C	0.194897	-0.275043	1.359442
C148	C	-0.434976	-0.169918	0.346741
C149	C	-0.101643	0.163415	0.680074
C150	C	0.231690	0.496749	1.013408
C151	C	-0.437712	-0.248703	0.342249
C152	C	-0.104379	0.084630	0.675582
C153	C	0.228954	0.417964	1.008916
C154	C	-0.398214	-1.015350	0.122831
C155	C	-0.064881	-0.682017	0.456165
C156	C	0.268452	-0.348684	0.789498
C157	C	-0.385091	-1.028427	0.022566
C158	C	-0.051757	-0.695093	0.355900
C159	C	0.281576	-0.361760	0.689233
C160	C	-0.335944	-1.077611	0.975478
C161	C	-0.002611	-0.744278	1.308811
C162	C	0.330722	-0.410945	1.642144
C163	C	-0.323796	-1.089782	0.881270
C164	C	0.009538	-0.756448	1.214603
C165	C	0.342871	-0.423115	1.547936
C166	C	-0.360788	-1.052765	0.834141
C167	C	-0.027455	-0.719431	1.167475
C168	C	0.305879	-0.386098	1.500808
C169	C	-0.409931	-1.003575	0.881231
C170	C	-0.076598	-0.670242	1.214564
C171	C	0.256735	-0.336909	1.547897
C172	C	-0.422085	-0.991408	0.975447
C173	C	-0.088752	-0.658074	1.308781
C174	C	0.244581	-0.324741	1.642114
C175	C	-0.446929	-0.966561	0.834111
C176	C	-0.113596	-0.633228	1.167445
C177	C	0.219738	-0.299894	1.500778
C178	C	-0.496072	-0.917372	0.881200
C179	C	-0.162739	-0.584038	1.214534
C180	C	0.170594	-0.250705	1.547867
C181	C	-0.508224	-0.905206	0.975408
C182	C	-0.174890	-0.571873	1.308741
C183	C	0.158443	-0.238539	1.642075
C184	C	-0.471232	-0.942223	1.022536
C185	C	-0.137898	-0.608890	1.355869
C186	C	0.195435	-0.275556	1.689203
C187	C	-0.434775	-0.978729	0.739894
C188	C	-0.101442	-0.645395	1.073228
C189	C	0.231892	-0.312062	1.406561
C190	C	-0.520916	-0.892525	0.739864
C191	C	-0.187583	-0.559192	1.073197
C192	C	0.145751	-0.225858	1.406531
C193	C	-0.533065	-0.880355	0.834072
C194	C	-0.199731	-0.547021	1.167405
C195	C	0.133602	-0.213688	1.500739
H196	H	-0.351652	-0.697662	0.482012
H197	H	-0.018318	-0.364329	0.815345
H198	H	0.315015	-0.030995	1.148679
F199	F	-0.486430	-0.522118	0.263043
F200	F	-0.153097	-0.188785	0.596377
F201	F	0.180236	0.144549	0.929710
F202	F	-0.347856	-1.065718	0.733877
F203	F	-0.014522	-0.732384	1.067210
F204	F	0.318811	-0.399051	1.400543
F205	F	-0.360953	-0.226334	0.466980
F206	F	-0.027619	0.107000	0.800314
F207	F	0.305714	0.440333	1.133647
H208	H	-0.481732	-0.598505	0.270643
H209	H	-0.148399	-0.265172	0.603976
H210	H	0.184934	0.068161	0.937309
H211	H	-1.040239	-0.869191	0.489430
H212	H	-0.706906	-0.535858	0.822763
H213	H	-0.373572	-0.202524	1.156097
F214	F	-0.585366	-0.828006	0.884199
F215	F	-0.252033	-0.494672	1.217532
F216	F	0.081300	-0.161339	1.550865
H217	H	-0.394761	-1.018779	0.701564
H218	H	-0.061428	-0.685445	1.034897
H219	H	0.271906	-0.352112	1.368230
H220	H	-0.283785	-1.129834	0.842936
H221	H	0.049549	-0.796500	1.176270
H222	H	0.382882	-0.463167	1.509603
H223	H	-0.375261	-0.372300	0.443729
H224	H	-0.041927	-0.038967	0.777062
H225	H	0.291406	0.294366	1.110395
H226	H	-0.932946	-1.053768	0.278917
H227	H	-0.599613	-0.720435	0.612251
H228	H	-0.266280	-0.387101	0.945584
H229	H	-0.305835	-1.107749	1.013857
H230	H	0.027499	-0.774416	1.347191
H231	H	0.360832	-0.441083	1.680524
F232	F	-0.337361	-0.551687	0.505280
F233	F	-0.004027	-0.218353	0.838614
F234	F	0.329306	0.114980	1.171947
F235	F	-0.519612	-0.419123	0.209063
F236	F	-0.186279	-0.085789	0.542396
F237	F	0.147054	0.247544	0.875729
H238	H	-0.505333	-0.273143	0.232350
H239	H	-0.172000	0.060190	0.565684
H240	H	0.161334	0.393523	0.899017
F241	F	-0.370566	-0.448683	0.451330
F242	F	-0.037233	-0.115349	0.784663
F243	F	0.296101	0.217984	1.117996
F244	F	-1.158929	-1.081209	0.247787
F245	F	-0.825596	-0.747876	0.581121
F246	F	-0.492263	-0.414542	0.914454
H247	H	-0.816041	-1.100942	0.225078
H248	H	-0.482708	-0.767609	0.558412
H249	H	-0.149374	-0.434276	0.891745
F250	F	-1.008363	-1.073552	0.256429
F251	F	-0.675030	-0.740219	0.589763
F252	F	-0.341696	-0.406885	0.923096
F253	F	-0.673120	-1.106956	0.218144
F254	F	-0.339787	-0.773622	0.551477
F255	F	-0.006454	-0.440289	0.884810
H256	H	-0.705007	-0.902596	0.451158
H257	H	-0.371674	-0.569263	0.784492
H258	H	-0.038341	-0.235930	1.117825
F259	F	-0.847920	-0.896586	0.458099
F260	F	-0.514587	-0.563253	0.791432
F261	F	-0.181254	-0.229919	1.124766
H262	H	-1.172577	-0.875922	0.481846
H263	H	-0.839244	-0.542588	0.815179
H264	H	-0.505910	-0.209255	1.148513
H265	H	-0.923332	-0.916358	0.435593
H266	H	-0.589999	-0.583025	0.768926
H267	H	-0.256665	-0.249692	1.102259
H268	H	-0.551039	-0.862384	0.701493
H269	H	-0.217706	-0.529051	1.034826
H270	H	0.115627	-0.195717	1.368159
H271	H	-0.481121	-0.932317	1.099248
H272	H	-0.147787	-0.598983	1.432581
H273	H	0.185546	-0.265650	1.765915
H274	H	-0.486415	-0.732796	0.262988
H275	H	-0.153082	-0.399462	0.596322
H276	H	0.180252	-0.066129	0.929655
F277	F	-0.560537	-0.852865	1.025520
F278	F	-0.227204	-0.519531	1.358853
F279	F	0.106129	-0.186198	1.692187
