data_functionalizedCrystal
_audit_creation_method	'MofGen! by Chris Wilmer'
_symmetry_space_group_name_H-M	'P1'
_symmetry_Int_Tables_number	1
_symmetry_cell_setting	triclinic
loop_
_symmetry_equiv_pos_as_xyz
  x,y,z
_cell_length_a	10.654541
_cell_length_b	10.540539
_cell_length_c	9.616153
_cell_angle_alpha	90.002114
_cell_angle_beta	89.998033
_cell_angle_gamma	84.504710
loop_
_atom_site_label
_atom_site_type_symbol
_atom_site_fract_x
_atom_site_fract_y
_atom_site_fract_z
O1	O	1.667905	0.178278	-0.115596
O2	O	1.302432	0.195268	-0.115607
O3	O	1.493507	0.002063	-0.115600
O4	O	1.476831	0.371482	-0.115604
O5	O	1.493493	0.002074	0.115692
O6	O	1.302418	0.195279	0.115684
O7	O	1.667891	0.178289	0.115696
Zn8	Zn	1.485153	0.186786	0.152412
Zn9	Zn	1.485171	0.186771	-0.152324
O10	O	1.476817	0.371493	0.115688
C11	C	1.255627	0.194027	0.000037
C12	C	1.116182	0.190296	0.000032
C13	C	1.492249	-0.045234	0.000044
C14	C	1.488508	-0.186180	0.000036
C15	C	1.088292	0.421325	0.000012
C16	C	1.008838	0.535081	-0.000003
C17	C	0.877819	0.531569	-0.000004
C18	C	0.826252	0.414286	0.000014
C19	C	0.905707	0.300530	0.000030
C20	C	1.036727	0.304056	0.000027
C21	C	0.933596	0.069504	0.000059
C22	C	1.064615	0.073014	0.000051
C23	C	0.882029	-0.047778	0.000078
C24	C	0.961484	-0.161538	0.000083
C25	C	1.092511	-0.158020	0.000083
C26	C	1.144070	-0.040742	0.000066
C27	C	1.345136	-0.369555	-0.000488
C28	C	1.348929	-0.222938	0.000033
C29	C	1.555671	-0.247857	0.132117
C30	C	1.550907	-0.394399	0.132228
C31	C	1.553762	-0.394931	-0.130794
C32	C	1.555048	-0.247950	-0.132540
C33	C	1.714697	0.179530	0.000048
C34	C	1.854142	0.183260	0.000044
C35	C	1.478074	0.418790	0.000042
C36	C	1.481816	0.559737	0.000040
N37	N	1.485149	0.186795	0.360387
N38	N	1.485184	0.186752	-0.360299
C39	C	1.382892	0.290130	0.419424
C40	C	1.382544	0.289833	0.580592
C41	C	1.455909	0.053890	0.581172
C42	C	1.455153	0.054520	0.419954
C43	C	1.616990	0.215124	0.419776
C44	C	1.616155	0.218101	0.581005
H45	H	1.050838	0.630571	-0.000014
H46	H	0.919487	-0.257019	0.000097
O47	O	0.792107	0.654255	-0.000014
H48	H	0.810556	0.710310	-0.094295
O49	O	1.683871	-0.457990	0.140210
H50	H	1.694340	-0.517626	0.235393
O51	O	1.405767	0.421331	0.368123
H52	H	1.401298	0.423237	0.252815
H53	H	0.775346	-0.050630	0.000084
H54	H	1.400078	0.388540	0.620167
H55	H	1.290005	-0.398139	-0.095205
O56	O	1.689852	-0.215933	-0.143111
H57	H	1.711630	-0.155232	-0.053633
H58	H	1.654579	-0.442194	-0.131679
O59	O	1.654024	0.340855	0.365956
H60	H	1.578864	0.384560	0.296267
O61	O	1.551905	-0.050531	0.631913
H62	H	1.503456	-0.121374	0.692020
H63	H	1.250751	-0.037867	0.000050
O64	O	1.254035	0.266272	0.365810
H65	H	1.191418	0.249669	0.454899
H66	H	1.157196	-0.250655	0.000101
O67	O	1.329983	0.020389	0.634662
H68	H	1.288054	0.098151	0.702915
H69	H	1.290218	-0.399737	0.093696
O70	O	1.252998	0.265494	0.631665
H71	H	1.182620	0.341727	0.592840
H72	H	1.194974	0.424197	-0.000017
O73	O	1.691443	-0.218284	0.138650
H74	H	1.742092	-0.256743	0.044574
O75	O	0.684939	0.410489	0.000030
H76	H	0.638353	0.509294	0.000016
H77	H	1.638343	0.315858	0.619238
O78	O	1.278903	-0.166465	-0.125360
H79	H	1.242015	-0.243872	-0.186918
O80	O	1.549997	-0.050523	0.368211
H81	H	1.596005	-0.101702	0.458346
O82	O	1.327765	0.021804	0.370156
H83	H	1.267279	0.005689	0.461222
H84	H	1.695882	0.147833	0.621240
O85	O	1.717813	0.115340	0.369203
H86	H	1.721087	0.116942	0.253853
O87	O	1.278449	-0.167580	0.125668
H88	H	1.241530	-0.245549	0.186296
O89	O	1.485133	-0.431724	0.263001
H90	H	1.550160	-0.498394	0.324638
O91	O	1.493870	-0.191408	0.262321
H92	H	1.415329	-0.119446	0.233295
O93	O	1.493934	-0.436693	-0.263408
H94	H	1.412242	-0.490232	-0.237542
H95	H	1.505905	-0.207078	-0.230250
