data_functionalizedCrystal
_audit_creation_method	'MofGen! by Chris Wilmer'
_symmetry_space_group_name_H-M	'P1'
_symmetry_Int_Tables_number	1
_symmetry_cell_setting	triclinic
loop_
_symmetry_equiv_pos_as_xyz
  x,y,z
_cell_length_a	12.759394
_cell_length_b	21.395364
_cell_length_c	21.395355
_cell_angle_alpha	90.024727
_cell_angle_beta	90.014577
_cell_angle_gamma	90.013170
loop_
_atom_site_label
_atom_site_type_symbol
_atom_site_fract_x
_atom_site_fract_y
_atom_site_fract_z
Zn1	Zn	-0.418435	0.957928	0.354281
Zn2	Zn	-0.594100	0.957860	0.249511
Zn3	Zn	-0.418430	0.853143	0.249518
Zn4	Zn	-0.594067	0.853141	0.354251
O5	O	-0.506258	0.905518	0.301890
O6	O	-0.441753	1.045597	0.340393
O7	O	-0.570808	0.943941	0.161834
O8	O	-0.271410	0.867073	0.263431
O9	O	-0.570813	1.045547	0.263419
O10	O	-0.271413	0.944058	0.340400
O11	O	-0.441744	0.867006	0.161839
O12	O	-0.441713	0.765465	0.263401
O13	O	-0.570758	0.867069	0.441933
O14	O	-0.570753	0.765464	0.340348
O15	O	-0.441722	0.944056	0.441955
O16	O	-0.741116	0.943939	0.263390
O17	O	-0.741093	0.867003	0.340342
C18	C	-0.506230	0.742730	0.301872
C19	C	-0.506243	0.673089	0.301879
C20	C	-0.573572	0.171309	0.341918
C21	C	-0.573572	0.236744	0.341911
C22	C	-0.506281	0.269451	0.301910
C23	C	-0.439003	0.236717	0.261901
C24	C	-0.439012	0.171283	0.261905
C25	C	-0.411598	0.373124	0.297055
C26	C	-0.411587	0.438557	0.297056
C27	C	-0.506253	0.471272	0.301897
C28	C	-0.600933	0.438545	0.306749
C29	C	-0.600942	0.373111	0.306752
C30	C	-0.506264	0.340403	0.301902
C31	C	-0.573532	0.574950	0.341893
C32	C	-0.573534	0.640387	0.341882
C33	C	-0.438956	0.640358	0.261875
C34	C	-0.438963	0.574923	0.261883
C35	C	-0.506250	0.542223	0.301895
C36	C	-0.779225	0.905480	0.301875
C37	C	-0.896002	0.905522	0.301890
C38	C	-0.895973	0.985695	0.221820
C39	C	-0.950820	1.025799	0.181792
C40	C	-1.060541	1.025835	0.181809
C41	C	-1.115419	0.985766	0.221859
C42	C	-1.060573	0.945663	0.261887
C43	C	-0.950849	0.945629	0.261864
C44	C	-1.060601	0.865493	0.341959
C45	C	-0.950880	0.865452	0.341940
C46	C	-1.115479	0.825424	0.382010
C47	C	-1.060633	0.785316	0.422035
C48	C	-0.950904	0.785281	0.422016
C49	C	-0.896033	0.825349	0.381968
C50	C	-0.232225	0.905573	0.301919
C51	C	-0.115448	0.905596	0.301932
C52	C	-0.506237	0.905570	0.465314
C53	C	-0.506228	0.905592	0.534955
C54	C	-0.506287	1.068941	0.301909
C55	C	-0.506299	1.138583	0.301917
C56	C	-0.506203	0.905502	0.139103
C57	C	-0.505916	0.905602	0.069462
C58	C	-0.439036	0.945677	0.567681
C59	C	-0.438990	0.945676	0.633116
C60	C	-0.506156	0.905597	0.665823
C61	C	-0.573353	0.865504	0.633090
C62	C	-0.573389	0.865502	0.567656
C63	C	-0.600755	0.900637	0.769493
C64	C	-0.600721	0.900644	0.834926
C65	C	-0.506045	0.905601	0.867644
C66	C	-0.411400	0.910565	0.834922
C67	C	-0.411436	0.910562	0.769488
C68	C	-0.506124	0.905595	0.736776
C69	C	-0.438798	0.945687	0.971323
C70	C	-0.438751	0.945682	1.036759
C71	C	-0.573123	0.865513	1.036732
C72	C	-0.573161	0.865515	0.971296
C73	C	-0.506000	0.905605	0.938596
H74	H	-0.384178	0.548277	0.229311
H75	H	-0.384346	0.978321	0.541060
H76	H	-0.628323	0.667032	0.374454
H77	H	-1.105323	0.752698	0.454644
H78	H	-0.906254	0.752626	0.454614
H79	H	-0.384029	0.978323	1.063404
H80	H	-0.806632	0.985661	0.221794
H81	H	-0.678034	0.346468	0.310702
H82	H	-0.806692	0.825320	0.381944
H83	H	-0.906129	1.058424	0.149185
H84	H	-0.384269	0.978317	0.659767
H85	H	-1.105197	1.058494	0.149218
H86	H	-0.334373	0.914602	0.742847
H87	H	-0.628103	0.832857	0.541011
H88	H	-0.334306	0.914602	0.861560
H89	H	-1.204760	0.985805	0.221875
H90	H	-0.628354	0.263395	0.374487
H91	H	-0.384106	0.978328	0.944696
H92	H	-0.628322	0.548325	0.374472
H93	H	-0.384216	0.263351	0.229331
H94	H	-0.678019	0.465180	0.310695
H95	H	-0.627800	0.832873	1.063361
H96	H	-0.627882	0.832877	0.944651
H97	H	-0.384169	0.666988	0.229303
H98	H	-0.677786	0.896606	0.861564
H99	H	-1.204820	0.825459	0.382023
H100	H	-0.628366	0.144688	0.374497
H101	H	-0.677831	0.896432	0.742859
H102	H	-0.334493	0.465198	0.293112
H103	H	-0.384228	0.144637	0.229331
H104	H	-0.334506	0.346493	0.293103
H105	H	-0.628036	0.832869	0.659724
