data_functionalizedCrystal
_audit_creation_method	'MofGen! by Chris Wilmer'
_symmetry_space_group_name_H-M	'P1'
_symmetry_Int_Tables_number	1
_symmetry_cell_setting	triclinic
loop_
_symmetry_equiv_pos_as_xyz
  x,y,z
_cell_length_a	16.625546
_cell_length_b	14.908571
_cell_length_c	14.908694
_cell_angle_alpha	96.407528
_cell_angle_beta	93.266239
_cell_angle_gamma	93.281505
loop_
_atom_site_label
_atom_site_type_symbol
_atom_site_fract_x
_atom_site_fract_y
_atom_site_fract_z
Zn1	Zn	-0.424492	-1.413322	-0.591483
Zn2	Zn	0.075508	-0.913322	-0.091483
Zn3	Zn	-0.551076	-1.404485	-0.440111
Zn4	Zn	-0.051076	-0.904485	0.059889
Zn5	Zn	-0.408000	-1.253225	-0.431419
Zn6	Zn	0.092000	-0.753225	0.068581
Zn7	Zn	-0.551013	-1.261916	-0.582709
Zn8	Zn	-0.051013	-0.761916	-0.082709
O9	O	-0.483645	-1.333237	-0.511431
O10	O	0.016355	-0.833237	-0.011431
O11	O	-0.448211	-1.538816	-0.578713
O12	O	0.051789	-1.038816	-0.078713
O13	O	-0.525221	-1.377084	-0.312293
O14	O	-0.025221	-0.877084	0.187707
O15	O	-0.297360	-1.274523	-0.452687
O16	O	0.202640	-0.774523	0.047313
O17	O	-0.541212	-1.532323	-0.467500
O18	O	-0.041212	-1.032323	0.032500
O19	O	-0.309477	-1.392146	-0.570285
O20	O	0.190523	-0.892146	-0.070285
O21	O	-0.420103	-1.265954	-0.305907
O22	O	0.079897	-0.765954	0.194093
O23	O	-0.420043	-1.127711	-0.444179
O24	O	0.079957	-0.627711	0.055821
O25	O	-0.541106	-1.289337	-0.710538
O26	O	-0.041106	-0.789337	-0.210538
O27	O	-0.525114	-1.134097	-0.555331
O28	O	-0.025114	-0.634097	-0.055331
O29	O	-0.448151	-1.400574	-0.716984
O30	O	0.051849	-0.900574	-0.216984
O31	O	-0.663895	-1.385511	-0.458992
O32	O	-0.163895	-0.885511	0.041008
O33	O	-0.663849	-1.280767	-0.563759
O34	O	-0.163849	-0.780767	-0.063759
C35	C	-0.693129	-1.333149	-0.511388
C36	C	-0.193129	-0.833149	-0.011388
C37	C	-0.782754	-1.333196	-0.511404
C38	C	-0.282754	-0.833196	-0.011404
C39	C	-0.470782	-1.098061	-0.497860
C40	C	0.029218	-0.598061	0.002140
C41	C	-0.465300	-0.997453	-0.492076
C42	C	0.034700	-0.497453	0.007924
C43	C	-0.496461	-1.346910	-0.747522
C44	C	0.003539	-0.846910	-0.247522
C45	C	-0.501922	-1.352737	-0.848131
C46	C	-0.001922	-0.852737	-0.348131
C47	C	-1.110943	-1.333359	-0.511508
C48	C	-0.610943	-0.833359	-0.011508
C49	C	-1.019631	-1.333311	-0.511481
C50	C	-0.519631	-0.833311	-0.011481
C51	C	-0.946851	-1.333277	-0.511456
C52	C	-0.446851	-0.833277	-0.011456
C53	C	-0.855533	-1.333230	-0.511430
C54	C	-0.355533	-0.833230	-0.011430
C55	C	-0.273345	-1.333351	-0.511495
C56	C	0.226655	-0.833351	-0.011495
C57	C	-0.183728	-1.333399	-0.511522
C58	C	0.316272	-0.833399	-0.011522
C59	C	-0.496558	-1.569331	-0.525055
C60	C	0.003442	-1.069331	-0.025055
C61	C	-0.502061	-1.669941	-0.530860
C62	C	-0.002061	-1.169941	-0.030860
C63	C	-0.564561	-0.815088	-0.596794
C64	C	-0.064561	-0.315088	-0.096794
C65	C	-0.559413	-0.720558	-0.591363
C66	C	-0.059413	-0.220558	-0.091363
C67	C	-0.449852	-0.713861	-0.475787
C68	C	0.050148	-0.213861	0.024213
C69	C	-0.455001	-0.808391	-0.481218
C70	C	0.044999	-0.308391	0.018782
C71	C	-0.512358	-0.859001	-0.541723
C72	C	-0.012358	-0.359001	-0.041723
C73	C	-0.517509	-0.953533	-0.547149
C74	C	-0.017509	-0.453533	-0.047149
C75	C	-0.407945	-0.946834	-0.431579
C76	C	0.092055	-0.446834	0.068421
C77	C	-0.402797	-0.852304	-0.426147
C78	C	0.097203	-0.352304	0.073853
C79	C	-0.402727	-1.247946	-1.030535
C80	C	0.097273	-0.747946	-0.530535
C81	C	-0.407855	-1.253418	-1.125066
C82	C	0.092145	-0.753418	-0.625066
C83	C	-0.517311	-1.369147	-1.131723
C84	C	-0.017311	-0.869147	-0.631723
C85	C	-0.512183	-1.363676	-1.037193
C86	C	-0.012183	-0.863676	-0.537193
C87	C	-0.454888	-1.303074	-0.986602
C88	C	0.045112	-0.803074	-0.486602
C89	C	-0.449756	-1.297607	-0.892070
C90	C	0.050244	-0.797607	-0.392070
C91	C	-0.559215	-1.413332	-0.898729
C92	C	-0.059215	-0.913332	-0.398729
C93	C	-0.564343	-1.418803	-0.993259
C94	C	-0.064343	-0.918803	-0.493259
C95	C	-0.470824	-1.319669	-0.276260
C96	C	0.029176	-0.819669	0.223740
C97	C	-0.465145	-1.314017	-0.175663
C98	C	0.034855	-0.814017	0.324337
H99	H	-0.564214	-0.994738	-0.596414
H100	H	-0.064214	-0.494738	-0.096414
H101	H	-0.611268	-0.856295	-0.646055
H102	H	-0.111268	-0.356295	-0.146055
H103	H	-0.601686	-1.458224	-0.862949
H104	H	-0.101686	-0.958224	-0.362949
Cl105	Cl	-0.625042	-0.665355	-0.660600
Cl106	Cl	-0.125042	-0.165355	-0.160600
H107	H	-0.365381	-1.208527	-1.160832
H108	H	0.134619	-0.708527	-0.660832
Cl109	Cl	-0.589343	-1.445312	-1.195337
Cl110	Cl	-0.089343	-0.945312	-0.695337
Cl111	Cl	-0.377741	-0.650222	-0.399744
Cl112	Cl	0.122259	-0.150222	0.100256
H113	H	-0.356097	-0.811085	-0.376888
H114	H	0.143903	-0.311085	0.123112
Cl115	Cl	-0.636370	-1.494981	-1.056867
Cl116	Cl	-0.136370	-0.994981	-0.556867
H117	H	-0.365439	-0.982598	-0.386734
H118	H	0.134561	-0.482598	0.113266
H119	H	-0.356068	-1.198610	-0.989344
H120	H	0.143932	-0.698610	-0.489344
Cl121	Cl	-0.377727	-1.221425	-0.828472
Cl122	Cl	0.122273	-0.721425	-0.328472
