data_functionalizedCrystal
_audit_creation_method	'MofGen! by Chris Wilmer'
_symmetry_space_group_name_H-M	'P1'
_symmetry_Int_Tables_number	1
_symmetry_cell_setting	triclinic
loop_
_symmetry_equiv_pos_as_xyz
  x,y,z
_cell_length_a	10.654551
_cell_length_b	10.654549
_cell_length_c	9.130313
_cell_angle_alpha	89.999722
_cell_angle_beta	90.003708
_cell_angle_gamma	84.485103
loop_
_atom_site_label
_atom_site_type_symbol
_atom_site_fract_x
_atom_site_fract_y
_atom_site_fract_z
O1	O	0.176399	1.667835	0.121759
O2	O	0.193205	1.302357	0.121769
O3	O	0.002063	1.493498	0.121761
O4	O	0.367541	1.476694	0.121768
O5	O	0.002053	1.493496	-0.121838
O6	O	0.193195	1.302354	-0.121830
O7	O	0.176389	1.667833	-0.121839
Cu8	Cu	0.184791	1.485093	-0.144077
Cu9	Cu	0.184803	1.485096	0.144007
O10	O	0.367531	1.476691	-0.121831
C11	C	0.191966	1.255557	-0.000029
C12	C	0.188275	1.116114	-0.000025
C13	C	0.297338	0.905600	-0.000029
C14	C	0.300816	1.036621	-0.000020
C15	C	0.072247	1.064581	-0.000024
C16	C	0.068770	0.933563	-0.000022
C17	C	0.442869	1.198880	0.085328
C18	C	0.558893	1.250408	0.085306
C19	C	0.658663	1.195542	-0.000051
C20	C	0.642412	1.089149	-0.085422
C21	C	0.526386	1.037627	-0.085414
C22	C	0.426621	1.092491	-0.000022
C23	C	-0.073274	0.771301	-0.085383
C24	C	-0.189302	0.719777	-0.085384
C25	C	-0.289083	0.774642	-0.000036
C26	C	-0.272844	0.881040	0.085313
C27	C	-0.156816	0.932564	0.085315
C28	C	-0.057036	0.877690	-0.000031
C29	C	-0.044740	1.492263	-0.000036
C30	C	-0.184183	1.488570	-0.000029
C31	C	-0.249682	1.486839	0.132758
C32	C	-0.380702	1.483359	0.132759
C33	C	-0.380715	1.483347	-0.132826
C34	C	-0.249696	1.486818	-0.132825
C35	C	-0.550768	1.405169	0.292296
C36	C	-0.616273	1.403459	0.425090
C37	C	-0.582728	1.478053	0.542327
C38	C	-0.483683	1.554388	0.526775
C39	C	-0.418186	1.556109	0.393978
C40	C	-0.451725	1.481486	0.276747
C41	C	-0.079629	1.565018	-0.292352
C42	C	-0.014131	1.566749	-0.425150
C43	C	-0.047674	1.492162	-0.542400
C44	C	-0.146725	1.415846	-0.526862
C45	C	-0.212224	1.414116	-0.394064
C46	C	-0.178671	1.488700	-0.276814
C47	C	0.414334	1.477927	-0.000031
C48	C	0.553777	1.481619	-0.000028
C49	C	0.177628	1.714632	-0.000038
C50	C	0.181319	1.854075	-0.000032
N51	N	0.184802	1.485099	0.346629
N52	N	0.184782	1.485100	-0.346700
C53	C	0.100331	1.569896	0.423278
C54	C	0.100323	1.569900	0.576615
C55	C	0.269262	1.400300	0.576641
C56	C	0.269275	1.400303	0.423307
C57	C	0.002792	1.667809	0.423264
C58	C	0.002784	1.667813	0.576600
H59	H	-0.354094	0.925716	0.154808
Br60	Br	-0.446559	0.704729	-0.000061
H61	H	0.033532	1.758933	0.624164
Br62	Br	-0.158209	1.632383	0.645946
Br63	Br	0.307480	1.273323	0.201222
H64	H	-0.174014	1.355083	-0.622322
Br65	Br	-0.283779	1.659698	0.372861
Br66	Br	-0.596279	1.303898	0.133200
H67	H	-0.202527	0.633158	-0.154914
H68	H	0.005659	1.493587	-0.650535
Br69	Br	0.383902	1.285227	0.680711
Br70	Br	-0.149338	1.617219	0.343948
Br71	Br	0.038948	1.828573	0.353906
Br72	Br	0.062147	0.696829	-0.201217
H73	H	0.388983	0.840884	-0.000036
H74	H	0.753133	1.237506	-0.000068
H75	H	0.513151	0.951011	-0.154931
Br76	Br	0.777816	1.014707	-0.201294
Br77	Br	0.120283	1.670341	-0.446247
Br78	Br	-0.438181	1.655649	0.685884
H79	H	-0.019386	1.129316	-0.000019
Br80	Br	-0.134779	1.076970	0.201141
Br81	Br	0.580947	1.394793	0.201162
H82	H	-0.196345	1.488261	0.240889
H83	H	-0.052297	1.625746	-0.196877
Br84	Br	-0.750685	1.299865	0.446196
Br85	Br	-0.671648	1.475752	0.722535
H86	H	-0.434071	1.481923	-0.240943
H87	H	-0.292875	1.351967	-0.381419
H88	H	0.338069	1.331266	0.360901
