data_functionalizedCrystal
_audit_creation_method	'MofGen! by Chris Wilmer'
_symmetry_space_group_name_H-M	'P1'
_symmetry_Int_Tables_number	1
_symmetry_cell_setting	triclinic
loop_
_symmetry_equiv_pos_as_xyz
  x,y,z
_cell_length_a	12.759401
_cell_length_b	16.959453
_cell_length_c	12.759393
_cell_angle_alpha	89.966668
_cell_angle_beta	89.980804
_cell_angle_gamma	90.020414
loop_
_atom_site_label
_atom_site_type_symbol
_atom_site_fract_x
_atom_site_fract_y
_atom_site_fract_z
Zn1	Zn	1.606223	-0.314639	-0.593959
Zn2	Zn	1.606099	-0.446837	-0.418269
Zn3	Zn	1.430523	-0.314677	-0.418298
Zn4	Zn	1.430497	-0.446781	-0.593910
O5	O	1.518336	-0.380734	-0.506109
O6	O	1.753227	-0.332183	-0.570662
O7	O	1.582768	-0.429345	-0.271252
O8	O	1.453892	-0.204061	-0.441633
O9	O	1.753137	-0.429308	-0.441583
O10	O	1.582978	-0.204033	-0.570691
O11	O	1.453773	-0.332248	-0.271273
O12	O	1.283499	-0.332193	-0.441585
O13	O	1.453848	-0.429212	-0.740938
O14	O	1.283480	-0.429249	-0.570606
O15	O	1.582953	-0.332129	-0.740974
O16	O	1.582743	-0.557440	-0.441535
O17	O	1.453729	-0.557399	-0.570578
C18	C	1.245368	-0.380720	-0.506094
C19	C	1.128592	-0.380733	-0.506113
C20	C	1.073777	-0.330252	-0.573428
C21	C	0.964053	-0.330260	-0.573435
C22	C	0.963967	-0.431238	-0.438809
C23	C	1.073689	-0.431225	-0.438797
C24	C	1.518248	-0.586100	-0.506071
C25	C	1.518307	-0.673956	-0.506089
C26	C	1.585637	-1.045359	-0.573436
C27	C	1.451328	-1.045505	-0.438938
C28	C	1.451289	-0.962959	-0.438914
C29	C	1.518424	-0.921609	-0.506153
C30	C	1.585597	-0.962805	-0.573416
C31	C	1.384109	-0.921757	-0.371660
C32	C	1.384066	-0.839206	-0.371634
C33	C	1.451207	-0.797855	-0.438868
C34	C	1.518385	-0.839056	-0.506133
C35	C	1.585519	-0.797706	-0.573372
C36	C	1.652703	-0.838906	-0.640633
C37	C	1.652738	-0.921454	-0.640651
C38	C	1.451172	-0.715306	-0.438850
C39	C	1.585480	-0.715152	-0.573353
C40	C	1.792369	-0.380748	-0.506125
C41	C	1.909145	-0.380754	-0.506131
C42	C	1.518412	-0.380660	-0.780143
C43	C	1.518444	-0.380629	-0.896919
C44	C	1.518452	-0.174565	-0.506171
C45	C	1.518502	-0.086709	-0.506197
C46	C	1.585640	-0.431128	-1.061506
C47	C	1.585614	-0.431166	-0.951781
C48	C	1.451288	-0.330057	-0.951787
C49	C	1.451309	-0.330024	-1.061509
C50	C	1.518320	-0.380750	-0.233142
C51	C	1.518491	-0.380559	-0.116366
H52	H	0.919252	-0.472347	-0.384004
N53	N	1.378876	-0.275477	-1.120682
H54	H	1.421600	-0.238838	-1.166226
H55	H	1.330195	-0.307645	-1.166127
H56	H	1.118320	-0.472334	-0.383976
N57	N	1.378713	-0.670869	-0.366323
H58	H	1.336185	-0.709590	-0.323735
H59	H	1.421485	-0.636625	-0.317726
H60	H	1.640154	-0.681490	-0.628103
N61	N	1.378848	-0.275543	-0.892617
H62	H	1.336311	-0.243503	-0.944023
H63	H	1.330199	-0.307726	-0.847074
H64	H	1.640294	-0.472345	-0.907119
H65	H	1.118476	-0.289135	-0.628237
H66	H	1.707360	-0.805229	-0.695384
N67	N	0.904931	-0.275803	-0.646027
H68	H	0.956365	-0.243814	-0.688662
H69	H	0.859411	-0.308020	-0.694576
H70	H	1.707435	-0.955006	-0.695412
H71	H	1.640339	-1.078907	-0.628195
N72	N	1.311617	-0.794778	-0.299079
H73	H	1.354330	-0.760537	-0.250422
H74	H	1.262903	-0.760571	-0.341791
N75	N	1.378925	-1.090099	-0.366416
H76	H	1.389144	-1.148645	-0.376634
H77	H	1.395322	-1.075703	-0.291396
H78	H	1.329449	-0.955430	-0.316920
N79	N	1.658094	-0.485632	-1.120675
H80	H	1.700626	-0.517675	-1.069267
H81	H	1.615315	-0.522195	-1.166185
