data_functionalizedCrystal
_audit_creation_method	'MofGen! by Chris Wilmer'
_symmetry_space_group_name_H-M	'P1'
_symmetry_Int_Tables_number	1
_symmetry_cell_setting	triclinic
loop_
_symmetry_equiv_pos_as_xyz
  x,y,z
_cell_length_a	17.699077
_cell_length_b	17.038272
_cell_length_c	16.776229
_cell_angle_alpha	89.993292
_cell_angle_beta	89.993415
_cell_angle_gamma	87.196066
loop_
_atom_site_label
_atom_site_type_symbol
_atom_site_fract_x
_atom_site_fract_y
_atom_site_fract_z
O1	O	1.010621	0.098839	-0.066278
O2	O	1.343955	0.432172	0.267055
O3	O	1.677288	0.765505	0.600388
O4	O	0.791094	0.111705	-0.066282
O5	O	1.124427	0.445039	0.267051
O6	O	1.457760	0.778372	0.600384
O7	O	0.899553	-0.008541	-0.066274
O8	O	1.232886	0.324792	0.267059
O9	O	1.566220	0.658125	0.600393
O10	O	0.902162	0.219085	-0.066287
O11	O	1.235496	0.552419	0.267047
O12	O	1.568829	0.885752	0.600380
O13	O	0.899537	-0.008549	0.066302
O14	O	1.232870	0.324785	0.399636
O15	O	1.566204	0.658118	0.732969
O16	O	0.791078	0.111698	0.066294
O17	O	1.124411	0.445031	0.399627
O18	O	1.457745	0.778365	0.732961
O19	O	1.010606	0.098831	0.066298
O20	O	1.343939	0.432165	0.399631
O21	O	1.677272	0.765498	0.732965
Zn22	Zn	0.900839	0.105263	0.087345
Zn23	Zn	1.234173	0.438597	0.420679
Zn24	Zn	1.567506	0.771930	0.754012
Zn25	Zn	0.900860	0.105273	-0.087330
Zn26	Zn	1.234193	0.438606	0.246004
Zn27	Zn	1.567527	0.771940	0.579337
O28	O	0.902146	0.219078	0.066290
O29	O	1.235480	0.552411	0.399623
O30	O	1.568813	0.885745	0.732956
C31	C	0.762858	0.111241	0.000005
C32	C	1.096192	0.444575	0.333339
C33	C	1.429525	0.777908	0.666672
C34	C	0.678749	0.109861	0.000004
C35	C	1.012082	0.443194	0.333337
C36	C	1.345415	0.776527	0.666671
C37	C	0.639230	0.109206	0.072272
C38	C	0.972563	0.442539	0.405606
C39	C	1.305896	0.775873	0.738939
C40	C	0.560200	0.107896	0.072273
C41	C	0.893534	0.441230	0.405607
C42	C	1.226867	0.774563	0.738940
C43	C	0.520691	0.107247	0.000005
C44	C	0.854025	0.440580	0.333338
C45	C	1.187358	0.773913	0.666672
C46	C	0.560216	0.107899	-0.072269
C47	C	0.893549	0.441232	0.261064
C48	C	1.226883	0.774566	0.594398
C49	C	0.639244	0.109203	-0.072269
C50	C	0.972578	0.442537	0.261064
C51	C	1.305911	0.775870	0.594398
C52	C	0.241505	0.102638	-0.072270
C53	C	0.574838	0.435971	0.261063
C54	C	0.908171	0.769305	0.594396
C55	C	0.162471	0.101336	-0.072265
C56	C	0.495804	0.434669	0.261069
C57	C	0.829138	0.768003	0.594402
C58	C	0.162461	0.101331	0.072272
C59	C	0.495794	0.434664	0.405605
C60	C	0.829127	0.767998	0.738939
C61	C	0.241489	0.102635	0.072272
C62	C	0.574822	0.435969	0.405605
C63	C	0.908156	0.769302	0.738939
C64	C	0.281007	0.103283	-0.000001
C65	C	0.614340	0.436617	0.333332
C66	C	0.947674	0.769950	0.666665
C67	C	0.366700	0.104702	-0.000002
C68	C	0.700033	0.438036	0.333332
C69	C	1.033366	0.771369	0.666665
C70	C	0.435000	0.105833	0.000004
C71	C	0.768333	0.439167	0.333338
C72	C	1.101667	0.772500	0.666671
C73	C	0.897172	-0.037669	0.000014
C74	C	1.230505	0.295664	0.333347
C75	C	1.563838	0.628997	0.666681
C76	C	0.890091	-0.124450	0.000014
C77	C	1.223424	0.208883	0.333347
C78	C	1.556757	0.542216	0.666680
C79	C	0.955101	-0.174672	0.000016
C80	C	1.288435	0.158661	0.333349
C81	C	1.621768	0.491995	0.666682
C82	C	0.948444	-0.256212	0.000008
C83	C	1.281777	0.077122	0.333341
C84	C	1.615110	0.410455	0.666675
C85	C	0.876775	-0.287528	0.000004
C86	C	1.210108	0.045805	0.333337
C87	C	1.543441	0.379139	0.666671
C88	C	0.811759	-0.237300	-0.000000
C89	C	1.145093	0.096033	0.333333
C90	C	1.478426	0.429367	0.666666
C91	C	0.818418	-0.155762	0.000001
C92	C	1.151751	0.177571	0.333335
C93	C	1.485084	0.510905	0.666668
C94	C	0.853252	-0.533247	-0.000007
C95	C	1.186585	-0.199914	0.333326
C96	C	1.519918	0.133420	0.666659
C97	C	0.846598	-0.614791	-0.000007
C98	C	1.179931	-0.281458	0.333326
C99	C	1.513265	0.051875	0.666660
C100	C	0.983283	-0.633697	-0.000000
C101	C	1.316616	-0.300364	0.333333
C102	C	1.649950	0.032969	0.666667
C103	C	0.989935	-0.552157	0.000007
C104	C	1.323269	-0.218824	0.333340
C105	C	1.656602	0.114510	0.666673
C106	C	0.924920	-0.501936	-0.000002
C107	C	1.258253	-0.168603	0.333331
C108	C	1.591586	0.164730	0.666665
C109	C	0.869968	-0.370874	-0.000001
C110	C	1.203301	-0.037541	0.333332
C111	C	1.536634	0.295792	0.666665
C112	C	0.931727	-0.418591	-0.000002
C113	C	1.265061	-0.085258	0.333331
C114	C	1.598394	0.248075	0.666664
C115	C	1.038841	0.099295	0.000009
C116	C	1.372174	0.432628	0.333342
C117	C	1.705508	0.765962	0.666675
C118	C	1.122951	0.100676	0.000005
C119	C	1.456284	0.434009	0.333338
C120	C	1.789617	0.767343	0.666671
C121	C	0.904528	0.248206	-0.000000
C122	C	1.237861	0.581539	0.333333
C123	C	1.571194	0.914873	0.666667
C124	C	0.911609	0.334987	-0.000005
C125	C	1.244942	0.668320	0.333328
C126	C	1.578275	1.001654	0.666662
N127	N	0.900830	0.105256	0.206557
N128	N	1.234164	0.438590	0.539890
N129	N	1.567497	0.771923	0.873223
N130	N	0.900875	0.105274	-0.206541
N131	N	1.234208	0.438607	0.126792
N132	N	1.567541	0.771941	0.460126
C133	C	0.948873	0.052033	0.248277
C134	C	1.282207	0.385366	0.581611
C135	C	1.615540	0.718700	0.914944
C136	C	0.948877	0.052032	0.331730
C137	C	1.282211	0.385366	0.665063
C138	C	1.615544	0.718699	0.998396
C139	C	0.900842	0.105259	0.373460
C140	C	1.234175	0.438593	0.706793
C141	C	1.567509	0.771926	1.040126
C142	C	0.852794	0.158485	0.331733
C143	C	1.186127	0.491819	0.665066
C144	C	1.519461	0.825152	0.998400
C145	C	0.852786	0.158482	0.248282
C146	C	1.186120	0.491815	0.581616
C147	C	1.519453	0.825148	0.914949
C148	C	0.852822	0.158501	0.668280
C149	C	1.186156	0.491834	1.001613
C150	C	1.519489	0.825167	1.334947
C151	C	0.852835	0.158502	0.751737
C152	C	1.186168	0.491835	1.085070
C153	C	1.519502	0.825169	1.418403
C154	C	0.948913	0.052051	0.751727
C155	C	1.282247	0.385385	1.085061
C156	C	1.615580	0.718718	1.418394
C157	C	0.948906	0.052048	0.668277
C158	C	1.282239	0.385381	1.001610
C159	C	1.615572	0.718714	1.334943
C160	C	0.900855	0.105270	0.626558
C161	C	1.234188	0.438604	0.959891
C162	C	1.567522	0.771937	1.293224
C163	C	0.900850	0.105270	0.536069
C164	C	1.234183	0.438603	0.869402
C165	C	1.567517	0.771936	1.202736
C166	C	0.900850	0.105265	0.463946
C167	C	1.234184	0.438598	0.797280
C168	C	1.567517	0.771931	1.130613
H169	H	0.528028	0.107350	0.131121
H170	H	0.861362	0.440683	0.464455
H171	H	1.194695	0.774017	0.797788
F172	F	0.801666	0.215131	0.376146
F173	F	1.135000	0.548464	0.709479
F174	F	1.468333	0.881798	1.042812
H175	H	0.800311	-0.492367	-0.000014
H176	H	1.133645	-0.159033	0.333319
H177	H	1.466978	0.174300	0.666652
H178	H	0.671420	0.109738	-0.131117
H179	H	1.004753	0.443071	0.202216
H180	H	1.338086	0.776404	0.535549
H181	H	0.753405	-0.262804	-0.000009
H182	H	1.086738	0.070529	0.333325
H183	H	1.420072	0.403862	0.666658
H184	H	0.813699	0.201838	0.634319
H185	H	1.147033	0.535171	0.967652
H186	H	1.480366	0.868505	1.300985
H187	H	0.273653	0.103168	0.131120
H188	H	0.606986	0.436502	0.464454
H189	H	0.940320	0.769835	0.797787
H190	H	0.811614	-0.396381	-0.000003
H191	H	1.144948	-0.063048	0.333330
H192	H	1.478281	0.270285	0.666664
H193	H	0.130276	0.100800	0.131121
H194	H	0.463609	0.434133	0.464454
H195	H	0.796943	0.767466	0.797787
H196	H	0.528042	0.107365	-0.131111
H197	H	0.861375	0.440698	0.202222
H198	H	1.194709	0.774031	0.535556
F199	F	0.120424	0.100644	-0.149186
F200	F	0.453757	0.433977	0.184147
F201	F	0.787091	0.767310	0.517480
H202	H	0.988036	0.008712	0.785704
H203	H	1.321370	0.342045	1.119038
H204	H	1.654703	0.675378	1.452371
F205	F	0.801706	0.215156	0.796147
F206	F	1.135039	0.548489	1.129481
F207	F	1.468373	0.881822	1.462814
F208	F	1.031382	-0.141351	0.000028
F209	F	1.364715	0.191983	0.333361
F210	F	1.698048	0.525316	0.666694
F211	F	0.801650	0.215127	0.203881
F212	F	1.134984	0.548461	0.537214
F213	F	1.468317	0.881794	0.870548
F214	F	0.283553	0.103329	-0.149190
F215	F	0.616886	0.436662	0.184143
F216	F	0.950219	0.769995	0.517477
H217	H	0.765479	-0.114872	-0.000000
H218	H	1.098812	0.218462	0.333333
H219	H	1.432146	0.551795	0.666666
F220	F	1.017637	-0.309658	0.000012
F221	F	1.350971	0.023675	0.333345
F222	F	1.684304	0.357009	0.666678
H223	H	1.048295	-0.526666	0.000010
H224	H	1.381629	-0.193332	0.333343
H225	H	1.714962	0.140001	0.666677
H226	H	1.036215	-0.674595	0.000005
H227	H	1.369548	-0.341262	0.333339
H228	H	1.702881	-0.007929	0.666672
H229	H	0.990080	-0.393090	-0.000017
H230	H	1.323413	-0.059757	0.333317
H231	H	1.656747	0.273577	0.666650
H232	H	0.987992	0.008693	0.214306
H233	H	1.321326	0.342026	0.547640
H234	H	1.654659	0.675359	0.880973
F235	F	0.770315	-0.648118	-0.000007
F236	F	1.103648	-0.314785	0.333326
F237	F	1.436982	0.018549	0.666659
H238	H	0.987997	0.008693	0.365698
H239	H	1.321330	0.342027	0.699032
H240	H	1.654663	0.675360	1.032365
F241	F	1.000034	-0.004601	0.623868
F242	F	1.333367	0.328733	0.957201
F243	F	1.666700	0.662066	1.290535
H244	H	0.671392	0.109742	0.131122
H245	H	1.004725	0.443075	0.464455
H246	H	1.338058	0.776408	0.797788
