data_functionalizedCrystal
_audit_creation_method	'MofGen! by Chris Wilmer'
_symmetry_space_group_name_H-M	'P1'
_symmetry_Int_Tables_number	1
_symmetry_cell_setting	triclinic
loop_
_symmetry_equiv_pos_as_xyz
  x,y,z
_cell_length_a	8.597366
_cell_length_b	8.559649
_cell_length_c	7.681481
_cell_angle_alpha	94.930900
_cell_angle_beta	103.474720
_cell_angle_gamma	102.375364
loop_
_atom_site_label
_atom_site_type_symbol
_atom_site_fract_x
_atom_site_fract_y
_atom_site_fract_z
O1	O	2.072794	-0.220957	0.168055
O2	O	1.605617	-0.246420	0.097175
O3	O	1.880364	-0.001084	0.138862
O4	O	1.798047	-0.466294	0.126369
O5	O	1.914189	0.029181	0.436851
O6	O	1.639443	-0.216155	0.395165
O7	O	2.106619	-0.190692	0.466045
Zn8	Zn	1.878401	-0.198618	0.477917
Zn9	Zn	1.833835	-0.238494	0.085303
O10	O	1.831872	-0.436028	0.424359
C11	C	1.563275	-0.230240	0.237179
C12	C	1.386716	-0.227099	0.210391
C13	C	1.903515	0.073578	0.288800
C14	C	1.922083	0.250959	0.291607
C15	C	2.148961	-0.206873	0.326037
C16	C	2.325519	-0.210015	0.352813
N17	N	1.908828	-0.171403	0.745868
C18	C	1.808721	-0.510691	0.274416
C19	C	1.790152	-0.688073	0.271597
N20	N	1.803422	-0.265696	-0.182646
H21	H	1.408209	-0.197792	0.495260
H22	H	1.662994	0.228423	0.252311
H23	H	1.304037	-0.239310	0.067954
N24	N	1.668453	-0.386456	0.702555
N25	N	1.695232	-0.496131	0.603705
H26	H	1.599909	-0.581423	0.522618
N27	N	2.043814	-0.050667	0.860707
N28	N	2.062676	-0.033806	1.028156
H29	H	2.158004	0.051467	1.109263
N30	N	2.081609	0.355737	0.315841
N31	N	2.096983	0.504520	0.318198
H32	H	2.209646	0.578523	0.335316
