data_functionalizedCrystal
_audit_creation_method	'MofGen! by Chris Wilmer'
_symmetry_space_group_name_H-M	'P1'
_symmetry_Int_Tables_number	1
_symmetry_cell_setting	triclinic
loop_
_symmetry_equiv_pos_as_xyz
  x,y,z
_cell_length_a	12.759395
_cell_length_b	12.759393
_cell_length_c	17.077396
_cell_angle_alpha	89.977404
_cell_angle_beta	90.017728
_cell_angle_gamma	89.984412
loop_
_atom_site_label
_atom_site_type_symbol
_atom_site_fract_x
_atom_site_fract_y
_atom_site_fract_z
Zn1	Zn	1.606234	0.418245	0.443838
Zn2	Zn	1.606134	0.593946	0.312585
Zn3	Zn	1.430542	0.418284	0.312590
Zn4	Zn	1.430524	0.593885	0.443813
O5	O	1.518358	0.506090	0.378206
O6	O	1.753241	0.441562	0.426435
O7	O	1.582807	0.570685	0.202739
O8	O	1.453897	0.271257	0.330012
O9	O	1.753168	0.570648	0.330005
O10	O	1.582977	0.271229	0.426440
O11	O	1.453800	0.441627	0.202742
O12	O	1.283518	0.441568	0.329988
O13	O	1.453866	0.570545	0.553663
O14	O	1.283505	0.570582	0.426397
O15	O	1.582959	0.441503	0.553681
O16	O	1.582790	0.740959	0.329981
O17	O	1.453769	0.740914	0.426393
C18	C	1.245391	0.506073	0.378191
C19	C	1.128614	0.506092	0.378203
C20	C	1.518295	0.779057	0.378201
C21	C	1.518364	0.895834	0.378224
C22	C	0.909255	0.371914	0.478805
C23	C	0.964160	0.304803	0.529083
C24	C	1.073881	0.304785	0.529069
C25	C	1.128701	0.371888	0.478774
C26	C	1.073797	0.438999	0.428495
C27	C	0.964073	0.439007	0.428513
C28	C	1.073710	0.573203	0.327925
C29	C	0.963988	0.573217	0.327933
C30	C	1.128530	0.640305	0.277629
C31	C	1.073625	0.707413	0.227345
C32	C	0.963897	0.707427	0.227360
C33	C	0.909084	0.640328	0.277655
C34	C	1.652814	0.895827	0.277905
C35	C	1.720066	0.950685	0.227758
C36	C	1.720128	1.060406	0.227784
C37	C	1.652932	1.115273	0.277966
C38	C	1.585680	1.060416	0.328113
C39	C	1.585623	0.950691	0.328080
C40	C	1.451237	1.060422	0.428435
C41	C	1.451169	0.950701	0.428406
C42	C	1.384042	1.115289	0.478616
C43	C	1.316783	1.060432	0.528761
C44	C	1.316723	0.950704	0.528732
C45	C	1.383917	0.895844	0.478553
C46	C	1.792392	0.506107	0.378222
C47	C	1.909168	0.506115	0.378229
C48	C	1.518422	0.506013	0.582951
C49	C	1.518449	0.505980	0.670201
C50	C	1.518450	1.232057	0.378241
C51	C	1.518489	1.115280	0.378288
C52	C	1.518355	0.506091	0.174259
C53	C	1.518532	0.505828	0.087009
C54	C	1.585670	0.438782	0.711202
C55	C	1.585683	0.438747	0.793182
C56	C	1.518479	0.505916	0.834160
C57	C	1.451250	0.573116	0.793153
C58	C	1.451233	0.573145	0.711174
C59	C	1.451292	0.573053	0.964024
C60	C	1.451311	0.573026	1.046008
C61	C	1.585742	0.438655	1.046031
C62	C	1.585725	0.438684	0.964052
C63	C	1.518498	0.505886	0.923051
H64	H	0.819914	0.371899	0.478804
H65	H	0.919513	0.250172	0.570035
H66	H	1.652997	1.204614	0.277990
F67	F	1.245148	0.892329	0.582111
H68	H	1.384101	1.204630	0.478638
H69	H	1.640424	0.384030	0.826561
F70	F	1.245283	1.118830	0.582167
F71	F	1.657257	0.367201	0.920442
H72	H	1.218042	0.371877	0.478774
F73	F	1.132316	0.233363	0.582584
H74	H	1.118268	0.762047	0.186402
F75	F	0.905472	0.778865	0.173851
F76	F	1.379776	0.644506	1.089619
F77	F	1.791709	1.118791	0.174416
F78	F	1.379738	0.644576	0.920389
F79	F	1.245305	0.640290	0.277620
H80	H	0.819743	0.640320	0.277662
H81	H	1.383868	0.806502	0.478519
F82	F	1.657205	0.367296	0.667597
F83	F	1.657292	0.367133	1.089668
H84	H	1.396527	0.627803	0.826524
H85	H	1.652757	0.806486	0.277869
F86	F	1.791581	0.892285	0.174357
H87	H	1.396484	0.627854	0.677792
