data_functionalizedCrystal
_audit_creation_method	'MofGen! by Chris Wilmer'
_symmetry_space_group_name_H-M	'P1'
_symmetry_Int_Tables_number	1
_symmetry_cell_setting	triclinic
loop_
_symmetry_equiv_pos_as_xyz
  x,y,z
_cell_length_a	14.519709
_cell_length_b	14.519731
_cell_length_c	13.330367
_cell_angle_alpha	89.994378
_cell_angle_beta	89.998062
_cell_angle_gamma	83.684499
loop_
_atom_site_label
_atom_site_type_symbol
_atom_site_fract_x
_atom_site_fract_y
_atom_site_fract_z
O1	O	1.223881	0.120889	-0.083295
O2	O	1.557214	0.454223	0.250038
O3	O	1.890548	0.787556	0.583372
O4	O	0.955405	0.135126	-0.083326
O5	O	1.288738	0.468459	0.250007
O6	O	1.622072	0.801792	0.583341
O7	O	1.096751	-0.006230	-0.083301
O8	O	1.430084	0.327104	0.250033
O9	O	1.763418	0.660437	0.583366
O10	O	1.082535	0.262245	-0.083321
O11	O	1.415868	0.595578	0.250013
O12	O	1.749202	0.928911	0.583346
O13	O	1.096730	-0.006233	0.083546
O14	O	1.430064	0.327101	0.416880
O15	O	1.763397	0.660434	0.750213
O16	O	0.955385	0.135123	0.083521
O17	O	1.288718	0.468456	0.416854
O18	O	1.622051	0.801789	0.750188
O19	O	1.223860	0.120886	0.083552
O20	O	1.557194	0.454220	0.416885
O21	O	1.890527	0.787553	0.750219
Cu22	Cu	1.089621	0.128004	0.098771
Cu23	Cu	1.422954	0.461337	0.432104
Cu24	Cu	1.756287	0.794671	0.765438
Cu25	Cu	1.089645	0.128008	-0.098545
Cu26	Cu	1.422978	0.461341	0.234788
Cu27	Cu	1.756312	0.794675	0.568122
O28	O	1.082514	0.262242	0.083527
O29	O	1.415848	0.595575	0.416860
O30	O	1.749181	0.928908	0.750193
C31	C	0.921035	0.134461	0.000094
C32	C	1.254368	0.467794	0.333427
C33	C	1.587702	0.801127	0.666760
C34	C	0.818654	0.132473	0.000082
C35	C	1.151987	0.465806	0.333415
C36	C	1.485320	0.799139	0.666749
C37	C	1.096075	-0.040591	0.000123
C38	C	1.429408	0.292743	0.333456
C39	C	1.762741	0.626076	0.666790
C40	C	1.094079	-0.142971	0.000123
C41	C	1.427412	0.190363	0.333457
C42	C	1.760745	0.523696	0.666790
C43	C	0.443757	0.125153	0.000128
C44	C	0.777091	0.458486	0.333462
C45	C	1.110424	0.791820	0.666795
C46	C	0.548065	0.127186	0.000115
C47	C	0.881399	0.460519	0.333448
C48	C	1.214732	0.793852	0.666782
C49	C	0.631202	0.128813	0.000104
C50	C	0.964535	0.462146	0.333438
C51	C	1.297869	0.795479	0.666771
C52	C	0.735517	0.130846	0.000093
C53	C	1.068850	0.464179	0.333426
C54	C	1.402183	0.797512	0.666760
C55	C	1.092457	-0.226115	0.000121
C56	C	1.425790	0.107218	0.333454
C57	C	1.759123	0.440552	0.666788
C58	C	1.090430	-0.330424	0.000113
C59	C	1.423763	0.002910	0.333446
C60	C	1.757097	0.336243	0.666780
C61	C	1.088822	-0.413563	0.000106
C62	C	1.422155	-0.080229	0.333440
C63	C	1.755488	0.253104	0.666773
C64	C	1.086795	-0.517878	0.000100
C65	C	1.420129	-0.184545	0.333434
C66	C	1.753462	0.148789	0.666767
C67	C	1.258230	0.121551	0.000130
C68	C	1.591564	0.454885	0.333463
C69	C	1.924897	0.788218	0.666797
C70	C	1.360612	0.123539	0.000135
C71	C	1.693945	0.456873	0.333468
C72	C	2.027279	0.790206	0.666802
C73	C	1.083191	0.296603	0.000101
C74	C	1.416524	0.629936	0.333434
C75	C	1.749858	0.963269	0.666767
C76	C	1.085187	0.398983	0.000094
C77	C	1.418520	0.732316	0.333427
C78	C	1.751854	1.065649	0.666760
N79	N	1.089610	0.128001	0.237552
N80	N	1.422944	0.461334	0.570886
N81	N	1.756277	0.794668	0.904219
N82	N	1.089662	0.128004	-0.237327
N83	N	1.422996	0.461337	0.096007
N84	N	1.756329	0.794670	0.429340
C85	C	1.027054	0.190575	0.710164
C86	C	1.360387	0.523909	1.043497
C87	C	1.693721	0.857242	1.376831
C88	C	1.152260	0.065433	0.710155
C89	C	1.485594	0.398767	1.043488
C90	C	1.818927	0.732100	1.376821
C91	C	1.152250	0.065430	0.605136
C92	C	1.485583	0.398764	0.938470
C93	C	1.818917	0.732097	1.271803
C94	C	1.089642	0.128002	0.552627
C95	C	1.422975	0.461335	0.885960
C96	C	1.756308	0.794669	1.219294
C97	C	1.027044	0.190576	0.605136
C98	C	1.360377	0.523910	0.938469
C99	C	1.693710	0.857243	1.271803
C100	C	1.214853	0.002863	0.552619
C101	C	1.548186	0.336197	0.885953
C102	C	1.881520	0.669530	1.219286
C103	C	1.214846	0.002859	0.447595
C104	C	1.548179	0.336192	0.780928
C105	C	1.881513	0.669525	1.114261
C106	C	1.152232	0.065427	0.395083
C107	C	1.485566	0.398760	0.728417
C108	C	1.818899	0.732093	1.061750
C109	C	1.089631	0.128003	0.447599
C110	C	1.422964	0.461336	0.780932
C111	C	1.756298	0.794670	1.114266
C112	C	1.027023	0.190574	0.395090
C113	C	1.360356	0.523908	0.728423
C114	C	1.693689	0.857241	1.061756
C115	C	0.964416	0.253147	0.447603
C116	C	1.297750	0.586480	0.780937
C117	C	1.631083	0.919814	1.114270
C118	C	0.964430	0.253144	0.552625
C119	C	1.297763	0.586478	0.885958
C120	C	1.631097	0.919811	1.219292
C121	C	1.152219	0.065429	0.290062
C122	C	1.485552	0.398763	0.623395
C123	C	1.818885	0.732096	0.956728
C124	C	1.027012	0.190575	0.290062
C125	C	1.360346	0.523909	0.623395
C126	C	1.693679	0.857242	0.956728
H127	H	0.976025	0.241526	0.247315
H128	H	1.309359	0.574859	0.580648
H129	H	1.642692	0.908192	0.913981
H130	H	0.913459	0.304089	0.595388
H131	H	1.246792	0.637423	0.928721
H132	H	1.580126	0.970756	1.262055
C133	C	1.221075	-0.003388	0.232296
C134	C	1.554409	0.329945	0.565630
C135	C	1.887742	0.663279	0.898963
H136	H	1.212106	0.005576	0.162229
H137	H	1.545439	0.338909	0.495562
H138	H	1.878773	0.672243	0.828895
H139	H	1.210967	-0.064962	0.249518
H140	H	1.544301	0.268372	0.582852
H141	H	1.877634	0.601705	0.916185
H142	H	1.282642	0.006778	0.249495
H143	H	1.615975	0.340111	0.582829
H144	H	1.949308	0.673445	0.916162
H145	H	0.976078	0.241519	0.752923
H146	H	1.309412	0.574852	1.086257
H147	H	1.642745	0.908185	1.419590
H148	H	1.203239	0.014494	0.752911
H149	H	1.536572	0.347827	1.086244
H150	H	1.869906	0.681160	1.419578
H151	H	1.265832	-0.048076	0.595376
H152	H	1.599165	0.285257	0.928709
H153	H	1.932498	0.618590	1.262042
H154	H	0.913444	0.304097	0.404838
H155	H	1.246777	0.637431	0.738171
H156	H	1.580111	0.970764	1.071505
C157	C	1.283700	-0.065975	0.389839
C158	C	1.617034	0.267359	0.723172
C159	C	1.950367	0.600692	1.056505
H160	H	1.320983	-0.103244	0.436154
H161	H	1.654317	0.230090	0.769487
H162	H	1.987650	0.563423	1.102821
H163	H	1.322140	-0.032720	0.348853
H164	H	1.655473	0.300613	0.682186
H165	H	1.988806	0.633946	1.015520
H166	H	1.250448	-0.104443	0.348887
H167	H	1.583781	0.228890	0.682220
H168	H	1.917115	0.562224	1.015553
