data_functionalizedCrystal
_audit_creation_method	'MofGen! by Chris Wilmer'
_symmetry_space_group_name_H-M	'P1'
_symmetry_Int_Tables_number	1
_symmetry_cell_setting	triclinic
loop_
_symmetry_equiv_pos_as_xyz
  x,y,z
_cell_length_a	14.853567
_cell_length_b	10.908937
_cell_length_c	13.930277
_cell_angle_alpha	89.997434
_cell_angle_beta	89.995623
_cell_angle_gamma	71.860443
loop_
_atom_site_label
_atom_site_type_symbol
_atom_site_fract_x
_atom_site_fract_y
_atom_site_fract_z
O1	O	1.171095	0.167603	-0.079763
O2	O	0.905624	0.187569	-0.079780
O3	O	1.073550	-0.009282	-0.079766
O4	O	1.003170	0.364453	-0.079777
O5	O	1.073529	-0.009278	0.079896
O6	O	0.905604	0.187573	0.079882
O7	O	1.171074	0.167606	0.079899
Zn8	Zn	1.038336	0.177590	0.105240
Zn9	Zn	1.038363	0.177585	-0.105121
O10	O	1.003149	0.364457	0.079885
C11	C	1.080116	-0.057109	0.000064
C12	C	1.099704	-0.199626	0.000061
C13	C	0.872162	0.186666	0.000049
C14	C	0.772487	0.183955	0.000043
C15	C	1.048467	-0.396059	0.000055
C16	C	1.028221	-0.248761	0.000056
C17	C	0.379314	0.055561	0.000068
C18	C	0.322767	0.289425	0.000061
C19	C	0.416417	0.291974	0.000058
C20	C	0.491520	0.176315	0.000058
C21	C	0.472973	0.058107	0.000062
C22	C	0.434971	0.410179	0.000044
C23	C	0.528625	0.412733	0.000040
C24	C	0.603730	0.297073	0.000047
C25	C	0.585179	0.178860	0.000052
C26	C	0.660282	0.063202	0.000053
C27	C	0.641733	-0.055012	0.000065
C28	C	0.548078	-0.057553	0.000070
C29	C	0.697384	0.299614	0.000042
C30	C	0.753941	0.065747	0.000047
C31	C	1.204537	0.168509	0.000068
C32	C	1.304212	0.171220	0.000067
C33	C	0.996582	0.412285	0.000053
C34	C	0.976995	0.554801	0.000049
N35	N	1.038324	0.177593	0.248806
N36	N	1.038384	0.177572	-0.248687
C37	C	0.995346	0.099588	0.299068
C38	C	1.081313	0.255591	0.299050
C39	C	1.081325	0.255590	0.399545
C40	C	1.038347	0.177586	0.449807
C41	C	0.995359	0.099582	0.399573
C42	C	1.124321	0.333583	0.449787
C43	C	1.124335	0.333584	0.550289
C44	C	1.081351	0.255585	0.600552
C45	C	1.038360	0.177579	0.550312
C46	C	0.995383	0.099575	0.600574
C47	C	0.952385	0.021575	0.550336
C48	C	0.952375	0.021583	0.449837
C49	C	1.081361	0.255577	0.701051
C50	C	0.995395	0.099568	0.701079
H51	H	1.124647	-0.463038	0.000064
H52	H	0.917398	-0.041942	0.591272
Br53	Br	1.182683	0.439442	0.618460
Br54	Br	1.226686	-0.311242	0.000074
Br55	Br	0.894028	-0.084265	0.381651
Br56	Br	0.553791	0.573162	0.000024
Br57	Br	0.901240	-0.137141	0.000061
H58	H	0.702894	-0.149181	0.000059
Br59	Br	0.522897	-0.217972	0.000082
H60	H	0.900815	-0.378220	0.000052
H61	H	0.364207	-0.040686	0.000082
Br62	Br	0.936987	-0.006254	0.230893
H63	H	0.815087	-0.028438	0.000051
H64	H	1.116373	0.319078	0.741951
Br65	Br	0.220844	0.446382	0.000042
Br66	Br	0.937056	-0.006289	0.769284
H67	H	0.373817	0.504342	0.000034
Br68	Br	0.722558	0.460033	0.000015
H69	H	1.116310	0.319091	0.258120
H70	H	1.159318	0.397081	0.408856
