data_functionalizedCrystal
_audit_creation_method	'MofGen! by Chris Wilmer'
_symmetry_space_group_name_H-M	'P1'
_symmetry_Int_Tables_number	1
_symmetry_cell_setting	triclinic
loop_
_symmetry_equiv_pos_as_xyz
  x,y,z
_cell_length_a	14.044220
_cell_length_b	14.044220
_cell_length_c	13.101039
_cell_angle_alpha	86.326400
_cell_angle_beta	86.328313
_cell_angle_gamma	86.811122
loop_
_atom_site_label
_atom_site_type_symbol
_atom_site_fract_x
_atom_site_fract_y
_atom_site_fract_z
O1	O	1.272352	-0.234979	0.085111
O2	O	1.605685	0.098355	0.418444
O3	O	1.939019	0.431688	0.751777
O4	O	0.995679	-0.226675	0.085137
O5	O	1.329012	0.106659	0.418470
O6	O	1.662346	0.439992	0.751803
O7	O	1.129863	-0.092490	0.085114
O8	O	1.463196	0.240843	0.418447
O9	O	1.796530	0.574176	0.751781
O10	O	1.138168	-0.369163	0.085133
O11	O	1.471501	-0.035830	0.418467
O12	O	1.804834	0.297504	0.751800
O13	O	1.139494	-0.082850	-0.085318
O14	O	1.472827	0.250483	0.248016
O15	O	1.806161	0.583816	0.581349
O16	O	1.005310	-0.217035	-0.085295
O17	O	1.338643	0.116299	0.248038
O18	O	1.671977	0.449632	0.581372
O19	O	1.281983	-0.225339	-0.085321
O20	O	1.615316	0.107995	0.248013
O21	O	1.948650	0.441328	0.581346
Zn22	Zn	1.145176	-0.219656	-0.112367
Zn23	Zn	1.478509	0.113677	0.220966
Zn24	Zn	1.811842	0.447011	0.554299
Zn25	Zn	1.132486	-0.232357	0.112183
Zn26	Zn	1.465820	0.100976	0.445517
Zn27	Zn	1.799153	0.434309	0.778850
O28	O	1.147799	-0.359523	-0.085298
O29	O	1.481132	-0.026190	0.248035
O30	O	1.814465	0.307144	0.581369
C31	C	0.964872	-0.218219	-0.000076
C32	C	1.298206	0.115114	0.333257
C33	C	1.631539	0.448448	0.666591
C34	C	0.858729	-0.207375	-0.000066
C35	C	1.192062	0.125958	0.333267
C36	C	1.525396	0.459292	0.666600
C37	C	1.131043	-0.052049	-0.000102
C38	C	1.464376	0.281285	0.333231
C39	C	1.797710	0.614618	0.666565
C40	C	1.120198	0.054094	-0.000102
C41	C	1.453532	0.387428	0.333231
C42	C	1.786865	0.720761	0.666565
N43	N	1.123826	-0.241019	0.265433
N44	N	1.457160	0.092315	0.598767
N45	N	1.790493	0.425648	0.932100
C46	C	0.664393	-0.187548	-0.000088
C47	C	0.997726	0.145786	0.333245
C48	C	1.331059	0.479119	0.666579
C49	C	0.613263	-0.264462	-0.000087
C50	C	0.946596	0.068871	0.333246
C51	C	1.279929	0.402205	0.666580
C52	C	0.505127	-0.253430	-0.000099
C53	C	0.838461	0.079904	0.333234
C54	C	1.171794	0.413237	0.666568
C55	C	0.772538	-0.198578	-0.000076
C56	C	1.105871	0.134755	0.333257
C57	C	1.439205	0.468088	0.666591
C58	C	1.312789	-0.233794	-0.000106
C59	C	1.646123	0.099539	0.333227
C60	C	1.979456	0.432872	0.666561
C61	C	1.418932	-0.244639	-0.000109
C62	C	1.752266	0.088695	0.333225
C63	C	2.085599	0.422028	0.666558
C64	C	1.146619	-0.399965	-0.000080
C65	C	1.479952	-0.066632	0.333253
C66	C	1.813285	0.266702	0.666587
C67	C	1.157463	-0.506108	-0.000073
C68	C	1.490796	-0.172775	0.333260
C69	C	1.824130	0.160559	0.666594
C70	C	1.100371	0.248431	-0.000086
C71	C	1.433705	0.581764	0.333248
C72	C	1.767038	0.915098	0.666581
C73	C	1.177286	0.299561	-0.000090
C74	C	1.510619	0.632894	0.333244
C75	C	1.843952	0.966228	0.666577
C76	C	1.166254	0.407697	-0.000080
C77	C	1.499587	0.741030	0.333253
C78	C	1.832920	1.074363	0.666586
C79	C	1.111402	0.140285	-0.000095
C80	C	1.444735	0.473619	0.333239
C81	C	1.778069	0.806952	0.666572
N82	N	1.153843	-0.210988	-0.265617
N83	N	1.487176	0.122346	0.067716
N84	N	1.820509	0.455679	0.401049
C85	C	1.112035	-0.252802	0.474478
C86	C	1.445368	0.080531	0.807811
C87	C	1.778702	0.413865	1.141145
C88	C	1.165631	-0.199207	0.525345
C89	C	1.498964	0.134126	0.858678
C90	C	1.832297	0.467459	1.192011
C91	C	1.159070	-0.205764	0.641664
C92	C	1.492403	0.127570	0.974997
C93	C	1.825737	0.460903	1.308331
C94	C	1.118595	-0.246247	0.358148
C95	C	1.451928	0.087087	0.691481
C96	C	1.785261	0.420420	1.024814
H97	H	0.626956	-0.113419	-0.000099
H98	H	0.960290	0.219914	0.333234
H99	H	1.293623	0.553247	0.666568
H100	H	1.061226	-0.303606	0.518284
H101	H	1.394559	0.029728	0.851617
H102	H	1.727893	0.363061	1.184950
H103	H	0.650701	-0.338596	-0.000077
H104	H	0.984035	-0.005263	0.333256
H105	H	1.317368	0.328071	0.666590
H106	H	1.251416	0.262118	-0.000028
H107	H	1.584749	0.595452	0.333306
H108	H	1.918082	0.928785	0.666639
H109	H	1.026243	0.285867	-0.000076
H110	H	1.359577	0.619201	0.333257
H111	H	1.692910	0.952534	0.666590
C112	C	1.233284	-0.131474	0.466752
C113	C	1.566618	0.201859	0.800085
C114	C	1.899951	0.535193	1.133418
C115	C	1.226398	-0.138323	0.361356
C116	C	1.559732	0.195011	0.694689
C117	C	1.893065	0.528344	1.028023
C118	C	1.288690	-0.075932	0.307345
C119	C	1.622024	0.257402	0.640678
C120	C	1.955357	0.590735	0.974011
H121	H	1.296955	-0.148144	0.484141
H122	H	1.630289	0.185189	0.817475
H123	H	1.963622	0.518523	1.150808
H124	H	1.216525	-0.067826	0.484207
H125	H	1.549859	0.265507	0.817540
H126	H	1.883192	0.598840	1.150874
H127	H	1.243163	-0.201956	0.343908
H128	H	1.576497	0.131377	0.677241
H129	H	1.909830	0.464710	1.010574
H130	H	1.162742	-0.121644	0.343936
H131	H	1.496075	0.211689	0.677269
H132	H	1.829408	0.545022	1.010602
H133	H	1.271931	-0.012284	0.324800
H134	H	1.605265	0.321049	0.658133
H135	H	1.938598	0.654383	0.991467
H136	H	1.352357	-0.092607	0.324743
H137	H	1.685690	0.240726	0.658076
H138	H	2.019024	0.574059	0.991409
H139	H	1.284020	-0.080564	0.235828
H140	H	1.617354	0.252770	0.569162
H141	H	1.950687	0.586103	0.902495
