data_functionalizedCrystal
_audit_creation_method	'MofGen! by Chris Wilmer'
_symmetry_space_group_name_H-M	'P1'
_symmetry_Int_Tables_number	1
_symmetry_cell_setting	triclinic
loop_
_symmetry_equiv_pos_as_xyz
  x,y,z
_cell_length_a	11.792241
_cell_length_b	10.268362
_cell_length_c	11.792241
_cell_angle_alpha	90.005910
_cell_angle_beta	95.806584
_cell_angle_gamma	90.004128
loop_
_atom_site_label
_atom_site_type_symbol
_atom_site_fract_x
_atom_site_fract_y
_atom_site_fract_z
O1	O	-1.506902	0.108155	0.155570
O2	O	-1.176561	0.108189	0.171603
O3	O	-1.349748	0.108162	-0.001584
O4	O	-1.333715	0.108182	0.328757
O5	O	-1.349746	-0.108438	-0.001594
O6	O	-1.176559	-0.108411	0.171593
O7	O	-1.506900	-0.108446	0.155560
Cu8	Cu	-1.341729	-0.128206	0.163576
Cu9	Cu	-1.341732	0.127949	0.163588
O10	O	-1.333713	-0.108419	0.328747
C11	C	-1.134269	-0.000106	0.170591
C12	C	-1.008255	-0.000093	0.167576
N13	N	-1.341736	-0.308372	0.163566
C14	C	-0.777543	-0.000128	0.162034
C15	C	-0.905928	-0.000109	0.165113
C16	C	-1.348740	-0.000138	-0.043880
C17	C	-1.345726	-0.000136	-0.169894
C18	C	-0.549192	-0.000144	0.156572
C19	C	-0.675206	-0.000139	0.159587
N20	N	-1.341734	0.308115	0.163588
C21	C	-1.341731	0.573786	0.163581
C22	C	-1.341730	0.425948	0.163588
C23	C	-1.340183	-0.000114	-0.400606
C24	C	-1.343262	-0.000126	-0.272221
C25	C	-1.334721	-0.000116	0.371043
C26	C	-1.337736	-0.000109	0.497057
