data_functionalizedCrystal
_audit_creation_method	'MofGen! by Chris Wilmer'
_symmetry_space_group_name_H-M	'P1'
_symmetry_Int_Tables_number	1
_symmetry_cell_setting	triclinic
loop_
_symmetry_equiv_pos_as_xyz
  x,y,z
_cell_length_a	19.188933
_cell_length_b	17.699083
_cell_length_c	16.176319
_cell_angle_alpha	89.999648
_cell_angle_beta	89.993996
_cell_angle_gamma	83.214292
loop_
_atom_site_label
_atom_site_type_symbol
_atom_site_fract_x
_atom_site_fract_y
_atom_site_fract_z
O1	O	0.926253	0.094500	-0.068707
O2	O	1.259586	0.427834	0.264626
O3	O	1.592919	0.761167	0.597959
O4	O	0.722956	0.107219	-0.068714
O5	O	1.056289	0.440552	0.264620
O6	O	1.389622	0.773886	0.597953
O7	O	0.830348	-0.009337	-0.068718
O8	O	1.163681	0.323996	0.264615
O9	O	1.497014	0.657330	0.597948
O10	O	0.818860	0.211056	-0.068702
O11	O	1.152194	0.544390	0.264631
O12	O	1.485527	0.877723	0.597964
O13	O	0.830333	-0.009344	0.068775
O14	O	1.163666	0.323989	0.402108
O15	O	1.497000	0.657322	0.735441
O16	O	0.722941	0.107212	0.068780
O17	O	1.056274	0.440545	0.402113
O18	O	1.389608	0.773878	0.735446
O19	O	0.926238	0.094493	0.068786
O20	O	1.259571	0.427826	0.402119
O21	O	1.592904	0.761160	0.735452
Cu22	Cu	0.824588	0.100852	0.081337
Cu23	Cu	1.157921	0.434185	0.414670
Cu24	Cu	1.491255	0.767518	0.748004
Cu25	Cu	0.824605	0.100860	-0.081265
Cu26	Cu	1.157939	0.434194	0.252069
Cu27	Cu	1.491272	0.767527	0.585402
O28	O	0.818846	0.211049	0.068791
O29	O	1.152179	0.544382	0.402124
O30	O	1.485512	0.877716	0.735457
C31	C	0.696937	0.106803	0.000032
C32	C	1.030270	0.440136	0.333365
C33	C	1.363604	0.773470	0.666699
C34	C	0.619431	0.105566	0.000029
C35	C	0.952764	0.438899	0.333362
C36	C	1.286098	0.772233	0.666696
C37	C	0.066174	0.096740	-0.074910
C38	C	0.399507	0.430074	0.258423
C39	C	0.732840	0.763407	0.591757
C40	C	0.138999	0.097898	-0.074913
C41	C	0.472333	0.431232	0.258420
C42	C	0.805666	0.764565	0.591753
C43	C	0.175409	0.098477	0.000034
C44	C	0.508742	0.431810	0.333367
C45	C	0.842076	0.765143	0.666701
C46	C	0.138989	0.097878	0.074990
C47	C	0.472323	0.431211	0.408323
C48	C	0.805656	0.764544	0.741657
C49	C	0.066166	0.096712	0.074991
C50	C	0.399499	0.430046	0.408324
C51	C	0.732833	0.763379	0.741658
N52	N	0.284473	0.143372	0.055824
N53	N	0.617807	0.476706	0.389157
N54	N	0.951140	0.810039	0.722491
N55	N	0.353652	0.144481	0.055818
N56	N	0.686985	0.477814	0.389151
N57	N	1.020319	0.811148	0.722485
C58	C	0.394822	0.101987	0.000036
C59	C	0.728155	0.435320	0.333369
C60	C	1.061488	0.768653	0.666702
N61	N	0.364198	0.058351	-0.055753
N62	N	0.697531	0.391685	0.277580
N63	N	1.030864	0.725018	0.610914
N64	N	0.295012	0.057246	-0.055749
N65	N	0.628345	0.390579	0.277584
N66	N	0.961679	0.723912	0.610917
C67	C	0.254374	0.099740	0.000041
C68	C	0.587707	0.433073	0.333375
C69	C	0.921040	0.766407	0.666708
C70	C	0.510199	0.103836	-0.074919
C71	C	0.843532	0.437169	0.258414
C72	C	1.176866	0.770502	0.591748
C73	C	0.583026	0.104989	-0.074919
C74	C	0.916360	0.438322	0.258414
C75	C	1.249693	0.771656	0.591748
C76	C	0.583014	0.104976	0.074987
C77	C	0.916347	0.438309	0.408320
C78	C	1.249681	0.771643	0.741653
C79	C	0.510189	0.103815	0.074984
C80	C	0.843522	0.437148	0.408318
C81	C	1.176855	0.770482	0.741651
C82	C	0.473785	0.103249	0.000029
C83	C	0.807119	0.436582	0.333363
C84	C	1.140452	0.769915	0.666696
C85	C	0.829929	-0.037537	0.000024
C86	C	1.163262	0.295796	0.333358
C87	C	1.496595	0.629129	0.666691
C88	C	0.828694	-0.121554	0.000013
C89	C	1.162027	0.211780	0.333346
C90	C	1.495361	0.545113	0.666680
C91	C	0.952257	0.094909	0.000038
C92	C	1.285590	0.428242	0.333372
C93	C	1.618923	0.761575	0.666705
C94	C	1.029762	0.096146	0.000036
C95	C	1.363096	0.429479	0.333369
C96	C	1.696429	0.762813	0.666703
N97	N	0.824581	0.100845	0.195702
N98	N	1.157914	0.434178	0.529036
N99	N	1.491248	0.767512	0.862369
C100	C	0.819265	0.239249	0.000046
C101	C	1.152598	0.572582	0.333379
C102	C	1.485931	0.905916	0.666713
C103	C	0.820500	0.323266	0.000052
C104	C	1.153833	0.656599	0.333386
C105	C	1.487166	0.989932	0.666719
C106	C	0.757463	0.371969	0.000050
C107	C	1.090796	0.705302	0.333384
C108	C	1.424129	1.038636	0.666717
C109	C	0.758627	0.450911	0.000041
C110	C	1.091960	0.784244	0.333374
C111	C	1.425294	1.117578	0.666707
C112	C	0.822829	0.481148	0.000039
C113	C	1.156163	0.814481	0.333372
C114	C	1.489496	1.147814	0.666705
C115	C	0.885871	0.432438	0.000038
C116	C	1.219204	0.765771	0.333372
C117	C	1.552538	1.099105	0.666705
C118	C	0.884706	0.353498	0.000042
C119	C	1.218039	0.686831	0.333375
C120	C	1.551372	1.020164	0.666709
C121	C	0.890571	0.750795	0.000022
C122	C	1.223905	1.084128	0.333355
C123	C	1.557238	1.417461	0.666689
C124	C	0.891732	0.829741	0.000021
C125	C	1.225065	1.163075	0.333354
C126	C	1.558398	1.496408	0.666687
C127	C	0.764493	0.848208	0.000021
C128	C	1.097826	1.181541	0.333354
C129	C	1.431159	1.514875	0.666687
C130	C	0.763327	0.769268	0.000024
C131	C	1.096661	1.102601	0.333358
C132	C	1.429994	1.435934	0.666691
C133	C	0.826369	0.720565	0.000019
C134	C	1.159702	1.053898	0.333353
C135	C	1.493035	1.387232	0.666686
C136	C	0.825105	0.634967	0.000028
C137	C	1.158439	0.968301	0.333362
C138	C	1.491772	1.301634	0.666695
C139	C	0.824093	0.566744	0.000036
C140	C	1.157427	0.900077	0.333369
C141	C	1.490760	1.233410	0.666702
N142	N	0.824618	0.100861	-0.195630
N143	N	1.157952	0.434194	0.137703
N144	N	1.491285	0.767528	0.471037
C145	C	0.872148	0.049255	0.238964
C146	C	1.205482	0.382588	0.572298
C147	C	1.538815	0.715922	0.905631
C148	C	0.872152	0.049254	0.325511
C149	C	1.205485	0.382587	0.658845
C150	C	1.538819	0.715921	0.992178
C151	C	0.824591	0.100848	0.368795
C152	C	1.157924	0.434181	0.702128
C153	C	1.491257	0.767514	1.035461
C154	C	0.777018	0.152440	0.325527
C155	C	1.110352	0.485773	0.658860
C156	C	1.443685	0.819107	0.992193
C157	C	0.777012	0.152437	0.238981
C158	C	1.110345	0.485770	0.572315
C159	C	1.443679	0.819103	0.905648
C160	C	0.777042	0.152454	0.674555
C161	C	1.110375	0.485788	1.007888
C162	C	1.443709	0.819121	1.341222
C163	C	0.777053	0.152455	0.761107
C164	C	1.110387	0.485788	1.094440
C165	C	1.443720	0.819122	1.427773
C166	C	0.872182	0.049272	0.761085
C167	C	1.205515	0.382605	1.094418
C168	C	1.538849	0.715938	1.427752
C169	C	0.872176	0.049268	0.674540
C170	C	1.205509	0.382602	1.007873
C171	C	1.538842	0.715935	1.341206
C172	C	0.824601	0.100858	0.631279
C173	C	1.157934	0.434191	0.964612
C174	C	1.491268	0.767524	1.297946
C175	C	0.824597	0.100857	0.537435
C176	C	1.157930	0.434190	0.870768
C177	C	1.491264	0.767524	1.204102
C178	C	0.824598	0.100852	0.462637
C179	C	1.157931	0.434186	0.795971
C180	C	1.491264	0.767519	1.129304
H181	H	0.168651	0.098387	-0.135945
H182	H	0.501984	0.431720	0.197388
H183	H	0.835317	0.765053	0.530721
Br184	Br	0.188401	0.098656	0.176705
Br185	Br	0.521734	0.431990	0.510039
Br186	Br	0.855068	0.765323	0.843372
Br187	Br	0.632421	0.105745	0.176703
Br188	Br	0.965754	0.439078	0.510036
Br189	Br	1.299088	0.772411	0.843370
H190	H	0.480542	0.103334	0.136014
H191	H	0.813875	0.436667	0.469347
H192	H	1.147209	0.770000	0.802680
H193	H	0.941904	0.711150	0.000023
H194	H	1.275237	1.044483	0.333356
H195	H	1.608570	1.377817	0.666690
H196	H	0.480558	0.103372	-0.135952
H197	H	0.813891	0.436705	0.197381
H198	H	1.147224	0.770039	0.530715
Br199	Br	0.678935	0.914309	0.000025
Br200	Br	1.012268	1.247642	0.333358
Br201	Br	1.345601	1.580976	0.666691
H202	H	0.036520	0.096231	0.136023
H203	H	0.369853	0.429564	0.469356
H204	H	0.703187	0.762898	0.802690
Br205	Br	0.970259	0.287398	0.000036
Br206	Br	1.303592	0.620732	0.333369
Br207	Br	1.636926	0.954065	0.666702
H208	H	0.711048	0.744654	0.000030
H209	H	1.044381	1.077987	0.333364
H210	H	1.377714	1.411320	0.666697
H211	H	0.738306	0.194461	0.639339
H212	H	1.071640	0.527795	0.972672
H213	H	1.404973	0.861128	1.306006
H214	H	0.910884	0.007245	0.360735
H215	H	1.244218	0.340579	0.694068
H216	H	1.577551	0.673912	1.027402
H217	H	0.036539	0.096276	-0.135945
H218	H	0.369872	0.429609	0.197389
H219	H	0.703205	0.762943	0.530722
Br220	Br	0.632445	0.105784	-0.176641
Br221	Br	0.965778	0.439118	0.156692
Br222	Br	1.299112	0.772451	0.490026
Br223	Br	0.670326	0.330942	0.000062
Br224	Br	1.003660	0.664275	0.333396
Br225	Br	1.336993	0.997608	0.666729
H226	H	0.707296	0.490563	0.000037
H227	H	1.040629	0.823896	0.333370
H228	H	1.373963	1.157229	0.666703
H229	H	0.944016	0.854356	0.000018
H230	H	1.277349	1.187690	0.333351
H231	H	1.610682	1.521023	0.666685
Br232	Br	0.973004	0.473472	0.000026
Br233	Br	1.306337	0.806806	0.333359
Br234	Br	1.639670	1.140139	0.666693
H235	H	0.910918	0.007262	0.796317
H236	H	1.244251	0.340596	1.129650
H237	H	1.577585	0.673929	1.462984
Br238	Br	0.936705	-0.020764	0.180231
Br239	Br	1.270038	0.312570	0.513565
Br240	Br	1.603371	0.645903	0.846898
Br241	Br	0.936728	-0.020749	0.615800
Br242	Br	1.270062	0.312584	0.949134
Br243	Br	1.603395	0.645918	1.282467
H244	H	0.738321	0.194470	0.796347
H245	H	1.071654	0.527803	1.129680
H246	H	1.404988	0.861137	1.463013
H247	H	0.738290	0.194446	0.360773
H248	H	1.071623	0.527779	0.694106
H249	H	1.404956	0.861113	1.027440
Br250	Br	0.712449	0.222450	0.180268
Br251	Br	1.045782	0.555783	0.513602
Br252	Br	1.379115	0.889117	0.846935
