data_functionalizedCrystal
_audit_creation_method	'MofGen! by Chris Wilmer'
_symmetry_space_group_name_H-M	'P1'
_symmetry_Int_Tables_number	1
_symmetry_cell_setting	triclinic
loop_
_symmetry_equiv_pos_as_xyz
  x,y,z
_cell_length_a	13.897449
_cell_length_b	13.897447
_cell_length_c	12.827893
_cell_angle_alpha	90.008482
_cell_angle_beta	90.007275
_cell_angle_gamma	90.020357
loop_
_atom_site_label
_atom_site_type_symbol
_atom_site_fract_x
_atom_site_fract_y
_atom_site_fract_z
Zn1	Zn	1.474537	-0.384161	0.590937
Zn2	Zn	1.724537	-0.134161	0.840937
Zn3	Zn	1.974537	0.115839	1.090937
Zn4	Zn	2.224537	0.365839	1.340937
Zn5	Zn	1.474471	-0.545424	0.416193
Zn6	Zn	1.724471	-0.295424	0.666193
Zn7	Zn	1.974471	-0.045424	0.916193
Zn8	Zn	2.224471	0.204576	1.166193
Zn9	Zn	1.313271	-0.384147	0.416200
Zn10	Zn	1.563271	-0.134147	0.666200
Zn11	Zn	1.813271	0.115853	0.916200
Zn12	Zn	2.063271	0.365853	1.166200
Zn13	Zn	1.313202	-0.545418	0.590883
Zn14	Zn	1.563202	-0.295418	0.840883
Zn15	Zn	1.813202	-0.045418	1.090883
Zn16	Zn	2.063202	0.204582	1.340883
O17	O	1.393870	-0.464788	0.503553
O18	O	1.643870	-0.214788	0.753553
O19	O	1.893870	0.035212	1.003553
O20	O	2.143870	0.285212	1.253553
O21	O	1.609510	-0.405562	0.567776
O22	O	1.859510	-0.155562	0.817776
O23	O	2.109510	0.094438	1.067776
O24	O	2.359510	0.344438	1.317776
O25	O	1.453089	-0.524027	0.269958
O26	O	1.703089	-0.274027	0.519958
O27	O	1.953089	-0.024027	0.769958
O28	O	2.203089	0.225973	1.019958
O29	O	1.334720	-0.249168	0.439404
O30	O	1.584720	0.000832	0.689404
O31	O	1.834720	0.250832	0.939404
O32	O	2.084720	0.500832	1.189404
O33	O	1.609461	-0.524041	0.439393
O34	O	1.859461	-0.274041	0.689393
O35	O	2.109461	-0.024041	0.939393
O36	O	2.359461	0.225959	1.189393
O37	O	1.453201	-0.249178	0.567783
O38	O	1.703201	0.000822	0.817783
O39	O	1.953201	0.250822	1.067783
O40	O	2.203201	0.500822	1.317783
O41	O	1.334656	-0.405538	0.269963
O42	O	1.584656	-0.155538	0.519963
O43	O	1.834656	0.094462	0.769963
O44	O	2.084656	0.344462	1.019963
O45	O	1.178281	-0.405532	0.439352
O46	O	1.428281	-0.155532	0.689352
O47	O	1.678281	0.094468	0.939352
O48	O	1.928281	0.344468	1.189352
O49	O	1.334603	-0.524031	0.737126
O50	O	1.584603	-0.274031	0.987126
O51	O	1.834603	-0.024031	1.237126
O52	O	2.084603	0.225969	1.487126
O53	O	1.178230	-0.524017	0.567691
O54	O	1.428230	-0.274017	0.817691
O55	O	1.678230	-0.024017	1.067691
O56	O	1.928230	0.225983	1.317691
O57	O	1.453134	-0.405556	0.737165
O58	O	1.703134	-0.155556	0.987165
O59	O	1.953134	0.094444	1.237165
O60	O	2.203134	0.344444	1.487165
O61	O	1.453022	-0.680405	0.439341
O62	O	1.703022	-0.430405	0.689341
O63	O	1.953022	-0.180405	0.939341
O64	O	2.203022	0.069595	1.189341
O65	O	1.334539	-0.680401	0.567684
O66	O	1.584539	-0.430401	0.817684
O67	O	1.834539	-0.180401	1.067684
O68	O	2.084539	0.069599	1.317684
C69	C	1.143256	-0.464773	0.503517
C70	C	1.393256	-0.214773	0.753517
C71	C	1.643256	0.035227	1.003517
C72	C	1.893256	0.285227	1.253517
C73	C	1.036042	-0.464790	0.503526
C74	C	1.286042	-0.214790	0.753526
C75	C	1.536042	0.035210	1.003526
C76	C	1.786042	0.285210	1.253526
C77	C	1.393792	-0.715402	0.503529
C78	C	1.643792	-0.465402	0.753529
C79	C	1.893792	-0.215402	1.003529
C80	C	2.143792	0.034598	1.253529
C81	C	1.393847	-0.822616	0.503553
C82	C	1.643847	-0.572616	0.753553
C83	C	1.893847	-0.322616	1.003553
C84	C	2.143847	-0.072616	1.253553
C85	C	0.948972	-0.464793	0.503543
C86	C	1.198972	-0.214793	0.753543
C87	C	1.448972	0.035207	1.003543
C88	C	1.698972	0.285207	1.253543
C89	C	0.839740	-0.464800	0.503575
C90	C	1.089740	-0.214800	0.753575
C91	C	1.339740	0.035200	1.003575
C92	C	1.589740	0.285200	1.253575
C93	C	1.393893	-0.909686	0.503577
C94	C	1.643893	-0.659686	0.753577
C95	C	1.893893	-0.409686	1.003577
C96	C	2.143893	-0.159686	1.253577
C97	C	1.393961	-1.018918	0.503604
C98	C	1.643961	-0.768918	0.753604
C99	C	1.893961	-0.518918	1.003604
C100	C	2.143961	-0.268918	1.253604
C101	C	1.645463	-0.464803	0.503590
C102	C	1.895463	-0.214803	0.753590
C103	C	2.145463	0.035197	1.003590
C104	C	2.395463	0.285197	1.253590
C105	C	1.752677	-0.464810	0.503606
C106	C	2.002677	-0.214810	0.753606
C107	C	2.252677	0.035190	1.003606
C108	C	2.502677	0.285190	1.253606
C109	C	1.393868	-0.464794	0.776123
C110	C	1.643868	-0.214794	1.026123
C111	C	1.893868	0.035206	1.276123
C112	C	2.143868	0.285206	1.526123
C113	C	1.393867	-0.464797	0.892276
C114	C	1.643867	-0.214797	1.142276
C115	C	1.893867	0.035203	1.392276
C116	C	2.143867	0.285203	1.642276
C117	C	1.393975	-0.213195	0.503600
C118	C	1.643975	0.036805	0.753600
C119	C	1.893975	0.286805	1.003600
C120	C	2.143975	0.536805	1.253600
C121	C	1.394020	-0.105981	0.503620
C122	C	1.644020	0.144019	0.753620
C123	C	1.894020	0.394019	1.003620
C124	C	2.144020	0.644019	1.253620
C125	C	1.335220	-0.523418	1.064086
C126	C	1.585220	-0.273418	1.314086
C127	C	1.835220	-0.023418	1.564086
C128	C	2.085220	0.226582	1.814086
C129	C	1.335220	-0.523417	0.944035
C130	C	1.585220	-0.273417	1.194035
C131	C	1.835220	-0.023417	1.444035
C132	C	2.085220	0.226583	1.694035
C133	C	1.393866	-0.464803	1.232043
C134	C	1.643866	-0.214803	1.482043
C135	C	1.893866	0.035197	1.732043
C136	C	2.143866	0.285197	1.982043
C137	C	1.393867	-0.464800	1.115890
C138	C	1.643867	-0.214800	1.365890
C139	C	1.893867	0.035200	1.615890
C140	C	2.143867	0.285200	1.865890
H141	H	1.285014	-0.573605	0.899485
H142	H	1.535014	-0.323605	1.149485
H143	H	1.785014	-0.073605	1.399485
H144	H	2.035014	0.176395	1.649485
H145	H	1.444082	-0.414613	0.936820
H146	H	1.694082	-0.164613	1.186820
H147	H	1.944082	0.085387	1.436820
H148	H	2.194082	0.335387	1.686820
H149	H	1.285008	-0.573601	1.108611
H150	H	1.535008	-0.323601	1.358611
H151	H	1.785008	-0.073601	1.608611
H152	H	2.035008	0.176399	1.858611
H153	H	1.444071	-0.414610	1.071365
H154	H	1.694071	-0.164610	1.321365
H155	H	1.944071	0.085390	1.571365
H156	H	2.194071	0.335390	1.821365
