data_functionalizedCrystal
_audit_creation_method	'MofGen! by Chris Wilmer'
_symmetry_space_group_name_H-M	'P1'
_symmetry_Int_Tables_number	1
_symmetry_cell_setting	triclinic
loop_
_symmetry_equiv_pos_as_xyz
  x,y,z
_cell_length_a	19.805405
_cell_length_b	19.805407
_cell_length_c	12.759393
_cell_angle_alpha	90.024579
_cell_angle_beta	89.963489
_cell_angle_gamma	89.972362
loop_
_atom_site_label
_atom_site_type_symbol
_atom_site_fract_x
_atom_site_fract_y
_atom_site_fract_z
Zn1	Zn	-0.269408	-1.034755	-0.594113
Zn2	Zn	0.230592	-0.534755	-0.094113
Zn3	Zn	-0.382611	-1.034664	-0.418415
Zn4	Zn	0.117389	-0.534664	0.081585
Zn5	Zn	-0.269444	-0.921564	-0.418433
Zn6	Zn	0.230556	-0.421564	0.081567
Zn7	Zn	-0.382563	-0.921533	-0.594037
Zn8	Zn	0.117437	-0.421533	-0.094037
O9	O	-0.326007	-0.978129	-0.506250
O10	O	0.173993	-0.478129	-0.006250
O11	O	-0.284430	-1.129459	-0.570831
O12	O	0.215570	-0.629459	-0.070831
O13	O	-0.367634	-1.019636	-0.271396
O14	O	0.132366	-0.519636	0.228604
O15	O	-0.174723	-0.936630	-0.441777
O16	O	0.325277	-0.436630	0.058223
O17	O	-0.367600	-1.129393	-0.441746
O18	O	0.132400	-0.629393	0.058254
O19	O	-0.174697	-1.019791	-0.570849
O20	O	0.325303	-0.519791	-0.070849
O21	O	-0.284491	-0.936542	-0.271410
O22	O	0.215509	-0.436542	0.228590
O23	O	-0.284444	-0.826843	-0.441703
O24	O	0.215556	-0.326843	0.058297
O25	O	-0.367518	-0.936577	-0.741068
O26	O	0.132482	-0.436577	-0.241068
O27	O	-0.367553	-0.826820	-0.570719
O28	O	0.132447	-0.326820	-0.070719
O29	O	-0.284384	-1.019761	-0.741124
O30	O	0.215616	-0.519761	-0.241124
O31	O	-0.477321	-1.019606	-0.441672
O32	O	0.022679	-0.519606	0.058328
O33	O	-0.477286	-0.936489	-0.570701
O34	O	0.022714	-0.436489	-0.070701
C35	C	-0.325998	-0.802273	-0.506205
C36	C	0.174002	-0.302273	-0.006205
C37	C	-0.326010	-0.727041	-0.506211
C38	C	0.173990	-0.227041	-0.006211
C39	C	-0.282772	-0.265288	-0.573582
C40	C	0.217228	0.234712	-0.073582
C41	C	-0.282775	-0.335977	-0.573577
C42	C	0.217225	0.164023	-0.073577
C43	C	-0.326009	-0.371279	-0.506262
C44	C	0.173991	0.128721	-0.006262
C45	C	-0.369250	-0.335890	-0.438955
C46	C	0.130750	0.164110	0.061045
C47	C	-0.369251	-0.265203	-0.438966
C48	C	0.130749	0.234797	0.061034
C49	C	-0.369248	-0.620963	-0.438909
C50	C	0.130752	-0.120963	0.061091
C51	C	-0.369243	-0.691655	-0.438901
C52	C	0.130757	-0.191655	0.061099
C53	C	-0.282772	-0.691737	-0.573521
C54	C	0.217228	-0.191737	-0.073521
C55	C	-0.282773	-0.621050	-0.573532
C56	C	0.217227	-0.121050	-0.073532
C57	C	-0.326016	-0.585667	-0.506229
C58	C	0.173984	-0.085667	-0.006229
C59	C	-0.326014	-0.509018	-0.506237
C60	C	0.173986	-0.009018	-0.006237
C61	C	-0.326008	-0.447926	-0.506248
C62	C	0.173992	0.052074	-0.006248
C63	C	-0.501863	-0.978053	-0.506199
C64	C	-0.001863	-0.478053	-0.006199
C65	C	-0.577095	-0.978082	-0.506212
C66	C	-0.077095	-0.478082	-0.006212
C67	C	-0.612435	-1.021403	-0.439097
C68	C	-0.112435	-0.521403	0.060903
C69	C	-0.683123	-1.021432	-0.439120
C70	C	-0.183123	-0.521432	0.060880
C71	C	-0.718470	-0.978136	-0.506254
C72	C	-0.218470	-0.478136	-0.006254
C73	C	-0.683125	-0.934813	-0.573377
C74	C	-0.183125	-0.434813	-0.073377
C75	C	-0.612438	-0.934788	-0.573358
C76	C	-0.112438	-0.434788	-0.073358
C77	C	-0.968199	-0.934913	-0.573454
C78	C	-0.468199	-0.434913	-0.073454
C79	C	-1.038891	-0.934939	-0.573466
C80	C	-0.538891	-0.434939	-0.073466
C81	C	-1.038883	-1.021556	-0.439217
C82	C	-0.538883	-0.521556	0.060783
C83	C	-0.968196	-1.021532	-0.439198
C84	C	-0.468196	-0.521532	0.060802
C85	C	-0.932858	-0.978212	-0.506324
C86	C	-0.432858	-0.478212	-0.006324
C87	C	-0.856209	-0.978182	-0.506300
C88	C	-0.356209	-0.478182	-0.006300
C89	C	-0.795117	-0.978161	-0.506274
C90	C	-0.295117	-0.478161	-0.006274
C91	C	-0.149464	-0.978224	-0.506324
C92	C	0.350536	-0.478224	-0.006324
C93	C	-0.074232	-0.978264	-0.506355
C94	C	0.425768	-0.478264	-0.006355
C95	C	-0.325942	-0.978176	-0.780283
C96	C	0.174058	-0.478176	-0.280283
C97	C	-0.325914	-0.978196	-0.897060
C98	C	0.174086	-0.478196	-0.397060
C99	C	-0.326013	-0.154672	-0.506286
C100	C	0.173987	0.345328	-0.006286
C101	C	-0.326008	-0.229904	-0.506278
C102	C	0.173992	0.270096	-0.006278
C103	C	-0.369191	-1.021465	-0.951912
C104	C	0.130809	-0.521465	-0.451912
C105	C	-0.369162	-1.021485	-1.061636
C106	C	0.130838	-0.521485	-0.561636
C107	C	-0.282578	-0.934961	-1.061646
C108	C	0.217422	-0.434961	-0.561646
C109	C	-0.282604	-0.934945	-0.951924
C110	C	0.217396	-0.434945	-0.451924
C111	C	-0.419181	-1.071417	-0.951907
C112	C	0.080819	-0.571417	-0.451907
C113	C	-0.419152	-1.071437	-1.061632
C114	C	0.080848	-0.571437	-0.561632
C115	C	-0.326022	-0.978121	-0.233282
C116	C	0.173978	-0.478121	0.266718
C117	C	-0.325859	-0.978232	-0.116506
C118	C	0.174141	-0.478232	0.383494
H119	H	-0.247561	-0.236550	-0.628392
H120	H	0.252439	0.263450	-0.128392
F121	F	-0.720746	-0.888737	-0.644832
F122	F	-0.220746	-0.388737	-0.144832
H123	H	-0.711894	-1.056708	-0.384468
H124	H	-0.211894	-0.556708	0.115532
F125	F	-0.574822	-1.067481	-0.367637
F126	F	-0.074822	-0.567481	0.132363
F127	F	-0.236752	-0.729400	-0.645155
F128	F	0.263248	-0.229400	-0.145155
F129	F	-0.930581	-1.067613	-0.367745
F130	F	-0.430581	-0.567613	0.132255
F131	F	-0.574827	-0.888682	-0.644794
F132	F	-0.074827	-0.388682	-0.144794
F133	F	-1.076499	-1.067665	-0.367780
F134	F	-0.576499	-0.567665	0.132220
F135	F	-0.236535	-0.888900	-0.893550
F136	F	0.263465	-0.388900	-0.393550
F137	F	-0.236487	-0.888934	-1.120046
F138	F	0.263513	-0.388934	-0.620046
H139	H	-0.404453	-0.720397	-0.384083
H140	H	0.095547	-0.220397	0.115917
F141	F	-1.076508	-0.888856	-0.644924
F142	F	-0.576508	-0.388856	-0.144924
F143	F	-0.236755	-0.583482	-0.645175
F144	F	0.263245	-0.083482	-0.145175
F145	F	-0.394627	-1.136554	-1.106146
F146	F	0.105373	-0.636554	-0.606146
H147	H	-0.404457	-0.592162	-0.384104
H148	H	0.095543	-0.092162	0.115896
F149	F	-0.487658	-1.053051	-1.100526
F150	F	0.012342	-0.553051	-0.600526
F151	F	-0.400847	-1.139939	-0.913011
F152	F	0.099153	-0.639939	-0.413011
H153	H	-0.468985	-1.052613	-0.917848
H154	H	0.031015	-0.552613	-0.417848
F155	F	-0.930597	-0.888807	-0.644895
F156	F	-0.430597	-0.388807	-0.144895
H157	H	-0.404459	-0.236393	-0.384162
H158	H	0.095541	0.263607	0.115838
F159	F	-0.415267	-0.373463	-0.367317
F160	F	0.084733	0.126537	0.132683
F161	F	-0.236760	-0.373632	-0.645216
F162	F	0.263240	0.126368	-0.145216
