data_functionalizedCrystal
_audit_creation_method	'MofGen! by Chris Wilmer'
_symmetry_space_group_name_H-M	'P1'
_symmetry_Int_Tables_number	1
_symmetry_cell_setting	triclinic
loop_
_symmetry_equiv_pos_as_xyz
  x,y,z
_cell_length_a	10.654550
_cell_length_b	10.654550
_cell_length_c	9.130313
_cell_angle_alpha	89.997153
_cell_angle_beta	90.000488
_cell_angle_gamma	95.515069
loop_
_atom_site_label
_atom_site_type_symbol
_atom_site_fract_x
_atom_site_fract_y
_atom_site_fract_z
O1	O	1.667840	-0.176396	0.121690
O2	O	1.302362	-0.193202	0.121716
O3	O	1.493504	-0.002060	0.121693
O4	O	1.476698	-0.367538	0.121713
O5	O	1.493489	-0.002060	-0.121906
O6	O	1.302347	-0.193202	-0.121882
O7	O	1.667826	-0.176396	-0.121909
Cu8	Cu	1.485085	-0.184799	-0.144138
Cu9	Cu	1.485102	-0.184799	0.143946
O10	O	1.476683	-0.367538	-0.121886
C11	C	1.255556	-0.191968	-0.000080
C12	C	1.116113	-0.188276	-0.000070
C13	C	1.492263	0.044738	-0.000105
C14	C	1.488571	0.184181	-0.000103
C15	C	1.036628	-0.300818	-0.000068
C16	C	0.905607	-0.297341	-0.000093
C17	C	0.933570	-0.068772	-0.000117
C18	C	1.064588	-0.072250	-0.000101
C19	C	1.714631	-0.177630	-0.000110
C20	C	1.854074	-0.181322	-0.000110
N21	N	1.485082	-0.184798	-0.346761
C22	C	1.477925	-0.414336	-0.000084
C23	C	1.481616	-0.553779	-0.000077
C24	C	1.601112	0.263667	-0.000111
C25	C	1.597636	0.394688	-0.000092
C26	C	1.369066	0.366725	-0.000065
C27	C	1.372544	0.235706	-0.000073
C28	C	1.561913	-0.261680	-0.423409
C29	C	1.561934	-0.261673	-0.576746
C30	C	1.408281	-0.107899	-0.576773
C31	C	1.408268	-0.107900	-0.423439
N32	N	1.485115	-0.184790	0.346568
H33	H	0.840894	-0.388984	-0.000095
H34	H	0.891602	0.025693	-0.000151
O35	O	1.636599	-0.336477	-0.650974
C36	C	1.789051	-0.488948	-0.634755
C37	C	1.704527	-0.404315	-0.550511
H38	H	1.844013	-0.543797	-0.553568
H39	H	1.727947	-0.557817	-0.706510
H40	H	1.857838	-0.427807	-0.706573
H41	H	1.635728	-0.465355	-0.478614
H42	H	1.765709	-0.335439	-0.478849
H43	H	1.078574	-0.395294	-0.000053
H44	H	1.695588	0.221720	-0.000132
H45	H	1.689279	0.459401	-0.000096
H46	H	1.274601	0.408693	-0.000043
H47	H	1.129309	0.019401	-0.000107
O48	O	1.263096	0.158665	-0.000131
C49	C	1.036019	0.144744	-0.000011
C50	C	1.159864	0.232137	0.000013
H51	H	0.952524	0.204111	0.000136
H52	H	1.031839	0.082735	-0.101981
H53	H	1.032019	0.082675	0.101910
H54	H	1.163948	0.294284	-0.101839
H55	H	1.163994	0.294061	0.102050
O56	O	1.333511	-0.033179	-0.349200
C57	C	1.181168	0.119403	-0.365395
C58	C	1.265735	0.034821	-0.449653
H59	H	1.126368	0.174423	-0.446574
H60	H	1.112254	0.058335	-0.293650
H61	H	1.242353	0.188136	-0.293566
H62	H	1.204651	-0.033925	-0.521561
H63	H	1.334656	0.095968	-0.521305
H64	H	1.624461	-0.324296	-0.360982
H65	H	1.345740	-0.045293	-0.639223
