data_functionalizedCrystal
_audit_creation_method	'MofGen! by Chris Wilmer'
_symmetry_space_group_name_H-M	'P1'
_symmetry_Int_Tables_number	1
_symmetry_cell_setting	triclinic
loop_
_symmetry_equiv_pos_as_xyz
  x,y,z
_cell_length_a	22.610064
_cell_length_b	14.519709
_cell_length_c	14.519709
_cell_angle_alpha	83.680145
_cell_angle_beta	90.003132
_cell_angle_gamma	89.997369
loop_
_atom_site_label
_atom_site_type_symbol
_atom_site_fract_x
_atom_site_fract_y
_atom_site_fract_z
O1	O	0.049109	-1.223874	-0.120879
O2	O	0.382442	-0.890541	0.212455
O3	O	0.715775	-0.557207	0.545788
O4	O	0.049127	-0.955397	-0.135115
O5	O	0.382460	-0.622064	0.198218
O6	O	0.715794	-0.288730	0.531551
O7	O	0.049112	-1.096754	0.006241
O8	O	0.382445	-0.763420	0.339575
O9	O	0.715779	-0.430087	0.672908
O10	O	0.049124	-1.082517	-0.262235
O11	O	0.382457	-0.749184	0.071098
O12	O	0.715790	-0.415850	0.404431
O13	O	-0.049257	-1.096729	0.006221
O14	O	0.284076	-0.763395	0.339554
O15	O	0.617410	-0.430062	0.672888
O16	O	-0.049242	-0.955372	-0.135136
O17	O	0.284091	-0.622039	0.198197
O18	O	0.617425	-0.288705	0.531531
O19	O	-0.049260	-1.223849	-0.120899
O20	O	0.284073	-0.890516	0.212434
O21	O	0.617406	-0.557182	0.545767
Zn22	Zn	-0.064869	-1.089606	-0.128021
Zn23	Zn	0.268464	-0.756273	0.205312
Zn24	Zn	0.601797	-0.422940	0.538646
Zn25	Zn	0.064736	-1.089639	-0.127994
Zn26	Zn	0.398070	-0.756306	0.205340
Zn27	Zn	0.731403	-0.422973	0.538673
O28	O	-0.049245	-1.082492	-0.262256
O29	O	0.284088	-0.749159	0.071077
O30	O	0.617421	-0.415825	0.404411
C31	C	-0.000055	-0.921025	-0.134462
C32	C	0.333278	-0.587691	0.198871
C33	C	0.666611	-0.254358	0.532205
C34	C	-0.000048	-0.818643	-0.132474
C35	C	0.333285	-0.485310	0.200859
C36	C	0.666618	-0.151977	0.534193
N37	N	-0.153322	-1.089591	-0.128039
N38	N	0.180011	-0.756257	0.205294
N39	N	0.513345	-0.422924	0.538628
C40	C	-0.000073	-1.096078	0.040591
C41	C	0.333261	-0.762744	0.373924
C42	C	0.666594	-0.429411	0.707258
C43	C	-0.000073	-1.094090	0.142972
C44	C	0.333261	-0.760756	0.476306
C45	C	0.666594	-0.427423	0.809639
C46	C	-0.561970	-1.152235	-0.065411
C47	C	-0.228637	-0.818902	0.267923
C48	C	0.104697	-0.485568	0.601256
C49	C	-0.623890	-1.152240	-0.065404
C50	C	-0.290557	-0.818906	0.267929
C51	C	0.042777	-0.485573	0.601263
O52	O	-0.655914	-1.205463	-0.012169
O53	O	-0.322581	-0.872130	0.321165
O54	O	0.010752	-0.538796	0.654498
N55	N	-0.654859	-1.089639	-0.127975
N56	N	-0.321526	-0.756305	0.205359
N57	N	0.011808	-0.422972	0.538692
C58	C	-0.623905	-1.027022	-0.190550
C59	C	-0.290572	-0.693689	0.142784
C60	C	0.042761	-0.360356	0.476117
O61	O	-0.655933	-0.973775	-0.243770
O62	O	-0.322599	-0.640442	0.089564
O63	O	0.010734	-0.307109	0.422897
C64	C	-0.561986	-1.027014	-0.190551
C65	C	-0.228653	-0.693681	0.142782
C66	C	0.104680	-0.360347	0.476115
C67	C	-0.531020	-1.089626	-0.127983
C68	C	-0.197687	-0.756292	0.205351
C69	C	0.135646	-0.422959	0.538684
C70	C	-0.531004	-1.214841	-0.002846
C71	C	-0.197671	-0.881507	0.330487
C72	C	0.135663	-0.548174	0.663820
C73	C	-0.469088	-1.214837	-0.002855
C74	C	-0.135755	-0.881504	0.330479
C75	C	0.197578	-0.548170	0.663812
C76	C	-0.438139	-1.152227	-0.065427
C77	C	-0.104805	-0.818894	0.267907
C78	C	0.228528	-0.485561	0.601240
C79	C	-0.469105	-1.089622	-0.127991
C80	C	-0.135771	-0.756288	0.205343
C81	C	0.197562	-0.422955	0.538676
C82	C	-0.531034	-0.964394	-0.253121
C83	C	-0.197700	-0.631061	0.080212
C84	C	0.135633	-0.297728	0.413545
C85	C	-0.469111	-0.964391	-0.253117
C86	C	-0.135777	-0.631057	0.080216
C87	C	0.197556	-0.297724	0.413550
C88	C	-0.438145	-1.027002	-0.190548
C89	C	-0.104811	-0.693669	0.142785
C90	C	0.228522	-0.360336	0.476118
C91	C	-0.376240	-1.027009	-0.190571
C92	C	-0.042906	-0.693675	0.142762
C93	C	0.290427	-0.360342	0.476096
N94	N	-0.345270	-1.089610	-0.128000
N95	N	-0.011937	-0.756276	0.205333
N96	N	0.321396	-0.422943	0.538666
C97	C	-0.376220	-1.152219	-0.065428
C98	C	-0.042887	-0.818886	0.267905
C99	C	0.290447	-0.485552	0.601238
C100	C	-0.753939	-1.027044	-0.190541
C101	C	-0.420605	-0.693710	0.142793
C102	C	-0.087272	-0.360377	0.476126
C103	C	-0.815856	-1.027056	-0.190544
C104	C	-0.482523	-0.693722	0.142789
C105	C	-0.149190	-0.360389	0.476122
C106	C	-0.815837	-1.152272	-0.065397
C107	C	-0.482503	-0.818939	0.267936
C108	C	-0.149170	-0.485605	0.601270
C109	C	-0.753918	-1.152264	-0.065399
C110	C	-0.420585	-0.818930	0.267935
C111	C	-0.087251	-0.485597	0.601268
C112	C	-0.722970	-1.089645	-0.127970
C113	C	-0.389636	-0.756311	0.205363
C114	C	-0.056303	-0.422978	0.538697
C115	C	-0.246193	-1.152207	-0.065450
C116	C	0.087141	-0.818874	0.267883
C117	C	0.420474	-0.485540	0.601216
C118	C	-0.184271	-1.152200	-0.065467
C119	C	0.149062	-0.818867	0.267867
C120	C	0.482395	-0.485533	0.601200
C121	C	-0.184296	-1.026981	-0.190610
C122	C	0.149037	-0.693648	0.142723
C123	C	0.482370	-0.360314	0.476056
C124	C	-0.246212	-1.026991	-0.190598
C125	C	0.087121	-0.693657	0.142736
C126	C	0.420455	-0.360324	0.476069
C127	C	-0.277159	-1.089607	-0.128010
C128	C	0.056175	-0.756274	0.205323
C129	C	0.389508	-0.422940	0.538657
O130	O	-0.344176	-0.973810	-0.243777
O131	O	-0.010843	-0.640477	0.089557
O132	O	0.322491	-0.307143	0.422890
O133	O	-0.344185	-1.205449	-0.012209
O134	O	-0.010852	-0.872116	0.321124
O135	O	0.322482	-0.538783	0.654458
N136	N	0.153189	-1.089662	-0.127968
N137	N	0.486522	-0.756329	0.205365
N138	N	0.819855	-0.422996	0.538698
C139	C	-0.000077	-1.258221	-0.121553
C140	C	0.333257	-0.924888	0.211781
C141	C	0.666590	-0.591554	0.545114
C142	C	-0.000080	-1.360602	-0.123541
C143	C	0.333254	-1.027269	0.209793
C144	C	0.666587	-0.693936	0.543126
C145	C	-0.000076	-0.443748	-0.125154
C146	C	0.333258	-0.110414	0.208179
C147	C	0.666591	0.222919	0.541512
C148	C	-0.000068	-0.548056	-0.127187
C149	C	0.333265	-0.214722	0.206146
C150	C	0.666599	0.118611	0.539480
C151	C	-0.000062	-0.631192	-0.128814
C152	C	0.333272	-0.297859	0.204519
C153	C	0.666605	0.035474	0.537853
C154	C	-0.000055	-0.735507	-0.130847
C155	C	0.333278	-0.402173	0.202486
C156	C	0.666612	-0.068840	0.535820
C157	C	-0.000059	-1.083168	-0.296606
C158	C	0.333274	-0.749835	0.036728
C159	C	0.666607	-0.416501	0.370061
C160	C	-0.000055	-1.085156	-0.398987
C161	C	0.333278	-0.751823	-0.065653
C162	C	0.666611	-0.418490	0.267680
C163	C	-0.000057	-1.086770	0.517868
C164	C	0.333276	-0.753437	0.851201
C165	C	0.666610	-0.420103	1.184535
C166	C	-0.000061	-1.088803	0.413560
C167	C	0.333272	-0.755469	0.746893
C168	C	0.666605	-0.422136	1.080227
C169	C	-0.000065	-1.090430	0.330423
C170	C	0.333268	-0.757096	0.663757
C171	C	0.666601	-0.423763	0.997090
C172	C	-0.000069	-1.092463	0.226109
C173	C	0.333265	-0.759129	0.559442
C174	C	0.666598	-0.425796	0.892776
H175	H	-0.159061	-1.203189	-0.014516
H176	H	0.174273	-0.869856	0.318817
H177	H	0.507606	-0.536522	0.652151
Cl178	Cl	-0.430166	-1.293545	0.075812
Cl179	Cl	-0.096833	-0.960212	0.409145
Cl180	Cl	0.236500	-0.626878	0.742479
Cl181	Cl	-0.569902	-1.293560	0.075826
Cl182	Cl	-0.236568	-0.960227	0.409159
Cl183	Cl	0.096765	-0.626894	0.742492
H184	H	-0.841047	-1.203251	-0.014446
H185	H	-0.507714	-0.869918	0.318887
H186	H	-0.174381	-0.536584	0.652221
Cl187	Cl	-0.854778	-0.948354	-0.269217
Cl188	Cl	-0.521445	-0.615020	0.064116
Cl189	Cl	-0.188112	-0.281687	0.397449
H190	H	-0.728709	-1.203247	-0.014450
H191	H	-0.395376	-0.869913	0.318884
H192	H	-0.062042	-0.536580	0.652217
Cl193	Cl	-0.715038	-0.948322	-0.269217
Cl194	Cl	-0.381705	-0.614989	0.064116
Cl195	Cl	-0.048371	-0.281656	0.397449
Cl196	Cl	-0.145379	-0.948276	-0.269270
Cl197	Cl	0.187955	-0.614942	0.064063
Cl198	Cl	0.521288	-0.281609	0.397397
H199	H	-0.271382	-1.203194	-0.014485
H200	H	0.061951	-0.869861	0.318848
H201	H	0.395284	-0.536527	0.652182
H202	H	-0.556238	-0.913410	-0.304070
H203	H	-0.222904	-0.580077	0.029264
H204	H	0.110429	-0.246743	0.362597
Cl205	Cl	-0.430209	-0.885663	-0.331782
Cl206	Cl	-0.096875	-0.552329	0.001551
Cl207	Cl	0.236458	-0.218996	0.334884
Cl208	Cl	-0.285139	-0.948286	-0.269268
Cl209	Cl	0.048194	-0.614953	0.064066
Cl210	Cl	0.381528	-0.281620	0.397399
