data_functionalizedCrystal
_audit_creation_method	'MofGen! by Chris Wilmer'
_symmetry_space_group_name_H-M	'P1'
_symmetry_Int_Tables_number	1
_symmetry_cell_setting	triclinic
loop_
_symmetry_equiv_pos_as_xyz
  x,y,z
_cell_length_a	14.044191
_cell_length_b	19.188924
_cell_length_c	13.101039
_cell_angle_alpha	93.348752
_cell_angle_beta	86.337551
_cell_angle_gamma	88.166870
loop_
_atom_site_label
_atom_site_type_symbol
_atom_site_fract_x
_atom_site_fract_y
_atom_site_fract_z
O1	O	1.262232	0.164780	-0.085173
O2	O	1.762232	0.664780	0.414827
O3	O	0.986288	0.158702	-0.085186
O4	O	1.486288	0.658702	0.414814
O5	O	1.132226	0.060600	-0.085167
O6	O	1.632226	0.560600	0.414833
O7	O	1.116294	0.262883	-0.085192
O8	O	1.616294	0.762883	0.414808
O9	O	1.121755	0.067652	0.085261
O10	O	1.621755	0.567652	0.585261
O11	O	0.975817	0.165754	0.085242
O12	O	1.475817	0.665754	0.585242
O13	O	1.251761	0.171832	0.085255
O14	O	1.751761	0.671832	0.585255
Zn15	Zn	1.112127	0.169912	0.112308
Zn16	Zn	1.612127	0.669912	0.612308
Zn17	Zn	1.125922	0.160622	-0.112239
Zn18	Zn	1.625922	0.660622	0.387761
O19	O	1.105823	0.269934	0.085236
O20	O	1.605823	0.769934	0.585236
C21	C	0.945750	0.159569	0.000027
C22	C	1.445750	0.659569	0.500027
C23	C	0.840557	0.151638	0.000022
C24	C	1.340557	0.651638	0.500022
C25	C	0.590096	0.193386	0.000027
C26	C	1.090096	0.693386	0.500027
C27	C	0.647959	0.137151	0.000033
C28	C	1.147959	0.637151	0.500033
C29	C	0.755130	0.145213	0.000027
C30	C	1.255130	0.645213	0.500027
C31	C	0.482915	0.185325	0.000033
C32	C	0.982915	0.685325	0.500033
C33	C	1.126475	0.038081	0.000048
C34	C	1.626475	0.538081	0.500048
C35	C	1.124930	-0.039523	0.000051
C36	C	1.624930	0.460477	0.500051
C37	C	1.129916	-0.079812	-0.092850
C38	C	1.629916	0.420188	0.407150
C39	C	1.128451	-0.152730	-0.092858
C40	C	1.628451	0.347270	0.407142
C41	C	1.122018	-0.185356	0.000040
C42	C	1.622018	0.314644	0.500040
C43	C	1.117026	-0.145057	0.092953
C44	C	1.617026	0.354943	0.592953
C45	C	1.118481	-0.072141	0.092958
C46	C	1.618481	0.427859	0.592958
N47	N	1.169410	-0.298825	0.069185
N48	N	1.669410	0.201175	0.569185
N49	N	1.168029	-0.368093	0.069173
N50	N	1.668029	0.131907	0.569173
C51	C	1.117629	-0.405049	0.000030
C52	C	1.617629	0.094951	0.500030
N53	N	1.068674	-0.370121	-0.069117
N54	N	1.568674	0.129879	0.430883
N55	N	1.070060	-0.300847	-0.069109
N56	N	1.570060	0.199153	0.430891
C57	C	1.120438	-0.264421	0.000045
C58	C	1.620438	0.235579	0.500045
C59	C	1.121026	-0.524404	-0.092886
C60	C	1.621026	-0.024404	0.407114
C61	C	1.119554	-0.597322	-0.092890
C62	C	1.619554	-0.097322	0.407110
C63	C	1.108139	-0.589649	0.092924
C64	C	1.608139	-0.089649	0.592924
C65	C	1.109601	-0.516731	0.092926
C66	C	1.609601	-0.016731	0.592926
C67	C	1.116049	-0.484113	0.000018
C68	C	1.616049	0.015887	0.500018
C69	C	1.292300	0.170965	0.000040
C70	C	1.792300	0.670965	0.500040
C71	C	1.397493	0.178896	0.000038
C72	C	1.897493	0.678896	0.500038
C73	C	1.111574	0.292452	0.000019
C74	C	1.611574	0.792452	0.500019
C75	C	1.113120	0.370057	0.000010
C76	C	1.613120	0.870057	0.500010
N77	N	1.102718	0.176253	0.265555
N78	N	1.602718	0.676253	0.765555
N79	N	1.135338	0.154276	-0.265486
N80	N	1.635338	0.654276	0.234514
C81	C	1.089918	0.184886	0.474596
C82	C	1.589918	0.684886	0.974596
C83	C	1.148136	0.145645	0.525479
C84	C	1.648136	0.645645	1.025479
C85	C	1.141013	0.150449	0.641797
C86	C	1.641013	0.650449	1.141797
C87	C	1.097039	0.180083	0.358268
C88	C	1.597039	0.680083	0.858268
H89	H	0.621043	0.247582	0.000018
H90	H	1.121043	0.747582	0.500018
C91	C	1.222701	0.095391	0.466328
C92	C	1.722701	0.595391	0.966328
H93	H	1.258290	0.071400	0.513552
H94	H	1.758290	0.571400	1.013552
H95	H	1.264625	0.121226	0.424469
H96	H	1.764625	0.621226	0.924469
H97	H	1.191183	0.062534	0.424480
H98	H	1.691183	0.562534	0.924480
H99	H	1.135164	-0.053259	-0.168503
H100	H	1.635164	0.446741	0.331497
C101	C	1.113005	-0.027821	0.195154
C102	C	1.613005	0.472179	0.695154
H103	H	1.108968	-0.057693	0.250482
H104	H	1.608968	0.442307	0.750482
H105	H	1.058091	0.002671	0.199015
H106	H	1.558091	0.502671	0.699015
H107	H	1.168595	-0.001105	0.199018
H108	H	1.668595	0.498895	0.699018
C109	C	1.109948	-0.180939	0.195141
C110	C	1.609948	0.319061	0.695141
H111	H	1.107179	-0.146498	0.250473
H112	H	1.607179	0.353502	0.750473
H113	H	1.164390	-0.211108	0.199009
H114	H	1.664390	0.288892	0.699009
H115	H	1.053888	-0.207340	0.198993
H116	H	1.553888	0.292660	0.698993
C117	C	1.015343	0.235126	0.533747
C118	C	1.515343	0.735126	1.033747
H119	H	0.979739	0.259109	0.486528
H120	H	1.479739	0.759109	0.986528
H121	H	1.046841	0.267979	0.575610
H122	H	1.546841	0.767979	1.075610
H123	H	0.973423	0.209272	0.575593
H124	H	1.473423	0.709272	1.075593
H125	H	0.617015	0.082947	-0.000033
H126	H	1.117015	0.582947	0.499967
H127	H	1.132506	-0.185539	-0.168512
H128	H	1.632506	0.314461	0.331488
H129	H	1.126271	-0.497845	-0.168537
H130	H	1.626271	0.002155	0.331463
H131	H	1.123610	-0.630125	-0.168544
H132	H	1.623610	-0.130125	0.331456
C133	C	1.101055	-0.625528	0.195111
C134	C	1.601055	-0.125528	0.695111
H135	H	1.100905	-0.674726	0.181804
H136	H	1.600905	-0.174726	0.681804
H137	H	1.043699	-0.610116	0.233278
H138	H	1.543699	-0.110116	0.733278
H139	H	1.154202	-0.613889	0.233289
H140	H	1.654202	-0.113889	0.733289
H141	H	1.105548	-0.483927	0.168576
H142	H	1.605548	0.016073	0.668576
