data_functionalizedCrystal
_audit_creation_method	'MofGen! by Chris Wilmer'
_symmetry_space_group_name_H-M	'P1'
_symmetry_Int_Tables_number	1
_symmetry_cell_setting	triclinic
loop_
_symmetry_equiv_pos_as_xyz
  x,y,z
_cell_length_a	19.121241
_cell_length_b	19.121063
_cell_length_c	19.120904
_cell_angle_alpha	94.741613
_cell_angle_beta	89.875472
_cell_angle_gamma	95.003121
loop_
_atom_site_label
_atom_site_type_symbol
_atom_site_fract_x
_atom_site_fract_y
_atom_site_fract_z
Zn1	Zn	1.043557	-0.254510	-0.452551
Zn2	Zn	1.543557	0.245490	0.047449
Zn3	Zn	1.043470	-0.367161	-0.339898
Zn4	Zn	1.543470	0.132839	0.160102
Zn5	Zn	0.931342	-0.254092	-0.330304
Zn6	Zn	1.431342	0.245908	0.169696
Zn7	Zn	0.920835	-0.377147	-0.452491
Zn8	Zn	1.420835	0.122853	0.047509
O9	O	0.984801	-0.313228	-0.393811
O10	O	1.484801	0.186772	0.106189
O11	O	1.141831	-0.265449	-0.441648
O12	O	1.641831	0.234551	0.058352
O13	O	1.032957	-0.347808	-0.240344
O14	O	1.532957	0.152192	0.259656
O15	O	0.950661	-0.155504	-0.342530
O16	O	1.450661	0.344496	0.157470
O17	O	1.141767	-0.348213	-0.358882
O18	O	1.641767	0.151787	0.141118
O19	O	1.033105	-0.155811	-0.432344
O20	O	1.533105	0.344189	0.067656
O21	O	0.950577	-0.264736	-0.233295
O22	O	1.450577	0.235264	0.266705
O23	O	0.831663	-0.274420	-0.342472
O24	O	1.331663	0.225580	0.157528
O25	O	0.932754	-0.365234	-0.550781
O26	O	1.432754	0.134766	-0.050781
O27	O	0.823943	-0.364828	-0.432242
O28	O	1.323943	0.135172	0.067758
O29	O	1.022917	-0.275133	-0.550825
O30	O	1.522917	0.224867	-0.050825
O31	O	1.022769	-0.467129	-0.358824
O32	O	1.522769	0.032871	0.141176
O33	O	0.932669	-0.474466	-0.441546
O34	O	1.432669	0.025534	0.058454
C35	C	0.802319	-0.320663	-0.386310
C36	C	1.302319	0.179337	0.113690
C37	C	0.724250	-0.323861	-0.383118
C38	C	1.224250	0.176139	0.116882
C39	C	0.687602	-0.282348	-0.424782
C40	C	1.187602	0.217652	0.075218
C41	C	0.614249	-0.285349	-0.421777
C42	C	1.114249	0.214651	0.078223
C43	C	0.577546	-0.329869	-0.377111
C44	C	1.077546	0.170131	0.122889
C45	C	0.614200	-0.371384	-0.335443
C46	C	1.114200	0.128616	0.164557
C47	C	0.687552	-0.368378	-0.338445
C48	C	1.187552	0.131622	0.161555
C49	C	0.356069	-0.341093	-0.365885
C50	C	0.856069	0.158907	0.134115
C51	C	0.282712	-0.344097	-0.362887
C52	C	0.782712	0.155903	0.137113
C53	C	0.282766	-0.258061	-0.449221
C54	C	0.782766	0.241939	0.050779
C55	C	0.356119	-0.255063	-0.452222
C56	C	0.856119	0.244937	0.047778
C57	C	0.392767	-0.296575	-0.410551
C58	C	0.892767	0.203425	0.089449
C59	C	0.502567	-0.332939	-0.374040
C60	C	1.002567	0.167061	0.125960
C61	C	0.467744	-0.293500	-0.413619
C62	C	0.967744	0.206500	0.086381
C63	C	0.976588	-0.496375	-0.401236
C64	C	1.476588	0.003625	0.098764
C65	C	0.973137	-0.574724	-0.404438
C66	C	1.473137	-0.074724	0.095562
C67	C	1.018459	-0.607690	-0.362913
C68	C	1.518459	-0.107690	0.137087
C69	C	1.015218	-0.681308	-0.365929
C70	C	1.515218	-0.181308	0.134071
C71	C	0.966651	-0.721959	-0.410467
C72	C	1.466651	-0.221959	0.089533
C73	C	0.921327	-0.688989	-0.451998
C74	C	1.421327	-0.188989	0.048002
C75	C	0.924572	-0.615372	-0.448985
C76	C	1.424572	-0.115372	0.051015
C77	C	0.954507	-0.944426	-0.421721
C78	C	1.454507	-0.444426	0.078279
C79	C	0.951264	-1.018048	-0.424729
C80	C	1.451264	-0.518048	0.075271
C81	C	1.045157	-1.010363	-0.338661
C82	C	1.545157	-0.510363	0.161339
C83	C	1.048395	-0.936745	-0.335649
C84	C	1.548395	-0.436745	0.164351
C85	C	1.003073	-0.903781	-0.377182
C86	C	1.503073	-0.403781	0.122818
C87	C	0.963335	-0.797209	-0.413550
C88	C	1.463335	-0.297209	0.086450
C89	C	1.006393	-0.828532	-0.374103
C90	C	1.506393	-0.328532	0.125897
C91	C	1.167996	-0.305764	-0.401342
C92	C	1.667996	0.194236	0.098658
C93	C	1.246063	-0.302584	-0.404551
C94	C	1.746063	0.197416	0.095449
C95	C	0.976673	-0.321344	-0.576998
C96	C	1.476673	0.178656	-0.076998
C97	C	0.973209	-0.324803	-0.655062
C98	C	1.473209	0.175197	-0.155062
C99	C	0.993065	-0.129365	-0.386373
C100	C	1.493065	0.370635	0.113627
C101	C	0.996587	-0.051014	-0.383204
C102	C	1.496587	0.448986	0.116796
C103	C	1.018523	-0.279519	-0.691760
C104	C	1.518523	0.220481	-0.191760
C105	C	1.015260	-0.282766	-0.765109
C106	C	1.515260	0.217234	-0.265109
C107	C	0.966686	-0.331301	-0.801758
C108	C	1.466686	0.168699	-0.301758
C109	C	0.921368	-0.376587	-0.765054
C110	C	1.421368	0.123413	-0.265054
C111	C	0.924628	-0.373336	-0.691707
C112	C	1.424628	0.126664	-0.191707
C113	C	0.954491	-0.343462	-1.023219
C114	C	1.454491	0.156538	-0.523219
C115	C	0.951236	-0.346711	-1.096572
C116	C	1.451236	0.153289	-0.596572
C117	C	1.045127	-0.252889	-1.096621
C118	C	1.545127	0.247111	-0.596621
C119	C	1.048386	-0.249645	-1.023272
C120	C	1.548386	0.250355	-0.523272
C121	C	1.003065	-0.294928	-0.986575
C122	C	1.503065	0.205072	-0.486575
C123	C	0.963351	-0.334623	-0.876732
C124	C	1.463351	0.165377	-0.376732
C125	C	1.006397	-0.291602	-0.911602
C126	C	1.506397	0.208398	-0.411602
C127	C	0.992940	-0.305090	-0.211336
C128	C	1.492940	0.194910	0.288664
C129	C	0.996549	-0.301428	-0.133270
C130	C	1.496549	0.198572	0.366730
H131	H	0.717480	-0.246097	-0.461155
H132	H	1.217480	0.253903	0.038845
H133	H	0.917597	-0.380345	-0.993349
H134	H	1.417597	0.119655	-0.493349
H135	H	0.881785	-0.722093	-0.488265
H136	H	1.381785	-0.222093	0.011735
H137	H	1.082056	-1.037210	-0.304849
H138	H	1.582056	-0.537210	0.195151
H139	H	1.087942	-0.903648	-0.299382
H140	H	1.587942	-0.403648	0.200618
H141	H	0.584311	-0.407629	-0.299072
H142	H	1.084311	0.092371	0.200928
H143	H	0.911723	-1.051145	-0.461011
H144	H	1.411723	-0.551145	0.038989
H145	H	0.917604	-0.917593	-0.455537
H146	H	1.417604	-0.417593	0.044463
H147	H	1.052160	-0.245893	-0.794986
H148	H	1.552160	0.254107	-0.294986
H149	H	0.887667	-0.588532	-0.482800
H150	H	1.387667	-0.088532	0.017200
H151	H	0.923805	-0.374144	-0.906580
H152	H	1.423805	0.125856	-0.406580
H153	H	0.497631	-0.257250	-0.449982
H154	H	0.997631	0.242750	0.050018
H155	H	1.045939	-0.795432	-0.337842
H156	H	1.545939	-0.295432	0.162158
H157	H	0.385997	-0.218813	-0.488596
H158	H	0.885997	0.281187	0.011404
H159	H	0.252919	-0.224264	-0.483146
H160	H	0.752919	0.275736	0.016854
H161	H	1.052124	-0.708145	-0.332114
H162	H	1.552124	-0.208145	0.167886
H163	H	1.082024	-0.216022	-1.126508
H164	H	1.582024	0.283978	-0.626508
H165	H	0.472675	-0.369187	-0.337673
H166	H	0.972675	0.130813	0.162327
H167	H	0.923790	-0.830315	-0.449812
H168	H	1.423790	-0.330315	0.050188
H169	H	0.252830	-0.380353	-0.326515
H170	H	0.752830	0.119647	0.173485
H171	H	1.045943	-0.252083	-0.881759
H172	H	1.545943	0.247917	-0.381759
H173	H	0.887722	-0.410204	-0.661827
H174	H	1.387722	0.089796	-0.161827
H175	H	1.058079	-0.239998	-0.661926
H176	H	1.558079	0.260002	-0.161926
H177	H	0.385899	-0.374896	-0.331954
H178	H	0.885899	0.125104	0.168046
H179	H	1.087941	-0.210125	-0.993438
H180	H	1.587941	0.289875	-0.493438
H181	H	0.881815	-0.416103	-0.794900
H182	H	1.381815	0.083897	-0.294900
H183	H	0.911679	-0.386236	-1.126409
H184	H	1.411679	0.113764	-0.626409
H185	H	0.584412	-0.251546	-0.455705
H186	H	1.084412	0.248454	0.044295
H187	H	1.058005	-0.574597	-0.326641
H188	H	1.558005	-0.074597	0.173359
H189	H	0.717390	-0.402182	-0.304517
H190	H	1.217390	0.097818	0.195483
