data_functionalizedCrystal
_audit_creation_method	'MofGen! by Chris Wilmer'
_symmetry_space_group_name_H-M	'P1'
_symmetry_Int_Tables_number	1
_symmetry_cell_setting	triclinic
loop_
_symmetry_equiv_pos_as_xyz
  x,y,z
_cell_length_a	15.944551
_cell_length_b	10.489741
_cell_length_c	14.421503
_cell_angle_alpha	89.989654
_cell_angle_beta	90.002257
_cell_angle_gamma	84.018956
loop_
_atom_site_label
_atom_site_type_symbol
_atom_site_fract_x
_atom_site_fract_y
_atom_site_fract_z
O1	O	0.118496	1.692420	-0.077157
O2	O	0.129620	1.321070	-0.077150
O3	O	0.001844	1.516885	-0.077145
O4	O	0.246272	1.496604	-0.077161
O5	O	0.001861	1.516851	0.077078
O6	O	0.129637	1.321035	0.077074
O7	O	0.118513	1.692385	0.077066
Cu8	Cu	0.124076	1.506707	0.091152
Cu9	Cu	0.124057	1.506748	-0.091235
O10	O	0.246289	1.496569	0.077062
C11	C	-0.029446	1.516026	-0.000033
C12	C	-0.122708	1.513502	-0.000033
C13	C	0.128788	1.273532	-0.000037
C14	C	0.126275	1.131938	-0.000034
C15	C	0.119345	1.739922	-0.000048
C16	C	0.121858	1.881517	-0.000058
C17	C	-0.338330	1.386093	-0.000043
C18	C	-0.398984	1.445240	0.075997
C19	C	-0.293461	1.508935	-0.000040
C20	C	-0.398983	1.445303	-0.076055
C21	C	-0.458400	1.504515	-0.000051
C22	C	-0.352886	1.568117	0.076063
C23	C	-0.352879	1.568162	-0.076057
C24	C	-0.413515	1.627399	0.000002
C25	C	-0.198443	1.511478	-0.000033
C26	C	-0.553417	1.501982	-0.000051
C27	C	0.277579	1.497429	-0.000052
C28	C	0.370841	1.499953	-0.000059
N29	N	0.124089	1.506688	0.219433
C30	C	0.203158	1.948530	-0.000053
C31	C	0.164745	2.041206	-0.076088
C32	C	0.164742	2.041139	0.075965
C33	C	0.083411	1.972328	-0.076155
C34	C	0.083420	1.972251	0.075966
C35	C	0.044947	2.064901	-0.000087
C36	C	0.183648	1.416883	0.530884
C37	C	0.107823	1.391076	0.469062
C38	C	0.124061	1.506732	0.591322
C39	C	0.199898	1.532457	0.469051
C40	C	0.124079	1.506707	0.408601
C41	C	0.048198	1.480867	0.530861
C42	C	0.140322	1.622300	0.530855
C43	C	0.064442	1.596541	0.469060
C44	C	0.124052	1.506744	0.696583
C45	C	0.124080	1.506696	0.303342
N46	N	0.124050	1.506756	0.780484
H47	H	-0.305636	1.284128	0.000035
H48	H	0.270003	1.897955	-0.000135
H49	H	0.264027	1.554244	0.441918
H50	H	-0.332444	1.620090	-0.140349
H51	H	0.049056	1.941665	0.140256
O52	O	-0.043673	2.131603	-0.000133
H53	H	-0.053461	2.191771	0.063024
H54	H	-0.419398	1.393268	0.140285
O55	O	0.210326	2.081525	0.161120
H56	H	0.275980	2.034449	0.160946
H57	H	0.014004	1.672517	0.442087
O58	O	0.089598	1.261612	0.433101
H59	H	0.143158	1.220314	0.389688
H60	H	0.199139	2.071764	-0.140372
O61	O	0.037867	1.932151	-0.161399
H62	H	0.017081	2.018059	-0.203721
O63	O	0.250305	1.316194	0.566865
H64	H	0.236603	1.220340	0.542121
O65	O	0.158564	1.751740	0.566830
H66	H	0.104478	1.793880	0.609134
H67	H	-0.419379	1.393344	-0.140345
H68	H	-0.015943	1.458984	0.557897
H69	H	-0.332577	1.620016	0.140420
H70	H	-0.446060	1.729454	0.000043
