data_functionalizedCrystal
_audit_creation_method	'MofGen! by Chris Wilmer'
_symmetry_space_group_name_H-M	'P1'
_symmetry_Int_Tables_number	1
_symmetry_cell_setting	triclinic
loop_
_symmetry_equiv_pos_as_xyz
  x,y,z
_cell_length_a	17.077404
_cell_length_b	21.295417
_cell_length_c	17.077395
_cell_angle_alpha	89.968068
_cell_angle_beta	89.984359
_cell_angle_gamma	90.030732
loop_
_atom_site_label
_atom_site_type_symbol
_atom_site_fract_x
_atom_site_fract_y
_atom_site_fract_z
Zn1	Zn	1.199983	-0.250613	-0.443817
Zn2	Zn	1.533316	0.082720	-0.110484
Zn3	Zn	1.866650	0.416053	0.222850
Zn4	Zn	1.199882	-0.355884	-0.312540
Zn5	Zn	1.533215	-0.022551	0.020793
Zn6	Zn	1.866548	0.310783	0.354126
Zn7	Zn	1.068724	-0.250633	-0.312565
Zn8	Zn	1.402057	0.082700	0.020768
Zn9	Zn	1.735390	0.416034	0.354102
Zn10	Zn	1.068665	-0.355849	-0.443764
Zn11	Zn	1.401999	-0.022516	-0.110430
Zn12	Zn	1.735332	0.310818	0.222903
O13	O	1.134314	-0.303245	-0.378171
O14	O	1.467647	0.030089	-0.044838
O15	O	1.800980	0.363422	0.288495
O16	O	1.309817	-0.264584	-0.426415
O17	O	1.643150	0.068749	-0.093081
O18	O	1.976483	0.402083	0.240252
O19	O	1.182465	-0.341945	-0.202697
O20	O	1.515799	-0.008612	0.130637
O21	O	1.849132	0.324721	0.463970
O22	O	1.086203	-0.162541	-0.330008
O23	O	1.419536	0.170792	0.003325
O24	O	1.752869	0.504126	0.336658
O25	O	1.309742	-0.341926	-0.329966
O26	O	1.643075	-0.008593	0.003367
O27	O	1.976409	0.324741	0.336700
O28	O	1.182638	-0.162526	-0.426439
O29	O	1.515972	0.170807	-0.093105
O30	O	1.849305	0.504140	0.240228
O31	O	1.086104	-0.264618	-0.202715
O32	O	1.419437	0.068716	0.130619
O33	O	1.752771	0.402049	0.463952
O34	O	0.958869	-0.264584	-0.329957
O35	O	1.292202	0.068750	0.003376
O36	O	1.625536	0.402083	0.336710
O37	O	1.086103	-0.341866	-0.553618
O38	O	1.419436	-0.008533	-0.220284
O39	O	1.752770	0.324800	0.113049
O40	O	0.958826	-0.341885	-0.426348
O41	O	1.292160	-0.008552	-0.093015
O42	O	1.625493	0.324781	0.240319
O43	O	1.182582	-0.264550	-0.553657
O44	O	1.515915	0.068783	-0.220324
O45	O	1.849248	0.402117	0.113010
O46	O	1.182409	-0.443969	-0.329915
O47	O	1.515742	-0.110635	0.003419
O48	O	1.849075	0.222698	0.336752
O49	O	1.086005	-0.443943	-0.426324
O50	O	1.419338	-0.110610	-0.092991
O51	O	1.752671	0.222724	0.240343
C52	C	0.930366	-0.303233	-0.378150
C53	C	1.263699	0.030100	-0.044816
C54	C	1.597032	0.363433	0.288517
C55	C	0.843116	-0.303244	-0.378159
C56	C	1.176449	0.030090	-0.044826
C57	C	1.509783	0.363423	0.288507
C58	C	0.802124	-0.343555	-0.428270
C59	C	1.135457	-0.010222	-0.094936
C60	C	1.468791	0.323111	0.238397
C61	C	0.720143	-0.343557	-0.428282
C62	C	1.053477	-0.010223	-0.094949
C63	C	1.386810	0.323110	0.238385
C64	C	0.679156	-0.303249	-0.378180
C65	C	1.012490	0.030084	-0.044846
C66	C	1.345823	0.363418	0.288487
C67	C	0.720154	-0.262933	-0.328067
C68	C	1.053487	0.070400	0.005266
C69	C	1.386821	0.403734	0.338600
C70	C	0.802133	-0.262929	-0.328059
C71	C	1.135466	0.070404	0.005274
C72	C	1.468800	0.403738	0.338608
C73	C	0.549284	-0.262945	-0.328086
C74	C	0.882617	0.070388	0.005247
C75	C	1.215951	0.403721	0.338581
C76	C	0.467299	-0.262950	-0.328093
C77	C	0.800633	0.070383	0.005241
C78	C	1.133966	0.403717	0.338574
C79	C	0.467294	-0.343573	-0.428309
C80	C	0.800628	-0.010240	-0.094976
C81	C	1.133961	0.323093	0.238358
C82	C	0.549273	-0.343569	-0.428301
C83	C	0.882607	-0.010236	-0.094968
C84	C	1.215940	0.323097	0.238366
C85	C	0.590265	-0.303254	-0.378187
C86	C	0.923599	0.030080	-0.044854
C87	C	1.256932	0.363413	0.288480
C88	C	1.134211	-0.466796	-0.378128
C89	C	1.467544	-0.133463	-0.044795
C90	C	1.800877	0.199870	0.288539
C91	C	1.134238	-0.536765	-0.378136
C92	C	1.467572	-0.203431	-0.044802
C93	C	1.800905	0.129902	0.288531
C94	C	1.184481	-0.569624	-0.327987
C95	C	1.517814	-0.236290	0.005347
C96	C	1.851147	0.097043	0.338680
C97	C	1.184517	-0.635366	-0.328004
C98	C	1.517851	-0.302033	0.005329
C99	C	1.851184	0.031300	0.338662
C100	C	1.134298	-0.668247	-0.378163
C101	C	1.467631	-0.334914	-0.044829
C102	C	1.800965	-0.001580	0.288504
C103	C	1.084052	-0.635380	-0.428321
C104	C	1.417386	-0.302047	-0.094988
C105	C	1.750719	0.031287	0.238345
C106	C	1.084023	-0.569639	-0.428308
C107	C	1.417356	-0.236305	-0.094975
C108	C	1.750689	0.097028	0.238359
N109	N	1.065629	-0.771513	-0.384140
N110	N	1.398962	-0.438180	-0.050806
N111	N	1.732295	-0.104846	0.282527
N112	N	1.065659	-0.833964	-0.384148
N113	N	1.398993	-0.500631	-0.050815
N114	N	1.732326	-0.167298	0.282519
C115	C	1.134386	-0.866322	-0.378208
C116	C	1.467719	-0.532988	-0.044874
C117	C	1.801053	-0.199655	0.288459
N118	N	1.203082	-0.833868	-0.372244
N119	N	1.536416	-0.500535	-0.038910
N120	N	1.869749	-0.167202	0.294423
N121	N	1.203051	-0.771411	-0.372231
N122	N	1.536384	-0.438078	-0.038898
N123	N	1.869718	-0.104744	0.294435
C124	C	1.134325	-0.739532	-0.378183
C125	C	1.467658	-0.406199	-0.044850
C126	C	1.800992	-0.072866	0.288483
C127	C	1.184672	-0.970466	-0.328075
C128	C	1.518005	-0.637133	0.005258
C129	C	1.851339	-0.303800	0.338591
C130	C	1.184710	-1.036210	-0.328098
C131	C	1.518044	-0.702877	0.005235
C132	C	1.851377	-0.369543	0.338568
C133	C	1.084238	-1.036223	-0.428411
C134	C	1.417572	-0.702889	-0.095078
C135	C	1.750905	-0.369556	0.238255
C136	C	1.084207	-0.970480	-0.428392
C137	C	1.417540	-0.637147	-0.095059
C138	C	1.750874	-0.303813	0.238274
C139	C	1.134423	-0.937606	-0.378220
C140	C	1.467756	-0.604273	-0.044887
C141	C	1.801090	-0.270939	0.288447
C142	C	1.339058	-0.303257	-0.378194
C143	C	1.672391	0.030077	-0.044860
C144	C	2.005724	0.363410	0.288473
C145	C	1.426308	-0.303262	-0.378203
C146	C	1.759641	0.030072	-0.044870
C147	C	2.092974	0.363405	0.288464
C148	C	1.134347	-0.303202	-0.582916
C149	C	1.467681	0.030131	-0.249583
C150	C	1.801014	0.363465	0.083751
C151	C	1.134362	-0.303184	-0.670166
C152	C	1.467695	0.030149	-0.336832
C153	C	1.801028	0.363483	-0.003499
C154	C	1.134438	-0.139055	-0.378232
C155	C	1.467772	0.194279	-0.044899
C156	C	1.801105	0.527612	0.288434
C157	C	1.134491	-0.069086	-0.378258
C158	C	1.467825	0.264247	-0.044925
C159	C	1.801158	0.597580	0.288408
C160	C	1.184685	-0.262840	-1.046002
C161	C	1.518018	0.070493	-0.712669
C162	C	1.851352	0.403827	-0.379335
C163	C	1.184669	-0.262862	-0.964021
C164	C	1.518002	0.070471	-0.630688
C165	C	1.851336	0.403805	-0.297355
C166	C	1.134426	-0.303124	-0.923015
C167	C	1.467760	0.030209	-0.589681
C168	C	1.801093	0.363542	-0.256348
C169	C	1.084202	-0.343372	-0.963993
C170	C	1.417535	-0.010038	-0.630660
C171	C	1.750869	0.323295	-0.297326
C172	C	1.084222	-0.343352	-1.045972
C173	C	1.417556	-0.010019	-0.712639
C174	C	1.750889	0.323314	-0.379305
C175	C	1.084161	-0.343408	-0.793123
C176	C	1.417495	-0.010075	-0.459789
C177	C	1.750828	0.323258	-0.126456
C178	C	1.084139	-0.343427	-0.711138
C179	C	1.417473	-0.010094	-0.377805
C180	C	1.750806	0.323240	-0.044471
C181	C	1.184608	-0.262918	-0.711172
C182	C	1.517941	0.070416	-0.377839
C183	C	1.851274	0.403749	-0.044506
C184	C	1.184628	-0.262898	-0.793151
C185	C	1.517962	0.070435	-0.459818
C186	C	1.851295	0.403768	-0.126485
C187	C	1.134403	-0.303145	-0.834124
C188	C	1.467736	0.030188	-0.500790
C189	C	1.801069	0.363522	-0.167457
C190	C	1.134325	-0.303242	-0.174224
C191	C	1.467658	0.030091	0.159110
C192	C	1.800992	0.363425	0.492443
C193	C	1.134463	-0.303083	-0.086974
C194	C	1.467796	0.030250	0.246359
C195	C	1.801130	0.363584	0.579692
H196	H	0.835508	-0.230100	-0.287258
H197	H	1.168841	0.103234	0.046075
H198	H	1.502174	0.436567	0.379408
H199	H	1.225537	-0.230110	-0.826537
H200	H	1.558870	0.103223	-0.493203
H201	H	1.892204	0.436556	-0.159870
H202	H	0.686776	-0.230111	-0.287276
H203	H	1.020109	0.103222	0.046057
H204	H	1.353443	0.436556	0.379390
H205	H	1.043292	-0.943724	-0.469225
H206	H	1.376625	-0.610391	-0.135892
H207	H	1.709959	-0.277058	0.197442
H208	H	1.225371	-0.542859	-0.287136
H209	H	1.558704	-0.209526	0.046198
H210	H	1.892038	0.123807	0.379531
H211	H	0.835490	-0.376381	-0.469066
H212	H	1.168823	-0.043047	-0.135733
H213	H	1.502156	0.290286	0.197600
H214	H	1.225564	-0.943699	-0.287224
H215	H	1.558897	-0.610366	0.046109
H216	H	1.892230	-0.277033	0.379442
H217	H	1.043352	-1.062994	-0.469255
H218	H	1.376685	-0.729660	-0.135921
H219	H	1.710019	-0.396327	0.197412
H220	H	1.225433	-0.662125	-0.287167
H221	H	1.558767	-0.328792	0.046166
H222	H	1.892100	0.004541	0.379499
H223	H	1.225567	-0.230094	-0.930665
H224	H	1.558900	0.103240	-0.597332
H225	H	1.892234	0.436573	-0.263999
H226	H	1.043327	-0.376123	-1.079331
H227	H	1.376660	-0.042790	-0.745997
H228	H	1.709994	0.290544	-0.412664
H229	H	0.433915	-0.376398	-0.469116
H230	H	0.767248	-0.043064	-0.135783
H231	H	1.100582	0.290269	0.197551
H232	H	0.686771	-0.376383	-0.469086
H233	H	1.020105	-0.043050	-0.135753
H234	H	1.353438	0.290283	0.197580
H235	H	1.043165	-0.662156	-0.469162
H236	H	1.376498	-0.328822	-0.135829
H237	H	1.709831	0.004511	0.197505
H238	H	1.225502	-0.230146	-0.677809
H239	H	1.558835	0.103187	-0.344475
H240	H	1.892168	0.436521	-0.011142
H241	H	1.043209	-0.376198	-0.677753
H242	H	1.376543	-0.042864	-0.344419
H243	H	1.709876	0.290469	-0.011086
H244	H	1.043264	-0.376183	-0.826480
H245	H	1.376598	-0.042850	-0.493147
H246	H	1.709931	0.290483	-0.159813
H247	H	0.582643	-0.376395	-0.469094
H248	H	0.915976	-0.043061	-0.135761
H249	H	1.249310	0.290272	0.197572
H250	H	0.433930	-0.230121	-0.287304
H251	H	0.767263	0.103213	0.046029
H252	H	1.100597	0.436546	0.379362
H253	H	1.225594	-0.230049	-1.079384
H254	H	1.558927	0.103284	-0.746050
H255	H	1.892260	0.436617	-0.412717
H256	H	1.225628	-1.062963	-0.287263
H257	H	1.558962	-0.729630	0.046071
H258	H	1.892295	-0.396296	0.379404
H259	H	1.043297	-0.376157	-0.930599
H260	H	1.376630	-0.042824	-0.597265
H261	H	1.709964	0.290510	-0.263932
H262	H	0.582657	-0.230111	-0.287285
H263	H	0.915991	0.103223	0.046048
H264	H	1.249324	0.436556	0.379382
H265	H	1.043109	-0.542884	-0.469146
H266	H	1.376442	-0.209551	-0.135813
H267	H	1.709775	0.123782	0.197521
