data_functionalizedCrystal
_audit_creation_method	'MofGen! by Chris Wilmer'
_symmetry_space_group_name_H-M	'P1'
_symmetry_Int_Tables_number	1
_symmetry_cell_setting	triclinic
loop_
_symmetry_equiv_pos_as_xyz
  x,y,z
_cell_length_a	10.540539
_cell_length_b	14.853567
_cell_length_c	13.930277
_cell_angle_alpha	90.000757
_cell_angle_beta	90.005158
_cell_angle_gamma	84.080211
loop_
_atom_site_label
_atom_site_type_symbol
_atom_site_fract_x
_atom_site_fract_y
_atom_site_fract_z
O1	O	-1.684495	-0.127051	-0.079777
O2	O	-1.314950	-0.139022	-0.079788
O3	O	-1.509593	-0.001861	-0.079785
O4	O	-1.489851	-0.264211	-0.079780
O5	O	-1.509566	-0.001858	0.079877
O6	O	-1.314923	-0.139019	0.079874
O7	O	-1.684468	-0.127048	0.079885
Zn8	Zn	-1.499691	-0.133033	0.105229
Zn9	Zn	-1.499727	-0.133037	-0.105132
O10	O	-1.489824	-0.264208	0.079882
C11	C	-1.508685	0.031734	0.000043
C12	C	-1.506005	0.131832	0.000035
C13	C	-1.267643	-0.138122	0.000042
C14	C	-1.126725	-0.135437	0.000037
C15	C	-1.731774	-0.127947	0.000054
C16	C	-1.872693	-0.130633	0.000052
C17	C	-0.944430	-0.032519	0.000408
C18	C	-1.091018	-0.035242	0.000038
C19	C	-1.064537	-0.183656	-0.091133
C20	C	-0.918030	-0.180237	-0.091200
C21	C	-0.917489	-0.182272	0.090366
C22	C	-1.064460	-0.183194	0.091561
C23	C	-1.490732	-0.297803	0.000052
C24	C	-1.493413	-0.397902	0.000054
N25	N	-1.499676	-0.133029	0.248795
C26	C	-1.379051	0.545071	0.000049
C27	C	-1.610292	0.565069	0.000056
C28	C	-1.612812	0.471021	0.000051
C29	C	-1.498450	0.413994	0.000046
C30	C	-1.381568	0.451014	0.000047
C31	C	-1.729693	0.433993	0.000059
C32	C	-1.732218	0.339940	0.000055
C33	C	-1.617854	0.282911	0.000043
C34	C	-1.500967	0.319937	0.000043
C35	C	-1.386605	0.262910	0.000038
C36	C	-1.269717	0.299934	0.000031
C37	C	-1.267204	0.393985	0.000035
C38	C	-1.620367	0.188860	0.000040
C39	C	-1.389122	0.168853	0.000036
N40	N	-1.499752	-0.133033	-0.248698
C41	C	-1.413535	-0.193747	0.701063
C42	C	-1.585953	-0.072320	0.701035
C43	C	-1.585938	-0.072317	0.600540
C44	C	-1.499721	-0.133031	0.550301
C45	C	-1.413520	-0.193748	0.600558
C46	C	-1.672146	-0.011607	0.550275
C47	C	-1.672136	-0.011602	0.449773
C48	C	-1.585912	-0.072313	0.399533
C49	C	-1.499706	-0.133032	0.449796
C50	C	-1.413490	-0.193746	0.399558
C51	C	-1.327277	-0.254461	0.449819
C52	C	-1.327296	-0.254459	0.550318
C53	C	-1.585892	-0.072315	0.299034
C54	C	-1.413474	-0.193747	0.299053
H55	H	-1.134039	0.002699	0.065393
H56	H	-1.257084	-0.303899	0.408904
N57	N	-1.252983	0.584995	0.000037
H58	H	-1.268734	0.653230	0.000037
H59	H	-1.202923	0.564188	0.059224
H60	H	-1.656091	-0.022886	0.258116
H61	H	-1.656154	-0.022892	0.741943
H62	H	-1.742333	0.037836	0.408856
N63	N	-0.853400	-0.275672	-0.096689
H64	H	-0.797773	-0.288553	-0.038241
H65	H	-0.920187	-0.319732	-0.099089
H66	H	-1.257106	-0.303892	0.591247
N67	N	-1.746421	0.148924	0.000057
H68	H	-1.818486	0.199322	0.000067
H69	H	-1.752521	0.110341	-0.059133
H70	H	-0.886287	-0.149845	0.159472
H71	H	-1.343338	-0.243179	0.741989
H72	H	-1.822800	0.480431	0.000072
H73	H	-1.742348	0.037821	0.591182
N74	N	-1.733634	0.626570	0.000077
H75	H	-1.714303	0.691769	0.000083
H76	H	-1.784578	0.614506	-0.059110
H77	H	-1.107505	-0.150162	-0.158986
N78	N	-0.853857	-0.278126	0.091200
H79	H	-0.882993	-0.310970	0.149379
H80	H	-0.877719	-0.310383	0.031038
N81	N	-1.858282	0.300010	0.000063
H82	H	-1.930345	0.350408	0.000068
H83	H	-1.864374	0.261427	-0.059129
H84	H	-1.176604	0.253490	0.000034
H85	H	-0.914668	0.006895	-0.064613
N86	N	-0.907139	0.019916	0.087018
H87	H	-0.843376	-0.019415	0.126866
H88	H	-0.867720	0.075597	0.065193
H89	H	-1.172040	0.424139	0.000030
H90	H	-1.105799	-0.147968	0.159008
N91	N	-1.320470	-0.259230	0.244877
H92	H	-1.335192	-0.323318	0.262366
H93	H	-1.333582	-0.249945	0.173601
N94	N	-1.146886	0.015366	-0.086685
H95	H	-1.109113	-0.014093	-0.147001
H96	H	-1.242448	0.013801	-0.087201
N97	N	-0.881184	-0.133032	-0.181470
H98	H	-0.960077	-0.114636	-0.220844
H99	H	-0.838711	-0.077426	-0.163718
H100	H	-1.086081	-0.257237	-0.094524
H101	H	-1.087882	-0.256243	0.097067
H102	H	-1.295993	0.122427	0.000028
