data_functionalizedCrystal
_audit_creation_method	'MofGen! by Chris Wilmer'
_symmetry_space_group_name_H-M	'P1'
_symmetry_Int_Tables_number	1
_symmetry_cell_setting	triclinic
loop_
_symmetry_equiv_pos_as_xyz
  x,y,z
_cell_length_a	16.959455
_cell_length_b	16.120484
_cell_length_c	16.120256
_cell_angle_alpha	95.616173
_cell_angle_beta	92.879573
_cell_angle_gamma	92.922454
loop_
_atom_site_label
_atom_site_type_symbol
_atom_site_fract_x
_atom_site_fract_y
_atom_site_fract_z
Zn1	Zn	1.167702	-0.356828	-0.489438
Zn2	Zn	1.501035	-0.023494	-0.156104
Zn3	Zn	1.834368	0.309839	0.177229
Zn4	Zn	1.167602	-0.489513	-0.356747
Zn5	Zn	1.500936	-0.156180	-0.023414
Zn6	Zn	1.834269	0.177153	0.309919
Zn7	Zn	1.042579	-0.349752	-0.349685
Zn8	Zn	1.375913	-0.016419	-0.016352
Zn9	Zn	1.709246	0.316914	0.316982
Zn10	Zn	1.028427	-0.496551	-0.496473
Zn11	Zn	1.361760	-0.163218	-0.163140
Zn12	Zn	1.695094	0.170116	0.170194
O13	O	1.101578	-0.423161	-0.423086
O14	O	1.434911	-0.089828	-0.089752
O15	O	1.768244	0.243506	0.243581
O16	O	1.278298	-0.374444	-0.471847
O17	O	1.611631	-0.041111	-0.138514
O18	O	1.944965	0.292222	0.194819
O19	O	1.156899	-0.465067	-0.238848
O20	O	1.490233	-0.131734	0.094486
O21	O	1.823566	0.201599	0.427819
O22	O	1.065142	-0.233726	-0.362323
O23	O	1.398475	0.099607	-0.028990
O24	O	1.731808	0.432941	0.304343
O25	O	1.278225	-0.471928	-0.374360
O26	O	1.611559	-0.138595	-0.041027
O27	O	1.944892	0.194739	0.292306
O28	O	1.157068	-0.238924	-0.464999
O29	O	1.490402	0.094409	-0.131666
O30	O	1.823735	0.427743	0.201668
O31	O	1.065045	-0.362386	-0.233659
O32	O	1.398379	-0.029052	0.099674
O33	O	1.731712	0.304281	0.433008
O34	O	0.930093	-0.369210	-0.369145
O35	O	1.263426	-0.035877	-0.035812
O36	O	1.596759	0.297457	0.297521
O37	O	1.041021	-0.483923	-0.612502
O38	O	1.374354	-0.150589	-0.279169
O39	O	1.707687	0.182744	0.054164
O40	O	0.919695	-0.477062	-0.476990
O41	O	1.253028	-0.143729	-0.143656
O42	O	1.586361	0.189604	0.189677
O43	O	1.143345	-0.381269	-0.607333
O44	O	1.476679	-0.047935	-0.274000
O45	O	1.810012	0.285398	0.059333
O46	O	1.143176	-0.607412	-0.381182
O47	O	1.476509	-0.274079	-0.047849
O48	O	1.809843	0.059255	0.285485
O49	O	1.040924	-0.612583	-0.483838
O50	O	1.374258	-0.279249	-0.150505
O51	O	1.707591	0.054084	0.182829
C52	C	0.896214	-0.423133	-0.423065
C53	C	1.229547	-0.089799	-0.089732
C54	C	1.562880	0.243534	0.243602
C55	C	0.808356	-0.423142	-0.423077
C56	C	1.141689	-0.089808	-0.089744
C57	C	1.475023	0.243525	0.243590
C58	C	0.442265	-0.366964	-0.367040
C59	C	0.775599	-0.033631	-0.033707
C60	C	1.108932	0.299702	0.299626
C61	C	0.431487	-0.479429	-0.479182
C62	C	0.764820	-0.146096	-0.145849
C63	C	1.098154	0.187238	0.187485
C64	C	0.514034	-0.479417	-0.479176
C65	C	0.847367	-0.146084	-0.145843
C66	C	1.180700	0.187250	0.187490
C67	C	0.560700	-0.423178	-0.423101
C68	C	0.894034	-0.089845	-0.089768
C69	C	1.227367	0.243488	0.243566
C70	C	0.524820	-0.366952	-0.367031
C71	C	0.858153	-0.033619	-0.033698
C72	C	1.191487	0.299715	0.299635
C73	C	0.549920	-0.535648	-0.535239
C74	C	0.883254	-0.202315	-0.201906
C75	C	1.216587	0.131019	0.131427
C76	C	0.632472	-0.535638	-0.535235
C77	C	0.965805	-0.202305	-0.201902
C78	C	1.299138	0.131028	0.131431
C79	C	0.679140	-0.479395	-0.479163
C80	C	1.012473	-0.146062	-0.145830
C81	C	1.345807	0.187271	0.187503
C82	C	0.643255	-0.423166	-0.423092
C83	C	0.976588	-0.089833	-0.089759
C84	C	1.309921	0.243501	0.243575
C85	C	0.689921	-0.366928	-0.367016
C86	C	1.023255	-0.033594	-0.033683
C87	C	1.356588	0.299739	0.299650
C88	C	0.654038	-0.310694	-0.310948
C89	C	0.987371	0.022640	0.022385
C90	C	1.320705	0.355973	0.355718
C91	C	0.571488	-0.310709	-0.310959
C92	C	0.904822	0.022625	0.022374
C93	C	1.238155	0.355958	0.355707
C94	C	0.761690	-0.479380	-0.479153
C95	C	1.095023	-0.146047	-0.145819
C96	C	1.428356	0.187287	0.187514
C97	C	0.772476	-0.366915	-0.367007
C98	C	1.105809	-0.033582	-0.033674
C99	C	1.439143	0.299751	0.299659
C100	C	1.090524	-0.640326	-0.434058
C101	C	1.423858	-0.306993	-0.100725
C102	C	1.757191	0.026341	0.232609
C103	C	1.085866	-0.733231	-0.438780
C104	C	1.419200	-0.399898	-0.105447
C105	C	1.752533	-0.066565	0.227887
C106	C	1.077366	-0.903331	-0.447418
C107	C	1.410700	-0.569998	-0.114085
C108	C	1.744033	-0.236665	0.219248
C109	C	1.125930	-0.942151	-0.398767
C110	C	1.459263	-0.608818	-0.065433
C111	C	1.792597	-0.275485	0.267900
C112	C	1.121200	-1.036801	-0.403573
C113	C	1.454534	-0.703467	-0.070240
C114	C	1.787867	-0.370134	0.263094
C115	C	1.082095	-0.808673	-0.442613
C116	C	1.415428	-0.475340	-0.109280
C117	C	1.748761	-0.142007	0.224054
C118	C	1.307743	-0.423190	-0.423107
C119	C	1.641077	-0.089857	-0.089773
C120	C	1.974410	0.243476	0.243560
C121	C	1.395599	-0.423203	-0.423116
C122	C	1.728932	-0.089870	-0.089782
C123	C	2.062266	0.243464	0.243551
C124	C	1.090615	-0.434170	-0.641093
C125	C	1.423949	-0.100837	-0.307760
C126	C	1.757282	0.232497	0.025574
C127	C	1.085944	-0.438861	-0.733995
C128	C	1.419277	-0.105528	-0.400661
C129	C	1.752611	0.227805	-0.067328
C130	C	1.112695	-0.205149	-0.412089
C131	C	1.446028	0.128184	-0.078755
C132	C	1.779362	0.461517	0.254578
C133	C	1.117432	-0.112246	-0.407402
C134	C	1.450766	0.221088	-0.074069
C135	C	1.784099	0.554421	0.259264
C136	C	1.125938	-0.398675	-0.942920
C137	C	1.459272	-0.065342	-0.609586
C138	C	1.792605	0.267992	-0.276253
C139	C	1.077390	-0.447392	-0.904080
C140	C	1.410724	-0.114058	-0.570746
C141	C	1.744057	0.219275	-0.237413
C142	C	1.082151	-0.442644	-0.809435
C143	C	1.415484	-0.109311	-0.476102
C144	C	1.748818	0.224023	-0.142769
C145	C	1.121179	-0.403422	-1.037572
C146	C	1.454512	-0.070088	-0.704239
C147	C	1.787845	0.263245	-0.370906
C148	C	1.112546	-0.412135	-0.205923
C149	C	1.445879	-0.078802	0.127410
C150	C	1.779212	0.254532	0.460743
C151	C	1.117382	-0.407208	-0.113010
C152	C	1.450716	-0.073875	0.220323
C153	C	1.784049	0.259459	0.553656
H154	H	0.692045	-0.264908	-0.265288
H155	H	1.025378	0.068426	0.068045
H156	H	1.358711	0.401759	0.401378
H157	H	1.032248	-0.492660	-0.941907
H158	H	1.365581	-0.159327	-0.608574
H159	H	1.698914	0.174006	-0.275241
H160	H	1.171058	-0.904302	-0.353505
H161	H	1.504391	-0.570969	-0.020171
H162	H	1.837725	-0.237635	0.313162
O163	O	1.023504	-0.948351	-0.501481
O164	O	1.356837	-0.615018	-0.168148
O165	O	1.690171	-0.281685	0.165185
C166	C	0.979258	-0.893621	-0.545760
C167	C	1.312591	-0.560288	-0.212426
C168	C	1.645924	-0.226955	0.120907
H169	H	1.014532	-0.831481	-0.545592
H170	H	1.347865	-0.498147	-0.212259
H171	H	1.681198	-0.164814	0.121074
H172	H	0.966221	-0.922234	-0.612861
H173	H	1.299554	-0.588900	-0.279528
H174	H	1.632887	-0.255567	0.053805
H175	H	0.921244	-0.882894	-0.514632
H176	H	1.254577	-0.549561	-0.181299
H177	H	1.587910	-0.216228	0.152035
H178	H	1.171074	-0.353406	-0.905094
H179	H	1.504407	-0.020073	-0.571761
H180	H	1.837741	0.313261	-0.238428
H181	H	0.542264	-0.264927	-0.265311
H182	H	0.875598	0.068406	0.068023
H183	H	1.208931	0.401739	0.401356
O184	O	0.817889	-0.312398	-0.312498
O185	O	1.151222	0.020935	0.020835
O186	O	1.484556	0.354268	0.354168
C187	C	0.865919	-0.357166	-0.260815
C188	C	1.199252	-0.023833	0.072519
C189	C	1.532586	0.309500	0.405852
H190	H	0.873595	-0.422038	-0.293389
H191	H	1.206929	-0.088704	0.039944
H192	H	1.540262	0.244629	0.373278
H193	H	0.926256	-0.322534	-0.247940
H194	H	1.259590	0.010799	0.085394
H195	H	1.592923	0.344132	0.418727
H196	H	0.836745	-0.363127	-0.199323
H197	H	1.170078	-0.029794	0.134010
H198	H	1.503411	0.303540	0.467343
O199	O	0.407286	-0.312421	-0.312609
O200	O	0.740619	0.020913	0.020724
O201	O	1.073953	0.354246	0.354057
C202	C	0.324418	-0.324468	-0.324655
C203	C	0.657752	0.008865	0.008679
C204	C	0.991085	0.342199	0.342012
H205	H	0.308496	-0.390394	-0.355183
H206	H	0.641830	-0.057060	-0.021850
H207	H	0.975163	0.276273	0.311483
H208	H	0.296474	-0.315540	-0.261770
H209	H	0.629807	0.017794	0.071563
H210	H	0.963140	0.351127	0.404897
H211	H	0.301275	-0.277213	-0.366749
H212	H	0.634609	0.056120	-0.033416
H213	H	0.967942	0.389453	0.299918
H214	H	0.393486	-0.525221	-0.524832
H215	H	0.726820	-0.191887	-0.191498
H216	H	1.060153	0.141446	0.141835
H217	H	0.511919	-0.581440	-0.580887
H218	H	0.845252	-0.248107	-0.247554
H219	H	1.178585	0.085227	0.085779
H220	H	0.661681	-0.581427	-0.580890
H221	H	0.995014	-0.248094	-0.247557
H222	H	1.328348	0.085240	0.085777
H223	H	0.790902	-0.525167	-0.524800
H224	H	1.124236	-0.191834	-0.191466
H225	H	1.457569	0.141499	0.141867
