data_functionalizedCrystal
_audit_creation_method	'MofGen! by Chris Wilmer'
_symmetry_space_group_name_H-M	'P1'
_symmetry_Int_Tables_number	1
_symmetry_cell_setting	triclinic
loop_
_symmetry_equiv_pos_as_xyz
  x,y,z
_cell_length_a	8.965430
_cell_length_b	14.519709
_cell_length_c	14.519731
_cell_angle_alpha	96.315501
_cell_angle_beta	90.000564
_cell_angle_gamma	90.001799
loop_
_atom_site_label
_atom_site_type_symbol
_atom_site_fract_x
_atom_site_fract_y
_atom_site_fract_z
O1	O	0.123848	-1.223877	0.120883
O2	O	0.123895	-0.955401	0.135120
O3	O	0.123857	-1.096747	-0.006236
O4	O	0.123886	-1.082531	0.262238
O5	O	-0.124222	-1.096735	-0.006226
O6	O	-0.124184	-0.955389	0.135129
O7	O	-0.124230	-1.223865	0.120893
Cu8	Cu	-0.146859	-1.089626	0.128012
Cu9	Cu	0.146523	-1.089640	0.128000
O10	O	-0.124193	-1.082519	0.262248
C11	C	-0.000139	-0.921035	0.134461
C12	C	-0.000122	-0.818654	0.132473
C13	C	-0.000183	-1.096075	-0.040591
C14	C	-0.000183	-1.094079	-0.142971
N15	N	-0.353208	-1.089622	0.128019
C16	C	-0.450496	-1.024235	0.193370
C17	C	-0.549922	-1.107603	0.211402
C18	C	-0.549910	-1.006290	0.109994
C19	C	-0.450445	-1.173032	0.146093
C20	C	-0.450424	-1.071665	0.044649
C21	C	-0.549805	-1.155093	0.062646
N22	N	0.352872	-1.089650	0.127986
C23	C	-0.000193	-1.258230	0.121551
C24	C	-0.000201	-1.360612	0.123539
C25	C	-0.000191	-0.443757	0.125153
C26	C	-0.000171	-0.548065	0.127186
C27	C	-0.000155	-0.631202	0.128813
C28	C	-0.000138	-0.735517	0.130846
C29	C	-0.000180	-1.092457	-0.226115
C30	C	-0.000168	-1.090430	-0.330424
C31	C	-0.000158	-1.088822	-0.413563
C32	C	-0.000149	-1.086795	-0.517878
C33	C	-0.000150	-1.083191	0.296603
C34	C	-0.000139	-1.085187	0.398983
H35	H	-0.406893	-0.968989	0.248685
H36	H	-0.593626	-1.122811	0.281892
C37	C	-0.391674	-1.268275	0.166788
N38	N	-0.347404	-1.340008	0.182381
C39	C	-0.608368	-1.229893	-0.012030
N40	N	-0.652487	-1.286236	-0.068269
C41	C	-0.391324	-1.051082	-0.050548
N42	N	-0.346805	-1.035568	-0.122250
H43	H	-0.593604	-0.935805	0.094764
