data_functionalizedCrystal
_audit_creation_method	'MofGen! by Chris Wilmer'
_symmetry_space_group_name_H-M	'P1'
_symmetry_Int_Tables_number	1
_symmetry_cell_setting	triclinic
loop_
_symmetry_equiv_pos_as_xyz
  x,y,z
_cell_length_a	16.120484
_cell_length_b	12.759401
_cell_length_c	12.759393
_cell_angle_alpha	90.020112
_cell_angle_beta	92.864008
_cell_angle_gamma	87.076037
loop_
_atom_site_label
_atom_site_type_symbol
_atom_site_fract_x
_atom_site_fract_y
_atom_site_fract_z
Zn1	Zn	-0.331898	-1.584980	-0.615164
Zn2	Zn	0.168102	-1.084980	-0.115164
Zn3	Zn	-0.471333	-1.575929	-0.448377
Zn4	Zn	0.028667	-1.075929	0.051623
Zn5	Zn	-0.331935	-1.409277	-0.439504
Zn6	Zn	0.168065	-0.909277	0.060496
Zn7	Zn	-0.471267	-1.400332	-0.624012
Zn8	Zn	0.028733	-0.900332	-0.124012
O9	O	-0.401608	-1.492630	-0.531764
O10	O	0.098392	-0.992630	-0.031764
O11	O	-0.350406	-1.730800	-0.593049
O12	O	0.149594	-1.230800	-0.093049
O13	O	-0.452884	-1.553777	-0.300181
O14	O	0.047116	-1.053777	0.199819
O15	O	-0.215265	-1.440115	-0.455389
O16	O	0.284735	-0.940115	0.044611
O17	O	-0.452848	-1.724150	-0.470512
O18	O	0.047152	-1.224150	0.029488
O19	O	-0.215238	-1.569204	-0.584446
O20	O	0.284762	-1.069204	-0.084446
O21	O	-0.350469	-1.431338	-0.293663
O22	O	0.149531	-0.931338	0.206337
O23	O	-0.350406	-1.261070	-0.463969
O24	O	0.149594	-0.761070	0.036031
O25	O	-0.452737	-1.424871	-0.769857
O26	O	0.047263	-0.924871	-0.269857
O27	O	-0.452773	-1.254499	-0.599527
O28	O	0.047227	-0.754499	-0.099527
O29	O	-0.350343	-1.560531	-0.763356
O30	O	0.149657	-1.060531	-0.263356
O31	O	-0.587989	-1.545104	-0.479091
O32	O	-0.087989	-1.045104	0.020909
O33	O	-0.587941	-1.416094	-0.608130
O34	O	-0.087941	-0.916094	-0.108130
C35	C	-0.401587	-1.219664	-0.531746
C36	C	0.098413	-0.719664	-0.031746
C37	C	-0.401598	-1.102886	-0.531764
C38	C	0.098402	-0.602886	-0.031764
C39	C	-0.454990	-0.934893	-0.602255
C40	C	0.045010	-0.434893	-0.102255
C41	C	-0.454983	-1.044618	-0.602244
C42	C	0.045017	-0.544618	-0.102244
C43	C	-0.348221	-1.051424	-0.461283
C44	C	0.151779	-0.551424	0.038717
C45	C	-0.348233	-0.941702	-0.461289
C46	C	0.151767	-0.441702	0.038711
C47	C	-0.618215	-1.478675	-0.545557
C48	C	-0.118215	-0.978675	-0.045557
C49	C	-0.710881	-1.472802	-0.551492
C50	C	-0.210881	-0.972802	-0.051492
C51	C	-0.880541	-1.462084	-0.562350
C52	C	-0.380541	-0.962084	-0.062350
C53	C	-0.921835	-1.523363	-0.501195
C54	C	-0.421835	-1.023363	-0.001195
C55	C	-1.016240	-1.517400	-0.507237
C56	C	-0.516240	-1.017400	-0.007237
C57	C	-0.786128	-1.468046	-0.556310
C58	C	-0.286128	-0.968046	-0.056310
C59	C	-0.184155	-1.506667	-0.517941
C60	C	0.315845	-1.006667	-0.017941
C61	C	-0.091490	-1.512649	-0.512050
C62	C	0.408510	-1.012649	-0.012050
C63	C	-0.401528	-1.492713	-0.805793
C64	C	0.098472	-0.992713	-0.305793
C65	C	-0.401494	-1.492749	-0.922567
C66	C	0.098506	-0.992749	-0.422567
C67	C	-0.401624	-0.766662	-0.531781
C68	C	0.098376	-0.266662	-0.031781
C69	C	-0.401616	-0.883439	-0.531781
C70	C	0.098384	-0.383439	-0.031781
C71	C	-0.348169	-1.563393	-0.974045
C72	C	0.151831	-1.063393	-0.474045
C73	C	-0.348133	-1.563413	-1.083767
C74	C	0.151867	-1.063413	-0.583767
C75	C	-0.454755	-1.422142	-1.090523
C76	C	0.045245	-0.922142	-0.590523
C77	C	-0.454786	-1.422118	-0.980803
C78	C	0.045214	-0.922118	-0.480803
C79	C	-0.401628	-1.492610	-0.258798
C80	C	0.098372	-0.992610	0.241202
C81	C	-0.401427	-1.492793	-0.142009
C82	C	0.098573	-0.992793	0.357991
H83	H	-0.498447	-1.086507	-0.659630
H84	H	0.001553	-0.586507	-0.159630
C85	C	-0.894729	-1.702974	-0.448453
C86	C	-0.394729	-1.202974	0.051547
C87	C	-0.873850	-1.600228	-0.424383
C88	C	-0.373850	-1.100228	0.075617
H89	H	-0.865098	-1.750421	-0.401035
H90	H	-0.365098	-1.250421	0.098965
H91	H	-0.952788	-1.708996	-0.442483
H92	H	-0.452788	-1.208996	0.057517
H93	H	-0.880446	-1.719190	-0.518161
H94	H	-0.380446	-1.219190	-0.018161
H95	H	-0.888139	-1.584009	-0.354677
H96	H	-0.388139	-1.084009	0.145323
H97	H	-0.815778	-1.594202	-0.430343
H98	H	-0.315778	-1.094202	0.069657
H99	H	-0.916087	-1.405146	-0.619239
H100	H	-0.416087	-0.905146	-0.119239
H101	H	-0.304768	-0.899807	-0.403896
H102	H	0.195232	-0.399807	0.096104
C103	C	-0.242768	-1.703024	-0.978391
C104	C	0.257232	-1.203024	-0.478391
C105	C	-0.289583	-1.641019	-0.910031
C106	C	0.210417	-1.141019	-0.410031
H107	H	-0.206594	-1.750941	-0.938871
H108	H	0.293406	-1.250941	-0.438871
H109	H	-0.279082	-1.740876	-1.023497
H110	H	0.220918	-1.240876	-0.523497
H111	H	-0.210866	-1.659304	-1.019155
H112	H	0.289134	-1.159304	-0.519155
H113	H	-0.321490	-1.684739	-0.869272
H114	H	0.178510	-1.184739	-0.369272
H115	H	-0.253265	-1.603165	-0.864906
H116	H	0.246735	-1.103165	-0.364906
C117	C	-0.235946	-1.585277	-1.200010
C118	C	0.264054	-1.085277	-0.700010
C119	C	-0.289512	-1.641065	-1.140347
C120	C	0.210488	-1.141065	-0.640347
H121	H	-0.199749	-1.633219	-1.234932
H122	H	0.300251	-1.133219	-0.734932
H123	H	-0.267678	-1.543234	-1.250398
H124	H	0.232322	-1.043234	-0.750398
H125	H	-0.204072	-1.541554	-1.155157
H126	H	0.295928	-1.041554	-0.655157
H127	H	-0.321390	-1.684783	-1.185201
H128	H	0.178610	-1.184783	-0.685201
H129	H	-0.257776	-1.683126	-1.089954
H130	H	0.242224	-1.183126	-0.589954
C131	C	-0.502054	-1.359457	-1.261718
C132	C	-0.002054	-0.859457	-0.761718
C133	C	-0.513337	-1.344515	-1.154541
C134	C	-0.013337	-0.844515	-0.654541
H135	H	-0.538227	-1.311536	-1.301236
H136	H	-0.038227	-0.811536	-0.801236
H137	H	-0.446039	-1.347699	-1.276133
H138	H	0.053961	-0.847699	-0.776133
H139	H	-0.514259	-1.429266	-1.280473
H140	H	-0.014259	-0.929266	-0.780473
H141	H	-0.501127	-1.274707	-1.135784
H142	H	-0.001127	-0.774707	-0.635784
H143	H	-0.569365	-1.356264	-1.140120
H144	H	-0.069365	-0.856264	-0.640120
C145	C	-0.560186	-1.282484	-0.998495
C146	C	-0.060186	-0.782484	-0.498495
C147	C	-0.513409	-1.344464	-0.924211
C148	C	-0.013409	-0.844464	-0.424211
H149	H	-0.596378	-1.234550	-0.963554
H150	H	-0.096378	-0.734550	-0.463554
H151	H	-0.523849	-1.244651	-1.038972
H152	H	-0.023849	-0.744651	-0.538972
H153	H	-0.592067	-1.326219	-1.043326
H154	H	-0.092067	-0.826219	-0.543326
H155	H	-0.481523	-1.300730	-0.879384
H156	H	0.018477	-0.800730	-0.379384
H157	H	-0.549751	-1.382300	-0.883715
H158	H	-0.049751	-0.882300	-0.383715
H159	H	-0.304757	-1.098875	-0.403892
H160	H	0.195243	-0.598875	0.096108
C161	C	-0.560519	-0.939190	-0.741586
C162	C	-0.060519	-0.439190	-0.241586
C163	C	-0.513671	-0.870850	-0.679734
C164	C	-0.013671	-0.370850	-0.179734
H165	H	-0.596750	-0.899652	-0.789415
H166	H	-0.096750	-0.399652	-0.289415
H167	H	-0.524228	-0.984334	-0.779531
H168	H	-0.024228	-0.484334	-0.279531
H169	H	-0.592360	-0.979921	-0.697758
H170	H	-0.092360	-0.479921	-0.197758
H171	H	-0.481824	-0.830124	-0.723562
H172	H	0.018176	-0.330124	-0.223562
H173	H	-0.549966	-0.825688	-0.641787
H174	H	-0.049966	-0.325688	-0.141787
