data_functionalizedCrystal
_audit_creation_method	'MofGen! by Chris Wilmer'
_symmetry_space_group_name_H-M	'P1'
_symmetry_Int_Tables_number	1
_symmetry_cell_setting	triclinic
loop_
_symmetry_equiv_pos_as_xyz
  x,y,z
_cell_length_a	12.594517
_cell_length_b	21.395361
_cell_length_c	21.395355
_cell_angle_alpha	90.021511
_cell_angle_beta	90.024858
_cell_angle_gamma	90.030508
loop_
_atom_site_label
_atom_site_type_symbol
_atom_site_fract_x
_atom_site_fract_y
_atom_site_fract_z
Zn1	Zn	1.627196	-0.249514	0.354253
Zn2	Zn	2.127196	0.250486	0.854253
Zn3	Zn	1.627030	-0.354274	0.249471
Zn4	Zn	2.127030	0.145726	0.749471
Zn5	Zn	1.449188	-0.249514	0.249490
Zn6	Zn	1.949188	0.250486	0.749490
Zn7	Zn	1.449136	-0.354258	0.354210
Zn8	Zn	1.949136	0.145742	0.854210
O9	O	1.538138	-0.301890	0.301856
O10	O	2.038138	0.198110	0.801856
O11	O	1.776119	-0.263418	0.340364
O12	O	2.276119	0.236582	0.840364
O13	O	1.603391	-0.340384	0.161795
O14	O	2.103391	0.159616	0.661795
O15	O	1.472893	-0.161836	0.263413
O16	O	1.972893	0.338164	0.763413
O17	O	1.775998	-0.340385	0.263380
O18	O	2.275998	0.159615	0.763380
O19	O	1.603674	-0.161837	0.340382
O20	O	2.103674	0.338163	0.840382
O21	O	1.472732	-0.263418	0.161809
O22	O	1.972732	0.236582	0.661809
O23	O	1.300236	-0.263402	0.263371
O24	O	1.800236	0.236598	0.763371
O25	O	1.472803	-0.340357	0.441894
O26	O	1.972803	0.159643	0.941894
O27	O	1.300197	-0.340356	0.340309
O28	O	1.800197	0.159644	0.840309
O29	O	1.603623	-0.263402	0.441926
O30	O	2.103623	0.236598	0.941926
O31	O	1.603341	-0.441950	0.263338
O32	O	2.103341	0.058050	0.763338
O33	O	1.472643	-0.441938	0.340290
O34	O	1.972643	0.058062	0.840290
C35	C	1.537997	-0.464678	0.301821
C36	C	2.037997	0.035322	0.801821
C37	C	1.538034	-0.534319	0.301827
C38	C	2.038034	-0.034319	0.801827
C39	C	1.261597	-0.301878	0.301837
C40	C	1.761597	0.198122	0.801837
C41	C	1.143291	-0.301887	0.301844
C42	C	1.643291	0.198113	0.801844
C43	C	1.606149	-0.567018	0.261799
C44	C	2.106149	-0.067018	0.761799
C45	C	1.606198	-0.632453	0.261813
C46	C	2.106198	-0.132453	0.761813
C47	C	1.538114	-0.665187	0.301849
C48	C	2.038114	-0.165187	0.801849
C49	C	1.469995	-0.632481	0.341884
C50	C	1.969995	-0.132481	0.841884
C51	C	1.469955	-0.567047	0.341873
C52	C	1.969955	-0.067047	0.841873
C53	C	1.442278	-0.768902	0.306758
C54	C	1.942278	-0.268902	0.806758
C55	C	1.442316	-0.834335	0.306765
C56	C	1.942316	-0.334335	0.806765
C57	C	1.538238	-0.867008	0.301885
C58	C	2.038238	-0.367008	0.801885
C59	C	1.634125	-0.834240	0.296987
C60	C	2.134125	-0.334240	0.796987
C61	C	1.634085	-0.768806	0.296976
C62	C	2.134085	-0.268806	0.796976
C63	C	1.538151	-0.736140	0.301865
C64	C	2.038151	-0.236140	0.801865
C65	C	1.606412	-0.970659	0.261871
C66	C	2.106412	-0.470659	0.761871
C67	C	1.606464	-1.036096	0.261889
C68	C	2.106464	-0.536096	0.761889
C69	C	1.470251	-1.036122	0.341957
C70	C	1.970251	-0.536122	0.841957
C71	C	1.470209	-0.970687	0.341941
C72	C	1.970209	-0.470687	0.841941
C73	C	1.538288	-0.937959	0.301895
C74	C	2.038288	-0.437959	0.801895
C75	C	1.074028	-0.259975	0.260078
C76	C	1.574028	0.240025	0.760078
C77	C	1.003191	-0.317123	0.244659
C78	C	1.503191	0.182877	0.744659
C79	C	1.003330	-0.244767	0.317274
C80	C	1.503330	0.255233	0.817274
C81	C	1.074012	-0.359065	0.286395
C82	C	1.574012	0.140935	0.786395
C83	C	1.074157	-0.286672	0.359038
C84	C	1.574157	0.213328	0.859038
C85	C	1.003352	-0.343859	0.343640
C86	C	1.503352	0.156141	0.843640
C87	C	1.815758	-0.301903	0.301875
C88	C	2.315758	0.198097	0.801875
C89	C	1.934064	-0.301909	0.301883
C90	C	2.434064	0.198091	0.801883
C91	C	1.538226	-0.301877	0.465279
C92	C	2.038226	0.198123	0.965279
C93	C	1.538264	-0.301872	0.534921
C94	C	2.038264	0.198128	1.034921
C95	C	1.538308	-0.138467	0.301905
C96	C	2.038308	0.361533	0.801905
C97	C	1.538380	-0.068826	0.301925
C98	C	2.038380	0.431174	0.801925
C99	C	1.538111	-0.301858	0.139068
C100	C	2.038111	0.198142	0.639068
C101	C	1.538279	-0.301687	0.069427
C102	C	2.038279	0.198313	0.569427
C103	C	1.606378	-0.261800	0.567651
C104	C	2.106378	0.238200	1.067651
C105	C	1.606377	-0.261773	0.633087
C106	C	2.106377	0.238227	1.133087
C107	C	1.538272	-0.301829	0.665789
C108	C	2.038272	0.198171	1.165789
C109	C	1.470144	-0.341904	0.633050
C110	C	1.970144	0.158096	1.133050
C111	C	1.470140	-0.341925	0.567616
C112	C	1.970140	0.158075	1.067616
C113	C	1.529819	-0.358245	0.769452
C114	C	2.029819	0.141755	1.269452
C115	C	1.529830	-0.358224	0.834885
C116	C	2.029830	0.141776	1.334885
C117	C	1.538278	-0.301763	0.867610
C118	C	2.038278	0.198237	1.367610
C119	C	1.546737	-0.245321	0.834894
C120	C	2.046737	0.254679	1.334894
C121	C	1.546733	-0.245342	0.769460
C122	C	2.046733	0.254658	1.269460
C123	C	1.538268	-0.301810	0.736741
C124	C	2.038268	0.198190	1.236741
C125	C	1.606395	-0.261659	0.971293
C126	C	2.106395	0.238341	1.471293
C127	C	1.606386	-0.261631	1.036730
C128	C	2.106386	0.238369	1.536730
C129	C	1.470159	-0.341767	1.036692
C130	C	1.970159	0.158233	1.536692
C131	C	1.470162	-0.341790	0.971257
C132	C	1.970162	0.158210	1.471257
C133	C	1.538286	-0.301736	0.938561
C134	C	2.038286	0.198264	1.438561
H135	H	1.661586	-0.540373	0.229193
H136	H	2.161586	-0.040373	0.729193
H137	H	1.364239	-0.861010	0.310747
H138	H	1.864239	-0.361010	0.810747
Br139	Br	1.125537	-0.439617	0.264578
Br140	Br	1.625537	0.060383	0.764578
H141	H	0.972021	-0.330006	0.196308
H142	H	1.472021	0.169994	0.696308
Br143	Br	1.377717	-0.396177	0.926833
Br144	Br	1.877717	0.103823	1.426833
H145	H	1.661937	-1.062718	0.229295
H146	H	2.161937	-0.562718	0.729295
H147	H	1.105061	-0.224565	0.224714
H148	H	1.605061	0.275435	0.724714
Br149	Br	1.377602	-0.676904	0.396223
Br150	Br	1.877602	-0.176904	0.896223
H151	H	1.661842	-0.229139	0.659741
H152	H	2.161842	0.270861	1.159741
H153	H	0.972225	-0.196459	0.330287
H154	H	1.472225	0.303541	0.830287
H155	H	0.972514	-0.379353	0.378977
H156	H	1.472514	0.120647	0.878977
Br157	Br	1.377760	-0.926307	0.396266
Br158	Br	1.877760	-0.426307	0.896266
H159	H	1.553618	-0.199344	0.861538
H160	H	2.053618	0.300656	1.361538
Br161	Br	1.126149	-0.265173	0.439604
Br162	Br	1.626149	0.234827	0.939604
Br163	Br	1.558207	-0.168745	0.725061
Br164	Br	2.058207	0.331255	1.225061
H165	H	1.414487	-0.540423	0.374470
H166	H	1.914487	-0.040423	0.874470
H167	H	1.661849	-0.229185	0.541035
H168	H	2.161849	0.270815	1.041035
Br169	Br	1.518385	-0.434879	0.725045
Br170	Br	2.018385	0.065121	1.225045
H171	H	1.414820	-1.062774	0.374557
H172	H	1.914820	-0.562774	0.874557
Br173	Br	1.764210	-0.724336	0.290333
Br174	Br	2.264210	-0.224336	0.790333
H175	H	1.661860	-0.229041	0.944671
H176	H	2.161860	0.270959	1.444671
Br177	Br	1.377707	-0.396262	0.677430
Br178	Br	1.877707	0.103738	1.177430
Br179	Br	1.698853	-0.207252	1.081152
Br180	Br	2.198853	0.292748	1.581152
H181	H	1.414696	-0.374375	1.063318
H182	H	1.914696	0.125625	1.563318
H183	H	1.522949	-0.404183	0.861517
H184	H	2.022949	0.095817	1.361517
H185	H	1.364160	-0.742307	0.310734
H186	H	1.864160	-0.242307	0.810734
Br187	Br	1.377689	-0.396312	0.523193
Br188	Br	1.877689	0.103688	1.023193
H189	H	1.712234	-0.860841	0.293014
H190	H	2.212234	-0.360841	0.793014
Br191	Br	1.698647	-0.676840	0.207486
Br192	Br	2.198647	-0.176840	0.707486
H193	H	1.661850	-0.944011	0.229264
H194	H	2.161850	-0.444011	0.729264
