data_functionalizedCrystal
_audit_creation_method	'MofGen! by Chris Wilmer'
_symmetry_space_group_name_H-M	'P1'
_symmetry_Int_Tables_number	1
_symmetry_cell_setting	triclinic
loop_
_symmetry_equiv_pos_as_xyz
  x,y,z
_cell_length_a	10.686220
_cell_length_b	13.032721
_cell_length_c	10.685314
_cell_angle_alpha	79.097664
_cell_angle_beta	81.642441
_cell_angle_gamma	100.973619
loop_
_atom_site_label
_atom_site_type_symbol
_atom_site_fract_x
_atom_site_fract_y
_atom_site_fract_z
Zn1	Zn	1.829100	-0.339305	0.625333
Zn2	Zn	1.818030	-0.503049	0.440282
Zn3	Zn	1.633096	-0.339393	0.429383
Zn4	Zn	1.584700	-0.532617	0.673628
O5	O	1.716232	-0.428591	0.542157
O6	O	2.007309	-0.348615	0.585136
O7	O	1.809118	-0.469002	0.259174
O8	O	1.683983	-0.189989	0.430603
O9	O	1.999176	-0.468916	0.449179
O10	O	1.827986	-0.189925	0.574567
O11	O	1.673248	-0.348765	0.251167
O12	O	1.446998	-0.377436	0.477433
O13	O	1.601500	-0.519311	0.846884
O14	O	1.411443	-0.519397	0.656879
O15	O	1.781060	-0.377286	0.811402
O16	O	1.762191	-0.656363	0.496009
O17	O	1.590765	-0.678087	0.667447
C18	C	1.382632	-0.451635	0.571215
C19	C	1.239910	-0.461522	0.583681
C20	C	1.670058	-0.705960	0.588176
C21	C	1.650418	-0.824615	0.607897
C22	C	1.726545	-0.866731	0.531916
C23	C	1.706248	-0.989366	0.552296
C24	C	2.051134	-0.405458	0.512986
C25	C	2.193849	-0.395599	0.500555
C26	C	1.687116	-0.451587	0.877030
C27	C	1.674709	-0.461387	1.019733
C28	C	1.762618	-0.150138	0.495982
C29	C	1.782385	-0.031478	0.476306
C30	C	1.745320	-0.405602	0.208567
C31	C	1.758026	-0.395485	0.065793
H32	H	1.263601	-0.331598	0.419850
H33	H	1.570223	-0.879348	0.688038
H34	H	1.170149	-0.525533	0.664384
H35	H	1.806751	-0.812000	0.451783
H36	H	1.626047	-1.044096	0.632444
N37	N	1.567636	-0.546050	1.112096
H38	H	1.573650	-0.541284	1.204365
H39	H	1.576913	-0.619331	1.099634
N40	N	1.865097	-0.310810	0.973423
H41	H	1.859086	-0.315574	0.881153
H42	H	1.952014	-0.322695	0.991566
N43	N	1.888634	-0.958991	0.370151
H44	H	1.873564	-0.973451	0.283330
H45	H	1.975398	-0.973338	0.385481
