data_functionalizedCrystal
_audit_creation_method	'MofGen! by Chris Wilmer'
_symmetry_space_group_name_H-M	'P1'
_symmetry_Int_Tables_number	1
_symmetry_cell_setting	triclinic
loop_
_symmetry_equiv_pos_as_xyz
  x,y,z
_cell_length_a	13.897449
_cell_length_b	12.759400
_cell_length_c	12.759393
_cell_angle_alpha	90.031564
_cell_angle_beta	90.023192
_cell_angle_gamma	90.015511
loop_
_atom_site_label
_atom_site_type_symbol
_atom_site_fract_x
_atom_site_fract_y
_atom_site_fract_z
Zn1	Zn	1.474721	-0.418181	0.594113
Zn2	Zn	1.474624	-0.593900	0.418433
Zn3	Zn	1.313411	-0.418238	0.418438
Zn4	Zn	1.313400	-0.593821	0.594060
O5	O	1.394039	-0.506035	0.506261
O6	O	1.609690	-0.441500	0.570829
O7	O	1.453202	-0.570655	0.271413
O8	O	1.334854	-0.271210	0.441766
O9	O	1.609618	-0.570600	0.441757
O10	O	1.453368	-0.271168	0.570833
O11	O	1.334760	-0.441597	0.271416
O12	O	1.178428	-0.441520	0.441715
O13	O	1.334836	-0.570465	0.741088
O14	O	1.178420	-0.570521	0.570743
O15	O	1.453358	-0.441423	0.741127
O16	O	1.453192	-0.740911	0.441706
O17	O	1.334742	-0.740853	0.570739
C18	C	1.393982	-0.779002	0.506239
C19	C	1.394045	-0.895779	0.506265
C20	C	1.143425	-0.506019	0.506224
C21	C	1.036211	-0.506037	0.506234
C22	C	1.455791	-0.950636	0.439152
C23	C	1.455850	-1.060360	0.439184
C24	C	1.332410	-1.060360	0.573446
C25	C	1.332356	-0.950638	0.573418
C26	C	1.517480	-0.895777	0.371999
C27	C	1.579230	-0.950635	0.304880
C28	C	1.579289	-1.060359	0.304912
C29	C	1.517598	-1.115225	0.372064
C30	C	0.949141	-0.506041	0.506251
C31	C	0.839908	-0.506048	0.506283
C32	C	1.645632	-0.506052	0.506298
C33	C	1.752846	-0.506059	0.506314
C34	C	1.394106	-0.505929	0.780295
C35	C	1.394135	-0.505884	0.897071
C36	C	1.394123	-0.232002	0.506306
C37	C	1.394158	-0.115225	0.506325
C38	C	1.394027	-0.506065	0.233294
C39	C	1.394185	-0.505814	0.116518
C40	C	1.455858	-0.438685	0.951955
C41	C	1.455881	-0.438647	1.061679
C42	C	1.332456	-0.573016	1.061626
C43	C	1.332429	-0.573047	0.951904
C44	C	1.517565	-0.371522	0.897123
C45	C	1.579293	-0.304319	0.952007
C46	C	1.579316	-0.304281	1.061731
C47	C	1.517610	-0.371446	1.116571
H48	H	1.517436	-0.806435	0.371962
H49	H	1.282078	-0.905973	0.628068
H50	H	1.282218	-0.627698	1.106285
H51	H	1.517555	-0.371547	0.807780
H52	H	1.629525	-0.249629	0.907349
H53	H	1.629571	-0.249553	1.106415
H54	H	1.517659	-1.204570	0.372093
H55	H	1.282154	-0.627750	0.907216
H56	H	1.629462	-0.905957	0.250213
H57	H	1.629575	-1.105021	0.250268
H58	H	1.517623	-0.371397	1.205916
H59	H	1.282184	-1.105041	0.628116
