data_functionalizedCrystal
_audit_creation_method	'MofGen! by Chris Wilmer'
_symmetry_space_group_name_H-M	'P1'
_symmetry_Int_Tables_number	1
_symmetry_cell_setting	triclinic
loop_
_symmetry_equiv_pos_as_xyz
  x,y,z
_cell_length_a	29.917948
_cell_length_b	29.917021
_cell_length_c	29.913391
_cell_angle_alpha	60.005297
_cell_angle_beta	60.010472
_cell_angle_gamma	59.993667
loop_
_atom_site_label
_atom_site_type_symbol
_atom_site_fract_x
_atom_site_fract_y
_atom_site_fract_z
O1	O	0.061938	-0.653075	0.546110
O2	O	0.023328	-0.508466	0.440017
O3	O	0.114898	-0.599963	0.439941
O4	O	-0.029633	-0.561578	0.546186
O5	O	0.145278	-0.569587	0.470242
O6	O	0.053708	-0.478090	0.470318
O7	O	0.092318	-0.622699	0.576411
Zn8	Zn	0.077836	-0.545572	0.528175
Zn9	Zn	0.037809	-0.585593	0.488253
O10	O	0.000747	-0.531202	0.576487
N11	N	0.105154	-0.518262	0.555424
N12	N	0.010496	-0.612908	0.461004
C13	C	0.164136	-0.309209	0.614352
C14	C	0.164251	-0.459335	0.764424
C15	C	0.164150	-0.459313	0.614341
C16	C	0.314282	-0.459305	0.614278
C17	C	0.180666	-0.358742	0.630849
C18	C	0.180732	-0.442815	0.714891
C19	C	0.264747	-0.442797	0.630809
C20	C	0.180676	-0.442802	0.630843
C21	C	0.143097	-0.246161	0.593354
C22	C	0.143120	-0.480326	0.593337
C23	C	0.201706	-0.421790	0.651848
C24	C	0.405963	-0.443499	0.565998
C25	C	0.463273	-0.462598	0.546874
C26	C	0.463297	-0.555329	0.582235
C27	C	0.405988	-0.536228	0.601360
C28	C	0.156905	-0.217495	0.537012
C29	C	0.137776	-0.160180	0.517926
C30	C	0.091035	-0.160201	0.611524
C31	C	0.110164	-0.217516	0.630611
C32	C	0.086772	-0.466488	0.607209
C33	C	0.067659	-0.485590	0.588108
C34	C	0.161236	-0.532368	0.541277
C35	C	0.180352	-0.513266	0.560371
C36	C	0.086942	-0.466529	0.856152
C37	C	0.067877	-0.485647	0.913465
C38	C	0.161489	-0.532436	0.913415
C39	C	0.180552	-0.513318	0.856101
C40	C	0.143277	-0.480363	0.827471
C41	C	0.377323	-0.480313	0.593239
C42	C	-0.111377	-0.650681	0.422736
C43	C	-0.027364	-0.650787	0.422929
C44	C	-0.048335	-0.671770	0.401835
C45	C	-0.064214	-0.763416	0.450041
C46	C	-0.045160	-0.820731	0.469172
C47	C	0.047573	-0.820841	0.433980
C48	C	0.028517	-0.763527	0.414847
C49	C	-0.140115	-0.664483	0.479060
C50	C	-0.197425	-0.645309	0.498058
C51	C	-0.197256	-0.598535	0.404405
C52	C	-0.139946	-0.617709	0.385407
C53	C	-0.041168	-0.594444	0.409067
C54	C	-0.022104	-0.575374	0.428250
C55	C	0.024568	-0.668986	0.475143
C56	C	0.005504	-0.688059	0.455967
C57	C	-0.041000	-0.594453	0.310105
C58	C	-0.021803	-0.575386	0.252792
C59	C	0.024951	-0.669004	0.252854
C60	C	0.005755	-0.688070	0.310168
C61	C	-0.027222	-0.650793	0.338792
C62	C	-0.027377	-0.734817	0.422881
N63	N	0.491125	-0.518235	0.555255
O64	O	0.678406	-0.527360	0.420422
O65	O	0.678588	-0.633782	0.564887
O66	O	0.678516	-0.633539	0.473265
O67	O	0.678478	-0.527602	0.512044
O68	O	0.587469	-0.603251	0.503685
O69	O	0.587541	-0.603493	0.595307
O70	O	0.587359	-0.497071	0.450842
Zn71	Zn	0.572994	-0.545473	0.527905
Zn72	Zn	0.692953	-0.585380	0.487825
O73	O	0.587431	-0.497313	0.542465
N74	N	0.774821	-0.612618	0.460470
N75	N	0.105125	-0.132348	0.555445
O76	O	-0.029633	0.055031	0.546198
O77	O	0.114837	0.055047	0.439777
O78	O	0.023189	0.055024	0.440050
O79	O	0.062016	0.055054	0.545925
O80	O	0.053572	-0.036031	0.470398
O81	O	0.145220	-0.036008	0.470125
O82	O	0.000750	-0.036024	0.576546
Zn83	Zn	0.077809	-0.050473	0.528154
Zn84	Zn	0.037778	0.069496	0.488169
O85	O	0.092399	-0.036001	0.576273
N86	N	0.010456	0.151371	0.460879
N87	N	0.105414	-0.518315	0.941279
O88	O	0.096182	-0.653057	1.128644
O89	O	-0.010215	-0.508539	1.128670
O90	O	-0.009968	-0.600172	1.128636
O91	O	0.095935	-0.561424	1.128678
O92	O	0.020367	-0.569808	1.037586
O93	O	0.020121	-0.478175	1.037620
O94	O	0.126517	-0.622693	1.037594
Zn95	Zn	0.078135	-0.545613	1.023151
Zn96	Zn	0.038167	-0.585619	1.143113
O97	O	0.126270	-0.531061	1.037628
N98	N	0.010887	-0.612923	1.224985
C99	C	0.034899	-0.475056	0.440551
C100	C	0.148298	-0.588365	0.440456
C101	C	0.080746	-0.656109	0.575876
C102	C	-0.032653	-0.542801	0.575971
C103	C	0.633086	-0.633292	0.598298
C104	C	0.632998	-0.632993	0.484834
C105	C	0.632857	-0.497559	0.417433
C106	C	0.632949	-0.497860	0.530895
C107	C	0.148191	0.009634	0.440259
C108	C	0.034733	0.009493	0.440634
C109	C	-0.032641	0.009502	0.576027
C110	C	0.080854	0.009529	0.575690
C111	C	-0.009699	-0.475150	1.083148
C112	C	-0.009388	-0.588620	1.083088
C113	C	0.126001	-0.656082	1.083116
C114	C	0.125697	-0.542605	1.083155
H115	H	0.022003	-0.474373	0.936811
O116	O	0.024903	0.009508	0.400882
C117	C	0.071902	0.009497	0.353636
H118	H	0.098048	0.026743	0.354088
H119	H	0.059046	0.035926	0.315634
H120	H	0.096616	-0.034188	0.352981
O121	O	0.633111	-0.672747	0.474932
C122	C	0.680294	-0.718897	0.480988
H123	H	0.713242	-0.705768	0.475037
H124	H	0.696108	-0.738311	0.449090
H125	H	0.669684	-0.749929	0.523733
H126	H	0.632798	-0.464146	0.375944
O127	O	-0.049500	-0.425613	1.083180
C128	C	-0.029790	-0.391543	1.083183
H129	H	0.005356	-0.417872	1.100423
H130	H	-0.064193	-0.365313	1.109623
H131	H	-0.014595	-0.363893	1.039506
O132	O	-0.082179	0.009531	0.615816
C133	C	-0.116260	0.009509	0.596128
H134	H	-0.101449	0.026736	0.549494
H135	H	-0.160111	0.035951	0.612910
H136	H	-0.114781	-0.034176	0.610058
O137	O	0.025005	-0.425525	0.400781
C138	C	-0.019331	-0.415751	0.388194
H139	H	-0.023683	-0.456417	0.400272
H140	H	-0.011585	-0.393546	0.342376
H141	H	-0.058574	-0.389386	0.411755
H142	H	-0.042644	-0.596897	1.083039
O143	O	0.165872	-0.705599	1.083180
C144	C	0.180564	-0.729845	1.130347
H145	H	0.169468	-0.696649	1.146083
H146	H	0.226517	-0.752776	1.119742
H147	H	0.157590	-0.759717	1.163356
O148	O	0.165406	-0.532660	1.083065
C149	C	0.177958	-0.488317	1.035924
H150	H	0.165926	-0.484002	1.002960
H151	H	0.223761	-0.496030	1.020095
H152	H	0.154336	-0.449063	1.046595
O153	O	0.050656	-0.434539	0.828428
C154	C	-0.003155	-0.426416	0.866034
H155	H	-0.003021	-0.460977	0.906879
H156	H	-0.030383	-0.426112	0.849492
H157	H	-0.019574	-0.385590	0.872141
H158	H	0.633132	-0.666701	0.639790
O159	O	0.197780	-0.598039	0.400583
C160	C	0.197828	-0.550950	0.353417
H161	H	0.153928	-0.524876	0.354014
H162	H	0.222171	-0.563694	0.315352
H163	H	0.217424	-0.526203	0.352744
O164	O	0.090869	0.009504	0.615324
C165	C	0.144679	0.009523	0.595367
H166	H	0.170564	-0.007708	0.560219
H167	H	0.163121	-0.016915	0.629646
H168	H	0.143865	0.053208	0.580100
H169	H	-0.074166	-0.534620	0.609333
H170	H	0.632941	-0.464583	0.539193
H171	H	0.226428	-0.524588	0.832752
O172	O	0.197717	-0.564521	0.941205
C173	C	0.230861	-0.612577	0.927170
H174	H	0.208720	-0.620542	0.911422
H175	H	0.239552	-0.648687	0.964849
H176	H	0.271113	-0.607364	0.893892
O177	O	0.050530	-0.434472	0.639201
C178	C	-0.003302	-0.426364	0.647353
H179	H	-0.003221	-0.432761	0.612803
H180	H	-0.030517	-0.382897	0.647666
H181	H	-0.019698	-0.456874	0.688181
O182	O	0.012936	-0.472249	0.601601
C183	C	-0.000887	-0.520413	0.630455
H184	H	0.036887	-0.556417	0.620094
H185	H	-0.034135	-0.515288	0.618274
H186	H	-0.016592	-0.528480	0.676327
H187	H	0.191560	-0.559196	0.514439
O188	O	0.197539	0.010009	0.400230
C189	C	0.190040	0.057270	0.354254
H190	H	0.146332	0.072811	0.355005
H191	H	0.219998	0.046865	0.315261
H192	H	0.197724	0.090351	0.355316
O193	O	0.235106	-0.526769	0.546859
C194	C	0.263869	-0.559923	0.513652
H195	H	0.236542	-0.580770	0.520981
H196	H	0.302140	-0.592342	0.524360
H197	H	0.276182	-0.533467	0.468763
H198	H	0.382671	-0.566208	0.623544
O199	O	0.090663	-0.705704	0.615562
C200	C	0.144469	-0.739658	0.595703
H201	H	0.158908	-0.724739	0.549071
H202	H	0.145213	-0.783541	0.612425
H203	H	0.172792	-0.738149	0.609554
H204	H	0.486634	-0.600858	0.588843
H205	H	0.382624	-0.397967	0.559385
O206	O	0.491014	-0.426760	0.520398
C207	C	0.453425	-0.373312	0.517343
H208	H	0.412564	-0.371080	0.521117
H209	H	0.469962	-0.343023	0.476377
H210	H	0.447355	-0.362613	0.552061
H211	H	0.183721	-0.240813	0.506671
H212	H	0.149018	-0.136838	0.472047
H213	H	0.098918	-0.240852	0.676488
O214	O	0.059114	-0.132435	0.647769
C215	C	0.088092	-0.146432	0.680871
H216	H	0.121464	-0.188040	0.681412
H217	H	0.058713	-0.148407	0.724343
H218	H	0.107530	-0.114168	0.663625
O219	O	-0.035267	-0.520635	0.225015
C220	C	-0.068479	-0.491827	0.262573
H221	H	-0.089371	-0.519127	0.303403
H222	H	-0.100858	-0.453557	0.245945
H223	H	-0.042065	-0.479500	0.268739
H224	H	0.051792	-0.699362	0.229554
O225	O	0.019170	-0.742821	0.337949
C226	C	0.052399	-0.771630	0.300392
H227	H	0.045163	-0.744297	0.259497
H228	H	0.041628	-0.809849	0.316922
H229	H	0.097275	-0.784042	0.294389
H230	H	-0.067855	-0.564093	0.333408
H231	H	-0.033345	-0.529494	0.416965
O232	O	-0.073111	-0.558164	0.377003
C233	C	-0.081197	-0.504345	0.368876
H234	H	-0.074858	-0.504454	0.403478
H235	H	-0.124636	-0.477092	0.368491
H236	H	-0.050638	-0.487969	0.328090
H237	H	-0.109727	-0.740044	0.456586
O238	O	0.056553	-0.705246	0.507168
C239	C	0.104644	-0.738421	0.478288
H240	H	0.097017	-0.738973	0.444875
H241	H	0.116671	-0.781884	0.507727
H242	H	0.139131	-0.721234	0.458909
O243	O	0.018888	-0.742801	0.469505
C244	C	-0.000809	-0.766592	0.526902
H245	H	-0.006450	-0.739442	0.547004
H246	H	0.029862	-0.808776	0.540341
H247	H	-0.041768	-0.770795	0.539773
H248	H	0.058518	-0.740243	0.392731
H249	H	0.093086	-0.844219	0.427442
H250	H	-0.116855	-0.691337	0.509456
O251	O	-0.081029	-0.848429	0.495630
C252	C	-0.134453	-0.810798	0.498641
H253	H	-0.136642	-0.769937	0.494826
H254	H	-0.164765	-0.827289	0.539608
H255	H	-0.145151	-0.804738	0.463926
H256	H	-0.220518	-0.571693	0.374008
O257	O	-0.225260	-0.658790	0.552793
C258	C	-0.187755	-0.691994	0.581666
H259	H	-0.146878	-0.712869	0.554385
H260	H	-0.204375	-0.724391	0.619888
H261	H	-0.181684	-0.665574	0.594071
H262	H	-0.116547	-0.606465	0.339541
