data_functionalizedCrystal
_audit_creation_method	'MofGen! by Chris Wilmer'
_symmetry_space_group_name_H-M	'P1'
_symmetry_Int_Tables_number	1
_symmetry_cell_setting	triclinic
loop_
_symmetry_equiv_pos_as_xyz
  x,y,z
_cell_length_a	12.645331
_cell_length_b	25.639239
_cell_length_c	12.645323
_cell_angle_alpha	89.966151
_cell_angle_beta	89.978207
_cell_angle_gamma	90.037665
loop_
_atom_site_label
_atom_site_type_symbol
_atom_site_fract_x
_atom_site_fract_y
_atom_site_fract_z
Zn1	Zn	1.620567	-0.208151	-0.599395
Zn2	Zn	1.620387	-0.295593	-0.422113
Zn3	Zn	1.443285	-0.208171	-0.422139
Zn4	Zn	1.443199	-0.295555	-0.599328
O5	O	1.531859	-0.251868	-0.510744
O6	O	1.768891	-0.219757	-0.575895
O7	O	1.596854	-0.284020	-0.273769
O8	O	1.466913	-0.135003	-0.445691
O9	O	1.768758	-0.284000	-0.445647
O10	O	1.597162	-0.134988	-0.575920
O11	O	1.466738	-0.219792	-0.273788
O12	O	1.294926	-0.219756	-0.445627
O13	O	1.466767	-0.283937	-0.747685
O14	O	1.294863	-0.283957	-0.575807
O15	O	1.597079	-0.219721	-0.747733
O16	O	1.596771	-0.368753	-0.445582
O17	O	1.466592	-0.368726	-0.575782
C18	C	1.256430	-0.251855	-0.510713
C19	C	1.138600	-0.251862	-0.510725
C20	C	0.971040	-0.211288	-0.429281
C21	C	1.093600	-0.211393	-0.428922
C22	C	1.094039	-0.306941	-0.480197
C23	C	0.971441	-0.306719	-0.479641
C24	C	0.971459	-0.237883	-0.623013
C25	C	1.094066	-0.236652	-0.622389
C26	C	1.531681	-0.387710	-0.510695
C27	C	1.531702	-0.445824	-0.510710
C28	C	1.599821	-0.806189	-0.443064
C29	C	1.599862	-0.860793	-0.443079
O30	O	1.657594	-0.889031	-0.385511
N31	N	1.532046	-0.888107	-0.510814
C32	C	1.464192	-0.860813	-0.578547
O33	O	1.406513	-0.889059	-0.636163
C34	C	1.464157	-0.806210	-0.578538
C35	C	1.531970	-0.778899	-0.510790
C36	C	1.667629	-0.778878	-0.375323
C37	C	1.667586	-0.724278	-0.375308
C38	C	1.599735	-0.696988	-0.443034
C39	C	1.531927	-0.724298	-0.510775
C40	C	1.396309	-0.778917	-0.646275
C41	C	1.396281	-0.724310	-0.646260
C42	C	1.464093	-0.696999	-0.578513
C43	C	1.464033	-0.642408	-0.578485
N44	N	1.531849	-0.615095	-0.510750
C45	C	1.599700	-0.642384	-0.443024
C46	C	1.464272	-0.975483	-0.578564
C47	C	1.464300	-1.030086	-0.578569
C48	C	1.599972	-1.030062	-0.443101
C49	C	1.599937	-0.975459	-0.443092
C50	C	1.532088	-0.948170	-0.510828
C51	C	1.599605	-0.527719	-0.442997
C52	C	1.599553	-0.473114	-0.442984
C53	C	1.463886	-0.473142	-0.578455
C54	C	1.463933	-0.527743	-0.578464
C55	C	1.531801	-0.555030	-0.510731
O56	O	1.406334	-0.614135	-0.636027
O57	O	1.657379	-0.614132	-0.385428
C58	C	1.808365	-0.251880	-0.510775
C59	C	1.926195	-0.251886	-0.510788
C60	C	1.531933	-0.251822	-0.787249
C61	C	1.531965	-0.251803	-0.905079
C62	C	1.532067	-0.115494	-0.510816
C63	C	1.532156	-0.057380	-0.510846
C64	C	1.449990	-0.292193	-0.949931
C65	C	1.449702	-0.292041	-1.072491
C66	C	1.502136	-0.196614	-1.072995
C67	C	1.501509	-0.196881	-0.950397
C68	C	1.644043	-0.266052	-0.950267
C69	C	1.643473	-0.267234	-1.072873
C70	C	1.531847	-0.251875	-0.235314
C71	C	1.532021	-0.251747	-0.117485
H72	H	0.940187	-0.220441	-0.346607
H73	H	1.124702	-0.264065	-0.686368
H74	H	1.408639	-0.450914	-0.633594
N75	N	1.394965	-0.947603	-0.647752
N76	N	1.432200	-0.917095	-0.715340
H77	H	1.383255	-0.897406	-0.764207
H78	H	1.654774	-0.450879	-0.387812
N79	N	0.935504	-0.321618	-0.376719
N80	N	1.000968	-0.332106	-0.305798
H81	H	0.975594	-0.342629	-0.233105
H82	H	1.341083	-0.801144	-0.701438
N83	N	1.724188	-0.233020	-1.111261
N84	N	1.818136	-0.239637	-1.083662
H85	H	1.875140	-0.215468	-1.110769
N86	N	1.678261	-0.315654	-0.911502
N87	N	1.765967	-0.333549	-0.939048
H88	H	1.790126	-0.368582	-0.911671
N89	N	1.736940	-0.806740	-0.306119
N90	N	1.729946	-0.800666	-0.208295
H91	H	1.778897	-0.820339	-0.159408
N92	N	1.326971	-0.696444	-0.715467
N93	N	1.266438	-0.720839	-0.775947
H94	H	1.217487	-0.701161	-0.824825
N95	N	1.473052	-0.343327	-1.110217
N96	N	1.489676	-0.379483	-1.046000
H97	H	1.506145	-0.415709	-1.072638
N98	N	1.668918	-0.555580	-0.373788
N99	N	1.661920	-0.549511	-0.275963
H100	H	1.710866	-0.569188	-0.227078
N101	N	1.394641	-0.555635	-0.647653
N102	N	1.334057	-0.531260	-0.708109
H103	H	1.285121	-0.550955	-0.756980
N104	N	0.935096	-0.274988	-0.699185
N105	N	0.876102	-0.311601	-0.671088
H106	H	0.850422	-0.337811	-0.724875
N107	N	1.473108	-0.343653	-0.912947
N108	N	1.550266	-0.351162	-0.853097
H109	H	1.566598	-0.387507	-0.826974
N110	N	1.346405	-0.280488	-0.911268
N111	N	1.332692	-0.242529	-0.850826
H112	H	1.259536	-0.234262	-0.823516
N113	N	1.671743	-0.318136	-1.109352
N114	N	1.610095	-0.342943	-1.167992
H115	H	1.630057	-0.378892	-1.193763
H116	H	1.558642	-0.165749	-0.920727
H117	H	1.366669	-0.282581	-1.101819
H118	H	1.419597	-0.184825	-0.921801
H119	H	1.705113	-0.236632	-0.921270
N120	N	1.669274	-1.057943	-0.373909
N121	N	1.632032	-1.088455	-0.306331
H122	H	1.680972	-1.108147	-0.257464
N123	N	1.736849	-0.696392	-0.306087
N124	N	1.729866	-0.702540	-0.208265
H125	H	1.778788	-0.682851	-0.159370
N126	N	1.669210	-0.947572	-0.373881
N127	N	1.729777	-0.971951	-0.313415
H128	H	1.778706	-0.952259	-0.264531
N129	N	1.574772	-0.157813	-1.109556
N130	N	1.649550	-0.170390	-1.168954
H131	H	1.700852	-0.142987	-1.194777
N132	N	1.400529	-0.181212	-1.111521
N133	N	1.349950	-0.210744	-1.171729
H134	H	1.278187	-0.199869	-1.198938
N135	N	1.395007	-1.057971	-0.647761
N136	N	1.334430	-1.033592	-0.708217
H137	H	1.285491	-1.053284	-0.757090
H138	H	1.123730	-0.170550	-0.448058
N139	N	1.130623	-0.345899	-0.552327
N140	N	1.227539	-0.354043	-0.562526
H141	H	1.253381	-0.381556	-0.613470
N142	N	0.934102	-0.159899	-0.453030
N143	N	0.874289	-0.152594	-0.530301
H144	H	0.848191	-0.116299	-0.547074
H145	H	1.122872	-0.220648	-0.345759
H146	H	0.941772	-0.337992	-0.536418
H147	H	1.124686	-0.319020	-0.399035
H148	H	0.940591	-0.198420	-0.650774
H149	H	1.123199	-0.196121	-0.645409
