data_functionalizedCrystal
_audit_creation_method	'MofGen! by Chris Wilmer'
_symmetry_space_group_name_H-M	'P1'
_symmetry_Int_Tables_number	1
_symmetry_cell_setting	triclinic
loop_
_symmetry_equiv_pos_as_xyz
  x,y,z
_cell_length_a	15.944551
_cell_length_b	10.654554
_cell_length_c	9.130313
_cell_angle_alpha	89.999583
_cell_angle_beta	89.996359
_cell_angle_gamma	96.007210
loop_
_atom_site_label
_atom_site_type_symbol
_atom_site_fract_x
_atom_site_fract_y
_atom_site_fract_z
O1	O	-0.117992	1.666304	-0.121788
O2	O	-0.129227	1.300681	-0.121788
O3	O	-0.001393	1.493477	-0.121797
O4	O	-0.245826	1.473508	-0.121780
O5	O	-0.001396	1.493474	0.121802
O6	O	-0.129231	1.300678	0.121811
O7	O	-0.117995	1.666302	0.121811
Cu8	Cu	-0.123613	1.483490	0.144053
Cu9	Cu	-0.123609	1.483493	-0.144031
O10	O	-0.245830	1.473506	0.121819
C11	C	-0.128403	1.253892	0.000011
C12	C	-0.125933	1.114481	0.000010
C13	C	-0.046019	0.932954	-0.000008
C14	C	-0.048340	1.063945	0.000003
C15	C	-0.201209	1.034018	0.000022
C16	C	-0.198887	0.903029	0.000022
C17	C	0.031578	0.882425	-0.000030
C18	C	0.106854	0.962879	-0.000038
C19	C	0.104533	1.093871	-0.000028
C20	C	0.026936	1.144408	-0.000008
C21	C	-0.277127	1.474336	0.000022
C22	C	-0.370387	1.476821	0.000028
C23	C	-0.585972	1.602265	0.000006
C24	C	-0.646652	1.544012	0.120114
C25	C	-0.541139	1.481317	0.000015
C26	C	-0.646634	1.543986	-0.120055
C27	C	-0.706077	1.485669	-0.000004
C28	C	-0.600591	1.423031	0.120223
C29	C	-0.600567	1.423021	-0.120055
C30	C	-0.661229	1.364680	0.000083
C31	C	-0.446123	1.478814	0.000027
C32	C	-0.801093	1.488163	-0.000005
C33	C	0.029904	1.492647	-0.000002
C34	C	0.123165	1.490161	-0.000018
C35	C	-0.118819	1.713090	0.000008
C36	C	-0.121290	1.852501	-0.000001
N37	N	-0.123616	1.483497	0.346676
N38	N	-0.123600	1.483495	-0.346653
C39	C	-0.067030	1.568889	0.423324
C40	C	-0.067020	1.568885	0.576661
C41	C	-0.180189	1.398095	0.576688
C42	C	-0.180194	1.398093	0.423354
C43	C	-0.010451	1.654293	0.346646
C44	C	0.046138	1.739692	0.423294
C45	C	0.046149	1.739689	0.576631
C46	C	-0.010431	1.654286	0.653320
H47	H	0.170032	0.921722	-0.000066
H48	H	0.092209	1.809218	0.360847
H49	H	0.165827	1.159373	-0.000021
N50	N	-0.010425	1.654291	0.818705
H51	H	-0.054857	1.587240	0.855651
H52	H	0.046790	1.636067	0.855514
H53	H	-0.580305	1.371913	0.221875
H54	H	0.092232	1.809216	0.639037
N55	N	-0.704382	1.231586	0.000155
H56	H	-0.687645	1.186077	0.090914
H57	H	-0.767526	1.234082	-0.000763
H58	H	-0.553248	1.702659	0.000124
H59	H	-0.260179	0.837522	0.000033
H60	H	0.025052	1.251072	0.000014
N61	N	-0.284898	1.088521	0.000038
H62	H	-0.274947	1.183710	0.000033
H63	H	-0.317868	1.059091	-0.090265
H64	H	-0.580140	1.371909	-0.221602
N65	N	-0.673695	1.611766	0.254611
H66	H	-0.646058	1.701501	0.254522
H67	H	-0.737010	1.612120	0.253999
H68	H	-0.667019	1.595166	-0.221592
N69	N	-0.010466	1.654287	0.181264
H70	H	-0.023226	1.739603	0.144333
H71	H	0.046727	1.635974	0.144425
N72	N	-0.241211	1.305987	0.659394
H73	H	-0.232621	1.318948	0.768161
H74	H	-0.300891	1.320490	0.632605
N75	N	-0.241224	1.305989	0.340678
H76	H	-0.300932	1.320446	0.367368
H77	H	-0.232566	1.318990	0.231934
H78	H	0.033476	0.775767	-0.000042
