data_functionalizedCrystal
_audit_creation_method	'MofGen! by Chris Wilmer'
_symmetry_space_group_name_H-M	'P1'
_symmetry_Int_Tables_number	1
_symmetry_cell_setting	triclinic
loop_
_symmetry_equiv_pos_as_xyz
  x,y,z
_cell_length_a	16.109318
_cell_length_b	16.109304
_cell_length_c	15.186229
_cell_angle_alpha	89.999066
_cell_angle_beta	90.000224
_cell_angle_gamma	83.465600
loop_
_atom_site_label
_atom_site_type_symbol
_atom_site_fract_x
_atom_site_fract_y
_atom_site_fract_z
O1	O	1.103123	0.106935	-0.073150
O2	O	1.436456	0.440268	0.260184
O3	O	1.769789	0.773601	0.593517
O4	O	0.861063	0.120219	-0.073167
O5	O	1.194396	0.453552	0.260166
O6	O	1.527730	0.786885	0.593500
O7	O	0.988741	-0.007454	-0.073158
O8	O	1.322074	0.325880	0.260175
O9	O	1.655408	0.659213	0.593508
O10	O	0.975444	0.234607	-0.073158
O11	O	1.308778	0.567940	0.260175
O12	O	1.642111	0.901274	0.593508
O13	O	0.988733	-0.007456	0.073299
O14	O	1.322066	0.325878	0.406632
O15	O	1.655399	0.659211	0.739966
O16	O	0.861054	0.120217	0.073290
O17	O	1.194388	0.453550	0.406624
O18	O	1.527721	0.786884	0.739957
O19	O	1.103114	0.106933	0.073308
O20	O	1.436448	0.440266	0.406641
O21	O	1.769781	0.773599	0.739974
Zn22	Zn	0.982083	0.113575	0.096552
Zn23	Zn	1.315416	0.446908	0.429886
Zn24	Zn	1.648750	0.780241	0.763219
Zn25	Zn	0.982094	0.113577	-0.096412
Zn26	Zn	1.315427	0.446910	0.236922
Zn27	Zn	1.648761	0.780244	0.570255
O28	O	0.975436	0.234605	0.073299
O29	O	1.308769	0.567939	0.406632
O30	O	1.642103	0.901272	0.739966
C31	C	0.830084	0.119677	0.000059
C32	C	1.163417	0.453011	0.333393
C33	C	1.496751	0.786344	0.666726
C34	C	0.737789	0.118056	0.000053
C35	C	1.071123	0.451390	0.333386
C36	C	1.404456	0.784723	0.666719
C37	C	0.438720	0.112822	-0.079766
C38	C	0.772054	0.446156	0.253568
C39	C	1.105387	0.779489	0.586901
C40	C	0.525442	0.114340	-0.079771
C41	C	0.858775	0.447673	0.253562
C42	C	1.192108	0.781006	0.586896
C43	C	0.525451	0.114326	0.079905
C44	C	0.858784	0.447660	0.413238
C45	C	1.192118	0.780993	0.746571
C46	C	0.438732	0.112803	0.079909
C47	C	0.772065	0.446136	0.413243
C48	C	1.105399	0.779470	0.746576
C49	C	0.395368	0.112055	0.000071
C50	C	0.728702	0.445389	0.333405
C51	C	1.062035	0.778722	0.666738
C52	C	0.568809	0.115096	0.000062
C53	C	0.902142	0.448429	0.333395
C54	C	1.235475	0.781763	0.666728
C55	C	0.662836	0.116741	0.000056
C56	C	0.996169	0.450075	0.333390
C57	C	1.329502	0.783408	0.666723
C58	C	0.301336	0.110408	0.000076
C59	C	0.634669	0.443742	0.333410
C60	C	0.968002	0.777075	0.666743
C61	C	0.988198	-0.038430	0.000068
C62	C	1.321531	0.294904	0.333402
C63	C	1.654865	0.628237	0.666735
C64	C	0.986582	-0.130725	0.000062
C65	C	1.319915	0.202609	0.333396
C66	C	1.653248	0.535942	0.666729
C67	C	0.982853	-0.343061	-0.079769
C68	C	1.316186	-0.009728	0.253565
C69	C	1.649520	0.323605	0.586898
C70	C	0.981327	-0.429782	-0.079768
C71	C	1.314660	-0.096448	0.253565
C72	C	1.647993	0.236885	0.586899
C73	C	0.981322	-0.429781	0.079908
C74	C	1.314655	-0.096447	0.413241
C75	C	1.647988	0.236886	0.746574
C76	C	0.982842	-0.343061	0.079906
C77	C	1.316175	-0.009728	0.413239
C78	C	1.649508	0.323605	0.746573
C79	C	0.983612	-0.299704	0.000065
C80	C	1.316945	0.033629	0.333399
C81	C	1.650278	0.366962	0.666732
C82	C	0.980565	-0.473144	0.000068
C83	C	1.313899	-0.139811	0.333401
C84	C	1.647232	0.193523	0.666734
C85	C	0.978911	-0.567170	0.000069
C86	C	1.312244	-0.233837	0.333402
C87	C	1.645577	0.099497	0.666736
C88	C	0.985265	-0.205672	0.000064
C89	C	1.318598	0.127661	0.333397
C90	C	1.651931	0.460994	0.666730
C91	C	1.134093	0.107474	0.000079
C92	C	1.467426	0.440808	0.333413
C93	C	1.800760	0.774141	0.666746
C94	C	1.226388	0.109095	0.000080
C95	C	1.559721	0.442428	0.333414
C96	C	1.893054	0.775762	0.666747
C97	C	0.975979	0.265581	0.000070
C98	C	1.309312	0.598914	0.333404
C99	C	1.642646	0.932248	0.666737
C100	C	0.977595	0.357876	0.000071
C101	C	1.310929	0.691210	0.333404
C102	C	1.644262	1.024543	0.666737
N103	N	0.982081	0.113572	0.228245
N104	N	1.315415	0.446906	0.561578
N105	N	1.648748	0.780239	0.894912
N106	N	0.982102	0.113572	-0.228104
N107	N	1.315436	0.446906	0.105229
N108	N	1.648769	0.780239	0.438562
C109	C	1.038636	0.057058	0.453972
C110	C	1.371970	0.390391	0.787305
C111	C	1.705303	0.723725	1.120638
C112	C	1.038639	0.057056	0.546161
C113	C	1.371972	0.390389	0.879495
C114	C	1.705306	0.723723	1.212828
C115	C	0.925541	0.170090	0.546163
C116	C	1.258874	0.503423	0.879496
C117	C	1.592208	0.836756	1.212829
C118	C	0.925535	0.170087	0.453975
C119	C	1.258868	0.503420	0.787308
C120	C	1.592202	0.836754	1.120641
C121	C	0.982088	0.113572	0.407881
C122	C	1.315421	0.446905	0.741215
C123	C	1.648754	0.780239	1.074548
C124	C	0.982096	0.113573	0.592259
C125	C	1.315429	0.446906	0.925592
C126	C	1.648763	0.780239	1.258926
C127	C	0.982099	0.113571	0.692215
C128	C	1.315432	0.446904	1.025549
C129	C	1.648765	0.780238	1.358882
C130	C	0.982084	0.113573	0.307919
C131	C	1.315418	0.446906	0.641252
C132	C	1.648751	0.780239	0.974586
H133	H	0.983477	-0.307763	-0.144780
H134	H	1.316811	0.025571	0.188553
H135	H	1.650144	0.358904	0.521886
O136	O	0.980444	-0.471917	-0.157296
O137	O	1.313778	-0.138584	0.176038
O138	O	1.647111	0.194750	0.509371
C139	C	0.907612	-0.512661	-0.162069
C140	C	1.240945	-0.179327	0.171264
C141	C	1.574278	0.154006	0.504597
H142	H	0.857771	-0.479933	-0.116768
H143	H	1.191104	-0.146600	0.216565
H144	H	1.524437	0.186734	0.549898
H145	H	0.883444	-0.510477	-0.232682
H146	H	1.216777	-0.177144	0.100651
H147	H	1.550111	0.156189	0.433984
H148	H	0.922725	-0.580517	-0.140619
H149	H	1.256058	-0.247183	0.192714
H150	H	1.589392	0.086150	0.526048
O151	O	1.093433	0.002089	0.409119
O152	O	1.426766	0.335423	0.742452
O153	O	1.760100	0.668756	1.075785
C154	C	1.048889	-0.049229	0.355844
C155	C	1.382222	0.284104	0.689178
C156	C	1.715556	0.617438	1.022511
H157	H	0.983843	-0.016106	0.342015
H158	H	1.317176	0.317228	0.675349
H159	H	1.650509	0.650561	1.008682
H160	H	1.083588	-0.062427	0.291024
H161	H	1.416922	0.270906	0.624358
H162	H	1.750255	0.604240	0.957691
H163	H	1.043217	-0.110651	0.391412
H164	H	1.376550	0.222683	0.724746
H165	H	1.709884	0.556016	1.058079
H166	H	0.560735	0.114963	-0.144782
H167	H	0.894068	0.448297	0.188551
H168	H	1.227402	0.781630	0.521884
O169	O	0.870683	0.225105	0.409238
O170	O	1.204016	0.558438	0.742571
O171	O	1.537350	0.891772	1.075905
C172	C	0.884162	0.307414	0.431773
C173	C	1.217495	0.640747	0.765106
C174	C	1.550828	0.974081	1.098440
H175	H	0.950724	0.307845	0.457111
H176	H	1.284057	0.641179	0.790445
H177	H	1.617390	0.974512	1.123778
H178	H	0.874584	0.349133	0.371143
H179	H	1.207917	0.682466	0.704477
H180	H	1.541251	1.015800	1.037810
H181	H	0.838077	0.331821	0.485285
H182	H	1.171411	0.665154	0.818618
H183	H	1.504744	0.998488	1.151951
H184	H	0.879498	0.216104	0.583701
H185	H	1.212832	0.549437	0.917034
H186	H	1.546165	0.882770	1.250368
O187	O	1.093493	0.002192	0.591069
O188	O	1.426826	0.335525	0.924402
O189	O	1.760159	0.668858	1.257736
C190	C	1.081387	0.014321	0.682321
C191	C	1.414720	0.347654	1.015655
C192	C	1.748054	0.680987	1.348988
H193	H	1.015282	0.045369	0.694916
H194	H	1.348615	0.378703	1.028249
H195	H	1.681949	0.712036	1.361583
H196	H	1.090659	-0.048640	0.717357
H197	H	1.423992	0.284693	1.050691
H198	H	1.757325	0.618027	1.384024
H199	H	1.128431	0.056038	0.708480
H200	H	1.461764	0.389372	1.041813
H201	H	1.795098	0.722705	1.375146
H202	H	0.403416	0.112212	-0.144775
H203	H	0.736750	0.445546	0.188559
H204	H	1.070083	0.778879	0.521892
H205	H	0.403434	0.112178	0.144926
H206	H	0.736768	0.445511	0.478259
H207	H	1.070101	0.778844	0.811593
O208	O	0.567699	0.115100	0.157376
O209	O	0.901032	0.448434	0.490710
O210	O	1.234365	0.781767	0.824043
C211	C	0.653538	0.116591	0.140255
C212	C	0.986872	0.449925	0.473588
C213	C	1.320205	0.783258	0.806922
H214	H	0.661929	0.143109	0.071643
H215	H	0.995262	0.476442	0.404976
H216	H	1.328596	0.809775	0.738309
H217	H	0.681208	0.157509	0.191242
H218	H	1.014542	0.490842	0.524576
H219	H	1.347875	0.824176	0.857909
H220	H	0.686889	0.050364	0.144036
H221	H	1.020222	0.383698	0.477369
H222	H	1.353556	0.717031	0.810702
H223	H	0.980697	-0.465093	0.144911
H224	H	1.314030	-0.131759	0.478245
H225	H	1.647363	0.201574	0.811578
O226	O	0.983613	-0.301072	0.157541
O227	O	1.316947	0.032261	0.490874
O228	O	1.650280	0.365595	0.824207
C229	C	0.982593	-0.357931	0.228011
C230	C	1.315927	-0.024598	0.561344
C231	C	1.649260	0.308735	0.894677
H232	H	1.007819	-0.423197	0.204613
H233	H	1.341152	-0.089863	0.537946
H234	H	1.674486	0.243470	0.871280
H235	H	1.023368	-0.338157	0.283849
H236	H	1.356701	-0.004824	0.617182
H237	H	1.690035	0.328510	0.950515
H238	H	0.915771	-0.358418	0.252554
H239	H	1.249104	-0.025084	0.585887
H240	H	1.582437	0.308249	0.919221
