data_functionalizedCrystal
_audit_creation_method	'MofGen! by Chris Wilmer'
_symmetry_space_group_name_H-M	'P1'
_symmetry_Int_Tables_number	1
_symmetry_cell_setting	triclinic
loop_
_symmetry_equiv_pos_as_xyz
  x,y,z
_cell_length_a	10.540558
_cell_length_b	9.016244
_cell_length_c	11.026607
_cell_angle_alpha	90.004083
_cell_angle_beta	83.440423
_cell_angle_gamma	89.998287
loop_
_atom_site_label
_atom_site_type_symbol
_atom_site_fract_x
_atom_site_fract_y
_atom_site_fract_z
O1	O	-1.723428	0.123291	0.171468
O2	O	-1.357550	0.123303	0.187589
O3	O	-1.510165	0.123293	0.002611
O4	O	-1.570813	0.123301	0.356446
O5	O	-1.510152	-0.123388	0.002600
O6	O	-1.357536	-0.123378	0.187578
O7	O	-1.723415	-0.123390	0.171457
Cu8	Cu	-1.540474	-0.145908	0.179517
Cu9	Cu	-1.540490	0.145821	0.179530
O10	O	-1.570799	-0.123379	0.356435
C11	C	-1.309974	-0.000036	0.186370
C12	C	-1.168232	-0.000031	0.182739
N13	N	-1.540472	-0.351094	0.179507
C14	C	-1.622172	-0.414024	0.080567
C15	C	-1.622617	-0.585914	0.080842
C16	C	-1.597956	-0.586561	0.306806
C17	C	-1.598557	-0.414616	0.306213
C18	C	-1.401267	-0.414479	0.152313
C19	C	-1.401518	-0.586435	0.149452
C20	C	-0.954400	-0.000613	0.043920
C21	C	-1.101824	-0.000040	0.047602
C22	C	-1.120811	0.140831	0.247773
C23	C	-0.973256	0.140931	0.243152
C24	C	-0.973354	-0.139591	0.245889
C25	C	-1.120610	-0.141435	0.247143
C26	C	-0.770989	-0.000052	0.172660
C27	C	-0.912727	-0.000058	0.176243
C28	C	-1.498970	-0.000046	-0.042703
C29	C	-1.465617	-0.000039	-0.177708
N30	N	-1.540500	0.351007	0.179530
C31	C	-1.557710	-0.000040	-0.250710
C32	C	-1.523241	-0.000034	-0.390245
C33	C	-1.581994	-0.000038	0.401749
C34	C	-1.615347	-0.000035	0.536755
H35	H	-1.584197	-0.628128	-0.013715
F36	F	-1.338293	-0.357826	0.033471
F37	F	-1.386821	-0.000015	-0.443565
H38	H	-1.358578	-0.627241	0.055814
H39	H	-0.912554	0.099842	-0.009237
F40	F	-1.572219	-0.360006	-0.043443
F41	F	-1.755627	-0.357542	0.103184
F42	F	-1.751768	-0.000032	-0.409929
F43	F	-1.315457	-0.642543	0.237386
F44	F	-1.523813	-0.639956	0.405457
F45	F	-1.756876	-0.639677	0.103792
H46	H	-1.132288	0.101110	-0.003922
F47	F	-1.694123	-0.000036	-0.197385
F48	F	-1.178467	0.147714	0.377479
H49	H	-1.361254	-0.000026	-0.218511
F50	F	-0.919598	-0.279153	0.188715
H51	H	-1.133224	-0.101016	-0.003570
F52	F	-1.732389	-0.362181	0.337207
H53	H	-1.542544	-0.372985	0.381954
H54	H	-0.934523	0.246225	0.195090
F55	F	-1.730506	-0.642834	0.338511
F56	F	-1.321360	-0.361284	0.246595
H57	H	-1.153510	0.245663	0.202605
F58	F	-0.938376	0.149291	0.370175
F59	F	-0.901740	-0.132657	-0.025867
H60	H	-1.151160	-0.245645	0.199632
H61	H	-0.947506	-0.140541	0.343492
F62	F	-1.180474	-0.152547	0.375924
