data_functionalizedCrystal
_audit_creation_method	'MofGen! by Chris Wilmer'
_symmetry_space_group_name_H-M	'P1'
_symmetry_Int_Tables_number	1
_symmetry_cell_setting	triclinic
loop_
_symmetry_equiv_pos_as_xyz
  x,y,z
_cell_length_a	6.817900
_cell_length_b	9.582860
_cell_length_c	16.305550
_cell_angle_alpha	93.101780
_cell_angle_beta	103.455250
_cell_angle_gamma	111.206767
loop_
_atom_site_label
_atom_site_type_symbol
_atom_site_fract_x
_atom_site_fract_y
_atom_site_fract_z
V1	V	-4.066500	-0.208318	-0.262876
O2	O	-4.012158	0.008711	-0.258031
O3	O	-4.057274	-0.411809	-0.260925
O4	O	-4.017397	-0.205684	-0.377595
O5	O	-4.052310	-0.198842	-0.140553
V6	V	-4.545144	-0.182291	-0.248264
O7	O	-4.338463	-0.265409	-0.294929
O8	O	-4.723378	-0.125200	-0.216211
O9	O	-4.331164	0.021200	-0.250215
O10	O	-4.716883	-0.399320	-0.253109
O11	O	-4.676731	-0.191767	-0.370586
O12	O	-4.371040	-0.184925	-0.133545
C13	C	-3.911827	-0.461398	-0.256738
C14	C	-3.985565	-0.627759	-0.255908
C15	C	-3.860960	-0.198463	-0.405561
C16	C	-3.902355	-0.197656	-0.499344
C17	C	-4.052838	-0.194528	-0.840092
C18	C	-3.814995	-0.185242	-0.799170
C19	C	-3.772084	-0.186701	-0.701674
C20	C	-3.978180	-0.196079	-0.671043
C21	C	-4.173773	-0.343876	-0.721559
C22	C	-4.215475	-0.343040	-0.819109
C23	C	-4.081056	-0.057197	-0.794351
C24	C	-4.032900	-0.056027	-0.696509
C25	C	-3.936001	-0.196961	-0.575504
C26	C	-4.095028	-0.193656	-0.935631
C27	C	-4.139954	0.070781	-0.254399
C28	C	-4.045455	0.237140	-0.255235
C29	C	-4.190821	-0.192151	-0.105574
C30	C	-4.128662	-0.192951	-0.011790
H31	H	-3.688225	-0.078474	-0.811613
H32	H	-4.391816	-0.356002	-0.847091
H33	H	-3.625052	-0.080435	-0.666730
H34	H	-4.138434	-0.447867	-0.704669
O35	O	-4.287639	-0.063918	-0.826457
C36	C	-4.406248	-0.192103	-0.889917
H37	H	-4.287770	-0.227109	-0.916672
H38	H	-4.507216	-0.289295	-0.860941
C39	C	-4.704982	-0.110549	-0.929374
C40	C	-4.559465	-0.153537	-0.962241
H41	H	-4.799501	-0.086764	-0.973986
H42	H	-4.625078	-0.024191	-0.886618
H43	H	-4.789100	-0.191551	-0.905229
H44	H	-4.475331	-0.072529	-0.986376
H45	H	-4.639359	-0.239880	-1.005003
H46	H	-4.329288	-0.356084	-0.702637
O47	O	-3.863138	0.074252	-0.655505
C48	C	-3.695515	0.039007	-0.604043
H49	H	-3.767698	-0.080483	-0.588484
H50	H	-3.567771	0.045794	-0.639704
C51	C	-3.498810	0.299510	-0.539783
C52	C	-3.587470	0.152755	-0.520667
H53	H	-3.432154	0.369678	-0.488354
H54	H	-3.611736	0.323258	-0.574456
H55	H	-3.392370	0.305145	-0.569503
H56	H	-3.693926	0.147118	-0.490957
H57	H	-3.474559	0.129010	-0.485986
O58	O	-3.784331	-0.303078	-0.836731
C59	C	-3.976867	-0.393843	-0.899879
H60	H	-4.122653	-0.376288	-0.885285
H61	H	-3.962464	-0.360589	-0.964958
C62	C	-3.830652	-0.583185	-0.918583
C63	C	-4.009712	-0.561634	-0.900655
H64	H	-3.850910	-0.686686	-0.919065
H65	H	-3.700933	-0.522033	-0.876042
H66	H	-3.818668	-0.555464	-0.972815
H67	H	-4.021676	-0.589337	-0.846420
H68	H	-4.139434	-0.622795	-0.943187
O69	O	-3.945995	0.076275	-0.810447
C70	C	-3.823927	0.047547	-0.863387
H71	H	-3.815686	-0.068129	-0.856615
H72	H	-3.905942	0.048869	-0.932607
C73	C	-3.601049	0.312718	-0.845175
C74	C	-3.590912	0.170647	-0.836852
H75	H	-3.457317	0.388654	-0.828811
H76	H	-3.683293	0.332074	-0.809511
H77	H	-3.669405	0.313798	-0.902859
H78	H	-3.522583	0.169562	-0.779167
H79	H	-3.508651	0.151293	-0.872507
H80	H	-3.724943	-0.286506	-0.685306
H81	H	-4.199420	-0.447004	-0.849413
H82	H	-4.179833	-0.054188	-0.675163
