data_functionalizedCrystal
_audit_creation_method	'MofGen! by Chris Wilmer'
_symmetry_space_group_name_H-M	'P1'
_symmetry_Int_Tables_number	1
_symmetry_cell_setting	triclinic
loop_
_symmetry_equiv_pos_as_xyz
  x,y,z
_cell_length_a	16.109293
_cell_length_b	15.995343
_cell_length_c	15.186229
_cell_angle_alpha	90.010549
_cell_angle_beta	89.996077
_cell_angle_gamma	96.526273
loop_
_atom_site_label
_atom_site_type_symbol
_atom_site_fract_x
_atom_site_fract_y
_atom_site_fract_z
O1	O	-1.103157	0.107596	0.073307
O2	O	-0.603157	0.607596	0.573307
O3	O	-0.861097	0.120997	0.073295
O4	O	-0.361097	0.620997	0.573295
O5	O	-0.988747	-0.007594	0.073285
O6	O	-0.488747	0.492406	0.573285
O7	O	-0.975507	0.236186	0.073317
O8	O	-0.475507	0.736186	0.573317
O9	O	-0.988746	-0.007601	-0.073172
O10	O	-0.488746	0.492399	0.426828
O11	O	-0.861096	0.120989	-0.073162
O12	O	-0.361096	0.620989	0.426838
O13	O	-1.103156	0.107588	-0.073150
O14	O	-0.603156	0.607588	0.426850
Zn15	Zn	-0.982126	0.114287	-0.096409
Zn16	Zn	-0.482126	0.614287	0.403591
Zn17	Zn	-0.982127	0.114298	0.096555
Zn18	Zn	-0.482127	0.614298	0.596555
O19	O	-0.975506	0.236179	-0.073140
O20	O	-0.475506	0.736179	0.426860
C21	C	-0.830122	0.120451	0.000065
C22	C	-0.330122	0.620451	0.500065
C23	C	-0.737826	0.118827	0.000059
C24	C	-0.237826	0.618827	0.500059
C25	C	-0.525482	0.115068	-0.079772
C26	C	-0.025482	0.615068	0.420228
C27	C	-0.438762	0.113533	-0.079772
C28	C	0.061238	0.613533	0.420228
C29	C	-0.438773	0.113546	0.079904
C30	C	0.061227	0.613546	0.579904
C31	C	-0.525493	0.115075	0.079903
C32	C	-0.025493	0.615075	0.579903
C33	C	-0.568845	0.115840	0.000062
C34	C	-0.068845	0.615840	0.500062
C35	C	-0.395404	0.112776	0.000064
C36	C	0.104596	0.612776	0.500064
C37	C	-0.301378	0.111112	0.000065
C38	C	0.198622	0.611112	0.500065
C39	C	-0.662878	0.117503	0.000060
C40	C	-0.162878	0.617503	0.500060
C41	C	-0.988201	-0.038792	0.000054
C42	C	-0.488201	0.461208	0.500054
C43	C	-0.986563	-0.131743	0.000047
C44	C	-0.486563	0.368257	0.500047
C45	C	-0.983590	-0.301928	0.000067
C46	C	-0.483590	0.198072	0.500067
C47	C	-0.891447	-0.325246	0.000064
C48	C	-0.391447	0.174754	0.500064
C49	C	-0.889713	-0.421923	0.000407
C50	C	-0.389713	0.078077	0.500407
C51	C	-0.980663	-0.469487	0.000086
C52	C	-0.480663	0.030513	0.500086
C53	C	-1.026995	-0.440398	0.083554
C54	C	-0.526995	0.059602	0.583554
C55	C	-1.028088	-0.343605	0.083614
C56	C	-0.528088	0.156395	0.583614
C57	C	-1.029435	-0.343719	-0.082941
C58	C	-0.529435	0.156281	0.417059
C59	C	-1.026034	-0.440213	-0.084028
C60	C	-0.526034	0.059787	0.415972
C61	C	-0.979013	-0.564185	0.000099
C62	C	-0.479013	-0.064185	0.500099
C63	C	-0.985243	-0.207231	0.000060
C64	C	-0.485243	0.292769	0.500060
C65	C	-0.134131	0.108142	0.000076
C66	C	0.365869	0.608142	0.500076
C67	C	-0.226424	0.109789	0.000067
C68	C	0.273576	0.609789	0.500067
C69	C	-0.976053	0.267377	0.000093
C70	C	-0.476053	0.767377	0.500093
C71	C	-0.977690	0.360328	0.000106
C72	C	-0.477690	0.860328	0.500106
N73	N	-0.982129	0.114298	0.228247
N74	N	-0.482129	0.614298	0.728247
N75	N	-0.982131	0.114280	-0.228102
N76	N	-0.482131	0.614280	0.271898
C77	C	-1.038761	0.057469	0.453966
C78	C	-0.538761	0.557469	0.953966
C79	C	-1.038764	0.057466	0.546155
C80	C	-0.538764	0.557466	1.046155
C81	C	-0.925496	0.171116	0.546173
C82	C	-0.425496	0.671116	1.046173
C83	C	-0.925498	0.171121	0.453985
C84	C	-0.425498	0.671121	0.953985
C85	C	-0.982130	0.114293	0.407884
C86	C	-0.482130	0.614293	0.907884
C87	C	-0.982130	0.114285	0.592261
C88	C	-0.482130	0.614285	1.092261
C89	C	-0.982132	0.114283	0.692218
C90	C	-0.482132	0.614283	1.192218
C91	C	-0.982129	0.114296	0.307921
C92	C	-0.482129	0.614296	0.807921
H93	H	-0.560800	0.115701	0.144917
H94	H	-0.060800	0.615701	0.644917
H95	H	-1.000364	-0.315449	-0.146229
H96	H	-0.500364	0.184551	0.353771
H97	H	-1.084879	0.011196	0.583673
H98	H	-0.584879	0.511196	1.083673
H99	H	-0.403465	0.112924	0.144908
H100	H	0.096535	0.612924	0.644908
H101	H	-1.095660	-0.329052	0.087175
H102	H	-0.595660	0.170948	0.587175
H103	H	-0.879382	0.217399	0.416463
H104	H	-0.379382	0.717399	0.916463
H105	H	-0.853437	-0.440939	-0.059410
H106	H	-0.353437	0.059061	0.440590
Cl107	Cl	-1.130340	-0.489593	0.087996
Cl108	Cl	-0.630340	0.010407	0.587996
Cl109	Cl	-0.977918	-0.471386	0.179824
Cl110	Cl	-0.477918	0.028614	0.679824
Cl111	Cl	-0.836296	-0.281996	-0.092335
Cl112	Cl	-0.336296	0.218004	0.407665
H113	H	-0.992294	-0.458771	-0.145779
H114	H	-0.492294	0.041229	0.354221
Cl115	Cl	-0.384252	0.112564	-0.180139
Cl116	Cl	0.115748	0.612564	0.319861
Cl117	Cl	-1.128522	-0.491066	-0.092160
Cl118	Cl	-0.628522	0.008934	0.407840
H119	H	-0.560777	0.115691	-0.144784
H120	H	-0.060777	0.615691	0.355216
H121	H	-1.084875	0.011197	0.416432
H122	H	-0.584875	0.511197	0.916432
Cl123	Cl	-0.854302	0.242551	0.604133
Cl124	Cl	-0.354302	0.742551	1.104133
H125	H	-0.856313	-0.296243	0.059828
H126	H	-0.356313	0.203757	0.559828
Cl127	Cl	-0.979128	-0.302218	0.180307
Cl128	Cl	-0.479128	0.197782	0.680307
Cl129	Cl	-0.833987	-0.450365	0.093328
Cl130	Cl	-0.333987	0.049635	0.593328
Cl131	Cl	-1.134148	-0.322113	-0.084184
Cl132	Cl	-0.634148	0.177887	0.415816
