data_functionalizedCrystal
_audit_creation_method	'MofGen! by Chris Wilmer'
_symmetry_space_group_name_H-M	'P1'
_symmetry_Int_Tables_number	1
_symmetry_cell_setting	triclinic
loop_
_symmetry_equiv_pos_as_xyz
  x,y,z
_cell_length_a	13.339070
_cell_length_b	11.026607
_cell_length_c	9.482900
_cell_angle_alpha	101.400185
_cell_angle_beta	78.145528
_cell_angle_gamma	112.107656
loop_
_atom_site_label
_atom_site_type_symbol
_atom_site_fract_x
_atom_site_fract_y
_atom_site_fract_z
O1	O	1.473423	0.633515	-0.120937
O2	O	1.163403	0.548448	-0.120930
O3	O	1.292718	0.405678	-0.120927
O4	O	1.344108	0.776285	-0.120939
O5	O	1.266481	0.434839	0.120865
O6	O	1.137166	0.577609	0.120862
O7	O	1.447185	0.662676	0.120855
Cu8	Cu	1.289780	0.622806	0.142936
Cu9	Cu	1.320809	0.588319	-0.143011
O10	O	1.317870	0.805447	0.120853
C11	C	1.270120	0.371856	-0.000033
C12	C	1.241859	0.227625	-0.000037
C13	C	1.109978	0.548659	-0.000033
C14	C	0.989876	0.505827	-0.000030
C15	C	1.319892	0.180093	-0.000041
C16	C	1.290686	0.031024	-0.000046
C17	C	0.685736	0.838865	-0.000064
C18	C	0.798579	0.879111	-0.000071
C19	C	0.846409	0.785794	-0.000060
C20	C	0.781385	0.652223	-0.000043
C21	C	0.668532	0.611971	-0.000047
C22	C	0.829205	0.558900	-0.000044
C23	C	0.764181	0.425329	-0.000027
C24	C	0.651339	0.385084	-0.000030
C25	C	0.603510	0.478402	-0.000041
C26	C	0.942058	0.599152	-0.000040
C27	C	0.924854	0.372258	-0.000024
C28	C	0.812011	0.332011	-0.000016
C29	C	1.500610	0.662465	-0.000045
C30	C	1.620714	0.705296	-0.000057
C31	C	1.340469	0.839268	-0.000045
C32	C	1.368731	0.983497	-0.000050
N33	N	1.267964	0.647064	0.344056
N34	N	1.342631	0.564053	-0.344130
C35	C	1.314365	0.595464	0.416256
C36	C	1.296223	0.615660	0.583673
H37	H	1.202252	-0.038639	-0.000053
O38	O	1.124721	0.135353	-0.000037
H39	H	1.072003	0.192846	-0.000042
H40	H	1.395787	0.504915	0.593746
H41	H	1.243058	0.674786	0.645797
O42	O	1.485880	0.075748	-0.000057
H43	H	1.491791	0.150206	0.098500
H44	H	1.408321	0.249760	-0.000034
H45	H	0.994989	0.707906	-0.000047
O46	O	0.581208	0.241019	-0.000007
H47	H	0.609444	0.182451	-0.098542
O48	O	1.384760	0.517123	0.333950
H49	H	1.468659	0.565142	0.363037
H50	H	0.938292	0.818570	-0.000069
H51	H	0.759054	0.223254	-0.000015
H52	H	0.851515	0.987863	-0.000096
H53	H	0.963796	0.296269	-0.000021
O54	O	0.634152	0.939509	-0.000063
H55	H	0.544758	0.889078	-0.000052
O56	O	1.197561	0.725408	0.426324
H57	H	1.127680	0.661805	0.495703
O58	O	0.481795	0.434986	-0.000027
H59	H	0.459466	0.522319	-0.000034
