data_functionalizedCrystal
_audit_creation_method	'MofGen! by Chris Wilmer'
_symmetry_space_group_name_H-M	'P1'
_symmetry_Int_Tables_number	1
_symmetry_cell_setting	triclinic
loop_
_symmetry_equiv_pos_as_xyz
  x,y,z
_cell_length_a	16.959455
_cell_length_b	17.077402
_cell_length_c	16.959447
_cell_angle_alpha	90.031867
_cell_angle_beta	89.983056
_cell_angle_gamma	89.980170
loop_
_atom_site_label
_atom_site_type_symbol
_atom_site_fract_x
_atom_site_fract_y
_atom_site_fract_z
Zn1	Zn	1.208389	0.312556	-0.446901
Zn2	Zn	1.208299	0.443836	-0.314719
Zn3	Zn	1.076211	0.312581	-0.314738
Zn4	Zn	1.076175	0.443777	-0.446857
O5	O	1.142269	0.378187	-0.380804
O6	O	1.318988	0.329985	-0.429376
O7	O	1.190754	0.426459	-0.204110
O8	O	1.093797	0.202731	-0.332296
O9	O	1.318922	0.426435	-0.332263
O10	O	1.190908	0.202712	-0.429395
O11	O	1.093710	0.330027	-0.204125
O12	O	0.965596	0.329970	-0.332254
O13	O	1.093737	0.426335	-0.557474
O14	O	0.965569	0.426359	-0.429321
O15	O	1.190873	0.329928	-0.557506
O16	O	1.190720	0.553675	-0.332221
O17	O	1.093649	0.553631	-0.429303
C18	C	0.936902	0.378161	-0.380786
C19	C	0.849046	0.378169	-0.380797
C20	C	1.142192	0.582135	-0.380772
C21	C	1.142232	0.669385	-0.380785
C22	C	1.142311	0.378122	-0.586972
C23	C	1.142329	0.378094	-0.674829
C24	C	0.477559	0.327956	-0.330366
C25	C	0.477581	0.428483	-0.431286
C26	C	0.560127	0.428472	-0.431282
C27	C	0.601393	0.378203	-0.380817
C28	C	0.560113	0.327945	-0.330358
C29	C	0.601413	0.478734	-0.481734
C30	C	0.683964	0.478725	-0.481731
C31	C	0.725231	0.428452	-0.431270
C32	C	0.683946	0.378192	-0.380809
C33	C	0.725212	0.327923	-0.330345
C34	C	0.683929	0.277658	-0.279888
C35	C	0.601380	0.277672	-0.279898
C36	C	0.807780	0.428438	-0.431261
C37	C	0.807766	0.327912	-0.330337
C38	C	1.348437	0.378214	-0.380822
C39	C	1.436293	0.378225	-0.380830
C40	C	1.142367	0.173443	-0.380853
C41	C	1.142408	0.086193	-0.380874
C42	C	1.192828	0.710372	-0.330289
C43	C	1.192867	0.792352	-0.330309
C44	C	1.142305	0.833344	-0.380822
C45	C	1.091706	0.792352	-0.431324
C46	C	1.091672	0.710373	-0.431307
C47	C	1.091779	0.963222	-0.431354
C48	C	1.091812	1.045207	-0.431370
C49	C	1.192974	1.045201	-0.330356
C50	C	1.192940	0.963222	-0.330339
C51	C	1.142340	0.922235	-0.380840
C52	C	1.091872	0.327804	-1.046318
C53	C	1.192925	0.428219	-1.046291
C54	C	1.192911	0.428238	-0.963745
C55	C	1.142376	0.378039	-0.922482
C56	C	1.091855	0.327822	-0.963765
C57	C	1.243426	0.478460	-0.922456
C58	C	1.243414	0.478480	-0.839905
C59	C	1.192882	0.428277	-0.798640
C60	C	1.142359	0.378057	-0.839928
C61	C	1.091825	0.327859	-0.798665
C62	C	1.041305	0.277634	-0.839951
C63	C	1.041324	0.277619	-0.922500
C64	C	1.192864	0.428293	-0.716092
C65	C	1.091808	0.327877	-0.716111
C66	C	1.142272	0.378196	-0.175437
C67	C	1.142407	0.378002	-0.087581
H68	H	0.717538	0.236733	-0.238797
H69	H	0.567760	0.236750	-0.238817
H70	H	1.050541	0.825734	-0.472456
C71	C	0.432156	0.272663	-0.274866
C72	C	0.443470	0.278951	-0.184996
C73	C	0.398068	0.223655	-0.129497
C74	C	0.341351	0.162072	-0.163868
C75	C	0.330034	0.155782	-0.253743
C76	C	0.375437	0.211078	-0.309242
H77	H	0.485458	0.324540	-0.159548
H78	H	0.406446	0.228311	-0.062965
H79	H	0.307742	0.121139	-0.122784
H80	H	0.288047	0.110192	-0.279191
H81	H	0.367059	0.206421	-0.375774
C82	C	0.853156	0.272614	-0.274824
C83	C	0.909935	0.211021	-0.309179
C84	C	0.955324	0.155724	-0.253667
C85	C	0.943934	0.162019	-0.163799
C86	C	0.887152	0.223614	-0.129440
C87	C	0.841763	0.278911	-0.184952
H88	H	0.918369	0.206359	-0.375709
H89	H	0.997358	0.110127	-0.279103
H90	H	0.977534	0.121084	-0.122706
H91	H	0.878718	0.228276	-0.062910
H92	H	0.799729	0.324508	-0.159517
H93	H	0.841389	0.469365	-0.472340
H94	H	1.234067	0.825720	-0.289189
H95	H	0.717570	0.519653	-0.522817
C96	C	1.248502	0.483437	-1.091687
C97	C	1.214217	0.545041	-1.148413
C98	C	1.269793	0.600260	-1.193817
C99	C	1.359654	0.593876	-1.182496
C100	C	1.393944	0.532270	-1.125768
C101	C	1.338367	0.477051	-1.080363
H102	H	1.147692	0.549769	-1.156796
H103	H	1.244410	0.645865	-1.235811
H104	H	1.400795	0.634753	-1.216107
H105	H	1.460468	0.527542	-1.117385
H106	H	1.363751	0.431446	-1.038369
H107	H	0.443977	0.469414	-0.472367
H108	H	1.000193	0.236730	-0.956123
H109	H	1.050743	0.286910	-1.079937
C110	C	1.248558	0.918131	-0.274773
C111	C	1.242167	0.929474	-0.184912
C112	C	1.297787	0.884383	-0.129347
C113	C	1.359798	0.827950	-0.163642
C114	C	1.366191	0.816604	-0.253508
C115	C	1.310570	0.861695	-0.309073
H116	H	1.196261	0.971251	-0.159520
H117	H	1.293055	0.892783	-0.062822
H118	H	1.400971	0.794572	-0.122509
H119	H	1.412097	0.774827	-0.278900
H120	H	1.315303	0.853296	-0.375598
H121	H	1.234177	1.078576	-0.289239
H122	H	1.050659	0.286995	-0.682521
C123	C	1.298996	0.533677	-0.967861
C124	C	1.264699	0.595266	-1.024595
C125	C	1.320265	0.650485	-1.070013
C126	C	1.410128	0.644114	-1.058696
C127	C	1.444429	0.582522	-1.001960
C128	C	1.388863	0.527304	-0.956542
H129	H	1.198173	0.599984	-1.032974
H130	H	1.294873	0.696080	-1.112013
H131	H	1.451262	0.684991	-1.092317
H132	H	1.510955	0.577804	-0.993581
H133	H	1.414255	0.481709	-0.914542
H134	H	1.233998	0.677001	-0.289152
H135	H	0.567808	0.519665	-0.522814
C136	C	0.985717	0.222417	-0.794558
C137	C	0.895858	0.228806	-0.805895
C138	C	0.840271	0.173591	-0.760498
C139	C	0.874542	0.111987	-0.703764
C140	C	0.964406	0.105596	-0.692425
C141	C	1.019993	0.160811	-0.737822
H142	H	0.870484	0.274410	-0.847895
H143	H	0.773748	0.178322	-0.768893
H144	H	0.833393	0.071114	-0.670159
H145	H	0.989780	0.059992	-0.650425
H146	H	1.086516	0.156080	-0.729427
H147	H	1.050473	0.677002	-0.472427
C148	C	1.036198	1.090300	-0.486937
C149	C	0.980547	1.045221	-0.542493
C150	C	0.924933	1.090315	-0.598061
C151	C	0.924969	1.180489	-0.598073
C152	C	0.980622	1.225573	-0.542515
C153	C	1.036237	1.180479	-0.486947
H154	H	0.980519	0.978464	-0.542486
H155	H	0.883735	1.056940	-0.639189
H156	H	0.883800	1.213870	-0.639208
H157	H	0.980651	1.292330	-0.542522
H158	H	1.077435	1.213854	-0.445819
H159	H	1.284549	0.519377	-0.806296
H160	H	1.050578	0.929853	-0.472480
H161	H	1.234001	0.469179	-0.682480
