data_functionalizedCrystal
_audit_creation_method	'MofGen! by Chris Wilmer'
_symmetry_space_group_name_H-M	'P1'
_symmetry_Int_Tables_number	1
_symmetry_cell_setting	triclinic
loop_
_symmetry_equiv_pos_as_xyz
  x,y,z
_cell_length_a	13.330367
_cell_length_b	14.853567
_cell_length_c	14.853559
_cell_angle_alpha	96.366808
_cell_angle_beta	89.997552
_cell_angle_gamma	90.004582
loop_
_atom_site_label
_atom_site_type_symbol
_atom_site_fract_x
_atom_site_fract_y
_atom_site_fract_z
O1	O	-0.083349	-1.196365	0.117704
O2	O	-0.083366	-0.933905	0.131725
O3	O	-0.083356	-1.072150	-0.006515
O4	O	-0.083359	-1.058121	0.255945
O5	O	0.083491	-1.072130	-0.006519
O6	O	0.083481	-0.933885	0.131722
O7	O	0.083498	-1.196345	0.117701
Cu8	Cu	0.098724	-1.065113	0.124711
Cu9	Cu	-0.098592	-1.065137	0.124715
O10	O	0.083488	-1.058100	0.255942
C11	C	0.000055	-0.900307	0.131089
C12	C	0.000049	-0.800223	0.129185
C13	C	0.000066	-1.071506	-0.040106
C14	C	0.000060	-1.069605	-0.140190
N15	N	0.237505	-1.065103	0.124708
N16	N	-0.237374	-1.065154	0.124711
C17	C	0.710124	-1.003920	0.185904
C18	C	0.710101	-1.126379	0.063519
C19	C	0.605082	-1.126369	0.063516
C20	C	0.552580	-1.065134	0.124709
C21	C	0.605096	-1.003909	0.185905
C22	C	0.552559	-1.187598	0.002328
C23	C	0.447534	-1.187591	0.002323
C24	C	0.395029	-1.126351	0.063513
C25	C	0.447552	-1.065124	0.124710
C26	C	0.395050	-1.003889	0.185903
C27	C	0.447570	-0.942656	0.247097
C28	C	0.552592	-0.942670	0.247094
C29	C	0.290008	-1.126338	0.063515
C30	C	0.290021	-1.003879	0.185904
C31	C	0.000074	-1.229944	0.118338
C32	C	0.000074	-1.330027	0.120242
C33	C	0.000072	-0.387692	0.039019
C34	C	0.000070	-0.366406	0.203252
C35	C	0.000066	-0.460440	0.205042
C36	C	0.000065	-0.518104	0.123819
C37	C	0.000066	-0.481735	0.040806
C38	C	0.000055	-0.496816	0.288054
C39	C	0.000050	-0.590855	0.289847
C40	C	0.000056	-0.648521	0.208623
C41	C	0.000058	-0.612147	0.125607
C42	C	0.000057	-0.669811	0.044384
C43	C	0.000067	-0.633438	-0.038633
C44	C	0.000072	-0.539401	-0.040418
C45	C	0.000051	-0.742559	0.210408
C46	C	0.000050	-0.763854	0.046172
C47	C	-0.090889	-1.061552	-0.563363
C48	C	0.091014	-1.061530	-0.563361
C49	C	0.091015	-1.063323	-0.469328
C50	C	0.000062	-1.064230	-0.422308
C51	C	-0.090891	-1.063343	-0.469321
C52	C	0.181967	-1.064201	-0.422307
C53	C	0.181971	-1.065994	-0.328268
C54	C	0.091018	-1.066907	-0.281247
C55	C	0.000061	-1.066021	-0.328266
C56	C	-0.090892	-1.066927	-0.281245
C57	C	-0.181850	-1.066047	-0.328264
C58	C	-0.181845	-1.064256	-0.422300
C59	C	0.091012	-1.068698	-0.187210
C60	C	-0.090894	-1.068718	-0.187203
C61	C	0.000064	-1.058745	0.289532
C62	C	0.000063	-1.060646	0.389616
H63	H	0.247280	-0.954011	0.235732
C64	C	0.191060	-1.069666	-0.135495
N65	N	0.266421	-1.070397	-0.096544
C66	C	0.000049	-0.827278	-0.043182
N67	N	0.000047	-0.875049	-0.110484
C68	C	0.191056	-1.060523	-0.615085
N69	N	0.266412	-1.059763	-0.654048
H70	H	0.000058	-0.680401	-0.104765
C71	C	0.389771	-1.254941	-0.064998
N72	N	0.346263	-1.305666	-0.115708
H73	H	0.256035	-1.066713	-0.289994
H74	H	0.000103	-0.509777	-0.108006
H75	H	0.247250	-1.176197	0.013696
H76	H	0.000084	-0.358073	-0.028572
H77	H	0.000063	-0.319450	0.269380
H78	H	0.404811	-0.892802	0.296925
C79	C	0.610372	-0.875315	0.314397
N80	N	0.653896	-0.824584	0.365088
H81	H	0.595309	-1.237458	-0.047490
H82	H	0.000046	-0.449859	0.354181
H83	H	-0.255898	-1.063539	-0.460590
H84	H	0.752889	-0.954062	0.235725
C85	C	0.000055	-0.630856	0.381167
N86	N	0.000065	-0.660986	0.449950
H87	H	0.000044	-0.772169	0.277999
C88	C	0.767857	-1.193733	-0.003789
N89	N	0.811363	-1.244465	-0.054491
H90	H	-0.255904	-1.066779	-0.289967
C91	C	-0.190951	-1.069715	-0.135488
N92	N	-0.266315	-1.070465	-0.096537
C93	C	-0.190939	-1.060583	-0.615083
N94	N	-0.266297	-1.059851	-0.654039
H95	H	0.256015	-1.063458	-0.460597
