data_functionalizedCrystal
_audit_creation_method	'MofGen! by Chris Wilmer'
_symmetry_space_group_name_H-M	'P1'
_symmetry_Int_Tables_number	1
_symmetry_cell_setting	triclinic
loop_
_symmetry_equiv_pos_as_xyz
  x,y,z
_cell_length_a	12.759401
_cell_length_b	18.050588
_cell_length_c	12.759393
_cell_angle_alpha	90.032492
_cell_angle_beta	90.019596
_cell_angle_gamma	90.029838
loop_
_atom_site_label
_atom_site_type_symbol
_atom_site_fract_x
_atom_site_fract_y
_atom_site_fract_z
Zn1	Zn	1.606158	-0.295618	0.593968
Zn2	Zn	2.106158	0.204382	1.093968
Zn3	Zn	1.606003	-0.419826	0.418282
Zn4	Zn	2.106003	0.080174	0.918282
Zn5	Zn	1.430457	-0.295655	0.418307
Zn6	Zn	1.930457	0.204345	0.918307
Zn7	Zn	1.430403	-0.419771	0.593923
Zn8	Zn	1.930403	0.080229	1.093923
O9	O	1.518255	-0.357718	0.506120
O10	O	2.018255	0.142282	1.006120
O11	O	1.753158	-0.312102	0.570671
O12	O	2.253158	0.187898	1.070671
O13	O	1.582675	-0.403393	0.271264
O14	O	2.082675	0.096607	0.771264
O15	O	1.453851	-0.191725	0.441638
O16	O	1.953851	0.308275	0.941638
O17	O	1.753045	-0.403357	0.441595
O18	O	2.253045	0.096643	0.941595
O19	O	1.582938	-0.191698	0.570695
O20	O	2.082938	0.308302	1.070695
O21	O	1.453701	-0.312165	0.271283
O22	O	1.953701	0.187835	0.771283
O23	O	1.283428	-0.312112	0.441595
O24	O	1.783428	0.187888	0.941595
O25	O	1.453759	-0.403264	0.740950
O26	O	1.953759	0.096736	1.240950
O27	O	1.283389	-0.403300	0.570619
O28	O	1.783389	0.096700	1.070619
O29	O	1.582886	-0.312049	0.740983
O30	O	2.082886	0.187951	1.240983
O31	O	1.582622	-0.523743	0.441552
O32	O	2.082622	-0.023743	0.941552
O33	O	1.453610	-0.523703	0.570595
O34	O	1.953610	-0.023703	1.070595
C35	C	1.245288	-0.357704	0.506106
C36	C	1.745288	0.142296	1.006106
C37	C	1.128511	-0.357716	0.506124
C38	C	1.628511	0.142284	1.006124
C39	C	0.963925	-0.405281	0.573209
C40	C	1.463925	0.094719	1.073209
C41	C	1.073649	-0.405273	0.573198
C42	C	1.573649	0.094727	1.073198
C43	C	1.073644	-0.310170	0.439050
C44	C	1.573644	0.189830	0.939050
C45	C	0.963921	-0.310183	0.439056
C46	C	1.463921	0.189817	0.939056
C47	C	1.518122	-0.550670	0.506089
C48	C	2.018122	-0.050670	1.006089
C49	C	1.518161	-0.633215	0.506110
C50	C	2.018161	-0.133215	1.006110
C51	C	1.448114	-0.882046	0.576284
C52	C	1.948114	-0.382046	1.076284
C53	C	1.543915	-0.832574	0.602061
C54	C	2.043915	-0.332574	1.102061
C55	C	1.518379	-0.930336	0.506169
C56	C	2.018379	-0.430336	1.006169
C57	C	1.422476	-0.832727	0.480413
C58	C	1.922476	-0.332727	0.980413
C59	C	1.518267	-0.784351	0.506143
C60	C	2.018267	-0.284351	1.006143
C61	C	1.614232	-0.881950	0.531995
C62	C	2.114232	-0.381950	1.031995
C63	C	1.492727	-0.882108	0.410303
C64	C	1.992727	-0.382108	0.910303
C65	C	1.588595	-0.832658	0.436043
C66	C	2.088595	-0.332658	0.936043
C67	C	1.518443	-1.014434	0.506186
C68	C	2.018443	-0.514434	1.006186
C69	C	1.518215	-0.700254	0.506125
C70	C	2.018215	-0.200254	1.006125
C71	C	1.792288	-0.357731	0.506135
C72	C	2.292288	0.142269	1.006135
C73	C	1.909065	-0.357737	0.506142
C74	C	2.409065	0.142263	1.006142
C75	C	1.518334	-0.357646	0.780153
C76	C	2.018334	0.142354	1.280153
C77	C	1.518367	-0.357616	0.896930
C78	C	2.018367	0.142384	1.396930
C79	C	1.518418	-0.164012	0.506175
C80	C	2.018418	0.335988	1.006175
C81	C	1.518487	-0.081466	0.506198
C82	C	2.018487	0.418534	1.006198
C83	C	1.518237	-0.357735	0.233153
C84	C	2.018237	0.142265	0.733153
C85	C	1.518407	-0.357556	0.116377
C86	C	2.018407	0.142444	0.616377
C87	C	1.585608	-0.310113	0.951811
C88	C	2.085608	0.189887	1.451811
C89	C	1.585626	-0.310081	1.061535
C90	C	2.085626	0.189919	1.561535
C91	C	1.451159	-0.405061	1.061488
C92	C	1.951159	0.094939	1.561488
C93	C	1.451137	-0.405089	0.951766
C94	C	1.951137	0.094911	1.451766
H95	H	1.118321	-0.271452	0.384433
H96	H	1.618321	0.228548	0.884433
H97	H	1.640349	-0.271455	0.907167
H98	H	2.140349	0.228545	1.407167
C99	C	0.903571	-0.257880	0.365281
C100	C	1.403571	0.242120	0.865281
H101	H	0.951955	-0.229549	0.325338
H102	H	1.451955	0.270451	0.825338
H103	H	0.860735	-0.286255	0.319438
H104	H	1.360735	0.213745	0.819438
H105	H	0.860803	-0.225559	0.405563
H106	H	1.360803	0.274441	0.905563
C107	C	1.368014	-0.911351	0.656456
C108	C	1.868014	-0.411351	1.156456
H109	H	1.386377	-0.894389	0.724530
H110	H	1.886377	-0.394389	1.224530
H111	H	1.300097	-0.893776	0.638841
H112	H	1.800097	-0.393776	1.138841
H113	H	1.368172	-0.963977	0.655472
H114	H	1.868172	-0.463977	1.155472
C115	C	0.903586	-0.457569	0.647028
C116	C	1.403586	0.042431	1.147028
H117	H	0.951978	-0.485879	0.686973
H118	H	1.451978	0.014121	1.186973
H119	H	0.860835	-0.429181	0.692867
H120	H	1.360835	0.070819	1.192867
H121	H	0.860734	-0.489909	0.606787
H122	H	1.360734	0.010091	1.106787
H123	H	1.118311	-0.443989	0.627809
H124	H	1.618311	0.056011	1.127809
C125	C	1.573168	-0.803175	0.711560
C126	C	2.073168	-0.303175	1.211560
H127	H	1.523216	-0.820081	0.761309
H128	H	2.023216	-0.320081	1.261309
H129	H	1.640774	-0.820752	0.730333
H130	H	2.140774	-0.320752	1.230333
H131	H	1.573536	-0.750551	0.710595
H132	H	2.073536	-0.250551	1.210595
H133	H	1.695312	-0.903484	0.553862
H134	H	2.195312	-0.403484	1.053862
H135	H	1.640379	-0.271398	1.106214
H136	H	2.140379	0.228602	1.606214
H137	H	1.471044	-0.903880	0.329265
H138	H	1.971044	-0.403880	0.829265
C139	C	1.668886	-0.803530	0.355934
C140	C	2.168886	-0.303530	0.855934
H141	H	1.633882	-0.774608	0.304534
H142	H	2.133882	-0.274608	0.804534
H143	H	1.719511	-0.773841	0.390875
H144	H	2.219511	-0.273841	0.890875
H145	H	1.702790	-0.844175	0.322960
H146	H	2.202790	-0.344175	0.822960
H147	H	1.396424	-0.443714	1.106149
H148	H	1.896424	0.056286	1.606149
C149	C	1.377175	-0.457350	0.891393
C150	C	1.877175	0.042650	1.391393
H151	H	1.337150	-0.485628	0.939764
H152	H	1.837150	0.014372	1.439764
H153	H	1.331414	-0.428952	0.848589
H154	H	1.831414	0.071048	1.348589
H155	H	1.417340	-0.489722	0.848590
H156	H	1.917340	0.010278	1.348590
C157	C	1.312985	-0.803489	0.451017
C158	C	1.812985	-0.303489	0.951017
H159	H	1.263194	-0.820401	0.500922
H160	H	1.763194	-0.320401	1.000922
H161	H	1.313916	-0.750867	0.450606
H162	H	1.813916	-0.250867	0.950606
H163	H	1.294292	-0.821168	0.383402
H164	H	1.794292	-0.321168	0.883402
