data_functionalizedCrystal
_audit_creation_method	'MofGen! by Chris Wilmer'
_symmetry_space_group_name_H-M	'P1'
_symmetry_Int_Tables_number	1
_symmetry_cell_setting	triclinic
loop_
_symmetry_equiv_pos_as_xyz
  x,y,z
_cell_length_a	6.817900
_cell_length_b	13.167930
_cell_length_c	16.255661
_cell_angle_alpha	99.749107
_cell_angle_beta	103.488922
_cell_angle_gamma	105.754568
loop_
_atom_site_label
_atom_site_type_symbol
_atom_site_fract_x
_atom_site_fract_y
_atom_site_fract_z
V1	V	-4.046148	-0.149802	-0.275635
O2	O	-4.013373	0.006304	-0.258353
O3	O	-4.016690	-0.296172	-0.285325
O4	O	-3.997462	-0.147891	-0.390568
O5	O	-4.032734	-0.143004	-0.152381
V6	V	-4.527358	-0.131084	-0.259487
O7	O	-4.312479	-0.190863	-0.311058
O8	O	-4.711225	-0.090023	-0.224064
O9	O	-4.333609	0.015286	-0.249797
O10	O	-4.677530	-0.287190	-0.276769
O11	O	-4.658169	-0.137882	-0.382741
O12	O	-4.352838	-0.132995	-0.144554
C13	C	-3.866308	-0.331842	-0.283963
C14	C	-3.923508	-0.451503	-0.292652
C15	C	-3.946516	-0.645106	-0.151503
C16	C	-4.000259	-0.757538	-0.159663
C17	C	-4.084750	-0.788802	-0.317130
C18	C	-4.031007	-0.676370	-0.308971
C19	C	-3.961888	-0.604525	-0.226154
C20	C	-3.908131	-0.492091	-0.217995
C21	C	-3.992637	-0.523357	-0.375462
C22	C	-4.046379	-0.635789	-0.383622
C23	C	-3.841779	-0.142692	-0.418211
C24	C	-3.883382	-0.142098	-0.512245
C25	C	-3.793017	-0.134997	-0.734506
C26	C	-3.961325	-0.226649	-0.811180
C27	C	-3.959622	-0.140983	-0.684406
C28	C	-3.865469	-0.048282	-0.775288
C29	C	-4.033250	-0.139902	-0.850705
C30	C	-4.127422	-0.232717	-0.759856
C31	C	-4.031494	-0.054270	-0.723942
C32	C	-4.199941	-0.145948	-0.800598
C33	C	-3.917202	-0.141607	-0.588606
C34	C	-4.075688	-0.139286	-0.946505
C35	C	-4.147334	0.050950	-0.251157
C36	C	-4.069373	0.170611	-0.242474
C37	C	-4.171863	-0.138197	-0.116907
C38	C	-4.109498	-0.138786	-0.022871
H39	H	-3.890209	-0.586608	-0.084070
H40	H	-3.987739	-0.790573	-0.098874
H41	H	-4.237762	-0.310747	-0.752517
H42	H	-4.102670	-0.694300	-0.451049
H43	H	-4.141063	-0.847317	-0.384556
O44	O	-3.922618	-0.323172	-0.861277
H45	H	-3.870694	-0.371279	-0.815777
H46	H	-4.372417	-0.150602	-0.829311
H47	H	-4.060632	0.018612	-0.686110
O48	O	-3.719325	0.054973	-0.785166
H49	H	-3.550986	0.059301	-0.758589
H50	H	-3.851839	-0.433595	-0.150562
H51	H	-4.005143	-0.490305	-0.436249
H52	H	-3.620678	-0.130486	-0.705671
