data_functionalizedCrystal
_audit_creation_method	'MofGen! by Chris Wilmer'
_symmetry_space_group_name_H-M	'P1'
_symmetry_Int_Tables_number	1
_symmetry_cell_setting	triclinic
loop_
_symmetry_equiv_pos_as_xyz
  x,y,z
_cell_length_a	10.489741
_cell_length_b	11.792241
_cell_length_c	10.868271
_cell_angle_alpha	89.999844
_cell_angle_beta	90.001126
_cell_angle_gamma	95.633705
loop_
_atom_site_label
_atom_site_type_symbol
_atom_site_fract_x
_atom_site_fract_y
_atom_site_fract_z
O1	O	0.174825	-1.507381	0.102202
O2	O	0.192844	-1.177088	0.102231
O3	O	-0.001789	-1.349750	0.102208
O4	O	0.369458	-1.334719	0.102224
O5	O	-0.001783	-1.349734	-0.102436
O6	O	0.192850	-1.177073	-0.102414
O7	O	0.174832	-1.507365	-0.102443
Zn8	Zn	0.183842	-1.342216	-0.134920
Zn9	Zn	0.183834	-1.342237	0.134708
O10	O	0.369464	-1.334703	-0.102420
C11	C	0.191715	-1.134786	-0.000088
C12	C	0.188327	-1.008764	-0.000077
C13	C	-0.049314	-1.348607	-0.000113
C14	C	-0.190931	-1.345210	-0.000111
C15	C	0.175960	-1.549667	-0.000121
C16	C	0.179348	-1.675690	-0.000124
C17	C	-0.258697	-1.235351	-0.000092
C18	C	-0.350993	-1.287240	-0.100997
C19	C	-0.350974	-1.287281	0.100767
C20	C	-0.281362	-1.397145	-0.101099
C21	C	-0.281334	-1.397171	0.100755
C22	C	-0.373603	-1.449140	-0.000174
C23	C	0.416989	-1.335846	-0.000096
C24	C	0.558607	-1.339243	-0.000091
N25	N	0.183847	-1.342210	-0.318934
C26	C	0.182098	-0.778035	-0.000113
C27	C	0.185559	-0.906429	-0.000093
C28	C	0.183847	-1.342219	-0.430272
C29	C	0.183835	-1.342234	-0.569949
N30	N	0.183819	-1.342252	0.318722
H31	H	-0.208738	-1.145025	-0.000186
Br32	Br	-0.230244	-1.474550	-0.243442
H33	H	-0.381782	-1.240790	0.186082
H34	H	-0.250450	-1.443622	0.186060
Br35	Br	-0.402412	-1.209758	-0.243173
Br36	Br	-0.456498	-1.599822	-0.000272
