data_functionalizedCrystal
_audit_creation_method	'MofGen! by Chris Wilmer'
_symmetry_space_group_name_H-M	'P1'
_symmetry_Int_Tables_number	1
_symmetry_cell_setting	triclinic
loop_
_symmetry_equiv_pos_as_xyz
  x,y,z
_cell_length_a	15.995350
_cell_length_b	23.532407
_cell_length_c	15.072220
_cell_angle_alpha	89.994175
_cell_angle_beta	89.991149
_cell_angle_gamma	83.170526
loop_
_atom_site_label
_atom_site_type_symbol
_atom_site_fract_x
_atom_site_fract_y
_atom_site_fract_z
O1	O	1.110385	0.073404	-0.073717
O2	O	0.866535	0.082469	-0.073736
O3	O	0.995813	-0.004967	-0.073710
O4	O	0.981107	0.160840	-0.073743
O5	O	0.995781	-0.004962	0.073856
O6	O	0.866503	0.082474	0.073829
O7	O	1.110354	0.073409	0.073848
Zn8	Zn	0.988423	0.077942	0.097268
Zn9	Zn	0.988465	0.077935	-0.097155
O10	O	0.981075	0.160845	0.073822
C11	C	0.835327	0.082096	0.000044
C12	C	0.742386	0.080973	0.000038
C13	C	0.404672	0.076938	0.000057
C14	C	0.452624	0.014668	0.000399
C15	C	0.549305	0.015792	0.000060
C16	C	0.572216	0.078939	0.000048
C17	C	0.530892	0.109650	-0.084222
C18	C	0.434269	0.108086	-0.084286
C19	C	0.433883	0.109378	0.083523
C20	C	0.530828	0.109363	0.084631
C21	C	0.666904	0.080074	0.000040
C22	C	0.309984	0.075805	0.000059
C23	C	0.995423	-0.026182	0.000075
C24	C	0.994297	-0.089404	0.000082
C25	C	1.063739	-0.488239	0.000039
C26	C	1.062693	-0.547644	0.000032
O27	O	1.127067	-0.584141	0.000004
N28	N	0.985837	-0.570566	0.000027
C29	C	0.910022	-0.534080	0.000019
O30	O	0.844554	-0.559031	0.000013
C31	C	0.911069	-0.474677	0.000019
C32	C	0.987930	-0.451758	0.000034
C33	C	1.140594	-0.465320	0.000052
C34	C	1.141640	-0.405920	0.000061
C35	C	1.065830	-0.369439	0.000056
C36	C	0.988975	-0.392358	0.000042
C37	C	0.835255	-0.438192	0.000005
C38	C	0.836308	-0.378785	0.000005
C39	C	0.913169	-0.355867	0.000020
C40	C	0.914212	-0.296477	0.000046
N41	N	0.991068	-0.273555	0.000051
C42	C	1.066877	-0.310036	0.000056
C43	C	0.907829	-0.658831	0.000016
C44	C	0.906781	-0.718233	0.000022
C45	C	1.059453	-0.731793	0.000034
C46	C	1.060500	-0.672389	0.000034
C47	C	0.984685	-0.635909	0.000022
C48	C	1.069067	-0.185291	0.000075
C49	C	1.070106	-0.125885	0.000087
C50	C	0.917435	-0.112330	0.000071
C51	C	0.916396	-0.171731	0.000063
C52	C	0.992219	-0.208210	0.000062
O53	O	0.849872	-0.259945	0.000070
O54	O	1.132335	-0.285076	0.000051
C55	C	1.141561	0.073781	0.000066
C56	C	1.234502	0.074905	0.000067
C57	C	0.981465	0.182060	0.000035
C58	C	0.982591	0.245281	0.000023
N59	N	0.988401	0.077946	0.229957
N60	N	0.988494	0.077927	-0.229844
C61	C	0.988463	0.077933	0.589158
C62	C	0.919059	0.124562	0.551537
C63	C	0.919216	0.124732	0.448711
C64	C	0.988431	0.077940	0.410954
C65	C	1.075688	0.090918	0.448249
C66	C	1.075299	0.091250	0.551107
C67	C	0.971391	0.018188	0.551269
C68	C	0.969383	0.018587	0.448405
C69	C	0.988419	0.077942	0.310241
C70	C	0.988482	0.077932	0.689872
H71	H	0.544631	0.156043	-0.087364
C72	C	0.551053	0.171575	0.091498
H73	H	0.525272	0.188888	0.143169
H74	H	0.530072	0.192341	0.040539
H75	H	0.610297	0.171875	0.095036
C76	C	0.831132	0.114296	0.584991
H77	H	0.835957	0.081484	0.622208
H78	H	0.796094	0.108344	0.535794
H79	H	0.807103	0.146727	0.617635
H80	H	0.577378	-0.008516	-0.060444
C81	C	1.147103	0.046266	0.415209
H82	H	1.199291	0.054921	0.438547
H83	H	1.149097	0.047070	0.352237
H84	H	1.136985	0.009256	0.434477
H85	H	0.855713	-0.082617	0.000070
H86	H	0.772666	-0.456841	-0.000012
H87	H	0.401641	0.153804	-0.088119
C88	C	0.933524	0.184124	0.586394
H89	H	0.891325	0.212044	0.563341
H90	H	0.987400	0.192753	0.567986
H91	H	0.930763	0.184323	0.649357
H92	H	0.844194	-0.736887	0.000026
H93	H	0.558318	0.086945	0.146973
H94	H	0.413503	0.089023	0.147397
H95	H	1.132698	-0.107228	0.000101
H96	H	0.909172	0.005708	0.577257
H97	H	0.854341	0.116999	0.423497
H98	H	0.905198	0.008737	0.424031
H99	H	1.091182	0.133993	0.422473
H100	H	0.774569	-0.349085	-0.000006
C101	C	0.587968	-0.016820	0.081664
H102	H	0.544593	-0.030879	0.115318
H103	H	0.616042	0.008281	0.117306
H104	H	0.627112	-0.047992	0.062707
C105	C	0.390466	0.171400	0.084283
H106	H	0.354704	0.177518	0.034012
H107	H	0.431921	0.197124	0.082425
H108	H	0.357970	0.177816	0.136873
C109	C	0.933878	0.184623	0.415443
H110	H	0.939770	0.208943	0.464791
H111	H	0.887251	0.200096	0.380458
H112	H	0.983676	0.181781	0.380565
H113	H	0.416160	0.085686	-0.147271
H114	H	0.559457	0.088316	-0.146929
C115	C	1.152470	-0.225410	0.000081
H116	H	1.198386	-0.203245	0.000099
H117	H	1.155259	-0.248862	-0.051378
H118	H	1.155225	-0.248867	0.051547
H119	H	0.846088	-0.629131	0.000014
C120	C	1.226187	-0.380717	0.000060
H121	H	1.271180	-0.410959	0.000051
H122	H	1.229772	-0.357828	0.051517
H123	H	1.229778	-0.357827	-0.051408
C124	C	1.142843	-0.771929	0.000023
H125	H	1.131205	-0.810589	0.000008
H126	H	1.174379	-0.764991	0.051480
H127	H	1.174381	-0.764976	-0.051445
C128	C	1.095718	0.150110	0.583503
H129	H	1.095664	0.150830	0.646526
H130	H	1.054449	0.179124	0.561740
H131	H	1.149651	0.156683	0.562238
H132	H	1.016688	-0.017738	0.422708
C133	C	1.147123	0.047116	0.584730
H134	H	1.176415	0.029068	0.535525
H135	H	1.124334	0.019131	0.619764
H136	H	1.184942	0.065929	0.619632
C137	C	1.039764	-0.028689	0.584141
H138	H	1.078531	-0.011964	0.620778
H139	H	1.068696	-0.046672	0.534680
H140	H	1.014242	-0.056345	0.617264
C141	C	1.223992	-0.505441	0.000065
H142	H	1.269906	-0.483275	0.000080
H143	H	1.226783	-0.528898	-0.051390
H144	H	1.226746	-0.528895	0.051535
C145	C	0.427860	-0.018957	0.082036
H146	H	0.388051	0.004676	0.116642
H147	H	0.476531	-0.030406	0.116733
H148	H	0.403701	-0.051883	0.063094
H149	H	0.433249	-0.010110	-0.059692
H150	H	0.853809	-0.190392	0.000076
C151	C	1.145046	-0.647184	0.000042
H152	H	1.190041	-0.677424	0.000040
H153	H	1.148622	-0.624294	0.051499
H154	H	1.148642	-0.624294	-0.051426
