data_functionalizedCrystal
_audit_creation_method	'MofGen! by Chris Wilmer'
_symmetry_space_group_name_H-M	'P1'
_symmetry_Int_Tables_number	1
_symmetry_cell_setting	triclinic
loop_
_symmetry_equiv_pos_as_xyz
  x,y,z
_cell_length_a	6.817900
_cell_length_b	14.858565
_cell_length_c	10.943624
_cell_angle_alpha	93.396226
_cell_angle_beta	108.838799
_cell_angle_gamma	104.523916
loop_
_atom_site_label
_atom_site_type_symbol
_atom_site_fract_x
_atom_site_fract_y
_atom_site_fract_z
V1	V	-4.093440	-0.128646	-0.402911
O2	O	-4.074268	0.006207	-0.394871
O3	O	-4.049710	-0.255107	-0.400512
O4	O	-4.071744	-0.126656	-0.578472
O5	O	-4.052082	-0.123133	-0.215679
V6	V	-4.573003	-0.112517	-0.380473
O7	O	-4.363386	-0.164025	-0.452130
O8	O	-4.753254	-0.077137	-0.331254
O9	O	-4.393526	0.013944	-0.382873
O10	O	-4.709572	-0.247370	-0.388514
O11	O	-4.731758	-0.118029	-0.567706
O12	O	-4.371493	-0.114507	-0.204912
C13	C	-3.894983	-0.285936	-0.394248
C14	C	-3.940693	-0.389319	-0.393456
C15	C	-3.923088	-0.122082	-0.621252
C16	C	-3.986663	-0.121292	-0.764776
C17	C	-4.108001	-0.767890	-0.390576
C18	C	-4.061442	-0.662560	-0.391376
C19	C	-4.024347	-0.578608	-0.392015
C20	C	-3.977788	-0.473271	-0.392818
C21	C	-3.832405	-0.115971	-0.841909
C22	C	-4.008224	-0.194950	-0.948120
C23	C	-3.924150	-0.040915	-0.914302
C24	C	-4.161680	-0.200345	-0.869111
C25	C	-4.077537	-0.046240	-0.835269
C26	C	-4.253489	-0.125241	-0.941451
C27	C	-4.211595	0.044768	-0.389133
C28	C	-4.145124	0.148151	-0.389933
C29	C	-4.183490	-0.119083	-0.162126
C30	C	-4.099153	-0.119869	-0.018600
H31	H	-3.979584	-0.257819	-0.997245
H32	H	-3.653858	-0.112158	-0.798450
O33	O	-4.466499	-0.129765	-0.993085
C34	C	-4.729523	-0.054215	-1.109728
C35	C	-4.488216	-0.048957	-1.051280
H36	H	-4.747162	0.011100	-1.156816
H37	H	-4.801803	-0.058051	-1.028997
H38	H	-4.818268	-0.119633	-1.186725
H39	H	-4.399291	0.016456	-0.974299
H40	H	-4.416102	-0.045172	-1.132083
O41	O	-4.280512	-0.280789	-0.844612
C42	C	-4.353598	-0.371774	-0.681010
C43	C	-4.218853	-0.280643	-0.708574
H44	H	-4.303828	-0.371677	-0.571026
H45	H	-4.324336	-0.435120	-0.728561
H46	H	-4.532516	-0.375963	-0.723050
H47	H	-4.039892	-0.276362	-0.666535
H48	H	-4.248298	-0.217341	-0.661049
O49	O	-4.111285	0.028866	-0.776639
C50	C	-4.023518	0.197772	-0.732479
C51	C	-3.985090	0.112790	-0.798919
H52	H	-3.921548	0.265645	-0.750491
H53	H	-3.975721	0.196095	-0.622917
H54	H	-4.201881	0.194483	-0.774921
H55	H	-3.806757	0.116024	-0.756582
H56	H	-4.033031	0.114497	-0.908477
O57	O	-3.804765	0.039454	-0.938631
C58	C	-3.448739	0.135095	-0.915540
C59	C	-3.583693	0.044061	-0.887881
H60	H	-3.269981	0.138840	-0.874547
H61	H	-3.476417	0.198547	-0.867139
H62	H	-3.499947	0.135258	-1.025510
H63	H	-3.532569	0.043806	-0.777937
H64	H	-3.556005	-0.019351	-0.936371
