data_functionalizedCrystal
_audit_creation_method	'MofGen! by Chris Wilmer'
_symmetry_space_group_name_H-M	'P1'
_symmetry_Int_Tables_number	1
_symmetry_cell_setting	triclinic
loop_
_symmetry_equiv_pos_as_xyz
  x,y,z
_cell_length_a	13.635800
_cell_length_b	11.102193
_cell_length_c	11.168136
_cell_angle_alpha	88.014676
_cell_angle_beta	108.508683
_cell_angle_gamma	71.395875
loop_
_atom_site_label
_atom_site_type_symbol
_atom_site_fract_x
_atom_site_fract_y
_atom_site_fract_z
V1	V	2.055191	-0.175859	0.393704
O2	O	2.034721	0.008431	0.386205
O3	O	2.043581	-0.348679	0.391016
O4	O	2.043333	-0.173162	0.565410
O5	O	2.034971	-0.168301	0.210603
V6	V	2.293775	-0.153815	0.371803
O7	O	2.192792	-0.224215	0.441745
O8	O	2.381273	-0.105459	0.323762
O9	O	2.193782	0.019006	0.374491
O10	O	2.372943	-0.338104	0.379302
O11	O	2.372693	-0.161372	0.554903
O12	O	2.194030	-0.156511	0.200097
V13	V	2.555191	-0.175859	0.393704
O14	O	2.534721	0.008431	0.386205
O15	O	2.543581	-0.348679	0.391016
O16	O	2.543333	-0.173162	0.565410
O17	O	2.534971	-0.168301	0.210603
V18	V	2.793775	-0.153815	0.371803
O19	O	2.692792	-0.224215	0.441745
O20	O	2.881273	-0.105459	0.323762
O21	O	2.693782	0.019006	0.374491
O22	O	2.872943	-0.338104	0.379302
O23	O	2.872693	-0.161372	0.554903
O24	O	2.694030	-0.156511	0.200097
C25	C	1.968745	-0.390809	0.384806
C26	C	1.999978	-0.532092	0.383753
C27	C	1.998825	-0.761263	0.150481
C28	C	1.954231	-0.676727	0.035340
C29	C	1.924886	-0.543980	0.036332
C30	C	1.940134	-0.495767	0.152478
C31	C	1.984728	-0.580303	0.267619
C32	C	2.014074	-0.713052	0.266614
C33	C	2.044572	-0.616628	0.498894
C34	C	2.073925	-0.749376	0.497905
C35	C	2.059820	-0.568416	0.615040
C36	C	2.104423	-0.652953	0.730184
C37	C	2.133769	-0.785707	0.729187
C38	C	2.118519	-0.833912	0.613046
C39	C	1.968427	-0.166918	0.607261
C40	C	1.999457	-0.165857	0.747631
C41	C	2.100289	0.061129	0.380697
C42	C	2.058676	0.202411	0.381759
C43	C	2.100606	-0.162759	0.158239
C44	C	2.059195	-0.163814	0.017867
C45	C	2.468745	-0.390809	0.384806
C46	C	2.499978	-0.532092	0.383753
C47	C	2.542333	-0.612334	0.493176
C48	C	2.574615	-0.758358	0.492090
C49	C	2.100719	-0.171412	0.816324
C50	C	2.132791	-0.170315	0.961404
C51	C	2.468427	-0.166918	0.607261
C52	C	2.499457	-0.165857	0.747631
C53	C	2.600289	0.061129	0.380697
C54	C	2.558676	0.202411	0.381759
C55	C	2.600606	-0.162759	0.158239
C56	C	2.559195	-0.163814	0.017867
C57	C	2.600719	-0.171412	0.816324
C58	C	2.632791	-0.170315	0.961404
H59	H	2.022726	-0.869352	0.149662
Br60	Br	2.705651	-0.180694	0.735339
H61	H	2.472448	-0.159067	0.958826
Br62	Br	2.125096	-0.587514	0.887792
Br63	Br	2.562928	-0.546664	0.650666
Br64	Br	1.933532	-0.742162	-0.122280
Br65	Br	2.479353	-0.597760	0.226261
Br66	Br	1.864352	-0.429246	-0.119931
Br67	Br	1.900282	-0.315607	0.153821
H68	H	2.610934	-0.827297	0.585769
Br69	Br	2.205651	-0.180694	0.735339
Br70	Br	1.914607	-0.155905	0.919466
H71	H	2.219540	-0.175077	1.020455
Br72	Br	2.777386	-0.178255	1.059818
Br73	Br	2.394521	-0.156561	0.828614
H74	H	2.142414	-0.942000	0.612223
Br75	Br	2.019983	-0.388257	0.616388
H76	H	2.170073	-0.854531	0.822949
H77	H	2.523796	-0.735155	0.288044
H78	H	1.936505	-0.160281	0.796227
