data_functionalizedCrystal
_audit_creation_method	'MofGen! by Chris Wilmer'
_symmetry_space_group_name_H-M	'P1'
_symmetry_Int_Tables_number	1
_symmetry_cell_setting	triclinic
loop_
_symmetry_equiv_pos_as_xyz
  x,y,z
_cell_length_a	14.044202
_cell_length_b	17.699103
_cell_length_c	16.176319
_cell_angle_alpha	89.988235
_cell_angle_beta	90.004693
_cell_angle_gamma	91.758119
loop_
_atom_site_label
_atom_site_type_symbol
_atom_site_fract_x
_atom_site_fract_y
_atom_site_fract_z
O1	O	-1.257307	0.182476	-0.068722
O2	O	-0.981352	0.175886	-0.068732
O3	O	-1.127116	0.069530	-0.068711
O4	O	-1.111543	0.288832	-0.068743
O5	O	-1.127096	0.069521	0.068782
O6	O	-0.981332	0.175877	0.068761
O7	O	-1.257287	0.182468	0.068771
Cu8	Cu	-1.119308	0.179171	0.081320
Cu9	Cu	-1.119331	0.179182	-0.081281
O10	O	-1.111523	0.288823	0.068750
C11	C	-0.946034	0.172999	0.000013
C12	C	-0.840827	0.164400	0.000010
C13	C	-0.590441	0.209659	0.000011
C14	C	-0.648205	0.148692	0.000019
C15	C	-0.755390	0.157434	0.000014
C16	C	-0.483246	0.200918	0.000016
C17	C	-1.126545	0.041290	0.000038
C18	C	-1.124861	-0.042843	0.000045
C19	C	-0.292605	0.185353	0.000024
C20	C	-0.397813	0.193947	0.000020
C21	C	-1.114574	-0.559260	-0.074957
C22	C	-1.116155	-0.480208	-0.074950
C23	C	-1.116932	-0.440700	0.000003
C24	C	-1.116138	-0.480249	0.074953
C25	C	-1.114565	-0.559300	0.074944
C26	C	-1.122487	-0.161444	0.074987
C27	C	-1.124058	-0.082387	0.074990
C28	C	-1.124077	-0.082352	-0.074907
C29	C	-1.122503	-0.161403	-0.074915
C30	C	-1.121715	-0.200946	0.000034
C31	C	-1.120002	-0.286663	0.000026
C32	C	-1.118637	-0.354984	0.000012
C33	C	-1.112094	0.317063	-0.000001
C34	C	-1.113778	0.401196	-0.000013
N35	N	-1.119298	0.179164	0.195686
N36	N	-1.119348	0.179184	-0.195647
C37	C	-1.183861	0.132092	0.238959
C38	C	-1.183866	0.132092	0.325506
C39	C	-1.119311	0.179168	0.368778
C40	C	-1.054741	0.226242	0.325498
C41	C	-1.054732	0.226238	0.238953
C42	C	-1.054773	0.226258	0.674527
C43	C	-1.054789	0.226260	0.761078
C44	C	-1.183907	0.132112	0.761080
C45	C	-1.183899	0.132108	0.674534
C46	C	-1.119325	0.179179	0.631262
C47	C	-1.119320	0.179178	0.537418
C48	C	-1.119321	0.179173	0.462621
H49	H	-0.621484	0.268415	0.000000
H50	H	-1.113932	-0.591422	-0.135992
H51	H	-1.124686	-0.050222	0.136029
H52	H	-1.236468	0.093778	0.639305
H53	H	-1.116778	-0.448075	0.135980
C54	C	-1.121670	-0.204936	0.157430
C55	C	-1.122563	-0.161477	0.239873
C56	C	-1.121774	-0.204974	0.322320
C57	C	-1.120092	-0.291929	0.322323
C58	C	-1.119200	-0.335392	0.239876
C59	C	-1.119989	-0.291896	0.157430
H60	H	-1.123807	-0.097104	0.239874
H61	H	-1.122434	-0.172799	0.383353
H62	H	-1.119508	-0.324127	0.383355
H63	H	-1.117955	-0.399766	0.239876
H64	H	-1.119328	-0.324071	0.096397
C65	C	-1.254875	0.080307	0.191364
C66	C	-1.217972	0.019911	0.131888
C67	C	-1.288985	-0.031878	0.084297
C68	C	-1.396901	-0.023272	0.096181
C69	C	-1.433809	0.037126	0.155660
C70	C	-1.362796	0.088916	0.203252
H71	H	-1.138082	0.013538	0.123088
H72	H	-1.261663	-0.076588	0.040266
H73	H	-1.449469	-0.061609	0.060951
H74	H	-1.513699	0.043499	0.164460
H75	H	-1.390118	0.133626	0.247282
H76	H	-1.113916	-0.591495	0.135972
C77	C	-1.124957	-0.038855	-0.157356
C78	C	-1.042481	-0.046675	-0.219189
C79	C	-1.043358	-0.003180	-0.301635
C80	C	-1.126710	0.048133	-0.322248
C81	C	-1.209191	0.055955	-0.260412
C82	C	-1.208315	0.012460	-0.177966
H83	H	-0.980773	-0.084662	-0.203932
H84	H	-0.982299	-0.008971	-0.347410
H85	H	-1.127358	0.080330	-0.383279
H86	H	-1.270899	0.093942	-0.275669
H87	H	-1.269374	0.018251	-0.132192
C88	C	-1.254934	0.080325	0.808680
C89	C	-1.254948	0.080320	0.903877
C90	C	-1.325975	0.028536	0.951475
C91	C	-1.396987	-0.023241	0.903875
C92	C	-1.396976	-0.023237	0.808673
C93	C	-1.325949	0.028546	0.761076
H94	H	-1.202379	0.118650	0.939118
H95	H	-1.325984	0.028534	1.021950
H96	H	-1.449566	-0.061574	0.939110
H97	H	-1.449545	-0.061567	0.773433
H98	H	-1.325940	0.028549	0.690601
C99	C	-1.121653	-0.204860	-0.157365
C100	C	-1.202842	-0.262232	-0.177975
C101	C	-1.201998	-0.305687	-0.260426
C102	C	-1.119966	-0.291771	-0.322269
C103	C	-1.038771	-0.234396	-0.301661
C104	C	-1.039615	-0.190941	-0.219209
H105	H	-1.263572	-0.272536	-0.132194
H106	H	-1.262104	-0.348159	-0.275681
H107	H	-1.119341	-0.323939	-0.383304
H108	H	-0.978040	-0.224092	-0.347441
H109	H	-0.979509	-0.148469	-0.203954
C110	C	-0.983768	0.278042	0.808680
C111	C	-0.912736	0.329816	0.761085
C112	C	-0.841720	0.381595	0.808687
C113	C	-0.841738	0.381600	0.903884
C114	C	-0.912773	0.329824	0.951484
C115	C	-0.983788	0.278045	0.903882
H116	H	-0.912720	0.329814	0.690610
H117	H	-0.789136	0.419923	0.773450
H118	H	-0.789168	0.419930	0.939122
H119	H	-0.912788	0.329826	1.021959
H120	H	-1.036373	0.239717	0.939119
C121	C	-1.254889	0.080316	0.373111
C122	C	-1.325927	0.028554	0.325522
C123	C	-1.396951	-0.023224	0.373129
C124	C	-1.396938	-0.023239	0.468325
C125	C	-1.325898	0.028526	0.515920
C126	C	-1.254873	0.080303	0.468313
H127	H	-1.325939	0.028563	0.255047
H128	H	-1.449540	-0.061543	0.337895
H129	H	-1.449515	-0.061568	0.503567
H130	H	-1.325885	0.028516	0.586395
H131	H	-1.202284	0.118623	0.503547
H132	H	-1.002197	0.264586	0.639301
C133	C	-0.606273	0.069307	0.000020
C134	C	-0.673092	-0.001323	0.000020
C135	C	-0.631155	-0.080704	0.000016
C136	C	-0.522400	-0.089455	0.000011
C137	C	-0.455575	-0.018821	0.000012
C138	C	-0.497511	0.060559	0.000016
H139	H	-0.753605	0.005152	0.000023
H140	H	-0.680624	-0.132991	0.000015
H141	H	-0.491356	-0.148217	0.000008
H142	H	-0.375062	-0.025297	0.000009
H143	H	-0.448042	0.112847	0.000016
C144	C	-0.983727	0.278027	0.373093
C145	C	-0.983777	0.278077	0.468290
C146	C	-0.912764	0.329866	0.515881
C147	C	-0.841701	0.381606	0.468276
C148	C	-0.841649	0.381558	0.373074
C149	C	-0.912663	0.329769	0.325483
H150	H	-1.036383	0.239774	0.503535
H151	H	-0.912802	0.329901	0.586356
H152	H	-0.789133	0.419943	0.503506
H153	H	-0.789043	0.419860	0.337829
H154	H	-0.912624	0.329734	0.255008
H155	H	-1.002157	0.264567	0.203720
H156	H	-1.116805	-0.448016	-0.135977
