data_functionalizedCrystal
_audit_creation_method	'MofGen! by Chris Wilmer'
_symmetry_space_group_name_H-M	'P1'
_symmetry_Int_Tables_number	1
_symmetry_cell_setting	triclinic
loop_
_symmetry_equiv_pos_as_xyz
  x,y,z
_cell_length_a	14.519709
_cell_length_b	17.038272
_cell_length_c	13.596369
_cell_angle_alpha	89.993837
_cell_angle_beta	90.000291
_cell_angle_gamma	87.395851
loop_
_atom_site_label
_atom_site_type_symbol
_atom_site_fract_x
_atom_site_fract_y
_atom_site_fract_z
O1	O	1.231711	0.102502	-0.081664
O2	O	1.565044	0.435836	0.251670
O3	O	1.898378	0.769169	0.585003
O4	O	0.964158	0.114573	-0.081694
O5	O	1.297491	0.447907	0.251640
O6	O	1.630824	0.781240	0.584973
O7	O	1.096344	-0.005280	-0.081671
O8	O	1.429678	0.328053	0.251662
O9	O	1.763011	0.661387	0.584996
O10	O	1.099525	0.222356	-0.081686
O11	O	1.432858	0.555689	0.251647
O12	O	1.766191	0.889022	0.584980
O13	O	1.096330	-0.005286	0.081912
O14	O	1.429663	0.328047	0.415245
O15	O	1.762996	0.661380	0.748579
O16	O	0.964143	0.114567	0.081889
O17	O	1.297476	0.447900	0.415223
O18	O	1.630810	0.781234	0.748556
O19	O	1.231696	0.102496	0.081919
O20	O	1.565030	0.435829	0.415253
O21	O	1.898363	0.769163	0.748586
Zn22	Zn	1.097918	0.108530	0.107877
Zn23	Zn	1.431251	0.441864	0.441210
Zn24	Zn	1.764584	0.775197	0.774543
Zn25	Zn	1.097937	0.108539	-0.107651
Zn26	Zn	1.431270	0.441872	0.225682
Zn27	Zn	1.764603	0.775206	0.559016
O28	O	1.099510	0.222349	0.081897
O29	O	1.432843	0.555683	0.415230
O30	O	1.766177	0.889016	0.748563
C31	C	0.929748	0.114008	0.000094
C32	C	1.263081	0.447341	0.333427
C33	C	1.596414	0.780674	0.666761
C34	C	0.827237	0.112322	0.000083
C35	C	1.160571	0.445655	0.333416
C36	C	1.493904	0.778988	0.666749
C37	C	0.451867	0.106116	0.000128
C38	C	0.785200	0.439449	0.333461
C39	C	1.118533	0.772782	0.666794
C40	C	0.556307	0.107839	0.000115
C41	C	0.889640	0.441172	0.333448
C42	C	1.222973	0.774506	0.666782
C43	C	0.639549	0.109219	0.000104
C44	C	0.972882	0.442552	0.333438
C45	C	1.306215	0.775885	0.666771
C46	C	0.743995	0.110942	0.000093
C47	C	1.077329	0.444276	0.333427
C48	C	1.410662	0.777609	0.666760
C49	C	1.093444	-0.034416	0.000120
C50	C	1.426778	0.298917	0.333453
C51	C	1.760111	0.632250	0.666787
C52	C	1.084814	-0.121223	0.000119
C53	C	1.418148	0.212110	0.333452
C54	C	1.751481	0.545444	0.666785
C55	C	1.164047	-0.171209	0.000129
C56	C	1.497381	0.162124	0.333462
C57	C	1.830714	0.495458	0.666795
C58	C	1.155933	-0.252773	0.000118
C59	C	1.489266	0.080561	0.333452
C60	C	1.822600	0.413894	0.666785
C61	C	1.068585	-0.284349	0.000105
C62	C	1.401919	0.048984	0.333439
C63	C	1.735252	0.382318	0.666772
C64	C	0.989347	-0.234357	0.000092
C65	C	1.322680	0.098977	0.333426
C66	C	1.656013	0.432310	0.666759
C67	C	0.997462	-0.152795	0.000096
C68	C	1.330795	0.180539	0.333429
C69	C	1.664128	0.513872	0.666762
C70	C	1.039916	-0.530153	0.000089
C71	C	1.373250	-0.196820	0.333422
C72	C	1.706583	0.136513	0.666755
C73	C	1.031807	-0.611722	0.000088
C74	C	1.365140	-0.278388	0.333422
C75	C	1.698474	0.054945	0.666755
C76	C	1.198394	-0.630132	0.000112
C77	C	1.531728	-0.296799	0.333446
C78	C	1.865061	0.036535	0.666779
C79	C	1.206502	-0.548568	0.000122
C80	C	1.539835	-0.215234	0.333455
C81	C	1.873168	0.118099	0.666788
C82	C	1.127263	-0.498583	0.000104
C83	C	1.460596	-0.165249	0.333437
C84	C	1.793930	0.168084	0.666770
C85	C	1.060289	-0.367720	0.000098
C86	C	1.393623	-0.034387	0.333431
C87	C	1.726956	0.298947	0.666765
C88	C	1.135560	-0.415213	0.000104
C89	C	1.468893	-0.081880	0.333437
C90	C	1.802227	0.251453	0.666771
C91	C	1.266107	0.103062	0.000129
C92	C	1.599440	0.436395	0.333463
C93	C	1.932773	0.769728	0.666796
C94	C	1.368617	0.104748	0.000134
C95	C	1.701950	0.438081	0.333468
C96	C	2.035284	0.771414	0.666801
C97	C	1.102410	0.251486	0.000103
C98	C	1.435743	0.584819	0.333437
C99	C	1.769076	0.918152	0.666770
C100	C	1.111040	0.338292	0.000098
C101	C	1.444373	0.671626	0.333432
C102	C	1.777706	1.004959	0.666765
N103	N	1.097911	0.108524	0.254968
N104	N	1.431244	0.441858	0.588302
N105	N	1.764578	0.775191	0.921635
N106	N	1.097950	0.108539	-0.254743
N107	N	1.431283	0.441872	0.078591
N108	N	1.764617	0.775206	0.411924
C109	C	1.097936	0.108540	0.656259
C110	C	1.431269	0.441873	0.989593
C111	C	1.764602	0.775206	1.322926
C112	C	1.097926	0.108538	0.544608
C113	C	1.431260	0.441871	0.877941
C114	C	1.764593	0.775205	1.211275
C115	C	1.097924	0.108533	0.455617
C116	C	1.431257	0.441866	0.788951
C117	C	1.764590	0.775199	1.122284
C118	C	1.097913	0.108530	0.343959
C119	C	1.431247	0.441863	0.677292
C120	C	1.764580	0.775196	1.010626
H121	H	1.235175	-0.145506	0.000145
H122	H	1.568508	0.187827	0.333479
H123	H	1.901842	0.521160	0.666812
C124	C	1.285551	-0.685122	0.000123
C125	C	1.618884	-0.351788	0.333456
C126	C	1.952217	-0.018455	0.666790
N127	N	1.351200	-0.726540	0.000127
N128	N	1.684534	-0.393207	0.333460
N129	N	2.017867	-0.059874	0.666793
H130	H	1.277629	-0.522865	0.000132
H131	H	1.610963	-0.189531	0.333466
H132	H	1.944296	0.143802	0.666799
H133	H	0.932942	-0.112096	0.000087
H134	H	1.266275	0.221237	0.333421
H135	H	1.599608	0.554570	0.666754
H136	H	0.918226	-0.260072	0.000075
H137	H	1.251559	0.073261	0.333409
H138	H	1.584893	0.406594	0.666742
C139	C	0.935714	-0.646453	0.000066
C140	C	1.269047	-0.313120	0.333400
C141	C	1.602380	0.020214	0.666733
N142	N	0.863340	-0.672613	0.000050
N143	N	1.196673	-0.339279	0.333383
N144	N	1.530007	-0.005946	0.666716
H145	H	1.206678	-0.389500	0.000093
H146	H	1.540011	-0.056167	0.333426
H147	H	1.873345	0.277166	0.666760
H148	H	1.220453	-0.293468	0.000129
H149	H	1.553786	0.039865	0.333462
H150	H	1.887120	0.373198	0.666795
H151	H	0.975394	-0.489465	0.000074
H152	H	1.308727	-0.156131	0.333407
H153	H	1.642061	0.177202	0.666741
C154	C	0.964208	-0.402462	0.000104
C155	C	1.297542	-0.069129	0.333437
C156	C	1.630875	0.264204	0.666771
N157	N	0.891840	-0.428633	0.000113
N158	N	1.225174	-0.095300	0.333446
N159	N	1.558507	0.238034	0.666779
