data_functionalizedCrystal
_audit_creation_method	'MofGen! by Chris Wilmer'
_symmetry_space_group_name_H-M	'P1'
_symmetry_Int_Tables_number	1
_symmetry_cell_setting	triclinic
loop_
_symmetry_equiv_pos_as_xyz
  x,y,z
_cell_length_a	14.519709
_cell_length_b	19.288859
_cell_length_c	12.996460
_cell_angle_alpha	90.005885
_cell_angle_beta	89.999966
_cell_angle_gamma	83.406935
loop_
_atom_site_label
_atom_site_type_symbol
_atom_site_fract_x
_atom_site_fract_y
_atom_site_fract_z
O1	O	1.223288	0.091051	0.085432
O2	O	1.723288	0.591051	0.585432
O3	O	0.954743	0.101774	0.085464
O4	O	1.454743	0.601774	0.585464
O5	O	1.096778	-0.004690	0.085441
O6	O	1.596778	0.495310	0.585441
O7	O	1.081253	0.197515	0.085455
O8	O	1.581253	0.697515	0.585455
O9	O	1.096764	-0.004696	-0.085693
O10	O	1.596764	0.495304	0.414307
O11	O	0.954728	0.101768	-0.085670
O12	O	1.454728	0.601768	0.414330
O13	O	1.223274	0.091045	-0.085702
O14	O	1.723274	0.591045	0.414298
Cu15	Cu	1.089000	0.096406	-0.101312
Cu16	Cu	1.589000	0.596406	0.398688
Cu17	Cu	1.089017	0.096413	0.101074
Cu18	Cu	1.589017	0.596413	0.601074
O19	O	1.081238	0.197509	-0.085679
O20	O	1.581238	0.697509	0.414321
C21	C	1.096273	-0.030571	-0.000125
C22	C	1.596273	0.469429	0.499875
C23	C	1.094776	-0.107681	-0.000123
C24	C	1.594776	0.392319	0.499877
C25	C	0.920379	0.101271	-0.000099
C26	C	1.420379	0.601271	0.499901
C27	C	0.818008	0.099774	-0.000087
C28	C	1.318008	0.599774	0.499913
C29	C	1.167990	-0.671458	-0.000105
C30	C	1.667990	-0.171458	0.499895
C31	C	1.169405	-0.599006	-0.000114
C32	C	1.669405	-0.099006	0.499886
C33	C	1.086065	-0.554599	-0.000104
C34	C	1.586065	-0.054599	0.499896
C35	C	1.001305	-0.582649	-0.000111
C36	C	1.501305	-0.082649	0.499889
C37	C	0.999893	-0.655100	-0.000112
C38	C	1.499893	-0.155100	0.499888
C39	C	1.023916	-0.433547	0.059857
C40	C	1.523916	0.066453	0.559857
C41	C	1.025331	-0.361098	0.059865
C42	C	1.525331	0.138902	0.559865
C43	C	1.090417	-0.331138	-0.000105
C44	C	1.590417	0.168862	0.499895
C45	C	1.154102	-0.373636	-0.060070
C46	C	1.654102	0.126364	0.439930
C47	C	1.152690	-0.446087	-0.060070
C48	C	1.652690	0.053913	0.439930
C49	C	1.087587	-0.476038	-0.000103
C50	C	1.587587	0.023962	0.499897
C51	C	1.176706	-0.224536	-0.000116
C52	C	1.676706	0.275464	0.499884
C53	C	1.178117	-0.152083	-0.000132
C54	C	1.678117	0.347917	0.499868
C55	C	1.010014	-0.135727	-0.000118
C56	C	1.510014	0.364273	0.499882
C57	C	1.008605	-0.208179	-0.000113
C58	C	1.508605	0.291821	0.499887
C59	C	1.091954	-0.252579	-0.000107
C60	C	1.591954	0.247421	0.499893
C61	C	0.443147	0.094261	-0.000135
C62	C	0.943147	0.594261	0.499865
C63	C	0.547445	0.095792	-0.000121
C64	C	1.047445	0.595792	0.499879
C65	C	0.630574	0.097017	-0.000110
C66	C	1.130574	0.597017	0.499890
C67	C	0.734879	0.098548	-0.000099
C68	C	1.234879	0.598548	0.499901
C69	C	1.257638	0.091548	-0.000136
C70	C	1.757638	0.591548	0.499864
C71	C	1.360009	0.093046	-0.000141
C72	C	1.860009	0.593046	0.499859
C73	C	1.081744	0.223391	-0.000110
C74	C	1.581744	0.723391	0.499890
C75	C	1.083241	0.300500	-0.000106
C76	C	1.583241	0.800500	0.499894
N77	N	1.088994	0.096401	-0.243659
N78	N	1.588994	0.596401	0.256341
C79	C	1.089016	0.096414	-0.663473
C80	C	1.589016	0.596414	-0.163473
C81	C	1.089007	0.096413	-0.546668
C82	C	1.589007	0.596413	-0.046668
C83	C	1.089006	0.096408	-0.453570
C84	C	1.589006	0.596408	0.046430
C85	C	1.088996	0.096405	-0.336757
C86	C	1.588996	0.596405	0.163243
N87	N	1.089030	0.096413	0.243421
N88	N	1.589030	0.596413	0.743421
H89	H	1.235860	-0.707605	-0.000105
H90	H	1.735860	-0.207605	0.499895
C91	C	0.952318	-0.466496	0.125841
C92	C	1.452318	0.033504	0.625841
N93	N	0.898394	-0.491313	0.175540
N94	N	1.398394	0.008687	0.675540
C95	C	1.222733	-0.492831	-0.126042
C96	C	1.722733	0.007169	0.373958
N97	N	1.275486	-0.528039	-0.175738
N98	N	1.775486	-0.028039	0.324262
C99	C	1.271353	-0.121237	-0.000135
C100	C	1.771353	0.378763	0.499865
N101	N	1.341580	-0.098004	-0.000136
N102	N	1.841580	0.401996	0.499864
C103	C	0.909630	-0.533800	-0.000096
C104	C	1.409630	-0.033800	0.499904
N105	N	0.840579	-0.497007	-0.000086
N106	N	1.340579	0.002993	0.499914
H107	H	0.930877	-0.677930	-0.000115
H108	H	1.430877	-0.177930	0.499885
H109	H	0.942157	-0.099571	-0.000119
H110	H	1.442157	0.400429	0.499881
H111	H	0.973479	-0.326502	0.108696
H112	H	1.473479	0.173498	0.608696
C113	C	1.262640	-0.568153	-0.000103
C114	C	1.762640	-0.068153	0.499897
N115	N	1.332864	-0.544916	-0.000092
N116	N	1.832864	-0.044916	0.499908
H117	H	0.939593	-0.231011	-0.000106
H118	H	1.439593	0.268989	0.499894
H119	H	1.244573	-0.260689	-0.000112
H120	H	1.744573	0.239311	0.499888
C121	C	1.225702	-0.340686	-0.126042
C122	C	1.725702	0.159314	0.373958
N123	N	1.279630	-0.315864	-0.175730
N124	N	1.779630	0.184136	0.324270
