data_functionalizedCrystal
_audit_creation_method	'MofGen! by Chris Wilmer'
_symmetry_space_group_name_H-M	'P1'
_symmetry_Int_Tables_number	1
_symmetry_cell_setting	triclinic
loop_
_symmetry_equiv_pos_as_xyz
  x,y,z
_cell_length_a	10.868271
_cell_length_b	10.654550
_cell_length_c	10.654550
_cell_angle_alpha	84.484931
_cell_angle_beta	89.995020
_cell_angle_gamma	89.998935
loop_
_atom_site_label
_atom_site_type_symbol
_atom_site_fract_x
_atom_site_fract_y
_atom_site_fract_z
O1	O	0.102230	-1.667841	-0.176400
O2	O	0.602230	-1.167841	0.323600
O3	O	0.102253	-1.302362	-0.193206
O4	O	0.602253	-0.802362	0.306794
O5	O	0.102233	-1.493505	-0.002064
O6	O	0.602233	-0.993505	0.497936
O7	O	0.102250	-1.476699	-0.367542
O8	O	0.602250	-0.976699	0.132458
O9	O	-0.102412	-1.493489	-0.002056
O10	O	0.397588	-0.993489	0.497944
O11	O	-0.102392	-1.302346	-0.193198
O12	O	0.397608	-0.802346	0.306802
O13	O	-0.102415	-1.667825	-0.176392
O14	O	0.397585	-1.167825	0.323608
Zn15	Zn	-0.134895	-1.485083	-0.184794
Zn16	Zn	0.365105	-0.985083	0.315206
Zn17	Zn	0.134733	-1.485104	-0.184804
Zn18	Zn	0.634733	-0.985104	0.315196
O19	O	-0.102395	-1.476683	-0.367534
O20	O	0.397605	-0.976683	0.132466
C21	C	-0.000067	-1.255556	-0.191968
C22	C	0.499933	-0.755556	0.308032
C23	C	-0.000058	-1.116113	-0.188276
C24	C	0.499942	-0.616113	0.311724
N25	N	-0.318909	-1.485078	-0.184786
N26	N	0.181091	-0.985078	0.315214
C27	C	-0.000092	-1.714631	-0.177630
C28	C	0.499908	-1.214631	0.322370
C29	C	-0.000093	-1.854074	-0.181322
C30	C	0.499907	-1.354074	0.318678
C31	C	-0.569915	-1.485098	-0.184801
C32	C	-0.069915	-0.985098	0.315199
C33	C	-0.430238	-1.485083	-0.184797
C34	C	0.069762	-0.985083	0.315203
N35	N	0.318747	-1.485119	-0.184802
N36	N	0.818747	-0.985119	0.315198
C37	C	-0.000089	-1.492263	0.044738
C38	C	0.499911	-0.992263	0.544738
C39	C	-0.000086	-1.488571	0.184181
C40	C	0.499914	-0.988571	0.684181
C41	C	-0.000057	-1.036628	-0.300818
C42	C	0.499943	-0.536628	0.199182
C43	C	-0.000078	-0.905607	-0.297341
C44	C	0.499922	-0.405607	0.202659
C45	C	-0.000098	-0.933570	-0.068772
C46	C	0.499902	-0.433570	0.431228
C47	C	-0.000085	-1.064588	-0.072250
C48	C	0.499915	-0.564588	0.427750
C49	C	-0.000071	-1.477925	-0.414336
C50	C	0.499929	-0.977925	0.085664
C51	C	-0.000065	-1.481616	-0.553779
C52	C	0.499935	-0.981616	-0.053779
C53	C	-0.000093	-1.601112	0.263667
C54	C	0.499907	-1.101112	0.763667
C55	C	-0.000078	-1.597636	0.394688
C56	C	0.499922	-1.097636	0.894688
C57	C	-0.000055	-1.369066	0.366725
C58	C	0.499945	-0.869066	0.866725
C59	C	-0.000061	-1.372544	0.235706
C60	C	0.499939	-0.872544	0.735706
H61	H	-0.000080	-0.840894	-0.388984
H62	H	0.499920	-0.340894	0.111016
N63	N	-0.000031	-1.092194	-0.425960
N64	N	0.499969	-0.592194	0.074040
H65	H	-0.075892	-1.063287	-0.475315
H66	H	0.424108	-0.563287	0.024685
H67	H	0.000029	-1.187245	-0.410990
H68	H	0.500029	-0.687245	0.089010
H69	H	-0.000036	-1.274601	0.408693
H70	H	0.499964	-0.774601	0.908693
H71	H	-0.000052	-1.280893	0.170985
H72	H	0.499948	-0.780893	0.670985
H73	H	-0.000080	-1.689279	0.459401
H74	H	0.499920	-1.189279	0.959401
H75	H	-0.000090	-1.129309	0.019401
H76	H	0.499910	-0.629309	0.519401
N77	N	-0.000133	-0.877996	0.056366
N78	N	0.499867	-0.377996	0.556366
H79	H	-0.000141	-0.782935	0.041495
H80	H	0.499859	-0.282935	0.541495
H81	H	0.075726	-0.906996	0.105670
H82	H	0.575726	-0.406996	0.605670
H83	H	-0.000111	-1.695588	0.221720
H84	H	0.499889	-1.195588	0.721720
