data_functionalizedCrystal
_audit_creation_method	'MofGen! by Chris Wilmer'
_symmetry_space_group_name_H-M	'P1'
_symmetry_Int_Tables_number	1
_symmetry_cell_setting	triclinic
loop_
_symmetry_equiv_pos_as_xyz
  x,y,z
_cell_length_a	21.395362
_cell_length_b	18.215405
_cell_length_c	18.215399
_cell_angle_alpha	89.967040
_cell_angle_beta	89.963930
_cell_angle_gamma	90.040762
loop_
_atom_site_label
_atom_site_type_symbol
_atom_site_fract_x
_atom_site_fract_y
_atom_site_fract_z
Zn1	Zn	0.957836	-0.292662	-0.416481
Zn2	Zn	0.957764	-0.415739	-0.293409
Zn3	Zn	0.853065	-0.292725	-0.293387
Zn4	Zn	0.853031	-0.415726	-0.416392
O5	O	0.905424	-0.354213	-0.354917
O6	O	1.045504	-0.308968	-0.400201
O7	O	0.943859	-0.399452	-0.190421
O8	O	0.867008	-0.189732	-0.309743
O9	O	1.045451	-0.399392	-0.309781
O10	O	0.943983	-0.189686	-0.400180
O11	O	0.866938	-0.309074	-0.190405
O12	O	0.765383	-0.309062	-0.309657
O13	O	0.866949	-0.399370	-0.519388
O14	O	0.765358	-0.399430	-0.400029
O15	O	0.943949	-0.308955	-0.519453
O16	O	0.943826	-0.518721	-0.309695
O17	O	0.866879	-0.518712	-0.400051
C18	C	0.742636	-0.354252	-0.354832
C19	C	0.672995	-0.354286	-0.354813
C20	C	0.640285	-0.401403	-0.401799
C21	C	0.574850	-0.401385	-0.401832
C22	C	0.542127	-0.354258	-0.354865
C23	C	0.574845	-0.307132	-0.307876
C24	C	0.640279	-0.307146	-0.307849
C25	C	0.438409	-0.348344	-0.288613
C26	C	0.372976	-0.348335	-0.288638
C27	C	0.340306	-0.354210	-0.354946
C28	C	0.373077	-0.360109	-0.421232
C29	C	0.438511	-0.360123	-0.421206
C30	C	0.471175	-0.354237	-0.354889
C31	C	0.236644	-0.401310	-0.401972
C32	C	0.171207	-0.401287	-0.402006
C33	C	0.171203	-0.307037	-0.308044
C34	C	0.236639	-0.307056	-0.308016
C35	C	0.269355	-0.354197	-0.354979
C36	C	0.905358	-0.545419	-0.354882
C37	C	0.905387	-0.627218	-0.354891
C38	C	0.945547	-0.815393	-0.307930
C39	C	0.945575	-0.892251	-0.307948
C40	C	0.865381	-0.892281	-0.401957
C41	C	0.865357	-0.815424	-0.401943
C42	C	0.905439	-0.776982	-0.354925
C43	C	0.905491	-0.930698	-0.354957
C44	C	0.905521	-1.014031	-0.354977
C45	C	0.905410	-0.693643	-0.354906
C46	C	1.068847	-0.354174	-0.355003
C47	C	1.138489	-0.354158	-0.355040
C48	C	0.905454	-0.354154	-0.546870
C49	C	0.905466	-0.354129	-0.628669
C50	C	0.905508	-0.162260	-0.354969
C51	C	0.905543	-0.080461	-0.354991
C52	C	0.865447	-0.307038	-0.816856
C53	C	0.865458	-0.307023	-0.893714
C54	C	0.945560	-0.401133	-0.893721
C55	C	0.945546	-0.401151	-0.816863
C56	C	0.905490	-0.354099	-0.778433
C57	C	0.905516	-0.354066	-0.932149
C58	C	0.905528	-0.354050	-1.015483
C59	C	0.905477	-0.354116	-0.695094
C60	C	0.905431	-0.354218	-0.163711
C61	C	0.905539	-0.354036	-0.081912
H62	H	0.465190	-0.364924	-0.475177
H63	H	0.465004	-0.343558	-0.234613
H64	H	0.346478	-0.364891	-0.475227
C65	C	0.786115	-0.884591	-0.494886
C66	C	0.821322	-0.934539	-0.453636
H67	H	0.758917	-0.910679	-0.526792
H68	H	0.762158	-0.854671	-0.462780
H69	H	0.813396	-0.854556	-0.523069
H70	H	0.794041	-0.964571	-0.425448
H71	H	0.845281	-0.964472	-0.485745
H72	H	0.978173	-0.439440	-0.925020
H73	H	0.832696	-0.784148	-0.440215
C74	C	0.786263	-0.214022	-0.824572
C75	C	0.821411	-0.255328	-0.774612
H76	H	0.759073	-0.182104	-0.798493
H77	H	0.813577	-0.185855	-0.854569
H78	H	0.762295	-0.246097	-0.854530
H79	H	0.845383	-0.223254	-0.744658
H80	H	0.794094	-0.283498	-0.744603
C81	C	0.501193	-0.500376	-0.411896
C82	C	0.538887	-0.453183	-0.453481
H83	H	0.478991	-0.532349	-0.443784
H84	H	0.526673	-0.528486	-0.379776
H85	H	0.472344	-0.472294	-0.383934
H86	H	0.567739	-0.481264	-0.481439
H87	H	0.513404	-0.425069	-0.485614
C88	C	1.051704	-0.915738	-0.272284
C89	C	0.989682	-0.934444	-0.256288
H90	H	1.078940	-0.941775	-0.240387
H91	H	1.060842	-0.928296	-0.321739
H92	H	1.057395	-0.864456	-0.265561
H93	H	0.983990	-0.985726	-0.263016
H94	H	0.980542	-0.921891	-0.206820
H95	H	0.832851	-0.268701	-0.924995
H96	H	0.666911	-0.268775	-0.269588
H97	H	0.978185	-0.784095	-0.269646
C98	C	0.151104	-0.182377	-0.272421
C99	C	0.135231	-0.255241	-0.256418
H100	H	0.128887	-0.150403	-0.240552
H101	H	0.194749	-0.175639	-0.265669
H102	H	0.140430	-0.171673	-0.321894
H103	H	0.145909	-0.265947	-0.206946
H104	H	0.091577	-0.261983	-0.263164
H105	H	0.263283	-0.439691	-0.440216
H106	H	0.144576	-0.439654	-0.440272
C107	C	1.024733	-0.494172	-0.824583
C108	C	0.989566	-0.452883	-0.774623
H109	H	1.051908	-0.526105	-0.798504
H110	H	0.997430	-0.522322	-0.854536
H111	H	1.048718	-0.462087	-0.854584
H112	H	0.965577	-0.484968	-0.744626
H113	H	1.016872	-0.424731	-0.744657
H114	H	0.666919	-0.439788	-0.440041
H115	H	0.346299	-0.343537	-0.234664
C116	C	0.256711	-0.271065	-0.183456
C117	C	0.272598	-0.255271	-0.256359
H118	H	0.278914	-0.239094	-0.151566
H119	H	0.213064	-0.264308	-0.176755
H120	H	0.267391	-0.320502	-0.172601
H121	H	0.261914	-0.205834	-0.267215
H122	H	0.316255	-0.262021	-0.263063
C123	C	0.554632	-0.271124	-0.183330
C124	C	0.538882	-0.255328	-0.256245
H125	H	0.532433	-0.239136	-0.151457
H126	H	0.543859	-0.320549	-0.172478
H127	H	0.598285	-0.264388	-0.176603
H128	H	0.495229	-0.262069	-0.262974
H129	H	0.549651	-0.205892	-0.267101
