data_functionalizedCrystal
_audit_creation_method	'MofGen! by Chris Wilmer'
_symmetry_space_group_name_H-M	'P1'
_symmetry_Int_Tables_number	1
_symmetry_cell_setting	triclinic
loop_
_symmetry_equiv_pos_as_xyz
  x,y,z
_cell_length_a	10.540539
_cell_length_b	19.188930
_cell_length_c	9.616153
_cell_angle_alpha	89.992615
_cell_angle_beta	89.995174
_cell_angle_gamma	83.835137
loop_
_atom_site_label
_atom_site_type_symbol
_atom_site_fract_x
_atom_site_fract_y
_atom_site_fract_z
O1	O	1.683724	0.098389	-0.115598
O2	O	1.314107	0.107659	-0.115617
O3	O	1.509582	0.001439	-0.115579
O4	O	1.488249	0.204608	-0.115635
O5	O	1.509555	0.001441	0.115712
O6	O	1.314080	0.107661	0.115675
O7	O	1.683697	0.098391	0.115694
Zn8	Zn	1.498885	0.103026	0.152407
Zn9	Zn	1.498920	0.103023	-0.152330
O10	O	1.488222	0.204610	0.115657
C11	C	1.266806	0.106965	0.000027
C12	C	1.125904	0.104885	0.000021
C13	C	0.944233	0.025184	0.000583
C14	C	1.090805	0.027292	0.000047
C15	C	1.063423	0.142224	-0.132063
C16	C	0.916937	0.139576	-0.132158
C17	C	0.916384	0.141157	0.130863
C18	C	1.063350	0.141872	0.132594
C19	C	1.508878	-0.024575	0.000070
C20	C	1.506804	-0.102094	0.000082
C21	C	1.621502	-0.146253	0.000095
C22	C	1.619554	-0.219090	0.000072
C23	C	1.502901	-0.247764	0.000065
C24	C	1.388187	-0.203595	0.000045
C25	C	1.390139	-0.130760	0.000053
N26	N	1.413724	-0.356363	0.078774
N27	N	1.411878	-0.425554	0.078769
C28	C	1.497014	-0.467212	0.000037
N29	N	1.584085	-0.437067	-0.078672
N30	N	1.585935	-0.367870	-0.078661
C31	C	1.500772	-0.326741	0.000055
C32	C	1.609608	-0.590350	0.000023
C33	C	1.607655	-0.663188	-0.000008
C34	C	1.376285	-0.647691	-0.000021
C35	C	1.378241	-0.574855	-0.000004
C36	C	1.494906	-0.546189	0.000025
C37	C	1.730998	0.099085	0.000047
C38	C	1.871901	0.101165	0.000044
C39	C	1.488927	0.230625	0.000004
C40	C	1.491000	0.308143	-0.000017
N41	N	1.498870	0.103028	0.360381
N42	N	1.498945	0.103016	-0.360304
C43	C	1.393992	0.159658	0.580731
C44	C	1.394216	0.159870	0.419564
C45	C	1.631228	0.119601	0.418832
C46	C	1.630655	0.120002	0.580050
C47	C	1.472715	0.029640	0.580311
C48	C	1.469658	0.030115	0.419084
H49	H	1.133213	-0.002297	-0.094785
H50	H	1.654959	0.172529	0.378429
C51	C	1.259869	-0.235138	0.000047
N52	N	1.163215	-0.258896	0.000049
H53	H	0.916312	-0.005469	0.095309
C54	C	1.576111	-0.027316	0.631834
N55	N	1.653991	-0.070209	0.670650
C56	C	0.904330	-0.016061	-0.126636
N57	N	0.874269	-0.047125	-0.222457
H58	H	0.867739	0.195380	-0.138168
C59	C	1.121735	0.107177	-0.264844
N60	N	1.165653	0.080775	-0.364853
H61	H	1.296735	-0.094804	0.000044
H62	H	1.378326	0.013866	0.621048
H63	H	1.134055	-0.002088	0.094731
C64	C	1.261279	0.146411	0.366175
N65	N	1.161142	0.136278	0.325970
H66	H	1.284841	-0.538899	-0.000006
H67	H	1.295284	0.149839	0.619541
C68	C	1.094413	0.218293	0.143365
N69	N	1.117818	0.275855	0.151473
H70	H	0.889346	0.111977	-0.230877
C71	C	1.091931	0.219204	-0.138732
N72	N	1.113407	0.277185	-0.143754
C73	C	1.737940	-0.558815	0.000034
N74	N	1.834601	-0.535065	0.000037
C75	C	0.850909	0.216870	0.132052
N76	N	0.801587	0.273894	0.132939
C77	C	1.733839	-0.711764	0.000013
N78	N	1.828884	-0.748352	0.000036
H79	H	1.281303	-0.671037	-0.000034
H80	H	1.410467	0.213788	0.621216
H81	H	1.410915	0.214309	0.380970
C82	C	1.739226	0.065391	0.367037
N83	N	1.820569	0.024560	0.328022
C84	C	0.874512	0.107230	0.266119
N85	N	0.842976	0.081667	0.367987
H86	H	1.104902	0.114594	0.230309
H87	H	1.653830	0.173535	0.617625
C88	C	1.338121	0.013146	0.367486
N89	N	1.239046	0.000366	0.328616
C90	C	1.749837	-0.114725	0.000114
N91	N	1.846501	-0.090977	0.000126
C92	C	1.739327	0.066453	0.632745
N93	N	1.821192	0.026130	0.672428
H94	H	1.541158	-0.014059	0.378804
H95	H	1.712958	-0.255051	0.000077
