data_functionalizedCrystal
_audit_creation_method	'MofGen! by Chris Wilmer'
_symmetry_space_group_name_H-M	'P1'
_symmetry_Int_Tables_number	1
_symmetry_cell_setting	triclinic
loop_
_symmetry_equiv_pos_as_xyz
  x,y,z
_cell_length_a	14.560438
_cell_length_b	14.628931
_cell_length_c	14.560438
_cell_angle_alpha	90.000974
_cell_angle_beta	59.996693
_cell_angle_gamma	60.001335
loop_
_atom_site_label
_atom_site_type_symbol
_atom_site_fract_x
_atom_site_fract_y
_atom_site_fract_z
Zr1	Zr	1.005313	0.880623	-0.120589
O2	O	1.196924	0.734660	-0.267251
O3	O	0.813704	0.925368	-0.075621
O4	O	1.005316	0.925365	-0.267238
O5	O	1.005310	0.734667	0.075507
O6	O	1.005315	1.075797	-0.267238
O7	O	1.005313	0.734664	-0.075634
O8	O	0.662557	1.075803	0.075529
O9	O	1.348068	0.734661	-0.267260
O10	O	0.892515	1.056718	-0.056453
O11	O	0.892513	0.944455	0.056341
O12	O	1.118111	0.944451	-0.169263
O13	O	1.118109	0.832188	-0.056468
Zr14	Zr	1.005308	1.120551	0.120463
Zr15	Zr	1.005313	1.120545	-0.120589
Zr16	Zr	1.005309	0.880629	0.120463
Zr17	Zr	1.246370	0.880625	-0.120605
Zr18	Zr	0.764252	1.120550	0.120479
O19	O	1.196918	1.075807	0.075495
O20	O	1.196923	1.075798	-0.267250
O21	O	1.196919	0.734669	0.075495
O22	O	0.813697	1.266515	0.267124
O23	O	0.813703	1.266506	-0.075621
O24	O	0.813698	0.925377	0.267124
O25	O	1.005311	1.266507	-0.075633
O26	O	1.005306	1.075810	0.267112
O27	O	1.005307	0.925378	0.267111
O28	O	1.005309	1.266511	0.075508
O29	O	1.348068	0.925367	-0.267260
O30	O	0.662554	1.075808	0.267134
O31	O	0.662554	1.266514	0.267134
O32	O	0.662557	1.266509	0.075530
O33	O	1.348065	0.734666	-0.075656
O34	O	1.348064	0.925372	-0.075656
O35	O	0.892511	1.056724	0.169136
O36	O	0.892512	1.168987	0.056342
O37	O	1.118109	1.056720	-0.056468
O38	O	1.118107	0.944457	0.056327
C39	C	0.703785	1.000585	-0.000044
C40	C	0.601450	1.000584	-0.000037
C41	C	0.636666	0.917706	-0.083320
C42	C	0.540526	0.917711	-0.083349
C43	C	0.373956	1.083477	0.083198
C44	C	0.470095	1.083476	0.083221
C45	C	1.005312	0.700482	-0.000064
C46	C	1.005312	0.598629	-0.000064
C47	C	0.893401	0.608911	0.055897
C48	C	0.893399	0.503642	0.055898
C49	C	1.306836	1.000590	-0.000083
C50	C	1.409171	1.000590	-0.000089
C51	C	1.005316	1.000580	-0.301583
C52	C	1.005318	1.000577	-0.403916
C53	C	1.005310	1.300693	-0.000063
C54	C	1.005310	1.402546	-0.000063
C55	C	1.123074	0.941976	-0.510877
C56	C	1.123068	0.941989	-0.607026
C57	C	0.887538	1.059206	-0.489238
C58	C	0.887546	1.059199	-0.393092
C59	C	1.005306	1.000595	0.301456
C60	C	1.005304	1.000598	0.403789
C61	C	0.703784	1.300691	-0.000043
C62	C	0.601449	1.402543	-0.000037
C63	C	0.703780	1.000593	0.301476
C64	C	0.601444	1.000595	0.403815
C65	C	0.703779	1.300698	0.301476
C66	C	0.601442	1.402553	0.403816
C67	C	1.306842	0.700476	-0.301602
C68	C	1.409179	0.598621	-0.403942
C69	C	1.306837	0.700484	-0.000083
C70	C	1.409173	0.598632	-0.000090
C71	C	1.306841	1.000582	-0.301602
C72	C	1.409178	1.000580	-0.403942
C73	C	0.553370	1.391793	-0.058909
C74	C	0.457223	1.487498	-0.058906
C75	C	0.457238	1.604700	0.058849
C76	C	0.553390	1.508996	0.058840
C77	C	0.553362	1.059198	0.510772
C78	C	0.457215	1.059186	0.606927
C79	C	0.457235	0.941968	0.489154
C80	C	0.553387	0.941973	0.393002
C81	C	0.553363	1.509005	0.393021
C82	C	0.457215	1.604705	0.489183
C83	C	0.457230	1.487487	0.606933
C84	C	0.553383	1.391790	0.510772
H85	H	0.441409	1.150971	0.151042
H86	H	0.266998	1.150964	0.150985
O87	O	0.605208	1.520620	0.277666
H88	H	0.586744	1.479838	0.231041
H89	H	1.218958	0.894272	-0.694116
O90	O	0.405370	0.878766	0.477515
H91	H	0.486076	0.788693	0.430833
O92	O	1.132216	0.391130	-0.063584
H93	H	1.137812	0.431975	-0.004142
O94	O	1.132226	0.483737	-0.063532
H95	H	1.188729	0.473928	-0.029525
O96	O	0.405405	1.719514	0.122349
H97	H	0.361614	1.729244	0.212843
O98	O	0.405352	1.122394	0.722291
H99	H	0.299279	1.187151	0.768922
O100	O	1.250099	0.878757	-0.522555
H101	H	1.255742	0.813974	-0.481583
H102	H	0.592540	1.517757	0.106780
O103	O	0.405381	1.475889	0.722295
H104	H	0.454980	1.385785	0.713643
H105	H	0.592492	1.106926	0.519583
H106	H	0.418073	1.691380	0.480386
O107	O	0.760515	1.122418	-0.477563
H108	H	0.780291	1.112569	-0.562389
O109	O	0.605237	1.276961	0.522407
H110	H	0.555648	1.285552	0.612933
O111	O	0.760542	1.122410	-0.277704
H112	H	0.704057	1.088552	-0.267891
O113	O	0.778341	0.828320	-0.173128
H114	H	0.786673	0.770700	-0.231052
H115	H	0.797592	0.695648	0.103812
O116	O	0.405360	1.475909	-0.122400
H117	H	0.454930	1.385807	-0.163334
H118	H	0.592538	0.894246	0.305906
O119	O	0.578501	0.828323	-0.173174
H120	H	0.636858	0.744765	-0.169066
O121	O	0.766474	0.515090	0.119367
H122	H	0.786390	0.430612	0.109414
H123	H	0.592509	1.305119	-0.106861
