data_functionalizedCrystal
_audit_creation_method	'MofGen! by Chris Wilmer'
_symmetry_space_group_name_H-M	'P1'
_symmetry_Int_Tables_number	1
_symmetry_cell_setting	triclinic
loop_
_symmetry_equiv_pos_as_xyz
  x,y,z
_cell_length_a	19.188930
_cell_length_b	17.699083
_cell_length_c	16.776229
_cell_angle_alpha	89.992455
_cell_angle_beta	89.978976
_cell_angle_gamma	83.213897
loop_
_atom_site_label
_atom_site_type_symbol
_atom_site_fract_x
_atom_site_fract_y
_atom_site_fract_z
O1	O	0.926253	0.094493	-0.066546
O2	O	1.426253	0.594493	0.433454
O3	O	0.722956	0.107213	-0.066492
O4	O	1.222956	0.607213	0.433508
O5	O	0.830348	-0.009343	-0.066513
O6	O	1.330348	0.490657	0.433487
O7	O	0.818861	0.211050	-0.066524
O8	O	1.318861	0.711050	0.433476
O9	O	0.830334	-0.009351	0.066063
O10	O	1.330334	0.490649	0.566063
O11	O	0.722942	0.107206	0.066085
O12	O	1.222942	0.607206	0.566085
O13	O	0.926239	0.094486	0.066030
O14	O	1.426239	0.594486	0.566030
Zn15	Zn	0.824588	0.100845	0.087107
Zn16	Zn	1.324588	0.600845	0.587107
Zn17	Zn	0.824607	0.100854	-0.087568
Zn18	Zn	1.324607	0.600854	0.412432
O19	O	0.818847	0.211043	0.066052
O20	O	1.318847	0.711043	0.566052
C21	C	0.696938	0.106798	-0.000196
C22	C	1.196938	0.606798	0.499804
C23	C	0.619432	0.105561	-0.000175
C24	C	1.119432	0.605561	0.499825
C25	C	0.829930	-0.037543	-0.000225
C26	C	1.329930	0.462457	0.499775
C27	C	0.828695	-0.121560	-0.000224
C28	C	1.328695	0.378440	0.499776
C29	C	0.891732	-0.170264	-0.000240
C30	C	1.391732	0.329736	0.499760
C31	C	0.890567	-0.249206	-0.000247
C32	C	1.390567	0.250794	0.499753
C33	C	0.826365	-0.279442	-0.000232
C34	C	1.326365	0.220558	0.499768
C35	C	0.763323	-0.230732	-0.000219
C36	C	1.263323	0.269268	0.499781
C37	C	0.764489	-0.151791	-0.000218
C38	C	1.264489	0.348209	0.499782
C39	C	0.758623	-0.549089	-0.000224
C40	C	1.258623	-0.049089	0.499776
C41	C	0.757463	-0.628035	-0.000222
C42	C	1.257463	-0.128035	0.499778
C43	C	0.884702	-0.646503	-0.000253
C44	C	1.384702	-0.146503	0.499747
C45	C	0.885867	-0.567563	-0.000252
C46	C	1.385867	-0.067563	0.499748
C47	C	0.822826	-0.518859	-0.000243
C48	C	1.322826	-0.018859	0.499757
C49	C	0.824089	-0.433262	-0.000237
C50	C	1.324089	0.066738	0.499763
C51	C	0.825101	-0.365038	-0.000232
C52	C	1.325101	0.134962	0.499768
C53	C	0.574584	0.173953	-0.000191
C54	C	1.074584	0.673953	0.499809
C55	C	0.501759	0.172791	-0.000200
C56	C	1.001759	0.672791	0.499800
C57	C	0.473785	0.103234	-0.000209
C58	C	0.973785	0.603234	0.499791
C59	C	0.518642	0.034833	-0.000188
C60	C	1.018642	0.534833	0.499812
C61	C	0.591465	0.035997	-0.000172
C62	C	1.091465	0.535997	0.499828
N63	N	0.365750	0.050069	-0.045360
N64	N	0.865750	0.550069	0.454640
N65	N	0.296570	0.048968	-0.045377
N66	N	0.796570	0.548968	0.454623
C67	C	0.254372	0.099724	-0.000257
C68	C	0.754372	0.599724	0.499743
N69	N	0.283966	0.151634	0.044871
N70	N	0.783966	0.651634	0.544871
N71	N	0.353152	0.152737	0.044885
N72	N	0.853152	0.652737	0.544885
C73	C	0.394821	0.101965	-0.000226
C74	C	0.894821	0.601965	0.499774
C75	C	0.130559	0.166861	-0.000282
C76	C	0.630559	0.666861	0.499718
C77	C	0.057733	0.165696	-0.000285
C78	C	0.557733	0.665696	0.499715
C79	C	0.074617	0.027736	-0.000282
C80	C	0.574617	0.527736	0.499718
C81	C	0.147442	0.028903	-0.000270
C82	C	0.647442	0.528903	0.499730
C83	C	0.175408	0.098467	-0.000274
C84	C	0.675408	0.598467	0.499726
C85	C	0.952258	0.094902	-0.000267
C86	C	1.452258	0.594902	0.499733
C87	C	1.029763	0.096138	-0.000293
C88	C	1.529763	0.596138	0.499707
C89	C	0.819266	0.239243	-0.000238
C90	C	1.319266	0.739243	0.499762
C91	C	0.820500	0.323259	-0.000244
C92	C	1.320500	0.823259	0.499756
N93	N	0.824581	0.100838	0.206318
N94	N	1.324581	0.600838	0.706318
N95	N	0.824620	0.100855	-0.206779
N96	N	1.324620	0.600855	0.293221
C97	C	0.872148	0.049248	0.248026
C98	C	1.372148	0.549248	0.748026
C99	C	0.872152	0.049247	0.331478
C100	C	1.372152	0.549247	0.831478
C101	C	0.824591	0.100841	0.373221
C102	C	1.324591	0.600841	0.873221
C103	C	0.777018	0.152434	0.331508
C104	C	1.277018	0.652434	0.831508
C105	C	0.777012	0.152430	0.248057
C106	C	1.277012	0.652430	0.748057
C107	C	0.777044	0.152449	0.668055
C108	C	1.277044	0.652449	1.168055
C109	C	0.777055	0.152450	0.751512
C110	C	1.277055	0.652450	1.251512
C111	C	0.872184	0.049266	0.751476
C112	C	1.372184	0.549266	1.251476
C113	C	0.872177	0.049262	0.668025
C114	C	1.372177	0.549262	1.168025
C115	C	0.824602	0.100852	0.626319
C116	C	1.324602	0.600852	1.126319
C117	C	0.824598	0.100851	0.535831
C118	C	1.324598	0.600851	1.035831
C119	C	0.824598	0.100846	0.463708
C120	C	1.324598	0.600846	0.963708
H121	H	0.941898	-0.288858	-0.000258
H122	H	1.441898	0.211142	0.499742
H123	H	0.910908	0.007252	0.634040
H124	H	1.410908	0.507252	1.134040
C125	C	0.043857	-0.048778	-0.000288
C126	C	0.543857	0.451222	0.499712
H127	H	0.081001	-0.089344	-0.000273
H128	H	0.581001	0.410656	0.499727
H129	H	0.015820	-0.052100	-0.046524
H130	H	0.515820	0.447900	0.453476
H131	H	0.015781	-0.052099	0.045947
H132	H	0.515781	0.447901	0.545947
C133	C	0.924483	-0.007495	0.377353
C134	C	1.424483	0.492505	0.877353
H135	H	0.952815	-0.038214	0.340540
H136	H	1.452815	0.461786	0.840540
H137	H	0.899434	-0.038939	0.409928
H138	H	1.399434	0.461061	0.909928
H139	H	0.953499	0.019667	0.409884
H140	H	1.453499	0.519667	0.909884
H141	H	0.711049	-0.255356	-0.000212
H142	H	1.211049	0.244644	0.499788
C143	C	0.724733	0.209213	0.622185
C144	C	1.224733	0.709213	1.122185
H145	H	0.731536	0.201824	0.566506
H146	H	1.231536	0.701824	1.066506
H147	H	0.732242	0.259700	0.635857
H148	H	1.232242	0.759700	1.135857
H149	H	0.678146	0.201128	0.635883
H150	H	1.178146	0.701128	1.135883
C151	C	0.008400	0.240931	-0.000303
C152	C	0.508400	0.740931	0.499697
H153	H	0.035489	0.282524	-0.000310
H154	H	0.535489	0.782524	0.499690
H155	H	-0.020381	0.243348	0.045923
H156	H	0.479619	0.743348	0.545923
H157	H	-0.020336	0.243341	-0.046547
H158	H	0.479664	0.743341	0.453453
C159	C	0.196776	-0.046329	-0.000265
C160	C	0.696776	0.453671	0.499735
H161	H	0.169687	-0.087923	-0.000278
H162	H	0.669687	0.412077	0.499722
H163	H	0.225515	-0.048748	0.045972
H164	H	0.725515	0.451252	0.545972
H165	H	0.225555	-0.048737	-0.046498
H166	H	0.725555	0.451263	0.453502
C167	C	0.695148	-0.098217	-0.000198
C168	C	1.195148	0.401783	0.499802
H169	H	0.656744	-0.127529	-0.000183
H170	H	1.156744	0.372471	0.499817
H171	H	0.692964	-0.067033	-0.046430
H172	H	1.192964	0.432967	0.453570
H173	H	0.692952	-0.067045	0.046041
H174	H	1.192952	0.432955	0.546041
H175	H	0.910881	0.007237	0.214044
H176	H	1.410881	0.507237	0.714044
H177	H	0.738290	0.194440	0.365500
H178	H	1.238290	0.694440	0.865500
H179	H	0.910920	0.007256	0.785442
H180	H	1.410920	0.507256	1.285442
C181	C	0.724723	0.209192	0.797428
C182	C	1.224723	0.709192	1.297428
H183	H	0.696381	0.239909	0.760638
H184	H	1.196381	0.739909	1.260638
H185	H	0.749774	0.240639	0.829968
H186	H	1.249774	0.740639	1.329968
H187	H	0.695718	0.182024	0.829998
H188	H	1.195718	0.682024	1.329998
C189	C	0.956489	-0.534306	-0.000272
C190	C	1.456489	-0.034306	0.499728
H191	H	0.993866	-0.574620	-0.000290
H192	H	1.493866	-0.074620	0.499710
H193	H	0.959586	-0.503900	0.045958
H194	H	1.459586	-0.003900	0.545958
H195	H	0.959589	-0.503892	-0.046512
H196	H	1.459589	-0.003892	0.453488
C197	C	0.724690	0.209180	0.202175
C198	C	1.224690	0.709180	0.702175
H199	H	0.731493	0.201784	0.146497
H200	H	1.231493	0.701784	0.646497
H201	H	0.732183	0.259675	0.215836
H202	H	1.232183	0.759675	0.715836
H203	H	0.678109	0.201078	0.215879
H204	H	1.178109	0.701078	0.715879
C205	C	0.962355	-0.137011	-0.000256
C206	C	1.462355	0.362989	0.499744
H207	H	0.999730	-0.177326	-0.000274
H208	H	1.499730	0.322674	0.499726
H209	H	0.965452	-0.106606	0.045975
H210	H	1.465452	0.393394	0.545975
H211	H	0.965459	-0.106596	-0.046495
H212	H	1.465459	0.393404	0.453505
C213	C	0.686837	-0.661293	-0.000217
C214	C	1.186837	-0.161293	0.499783
H215	H	0.649458	-0.620982	-0.000220
H216	H	1.149458	-0.120982	0.499780
H217	H	0.683728	-0.691710	0.046015
H218	H	1.183728	-0.191710	0.546015
H219	H	0.683753	-0.691699	-0.046456
H220	H	1.183753	-0.191699	0.453544
C221	C	0.689281	-0.495525	-0.000200
C222	C	1.189281	0.004475	0.499800
H223	H	0.650879	-0.524841	-0.000180
H224	H	1.150879	-0.024841	0.499820
H225	H	0.687088	-0.464338	-0.046429
H226	H	1.187088	0.035662	0.453571
H227	H	0.687088	-0.464356	0.046041
H228	H	1.187088	0.035644	0.546041
C229	C	0.605344	0.250471	-0.000181
C230	C	1.105344	0.750471	0.499819
H231	H	0.568200	0.291036	-0.000183
H232	H	1.068200	0.791036	0.499817
H233	H	0.633427	0.253799	-0.046403
H234	H	1.133427	0.753799	0.453597
H235	H	0.633374	0.253787	0.046067
H236	H	1.133374	0.753787	0.546067
C237	C	0.954047	-0.700078	-0.000276
C238	C	1.454047	-0.200078	0.499724
H239	H	0.944162	-0.751423	-0.000284
H240	H	1.444162	-0.251423	0.499716
H241	H	0.980374	-0.690944	0.045950
H242	H	1.480374	-0.190944	0.545950
H243	H	0.980382	-0.690926	-0.046521
H244	H	1.480382	-0.190926	0.453479
C245	C	0.452418	0.248025	-0.000230
C246	C	0.952418	0.748025	0.499770
H247	H	0.479504	0.289621	-0.000236
H248	H	0.979504	0.789621	0.499764
H249	H	0.423630	0.250445	0.045991
H250	H	0.923630	0.750445	0.545991
H251	H	0.423689	0.250428	-0.046479
H252	H	0.923689	0.750428	0.453521
C253	C	0.487876	-0.041680	-0.000199
C254	C	0.987876	0.458320	0.499801
H255	H	0.525019	-0.082246	-0.000182
H256	H	1.025019	0.417754	0.499818
H257	H	0.459842	-0.045000	-0.046439
H258	H	0.959842	0.455000	0.453561
H259	H	0.459796	-0.045002	0.046032
H260	H	0.959796	0.454998	0.546032
C261	C	0.640802	-0.039235	-0.000160
C262	C	1.140802	0.460765	0.499840
H263	H	0.688179	-0.028579	-0.000146
H264	H	1.188179	0.471421	0.499854
H265	H	0.632357	-0.067767	-0.046392
H266	H	1.132357	0.432233	0.453608
H267	H	0.632316	-0.067768	0.046078
H268	H	1.132316	0.432232	0.546078
C269	C	0.161326	0.243377	-0.000278
C270	C	0.661326	0.743377	0.499722
H271	H	0.124183	0.283943	-0.000277
H272	H	0.624183	0.783943	0.499723
H273	H	0.189403	0.246702	-0.046505
H274	H	0.689403	0.746702	0.453495
H275	H	0.189362	0.246694	0.045965
H276	H	0.689362	0.746694	0.545965
