data_functionalizedCrystal
_audit_creation_method	'MofGen! by Chris Wilmer'
_symmetry_space_group_name_H-M	'P1'
_symmetry_Int_Tables_number	1
_symmetry_cell_setting	triclinic
loop_
_symmetry_equiv_pos_as_xyz
  x,y,z
_cell_length_a	23.532407
_cell_length_b	11.026607
_cell_length_c	9.482900
_cell_angle_alpha	78.599815
_cell_angle_beta	99.224935
_cell_angle_gamma	95.717347
loop_
_atom_site_label
_atom_site_type_symbol
_atom_site_fract_x
_atom_site_fract_y
_atom_site_fract_z
O1	O	-0.777643	-0.128074	-0.120705
O2	O	-0.614021	-0.149356	-0.120747
O3	O	-0.682271	0.037775	-0.120724
O4	O	-0.709393	-0.315204	-0.120728
O5	O	-0.668423	-0.000387	0.121064
O6	O	-0.600173	-0.187518	0.121041
O7	O	-0.763795	-0.166236	0.121083
Cu8	Cu	-0.680720	-0.180361	0.143139
Cu9	Cu	-0.697096	-0.135230	-0.142803
O10	O	-0.695545	-0.353366	0.121060
C11	C	-0.585824	-0.167894	0.000142
C12	C	-0.522437	-0.166261	0.000125
C13	C	-0.670344	0.063845	0.000167
C14	C	-0.655428	0.198380	0.000158
C15	C	-0.791992	-0.147697	0.000191
C16	C	-0.855380	-0.149328	0.000197
C17	C	-0.133902	-0.266790	0.000190
C18	C	-0.074342	-0.265278	0.000199
O19	O	-0.047395	-0.358468	0.000251
N20	N	-0.040015	-0.154027	0.000198
C21	C	-0.065250	-0.044283	0.000203
O22	O	-0.030583	0.050483	0.000204
C23	C	-0.124808	-0.045799	0.000204
C24	C	-0.159134	-0.157055	0.000191
C25	C	-0.168227	-0.378038	0.000178
C26	C	-0.227783	-0.379549	0.000167
C27	C	-0.253014	-0.269814	0.000167
C28	C	-0.218690	-0.158567	0.000179
C29	C	-0.150042	0.063941	0.000219
C30	C	-0.209604	0.062416	0.000222
C31	C	-0.243930	-0.048840	0.000208
C32	C	-0.303477	-0.050343	0.000168
N33	N	-0.337804	-0.161594	0.000169
C34	C	-0.312573	-0.271329	0.000169
C35	C	0.059826	-0.041109	0.000202
C36	C	0.119383	-0.039591	0.000190
C37	C	0.110287	-0.260586	0.000189
C38	C	0.050728	-0.262102	0.000191
C39	C	0.025499	-0.152360	0.000203
C40	C	-0.437644	-0.274496	0.000143
C41	C	-0.497206	-0.275997	0.000125
C42	C	-0.488104	-0.055003	0.000134
C43	C	-0.428548	-0.053500	0.000144
C44	C	-0.403320	-0.163257	0.000153
O45	O	-0.330463	0.042798	0.000122
O46	O	-0.347245	-0.366083	0.000187
C47	C	-0.707473	-0.379436	0.000166
C48	C	-0.722389	-0.513970	0.000165
N49	N	-0.669206	-0.212103	0.344255
C50	C	-0.696613	0.272681	0.000166
C51	C	-0.681198	0.411731	0.000157
N52	N	-0.708614	-0.103479	-0.343920
C53	C	-0.693696	-0.144586	0.416463
C54	C	-0.684121	-0.171005	0.583877
H55	H	-0.417111	-0.363871	0.000155
H56	H	-0.255726	-0.470145	0.000155
H57	H	-0.769069	0.446724	0.000068
N58	N	0.137529	-0.378939	0.000269
H59	H	0.130307	-0.441628	0.089922
H60	H	0.120058	-0.413314	-0.089399
H61	H	-0.736668	-0.026107	0.593965
N62	N	-0.534229	-0.395996	0.000096
H63	H	-0.509203	-0.465281	0.000099
H64	H	-0.554013	-0.415593	0.089721
H65	H	-0.743284	0.233349	0.000187
H66	H	-0.147691	-0.467404	0.000183
N67	N	-0.593606	0.250474	0.000148
H68	H	-0.568887	0.207804	0.089778
H69	H	-0.579200	0.236087	-0.089543
N70	N	-0.646955	-0.273484	0.666150
H71	H	-0.663932	-0.355223	0.639739
H72	H	-0.606657	-0.255947	0.639712
H73	H	-0.721748	-0.067219	0.354344
H74	H	-0.230142	0.151783	0.000233
N75	N	0.013708	-0.382096	0.000172
H76	H	0.038735	-0.451376	0.000165
H77	H	-0.006071	-0.401697	0.089806
N78	N	0.156400	0.080410	0.000178
H79	H	0.131373	0.149691	0.000176
H80	H	0.186438	0.071711	0.089816
H81	H	-0.641148	-0.289462	0.406376
H82	H	-0.122104	0.154538	0.000231
N83	N	0.032621	0.077273	0.000189
H84	H	0.002984	0.095722	-0.089443
H85	H	0.013277	0.067360	0.089879
N86	N	-0.391523	0.066497	0.000130
H87	H	-0.416548	0.135785	0.000121
H88	H	-0.361488	0.057794	0.089773
H89	H	-0.508658	0.034341	0.000128
H90	H	-0.634524	0.451057	0.000135
