data_functionalizedCrystal
_audit_creation_method	'MofGen! by Chris Wilmer'
_symmetry_space_group_name_H-M	'P1'
_symmetry_Int_Tables_number	1
_symmetry_cell_setting	triclinic
loop_
_symmetry_equiv_pos_as_xyz
  x,y,z
_cell_length_a	12.759401
_cell_length_b	17.637651
_cell_length_c	12.759393
_cell_angle_alpha	101.248903
_cell_angle_beta	90.020938
_cell_angle_gamma	101.220604
loop_
_atom_site_label
_atom_site_type_symbol
_atom_site_fract_x
_atom_site_fract_y
_atom_site_fract_z
Zn1	Zn	1.521705	-0.314700	0.509352
Zn2	Zn	1.486064	-0.446936	0.298095
Zn3	Zn	1.345992	-0.314742	0.333676
Zn4	Zn	1.310478	-0.446881	0.473747
O5	O	1.416060	-0.380814	0.403718
O6	O	1.663997	-0.332247	0.481339
O7	O	1.467430	-0.429441	0.155783
O8	O	1.399080	-0.204094	0.386772
O9	O	1.637811	-0.429400	0.326129
O10	O	1.528175	-0.204063	0.515840
O11	O	1.364520	-0.332318	0.181924
O12	O	1.194262	-0.332265	0.352247
O13	O	1.338551	-0.429306	0.625502
O14	O	1.168170	-0.429347	0.455156
O15	O	1.493738	-0.332193	0.651661
O16	O	1.432993	-0.557571	0.291604
O17	O	1.303991	-0.557530	0.420655
C18	C	1.143095	-0.380805	0.403699
C19	C	1.026314	-0.380820	0.403711
C20	C	0.957873	-0.431447	0.457170
C21	C	0.848148	-0.431450	0.457190
C22	C	0.875316	-0.330196	0.350284
C23	C	0.985040	-0.330190	0.350271
C24	C	1.360799	-0.586238	0.348428
C25	C	1.337254	-0.674120	0.324810
C26	C	1.595609	-0.962775	0.583473
C27	C	1.573452	-1.045353	0.561262
C28	C	1.439114	-1.045493	0.426733
C29	C	1.461264	-0.962913	0.448929
C30	C	1.539512	-0.921561	0.527301
C31	C	1.405166	-0.921699	0.392757
C32	C	1.427311	-0.839126	0.414956
C33	C	1.505553	-0.797768	0.493327
C34	C	1.561656	-0.838989	0.549500
C35	C	1.326914	-0.963052	0.314391
C36	C	1.270816	-0.921838	0.258219
C37	C	1.292966	-0.839264	0.280412
C38	C	1.371207	-0.797906	0.358783
C39	C	1.236862	-0.798044	0.224239
C40	C	1.259007	-0.715472	0.246438
C41	C	1.393352	-0.715334	0.380981
C42	C	1.690090	-0.380825	0.403736
C43	C	1.806866	-0.380829	0.403744
C44	C	1.416159	-0.380739	0.677772
C45	C	1.416201	-0.380706	0.794557
C46	C	1.471565	-0.174588	0.459246
C47	C	1.495218	-0.086707	0.482910
C48	C	1.416037	-0.380833	0.130745
C49	C	1.416258	-0.380643	0.014020
C50	C	1.497014	-0.330131	0.863044
C51	C	1.497041	-0.330097	0.972777
C52	C	1.335437	-0.431220	0.945525
C53	C	1.335407	-0.431249	0.835795
H54	H	1.457077	-0.681663	0.444792
H55	H	0.991475	-0.472671	0.500687
C56	C	0.772862	-0.487140	0.515991
H57	H	0.701604	-0.479889	0.508357
H58	H	0.776549	-0.540249	0.486201
H59	H	0.793981	-0.475627	0.589706
C60	C	0.829908	-0.274516	0.291491
H61	H	0.754756	-0.281777	0.299144
H62	H	0.862179	-0.221404	0.321271
H63	H	0.844761	-0.286031	0.217772
H64	H	1.040769	-0.288958	0.306740
C65	C	1.302550	-1.053880	0.289969
H66	H	1.247905	-1.072605	0.235260
H67	H	1.365352	-1.072537	0.266843
H68	H	1.279341	-1.072533	0.352742
C69	C	1.246509	-0.486882	0.760450
H70	H	1.258058	-0.479653	0.689196
H71	H	1.247585	-0.540003	0.764126
H72	H	1.179038	-0.475295	0.781541
H73	H	1.269659	-0.472372	0.979115
C74	C	1.529917	-0.706941	0.517752
H75	H	1.584545	-0.688217	0.572477
H76	H	1.553124	-0.688283	0.454989
H77	H	1.467107	-0.688287	0.540883
C78	C	1.647733	-0.793492	0.635700
H79	H	1.652889	-0.738413	0.640867
H80	H	1.628709	-0.806993	0.702650
H81	H	1.714714	-0.806994	0.616745
C82	C	1.681660	-0.917283	0.669702
H83	H	1.711892	-0.953653	0.699990
H84	H	1.736103	-0.885056	0.638238
H85	H	1.650050	-0.885080	0.724096
H86	H	1.619124	-1.078907	0.607025
H87	H	1.375403	-1.079173	0.362925
C88	C	1.184755	-0.967329	0.172011
H89	H	1.179605	-1.022410	0.166829
H90	H	1.117776	-0.953825	0.190943
H91	H	1.203807	-0.953825	0.105063
H92	H	1.173146	-0.831726	0.160436
H93	H	1.562800	-0.288974	0.829472
C94	C	1.197302	-0.670133	0.184651
H95	H	1.147537	-0.706587	0.134790
H96	H	1.160143	-0.637925	0.233460
H97	H	1.246162	-0.637925	0.147568
H98	H	1.562846	-0.288913	1.028536
