data_functionalizedCrystal
_audit_creation_method	'MofGen! by Chris Wilmer'
_symmetry_space_group_name_H-M	'P1'
_symmetry_Int_Tables_number	1
_symmetry_cell_setting	triclinic
loop_
_symmetry_equiv_pos_as_xyz
  x,y,z
_cell_length_a	23.096457
_cell_length_b	20.919309
_cell_length_c	20.919309
_cell_angle_alpha	60.101124
_cell_angle_beta	89.999751
_cell_angle_gamma	62.591463
loop_
_atom_site_label
_atom_site_type_symbol
_atom_site_fract_x
_atom_site_fract_y
_atom_site_fract_z
Zr1	Zr	0.585938	0.692446	-0.106857
O2	O	0.501546	0.817971	-0.209953
O3	O	0.608431	0.561618	-0.071789
O4	O	0.617465	0.684800	-0.204963
O5	O	0.489229	0.702670	0.024331
O6	O	0.712745	0.684802	-0.204966
O7	O	0.492513	0.694789	-0.076779
O8	O	0.696587	0.464451	0.033257
O9	O	0.505388	0.923021	-0.213893
O10	O	0.693212	0.617395	-0.061021
O11	O	0.619655	0.623275	0.014439
O12	O	0.630290	0.768307	-0.142355
O13	O	0.556733	0.774187	-0.066896
Zr14	Zr	0.732663	0.705018	0.054395
Zr15	Zr	0.737900	0.692449	-0.106863
Zr16	Zr	0.580701	0.705015	0.054401
Zr17	Zr	0.592066	0.859988	-0.113141
Zr18	Zr	0.726535	0.537476	0.060679
O19	O	0.710169	0.835846	0.019327
O20	O	0.717616	0.817975	-0.209961
O21	O	0.494100	0.835843	0.019336
O22	O	0.817055	0.579493	0.157491
O23	O	0.824501	0.561621	-0.071798
O24	O	0.600985	0.579489	0.157499
O25	O	0.829372	0.694794	-0.076792
O26	O	0.701136	0.712664	0.152501
O27	O	0.605856	0.712663	0.152505
O28	O	0.826088	0.702675	0.024317
O29	O	0.626177	0.923023	-0.213897
O30	O	0.692424	0.474441	0.161435
O31	O	0.813213	0.474443	0.161431
O32	O	0.817376	0.464453	0.033252
O33	O	0.501225	0.933012	-0.085714
O34	O	0.622014	0.933013	-0.085719
O35	O	0.688311	0.629158	0.089893
O36	O	0.761868	0.623277	0.014434
O37	O	0.698946	0.774189	-0.066901
O38	O	0.625389	0.780069	0.008559
C39	C	0.651636	0.489163	-0.018371
C40	C	0.649035	0.418037	-0.015703
C41	C	0.686207	0.381553	-0.053839
C42	C	0.683764	0.314718	-0.051326
C43	C	0.644145	0.284374	-0.010680
C44	C	0.606972	0.320862	0.027461
C45	C	0.609419	0.387691	0.024951
C46	C	0.634840	0.082743	-0.001127
C47	C	0.632394	0.015911	0.001378
C48	C	0.709188	0.009772	-0.077408
C49	C	0.711628	0.076606	-0.079918
C50	C	0.674457	0.113084	-0.041774
C51	C	0.641646	0.216060	-0.008111
C52	C	0.676961	0.181393	-0.044338
C53	C	0.469220	0.698729	-0.026223
C54	C	0.404708	0.698728	-0.026221
C55	C	0.407247	0.619956	0.016228
C56	C	0.346632	0.619955	0.016231
C57	C	0.283478	0.698730	-0.026229
C58	C	0.280942	0.777513	-0.068680
C59	C	0.341557	0.777512	-0.068676
N60	N	0.164992	0.754655	-0.092620
N61	N	0.107413	0.754650	-0.092622
C62	C	0.100846	0.698737	-0.026243
N63	N	0.154040	0.642814	0.040139
N64	N	0.211626	0.642816	0.040140
C65	C	0.217747	0.698739	-0.026238
C66	C	0.037661	0.619958	0.016213
C67	C	-0.022957	0.619960	0.016219
C68	C	-0.088647	0.777520	-0.068700
C69	C	-0.028029	0.777516	-0.068698
C70	C	0.035122	0.698732	-0.026243
C71	C	0.849381	0.698735	-0.026238
C72	C	0.913893	0.698736	-0.026241
C73	C	0.665851	0.683010	-0.227940
C74	C	0.668074	0.677674	-0.296399
C75	C	0.666965	0.908301	-0.034091
C76	C	0.669566	0.979427	-0.036759
C77	C	0.636275	0.753940	-0.371016
C78	C	0.638373	0.748921	-0.435338
C79	C	0.672266	0.667636	-0.425039
C80	C	0.704069	0.591364	-0.350414
C81	C	0.701975	0.596384	-0.286094
C82	C	0.680236	0.648538	-0.617118
C83	C	0.682326	0.643525	-0.681445
C84	C	0.616630	0.801082	-0.766365
C85	C	0.614536	0.806094	-0.702040
C86	C	0.646342	0.729823	-0.627421
C87	C	0.674409	0.662504	-0.490785
C88	C	0.644202	0.734956	-0.561677
C89	C	0.652750	0.714454	0.175478
C90	C	0.650527	0.719790	0.243937
C91	C	0.841717	0.489166	-0.018378
C92	C	0.903627	0.418041	-0.015713
C93	C	0.645085	0.504885	0.183338
C94	C	0.640261	0.439095	0.254464
C95	C	0.835166	0.504888	0.183331
C96	C	0.894853	0.439099	0.254454
C97	C	0.483435	0.892576	-0.235793
C98	C	0.423748	0.958365	-0.306916
C99	C	0.476884	0.908298	-0.034083
C100	C	0.414974	0.979423	-0.036748
C101	C	0.673515	0.892579	-0.235800
C102	C	0.678340	0.958369	-0.306926
C103	C	0.896863	0.381569	-0.053855
C104	C	0.955030	0.314748	-0.051366
C105	C	1.019959	0.284396	-0.010731
C106	C	1.026722	0.320875	0.027411
C107	C	0.968556	0.387699	0.024918
C108	C	0.673833	0.411271	0.327259
C109	C	0.669297	0.349464	0.394095
C110	C	0.631193	0.315478	0.388135
C111	C	0.597617	0.343309	0.315333
C112	C	0.602149	0.405119	0.248498
C113	C	0.961286	0.405135	0.248465
C114	C	1.017374	0.343328	0.315287
C115	C	1.007029	0.315482	0.388097
C116	C	0.940590	0.349453	0.394084
C117	C	0.884503	0.411264	0.327263
C118	C	0.357316	0.992338	-0.300928
C119	C	0.301228	1.054165	-0.367750
C120	C	0.311573	1.082014	-0.440560
C121	C	0.378012	1.048039	-0.446547
C122	C	0.434099	0.986217	-0.379726
C123	C	0.421738	1.015901	0.001386
C124	C	0.363573	1.082740	-0.001121
C125	C	0.298644	1.113094	-0.041759
C126	C	0.291881	1.076612	-0.079898
C127	C	0.350046	1.009779	-0.077395
C128	C	0.716450	0.992335	-0.300942
C129	C	0.720996	1.054143	-0.367765
C130	C	0.687428	1.081989	-0.440573
C131	C	0.649317	1.048016	-0.446557
C132	C	0.644775	0.986204	-0.379733
H133	H	0.714033	0.285012	-0.082378
H134	H	0.386427	1.070722	-0.505837
N135	N	0.710950	0.574835	-0.479682
H136	H	0.730774	0.527276	-0.422651
H137	H	0.748948	0.569316	-0.504517
N138	N	-0.030766	0.862479	-0.114497
H139	H	0.017216	0.850526	-0.108053
H140	H	-0.056937	0.899835	-0.095158
H141	H	0.696642	0.326812	0.453367
N142	N	0.749274	-0.029578	-0.118545
H143	H	0.782999	-0.093847	-0.079904
H144	H	0.774702	-0.000152	-0.144677
H145	H	0.727869	0.534280	-0.225337
H146	H	0.574812	0.427765	0.189228
N147	N	1.067522	0.248810	0.460169
H148	H	1.097546	0.272073	0.459321
H149	H	1.094611	0.193385	0.462227
N150	N	0.589668	-0.016832	0.045224
H151	H	0.553913	-0.008015	0.008663
H152	H	0.566537	0.016427	0.069010
N153	N	0.105777	0.534990	0.062004
H154	H	0.098186	0.485086	0.088902
H155	H	0.131127	0.534511	0.101735
H156	H	0.348879	0.969666	-0.241648
N157	N	0.475354	0.534980	0.062019
H158	H	0.477931	0.503490	0.118461
H159	H	0.513335	0.546992	0.055523
H160	H	0.743889	0.101311	-0.113015
H161	H	0.704861	0.438936	0.332126
N162	N	1.089029	0.306675	0.308826
H163	H	1.115457	0.320251	0.333308
H164	H	1.087013	0.333700	0.252549
H165	H	0.969722	0.427797	0.189186
N166	N	0.594754	0.122080	0.040016
H167	H	0.569284	0.092715	0.066143
H168	H	0.561066	0.186348	0.001340
N169	N	0.556525	0.306644	0.308911
H170	H	0.558757	0.263262	0.362300
H171	H	0.575933	0.276741	0.281513
H172	H	0.621988	1.070697	-0.505846
N173	N	0.603656	0.949588	-0.386198
H174	H	0.605866	0.906206	-0.332822
H175	H	0.623054	0.919697	-0.413608
N176	N	0.929437	0.319415	0.472617
H177	H	0.975053	0.275102	0.514032
H178	H	0.901435	0.292192	0.479619
N179	N	0.975856	0.427031	0.066062
H180	H	1.025816	0.397656	0.092181
H181	H	0.950620	0.418477	0.106104
N182	N	0.826838	0.414294	-0.097686
H183	H	0.791009	0.462160	-0.093481
H184	H	0.818693	0.364861	-0.075089
N185	N	0.564245	0.288130	0.071308
H186	H	0.568333	0.240259	0.067111
H187	H	0.514876	0.337558	0.048716
H188	H	0.743785	0.969674	-0.241664
N189	N	0.812851	0.447890	0.333728
H190	H	0.814815	0.420864	0.389994
H191	H	0.786473	0.434303	0.309202
N192	N	0.229574	1.090800	-0.361282
H193	H	0.231536	1.063766	-0.305017
H194	H	0.203189	1.077231	-0.385821
N195	N	1.096754	0.288134	0.071237
H196	H	1.132570	0.240265	0.067027
H197	H	1.099573	0.264740	0.127360
N198	N	0.762104	1.090776	-0.361302
H199	H	0.782672	1.063759	-0.305038
H200	H	0.731293	1.155916	-0.388790
N201	N	0.692338	1.148649	-0.512644
H202	H	0.721576	1.165936	-0.497797
H203	H	0.645083	1.201652	-0.545659
H204	H	0.344528	0.980080	-0.108447
H205	H	-0.140067	0.841660	-0.103272
H206	H	0.229518	0.841652	-0.103251
H207	H	0.265897	1.132354	-0.494964
N208	N	0.235908	1.185174	-0.044454
H209	H	0.238641	1.238878	-0.068947
H210	H	0.233340	1.165989	0.009787
H211	H	0.949510	0.285055	-0.082427
H212	H	0.709925	0.577329	-0.673052
H213	H	0.239008	1.101337	-0.112984
N214	N	0.728934	0.414285	-0.097685
H215	H	0.752112	0.381027	-0.121461
H216	H	0.764651	0.405475	-0.061087
H217	H	0.616610	0.801138	-0.570059
H218	H	0.627509	0.265149	0.442563
H219	H	0.488189	0.958556	-0.384611
H220	H	0.348699	0.555807	0.050798
N221	N	0.491766	0.983171	0.045214
H222	H	0.494644	0.959746	0.101354
H223	H	0.499936	1.032587	0.022570
N224	N	1.082692	0.212322	-0.008046
H225	H	1.068548	0.193826	-0.038376
H226	H	1.108082	0.161069	0.047395
N227	N	0.740629	0.503694	-0.339309
H228	H	0.707264	0.498098	-0.364100
H229	H	0.760458	0.456192	-0.282266
N230	N	0.569330	0.427041	0.066088
H231	H	0.543860	0.397678	0.092218
H232	H	0.535644	0.491308	0.027409
H233	H	0.609388	0.191346	0.024982
N234	N	0.719689	0.214119	-0.088181
H235	H	0.755444	0.205309	-0.051626
H236	H	0.689333	0.278103	-0.130329
N237	N	0.599715	0.841612	-0.382127
H238	H	0.579891	0.889164	-0.439159
H239	H	0.633114	0.847127	-0.357289
H240	H	0.339484	0.841660	-0.103241
N241	N	0.370871	1.122086	0.040012
H242	H	0.393987	1.075397	0.097026
H243	H	0.324151	1.169043	0.032194
N244	N	-0.020220	0.534995	0.062009
H245	H	0.028985	0.485089	0.088902
H246	H	-0.042710	0.528616	0.025973
N247	N	0.604114	0.831178	-0.515819
H248	H	0.582334	0.883433	-0.512582
H249	H	0.567852	0.832561	-0.544392
H250	H	0.586939	0.872285	-0.710434
H251	H	0.590736	0.863177	-0.827125
H252	H	0.706135	0.586433	-0.556368
