data_functionalizedCrystal
_audit_creation_method	'MofGen! by Chris Wilmer'
_symmetry_space_group_name_H-M	'P1'
_symmetry_Int_Tables_number	1
_symmetry_cell_setting	triclinic
loop_
_symmetry_equiv_pos_as_xyz
  x,y,z
_cell_length_a	12.827892
_cell_length_b	18.215407
_cell_length_c	18.215399
_cell_angle_alpha	89.980167
_cell_angle_beta	89.976162
_cell_angle_gamma	90.015840
loop_
_atom_site_label
_atom_site_type_symbol
_atom_site_fract_x
_atom_site_fract_y
_atom_site_fract_z
Zn1	Zn	-0.416031	1.125121	-0.416137
Zn2	Zn	-0.590790	1.125049	-0.293079
Zn3	Zn	-0.416065	1.002053	-0.293084
Zn4	Zn	-0.590732	1.002039	-0.416104
O5	O	-0.503405	1.063566	-0.354601
O6	O	-0.439223	1.228095	-0.399825
O7	O	-0.567651	1.108710	-0.190096
O8	O	-0.269825	1.018414	-0.309423
O9	O	-0.567618	1.228043	-0.309415
O10	O	-0.269800	1.108831	-0.399829
O11	O	-0.439282	1.018345	-0.190099
O12	O	-0.439225	0.899067	-0.309392
O13	O	-0.567519	1.018390	-0.519093
O14	O	-0.567552	0.899057	-0.399774
O15	O	-0.439167	1.108818	-0.519117
O16	O	-0.737019	1.108696	-0.309383
O17	O	-0.736976	1.018321	-0.399769
C18	C	-0.503387	0.872359	-0.354580
C19	C	-0.503405	0.790560	-0.354589
C20	C	-0.774915	1.063520	-0.354588
C21	C	-0.891068	1.063567	-0.354607
C22	C	-0.570329	0.602380	-0.401592
C23	C	-0.570333	0.525522	-0.401601
C24	C	-0.436499	0.525503	-0.307627
C25	C	-0.436491	0.602360	-0.307622
C26	C	-0.503413	0.640797	-0.354603
C27	C	-0.503424	0.487081	-0.354617
C28	C	-0.503427	0.403747	-0.354627
C29	C	-0.503408	0.724136	-0.354595
C30	C	-0.942839	1.108341	-0.309931
C31	C	-1.062889	1.108391	-0.309950
C32	C	-0.230835	1.063632	-0.354630
C33	C	-0.114682	1.063660	-0.354643
C34	C	-0.503333	1.063610	-0.546554
C35	C	-0.503302	1.063629	-0.628353
C36	C	-0.503424	1.255518	-0.354623
C37	C	-0.503432	1.337317	-0.354632
C38	C	-0.436407	1.110732	-0.816561
C39	C	-0.436376	1.110741	-0.893420
C40	C	-0.570036	1.016579	-0.893383
C41	C	-0.570060	1.016567	-0.816526
C42	C	-0.503247	1.063648	-0.778117
C43	C	-0.503192	1.063668	-0.931833
C44	C	-0.503160	1.063678	-1.015167
C45	C	-0.503278	1.063638	-0.694778
C46	C	-0.503401	1.063563	-0.163395
C47	C	-0.503138	1.063687	-0.081597
H48	H	-0.624818	0.633674	-0.439849
C49	C	-0.364032	1.161928	-0.774818
C50	C	-0.423212	1.209094	-0.730708
C51	C	-0.356572	1.256270	-0.692253
H52	H	-0.318491	1.133863	-0.744778
H53	H	-0.324235	1.190013	-0.808700
H54	H	-0.462991	1.181012	-0.696830
H55	H	-0.468750	1.237175	-0.760730
H56	H	-0.316774	1.284355	-0.726135
H57	H	-0.311033	1.228199	-0.662217
H58	H	-0.396715	1.288282	-0.662325
C59	C	-0.643103	0.483945	-0.452644
C60	C	-0.701721	0.534060	-0.493771
C61	C	-0.768780	0.495787	-0.540795
H62	H	-0.603306	0.453981	-0.484825
H63	H	-0.688643	0.453959	-0.424457
H64	H	-0.656187	0.564034	-0.521956
H65	H	-0.741540	0.564026	-0.461609
H66	H	-0.814319	0.465801	-0.512608
H67	H	-0.728974	0.465825	-0.572972
H68	H	-0.808567	0.529784	-0.568701
C69	C	-0.642751	0.965417	-0.774914
C70	C	-0.701285	0.924207	-0.824999
C71	C	-0.768262	0.877089	-0.786692
H72	H	-0.602899	0.933292	-0.744928
H73	H	-0.688349	0.993540	-0.744946
H74	H	-0.655693	0.896087	-0.854954
H75	H	-0.741158	0.956314	-0.854986
H76	H	-0.813859	0.905212	-0.756725
H77	H	-0.728401	0.844968	-0.756708
H78	H	-0.807991	0.849127	-0.820669
C79	C	-0.363961	0.483637	-0.256647
C80	C	-0.378308	0.408105	-0.266694
C81	C	-0.311512	0.369517	-0.219736
H82	H	-0.293724	0.496159	-0.267455
H83	H	-0.379173	0.496167	-0.207165
H84	H	-0.363089	0.395580	-0.316165
H85	H	-0.448531	0.395561	-0.255881
H86	H	-0.326724	0.382048	-0.170254
H87	H	-0.241279	0.382046	-0.230548
H88	H	-0.321244	0.318265	-0.226542
C89	C	-0.363795	0.643942	-0.256521
C90	C	-0.305216	0.593833	-0.215360
C91	C	-0.238249	0.632112	-0.168277
H92	H	-0.318219	0.673945	-0.284644
H93	H	-0.403689	0.673890	-0.224369
H94	H	-0.265326	0.563897	-0.247508
H95	H	-0.350765	0.563829	-0.187222
H96	H	-0.278143	0.662060	-0.136124
H97	H	-0.192680	0.662113	-0.196405
H98	H	-0.198502	0.598118	-0.140338
C99	C	-0.950597	1.012622	-0.405673
C100	C	-1.013182	1.054330	-0.452839
C101	C	-1.068042	1.007423	-0.499886
H102	H	-0.902669	0.984508	-0.433770
H103	H	-0.993303	0.980630	-0.377492
H104	H	-0.970480	1.086309	-0.481018
H105	H	-1.061130	1.082443	-0.424762
H106	H	-1.110748	0.975431	-0.471705
H107	H	-1.020106	0.979311	-0.527978
H108	H	-1.110520	1.035715	-0.531889
H109	H	-1.107412	1.146721	-0.271699
C110	C	-0.883386	1.159282	-0.258818
C111	C	-0.820837	1.117571	-0.211630
C112	C	-0.766067	1.164474	-0.164526
H113	H	-0.840657	1.191301	-0.286934
H114	H	-0.931400	1.187367	-0.230746
H115	H	-0.772830	1.089499	-0.239698
H116	H	-0.863541	1.085554	-0.183497
H117	H	-0.814081	1.192558	-0.136454
H118	H	-0.723344	1.196490	-0.192649
H119	H	-0.723629	1.136180	-0.132499
H120	H	-0.381946	1.149080	-0.924717
C121	C	-0.642708	0.965593	-0.935127
C122	C	-0.709694	1.007257	-0.979234
C123	C	-0.776666	0.960315	-1.017689
H124	H	-0.602845	0.933527	-0.965169
H125	H	-0.682581	0.937561	-0.901245
H126	H	-0.669827	1.035277	-1.013111
H127	H	-0.749581	1.039321	-0.949209
H128	H	-0.816539	0.932283	-0.983807
H129	H	-0.736794	0.928251	-1.047727
H130	H	-0.822130	0.988577	-1.047615
H131	H	-1.070167	1.025323	-0.392891
