data_functionalizedCrystal
_audit_creation_method	'MofGen! by Chris Wilmer'
_symmetry_space_group_name_H-M	'P1'
_symmetry_Int_Tables_number	1
_symmetry_cell_setting	triclinic
loop_
_symmetry_equiv_pos_as_xyz
  x,y,z
_cell_length_a	19.188930
_cell_length_b	18.266242
_cell_length_c	11.792254
_cell_angle_alpha	90.005270
_cell_angle_beta	83.671689
_cell_angle_gamma	90.022820
loop_
_atom_site_label
_atom_site_type_symbol
_atom_site_fract_x
_atom_site_fract_y
_atom_site_fract_z
O1	O	0.926956	0.061117	0.141692
O2	O	0.723753	0.061067	0.160767
O3	O	0.830281	0.061088	-0.014014
O4	O	0.820428	0.061096	0.316473
O5	O	0.830263	-0.060674	-0.014019
O6	O	0.723735	-0.060695	0.160762
O7	O	0.926938	-0.060645	0.141688
Zn8	Zn	0.825333	-0.080003	0.151224
Zn9	Zn	0.825357	0.080424	0.151230
O10	O	0.820410	-0.060666	0.316468
C11	C	0.697729	0.000179	0.160147
C12	C	0.620214	0.000160	0.158292
N13	N	0.825322	-0.189490	0.151219
C14	C	0.575874	0.000174	0.260848
C15	C	0.503041	0.000182	0.259106
C16	C	0.474550	0.000191	0.154803
C17	C	0.518900	0.000173	0.052234
C18	C	0.591732	0.000157	0.053979
N19	N	0.366122	0.041659	0.075077
N20	N	0.296934	0.041675	0.073427
C21	C	0.255112	0.000235	0.149539
N22	N	0.285089	-0.041212	0.227381
N23	N	0.354283	-0.041225	0.229035
C24	C	0.395577	0.000207	0.152899
C25	C	0.131796	0.000257	0.250213
C26	C	0.058962	0.000260	0.248466
C27	C	0.074823	0.000258	0.041591
C28	C	0.147656	0.000248	0.043340
C29	C	0.176138	0.000250	0.147654
C30	C	0.867922	-0.227779	0.219890
C31	C	0.867934	-0.304424	0.219887
C32	C	0.825332	-0.342776	0.151226
C33	C	0.782729	-0.304477	0.082541
C34	C	0.782724	-0.227834	0.082537
N35	N	0.764168	-0.463144	0.148430
N36	N	0.764175	-0.535952	0.148439
C37	C	0.825346	-0.573699	0.151230
N38	N	0.886511	-0.535887	0.154032
N39	N	0.886503	-0.463072	0.154029
C40	C	0.825333	-0.425883	0.151221
C41	C	0.867962	-0.695096	0.219901
C42	C	0.867975	-0.771742	0.219890
C43	C	0.782765	-0.771794	0.082550
C44	C	0.782758	-0.695149	0.082555
C45	C	0.825356	-0.656804	0.151237
C46	C	0.952961	0.000244	0.142308
C47	C	1.030476	0.000268	0.144162
C48	C	0.829651	0.000207	-0.056298
C49	C	0.827793	0.000207	-0.182283
N50	N	0.825374	0.189911	0.151226
C51	C	0.826284	0.000209	-0.284597
C52	C	0.824397	0.000216	-0.412955
C53	C	0.821039	0.000216	0.358752
C54	C	0.822897	0.000221	0.484737
H55	H	0.599059	0.000178	0.345788
N56	N	0.911491	-0.655915	0.290013
N57	N	0.957472	-0.613128	0.245485
H58	H	0.988216	-0.585454	0.294996
N59	N	0.739224	-0.656030	0.012440
N60	N	0.693231	-0.613285	0.056954
H61	H	0.662483	-0.585657	0.007433
N62	N	0.457747	0.000192	0.363879
N63	N	0.483187	0.000191	0.457004
H64	H	0.451201	0.000198	0.531002
N65	N	0.045728	0.000281	-0.064952
N66	N	0.059196	0.051606	-0.134010
H67	H	0.038645	0.051621	-0.209259
H68	H	0.902670	-0.802917	0.275806
H69	H	0.748044	-0.335708	0.026635
N70	N	0.911456	-0.343536	0.290039
N71	N	0.949487	-0.309292	0.351350
H72	H	0.980226	-0.336912	0.400897
H73	H	0.748079	-0.803019	0.026644
H74	H	0.495699	0.000190	-0.032691
N75	N	0.637019	0.000139	-0.050795
N76	N	0.611577	0.000140	-0.143919
H77	H	0.643561	0.000128	-0.217918
N78	N	0.192943	0.000236	-0.061430
N79	N	0.167499	0.000240	-0.154552
H80	H	0.199483	0.000229	-0.228552
H81	H	0.154988	0.000248	0.335151
H82	H	0.022860	0.000268	0.331983
N83	N	0.911426	-0.188625	0.290068
N84	N	0.949453	-0.222828	0.351389
H85	H	0.980176	-0.195174	0.400960
N86	N	0.739207	-0.188729	0.012374
N87	N	0.701179	-0.222976	-0.048938
H88	H	0.670444	-0.195358	-0.098493
