data_functionalizedCrystal
_audit_creation_method	'MofGen! by Chris Wilmer'
_symmetry_space_group_name_H-M	'P1'
_symmetry_Int_Tables_number	1
_symmetry_cell_setting	triclinic
loop_
_symmetry_equiv_pos_as_xyz
  x,y,z
_cell_length_a	17.077404
_cell_length_b	12.759394
_cell_length_c	17.077396
_cell_angle_alpha	89.975378
_cell_angle_beta	89.980499
_cell_angle_gamma	90.014081
loop_
_atom_site_label
_atom_site_type_symbol
_atom_site_fract_x
_atom_site_fract_y
_atom_site_fract_z
Zn1	Zn	1.200104	-0.418260	-0.443864
Zn2	Zn	1.200032	-0.593961	-0.312607
Zn3	Zn	1.068836	-0.418297	-0.312612
Zn4	Zn	1.068824	-0.593898	-0.443830
O5	O	1.134449	-0.506104	-0.378228
O6	O	1.309941	-0.441578	-0.426464
O7	O	1.182603	-0.570700	-0.202760
O8	O	1.086284	-0.271271	-0.330039
O9	O	1.309888	-0.570664	-0.330030
O10	O	1.182726	-0.271244	-0.426469
O11	O	1.086214	-0.441641	-0.202764
O12	O	0.958987	-0.441580	-0.330006
O13	O	1.086264	-0.570558	-0.553682
O14	O	0.958979	-0.570594	-0.426412
O15	O	1.182715	-0.441517	-0.553706
O16	O	1.182592	-0.740974	-0.329998
O17	O	1.086194	-0.740928	-0.426407
C18	C	0.930501	-0.506085	-0.378206
C19	C	0.843251	-0.506102	-0.378216
C20	C	0.802277	-0.573381	-0.428334
C21	C	0.720297	-0.573383	-0.428346
C22	C	0.679292	-0.506111	-0.378236
C23	C	0.720272	-0.438825	-0.328116
C24	C	0.802250	-0.438818	-0.328108
C25	C	0.549401	-0.438846	-0.328135
C26	C	0.467417	-0.438854	-0.328142
C27	C	0.467448	-0.573411	-0.428373
C28	C	0.549427	-0.573404	-0.428365
C29	C	0.590401	-0.506119	-0.378244
C30	C	1.134405	-0.779072	-0.378215
C31	C	1.134458	-0.895848	-0.378236
C32	C	1.234809	-0.895662	-0.478724
C33	C	1.285008	-0.950429	-0.528974
C34	C	1.285055	-1.060151	-0.528991
C35	C	1.234895	-1.115108	-0.478754
C36	C	1.184695	-1.060340	-0.428504
C37	C	1.184655	-0.950616	-0.428491
C38	C	1.084342	-1.060526	-0.328021
C39	C	1.084298	-0.950805	-0.327999
C40	C	1.034182	-1.115483	-0.277784
C41	C	0.983985	-1.060715	-0.227529
C42	C	0.983941	-0.950987	-0.227514
C43	C	1.034098	-0.896037	-0.277749
C44	C	1.339193	-0.506124	-0.378250
C45	C	1.426443	-0.506132	-0.378260
C46	C	1.134496	-0.506027	-0.582972
C47	C	1.134517	-0.505994	-0.670222
C48	C	1.134514	-0.232071	-0.378258
C49	C	1.134542	-0.115294	-0.378271
C50	C	1.184740	-0.438797	-0.711227
C51	C	1.184750	-0.438762	-0.793207
C52	C	1.134539	-0.505930	-0.834182
C53	C	1.084310	-0.573130	-0.793172
C54	C	1.084297	-0.573159	-0.711193
C55	C	1.084341	-0.573067	-0.964042
C56	C	1.084355	-0.573039	-1.046027
C57	C	1.184794	-0.438670	-1.046056
C58	C	1.184781	-0.438698	-0.964077
C59	C	1.134553	-0.505900	-0.923073
C60	C	1.134447	-0.506105	-0.174280
C61	C	1.134579	-0.505842	-0.087031
H62	H	0.835658	-0.628165	-0.469136
Cl63	Cl	1.021184	-0.657567	-0.844683
H64	H	0.686939	-0.628169	-0.469157
Cl65	Cl	1.247909	-0.354264	-0.912567
Cl66	Cl	1.247926	-0.354328	-0.844752
Cl67	Cl	0.920927	-1.129808	-0.164389
H68	H	0.943059	-0.906401	-0.186597
H69	H	1.325847	-0.905674	-0.569878
Cl70	Cl	0.600975	-0.657983	-0.491356
H71	H	1.034220	-1.204824	-0.277805
Cl72	Cl	1.234743	-0.757725	-0.478717
H73	H	0.434033	-0.384062	-0.287347
Cl74	Cl	0.415938	-0.657983	-0.491394
H75	H	1.034071	-0.806696	-0.277738
H76	H	1.043467	-0.627731	-1.079386
H77	H	1.325924	-1.104743	-0.569917
H78	H	1.234930	-1.204449	-0.478779
Cl79	Cl	1.247870	-0.354357	-0.659724
H80	H	1.043392	-0.627867	-0.677808
Cl81	Cl	1.247939	-0.354189	-1.097604
Cl82	Cl	1.021195	-0.657549	-0.912495
H83	H	0.686879	-0.384047	-0.287319
Cl84	Cl	0.853761	-0.354233	-0.265102
Cl85	Cl	0.600910	-0.354257	-0.265124
