data_functionalizedCrystal
_audit_creation_method	'MofGen! by Chris Wilmer'
_symmetry_space_group_name_H-M	'P1'
_symmetry_Int_Tables_number	1
_symmetry_cell_setting	triclinic
loop_
_symmetry_equiv_pos_as_xyz
  x,y,z
_cell_length_a	12.837943
_cell_length_b	17.038272
_cell_length_c	11.295483
_cell_angle_alpha	94.391706
_cell_angle_beta	85.461227
_cell_angle_gamma	92.970248
loop_
_atom_site_label
_atom_site_type_symbol
_atom_site_fract_x
_atom_site_fract_y
_atom_site_fract_z
O1	O	1.400057	0.199823	-0.099006
O2	O	1.097361	0.189716	-0.099013
O3	O	1.246909	0.080820	-0.099000
O4	O	1.250509	0.308719	-0.099019
O5	O	1.233773	0.090368	0.099049
O6	O	1.084224	0.199264	0.099036
O7	O	1.386921	0.209371	0.099043
Cu8	Cu	1.234373	0.205189	0.117123
Cu9	Cu	1.249908	0.193897	-0.117093
O10	O	1.237372	0.318267	0.099030
C11	C	1.051871	0.191076	0.000011
C12	C	0.935896	0.180893	0.000008
C13	C	0.705733	0.303310	0.000015
C14	C	0.596764	0.293746	0.000014
C15	C	0.608986	0.152201	0.000013
C16	C	0.717955	0.161765	0.000014
C17	C	0.766324	0.237322	0.000014
C18	C	0.875296	0.246885	0.000007
C19	C	0.887516	0.105342	0.000014
C20	C	0.778546	0.095777	0.000013
C21	C	1.237069	0.056221	0.000024
C22	C	1.227305	-0.031301	0.000024
C23	C	1.316945	-0.074719	0.000027
C24	C	1.307766	-0.156956	0.000015
C25	C	1.208945	-0.195773	0.000009
C26	C	1.119299	-0.152349	0.000002
C27	C	1.128480	-0.070114	0.000005
C28	C	1.176511	-0.443954	-0.000008
C29	C	1.167337	-0.526195	-0.000007
C30	C	1.355805	-0.530796	0.000004
C31	C	1.364977	-0.448559	0.000014
C32	C	1.275331	-0.405143	0.000001
C33	C	1.199560	-0.279832	0.000001
C34	C	1.284718	-0.321086	0.000000
C35	C	1.432411	0.208011	0.000017
C36	C	1.548386	0.218194	0.000011
C37	C	1.247213	0.342865	0.000003
C38	C	1.256977	0.430387	-0.000004
N39	N	1.223454	0.213132	0.281859
N40	N	1.260835	0.185950	-0.281829
C41	C	1.339435	0.128734	0.531158
C42	C	1.331191	0.134742	0.655821
C43	C	1.198717	0.231151	0.655850
C44	C	1.206961	0.225143	0.531187
C45	C	1.277323	0.173934	0.468845
C46	C	1.285572	0.167930	0.344180
C47	C	1.153093	0.264335	0.344211
C48	C	1.144849	0.270343	0.468874
H49	H	1.397415	-0.043120	0.000039
C50	C	0.953164	0.033632	0.000198
C51	C	0.923575	-0.006496	0.102074
C52	C	0.984019	-0.072562	0.102270
H53	H	1.025012	0.050042	0.000257
H54	H	0.942373	-0.000383	-0.068831
H55	H	0.934375	0.027512	0.171085
H56	H	0.851738	-0.022925	0.102037
H57	H	0.973228	-0.106577	0.033240
H58	H	1.055863	-0.056145	0.102325
H59	H	0.963945	-0.099801	0.171385
H60	H	1.141422	0.272839	0.706625
C61	C	1.415853	0.073067	0.463680
C62	C	1.468472	0.034757	0.544935
C63	C	1.538868	-0.016536	0.482820
H64	H	1.465091	0.102206	0.415032
H65	H	1.378666	0.035108	0.415085
H66	H	1.505658	0.072711	0.593509
H67	H	1.419262	0.005603	0.593585
H68	H	1.501681	-0.054496	0.434225
H69	H	1.588099	0.012609	0.434174
H70	H	1.574572	-0.042541	0.537941
H71	H	1.086860	-0.557796	0.000007
C72	C	0.758057	0.385406	0.000066
C73	C	0.681668	0.441152	0.000088
C74	C	0.729827	0.516788	0.000150
H75	H	0.804886	0.388859	-0.068979
H76	H	0.795704	0.395451	0.069158
H77	H	0.644038	0.431110	-0.068997
H78	H	0.634834	0.437724	0.069129
H79	H	0.767473	0.526833	0.069242
H80	H	0.776655	0.520232	-0.068897
H81	H	0.678004	0.554621	0.000176
H82	H	1.055485	-0.034764	0.000002
H83	H	1.119099	-0.311445	-0.000001
H84	H	0.547433	0.347481	0.000019
H85	H	0.914677	0.308407	0.000008
C86	C	1.405210	-0.203953	0.000089
C87	C	1.493714	-0.152355	0.000137
C88	C	1.583501	-0.195619	0.000221
H89	H	1.410283	-0.239460	-0.068957
H90	H	1.401015	-0.232785	0.069180
H91	H	1.497910	-0.123536	-0.068947
H92	H	1.488677	-0.116847	0.069178
H93	H	1.579306	-0.224452	0.069312
H94	H	1.588563	-0.231125	-0.068826
H95	H	1.643561	-0.160616	0.000265
C96	C	1.068562	0.325926	0.536780
C97	C	1.074651	0.321528	0.659293
C98	C	1.004402	0.372730	0.721881
H99	H	0.999465	0.311238	0.516510
H100	H	1.085890	0.378336	0.516414
H101	H	1.057316	0.269129	0.679650
H102	H	1.143732	0.336222	0.679598
H103	H	1.021730	0.425141	0.701515
H104	H	0.935310	0.358038	0.701601
H105	H	1.008531	0.369759	0.805012
H106	H	0.569577	0.090691	0.000112
H107	H	0.739148	0.034262	0.000027
H108	H	1.445447	-0.416960	0.000019
C109	C	1.085778	0.313554	0.276623
C110	C	1.107541	0.393620	0.306928
C111	C	1.045566	0.438987	0.244681
H112	H	1.013998	0.300879	0.297017
H113	H	1.100773	0.302701	0.193437
H114	H	1.092538	0.404469	0.390096
H115	H	1.179309	0.406320	0.286531
H116	H	1.060561	0.428133	0.161494
H117	H	0.973790	0.426305	0.265080
H118	H	1.060330	0.493316	0.265225
H119	H	1.428789	-0.566154	0.000012
H120	H	1.103515	-0.408614	-0.000018
H121	H	1.038837	-0.183960	-0.000010
H122	H	1.365179	-0.289479	-0.000021
H123	H	1.342867	0.126235	0.293423
H124	H	1.381767	0.097934	0.706553
