data_functionalizedCrystal
_audit_creation_method	'MofGen! by Chris Wilmer'
_symmetry_space_group_name_H-M	'P1'
_symmetry_Int_Tables_number	1
_symmetry_cell_setting	triclinic
loop_
_symmetry_equiv_pos_as_xyz
  x,y,z
_cell_length_a	15.500227
_cell_length_b	14.519731
_cell_length_c	14.519709
_cell_angle_alpha	83.684499
_cell_angle_beta	92.832432
_cell_angle_gamma	87.149950
loop_
_atom_site_label
_atom_site_type_symbol
_atom_site_fract_x
_atom_site_fract_y
_atom_site_fract_z
O1	O	-0.071948	1.228138	0.116711
O2	O	0.261386	1.561472	0.450044
O3	O	0.594719	1.894805	0.783377
O4	O	-0.071949	0.959664	0.130927
O5	O	0.261384	1.292998	0.464260
O6	O	0.594717	1.626331	0.797593
O7	O	-0.071941	1.101019	-0.010419
O8	O	0.261393	1.434352	0.322914
O9	O	0.594726	1.767686	0.656248
O10	O	-0.071956	1.086784	0.258056
O11	O	0.261377	1.420117	0.591389
O12	O	0.594710	1.753450	0.924723
O13	O	0.071947	1.092441	-0.001875
O14	O	0.405281	1.425775	0.331458
O15	O	0.738614	1.759108	0.664791
O16	O	0.071939	0.951086	0.139470
O17	O	0.405272	1.284420	0.472803
O18	O	0.738605	1.617753	0.806137
O19	O	0.071940	1.219561	0.125254
O20	O	0.405274	1.552894	0.458587
O21	O	0.738607	1.886227	0.791921
Cu22	Cu	0.085078	1.084540	0.133142
Cu23	Cu	0.418411	1.417874	0.466475
Cu24	Cu	0.751744	1.751207	0.799809
Cu25	Cu	-0.085087	1.094685	0.123038
Cu26	Cu	0.248247	1.428018	0.456372
Cu27	Cu	0.581580	1.761351	0.789705
O28	O	0.071932	1.078206	0.266600
O29	O	0.405265	1.411539	0.599933
O30	O	0.738598	1.744872	0.933266
C31	C	-0.000005	0.921016	0.134532
C32	C	0.333328	1.254349	0.467865
C33	C	0.666661	1.587683	0.801199
C34	C	-0.000006	0.818636	0.132536
C35	C	0.333328	1.151969	0.465869
C36	C	0.666661	1.485302	0.799203
N37	N	0.204762	1.077412	0.140248
N38	N	0.538096	1.410745	0.473581
N39	N	0.871429	1.744079	0.806915
N40	N	-0.204771	1.101820	0.115925
N41	N	0.128562	1.435153	0.449259
N42	N	0.461895	1.768487	0.782592
C43	C	-0.000009	0.735492	0.130914
C44	C	0.333324	1.068825	0.464247
C45	C	0.666658	1.402158	0.797581
C46	C	-0.000009	0.631183	0.128887
C47	C	0.333324	0.964516	0.462221
C48	C	0.666657	1.297850	0.795554
C49	C	-0.000009	0.548044	0.127279
C50	C	0.333324	0.881377	0.460612
C51	C	0.666658	1.214711	0.793946
C52	C	-0.000011	0.443729	0.125252
C53	C	0.333322	0.777062	0.458586
C54	C	0.666656	1.110395	0.791919
C55	C	0.250043	1.137330	0.080377
C56	C	0.583376	1.470663	0.413710
C57	C	0.916709	1.803997	0.747044
C58	C	0.340615	1.131947	0.085760
C59	C	0.673948	1.465281	0.419093
C60	C	1.007282	1.798614	0.752426
C61	C	0.385906	1.066651	0.151018
C62	C	0.719239	1.399984	0.484351
C63	C	1.052572	1.733318	0.817685
C64	C	0.340619	1.006727	0.210892
C65	C	0.673952	1.340060	0.544225
C66	C	1.007286	1.673393	0.877558
C67	C	0.250048	1.012105	0.205504
C68	C	0.583381	1.345439	0.538837
C69	C	0.916715	1.678772	0.872171
C70	C	0.659371	1.047275	0.170411
C71	C	0.992705	1.380608	0.503745
C72	C	1.326038	1.713941	0.837078
C73	C	0.749949	1.041902	0.175796
C74	C	1.083282	1.375236	0.509130
C75	C	1.416615	1.708569	0.842463
C76	C	0.749938	1.167122	0.050662
C77	C	1.083272	1.500456	0.383996
C78	C	1.416605	1.833789	0.717329
C79	C	0.659366	1.172499	0.045284
C80	C	0.992699	1.505832	0.378618
C81	C	1.326032	1.839166	0.711951
C82	C	0.614087	1.112572	0.105155
C83	C	0.947420	1.445905	0.438488
C84	C	1.280754	1.779238	0.771821
C85	C	0.478485	1.061150	0.156523
C86	C	0.811819	1.394483	0.489857
C87	C	1.145152	1.727816	0.823190
C88	C	0.521509	1.118069	0.099644
C89	C	0.854842	1.451403	0.432977
C90	C	1.188176	1.784736	0.766311
C91	C	0.000004	1.096067	-0.040507
C92	C	0.333337	1.429400	0.292826
C93	C	0.666670	1.762733	0.626160
C94	C	0.000004	1.094078	-0.142888
C95	C	0.333337	1.427412	0.190445
C96	C	0.666671	1.760745	0.523778
C97	C	-0.000005	1.258209	0.121648
C98	C	0.333328	1.591542	0.454982
C99	C	0.666661	1.924876	0.788315
C100	C	-0.000011	1.360590	0.123644
C101	C	0.333323	1.693923	0.456977
C102	C	0.666656	2.027256	0.790311
C103	C	-0.000019	1.086760	-0.517786
C104	C	0.333315	1.420094	-0.184453
C105	C	0.666648	1.753427	0.148881
C106	C	-0.000012	1.088793	-0.413478
C107	C	0.333321	1.422126	-0.080144
C108	C	0.666655	1.755459	0.253189
C109	C	-0.000006	1.090419	-0.330340
C110	C	0.333327	1.423752	0.002993
C111	C	0.666660	1.757086	0.336326
C112	C	-0.000002	1.092452	-0.226025
C113	C	0.333332	1.425785	0.107308
C114	C	0.666665	1.759119	0.440641
C115	C	-0.000014	1.083158	0.296687
C116	C	0.333319	1.416492	0.630021
C117	C	0.666652	1.749825	0.963354
C118	C	-0.000021	1.085147	0.399069
C119	C	0.333313	1.418480	0.732402
C120	C	0.666646	1.751814	1.065735
H121	H	0.213173	1.190505	0.027241
H122	H	0.546506	1.523838	0.360574
H123	H	0.879840	1.857172	0.693907
Cl124	Cl	0.397540	1.207273	0.010491
Cl125	Cl	0.730874	1.540606	0.343825
Cl126	Cl	1.064207	1.873940	0.677158
H127	H	0.622492	1.225669	-0.007854
H128	H	0.955825	1.559002	0.325479
H129	H	1.289159	1.892335	0.658812
H130	H	0.515368	1.007985	0.209660
H131	H	0.848702	1.341319	0.542993
H132	H	1.182035	1.674652	0.876327
Cl133	Cl	0.806864	1.242452	-0.024602
Cl134	Cl	1.140197	1.575785	0.308731
Cl135	Cl	1.473531	1.909118	0.642065
Cl136	Cl	0.193125	0.936773	0.280771
Cl137	Cl	0.526458	1.270106	0.614104
Cl138	Cl	0.859792	1.603440	0.947438
H139	H	0.484631	1.171231	0.046507
H140	H	0.817964	1.504564	0.379841
H141	H	1.151297	1.837897	0.713174
H142	H	0.786820	0.988727	0.228941
H143	H	1.120153	1.322061	0.562275
H144	H	1.453487	1.655394	0.895608
Cl145	Cl	0.602456	0.971943	0.245678
Cl146	Cl	0.935789	1.305276	0.579012
Cl147	Cl	1.269122	1.638610	0.912345
H148	H	0.377500	0.953556	0.264024
H149	H	0.710833	1.286889	0.597357
H150	H	1.044166	1.620223	0.930690
