data_functionalizedCrystal
_audit_creation_method	'MofGen! by Chris Wilmer'
_symmetry_space_group_name_H-M	'P1'
_symmetry_Int_Tables_number	1
_symmetry_cell_setting	triclinic
loop_
_symmetry_equiv_pos_as_xyz
  x,y,z
_cell_length_a	10.654562
_cell_length_b	15.944551
_cell_length_c	9.730223
_cell_angle_alpha	89.996242
_cell_angle_beta	89.992740
_cell_angle_gamma	83.994421
loop_
_atom_site_label
_atom_site_type_symbol
_atom_site_fract_x
_atom_site_fract_y
_atom_site_fract_z
O1	O	1.666305	0.118025	-0.114384
O2	O	1.300683	0.129254	-0.114367
O3	O	1.493479	0.001423	-0.114363
O4	O	1.473510	0.245856	-0.114387
O5	O	1.493461	0.001423	0.114217
O6	O	1.300666	0.129254	0.114213
O7	O	1.666288	0.118026	0.114196
Zn8	Zn	1.483474	0.123640	0.150497
Zn9	Zn	1.483497	0.123639	-0.150667
O10	O	1.473493	0.245857	0.114193
C11	C	1.253888	0.128427	-0.000075
C12	C	1.114477	0.125954	-0.000068
C13	C	1.048952	0.124801	0.124521
C14	C	0.917960	0.122483	0.124498
C15	C	0.918029	0.122476	-0.124713
C16	C	1.049020	0.124788	-0.124688
C17	C	1.048911	0.124808	0.268400
C18	C	0.917918	0.122491	0.268378
C19	C	1.492641	-0.029876	-0.000073
C20	C	1.490156	-0.123136	-0.000072
C21	C	1.364712	-0.338723	-0.000085
C22	C	1.422955	-0.399401	0.112616
C23	C	1.485660	-0.293888	-0.000082
C24	C	1.423001	-0.399385	-0.112746
C25	C	1.481308	-0.458826	-0.000098
C26	C	1.543936	-0.353338	0.112712
C27	C	1.543965	-0.353316	-0.112752
C28	C	1.602296	-0.413976	-0.000023
C29	C	1.488163	-0.198872	-0.000072
C30	C	1.478814	-0.553842	-0.000099
C31	C	1.713084	0.118852	-0.000099
C32	C	1.852494	0.121325	-0.000115
C33	C	1.474330	0.277155	-0.000100
C34	C	1.476816	0.370416	-0.000110
N35	N	1.483468	0.123640	0.356033
N36	N	1.483513	0.123632	-0.356204
C37	C	1.398088	0.180219	0.427993
C38	C	1.398113	0.180217	0.571876
C39	C	1.568903	0.067051	0.571827
C40	C	1.568883	0.067058	0.427946
C41	C	1.299479	0.245552	0.428022
C42	C	1.299505	0.245550	0.571905
H43	H	0.870877	0.180541	0.323608
H44	H	1.077689	0.186068	0.313038
H45	H	1.264320	-0.305999	0.000032
H46	H	0.889119	0.061232	0.313030
H47	H	1.371792	-0.419807	0.207900
Cl48	Cl	1.345407	0.339737	0.640797
H49	H	1.208555	0.225093	0.383423
Cl50	Cl	1.622890	-0.321773	-0.259872
Cl51	Cl	1.622844	-0.322020	0.259978
H52	H	1.702777	-0.446550	0.000036
Cl53	Cl	1.121495	0.035190	0.353713
H54	H	1.371836	-0.419760	-0.208033
Cl55	Cl	1.676237	-0.004060	0.337481
Cl56	Cl	1.676276	-0.004077	0.662240
Cl57	Cl	1.331281	0.345233	0.367717
H58	H	1.102368	0.125714	-0.226140
Cl59	Cl	0.835732	0.121000	-0.281370
Cl60	Cl	1.150801	0.223325	0.632252
