data_functionalizedCrystal
_audit_creation_method	'MofGen! by Chris Wilmer'
_symmetry_space_group_name_H-M	'P1'
_symmetry_Int_Tables_number	1
_symmetry_cell_setting	triclinic
loop_
_symmetry_equiv_pos_as_xyz
  x,y,z
_cell_length_a	18.101398
_cell_length_b	11.169416
_cell_length_c	11.169409
_cell_angle_alpha	90.030874
_cell_angle_beta	89.971502
_cell_angle_gamma	89.994393
loop_
_atom_site_label
_atom_site_type_symbol
_atom_site_fract_x
_atom_site_fract_y
_atom_site_fract_z
Zn1	Zn	1.132258	0.477861	-0.678833
Zn2	Zn	1.632258	0.977861	-0.178833
Zn3	Zn	1.132190	0.678602	-0.478155
Zn4	Zn	1.632190	1.178602	0.021845
Zn5	Zn	1.008408	0.477915	-0.478137
Zn6	Zn	1.508408	0.977915	0.021863
Zn7	Zn	1.008413	0.678485	-0.678769
Zn8	Zn	1.508413	1.178485	-0.178769
O9	O	1.070317	0.578216	-0.578473
O10	O	1.570317	1.078216	-0.078473
O11	O	1.235882	0.504517	-0.652246
O12	O	1.735882	1.004517	-0.152246
O13	O	1.115740	0.652052	-0.310202
O14	O	1.615740	1.152052	0.189798
O15	O	1.024864	0.309958	-0.504778
O16	O	1.524864	0.809958	-0.004778
O17	O	1.235832	0.652000	-0.504809
O18	O	1.735832	1.152000	-0.004809
O19	O	1.115856	0.309919	-0.652229
O20	O	1.615856	0.809919	-0.152229
O21	O	1.024798	0.504608	-0.310189
O22	O	1.524798	1.004608	0.189811
O23	O	0.904776	0.504494	-0.504717
O24	O	1.404776	1.004494	-0.004717
O25	O	1.024872	0.651800	-0.846727
O26	O	1.524872	1.151800	-0.346727
O27	O	0.904779	0.651852	-0.652121
O28	O	1.404779	1.151852	-0.152121
O29	O	1.115861	0.504403	-0.846774
O30	O	1.615861	1.004403	-0.346774
O31	O	1.115744	0.846536	-0.504748
O32	O	1.615744	1.346536	-0.004748
O33	O	1.024806	0.846450	-0.652138
O34	O	1.524806	1.346450	-0.152138
C35	C	0.877907	0.578167	-0.578411
C36	C	1.377907	1.078167	-0.078411
C37	C	0.795593	0.578175	-0.578412
C38	C	1.295593	1.078175	-0.078412
C39	C	1.070288	0.890040	-0.578464
C40	C	1.570288	1.390040	-0.078464
C41	C	1.070343	1.023440	-0.578500
C42	C	1.570343	1.523440	-0.078500
C43	C	1.070374	0.578082	-0.891516
C44	C	1.570374	1.078082	-0.391516
C45	C	1.070399	0.578026	-1.024916
C46	C	1.570399	1.078026	-0.524916
C47	C	0.496502	0.578250	-0.578513
C48	C	0.996502	1.078250	-0.078513
C49	C	0.527800	0.485073	-0.486223
C50	C	1.027800	0.985073	0.013777
C51	C	0.613418	0.485323	-0.485829
C52	C	1.113418	0.985323	0.014171
C53	C	0.644884	0.578212	-0.578463
C54	C	1.144884	1.078212	-0.078463
C55	C	0.613793	0.704644	-0.543918
C56	C	1.113793	1.204644	-0.043918
C57	C	0.528148	0.704127	-0.543277
C58	C	1.028148	1.204127	-0.043277
C59	C	0.528115	0.546093	-0.705565
C60	C	1.028115	1.046093	-0.205565
C61	C	0.613765	0.543278	-0.704872
C62	C	1.113765	1.043278	-0.204872
C63	C	0.728744	0.578198	-0.578437
C64	C	1.228744	1.078198	-0.078437
C65	C	0.412642	0.578272	-0.578536
C66	C	0.912642	1.078272	-0.078536
C67	C	1.263479	0.578265	-0.578537
C68	C	1.763479	1.078265	-0.078537
C69	C	1.345793	0.578287	-0.578564
C70	C	1.845793	1.078287	-0.078564
C71	C	1.070367	0.265173	-0.578509
C72	C	1.570367	0.765173	-0.078509
C73	C	1.070388	0.131773	-0.578524
C74	C	1.570388	0.631773	-0.078524
C75	C	1.070303	0.578262	-0.266649
C76	C	1.570303	1.078262	0.233351
C77	C	1.070423	0.577981	-0.133249
C78	C	1.570423	1.077981	0.366751
H79	H	0.634439	0.391568	-0.507481
H80	H	1.134439	0.891568	-0.007481
N81	N	0.640663	0.739436	-0.428658
N82	N	1.140663	1.239436	0.071342
N83	N	0.682701	0.671335	-0.371758
N84	N	1.182701	1.171335	0.128242
H85	H	0.701678	0.695900	-0.290352
H86	H	1.201678	1.195900	0.209648
N87	N	0.500772	0.511408	-0.368797
N88	N	1.000772	1.011408	0.131203
N89	N	0.519368	0.447322	-0.282192
N90	N	1.019368	0.947322	0.217808
H91	H	0.500276	0.465920	-0.199260
H92	H	1.000276	0.965920	0.300740
N93	N	0.503052	0.738339	-0.426757
N94	N	1.003052	1.238339	0.073243
N95	N	0.548790	0.762429	-0.346475
N96	N	1.048790	1.262429	0.153525
H97	H	0.531070	0.786592	-0.264179
H98	H	1.031070	1.286592	0.235821
H99	H	0.507210	0.391032	-0.507636
H100	H	1.007210	0.891032	-0.007636
H101	H	0.506524	0.455502	-0.736976
H102	H	1.006524	0.955502	-0.236976
H103	H	0.507445	0.775902	-0.607566
H104	H	1.007445	1.275902	-0.107566
H105	H	0.633872	0.506583	-0.391684
H106	H	1.133872	1.006583	0.108316
H107	H	0.634176	0.775929	-0.609035
H108	H	1.134176	1.275929	-0.109035
N109	N	0.639260	0.426556	-0.737536
N110	N	1.139260	0.926556	-0.237536
N111	N	0.680199	0.369244	-0.668043
N112	N	1.180199	0.869244	-0.168043
H113	H	0.698210	0.286807	-0.691108
H114	H	1.198210	0.786807	-0.191108
N115	N	0.640591	0.622278	-0.795733
N116	N	1.140591	1.122278	-0.295733
N117	N	0.683271	0.705988	-0.768681
N118	N	1.183271	1.205988	-0.268681
H119	H	0.702197	0.761817	-0.832842
H120	H	1.202197	1.261817	-0.332842
N121	N	0.502740	0.631255	-0.791814
N122	N	1.002740	1.131255	-0.291814
N123	N	0.461552	0.715299	-0.760014
N124	N	0.961552	1.215299	-0.260014
H125	H	0.443633	0.775455	-0.820915
H126	H	0.943633	1.275455	-0.320915
