data_functionalizedCrystal
_audit_creation_method	'MofGen! by Chris Wilmer'
_symmetry_space_group_name_H-M	'P1'
_symmetry_Int_Tables_number	1
_symmetry_cell_setting	triclinic
loop_
_symmetry_equiv_pos_as_xyz
  x,y,z
_cell_length_a	12.811432
_cell_length_b	12.837943
_cell_length_c	11.295501
_cell_angle_alpha	85.830568
_cell_angle_beta	90.838913
_cell_angle_gamma	89.410861
loop_
_atom_site_label
_atom_site_type_symbol
_atom_site_fract_x
_atom_site_fract_y
_atom_site_fract_z
O1	O	-0.277804	-1.380985	0.068993
O2	O	-0.264422	-1.079213	0.070446
O3	O	-0.120222	-1.238727	0.086013
O4	O	-0.422004	-1.221471	0.053427
O5	O	-0.106456	-1.226290	-0.110551
O6	O	-0.250655	-1.066776	-0.126118
O7	O	-0.264038	-1.368548	-0.127570
Cu8	Cu	-0.256090	-1.216526	-0.144792
Cu9	Cu	-0.272370	-1.231234	0.087668
O10	O	-0.408237	-1.209034	-0.143137
C11	C	-0.253017	-1.034385	-0.027347
C12	C	-0.239533	-0.919342	-0.025887
C13	C	-0.074444	-1.231924	-0.008067
C14	C	0.041451	-1.230170	0.004455
C15	C	-0.275442	-1.413376	-0.029775
C16	C	-0.288927	-1.528419	-0.031227
C17	C	0.197297	-1.234470	0.129233
C18	C	0.088403	-1.236124	0.117480
C19	C	0.103403	-1.222565	-0.096826
C20	C	0.212298	-1.220912	-0.085073
C21	C	0.259241	-1.226863	0.027960
C22	C	0.368137	-1.225202	0.039711
C23	C	0.383136	-1.211651	-0.174593
C24	C	0.274241	-1.213305	-0.186346
C25	C	0.545985	-1.215839	-0.049055
C26	C	0.430089	-1.217598	-0.061569
N27	N	-0.244639	-1.206189	-0.308291
C28	C	-0.401635	-0.677977	-0.043408
C29	C	-0.388971	-0.569883	-0.042038
C30	C	-0.201540	-0.595058	-0.021787
C31	C	-0.214205	-0.703152	-0.023157
C32	C	-0.314256	-0.744607	-0.033966
C33	C	-0.326920	-0.852704	-0.035327
C34	C	-0.139490	-0.877876	-0.015084
C35	C	-0.126825	-0.769782	-0.013715
C36	C	-0.366290	-1.315983	-0.570721
C37	C	-0.357629	-1.308179	-0.694449
C38	C	-0.218651	-1.182783	-0.679478
C39	C	-0.227312	-1.190587	-0.555750
C40	C	-0.301135	-1.257188	-0.501376
C41	C	-0.309801	-1.264986	-0.377646
C42	C	-0.170819	-1.139597	-0.362677
C43	C	-0.162158	-1.131793	-0.486405
N44	N	-0.283813	-1.241580	0.251168
H45	H	0.406356	-1.230041	0.131749
H46	H	-0.117770	-1.091716	-0.306203
H47	H	-0.460125	-0.515635	-0.049730
C48	C	-0.511691	-0.723581	-0.055290
N49	N	-0.594587	-0.757928	-0.064240
H50	H	-0.120077	-0.561279	-0.013085
C51	C	0.248937	-1.241004	0.253568
N52	N	0.287830	-1.245924	0.347220
C53	C	-0.429315	-1.372846	-0.770725
N54	N	-0.483316	-1.421553	-0.828177
H55	H	-0.408386	-0.886454	-0.044130
C56	C	0.451283	-1.203287	-0.286001
N57	N	0.502612	-1.196986	-0.369910
C58	C	-0.043366	-0.951179	-0.004694
N59	N	0.029032	-1.006392	0.003135
H60	H	-0.158538	-1.128571	-0.723770
C61	C	-0.447499	-1.389238	-0.510907
N62	N	-0.508666	-1.444416	-0.465857
H63	H	-0.102050	-1.077571	-0.530693
H64	H	0.037972	-1.242319	0.199947
C65	C	-0.016775	-0.724168	-0.001824
N66	N	0.066117	-0.689813	0.007137
H67	H	0.065163	-1.217731	-0.188851
H68	H	0.236005	-1.208463	-0.278374
C69	C	-0.391004	-1.338250	-0.317836
N70	N	-0.452165	-1.393439	-0.272791
