data_functionalizedCrystal
_audit_creation_method	'MofGen! by Chris Wilmer'
_symmetry_space_group_name_H-M	'P1'
_symmetry_Int_Tables_number	1
_symmetry_cell_setting	triclinic
loop_
_symmetry_equiv_pos_as_xyz
  x,y,z
_cell_length_a	10.654550
_cell_length_b	14.044190
_cell_length_c	9.130313
_cell_angle_alpha	89.993628
_cell_angle_beta	89.996220
_cell_angle_gamma	88.838339
loop_
_atom_site_label
_atom_site_type_symbol
_atom_site_fract_x
_atom_site_fract_y
_atom_site_fract_z
O1	O	1.681227	0.133228	-0.121939
O2	O	1.317024	0.145921	-0.121918
O3	O	1.493654	0.001554	-0.121899
O4	O	1.504597	0.277595	-0.121958
O5	O	1.493652	0.001557	0.121700
O6	O	1.317022	0.145925	0.121681
O7	O	1.681225	0.133231	0.121660
Cu8	Cu	1.499123	0.139579	0.143913
Cu9	Cu	1.499125	0.139574	-0.144171
O10	O	1.504595	0.277599	0.121641
C11	C	1.270131	0.144991	-0.000115
C12	C	1.130408	0.142203	-0.000105
C13	C	1.488866	-0.033790	-0.000095
C14	C	1.474587	-0.139110	-0.000082
C15	C	1.059467	0.227204	-0.000145
C16	C	0.928182	0.224578	-0.000169
C17	C	0.938791	0.051942	-0.000122
C18	C	1.070074	0.054569	-0.000087
C19	C	1.053340	0.326874	-0.000179
C20	C	0.922056	0.324248	-0.000203
C21	C	1.549752	-0.388903	-0.000144
C22	C	1.448502	-0.331939	-0.000127
C23	C	1.463019	-0.224639	-0.000102
C24	C	1.535237	-0.496212	-0.000169
C25	C	1.728117	0.134161	-0.000146
C26	C	1.867841	0.136950	-0.000165
C27	C	1.509383	0.312943	-0.000166
C28	C	1.523662	0.418263	-0.000189
N29	N	1.499131	0.139581	0.346536
N30	N	1.499127	0.139564	-0.346794
C31	C	1.577367	0.075677	0.423196
C32	C	1.577362	0.075666	0.576532
C33	C	1.420882	0.203471	0.576536
C34	C	1.420881	0.203477	0.423202
C35	C	1.667713	0.001893	0.423195
C36	C	1.667708	0.001881	0.576532
H37	H	1.127830	-0.014647	-0.000033
H38	H	1.357164	0.255504	0.360786
H39	H	1.761219	0.024996	0.375626
N40	N	1.631565	-0.089555	0.370992
N41	N	1.526587	-0.121394	0.404078
H42	H	1.501042	-0.185972	0.367202
N43	N	0.877139	-0.037561	-0.000093
N44	N	0.759923	-0.039896	-0.000112
H45	H	0.716381	-0.103109	-0.000091
N46	N	1.620732	-0.084551	0.636191
N47	N	1.585560	-0.149269	0.552645
H48	H	1.552380	-0.210310	0.594780
H49	H	1.765853	0.018134	0.618139
H50	H	1.086589	0.365856	0.101765
N51	N	1.326069	-0.371829	-0.000106
N52	N	1.230867	-0.318333	-0.000076
H53	H	1.144400	-0.346508	-0.000056
N54	N	1.340959	0.268725	0.654874
N55	N	1.340962	0.268707	0.791778
H56	H	1.284514	0.314794	0.847104
N57	N	1.102065	0.366683	-0.132129
N58	N	1.028770	0.394300	-0.230970
H59	H	1.063182	0.422413	-0.324164
H60	H	1.647330	-0.357088	-0.000134
H61	H	0.879411	0.354371	0.104958
H62	H	0.884099	0.361801	-0.102165
