data_functionalizedCrystal
_audit_creation_method	'MofGen! by Chris Wilmer'
_symmetry_space_group_name_H-M	'P1'
_symmetry_Int_Tables_number	1
_symmetry_cell_setting	triclinic
loop_
_symmetry_equiv_pos_as_xyz
  x,y,z
_cell_length_a	17.077404
_cell_length_b	13.897448
_cell_length_c	13.897441
_cell_angle_alpha	89.970373
_cell_angle_beta	89.980344
_cell_angle_gamma	90.017917
loop_
_atom_site_label
_atom_site_type_symbol
_atom_site_fract_x
_atom_site_fract_y
_atom_site_fract_z
Zn1	Zn	1.200084	-0.383988	-0.545408
Zn2	Zn	1.700084	0.116012	-0.045408
Zn3	Zn	1.200003	-0.545307	-0.384110
Zn4	Zn	1.700003	-0.045307	0.115890
Zn5	Zn	1.068816	-0.384028	-0.384124
Zn6	Zn	1.568816	0.115972	0.115876
Zn7	Zn	1.068796	-0.545243	-0.545359
Zn8	Zn	1.568796	-0.045243	-0.045359
O9	O	1.134425	-0.464641	-0.464750
O10	O	1.634425	0.035359	0.035250
O11	O	1.309920	-0.405397	-0.524026
O12	O	1.809920	0.094603	-0.024026
O13	O	1.182575	-0.523956	-0.249130
O14	O	1.682575	-0.023956	0.250870
O15	O	1.086271	-0.249041	-0.405545
O16	O	1.586271	0.250959	0.094455
O17	O	1.309860	-0.523917	-0.405521
O18	O	1.809860	-0.023917	0.094479
O19	O	1.182713	-0.249011	-0.524040
O20	O	1.682713	0.250989	-0.024040
O21	O	1.086192	-0.405465	-0.249140
O22	O	1.586192	0.094535	0.250860
O23	O	0.958966	-0.405404	-0.405497
O24	O	1.458966	0.094596	0.094503
O25	O	1.086237	-0.523809	-0.680348
O26	O	1.586237	-0.023809	-0.180348
O27	O	0.958952	-0.523848	-0.523957
O28	O	1.458952	-0.023848	-0.023957
O29	O	1.182694	-0.405335	-0.680384
O30	O	1.682694	0.094665	-0.180384
O31	O	1.182556	-0.680280	-0.405474
O32	O	1.682556	-0.180280	0.094526
O33	O	1.086158	-0.680233	-0.523943
O34	O	1.586158	-0.180233	-0.023943
C35	C	0.930477	-0.464624	-0.464724
C36	C	1.430477	0.035376	0.035276
C37	C	0.843227	-0.464639	-0.464735
C38	C	1.343227	0.035361	0.035265
C39	C	1.134367	-0.715256	-0.464722
C40	C	1.634367	-0.215256	0.035278
C41	C	1.134415	-0.822469	-0.464743
C42	C	1.634415	-0.322469	0.035257
C43	C	0.802250	-0.526406	-0.526318
C44	C	1.302250	-0.026406	-0.026318
C45	C	0.720269	-0.526408	-0.526333
C46	C	1.220269	-0.026408	-0.026333
C47	C	0.679268	-0.464648	-0.464761
C48	C	1.179268	0.035352	0.035239
C49	C	0.720250	-0.402874	-0.403175
C50	C	1.220250	0.097126	0.096825
C51	C	0.802229	-0.402868	-0.403165
C52	C	1.302229	0.097132	0.096835
C53	C	0.549380	-0.402893	-0.403198
C54	C	1.049380	0.097107	0.096802
C55	C	0.467396	-0.402900	-0.403207
C56	C	0.967396	0.097100	0.096793
C57	C	0.467420	-0.526434	-0.526366
C58	C	0.967420	-0.026434	-0.026366
C59	C	0.549399	-0.526427	-0.526357
C60	C	1.049399	-0.026427	-0.026357
C61	C	0.590377	-0.464655	-0.464770
C62	C	1.090377	0.035345	0.035230
C63	C	1.134497	-1.018765	-0.464803
C64	C	1.634497	-0.518765	0.035197
C65	C	1.134449	-0.909532	-0.464773
C66	C	1.634449	-0.409532	0.035227
C67	C	1.339169	-0.464659	-0.464778
C68	C	1.839169	0.035341	0.035222
C69	C	1.426419	-0.464667	-0.464789
C70	C	1.926419	0.035333	0.035211
C71	C	1.134473	-0.464560	-0.716344
C72	C	1.634473	0.035440	-0.216344
C73	C	1.134493	-0.464526	-0.823558
C74	C	1.634493	0.035474	-0.323558
C75	C	1.134504	-0.213048	-0.464800
C76	C	1.634504	0.286952	0.035200
C77	C	1.134537	-0.105834	-0.464820
C78	C	1.634537	0.394166	0.035180
C79	C	1.134509	-0.464498	-0.910627
C80	C	1.634509	0.035502	-0.410627
C81	C	1.134532	-0.464455	-1.019860
C82	C	1.634532	0.035545	-0.519860
C83	C	1.134422	-0.464652	-0.214136
C84	C	1.634422	0.035348	0.285864
C85	C	1.134554	-0.464415	-0.106923
C86	C	1.634554	0.035585	0.393077
H87	H	0.835628	-0.576702	-0.576455
H88	H	1.335628	-0.076702	-0.076455
H89	H	0.835592	-0.352566	-0.353023
H90	H	1.335592	0.147434	0.146977
H91	H	0.686860	-0.352583	-0.353046
H92	H	1.186860	0.147417	0.146954
N93	N	0.676072	-0.593042	-0.592741
N94	N	1.176072	-0.093042	-0.092741
H95	H	0.714485	-0.632175	-0.631735
H96	H	1.214485	-0.132175	-0.131735
H97	H	0.642040	-0.637626	-0.553386
H98	H	1.142040	-0.137626	-0.053386
N99	N	0.423158	-0.336320	-0.336779
N100	N	0.923158	0.163680	0.163221
H101	H	0.389149	-0.291678	-0.376046
H102	H	0.889149	0.208322	0.123954
H103	H	0.389181	-0.375577	-0.292044
H104	H	0.889181	0.124423	0.207956
N105	N	0.423230	-0.593064	-0.592792
N106	N	0.923230	-0.093064	-0.092792
H107	H	0.365075	-0.583695	-0.583461
H108	H	0.865075	-0.083695	-0.083461
H109	H	0.437590	-0.578140	-0.661707
H110	H	0.937590	-0.078140	-0.161707
H111	H	0.582742	-0.352583	-0.353056
H112	H	1.082742	0.147417	0.146944
H113	H	0.582781	-0.576724	-0.576489
H114	H	1.082781	-0.076724	-0.076489
