data_functionalizedCrystal
_audit_creation_method	'MofGen! by Chris Wilmer'
_symmetry_space_group_name_H-M	'P1'
_symmetry_Int_Tables_number	1
_symmetry_cell_setting	triclinic
loop_
_symmetry_equiv_pos_as_xyz
  x,y,z
_cell_length_a	17.000383
_cell_length_b	17.019294
_cell_length_c	12.503552
_cell_angle_alpha	89.645537
_cell_angle_beta	86.753934
_cell_angle_gamma	79.506204
loop_
_atom_site_label
_atom_site_type_symbol
_atom_site_fract_x
_atom_site_fract_y
_atom_site_fract_z
O1	O	1.060784	0.023435	-0.091562
O2	O	1.560784	0.523435	0.408438
O3	O	0.829154	0.051922	-0.094182
O4	O	1.329154	0.551922	0.405818
O5	O	0.950888	-0.077023	-0.082258
O6	O	1.450888	0.422977	0.417742
O7	O	0.939050	0.152380	-0.103486
O8	O	1.439050	0.652380	0.396514
O9	O	0.941722	-0.067316	0.095487
O10	O	1.441722	0.432684	0.595487
O11	O	0.819989	0.061628	0.083563
O12	O	1.319989	0.561628	0.583563
O13	O	1.051618	0.033142	0.086183
O14	O	1.551618	0.533142	0.586183
Cu15	Cu	0.934967	0.048271	0.101102
Cu16	Cu	1.434967	0.548271	0.601102
Cu17	Cu	0.945806	0.036793	-0.109102
Cu18	Cu	1.445806	0.536793	0.390898
O19	O	0.929885	0.162086	0.074259
O20	O	1.429885	0.662086	0.574259
C21	C	0.794923	0.058305	-0.005450
C22	C	1.294923	0.558305	0.494550
C23	C	0.706581	0.062855	-0.005865
C24	C	1.206581	0.562855	0.494135
C25	C	0.206473	0.092228	-0.008623
C26	C	0.706473	0.592228	0.491377
C27	C	0.289480	0.087947	-0.008226
C28	C	0.789480	0.587947	0.491774
C29	C	0.340205	0.013647	-0.001342
C30	C	0.840205	0.513647	0.498658
C31	C	0.307919	-0.056378	0.005134
C32	C	0.807919	0.443622	0.505134
C33	C	0.224914	-0.052097	0.004729
C34	C	0.724914	0.447903	0.504729
C35	C	0.591290	-0.002889	0.000207
C36	C	1.091290	0.497111	0.500207
C37	C	0.674300	-0.007164	0.000614
C38	C	1.174300	0.492836	0.500614
C39	C	0.655855	0.137161	-0.012748
C40	C	1.155855	0.637161	0.487252
C41	C	0.572849	0.141436	-0.013145
C42	C	1.072849	0.641436	0.486855
C43	C	0.540571	0.071411	-0.006675
C44	C	1.040571	0.571411	0.493325
C45	C	0.425052	0.009270	-0.000933
C46	C	0.925052	0.509270	0.499067
C47	C	0.455725	0.075788	-0.007092
C48	C	0.955725	0.575788	0.492908
C49	C	0.945675	-0.101377	0.009315
C50	C	1.445675	0.398623	0.509315
C51	C	0.943790	-0.188406	0.017361
C52	C	1.443790	0.311594	0.517361
C53	C	0.947902	-0.234579	-0.075746
C54	C	1.447902	0.265421	0.424254
C55	C	0.946125	-0.316351	-0.068182
C56	C	1.446125	0.183649	0.431818
C57	C	0.940242	-0.351949	0.032490
C58	C	1.440242	0.148051	0.532490
C59	C	0.936127	-0.305770	0.125605
C60	C	1.436127	0.194230	0.625605
C61	C	0.937898	-0.223998	0.118040
C62	C	1.437898	0.276002	0.618040
C63	C	0.934639	-0.598580	0.060179
C64	C	1.434639	-0.098580	0.560179
C65	C	0.932871	-0.680358	0.067738
C66	C	1.432871	-0.180358	0.567738
C67	C	0.942868	-0.690933	-0.126051
C68	C	1.442868	-0.190933	0.373949
C69	C	0.944643	-0.609160	-0.133607
C70	C	1.444643	-0.109160	0.366393
C71	C	0.940524	-0.562987	-0.040492
C72	C	1.440524	-0.062987	0.459508
C73	C	0.938428	-0.435533	0.040225
C74	C	1.438428	0.064467	0.540225
C75	C	0.942332	-0.479404	-0.048228
C76	C	1.442332	0.020596	0.451772
C77	C	1.085849	0.026758	-0.002552
C78	C	1.585849	0.526758	0.497448
C79	C	1.174192	0.022209	-0.002144
C80	C	1.674192	0.522209	0.497856
C81	C	0.935097	0.186441	-0.017316
C82	C	1.435097	0.686441	0.482684
C83	C	0.936983	0.273469	-0.025370
C84	C	1.436983	0.773469	0.474630
N85	N	0.927348	0.056344	0.248949
N86	N	1.427348	0.556344	0.748949
N87	N	0.953430	0.028713	-0.256947
N88	N	1.453430	0.528713	0.243053
C89	C	0.964633	0.016836	0.525035
C90	C	1.464633	0.516836	1.025035
C91	C	0.916149	0.068218	0.466959
C92	C	1.416149	0.568218	0.966959
C93	C	0.922382	0.061610	0.345647
C94	C	1.422382	0.561610	0.845647
C95	C	0.958401	0.023444	0.646359
C96	C	1.458401	0.523444	1.146359
H97	H	0.715600	-0.067672	0.006214
H98	H	1.215600	0.432328	0.506214
H99	H	0.931332	-0.334759	0.207575
H100	H	1.431332	0.165241	0.707575
H101	H	1.010820	-0.032113	0.483651
H102	H	1.510820	0.467887	0.983651
H103	H	0.931301	-0.560999	0.136000
H104	H	1.431301	-0.060999	0.636000
Br105	Br	0.932313	-0.161333	0.244405
Br106	Br	1.432313	0.338667	0.744405
H107	H	0.165177	0.152732	-0.014220
H108	H	0.665177	0.652732	0.485780
Br109	Br	0.699666	0.232189	-0.021535
Br110	Br	1.199666	0.732189	0.478465
Br111	Br	0.839164	0.149811	0.535940
Br112	Br	1.339164	0.649811	1.035940
Br113	Br	0.930436	-0.483851	0.176849
Br114	Br	1.430436	0.016149	0.676849
H115	H	0.531553	0.201939	-0.018753
H116	H	1.031553	0.701939	0.481247
Br117	Br	0.333287	0.182978	-0.017029
Br118	Br	0.833287	0.682978	0.482971
Br119	Br	0.547496	-0.097925	0.008956
Br120	Br	1.047496	0.402075	0.508956
Br121	Br	0.376760	-0.157216	0.014469
Br122	Br	0.876760	0.342784	0.514469
H123	H	0.198633	-0.109114	0.010003
H124	H	0.698633	0.390886	0.510003
H125	H	0.414422	0.136283	-0.012701
H126	H	0.914422	0.636283	0.487299
H127	H	0.952697	-0.205602	-0.157725
H128	H	1.452697	0.294398	0.342275
Br129	Br	0.952633	-0.560855	-0.270239
Br130	Br	1.452633	-0.060855	0.229761
Br131	Br	0.951705	-0.379011	-0.194549
Br132	Br	1.451705	0.120989	0.305451
H133	H	0.466361	-0.051225	0.004675
H134	H	0.966361	0.448775	0.504675
H135	H	0.946220	-0.728535	-0.201859
H136	H	1.446220	-0.228535	0.298141
Br137	Br	0.924894	-0.728671	0.204374
Br138	Br	1.424894	-0.228671	0.704374
H139	H	0.947117	-0.450415	-0.130195
H140	H	1.447117	0.049585	0.369805
