data_functionalizedCrystal
_audit_creation_method	'MofGen! by Chris Wilmer'
_symmetry_space_group_name_H-M	'P1'
_symmetry_Int_Tables_number	1
_symmetry_cell_setting	triclinic
loop_
_symmetry_equiv_pos_as_xyz
  x,y,z
_cell_length_a	9.065218
_cell_length_b	9.798715
_cell_length_c	9.065218
_cell_angle_alpha	89.998697
_cell_angle_beta	94.984115
_cell_angle_gamma	90.003772
loop_
_atom_site_label
_atom_site_type_symbol
_atom_site_fract_x
_atom_site_fract_y
_atom_site_fract_z
O1	O	1.960400	0.113488	-0.216354
O2	O	1.531115	0.113490	-0.234100
O3	O	1.754631	0.113486	-0.010584
O4	O	1.736884	0.113492	-0.439869
O5	O	1.754614	-0.113496	-0.010584
O6	O	1.531098	-0.113492	-0.234099
O7	O	1.960383	-0.113494	-0.216353
Zn8	Zn	1.745738	-0.149531	-0.225226
Zn9	Zn	1.745760	0.149527	-0.225227
O10	O	1.736868	-0.113490	-0.439869
C11	C	1.476120	-0.000001	-0.232394
C12	C	1.312277	-0.000000	-0.227294
N13	N	1.745734	-0.353631	-0.225225
C14	C	1.839580	-0.421409	-0.130961
C15	C	1.839604	-0.578572	-0.130956
C16	C	2.015378	0.000000	-0.218059
C17	C	2.179221	0.000008	-0.223158
C18	C	1.752917	-0.000003	0.044403
C19	C	1.747817	0.000004	0.208245
N20	N	1.745776	0.353627	-0.225217
C21	C	1.738582	0.000002	-0.494855
C22	C	1.743681	0.000004	-0.658698
H23	H	1.919903	-0.363088	-0.050255
H24	H	1.919955	-0.636859	-0.050258
H25	H	1.665432	-0.588095	-0.305929
H26	H	1.665400	-0.411954	-0.305918
