data_functionalizedCrystal
_audit_creation_method	'MofGen! by Chris Wilmer'
_symmetry_space_group_name_H-M	'P1'
_symmetry_Int_Tables_number	1
_symmetry_cell_setting	triclinic
loop_
_symmetry_equiv_pos_as_xyz
  x,y,z
_cell_length_a	19.077212
_cell_length_b	25.639240
_cell_length_c	19.076919
_cell_angle_alpha	87.738531
_cell_angle_beta	90.114942
_cell_angle_gamma	92.324469
loop_
_atom_site_label
_atom_site_type_symbol
_atom_site_fract_x
_atom_site_fract_y
_atom_site_fract_z
Zn1	Zn	1.058257	-0.189803	0.440539
Zn2	Zn	1.062881	-0.273592	0.323013
Zn3	Zn	0.945473	-0.189528	0.318315
Zn4	Zn	0.940699	-0.280566	0.435744
O5	O	1.001828	-0.233372	0.379403
O6	O	1.157205	-0.198115	0.428922
O7	O	1.051240	-0.259407	0.224060
O8	O	0.960496	-0.116399	0.334568
O9	O	1.160602	-0.259674	0.342576
O10	O	1.043358	-0.116601	0.424366
O11	O	0.964980	-0.197645	0.220608
O12	O	0.846505	-0.204408	0.329919
O13	O	0.952361	-0.271560	0.534710
O14	O	0.842998	-0.271293	0.416194
O15	O	1.038730	-0.204877	0.538233
O16	O	1.046612	-0.347683	0.337926
O17	O	0.956845	-0.352807	0.420750
C18	C	0.819255	-0.238578	0.372027
C19	C	0.741148	-0.240818	0.368888
C20	C	1.001730	-0.369216	0.379344
C21	C	1.001752	-0.427330	0.379344
C22	C	0.301682	-0.256863	0.346410
C23	C	0.375071	-0.254755	0.349354
C24	C	0.409996	-0.221707	0.395855
C25	C	0.371528	-0.190762	0.439410
C26	C	0.298140	-0.192867	0.436462
C27	C	0.629292	-0.211977	0.409496
C28	C	0.702685	-0.209876	0.412442
C29	C	0.706224	-0.273869	0.322384
C30	C	0.632834	-0.275973	0.319444
C31	C	0.594373	-0.245026	0.362996
N32	N	0.485012	-0.219553	0.398866
N33	N	0.519359	-0.247177	0.359980
C34	C	1.044993	-0.787761	0.426242
C35	C	1.045013	-0.842365	0.426257
O36	O	1.081662	-0.870661	0.466070
N37	N	1.001922	-0.869611	0.379475
C38	C	0.958803	-0.842250	0.332678
O39	O	0.922153	-0.870439	0.292888
C40	C	0.958780	-0.787647	0.332667
C41	C	1.001879	-0.760404	0.379448
C42	C	1.088088	-0.760517	0.473020
C43	C	1.088068	-0.705917	0.473004
C44	C	1.044954	-0.678560	0.426210
C45	C	1.001860	-0.705803	0.379432
C46	C	0.915658	-0.760287	0.285875
C47	C	0.915638	-0.705681	0.285868
C48	C	0.958737	-0.678437	0.332649
C49	C	0.958726	-0.623846	0.332622
N50	N	1.001817	-0.596600	0.379405
C51	C	1.044931	-0.623957	0.426199
C52	C	0.958855	-0.956920	0.332706
C53	C	0.958881	-1.011522	0.332713
C54	C	1.045090	-1.011633	0.426294
C55	C	1.045067	-0.957030	0.426283
C56	C	1.001946	-0.929674	0.379489
C57	C	1.044887	-0.509292	0.426161
C58	C	1.044866	-0.454687	0.426139
C59	C	0.958655	-0.454580	0.332561
C60	C	0.958678	-0.509181	0.332581
C61	C	1.001797	-0.536535	0.379386
O62	O	0.922094	-0.595515	0.292831
O63	O	1.081569	-0.595762	0.465989
C64	C	1.185113	-0.228147	0.386808
C65	C	1.263219	-0.225920	0.389963
C66	C	0.994497	-0.239027	0.562680
C67	C	0.991373	-0.241437	0.640782
C68	C	1.001944	-0.096998	0.379478
C69	C	1.001993	-0.038884	0.379510
C70	C	1.009170	-0.227701	0.196840
C71	C	1.012430	-0.225140	0.118744
C72	C	1.034871	-0.207852	0.679310
C73	C	1.031927	-0.210115	0.752695
C74	C	0.985489	-0.245965	0.787551
C75	C	0.941986	-0.279551	0.749018
C76	C	0.944927	-0.277286	0.675634
C77	C	0.971868	-0.256461	1.006827
C78	C	0.968932	-0.258725	1.080216
C79	C	1.058873	-0.189287	1.083888
C80	C	1.061813	-0.187027	1.010503
C81	C	1.018307	-0.220611	0.971976
N82	N	0.982480	-0.248280	0.862562
N83	N	1.021313	-0.218294	0.896966
H84	H	0.273251	-0.283776	0.308547
H85	H	1.067349	-0.182768	0.784061
F86	F	1.090937	-0.928040	0.476074
H87	H	0.936454	-0.283815	0.975468
F88	F	0.747163	-0.306802	0.276034
H89	H	0.597986	-0.186780	0.444962
H90	H	0.923590	-0.531363	0.294482
H91	H	0.399970	-0.163851	0.477269
H92	H	1.072688	-0.178661	0.650936
F93	F	0.912773	-0.425455	0.282761
F94	F	0.257205	-0.159932	0.482815
H95	H	0.904172	-0.308739	0.777403
H96	H	0.909499	-0.304629	0.644266
F97	F	1.090741	-0.425695	0.475930
F98	F	1.090976	-1.040758	0.476097
H99	H	0.880562	-0.782460	0.247780
H100	H	0.923794	-1.033698	0.294612
H101	H	0.406385	-0.279951	0.313887
F102	F	0.595671	-0.311135	0.269935
F103	F	0.739853	-0.174699	0.461936
H104	H	1.079994	-0.531558	0.464279
H105	H	1.123161	-0.683739	0.511099
F106	F	0.912960	-0.927810	0.282895
H107	H	1.099630	-0.157836	0.982128
F108	F	1.105169	-0.153546	1.124896
H109	H	1.123196	-0.782786	0.511130
H110	H	0.880521	-0.683410	0.247764
F111	F	0.919501	-0.296881	1.117311
