data_functionalizedCrystal
_audit_creation_method	'MofGen! by Chris Wilmer'
_symmetry_space_group_name_H-M	'P1'
_symmetry_Int_Tables_number	1
_symmetry_cell_setting	triclinic
loop_
_symmetry_equiv_pos_as_xyz
  x,y,z
_cell_length_a	10.540539
_cell_length_b	12.837942
_cell_length_c	11.295483
_cell_angle_alpha	85.469583
_cell_angle_beta	94.144650
_cell_angle_gamma	89.677216
loop_
_atom_site_label
_atom_site_type_symbol
_atom_site_fract_x
_atom_site_fract_y
_atom_site_fract_z
O1	O	-1.709660	-0.139298	-0.098967
O2	O	-1.341761	-0.153073	-0.098982
O3	O	-1.517552	0.004777	-0.098968
O4	O	-1.533869	-0.297148	-0.098982
O5	O	-1.502110	-0.009066	0.099082
O6	O	-1.326319	-0.166916	0.099067
O7	O	-1.694217	-0.153141	0.099082
Cu8	Cu	-1.508858	-0.161292	0.117158
Cu9	Cu	-1.527121	-0.144922	-0.117058
O10	O	-1.518426	-0.310991	0.099068
C11	C	-1.286624	-0.158962	0.000041
C12	C	-1.145337	-0.155870	0.000035
C13	C	-1.504319	0.036517	0.000056
C14	C	-1.487881	0.151716	0.000054
C15	C	-1.749355	-0.147252	0.000056
C16	C	-1.890643	-0.150343	0.000054
C17	C	-0.948860	-0.037460	0.000503
C18	C	-1.095859	-0.040561	0.000044
C19	C	-1.098579	-0.203457	-0.113059
C20	C	-0.951609	-0.199516	-0.113141
C21	C	-0.933817	-0.217604	0.112078
C22	C	-1.080800	-0.218769	0.113561
C23	C	-1.531659	-0.342731	0.000041
C24	C	-1.548098	-0.457929	0.000036
N25	N	-1.496022	-0.172806	0.281894
C26	C	-1.685501	0.391213	0.000036
C27	C	-1.670062	0.499453	0.000034
C28	C	-1.441566	0.476440	0.000037
C29	C	-1.457005	0.368199	0.000040
C30	C	-1.578976	0.325590	0.000041
C31	C	-1.594414	0.217347	0.000052
C32	C	-1.365919	0.194336	0.000047
C33	C	-1.350480	0.302577	0.000045
N34	N	-1.539966	-0.133400	-0.281794
C35	C	-1.632358	-0.050460	0.531194
C36	C	-1.622668	-0.059168	0.655857
C37	C	-1.466945	-0.198926	0.655884
C38	C	-1.476636	-0.190217	0.531222
C39	C	-1.559346	-0.115983	0.468881
C40	C	-1.569042	-0.107280	0.344216
C41	C	-1.413314	-0.247032	0.344245
C42	C	-1.403623	-0.255741	0.468908
H43	H	-1.127354	-0.002565	0.081116
H44	H	-1.784814	0.356519	0.000049
N45	N	-1.319140	-0.331553	0.532611
N46	N	-1.310492	-0.339317	0.643916
H47	H	-1.250826	-0.392863	0.688906
H48	H	-1.699714	0.009978	0.480435
H49	H	-1.399595	-0.259359	0.706658
H50	H	-1.756807	0.552880	0.000026
H51	H	-1.636393	-0.046838	0.293459
N52	N	-1.154909	-0.147702	-0.218636
N53	N	-1.085874	-0.102447	-0.291618
H54	H	-1.125661	-0.063062	-0.366176
H55	H	-1.682120	-0.005812	0.706589
N56	N	-1.338751	-0.313971	0.280575
N57	N	-1.347423	-0.306196	0.169270
H58	H	-1.294771	-0.353474	0.124300
N59	N	-1.122175	-0.324813	0.122153
N60	N	-1.177518	-0.359826	0.210853
H61	H	-1.206770	-0.434715	0.216917
N62	N	-1.257084	0.127316	0.000066
N63	N	-1.172363	0.125878	0.083553
H64	H	-1.095499	0.078545	0.083573
N65	N	-0.898861	0.012529	0.102311
N66	N	-0.819727	-0.034449	0.175723
H67	H	-0.784437	0.000843	0.247649
H68	H	-0.919958	0.013538	-0.080147
N69	N	-1.150119	0.021728	-0.101821
N70	N	-1.125675	0.116921	-0.115047
H71	H	-1.163994	0.160916	-0.186995
N72	N	-0.918848	-0.140635	-0.219182
N73	N	-0.954370	-0.047454	-0.239248
H74	H	-0.931241	-0.005865	-0.314142
H75	H	-0.891486	-0.186278	0.197803
H76	H	-0.913151	-0.282086	-0.118278
N77	N	-1.118397	-0.175229	0.218513
N78	N	-1.192444	-0.098166	0.209828
H79	H	-1.219004	-0.067412	0.283949
H80	H	-1.342263	0.511153	0.000023
H81	H	-1.130564	-0.287843	-0.117270
H82	H	-0.895681	-0.300944	0.112838
H83	H	-1.693729	0.182656	0.000058
H84	H	-1.251174	0.337285	0.000039
