data_functionalizedCrystal
_audit_creation_method	'MofGen! by Chris Wilmer'
_symmetry_space_group_name_H-M	'P1'
_symmetry_Int_Tables_number	1
_symmetry_cell_setting	triclinic
loop_
_symmetry_equiv_pos_as_xyz
  x,y,z
_cell_length_a	14.908783
_cell_length_b	21.295417
_cell_length_c	14.908694
_cell_angle_alpha	93.264730
_cell_angle_beta	83.203601
_cell_angle_gamma	93.320338
loop_
_atom_site_label
_atom_site_type_symbol
_atom_site_fract_x
_atom_site_fract_y
_atom_site_fract_z
Zn1	Zn	1.413339	-0.217592	-0.591745
Zn2	Zn	1.404482	-0.317130	-0.440366
Zn3	Zn	1.253235	-0.217609	-0.431650
Zn4	Zn	1.261906	-0.328562	-0.582935
O5	O	1.333241	-0.270223	-0.511674
O6	O	1.538837	-0.226004	-0.578999
O7	O	1.377084	-0.299151	-0.312543
O8	O	1.274551	-0.129516	-0.452927
O9	O	1.532330	-0.299134	-0.467781
O10	O	1.392178	-0.129503	-0.570548
O11	O	1.265963	-0.226033	-0.306140
O12	O	1.127713	-0.237119	-0.444384
O13	O	1.289330	-0.318619	-0.710770
O14	O	1.134084	-0.318635	-0.555533
O15	O	1.400586	-0.237090	-0.717243
O16	O	1.385492	-0.406737	-0.459238
O17	O	1.280742	-0.415136	-0.563984
C18	C	1.098053	-0.279120	-0.498057
C19	C	0.997440	-0.282942	-0.492254
C20	C	0.815162	-0.214091	-0.597336
C21	C	0.720627	-0.217680	-0.591886
C22	C	0.713835	-0.293705	-0.475899
C23	C	0.808369	-0.290116	-0.481349
C24	C	0.859030	-0.250308	-0.542071
C25	C	0.953566	-0.246723	-0.547525
C26	C	0.946772	-0.322745	-0.431534
C27	C	0.852237	-0.326334	-0.426084
C28	C	1.333123	-0.433777	-0.511622
C29	C	1.333157	-0.503745	-0.511634
C30	C	1.394375	-0.536550	-0.572919
C31	C	1.394408	-0.602293	-0.572943
C32	C	1.333232	-0.635225	-0.511667
C33	C	1.272002	-0.602412	-0.450378
C34	C	1.271965	-0.536672	-0.450361
N35	N	1.321825	-0.735744	-0.432056
N36	N	1.321866	-0.798194	-0.432074
C37	C	1.333340	-0.833298	-0.511714
N38	N	1.344788	-0.803590	-0.591337
N39	N	1.344752	-0.741134	-0.591318
C40	C	1.333265	-0.706510	-0.511678
C41	C	1.394597	-0.937389	-0.573030
C42	C	1.394624	-1.003132	-0.573055
C43	C	1.272223	-1.003250	-0.450482
C44	C	1.272192	-0.937508	-0.450464
C45	C	1.333384	-0.904581	-0.511738
C46	C	1.569346	-0.261292	-0.525345
C47	C	1.669960	-0.257486	-0.531170
C48	C	1.346913	-0.279127	-0.747768
C49	C	1.352739	-0.282922	-0.848377
C50	C	1.333385	-0.106030	-0.511748
C51	C	1.333446	-0.036061	-0.511780
C52	C	1.247957	-0.213918	-1.030766
C53	C	1.253428	-0.217481	-1.125297
C54	C	1.369148	-0.293615	-1.131972
C55	C	1.363677	-0.290052	-1.037441
C56	C	1.303080	-0.250201	-0.986841
C57	C	1.297614	-0.246635	-0.892308
C58	C	1.413329	-0.322772	-0.898985
C59	C	1.418800	-0.326335	-0.993516
C60	C	1.319674	-0.261306	-0.276502
C61	C	1.314023	-0.257328	-0.175903
H62	H	0.810977	-0.358742	-0.376644
C63	C	0.973229	-0.426519	-0.388846
C64	C	0.994992	-0.362560	-0.370781
H65	H	1.003004	-0.451099	-0.351346
H66	H	0.909685	-0.434346	-0.376906
H67	H	0.992255	-0.437490	-0.450537
H68	H	0.975960	-0.351588	-0.309092
H69	H	1.058551	-0.354729	-0.382714
C70	C	1.546708	-0.334476	-1.106875
C71	C	1.485408	-0.370136	-1.049141
H72	H	1.587833	-0.361517	-1.141209
H73	H	1.514659	-0.313384	-1.146562
H74	H	1.579216	-0.304348	-1.072006
H75	H	1.452895	-0.400260	-1.084011
H76	H	1.517461	-0.391237	-1.009450
C77	C	1.237846	-0.207363	-0.744435
C78	C	1.231007	-0.202833	-0.836685
H79	H	1.196726	-0.180319	-0.710099
H80	H	1.223668	-0.249572	-0.728163
H81	H	1.297779	-0.195260	-0.732479
H82	H	1.171075	-0.214940	-0.848642
H83	H	1.245178	-0.160615	-0.852963
C84	C	1.414208	-1.081129	-0.695574
C85	C	1.461921	-1.039193	-0.640428
H86	H	1.455758	-1.103387	-0.737171
H87	H	1.377784	-1.110148	-0.659090
H88	H	1.376736	-1.058288	-0.727873
H89	H	1.499388	-1.062035	-0.608124
H90	H	1.498361	-1.010170	-0.676917
H91	H	1.198624	-0.181464	-0.989567
H92	H	1.222191	-0.629230	-0.400488
H93	H	1.208541	-0.187935	-1.161056
H94	H	1.444198	-0.509743	-0.622813
C95	C	1.151231	-0.996759	-0.329328
C96	C	1.204972	-1.039442	-0.383127
H97	H	1.109708	-1.019106	-0.287751
H98	H	1.188681	-0.968307	-0.297014
H99	H	1.118847	-0.973924	-0.366734
H100	H	1.237362	-1.062273	-0.345721
H101	H	1.167517	-1.067905	-0.415443
C102	C	1.456328	-0.351119	-0.757042
C103	C	1.473923	-0.362660	-0.850701
H104	H	1.493734	-0.375746	-0.727235
H105	H	1.468716	-0.307742	-0.742342
H106	H	1.394601	-0.362052	-0.738030
H107	H	1.535649	-0.351723	-0.869715
H108	H	1.461542	-0.406046	-0.865408
C109	C	1.414078	-0.867524	-0.695490
C110	C	1.461845	-0.901186	-0.640385
H111	H	1.455595	-0.845172	-0.737068
H112	H	1.376636	-0.895983	-0.727802
H113	H	1.377618	-0.838579	-0.658969
H114	H	1.498300	-0.930135	-0.676906
H115	H	1.499302	-0.872725	-0.608071
H116	H	0.994813	-0.214310	-0.596968
H117	H	1.444252	-0.629009	-0.622859
C118	C	0.928561	-0.206038	-0.725247
C119	C	0.870855	-0.170341	-0.664084
H120	H	0.962939	-0.179028	-0.766457
H121	H	0.968212	-0.227086	-0.693106
H122	H	0.893664	-0.236203	-0.757667
H123	H	0.905753	-0.140178	-0.631659
H124	H	0.831200	-0.149282	-0.696228
C125	C	1.252629	-0.859498	-0.327962
C126	C	1.204907	-0.901440	-0.383092
H127	H	1.211085	-0.837229	-0.286373
H128	H	1.290097	-0.882331	-0.295662
H129	H	1.289057	-0.830482	-0.364464
H130	H	1.168484	-0.930459	-0.346590
H131	H	1.167423	-0.878605	-0.415393
H132	H	1.418471	-0.326068	-1.173186
H133	H	0.672570	-0.326107	-0.426453
C134	C	0.700457	-0.194068	-0.743563
C135	C	0.672405	-0.177873	-0.652639
H136	H	0.670682	-0.169493	-0.781069
H137	H	0.764001	-0.186230	-0.755491
H138	H	0.685699	-0.237462	-0.755794
H139	H	0.687169	-0.134478	-0.640406
H140	H	0.608847	-0.185705	-0.640706
C141	C	1.150981	-0.543393	-0.329206
C142	C	1.204675	-0.500607	-0.382986
H143	H	1.109444	-0.521125	-0.287608
H144	H	1.118620	-0.571839	-0.366616
H145	H	1.188468	-0.566223	-0.296909
H146	H	1.167189	-0.477779	-0.415289
H147	H	1.237038	-0.472150	-0.345572
