data_functionalizedCrystal
_audit_creation_method	'MofGen! by Chris Wilmer'
_symmetry_space_group_name_H-M	'P1'
_symmetry_Int_Tables_number	1
_symmetry_cell_setting	triclinic
loop_
_symmetry_equiv_pos_as_xyz
  x,y,z
_cell_length_a	18.050589
_cell_length_b	18.050591
_cell_length_c	21.395355
_cell_angle_alpha	89.979262
_cell_angle_beta	90.012902
_cell_angle_gamma	89.971884
loop_
_atom_site_label
_atom_site_type_symbol
_atom_site_fract_x
_atom_site_fract_y
_atom_site_fract_z
Zn1	Zn	-0.295748	-1.135363	0.354222
Zn2	Zn	0.037586	-0.802030	0.687555
Zn3	Zn	0.370919	-0.468696	1.020889
Zn4	Zn	-0.419919	-1.135253	0.249455
Zn5	Zn	-0.086586	-0.801920	0.582788
Zn6	Zn	0.246747	-0.468586	0.916122
Zn7	Zn	-0.295747	-1.011161	0.249466
Zn8	Zn	0.037586	-0.677828	0.582799
Zn9	Zn	0.370919	-0.344495	0.916132
Zn10	Zn	-0.419900	-1.011130	0.354202
Zn11	Zn	-0.086567	-0.677797	0.687535
Zn12	Zn	0.246767	-0.344464	1.020869
O13	O	-0.357829	-1.073227	0.301836
O14	O	-0.024495	-0.739894	0.635170
O15	O	0.308838	-0.406560	0.968503
O16	O	-0.312227	-1.239273	0.340328
O17	O	0.021106	-0.905940	0.673662
O18	O	0.354439	-0.572606	1.006995
O19	O	-0.403456	-1.118759	0.161778
O20	O	-0.070122	-0.785425	0.495112
O21	O	0.263211	-0.452092	0.828445
O22	O	-0.191823	-1.027696	0.263375
O23	O	0.141510	-0.694363	0.596708
O24	O	0.474844	-0.361029	0.930042
O25	O	-0.403456	-1.239192	0.263356
O26	O	-0.070123	-0.905859	0.596690
O27	O	0.263211	-0.572525	0.930023
O28	O	-0.191823	-1.118947	0.340339
O29	O	0.141510	-0.785613	0.673672
O30	O	0.474844	-0.452280	1.007006
O31	O	-0.312227	-1.027589	0.161786
O32	O	0.021106	-0.694256	0.495120
O33	O	0.354439	-0.360923	0.828453
O34	O	-0.312208	-0.907233	0.263355
O35	O	0.021125	-0.573899	0.596689
O36	O	0.354458	-0.240566	0.930022
O37	O	-0.403423	-1.027643	0.441883
O38	O	-0.070090	-0.694310	0.775216
O39	O	0.263244	-0.360976	1.108549
O40	O	-0.403423	-0.907210	0.340305
O41	O	-0.070089	-0.573876	0.673638
O42	O	0.263244	-0.240543	1.006971
O43	O	-0.312209	-1.118916	0.441897
O44	O	0.021125	-0.785583	0.775231
O45	O	0.354458	-0.452250	1.108564
O46	O	-0.523841	-1.118729	0.263337
O47	O	-0.190508	-0.785395	0.596670
O48	O	0.142825	-0.452062	0.930004
O49	O	-0.523827	-1.027536	0.340294
O50	O	-0.190494	-0.694203	0.673627
O51	O	0.142839	-0.360870	1.006961
C52	C	-0.357814	-0.880275	0.301829
C53	C	-0.024481	-0.546941	0.635163
C54	C	0.308853	-0.213608	0.968496
C55	C	-0.357826	-0.797729	0.301841
C56	C	-0.024492	-0.464396	0.635175
C57	C	0.308841	-0.131062	0.968508
C58	C	-0.407535	-0.548912	0.343627
C59	C	-0.074202	-0.215579	0.676961
C60	C	0.259131	0.117754	1.010294
C61	C	-0.425599	-0.598271	0.286440
C62	C	-0.092266	-0.264938	0.619773
C63	C	0.241068	0.068396	0.953107
C64	C	-0.357854	-0.500609	0.301838
C65	C	-0.024521	-0.167275	0.635171
C66	C	0.308812	0.166058	0.968505
C67	C	-0.339811	-0.598332	0.359024
C68	C	-0.006478	-0.264998	0.692357
C69	C	0.326855	0.068335	1.025690
C70	C	-0.357842	-0.646594	0.301843
C71	C	-0.024509	-0.313260	0.635176
C72	C	0.308825	0.020073	0.968509
C73	C	-0.375953	-0.548880	0.244620
C74	C	-0.042620	-0.215547	0.577954
C75	C	0.290713	0.117787	0.911287
C76	C	-0.290134	-0.548936	0.317242
C77	C	0.043199	-0.215603	0.650576
C78	C	0.376532	0.117730	0.983909
C79	C	-0.308172	-0.598273	0.260016
C80	C	0.025161	-0.264939	0.593349
C81	C	0.358494	0.068394	0.926682
C82	C	-0.357863	-0.416510	0.301836
C83	C	-0.024530	-0.083177	0.635169
C84	C	0.308803	0.250156	0.968503
C85	C	-0.357833	-0.730690	0.301838
C86	C	-0.024500	-0.397357	0.635171
C87	C	0.308834	-0.064024	0.968505
C88	C	-0.550781	-1.073137	0.301826
C89	C	-0.217447	-0.739804	0.635159
C90	C	0.115886	-0.406471	0.968492
C91	C	-0.633327	-1.073167	0.301842
C92	C	-0.299993	-0.739834	0.635176
C93	C	0.033340	-0.406500	0.968509
C94	C	-0.832796	-1.023625	0.343677
C95	C	-0.499463	-0.690292	0.677010
C96	C	-0.166130	-0.356959	1.010344
C97	C	-0.882224	-1.005516	0.286505
C98	C	-0.548891	-0.672183	0.619838
C99	C	-0.215557	-0.338849	0.953172
C100	C	-0.784457	-1.073240	0.301850
C101	C	-0.451124	-0.739906	0.635184
C102	C	-0.117790	-0.406573	0.968517
C103	C	-0.882111	-1.091386	0.359029
C104	C	-0.548778	-0.758052	0.692362
C105	C	-0.215444	-0.424719	1.025696
C106	C	-0.930442	-1.073309	0.301863
C107	C	-0.597109	-0.739976	0.635197
C108	C	-0.263775	-0.406642	0.968530
C109	C	-0.832797	-1.055095	0.244648
C110	C	-0.499464	-0.721762	0.577981
C111	C	-0.166131	-0.388428	0.911315
C112	C	-0.832680	-1.140996	0.317211
C113	C	-0.499346	-0.807663	0.650544
C114	C	-0.166013	-0.474329	0.983878
C115	C	-0.882085	-1.122913	0.259999
C116	C	-0.548752	-0.789579	0.593333
C117	C	-0.215418	-0.456246	0.926666
C118	C	-0.700359	-1.073198	0.301844
C119	C	-0.367025	-0.739865	0.635177
C120	C	-0.033692	-0.406531	0.968511
C121	C	-1.014538	-1.073351	0.301864
C122	C	-0.681205	-0.740017	0.635197
C123	C	-0.347872	-0.406684	0.968530
C124	C	-0.164123	-1.073337	0.301860
C125	C	0.169210	-0.740004	0.635194
C126	C	0.502544	-0.406670	0.968527
C127	C	-0.081577	-1.073384	0.301871
C128	C	0.251756	-0.740051	0.635204
C129	C	0.585089	-0.406717	0.968537
C130	C	-0.357814	-1.073289	0.465260
C131	C	-0.024480	-0.739955	0.798593
C132	C	0.308853	-0.406622	1.131926
C133	C	-0.357807	-1.073315	0.534901
C134	C	-0.024474	-0.739981	0.868234
C135	C	0.308859	-0.406648	1.201567
C136	C	-0.357848	-0.266932	0.301841
C137	C	-0.024515	0.066401	0.635175
C138	C	0.308818	0.399734	0.968508
C139	C	-0.357869	-0.349478	0.301838
C140	C	-0.024535	-0.016145	0.635171
C141	C	0.308798	0.317188	0.968505
C142	C	-0.357790	-1.073208	0.139049
C143	C	-0.024457	-0.739875	0.472382
C144	C	0.308877	-0.406542	0.805715
C145	C	-0.357587	-1.073326	0.069408
C146	C	-0.024254	-0.739993	0.402741
C147	C	0.309079	-0.406659	0.736074
C148	C	-0.310310	-1.120839	0.567623
C149	C	0.023023	-0.787505	0.900956
C150	C	0.356357	-0.454172	1.234289
C151	C	-0.310278	-1.120838	0.633058
C152	C	0.023055	-0.787504	0.966391
C153	C	0.356389	-0.454171	1.299725
C154	C	-0.357757	-1.073321	0.665769
C155	C	-0.024423	-0.739987	0.999103
C156	C	0.308910	-0.406654	1.332436
C157	C	-0.405257	-1.025787	0.633039
C158	C	-0.071924	-0.692454	0.966373
C159	C	0.261409	-0.359121	1.299706
C160	C	-0.405282	-1.025785	0.567605
C161	C	-0.071949	-0.692451	0.900939
C162	C	0.261384	-0.359118	1.234272
C163	C	-0.424626	-1.067426	0.769441
C164	C	-0.091292	-0.734092	1.102774
C165	C	0.242041	-0.400759	1.436107
C166	C	-0.424602	-1.067434	0.834874
C167	C	-0.091268	-0.734100	1.168207
C168	C	0.242065	-0.400767	1.501540
C169	C	-0.357678	-1.073325	0.867590
C170	C	-0.024345	-0.739992	1.200923
C171	C	0.308989	-0.406659	1.534257
C172	C	-0.290777	-1.079224	0.834865
C173	C	0.042557	-0.745891	1.168199
C174	C	0.375890	-0.412558	1.501532
C175	C	-0.290802	-1.079221	0.769431
C176	C	0.042531	-0.745888	1.102765
C177	C	0.375865	-0.412555	1.436098
C178	C	-0.357734	-1.073318	0.736722
C179	C	-0.024401	-0.739985	1.070055
C180	C	0.308933	-0.406651	1.403388
C181	C	-0.310142	-1.120851	0.971264
C182	C	0.023191	-0.787517	1.304598
C183	C	0.356524	-0.454184	1.637931
C184	C	-0.310109	-1.120844	1.036701
C185	C	0.023224	-0.787511	1.370034
C186	C	0.356558	-0.454178	1.703368
C187	C	-0.405095	-1.025798	1.036681
C188	C	-0.071761	-0.692465	1.370015
C189	C	0.261572	-0.359131	1.703348
C190	C	-0.405121	-1.025800	0.971246
C191	C	-0.071788	-0.692467	1.304579
C192	C	0.261545	-0.359134	1.637913
C193	C	-0.357646	-1.073331	0.938541
C194	C	-0.024313	-0.739997	1.271875
C195	C	0.309021	-0.406664	1.605208
H196	H	-0.266154	-0.619809	0.224637
H197	H	0.067180	-0.286475	0.557970
H198	H	0.400513	0.046858	0.891303
H199	H	-0.271651	-1.159541	0.540999
H200	H	0.061682	-0.826207	0.874332
H201	H	0.395016	-0.492874	1.207665
H202	H	-0.479077	-1.062635	0.861513
H203	H	-0.145744	-0.729301	1.194846
H204	H	0.187590	-0.395968	1.528180
H205	H	-0.271596	-1.159536	0.659705
H206	H	0.061737	-0.826203	0.993039
H207	H	0.395071	-0.492869	1.326372
N208	N	-0.804124	-0.967974	0.390467
N209	N	-0.470791	-0.634640	0.723801
N210	N	-0.137457	-0.301307	1.057134
H211	H	-0.822149	-0.916830	0.378784
H212	H	-0.488816	-0.583497	0.712118
H213	H	-0.155483	-0.250164	1.045451
H214	H	-0.748177	-0.968738	0.390395
H215	H	-0.414844	-0.635404	0.723728
H216	H	-0.081511	-0.302071	1.057062
H217	H	-0.391278	-0.527250	0.196248
H218	H	-0.057945	-0.193916	0.529581
H219	H	0.275388	0.139417	0.862914
N220	N	-0.214291	-0.520228	0.334511
N221	N	0.119043	-0.186895	0.667844
N222	N	0.452376	0.146439	1.001178
H223	H	-0.200705	-0.538193	0.377734
H224	H	0.132628	-0.204860	0.711067
H225	H	0.465962	0.128474	1.044401
H226	H	-0.214771	-0.464282	0.333941
H227	H	0.118562	-0.130949	0.667275
H228	H	0.451895	0.202384	1.000608
H229	H	-0.811226	-1.039708	0.196285
H230	H	-0.477892	-0.706375	0.529618
H231	H	-0.144559	-0.373042	0.862951
N232	N	-0.463228	-0.520188	0.390376
N233	N	-0.129894	-0.186854	0.723710
N234	N	0.203439	0.146479	1.057043
H235	H	-0.450129	-0.538948	0.433466
H236	H	-0.116796	-0.205614	0.766799
H237	H	0.216537	0.127719	1.100132
H238	H	-0.514344	-0.538138	0.378603
H239	H	-0.181011	-0.204804	0.711937
H240	H	0.152323	0.128529	1.045270
H241	H	-0.324556	-0.620053	0.407383
H242	H	0.008778	-0.286720	0.740716
H243	H	0.342111	0.046614	1.074049
H244	H	-0.236328	-1.084023	0.742790
H245	H	0.097005	-0.750689	1.076123
H246	H	0.430338	-0.417356	1.409456
H247	H	-0.904003	-0.948249	0.273525
H248	H	-0.570669	-0.614916	0.606858
H249	H	-0.237336	-0.281582	0.940191
H250	H	-0.443959	-0.987081	0.540964
H251	H	-0.110626	-0.653748	0.874297
H252	H	0.222707	-0.320415	1.207630
N253	N	-0.803831	-1.216836	0.334435
N254	N	-0.470498	-0.883503	0.667768
N255	N	-0.137165	-0.550170	1.001102
H256	H	-0.821736	-1.230474	0.377653
H257	H	-0.488403	-0.897141	0.710986
H258	H	-0.155069	-0.563807	1.044319
H259	H	-0.747887	-1.216308	0.333861
H260	H	-0.414553	-0.882975	0.667194
H261	H	-0.081220	-0.549642	1.000528
N262	N	-0.501452	-0.626972	0.269178
N263	N	-0.168119	-0.293639	0.602511
N264	N	0.165214	0.039695	0.935844
H265	H	-0.521324	-0.658557	0.304352
H266	H	-0.187991	-0.325224	0.637686
H267	H	0.145343	0.008109	0.971019
H268	H	-0.497782	-0.657710	0.229865
H269	H	-0.164449	-0.324377	0.563199
H270	H	0.168885	0.008957	0.896532
N271	N	-0.910576	-1.178533	0.213106
N272	N	-0.577242	-0.845200	0.546439
N273	N	-0.243909	-0.511867	0.879772
H274	H	-0.892540	-1.164759	0.169958
H275	H	-0.559206	-0.831425	0.503291
H276	H	-0.225873	-0.498092	0.836624
H277	H	-0.966523	-1.178541	0.213676
H278	H	-0.633190	-0.845208	0.547009
H279	H	-0.299856	-0.511875	0.880342
H280	H	-0.903772	-1.106706	0.407379
H281	H	-0.570439	-0.773372	0.740713
H282	H	-0.237105	-0.440039	1.074046
N283	N	-0.218588	-1.085586	0.870142
N284	N	0.114745	-0.752253	1.203475
N285	N	0.448078	-0.418920	1.536808
H286	H	-0.228720	-1.084691	0.916559
H287	H	0.104613	-0.751357	1.249893
H288	H	0.437946	-0.418024	1.583226
H289	H	-0.185385	-1.042661	0.858687
H290	H	0.147948	-0.709327	1.192020
H291	H	0.481281	-0.375994	1.525354
H292	H	-0.271481	-1.159548	0.944635
H293	H	0.061852	-0.826215	1.277968
H294	H	0.395186	-0.492882	1.611302
H295	H	-0.443745	-0.987101	1.063314
H296	H	-0.110412	-0.653768	1.396647
H297	H	0.222921	-0.320434	1.729981
N298	N	-0.258864	-1.172091	1.071997
N299	N	0.074469	-0.838758	1.405331
N300	N	0.407803	-0.505425	1.738664
H301	H	-0.228793	-1.202197	1.041348
H302	H	0.104541	-0.868863	1.374681
H303	H	0.437874	-0.535530	1.708014
H304	H	-0.289079	-1.206443	1.099165
H305	H	0.044255	-0.873109	1.432499
H306	H	0.377588	-0.539776	1.765832
H307	H	-0.443803	-0.987105	0.944603
H308	H	-0.110470	-0.653772	1.277937
H309	H	0.222863	-0.320439	1.611270
N310	N	-0.496813	-1.061081	0.734156
N311	N	-0.163479	-0.727747	1.067490
N312	N	0.169854	-0.394414	1.400823
H313	H	-0.539189	-1.057355	0.764814
H314	H	-0.205856	-0.724022	1.098148
H315	H	0.127477	-0.390689	1.431481
H316	H	-0.503712	-1.106330	0.707025
H317	H	-0.170379	-0.772997	1.040358
H318	H	0.162954	-0.439664	1.373692
N319	N	-0.456455	-0.974524	0.668316
N320	N	-0.123122	-0.641191	1.001649
N321	N	0.210212	-0.307857	1.334983
H322	H	-0.449231	-0.981735	0.714734
H323	H	-0.115897	-0.648402	1.048068
H324	H	0.217436	-0.315069	1.381401
H325	H	-0.509503	-0.986041	0.656889
H326	H	-0.176170	-0.652707	0.990223
H327	H	0.157163	-0.319374	1.323556
