data_functionalizedCrystal
_audit_creation_method	'MofGen! by Chris Wilmer'
_symmetry_space_group_name_H-M	'P1'
_symmetry_Int_Tables_number	1
_symmetry_cell_setting	triclinic
loop_
_symmetry_equiv_pos_as_xyz
  x,y,z
_cell_length_a	19.288864
_cell_length_b	16.109301
_cell_length_c	15.186229
_cell_angle_alpha	90.005167
_cell_angle_beta	90.017200
_cell_angle_gamma	83.298863
loop_
_atom_site_label
_atom_site_type_symbol
_atom_site_fract_x
_atom_site_fract_y
_atom_site_fract_z
O1	O	0.921595	0.103714	0.073514
O2	O	0.719368	0.117705	0.073454
O3	O	0.826037	-0.010341	0.073477
O4	O	0.814926	0.231759	0.073491
O5	O	0.826029	-0.010343	-0.072981
O6	O	0.719361	0.117703	-0.073003
O7	O	0.921588	0.103712	-0.072943
Zn8	Zn	0.820473	0.110707	-0.096227
Zn9	Zn	0.820482	0.110709	0.096737
O10	O	0.814919	0.231757	-0.072966
C11	C	0.693487	0.117254	0.000218
C12	C	0.616380	0.115902	0.000194
C13	C	0.571863	0.191034	0.000213
C14	C	0.499413	0.189764	0.000222
C15	C	0.471483	0.113359	0.000231
C16	C	0.516009	0.038218	0.000208
C17	C	0.588458	0.039489	0.000190
C18	C	0.363080	0.053296	0.051568
C19	C	0.290632	0.052028	0.051592
C20	C	0.248028	0.109433	0.000284
C21	C	0.277878	0.168121	-0.051035
C22	C	0.350327	0.169393	-0.051054
C23	C	0.392925	0.111971	0.000251
C24	C	0.124952	0.183193	0.000312
C25	C	0.052501	0.181920	0.000316
C26	C	0.069099	0.030372	0.000311
C27	C	0.141548	0.031647	0.000298
C28	C	0.169470	0.108060	0.000303
C29	C	0.825583	-0.041315	0.000247
C30	C	0.824234	-0.133606	0.000246
C31	C	0.884391	-0.356084	0.000277
C32	C	0.883118	-0.442800	0.000284
C33	C	0.756559	-0.422493	0.000243
C34	C	0.757833	-0.335778	0.000243
C35	C	0.821751	-0.302577	0.000255
C36	C	0.819204	-0.476007	0.000263
C37	C	0.817823	-0.570028	0.000270
C38	C	0.823133	-0.208549	0.000250
C39	C	0.947469	0.104163	0.000295
C40	C	1.024576	0.105514	0.000324
C41	C	0.815372	0.262732	0.000265
C42	C	0.816722	0.355022	0.000273
N43	N	0.820472	0.110705	-0.227919
C44	C	0.867721	0.054025	-0.453632
C45	C	0.867723	0.054023	-0.545822
C46	C	0.773235	0.167387	-0.545851
C47	C	0.773230	0.167385	-0.453663
C48	C	0.820477	0.110705	-0.407556
C49	C	0.820484	0.110705	-0.591934
C50	C	0.820486	0.110704	-0.691890
C51	C	0.820474	0.110705	-0.307593
N52	N	0.820489	0.110705	0.228430
H53	H	0.147687	0.245413	0.000303
H54	H	0.046359	-0.031839	0.000373
H55	H	0.704519	-0.449537	0.000231
N56	N	0.953329	-0.320274	0.000292
H57	H	0.980773	-0.339796	0.054594
H58	H	0.944575	-0.257227	0.000251
H59	H	0.906191	0.007872	-0.416094
H60	H	0.934126	-0.486363	0.000304
N61	N	0.722265	0.228518	-0.403966
H62	H	0.730248	0.287505	-0.419994
H63	H	0.729453	0.219842	-0.338585
H64	H	0.706821	-0.292210	0.000227
N65	N	0.918688	-0.007097	-0.595519
H66	H	0.948619	-0.042997	-0.552319
H67	H	0.949381	0.024653	-0.633744
H68	H	0.266334	0.004244	0.093383
H69	H	0.397763	0.006548	0.093354
H70	H	0.177795	-0.029534	0.000287
N71	N	0.722278	0.228518	-0.595581
H72	H	0.729450	0.219922	-0.660974
H73	H	0.730286	0.287475	-0.579454
H74	H	0.463160	0.250947	0.000235
N75	N	0.601979	0.273446	0.000224
H76	H	0.562779	0.320850	0.000240
H77	H	0.631656	0.277283	-0.054074
H78	H	0.493264	-0.023992	0.000227
H79	H	0.243191	0.214866	-0.092815
N80	N	0.382529	0.232677	-0.106407
H81	H	0.363526	0.290957	-0.087251
H82	H	0.370738	0.224635	-0.170412
N83	N	0.004481	0.262959	0.000266
H84	H	0.033167	0.311555	0.000247
H85	H	-0.025945	0.265770	0.054544
H86	H	0.624704	-0.021694	0.000175
