data_functionalizedCrystal
_audit_creation_method	'MofGen! by Chris Wilmer'
_symmetry_space_group_name_H-M	'P1'
_symmetry_Int_Tables_number	1
_symmetry_cell_setting	triclinic
loop_
_symmetry_equiv_pos_as_xyz
  x,y,z
_cell_length_a	19.288864
_cell_length_b	10.654550
_cell_length_c	17.766277
_cell_angle_alpha	89.994852
_cell_angle_beta	89.976791
_cell_angle_gamma	83.810575
loop_
_atom_site_label
_atom_site_type_symbol
_atom_site_fract_x
_atom_site_fract_y
_atom_site_fract_z
O1	O	0.922379	0.156657	-0.062834
O2	O	1.422379	0.656657	0.437166
O3	O	0.720257	0.177789	-0.062782
O4	O	1.220257	0.677789	0.437218
O5	O	0.825965	-0.015616	-0.062807
O6	O	1.325965	0.484384	0.437193
O7	O	0.816670	0.350062	-0.062810
O8	O	1.316670	0.850062	0.437190
O9	O	0.825946	-0.015625	0.062382
O10	O	1.325946	0.484375	0.562382
O11	O	0.720238	0.177780	0.062406
O12	O	1.220238	0.677780	0.562406
O13	O	0.922360	0.156647	0.062355
O14	O	1.422360	0.656647	0.562355
Cu15	Cu	0.821297	0.167212	0.073811
Cu16	Cu	1.321297	0.667212	0.573811
Cu17	Cu	0.821319	0.167224	-0.074239
Cu18	Cu	1.321319	0.667224	0.425761
O19	O	0.816652	0.350052	0.062379
O20	O	1.316652	0.850052	0.562379
C21	C	0.694366	0.177105	-0.000181
C22	C	1.194366	0.677105	0.499819
C23	C	0.617249	0.175063	-0.000162
C24	C	1.117249	0.675063	0.499838
C25	C	0.573296	0.288545	-0.000175
C26	C	1.073296	0.788545	0.499825
C27	C	0.500836	0.286627	-0.000183
C28	C	1.000836	0.786627	0.499817
C29	C	0.472333	0.171222	-0.000193
C30	C	0.972333	0.671222	0.499807
C31	C	0.516296	0.057725	-0.000176
C32	C	1.016296	0.557725	0.499824
C33	C	0.588754	0.059646	-0.000160
C34	C	1.088754	0.559646	0.499840
C35	C	0.363484	0.080503	-0.044077
C36	C	0.863484	0.580503	0.455923
C37	C	0.291027	0.078587	-0.044098
C38	C	0.791027	0.578587	0.455902
C39	C	0.248849	0.165292	-0.000239
C40	C	0.748849	0.665292	0.499761
C41	C	0.279135	0.253934	0.043630
C42	C	0.779135	0.753934	0.543630
C43	C	0.351593	0.255855	0.043646
C44	C	0.851593	0.755855	0.543646
C45	C	0.393766	0.169126	-0.000210
C46	C	0.893766	0.669126	0.499790
C47	C	0.126326	0.276702	-0.000260
C48	C	0.626326	0.776702	0.499740
C49	C	0.053865	0.274779	-0.000263
C50	C	0.553865	0.774779	0.499737
C51	C	0.069327	0.045875	-0.000264
C52	C	0.569327	0.545875	0.499736
C53	C	0.141786	0.047800	-0.000253
C54	C	0.641786	0.547800	0.499747
C55	C	0.170281	0.163217	-0.000254
C56	C	0.670281	0.663217	0.499746
C57	C	0.825273	-0.062404	-0.000213
C58	C	1.325273	0.437596	0.499787
C59	C	0.823231	-0.201803	-0.000215
C60	C	1.323231	0.298197	0.499785
C61	C	0.885471	-0.282621	-0.000229
C62	C	1.385471	0.217379	0.499771
C63	C	0.883548	-0.413601	-0.000234
C64	C	1.383548	0.086399	0.499766
C65	C	0.757141	-0.382932	-0.000208
C66	C	1.257141	0.117068	0.499792
C67	C	0.759065	-0.251955	-0.000208
C68	C	1.259065	0.248045	0.499792
C69	C	0.949637	-0.232470	-0.000235
C70	C	1.449637	0.267530	0.499765
C71	C	1.011882	-0.313290	-0.000248
C72	C	1.511882	0.186710	0.499752
C73	C	1.009959	-0.444269	-0.000253
C74	C	1.509959	0.055731	0.499747
C75	C	0.945792	-0.494429	-0.000245
C76	C	1.445792	0.005571	0.499755
C77	C	0.948250	0.157332	-0.000248
C78	C	1.448250	0.657332	0.499752
C79	C	1.025367	0.159373	-0.000273
C80	C	1.525367	0.659373	0.499727
C81	C	0.817344	0.396840	-0.000216
C82	C	1.317344	0.896840	0.499784
C83	C	0.819385	0.536240	-0.000219
C84	C	1.319385	1.036240	0.499781
N85	N	0.821287	0.167203	0.177941
N86	N	1.321287	0.667203	0.677941
N87	N	0.821335	0.167223	-0.178369
N88	N	1.321335	0.667223	0.321631
C89	C	0.868110	0.081606	0.217318
C90	C	1.368110	0.581606	0.717318
C91	C	0.868114	0.081600	0.296119
C92	C	1.368114	0.581600	0.796119
C93	C	0.821301	0.167213	0.335542
C94	C	1.321301	0.667213	0.835542
C95	C	0.774469	0.252818	0.296156
C96	C	1.274469	0.752818	0.796156
C97	C	0.774462	0.252813	0.217356
C98	C	1.274462	0.752813	0.717356
C99	C	0.812752	0.281634	0.460380
C100	C	1.312752	0.781634	0.960380
C101	C	0.812764	0.281641	0.539179
C102	C	1.312764	0.781641	1.039179
C103	C	0.821320	0.167229	0.578588
C104	C	1.321320	0.667229	1.078588
C105	C	0.829879	0.052804	0.539189
C106	C	1.329879	0.552804	1.039189
C107	C	0.829871	0.052799	0.460389
C108	C	1.329871	0.552799	0.960389
C109	C	0.821304	0.167228	0.420988
C110	C	1.321304	0.667228	0.920988
C111	C	0.868150	0.081617	0.703410
C112	C	1.368150	0.581617	1.203410
C113	C	0.868149	0.081610	0.782214
C114	C	1.368149	0.581610	1.282214
C115	C	0.774508	0.252839	0.782249
C116	C	1.274508	0.752839	1.282249
C117	C	0.774506	0.252835	0.703447
C118	C	1.274506	0.752835	1.203447
C119	C	0.821330	0.167226	0.664033
C120	C	1.321330	0.667226	1.164033
H121	H	0.149528	0.370681	-0.000250
H122	H	0.649528	0.870681	0.499750
H123	H	0.836845	-0.040361	0.571274
H124	H	1.336845	0.459639	1.071274
H125	H	1.064124	-0.272440	-0.000274
H126	H	1.564124	0.227560	0.499726
O127	O	0.687939	-0.437038	-0.000187
O128	O	1.187939	0.062962	0.499813
H129	H	0.658008	-0.404557	-0.051207
H130	H	1.158008	0.095443	0.448793
H131	H	0.906275	0.011905	0.671318
H132	H	1.406275	0.511905	1.171318
O133	O	0.943720	-0.635702	-0.000247
O134	O	1.443720	-0.135702	0.499753
H135	H	0.915942	-0.663615	-0.051267
H136	H	1.415942	-0.163615	0.448733
O137	O	0.803547	0.405048	0.581673
O138	O	1.303547	0.905048	1.081673
H139	H	0.797587	0.484605	0.541033
H140	H	1.297587	0.984605	1.041033
H141	H	0.736390	0.322542	0.814346
H142	H	1.236390	0.822542	1.314346
H143	H	0.708384	-0.186150	-0.000196
H144	H	1.208384	0.313850	0.499804
O145	O	0.189199	-0.074599	-0.000243
O146	O	0.689199	0.425401	0.499757
H147	H	0.179033	-0.129843	-0.051272
H148	H	0.679033	0.370157	0.448728
O149	O	0.918602	-0.010741	0.174804
O150	O	1.418602	0.489259	0.674804
H151	H	0.951157	-0.070274	0.215429
H152	H	1.451157	0.429726	0.715429
O153	O	0.918661	-0.010705	0.824690
O154	O	1.418661	0.489295	1.324690
H155	H	0.951224	-0.070217	0.784041
H156	H	1.451224	0.429783	1.284041
O157	O	0.038595	-0.078603	-0.000266
O158	O	0.538595	0.421397	0.499734
H159	H	0.056240	-0.133121	-0.051283
H160	H	0.556240	0.366879	0.448717
H161	H	1.060642	-0.510069	-0.000271
H162	H	1.560642	-0.010069	0.499729
O163	O	0.453416	0.409028	-0.000205
O164	O	0.953416	0.909028	0.499795
H165	H	0.485403	0.489605	-0.000208
H166	H	0.985403	0.989605	0.499792
H167	H	0.736380	0.322542	0.671385
H168	H	1.236380	0.822542	1.171385
H169	H	0.266373	0.006415	-0.079822
H170	H	0.766373	0.506415	0.420178
O171	O	0.838966	-0.070683	0.417966
O172	O	1.338966	0.429317	0.917966
H173	H	0.792478	-0.078415	0.382159
H174	H	1.292478	0.421585	0.882159
O175	O	0.723988	0.345169	0.338679
O176	O	1.223988	0.845169	0.838679
H177	H	0.733309	0.443019	0.323532
H178	H	1.233309	0.943019	0.823532
H179	H	0.596492	0.382526	-0.000177
H180	H	1.096492	0.882526	0.499823
O181	O	0.636168	-0.062755	-0.000150
O182	O	1.136168	0.437245	0.499850
H183	H	0.604179	-0.143330	-0.000161
H184	H	1.104179	0.356670	0.499839
H185	H	0.906244	0.011893	0.328185
H186	H	1.406244	0.511893	0.828185
H187	H	0.805772	0.374809	0.428300
H188	H	1.305772	0.874809	0.928300
H189	H	0.736332	0.322518	0.185295
H190	H	1.236332	0.822518	0.685295
H191	H	0.376250	0.328027	0.079369
H192	H	0.876250	0.828027	0.579369
H193	H	0.244795	0.324537	0.079345
H194	H	0.744795	0.824537	0.579345
H195	H	0.018079	0.367194	-0.000269
H196	H	0.518079	0.867194	0.499731
H197	H	0.397820	0.009895	-0.079796
H198	H	0.897820	0.509895	0.420204
O199	O	0.485560	-0.066752	-0.000188
O200	O	0.985560	0.433248	0.499812
H201	H	0.427791	-0.049024	-0.000209
H202	H	0.927791	0.450976	0.499791
H203	H	0.951210	-0.125822	-0.000229
H204	H	1.451210	0.374178	0.499771
