data_functionalizedCrystal
_audit_creation_method	'MofGen! by Chris Wilmer'
_symmetry_space_group_name_H-M	'P1'
_symmetry_Int_Tables_number	1
_symmetry_cell_setting	triclinic
loop_
_symmetry_equiv_pos_as_xyz
  x,y,z
_cell_length_a	12.759401
_cell_length_b	10.686285
_cell_length_c	10.685986
_cell_angle_alpha	81.587410
_cell_angle_beta	94.349831
_cell_angle_gamma	85.633237
loop_
_atom_site_label
_atom_site_type_symbol
_atom_site_fract_x
_atom_site_fract_y
_atom_site_fract_z
Zn1	Zn	1.591741	-0.450107	-0.678989
Zn2	Zn	1.620837	-0.678689	-0.450488
Zn3	Zn	1.430628	-0.466469	-0.466754
Zn4	Zn	1.430648	-0.662309	-0.662692
O5	O	1.518464	-0.564394	-0.564731
O6	O	1.742621	-0.480437	-0.648692
O7	O	1.607774	-0.664240	-0.275017
O8	O	1.439815	-0.286676	-0.508535
O9	O	1.763998	-0.648375	-0.480813
O10	O	1.558184	-0.274655	-0.664464
O11	O	1.468029	-0.508323	-0.286967
O12	O	1.283610	-0.492440	-0.492732
O13	O	1.439849	-0.620458	-0.842483
O14	O	1.283625	-0.636323	-0.636687
O15	O	1.558203	-0.464554	-0.854457
O16	O	1.607793	-0.854139	-0.465010
O17	O	1.468063	-0.842105	-0.620915
C18	C	1.245497	-0.564380	-0.564707
C19	C	1.128721	-0.564402	-0.564724
C20	C	1.541114	-0.894175	-0.539457
C21	C	1.550897	-1.035254	-0.528687
C22	C	1.073911	-0.639456	-0.639544
C23	C	0.964186	-0.639459	-0.639569
C24	C	0.964089	-0.489352	-0.489943
C25	C	1.073812	-0.489343	-0.489926
C26	C	1.792496	-0.564408	-0.564756
C27	C	1.909273	-0.564414	-0.564766
C28	C	1.495783	-0.538853	-0.895815
C29	C	1.486117	-0.527970	-1.036903
C30	C	1.495752	-0.233322	-0.590132
C31	C	1.486073	-0.092239	-0.600956
C32	C	1.541111	-0.589743	-0.234942
C33	C	1.550955	-0.600269	-0.093882
H34	H	1.118614	-0.700570	-0.700453
H35	H	0.919564	-0.700573	-0.700497
H36	H	1.613861	-0.670482	-1.034728
H37	H	0.919370	-0.428244	-0.429043
H38	H	1.423214	-0.457741	-1.096065
H39	H	1.118439	-0.428218	-0.428999
Cl40	Cl	1.388830	-1.000932	-0.709211
H41	H	1.613877	-1.094403	-0.458560
