data_functionalizedCrystal
_audit_creation_method	'MofGen! by Chris Wilmer'
_symmetry_space_group_name_H-M	'P1'
_symmetry_Int_Tables_number	1
_symmetry_cell_setting	triclinic
loop_
_symmetry_equiv_pos_as_xyz
  x,y,z
_cell_length_a	10.540491
_cell_length_b	14.853566
_cell_length_c	13.930277
_cell_angle_alpha	90.001956
_cell_angle_beta	89.999603
_cell_angle_gamma	95.929960
loop_
_atom_site_label
_atom_site_type_symbol
_atom_site_fract_x
_atom_site_fract_y
_atom_site_fract_z
O1	O	-0.165719	1.197265	0.079765
O2	O	-0.185463	0.934913	0.079780
O3	O	0.009186	1.072097	0.079769
O4	O	-0.360367	1.060081	0.079776
O5	O	0.009180	1.072084	-0.079893
O6	O	-0.185468	0.934899	-0.079882
O7	O	-0.165724	1.197252	-0.079897
Zn8	Zn	-0.175597	1.066073	-0.105239
Zn9	Zn	-0.175590	1.066091	0.105122
O10	O	-0.360373	1.060067	-0.079886
C11	C	-0.184571	0.901313	-0.000049
C12	C	-0.181891	0.801214	-0.000043
C13	C	0.056477	1.071199	-0.000061
C14	C	0.197399	1.068530	-0.000057
C15	C	0.415905	1.163836	-0.000432
C16	C	0.269340	1.166682	-0.000065
C17	C	0.241608	1.018297	0.091118
C18	C	0.388346	1.016146	0.091187
C19	C	0.388126	1.014087	-0.090378
C20	C	0.241835	1.018735	-0.091576
C21	C	0.592338	1.060978	-0.000058
C22	C	0.451423	1.063682	-0.000067
C23	C	-0.170553	0.377975	0.086972
C24	C	-0.170559	0.377982	-0.087098
C25	C	-0.173076	0.472029	-0.087095
C26	C	-0.174333	0.519054	-0.000057
C27	C	-0.173073	0.472031	0.086977
C28	C	-0.174349	0.519058	-0.174128
C29	C	-0.176867	0.613112	-0.174128
C30	C	-0.178115	0.660139	-0.087090
C31	C	-0.176854	0.613110	-0.000051
C32	C	-0.178111	0.660135	0.086986
C33	C	-0.176840	0.613109	0.174025
C34	C	-0.174321	0.519059	0.174016
C35	C	-0.180634	0.754189	-0.087080
C36	C	-0.180632	0.754191	0.086992
C37	C	-0.166616	1.230852	-0.000066
C38	C	-0.169296	1.330950	-0.000066
N39	N	-0.175601	1.066068	-0.248805
C40	C	-0.261765	1.005314	-0.299063
C41	C	-0.089432	1.126827	-0.299052
C42	C	-0.089427	1.126837	-0.399548
C43	C	-0.175591	1.066083	-0.449806
C44	C	-0.261760	1.005320	-0.399569
C45	C	-0.003251	1.187593	-0.449793
C46	C	-0.003241	1.187604	-0.550295
C47	C	-0.089412	1.126854	-0.600555
C48	C	-0.175586	1.066089	-0.550311
C49	C	-0.261750	1.005335	-0.600569
C50	C	-0.347931	0.944574	-0.550327
C51	C	-0.347931	0.944570	-0.449829
C52	C	-0.089412	1.126858	-0.701054
C53	C	-0.261745	1.005341	-0.701074
N54	N	-0.175576	1.066104	0.248688
H55	H	0.240426	1.205987	-0.065422
F56	F	-0.353461	0.940681	-0.754555
F57	F	-0.169171	0.327930	0.179600
H58	H	0.066930	1.237079	-0.591195
H59	H	-0.169545	0.339688	-0.157960
H60	H	-0.177899	0.651393	-0.245001
F61	F	0.002309	1.191515	-0.754518
F62	F	0.002273	1.191477	-0.245564
F63	F	-0.439623	0.879912	-0.603827
H64	H	0.428943	1.050490	0.159338
H65	H	-0.418096	0.895099	-0.408915
F66	F	0.204951	1.066504	-0.179742
F67	F	0.473318	1.213540	0.084543
F68	F	0.176673	0.925069	-0.098768
H69	H	0.409465	0.940397	-0.090989
F70	F	0.232777	1.218367	0.085507
F71	F	0.471289	1.213814	-0.085899
H72	H	0.211138	1.053194	0.158967
F73	F	-0.353486	0.940653	-0.245595
H74	H	-0.173286	0.480762	0.244879
H75	H	0.410534	0.942738	0.095322
H76	H	-0.181651	0.792473	0.157869
H77	H	0.066908	1.237052	-0.408869
H78	H	0.193423	0.946040	0.094513
H79	H	0.430649	1.045273	-0.159490
H80	H	-0.177873	0.651408	0.244891
F81	F	-0.173025	0.469006	-0.266752
F82	F	-0.181995	0.804233	-0.179707
