data_functionalizedCrystal
_audit_creation_method	'MofGen! by Chris Wilmer'
_symmetry_space_group_name_H-M	'P1'
_symmetry_Int_Tables_number	1
_symmetry_cell_setting	triclinic
loop_
_symmetry_equiv_pos_as_xyz
  x,y,z
_cell_length_a	13.033409
_cell_length_b	13.033855
_cell_length_c	12.759393
_cell_angle_alpha	97.208808
_cell_angle_beta	82.829454
_cell_angle_gamma	76.696889
loop_
_atom_site_label
_atom_site_type_symbol
_atom_site_fract_x
_atom_site_fract_y
_atom_site_fract_z
Zn1	Zn	1.677436	-0.628781	0.299213
Zn2	Zn	2.177436	-0.128781	0.799213
Zn3	Zn	1.699904	-0.806410	0.097996
Zn4	Zn	2.199904	-0.306410	0.597996
Zn5	Zn	1.499836	-0.606304	0.149135
Zn6	Zn	1.999836	-0.106304	0.649135
Zn7	Zn	1.522381	-0.783807	0.299226
Zn8	Zn	2.022381	-0.283807	0.799226
O9	O	1.599889	-0.706326	0.211393
O10	O	2.099889	-0.206326	0.711393
O11	O	1.829037	-0.671211	0.251114
O12	O	2.329037	-0.171211	0.751114
O13	O	1.673332	-0.779918	-0.042244
O14	O	2.173332	-0.279918	0.457756
O15	O	1.504557	-0.460661	0.190440
O16	O	2.004557	0.039339	0.690440
O17	O	1.845544	-0.801714	0.103281
O18	O	2.345544	-0.301714	0.603281
O19	O	1.635039	-0.477176	0.300702
O20	O	2.135039	0.022824	0.800702
O21	O	1.526343	-0.632901	-0.004672
O22	O	2.026343	-0.132901	0.495328
O23	O	1.354207	-0.610983	0.190453
O24	O	1.854207	-0.110983	0.690453
O25	O	1.542982	-0.763190	0.446248
O26	O	2.042982	-0.263190	0.946248
O27	O	1.370771	-0.741394	0.300724
O28	O	1.870771	-0.241394	0.800724
O29	O	1.656901	-0.649293	0.446239
O30	O	2.156901	-0.149293	0.946239
O31	O	1.695193	-0.952036	0.103293
O32	O	2.195193	-0.452036	0.603293
O33	O	1.564768	-0.935429	0.251136
O34	O	2.064768	-0.435429	0.751136
C35	C	1.323953	-0.671298	0.251140
C36	C	1.823953	-0.171298	0.751140
C37	C	1.205910	-0.656338	0.268165
C38	C	1.705910	-0.156338	0.768165
C39	C	1.039429	-0.698679	0.220123
C40	C	1.539429	-0.198679	0.720123
C41	C	1.161434	-0.714144	0.202521
C42	C	1.661434	-0.214144	0.702521
C43	C	1.634894	-0.982273	0.171686
C44	C	2.134894	-0.482273	0.671686
C45	C	1.649966	-1.100337	0.154720
C46	C	2.149966	-0.600337	0.654720
C47	C	1.592106	-1.144785	0.220256
C48	C	2.092106	-0.644785	0.720256
C49	C	1.607683	-1.266810	0.202723
C50	C	2.107683	-0.766810	0.702723
C51	C	1.876903	-0.741491	0.171491
C52	C	2.376903	-0.241491	0.671491
C53	C	1.994950	-0.756476	0.154488
C54	C	2.494950	-0.256476	0.654488
C55	C	1.599950	-0.706228	0.485431
C56	C	2.099950	-0.206228	0.985431
C57	C	1.599976	-0.706186	0.602210
C58	C	2.099976	-0.206186	1.102210
C59	C	1.564777	-0.429304	0.251274
C60	C	2.064777	0.070696	0.751274
C61	C	1.549814	-0.311254	0.268269
C62	C	2.049814	0.188746	0.768269
C63	C	1.599880	-0.706354	-0.061577
C64	C	2.099880	-0.206354	0.438423
C65	C	1.600022	-0.706123	-0.178342
C66	C	2.100022	-0.206123	0.321658
C67	C	1.659302	-0.646875	0.657068
C68	C	2.159302	-0.146875	1.157068
C69	C	1.659322	-0.646840	0.766794
C70	C	2.159322	-0.146840	1.266794
C71	C	1.540689	-0.765436	0.766793
C72	C	2.040689	-0.265436	1.266793
C73	C	1.540664	-0.765464	0.657070
C74	C	2.040664	-0.265464	1.157070
C75	C	1.727797	-0.578408	0.657069
C76	C	2.227797	-0.078408	1.157069
C77	C	1.727818	-0.578373	0.766795
C78	C	2.227818	-0.078373	1.266795
H79	H	1.213674	-0.775086	0.133297
H80	H	1.713674	-0.275086	0.633297
C81	C	1.135342	-0.574017	0.361694
C82	C	1.635342	-0.074017	0.861694
N83	N	1.082190	-0.512014	0.432139
N84	N	1.582190	-0.012014	0.932139
H85	H	1.812872	-0.610840	0.781552
H86	H	2.312872	-0.110840	1.281552
H87	H	1.047194	-0.817414	0.085269
H88	H	1.547194	-0.317414	0.585269
H89	H	0.987187	-0.637751	0.289350
H90	H	1.487187	-0.137751	0.789350
H91	H	1.695339	-0.493361	0.642315
H92	H	2.195339	0.006639	1.142315
C93	C	1.509604	-1.074156	0.313595
C94	C	2.009604	-0.574156	0.813595
N95	N	1.447463	-1.020959	0.383901
N96	N	1.947463	-0.520959	0.883901
H97	H	1.668752	-1.319091	0.133627
H98	H	2.168752	-0.819091	0.633627
C99	C	1.467307	-1.240631	0.361612
C100	C	1.967307	-0.740631	0.861612
N101	N	1.405165	-1.187436	0.431919
N102	N	1.905165	-0.687436	0.931919
C103	C	1.732466	-1.170966	0.061380
C104	C	2.232466	-0.670966	0.561380
N105	N	1.794607	-1.224162	-0.008926
N106	N	2.294607	-0.724162	0.491074
H107	H	1.492351	-0.813757	0.612410
H108	H	1.992351	-0.313757	1.112410
H109	H	1.809656	-0.617806	0.607536
H110	H	2.309656	-0.117806	1.107536
C111	C	1.475447	-0.830637	0.827150
C112	C	1.975447	-0.330637	1.327150
N113	N	1.426305	-0.879747	0.872611
N114	N	1.926305	-0.379747	1.372611
H115	H	1.688456	-0.496484	0.816325
H116	H	2.188456	0.003516	1.316325
