data_functionalizedCrystal
_audit_creation_method	'MofGen! by Chris Wilmer'
_symmetry_space_group_name_H-M	'P1'
_symmetry_Int_Tables_number	1
_symmetry_cell_setting	triclinic
loop_
_symmetry_equiv_pos_as_xyz
  x,y,z
_cell_length_a	13.339070
_cell_length_b	14.044220
_cell_length_c	12.376457
_cell_angle_alpha	102.319698
_cell_angle_beta	75.589755
_cell_angle_gamma	104.409086
loop_
_atom_site_label
_atom_site_type_symbol
_atom_site_fract_x
_atom_site_fract_y
_atom_site_fract_z
O1	O	1.404410	0.473359	-0.094060
O2	O	1.104116	0.409471	-0.094052
O3	O	1.249753	0.302247	-0.094045
O4	O	1.258772	0.580583	-0.094067
O5	O	1.213353	0.329006	0.093966
O6	O	1.067716	0.436230	0.093959
O7	O	1.368010	0.500118	0.093950
Zn8	Zn	1.212084	0.472423	0.123805
Zn9	Zn	1.260042	0.437166	-0.123907
O10	O	1.222373	0.607343	0.093943
C11	C	1.047253	0.412059	-0.000045
C12	C	0.932047	0.379891	-0.000042
C13	C	0.589833	0.630012	-0.000080
C14	C	0.698075	0.660238	-0.000087
C15	C	0.756573	0.590154	-0.000075
C16	C	0.706819	0.489838	-0.000057
C17	C	0.598569	0.459608	-0.000059
C18	C	0.765309	0.419750	-0.000054
C19	C	0.715555	0.319434	-0.000037
C20	C	0.607315	0.289209	-0.000038
C21	C	0.548816	0.359293	-0.000049
C22	C	0.873559	0.449980	-0.000053
C23	C	0.882295	0.279576	-0.000032
C24	C	0.774053	0.249350	-0.000025
C25	C	1.227607	0.279274	-0.000039
C26	C	1.215836	0.170953	-0.000037
C27	C	1.194321	-0.027370	-0.000053
C28	C	1.277803	-0.063049	-0.000059
C29	C	1.265831	-0.173403	-0.000068
C30	C	1.206291	0.082993	-0.000044
C31	C	1.424874	0.497530	-0.000059
C32	C	1.540081	0.529697	-0.000070
C33	C	1.244519	0.630315	-0.000065
C34	C	1.256291	0.738635	-0.000074
N35	N	1.179361	0.496486	0.292862
N36	N	1.292772	0.413098	-0.292964
C37	C	1.368731	0.357221	0.647856
C38	C	1.391627	0.340378	0.529517
C39	C	1.338563	0.379403	0.470347
C40	C	1.262597	0.435275	0.529528
C41	C	1.239704	0.452127	0.647878
C42	C	1.209536	0.474309	0.470370
C43	C	1.133571	0.530180	0.529551
C44	C	1.110681	0.547029	0.647889
C45	C	1.163746	0.508003	0.707059
C46	C	1.232429	0.457457	0.352020
C47	C	1.103403	0.552362	0.352042
C48	C	1.080506	0.569206	0.470381
H49	H	0.738578	0.741913	-0.000110
N50	N	1.093391	-0.093025	-0.000032
N51	N	1.051157	-0.141519	0.079223
H52	H	0.979876	-0.187899	0.079243
N53	N	0.530069	0.701575	-0.000116
N54	N	0.433427	0.674566	-0.000131
H55	H	0.391217	0.725112	-0.000162
H56	H	0.844709	0.614769	-0.000084
N57	N	1.378737	0.002608	-0.000055
N58	N	1.388447	0.093459	-0.000044
H59	H	1.459728	0.139835	-0.000037
H60	H	0.460676	0.334688	-0.000043
H61	H	0.566811	0.207524	-0.000036
H62	H	1.294281	0.411966	0.303845
H63	H	0.733530	0.167670	-0.000020
H64	H	1.357209	0.365687	0.373991
N65	N	0.942055	0.207990	-0.000028
N66	N	1.038700	0.234993	-0.000027
H67	H	1.080913	0.184440	-0.000027
H68	H	1.018654	0.614698	0.518581
N69	N	0.924353	0.552449	-0.000050
N70	N	0.893981	0.617396	0.079196
H71	H	0.929852	0.689772	0.079202
N72	N	1.469334	0.283435	0.469087
N73	N	1.516781	0.248678	0.521925
H74	H	1.571707	0.208504	0.479246
N75	N	1.140329	0.525184	0.827943
N76	N	1.048597	0.495528	0.880760
H77	H	1.032055	0.507650	0.966137
H78	H	1.411935	0.325458	0.696039
H79	H	1.048834	0.592532	0.696075
N80	N	1.049210	0.592233	0.291598
N81	N	1.069662	0.577183	0.185935
H82	H	1.031396	0.605342	0.143238
