data_functionalizedCrystal
_audit_creation_method	'MofGen! by Chris Wilmer'
_symmetry_space_group_name_H-M	'P1'
_symmetry_Int_Tables_number	1
_symmetry_cell_setting	triclinic
loop_
_symmetry_equiv_pos_as_xyz
  x,y,z
_cell_length_a	15.944551
_cell_length_b	9.130313
_cell_length_c	10.654550
_cell_angle_alpha	89.998405
_cell_angle_beta	96.008167
_cell_angle_gamma	89.999033
loop_
_atom_site_label
_atom_site_type_symbol
_atom_site_fract_x
_atom_site_fract_y
_atom_site_fract_z
O1	O	-1.115460	-0.121637	0.161966
O2	O	-0.871026	-0.121672	0.181935
O3	O	-0.998863	-0.121655	-0.010862
O4	O	-0.987623	-0.121654	0.354762
O5	O	-0.998855	0.121944	-0.010867
O6	O	-0.871018	0.121927	0.181929
O7	O	-1.115452	0.121962	0.161961
Cu8	Cu	-0.993234	0.144187	0.171944
Cu9	Cu	-0.993244	-0.143897	0.171951
O10	O	-0.987615	0.121945	0.354757
C11	C	-0.839723	0.000123	0.181103
C12	C	-0.746463	0.000109	0.178618
C13	C	-0.998034	0.000141	-0.057652
C14	C	-0.995565	0.000131	-0.197063
C15	C	-1.146755	0.000164	0.162792
C16	C	-1.240015	0.000168	0.165278
N17	N	-0.993233	0.346809	0.171939
C18	C	-0.530880	0.000137	0.053173
C19	C	-0.470201	-0.119970	0.111428
C20	C	-0.575711	0.000126	0.174122
C21	C	-0.470215	0.120199	0.111451
C22	C	-0.410773	0.000149	0.169770
C23	C	-0.516261	-0.120080	0.232410
C24	C	-0.516281	0.120197	0.232416
C25	C	-0.455620	0.000061	0.290759
C26	C	-0.670728	0.000111	0.176625
C27	C	-0.315757	0.000153	0.167276
N28	N	-0.993252	-0.346520	0.171946
C29	C	-1.049858	0.423469	0.086604
C30	C	-1.049866	0.576806	0.086605
C31	C	-0.936620	0.576810	0.257285
C32	C	-0.936609	0.423476	0.257278
C33	C	-0.992080	-0.132645	-0.393555
C34	C	-0.994409	-0.132653	-0.262565
C35	C	-0.994400	0.132932	-0.262559
C36	C	-0.992078	0.132939	-0.393548
C37	C	-0.988444	0.000145	0.401547
C38	C	-0.990913	0.000146	0.540958
H39	H	-0.563632	-0.000012	-0.047204
H40	H	-0.890520	0.639247	0.326768
H41	H	-0.995360	-0.240785	-0.209252
H42	H	-1.095975	0.639218	0.017116
O43	O	-0.543354	0.254706	0.300105
H44	H	-0.487139	0.322310	0.331196
H45	H	-1.095963	0.361051	0.017115
H46	H	-0.995346	0.241046	-0.209218
O47	O	-0.875524	0.340774	0.349308
H48	H	-0.911223	0.270881	0.410369
H49	H	-0.991132	-0.240773	-0.446876
O50	O	-0.990816	0.276169	-0.464195
H51	H	-0.992002	0.368507	-0.396646
H52	H	-0.536548	-0.221732	0.283530
O53	O	-0.443159	-0.254467	0.043677
H54	H	-0.473571	-0.254220	-0.054915
O55	O	-0.412472	0.000002	0.423859
H56	H	-0.430923	-0.099787	0.473754
H57	H	-0.449829	0.221737	0.060270
