data_functionalizedCrystal
_audit_creation_method	'MofGen! by Chris Wilmer'
_symmetry_space_group_name_H-M	'P1'
_symmetry_Int_Tables_number	1
_symmetry_cell_setting	triclinic
loop_
_symmetry_equiv_pos_as_xyz
  x,y,z
_cell_length_a	14.908795
_cell_length_b	29.839131
_cell_length_c	14.908308
_cell_angle_alpha	93.253999
_cell_angle_beta	89.788666
_cell_angle_gamma	93.324927
loop_
_atom_site_label
_atom_site_type_symbol
_atom_site_fract_x
_atom_site_fract_y
_atom_site_fract_z
Zn1	Zn	1.345235	-0.157137	-0.587763
Zn2	Zn	1.845235	0.342863	-0.087763
Zn3	Zn	1.353781	-0.227703	-0.437373
Zn4	Zn	1.853781	0.272297	0.062627
Zn5	Zn	1.203549	-0.156651	-0.428735
Zn6	Zn	1.703549	0.343349	0.071265
Zn7	Zn	1.194802	-0.236305	-0.578991
Zn8	Zn	1.694802	0.263695	-0.078991
O9	O	1.274342	-0.194449	-0.508215
O10	O	1.774342	0.305551	-0.008215
O11	O	1.472198	-0.163102	-0.575100
O12	O	1.972198	0.336898	-0.075100
O13	O	1.341089	-0.214474	-0.310405
O14	O	1.841089	0.285526	0.189595
O15	O	1.222428	-0.093847	-0.449887
O16	O	1.722428	0.406153	0.050113
O17	O	1.478477	-0.214946	-0.464609
O18	O	1.978477	0.285054	0.035391
O19	O	1.326524	-0.094205	-0.566724
O20	O	1.826524	0.405795	-0.066724
O21	O	1.230714	-0.162272	-0.304059
O22	O	1.730714	0.337728	0.195941
O23	O	1.076559	-0.170613	-0.441380
O24	O	1.576559	0.329387	0.058620
O25	O	1.207521	-0.229607	-0.705976
O26	O	1.707521	0.270393	-0.205976
O27	O	1.070133	-0.229135	-0.551772
O28	O	1.570133	0.270865	-0.051772
O29	O	1.318043	-0.171443	-0.712421
O30	O	1.818043	0.328557	-0.212421
O31	O	1.332608	-0.291712	-0.456102
O32	O	1.832608	0.208288	0.043898
O33	O	1.215807	-0.298032	-0.560148
O34	O	1.715807	0.201968	-0.060148
C35	C	1.040720	-0.200755	-0.494687
C36	C	1.540720	0.299245	0.005313
C37	C	0.940775	-0.203464	-0.488921
C38	C	1.440775	0.296536	0.011079
C39	C	0.803181	-0.234225	-0.423179
C40	C	1.303181	0.265775	0.076821
C41	C	0.897089	-0.231681	-0.428596
C42	C	1.397089	0.268319	0.071404
C43	C	0.890546	-0.177788	-0.543831
C44	C	1.390546	0.322212	-0.043831
C45	C	0.796638	-0.180332	-0.538414
C46	C	1.296638	0.319668	-0.038414
C47	C	0.752959	-0.208552	-0.478087
C48	C	1.252959	0.291448	0.021913
C49	C	0.659049	-0.211097	-0.472674
C50	C	1.159049	0.288903	0.027326
C51	C	0.652507	-0.157202	-0.587905
C52	C	1.152507	0.342798	-0.087905
C53	C	0.746415	-0.154659	-0.593322
C54	C	1.246415	0.345341	-0.093322
C55	C	1.274209	-0.311173	-0.508132
C56	C	1.774209	0.188827	-0.008132
C57	C	1.274233	-0.361107	-0.508131
C58	C	1.774233	0.138893	-0.008131
C59	C	1.328528	-0.670904	-0.569134
C60	C	1.828528	-0.170904	-0.069134
C61	C	1.328622	-0.858576	-0.569194
C62	C	1.828622	-0.358576	-0.069194
O63	O	1.374654	-0.882973	-0.620997
O64	O	1.874654	-0.382973	-0.120997
N65	N	1.274489	-0.881890	-0.508324
N66	N	1.774489	-0.381890	-0.008324
C67	C	1.220324	-0.858284	-0.447439
C68	C	1.720324	-0.358284	0.052561
O69	O	1.174275	-0.882421	-0.395673
O70	O	1.674275	-0.382421	0.104327
C71	C	1.220225	-0.670613	-0.447384
C72	C	1.720225	-0.170613	0.052616
C73	C	1.274369	-0.647301	-0.508252
C74	C	1.774369	-0.147301	-0.008252
C75	C	1.382666	-0.647591	-0.629997
C76	C	1.882666	-0.147591	-0.129997
C77	C	1.382645	-0.600676	-0.629979
C78	C	1.882645	-0.100676	-0.129979
C79	C	1.328487	-0.577073	-0.569096
C80	C	1.828487	-0.077073	-0.069096
C81	C	1.274348	-0.600385	-0.508233
C82	C	1.774348	-0.100385	-0.008233
C83	C	1.166056	-0.647008	-0.386504
C84	C	1.666056	-0.147008	0.113496
C85	C	1.166034	-0.600087	-0.386498
C86	C	1.666034	-0.100087	0.113502
C87	C	1.220178	-0.576775	-0.447365
C88	C	1.720178	-0.076775	0.052635
C89	C	1.220169	-0.529867	-0.447332
C90	C	1.720169	-0.029867	0.052668
N91	N	1.274302	-0.506552	-0.508202
N92	N	1.774302	-0.006552	-0.008202
C93	C	1.328461	-0.530155	-0.569084
C94	C	1.828461	-0.030155	-0.069084
C95	C	1.220381	-0.956814	-0.447471
C96	C	1.720381	-0.456814	0.052529
C97	C	1.220406	-1.003731	-0.447483
C98	C	1.720406	-0.503731	0.052517
C99	C	1.328704	-1.004020	-0.569239
C100	C	1.828704	-0.504020	-0.069239
C101	C	1.328682	-0.957101	-0.569222
C102	C	1.828682	-0.457101	-0.069222
C103	C	1.274514	-0.933499	-0.508341
C104	C	1.774514	-0.433499	-0.008341
C105	C	1.328414	-0.431630	-0.569039
C106	C	1.828414	0.068370	-0.069039
C107	C	1.328392	-0.384710	-0.569013
C108	C	1.828392	0.115290	-0.069013
C109	C	1.220091	-0.384425	-0.447260
C110	C	1.720091	0.115575	0.052740
C111	C	1.220117	-0.431341	-0.447283
C112	C	1.720117	0.068659	0.052717
C113	C	1.274281	-0.454942	-0.508180
C114	C	1.774281	0.045058	-0.008180
O115	O	1.174153	-0.505441	-0.395563
O116	O	1.674153	-0.005441	0.104437
O117	O	1.374487	-0.506011	-0.620855
O118	O	1.874487	-0.006011	-0.120855
C119	C	1.328548	-0.717819	-0.569153
C120	C	1.828548	-0.217819	-0.069153
C121	C	1.274410	-0.741131	-0.508290
C122	C	1.774410	-0.241131	-0.008290
C123	C	1.220251	-0.717528	-0.447407
C124	C	1.720251	-0.217528	0.052593
C125	C	1.274435	-0.788049	-0.508302
C126	C	1.774435	-0.288049	-0.008302
C127	C	1.328594	-0.811652	-0.569184
C128	C	1.828594	-0.311652	-0.069184
C129	C	1.382727	-0.788338	-0.630054
C130	C	1.882727	-0.288338	-0.130054
C131	C	1.382707	-0.741422	-0.630035
C132	C	1.882707	-0.241422	-0.130035
C133	C	1.166118	-0.740843	-0.386538
C134	C	1.666118	-0.240843	0.113462
C135	C	1.166143	-0.787758	-0.386561
C136	C	1.666143	-0.287758	0.113439
C137	C	1.220302	-0.811361	-0.447443
C138	C	1.720302	-0.311361	0.052557
C139	C	1.508876	-0.188119	-0.521797
C140	C	2.008876	0.311881	-0.021797
C141	C	1.608820	-0.185421	-0.527585
C142	C	2.108820	0.314579	-0.027585
C143	C	1.260853	-0.201539	-0.742735
C144	C	1.760853	0.298461	-0.242735
C145	C	1.255105	-0.204560	-0.842673
C146	C	1.755105	0.295440	-0.342673
C147	C	1.274498	-0.077269	-0.508321
C148	C	1.774498	0.422731	-0.008321
C149	C	1.274565	-0.027334	-0.508365
C150	C	1.774565	0.472666	-0.008365
C151	C	1.359388	-0.149660	-1.037181
C152	C	1.859388	0.350340	-0.537181
C153	C	1.353990	-0.152497	-1.131082
C154	C	1.853990	0.347503	-0.631082
C155	C	1.238907	-0.213069	-1.124378
C156	C	1.738907	0.286931	-0.624378
C157	C	1.244305	-0.210232	-1.030477
C158	C	1.744305	0.289768	-0.530477
C159	C	1.304548	-0.178527	-0.986882
C160	C	1.804548	0.321473	-0.486882
C161	C	1.309950	-0.175692	-0.892979
C162	C	1.809950	0.324308	-0.392979
C163	C	1.194863	-0.236261	-0.886277
C164	C	1.694863	0.263739	-0.386277
C165	C	1.189465	-0.239098	-0.980178
C166	C	1.689465	0.260902	-0.480178
C167	C	1.287830	-0.187353	-0.274611
C168	C	1.787830	0.312647	0.225389
C169	C	1.293752	-0.184201	-0.174684
C170	C	1.793752	0.315799	0.325316
H171	H	1.372485	-0.365730	-0.618579
H172	H	1.872485	0.134270	-0.118579
H173	H	1.140415	-0.264910	-1.015685
H174	H	1.640415	0.235090	-0.515685
Cl175	Cl	1.163173	-0.252919	-1.179198
Cl176	Cl	1.663173	0.247081	-0.679198
H177	H	1.408445	-0.123847	-1.001685
H178	H	1.908445	0.376153	-0.501685
Cl179	Cl	1.152009	-0.354744	-0.370727
Cl180	Cl	1.652009	0.145256	0.129273
H181	H	1.122014	-0.721629	-0.336961
H182	H	1.622014	-0.221629	0.163039
H183	H	1.176036	-0.450322	-0.397713
H184	H	1.676036	0.049678	0.102287
Cl185	Cl	1.422933	-0.116206	-1.194313
Cl186	Cl	1.922933	0.383794	-0.694313
H187	H	0.926125	-0.154810	-0.592942
H188	H	1.426125	0.345190	-0.092942
H189	H	1.150211	-0.259768	-0.845313
H190	H	1.650211	0.240232	-0.345313
H191	H	1.176269	-0.937600	-0.397892
H192	H	1.676269	-0.437600	0.102108
Cl193	Cl	0.604139	-0.246575	-0.396840
Cl194	Cl	1.104139	0.253425	0.103160
H195	H	0.767617	-0.257206	-0.374065
H196	H	1.267617	0.242794	0.125935
H197	H	0.937977	-0.252586	-0.383884
H198	H	1.437977	0.247414	0.116116
H199	H	0.781992	-0.131682	-0.642436
H200	H	1.281992	0.368318	-0.142436
H201	H	0.611606	-0.136298	-0.632616
H202	H	1.111606	0.363702	-0.132616
Cl203	Cl	1.097981	-0.676303	-0.309983
Cl204	Cl	1.597981	-0.176303	0.190017
Cl205	Cl	1.396510	-0.461292	-0.645594
Cl206	Cl	1.896510	0.038708	-0.145594
H207	H	1.372770	-0.938123	-0.618786
H208	H	1.872770	-0.438123	-0.118786
H209	H	1.426731	-0.581698	-0.679545
H210	H	1.926731	-0.081698	-0.179545
H211	H	1.359005	-0.149877	-0.857486
H212	H	1.859005	0.350123	-0.357486
H213	H	1.372803	-1.023245	-0.618811
H214	H	1.872803	-0.523245	-0.118811
Cl215	Cl	1.450758	-0.677256	-0.706548
Cl216	Cl	1.950758	-0.177256	-0.206548
Cl217	Cl	1.152350	-1.033031	-0.370949
Cl218	Cl	1.652350	-0.533031	0.129051
H219	H	1.121921	-0.580873	-0.336921
H220	H	1.621921	-0.080873	0.163079
H221	H	1.426829	-0.807563	-0.679623
H222	H	1.926829	-0.307563	-0.179623
Cl223	Cl	1.450775	-0.712122	-0.706560
Cl224	Cl	1.950775	-0.212122	-0.206560
H225	H	1.122055	-0.806735	-0.336987
H226	H	1.622055	-0.306735	0.163013
