data_functionalizedCrystal
_audit_creation_method	'MofGen! by Chris Wilmer'
_symmetry_space_group_name_H-M	'P1'
_symmetry_Int_Tables_number	1
_symmetry_cell_setting	triclinic
loop_
_symmetry_equiv_pos_as_xyz
  x,y,z
_cell_length_a	19.077105
_cell_length_b	25.639240
_cell_length_c	19.076919
_cell_angle_alpha	87.738531
_cell_angle_beta	89.923776
_cell_angle_gamma	87.728718
loop_
_atom_site_label
_atom_site_type_symbol
_atom_site_fract_x
_atom_site_fract_y
_atom_site_fract_z
Zn1	Zn	1.058223	-0.252939	0.440357
Zn2	Zn	1.558223	0.247061	0.940357
Zn3	Zn	1.062848	-0.337004	0.322829
Zn4	Zn	1.562848	0.162996	0.822829
Zn5	Zn	0.945443	-0.245935	0.318152
Zn6	Zn	1.445443	0.254065	0.818152
Zn7	Zn	0.940670	-0.336688	0.435582
Zn8	Zn	1.440670	0.163312	0.935582
O9	O	1.001796	-0.293141	0.379230
O10	O	1.501796	0.206859	0.879230
O11	O	1.157168	-0.267153	0.428722
O12	O	1.657168	0.232847	0.928722
O13	O	1.051207	-0.322124	0.223878
O14	O	1.551207	0.177876	0.723878
O15	O	0.960465	-0.173702	0.334403
O16	O	1.460465	0.326298	0.834403
O17	O	1.160566	-0.328915	0.342375
O18	O	1.660566	0.171085	0.842375
O19	O	1.043325	-0.178847	0.424186
O20	O	1.543325	0.321153	0.924186
O21	O	0.964949	-0.255216	0.220442
O22	O	1.464949	0.244784	0.720442
O23	O	0.846478	-0.254910	0.329773
O24	O	1.346478	0.245090	0.829773
O25	O	0.952330	-0.328378	0.534546
O26	O	1.452330	0.171622	1.034546
O27	O	0.842971	-0.321587	0.416049
O28	O	1.342971	0.178413	0.916049
O29	O	1.038697	-0.266848	0.538054
O30	O	1.538697	0.233152	1.038054
O31	O	1.046578	-0.410124	0.337746
O32	O	1.546578	0.089876	0.837746
O33	O	0.956815	-0.409892	0.420585
O34	O	1.456815	0.090108	0.920585
C35	C	0.819229	-0.287455	0.371886
C36	C	1.319229	0.212545	0.871886
C37	C	0.741125	-0.285035	0.368761
C38	C	1.241125	0.214965	0.868761
C39	C	0.702627	-0.318661	0.412141
C40	C	1.202627	0.181339	0.912141
C41	C	0.629240	-0.316381	0.409208
C42	C	1.129240	0.183619	0.909208
C43	C	0.594353	-0.280476	0.362890
C44	C	1.094353	0.219524	0.862890
C45	C	0.632856	-0.246846	0.319508
C46	C	1.132856	0.253154	0.819508
C47	C	0.706241	-0.249124	0.322445
C48	C	1.206241	0.250876	0.822445
C49	C	0.375067	-0.269932	0.349300
C50	C	0.875067	0.230068	0.849300
C51	C	0.301677	-0.267657	0.346365
C52	C	0.801677	0.232343	0.846365
C53	C	0.298066	-0.337192	0.436066
C54	C	0.798066	0.162808	0.936066
C55	C	0.371453	-0.339469	0.438996
C56	C	0.871453	0.160531	0.938996
C57	C	0.409950	-0.305837	0.395616
C58	C	0.909950	0.194163	0.895616
N59	N	0.519340	-0.278145	0.359890
N60	N	1.019340	0.221855	0.859890
N61	N	0.484961	-0.308166	0.398621
N62	N	0.984961	0.191834	0.898621
C63	C	1.001699	-0.428979	0.379171
C64	C	1.501699	0.071021	0.879171
C65	C	1.001721	-0.487094	0.379172
C66	C	1.501721	0.012906	0.879172
C67	C	1.044960	-0.850105	0.426062
C68	C	1.544960	-0.350105	0.926062
C69	C	1.044980	-0.904710	0.426077
C70	C	1.544980	-0.404710	0.926077
O71	O	1.081628	-0.935193	0.465884
O72	O	1.581628	-0.435193	0.965884
N73	N	1.001891	-0.929385	0.379302
N74	N	1.501891	-0.429385	0.879302
C75	C	0.958773	-0.899452	0.332513
C76	C	1.458773	-0.399452	0.832513
O77	O	0.922123	-0.925454	0.292729
O78	O	1.422123	-0.425454	0.792729
C79	C	0.958750	-0.844848	0.332502
C80	C	1.458750	-0.344848	0.832502
C81	C	1.001847	-0.820176	0.379275
C82	C	1.501847	-0.320176	0.879275
C83	C	1.088053	-0.825433	0.472833
C84	C	1.588053	-0.325433	0.972833
C85	C	1.088034	-0.770831	0.472816
C86	C	1.588034	-0.270831	0.972816
C87	C	1.044921	-0.740902	0.426030
C88	C	1.544921	-0.240902	0.926030
C89	C	1.001828	-0.765574	0.379259
C90	C	1.501828	-0.265574	0.879259
C91	C	0.915629	-0.814915	0.285717
C92	C	1.415629	-0.314915	0.785717
C93	C	0.915609	-0.760308	0.285710
C94	C	1.415609	-0.260308	0.785710
C95	C	0.958706	-0.735636	0.332484
C96	C	1.458706	-0.235636	0.832484
C97	C	0.958696	-0.681043	0.332456
C98	C	1.458696	-0.181043	0.832456
N99	N	1.001785	-0.656368	0.379232
N100	N	1.501785	-0.156368	0.879232
C101	C	1.044898	-0.686297	0.426019
C102	C	1.544898	-0.186297	0.926019
C103	C	0.958824	-1.014125	0.332541
C104	C	1.458824	-0.514125	0.832541
C105	C	0.958851	-1.068728	0.332548
C106	C	1.458851	-0.568728	0.832548
C107	C	1.045057	-1.073983	0.426113
C108	C	1.545057	-0.573983	0.926113
C109	C	1.045034	-1.019379	0.426102
C110	C	1.545034	-0.519379	0.926102
C111	C	1.001914	-0.989450	0.379316
C112	C	1.501914	-0.489450	0.879316
C113	C	1.044854	-0.571630	0.425981
C114	C	1.544854	-0.071630	0.925981
C115	C	1.044833	-0.517023	0.425958
C116	C	1.544833	-0.017023	0.925958
C117	C	0.958625	-0.511774	0.332396
C118	C	1.458625	-0.011774	0.832396
C119	C	0.958648	-0.566375	0.332415
C120	C	1.458648	-0.066375	0.832415
C121	C	1.001765	-0.596303	0.379214
C122	C	1.501765	-0.096303	0.879214
O123	O	0.922064	-0.650527	0.292672
O124	O	1.422064	-0.150527	0.792672
O125	O	1.081534	-0.660288	0.465803
O126	O	1.581534	-0.160288	0.965803
C127	C	1.185076	-0.298851	0.386603
C128	C	1.685076	0.201149	0.886603
C129	C	1.263179	-0.301284	0.389745
C130	C	1.763179	0.198716	0.889745
C131	C	0.994465	-0.298359	0.562509
C132	C	1.494465	0.201641	1.062509
C133	C	0.991342	-0.300582	0.640611
C134	C	1.491342	0.199418	1.140611
C135	C	1.001912	-0.156774	0.379305
C136	C	1.501912	0.343226	0.879305
C137	C	1.001961	-0.098662	0.379337
C138	C	1.501961	0.401338	0.879337
C139	C	1.009138	-0.287908	0.196666
C140	C	1.509138	0.212092	0.696666
C141	C	1.012398	-0.285541	0.118569
C142	C	1.512398	0.214459	0.618569
C143	C	1.034838	-0.269593	0.679131
C144	C	1.534838	0.230407	1.179131
C145	C	1.031894	-0.271679	0.752517
C146	C	1.531894	0.228321	1.252517
C147	C	0.985457	-0.304759	0.787381
C148	C	1.485457	0.195241	1.287381
C149	C	0.941956	-0.335750	0.748855
C150	C	1.441956	0.164250	1.248855
C151	C	0.944897	-0.333660	0.675471
C152	C	1.444897	0.166340	1.175471
C153	C	0.971838	-0.314442	1.006660
C154	C	1.471838	0.185558	1.506660
C155	C	0.968902	-0.316531	1.080049
C156	C	1.468902	0.183469	1.580049
C157	C	1.058839	-0.252460	1.083705
C158	C	1.558839	0.247540	1.583705
C159	C	1.061779	-0.250375	1.010320
C160	C	1.561779	0.249625	1.510320
C161	C	1.018275	-0.281364	0.971801
C162	C	1.518275	0.218636	1.471801
N163	N	0.982449	-0.306894	0.862392
N164	N	1.482449	0.193106	1.362392
N165	N	1.021281	-0.279225	0.896790
N166	N	1.521281	0.220775	1.396790
H167	H	0.604444	-0.217610	0.281799
H168	H	1.104444	0.282390	0.781799
O169	O	0.747770	-0.212863	0.275649
O170	O	1.247770	0.287137	0.775649
H171	H	0.711183	-0.187518	0.242941
H172	H	1.211183	0.312482	0.742941
O173	O	1.084924	-0.233914	0.641529
O174	O	1.584924	0.266086	1.141529
H175	H	1.114670	-0.212712	0.680646
H176	H	1.614670	0.287288	1.180646
O177	O	0.918806	-0.352204	1.117658
O178	O	1.418806	0.147796	1.617658
H179	H	0.931373	-0.393214	1.104035
H180	H	1.431373	0.106786	1.604035
O181	O	0.912328	-0.981845	0.282063
O182	O	1.412328	-0.481845	0.782063
H183	H	0.882380	-1.008181	0.249536
H184	H	1.382380	-0.508181	0.749536
H185	H	0.597898	-0.343763	0.444532
H186	H	1.097898	0.156237	0.944532
O187	O	0.891865	-0.371424	0.786458
O188	O	1.391865	0.128576	1.286458
H189	H	0.904438	-0.412432	0.772832
H190	H	1.404438	0.087568	1.272832
O191	O	0.740255	-0.357385	0.462101
O192	O	1.240255	0.142615	0.962101
H193	H	0.701153	-0.380380	0.491778
H194	H	1.201153	0.119620	0.991778
H195	H	0.399854	-0.368707	0.476711
H196	H	0.899854	0.131293	0.976711
O197	O	1.105737	-0.219026	1.125259
O198	O	1.605737	0.280974	1.625259
H199	H	1.140125	-0.244484	1.160132
H200	H	1.640125	0.255516	1.660132
H201	H	0.266715	-0.364572	0.471384
H202	H	0.766715	0.135428	0.971384
H203	H	0.909470	-0.358889	0.644109
H204	H	1.409470	0.141111	1.144109
H205	H	1.067316	-0.246446	0.783877
H206	H	1.567316	0.253554	1.283877
O207	O	1.091522	-0.992771	0.476548
O208	O	1.591522	-0.492771	0.976548
H209	H	1.077226	-1.004431	0.531203
H210	H	1.577226	-0.504431	1.031203
O211	O	0.924882	-0.347836	0.965116
O212	O	1.424882	0.152164	1.465116
H213	H	0.892091	-0.371181	1.001690
H214	H	1.392091	0.128819	1.501690
H215	H	1.079931	-0.496937	0.464047
H216	H	1.579931	0.003063	0.964047
H217	H	0.273273	-0.238414	0.308652
H218	H	0.773273	0.261586	0.808652
H219	H	0.923525	-0.487397	0.294300
H220	H	1.423525	0.012603	0.794300
O221	O	1.091553	-1.106272	0.476582
O222	O	1.591553	-0.606272	0.976582
H223	H	1.121520	-1.079946	0.509106
H224	H	1.621520	-0.579946	1.009106
H225	H	1.079959	-0.595990	0.464093
H226	H	1.579959	-0.095990	0.964093
O227	O	0.869139	-0.841519	0.235272
O228	O	1.369139	-0.341519	0.735272
H229	H	0.839154	-0.811525	0.202749
H230	H	1.339154	-0.311525	0.702749
O231	O	0.416586	-0.233676	0.302493
O232	O	0.916586	0.266324	0.802493
H233	H	0.379996	-0.208336	0.269782
H234	H	0.879996	0.291664	0.769782
O235	O	1.134528	-0.744223	0.523255
O236	O	1.634528	-0.244223	1.023255
H237	H	1.164508	-0.774215	0.555786
H238	H	1.664508	-0.274215	1.055786
O239	O	1.111870	-0.214698	0.972720
O240	O	1.611870	0.285302	1.472720
H241	H	1.099291	-0.173689	0.986335
H242	H	1.599291	0.326311	1.486335
O243	O	1.134560	-0.857710	0.523297
O244	O	1.634560	-0.357710	1.023297
H245	H	1.164520	-0.831371	0.555809
H246	H	1.664520	-0.331371	1.055809
H247	H	0.923764	-1.088811	0.294453
H248	H	1.423764	-0.588811	0.794453
H249	H	0.880493	-0.735942	0.247612
H250	H	1.380493	-0.235942	0.747612
H251	H	0.923560	-0.586464	0.294323
H252	H	1.423560	-0.086464	0.794323
