data_functionalizedCrystal
_audit_creation_method	'MofGen! by Chris Wilmer'
_symmetry_space_group_name_H-M	'P1'
_symmetry_Int_Tables_number	1
_symmetry_cell_setting	triclinic
loop_
_symmetry_equiv_pos_as_xyz
  x,y,z
_cell_length_a	13.032721
_cell_length_b	11.169417
_cell_length_c	11.169409
_cell_angle_alpha	90.019824
_cell_angle_beta	82.853997
_cell_angle_gamma	97.204996
loop_
_atom_site_label
_atom_site_type_symbol
_atom_site_fract_x
_atom_site_fract_y
_atom_site_fract_z
Zn1	Zn	-0.415926	1.774209	0.739163
Zn2	Zn	0.084074	2.274209	1.239163
Zn3	Zn	-0.590714	1.748568	0.563955
Zn4	Zn	-0.090714	2.248568	1.063955
Zn5	Zn	-0.415989	1.573486	0.538507
Zn6	Zn	0.084011	2.073486	1.038507
Zn7	Zn	-0.590629	1.547984	0.764588
Zn8	Zn	-0.090629	2.047984	1.264588
O9	O	-0.503314	1.661062	0.651553
O10	O	-0.003314	2.161062	1.151553
O11	O	-0.439121	1.938756	0.715931
O12	O	0.060879	2.438756	1.215931
O13	O	-0.567598	1.725284	0.392639
O14	O	-0.067598	2.225284	0.892639
O15	O	-0.269744	1.621516	0.543834
O16	O	0.230256	2.121516	1.043834
O17	O	-0.567537	1.919918	0.587207
O18	O	-0.067537	2.419918	1.087207
O19	O	-0.269697	1.768986	0.691255
O20	O	0.230303	2.268986	1.191255
O21	O	-0.439229	1.596652	0.373942
O22	O	0.060771	2.096652	0.873942
O23	O	-0.439147	1.402155	0.568487
O24	O	0.060853	1.902155	1.068487
O25	O	-0.567392	1.578052	0.929156
O26	O	-0.067392	2.078052	1.429156
O27	O	-0.567453	1.383419	0.734588
O28	O	-0.067453	1.883419	1.234588
O29	O	-0.439038	1.744259	0.910477
O30	O	0.060962	2.244259	1.410477
O31	O	-0.736939	1.700556	0.611860
O32	O	-0.236939	2.200556	1.111860
O33	O	-0.736877	1.553189	0.759264
O34	O	-0.236877	2.053189	1.259264
C35	C	-0.503298	1.349239	0.651535
C36	C	-0.003298	1.849239	1.151535
C37	C	-0.503317	1.215837	0.651560
C38	C	-0.003317	1.715837	1.151560
C39	C	-0.774825	1.621355	0.691108
C40	C	-0.274825	2.121355	1.191108
C41	C	-0.890979	1.604479	0.708070
C42	C	-0.390979	2.104479	1.208070
C43	C	-0.942760	1.669934	0.642755
C44	C	-0.442760	2.169934	1.142755
C45	C	-1.062811	1.652492	0.660284
C46	C	-0.562811	2.152492	1.160284
C47	C	-0.230743	1.700956	0.611870
C48	C	0.269257	2.200956	1.111870
C49	C	-0.114589	1.717956	0.594959
C50	C	0.385411	2.217956	1.094959
C51	C	-0.503198	1.661171	0.964579
C52	C	-0.003198	2.161171	1.464579
C53	C	-0.503149	1.661217	1.097972
C54	C	-0.003149	2.161217	1.597972
C55	C	-0.503331	1.974102	0.651572
C56	C	-0.003331	2.474102	1.151572
C57	C	-0.503338	2.107501	0.651580
C58	C	-0.003338	2.607501	1.151580
C59	C	-0.503355	1.661033	0.339734
C60	C	-0.003355	2.161033	0.839734
C61	C	-0.503110	1.661262	0.206299
C62	C	-0.003110	2.161262	0.706299
H63	H	-0.898217	1.738890	0.573862
H64	H	-0.398217	2.238890	1.073862
H65	H	-1.107352	1.583541	0.729190
H66	H	-0.607352	2.083541	1.229190
O67	O	-0.949981	1.513139	0.799329
O68	O	-0.449981	2.013139	1.299329
H69	H	-0.929021	1.536700	0.890505
H70	H	-0.429021	2.036700	1.390505
H71	H	-1.070049	1.786917	0.526062
H72	H	-0.570049	2.286917	1.026062
