data_functionalizedCrystal
_audit_creation_method	'MofGen! by Chris Wilmer'
_symmetry_space_group_name_H-M	'P1'
_symmetry_Int_Tables_number	1
_symmetry_cell_setting	triclinic
loop_
_symmetry_equiv_pos_as_xyz
  x,y,z
_cell_length_a	12.759401
_cell_length_b	18.050589
_cell_length_c	12.759393
_cell_angle_alpha	89.969175
_cell_angle_beta	89.982620
_cell_angle_gamma	90.028382
loop_
_atom_site_label
_atom_site_type_symbol
_atom_site_fract_x
_atom_site_fract_y
_atom_site_fract_z
Zn1	Zn	1.606145	-0.295611	-0.593988
Zn2	Zn	1.606001	-0.419822	-0.418311
Zn3	Zn	1.430450	-0.295650	-0.418328
Zn4	Zn	1.430394	-0.419764	-0.593953
O5	O	1.518248	-0.357712	-0.506145
O6	O	1.753147	-0.312095	-0.570692
O7	O	1.582678	-0.403391	-0.271292
O8	O	1.453840	-0.191720	-0.441651
O9	O	1.753041	-0.403352	-0.441623
O10	O	1.582923	-0.191692	-0.570708
O11	O	1.453701	-0.312162	-0.271304
O12	O	1.283422	-0.312107	-0.441617
O13	O	1.453745	-0.403254	-0.740979
O14	O	1.283381	-0.403292	-0.570648
O15	O	1.582868	-0.312040	-0.741005
O16	O	1.582623	-0.523739	-0.441589
O17	O	1.453605	-0.523696	-0.570632
C18	C	1.245280	-0.357698	-0.506131
C19	C	1.128504	-0.357710	-0.506149
C20	C	1.073648	-0.405267	-0.573225
C21	C	0.963924	-0.405276	-0.573236
C22	C	0.963921	-0.310170	-0.439088
C23	C	1.073644	-0.310158	-0.439083
C24	C	1.073648	-0.460177	-0.650671
C25	C	0.963924	-0.460187	-0.650683
C26	C	1.518121	-0.550664	-0.506127
C27	C	1.518163	-0.633210	-0.506155
C28	C	1.448072	-0.832664	-0.576304
C29	C	1.422460	-0.882113	-0.480436
C30	C	1.518266	-0.784340	-0.506169
C31	C	1.543930	-0.881973	-0.602048
C32	C	1.518364	-0.930325	-0.506191
C33	C	1.492603	-0.832702	-0.410250
C34	C	1.614118	-0.832557	-0.531927
C35	C	1.588542	-0.881984	-0.435992
C36	C	1.518207	-0.700242	-0.506158
C37	C	1.518423	-1.014422	-0.506191
C38	C	1.792281	-0.357726	-0.506160
C39	C	1.909058	-0.357732	-0.506166
C40	C	1.518316	-0.357636	-0.780178
C41	C	1.518345	-0.357604	-0.896955
C42	C	1.518404	-0.164006	-0.506185
C43	C	1.518470	-0.081460	-0.506203
C44	C	1.451216	-0.310093	-0.951829
C45	C	1.451247	-0.310071	-1.061554
C46	C	1.585547	-0.405073	-1.061519
C47	C	1.585510	-0.405098	-0.951797
C48	C	1.373682	-0.255241	-0.951850
C49	C	1.373713	-0.255219	-1.061574
C50	C	1.518240	-0.357733	-0.233178
C51	C	1.518415	-0.357556	-0.116401
H52	H	0.919241	-0.271454	-0.384485
H53	H	0.929932	-0.439656	-0.728034
O54	O	1.466812	-0.807031	-0.313434
C55	C	1.511058	-0.803657	-0.129913
C56	C	1.540404	-0.832767	-0.239495
H57	H	1.570529	-0.824466	-0.070100
H58	H	1.511243	-0.740501	-0.130629
H59	H	1.429619	-0.824498	-0.107875
H60	H	1.621848	-0.811981	-0.261601
H61	H	1.540147	-0.895922	-0.238721
O62	O	1.276555	-0.273493	-0.916266
C63	C	1.126604	-0.235840	-0.814587
C64	C	1.236573	-0.215068	-0.854834
H65	H	1.094254	-0.188621	-0.764893
H66	H	1.072303	-0.246058	-0.884036
H67	H	1.131875	-0.288250	-0.764976
H68	H	1.231403	-0.162648	-0.904428
H69	H	1.290831	-0.204897	-0.785339
O70	O	1.569847	-0.907669	-0.698817
C71	C	1.616238	-0.876567	-0.876563
C72	C	1.586934	-0.847370	-0.767016
H73	H	1.630040	-0.827831	-0.931738
H74	H	1.690695	-0.911234	-0.871012
H75	H	1.549594	-0.912263	-0.908056
H76	H	1.653510	-0.811644	-0.735459
H77	H	1.512446	-0.812745	-0.772633
H78	H	1.640158	-0.443797	-0.907123
H79	H	1.640231	-0.443741	-1.106185
O80	O	1.659395	-0.907789	-0.365247
C81	C	1.739523	-1.015023	-0.286325
C82	C	1.659275	-0.985896	-0.366501
H83	H	1.739437	-1.078176	-0.287296
H84	H	1.820987	-0.993819	-0.307565
H85	H	1.717499	-0.994629	-0.204695
H86	H	1.681202	-1.006278	-0.448159
H87	H	1.577832	-1.007094	-0.345171
H88	H	1.695113	-0.810775	-0.553739
O89	O	1.408471	-0.190016	-0.911431
C90	C	1.474033	-0.067463	-0.947879
C91	C	1.434628	-0.141284	-0.993794
H92	H	1.495212	-0.028048	-1.014446
H93	H	1.409847	-0.041617	-0.897639
H94	H	1.546289	-0.078097	-0.897547
H95	H	1.362391	-0.130713	-1.044173
H96	H	1.498878	-0.167107	-1.043974
H97	H	0.934110	-0.517690	-0.628752
O98	O	1.377238	-0.806698	-0.646952
C99	C	1.298388	-0.699285	-0.726673
C100	C	1.378663	-0.728592	-0.646655
H101	H	1.299498	-0.636133	-0.726444
H102	H	1.319417	-0.720343	-0.808229
H103	H	1.216758	-0.719691	-0.704531
H104	H	1.460321	-0.708198	-0.668699
H105	H	1.357543	-0.707539	-0.565120
O106	O	1.399607	-0.186578	-1.097184
C107	C	1.346450	-0.080560	-1.198922
C108	C	1.316982	-0.158275	-1.158645
H109	H	1.279674	-0.057660	-1.248640
H110	H	1.360952	-0.042180	-1.129489
H111	H	1.420588	-0.084330	-1.248518
H112	H	1.242830	-0.154577	-1.109067
H113	H	1.302548	-0.196625	-1.228125
H114	H	1.296409	-0.275807	-1.095601
H115	H	1.118303	-0.271428	-0.384470
H116	H	1.103460	-0.444839	-0.732077
O117	O	1.325819	-0.908174	-0.454591
C118	C	1.177318	-0.981624	-0.507707
C119	C	1.286767	-0.952180	-0.537088
H120	H	1.145703	-1.017196	-0.574398
H121	H	1.183045	-1.016446	-0.433363
H122	H	1.122145	-0.932976	-0.493631
H123	H	1.341999	-1.000783	-0.551218
H124	H	1.280957	-0.917335	-0.611404
O125	O	1.114042	-0.525380	-0.615760
C126	C	1.077548	-0.647878	-0.550015
C127	C	1.031661	-0.574083	-0.589558
H128	H	1.010965	-0.687269	-0.528799
H129	H	1.127809	-0.673780	-0.614139
H130	H	1.127853	-0.637194	-0.477756
H131	H	0.981309	-0.584704	-0.661798
H132	H	0.981460	-0.548204	-0.525370
