data_functionalizedCrystal
_audit_creation_method	'MofGen! by Chris Wilmer'
_symmetry_space_group_name_H-M	'P1'
_symmetry_Int_Tables_number	1
_symmetry_cell_setting	triclinic
loop_
_symmetry_equiv_pos_as_xyz
  x,y,z
_cell_length_a	8.559649
_cell_length_b	6.394989
_cell_length_c	7.088929
_cell_angle_alpha	96.401883
_cell_angle_beta	95.325015
_cell_angle_gamma	101.861812
loop_
_atom_site_label
_atom_site_type_symbol
_atom_site_fract_x
_atom_site_fract_y
_atom_site_fract_z
O1	O	2.102790	0.046611	-0.158959
O2	O	1.639750	-0.060915	-0.158964
O3	O	1.877842	0.297966	-0.158963
O4	O	1.864698	-0.312270	-0.158960
O5	O	1.909659	0.346024	0.159013
O6	O	1.671567	-0.012857	0.159011
O7	O	2.134606	0.094668	0.159017
Cu8	Cu	1.905992	0.045294	0.188048
Cu9	Cu	1.868365	-0.011540	-0.187995
O10	O	1.896514	-0.264213	0.159015
C11	C	1.596293	-0.045035	0.000022
C12	C	1.419401	-0.069290	0.000020
C13	C	2.178063	0.078788	0.000026
C14	C	2.354954	0.103041	0.000016
C15	C	1.891151	0.399399	0.000018
C16	C	1.883208	0.634359	0.000016
N17	N	1.932468	0.085270	0.452536
N18	N	1.841901	-0.051498	-0.452483
H19	H	1.339239	-0.235400	0.000010
C20	C	1.463235	0.327438	0.000024
N21	N	1.544804	0.496459	0.000034
H22	H	1.748038	-0.193231	0.465870
C23	C	2.059289	0.276752	0.562845
N24	N	2.154807	0.420976	0.645932
