data_functionalizedCrystal
_audit_creation_method	'MofGen! by Chris Wilmer'
_symmetry_space_group_name_H-M	'P1'
_symmetry_Int_Tables_number	1
_symmetry_cell_setting	triclinic
loop_
_symmetry_equiv_pos_as_xyz
  x,y,z
_cell_length_a	33.592126
_cell_length_b	33.591377
_cell_length_c	33.588093
_cell_angle_alpha	60.004089
_cell_angle_beta	60.008299
_cell_angle_gamma	59.994549
loop_
_atom_site_label
_atom_site_type_symbol
_atom_site_fract_x
_atom_site_fract_y
_atom_site_fract_z
O1	O	0.055297	-0.581666	0.486338
O2	O	0.555297	-0.081666	0.986338
O3	O	0.020882	-0.452873	0.391864
O4	O	0.520882	0.047127	0.891864
O5	O	0.102445	-0.534352	0.391775
O6	O	0.602445	-0.034352	0.891775
O7	O	-0.026266	-0.500187	0.486427
O8	O	0.473734	-0.000187	0.986427
O9	O	0.129510	-0.507292	0.418747
O10	O	0.629510	-0.007292	0.918747
O11	O	0.047947	-0.425814	0.418835
O12	O	0.547947	0.074186	0.918835
O13	O	0.082362	-0.554606	0.513309
O14	O	0.582362	-0.054606	1.013309
Cu15	Cu	0.067626	-0.487739	0.468535
Cu16	Cu	0.567626	0.012261	0.968535
Cu17	Cu	0.035618	-0.519740	0.436638
Cu18	Cu	0.535618	-0.019740	0.936638
O19	O	0.000799	-0.473128	0.513398
O20	O	0.500799	0.026872	1.013398
N21	N	0.090139	-0.465235	0.490972
N22	N	0.590139	0.034765	0.990972
N23	N	0.013110	-0.542249	0.414202
N24	N	0.513110	-0.042249	0.914202
C25	C	0.124394	-0.431229	0.734914
C26	C	0.624394	0.068771	1.234914
C27	C	0.334265	-0.431145	0.524799
C28	C	0.834265	0.068855	1.024799
C29	C	0.124204	-0.431200	0.524965
C30	C	0.624204	0.068800	1.024965
C31	C	0.124184	-0.221175	0.524955
C32	C	0.624184	0.278825	1.024955
C33	C	0.158017	-0.322536	0.558710
C34	C	0.658017	0.177464	1.058710
C35	C	0.158027	-0.397406	0.558711
C36	C	0.658027	0.102594	1.058711
C37	C	0.176763	-0.378688	0.577408
C38	C	0.676763	0.121312	1.077408
C39	C	0.258412	-0.364594	0.534386
C40	C	0.758412	0.135406	1.034386
C41	C	0.309454	-0.381596	0.517340
C42	C	0.809454	0.118404	1.017340
C43	C	0.309485	-0.464188	0.548836
C44	C	0.809485	0.035812	1.048836
C45	C	0.258444	-0.447186	0.565883
C46	C	0.758444	0.052814	1.065883
C47	C	0.170304	-0.297002	0.508532
C48	C	0.670304	0.202998	1.008532
C49	C	0.153260	-0.245956	0.491537
C50	C	0.653260	0.254044	0.991537
C51	C	0.111648	-0.245983	0.574901
C52	C	0.611648	0.254017	1.074901
C53	C	0.128691	-0.297029	0.591896
C54	C	0.628691	0.202971	1.091896
C55	C	0.107841	-0.385091	0.571080
C56	C	0.607841	0.114909	1.071080
C57	C	0.090813	-0.402108	0.554078
C58	C	0.590813	0.097892	1.054078
C59	C	0.174153	-0.443755	0.512351
C60	C	0.674153	0.056245	1.012351
C61	C	0.191183	-0.426739	0.529347
C62	C	0.691183	0.073261	1.029347
C63	C	0.107923	-0.385106	0.659111
C64	C	0.607923	0.114894	1.159111
C65	C	0.090955	-0.402138	0.710156
C66	C	0.590955	0.097862	1.210156
C67	C	0.174335	-0.443795	0.710087
C68	C	0.674335	0.056205	1.210087
C69	C	0.191302	-0.426764	0.659041
C70	C	0.691302	0.073236	1.159041
C71	C	0.158095	-0.397418	0.633555
C72	C	0.658095	0.102582	1.133555
C73	C	0.232909	-0.397388	0.558656
C74	C	0.732909	0.102612	1.058656
C75	C	0.105069	-0.449619	0.791057
C76	C	0.605069	0.050381	1.291057
C77	C	0.390406	-0.449193	0.505789
C78	C	0.890406	0.050807	1.005789
C79	C	0.104813	-0.449599	0.506607
C80	C	0.604813	0.050401	1.006607
C81	C	0.105125	-0.165028	0.506915
C82	C	0.605125	0.334972	1.006915
C83	C	-0.020560	-0.576246	0.169890
C84	C	0.479440	-0.076246	0.669890
C85	C	-0.020889	-0.786183	0.379970
C86	C	0.479111	-0.286183	0.879970
C87	C	-0.020859	-0.576235	0.380063
C88	C	0.479141	-0.076235	0.880063
C89	C	-0.230772	-0.576015	0.379658
C90	C	0.269228	-0.076015	0.879658
C91	C	-0.129417	-0.609898	0.346025
C92	C	0.370583	-0.109898	0.846025
C93	C	-0.054587	-0.609979	0.346172
C94	C	0.445413	-0.109979	0.846172
C95	C	-0.073269	-0.628671	0.327396
C96	C	0.426731	-0.128671	0.827396
C97	C	-0.087401	-0.710299	0.370335
C98	C	0.412599	-0.210299	0.870335
C99	C	-0.070424	-0.761345	0.387369
C100	C	0.429576	-0.261345	0.887369
C101	C	0.012165	-0.761428	0.356003
C102	C	0.512165	-0.261428	0.856003
C103	C	-0.004813	-0.710383	0.338967
C104	C	0.495187	-0.210383	0.838967
C105	C	-0.155001	-0.622196	0.396191
C106	C	0.344999	-0.122196	0.896191
C107	C	-0.206043	-0.605128	0.413125
C108	C	0.293957	-0.105128	0.913125
C109	C	-0.205914	-0.563467	0.329724
C110	C	0.294086	-0.063467	0.829724
C111	C	-0.154872	-0.580535	0.312790
C112	C	0.345128	-0.080535	0.812790
C113	C	-0.066886	-0.559797	0.333828
C114	C	0.433114	-0.059797	0.833828
C115	C	-0.049903	-0.542809	0.350903
C116	C	0.450097	-0.042809	0.850903
C117	C	-0.008321	-0.626180	0.392654
C118	C	0.491679	-0.126180	0.892654
C119	C	-0.025304	-0.643170	0.375585
C120	C	0.474696	-0.143170	0.875585
C121	C	-0.066758	-0.559805	0.245702
C122	C	0.433242	-0.059805	0.745702
C123	C	-0.049671	-0.542819	0.194658
C124	C	0.450329	-0.042819	0.694658
C125	C	-0.008026	-0.626194	0.194706
C126	C	0.491974	-0.126194	0.694706
C127	C	-0.025111	-0.643179	0.245752
C128	C	0.474889	-0.143179	0.745752
C129	C	-0.054479	-0.609983	0.271248
C130	C	0.445521	-0.109983	0.771248
C131	C	-0.054597	-0.684821	0.346135
C132	C	0.445403	-0.184821	0.846135
C133	C	-0.002109	-0.556901	0.113746
C134	C	0.497891	-0.056901	0.613746
C135	C	-0.002869	-0.842328	0.398966
C136	C	0.497131	-0.342328	0.898966
C137	C	-0.002496	-0.556887	0.398501
C138	C	0.497504	-0.056887	0.898501
C139	C	-0.286914	-0.556929	0.397631
C140	C	0.213086	-0.056929	0.897631
N141	N	0.436349	-0.465146	0.490703
N142	N	0.936349	0.034854	0.990703
O143	O	0.592194	-0.469605	0.374236
O144	O	1.092194	0.030395	0.874236
O145	O	0.592389	-0.564393	0.502890
O146	O	1.092389	-0.064393	1.002890
O147	O	0.592305	-0.564176	0.421300
O148	O	1.092305	-0.064176	0.921300
O149	O	0.592277	-0.469822	0.455826
O150	O	1.092277	0.030178	0.955826
O151	O	0.511216	-0.537214	0.448415
O152	O	1.011216	-0.037214	0.948415
O153	O	0.511300	-0.537431	0.530004
O154	O	1.011300	-0.037431	1.030004
O155	O	0.511104	-0.442643	0.401350
O156	O	1.011104	0.057357	0.901350
Cu157	Cu	0.503798	-0.487575	0.468153
Cu158	Cu	1.003798	0.012425	0.968153
Cu159	Cu	0.599695	-0.519461	0.436087
Cu160	Cu	1.099695	-0.019461	0.936087
O161	O	0.511188	-0.442860	0.482940
O162	O	1.011188	0.057140	0.982940
N163	N	0.667145	-0.541890	0.413532
N164	N	1.167145	-0.041890	0.913532
N165	N	0.090108	-0.119085	0.490958
N166	N	0.590108	0.380915	0.990958
O167	O	-0.026275	0.036848	0.486394
O168	O	0.473725	0.536848	0.986394
O169	O	0.102381	0.036888	0.391584
O170	O	0.602381	0.536888	0.891584
O171	O	0.020751	0.036852	0.391854
O172	O	0.520751	0.536852	0.891854
O173	O	0.055356	0.036884	0.486124
O174	O	0.555356	0.536884	0.986124
O175	O	0.047821	-0.044242	0.418876
O176	O	0.547821	0.455758	0.918876
O177	O	0.129452	-0.044207	0.418606
O178	O	0.629452	0.455793	0.918606
O179	O	0.000796	-0.044246	0.513417
O180	O	0.500796	0.455754	1.013417
Cu181	Cu	0.067596	-0.051631	0.468479
Cu182	Cu	0.567596	0.448369	0.968479
Cu183	Cu	0.035582	0.044273	0.436522
Cu184	Cu	0.535582	0.544273	0.936522
O185	O	0.082426	-0.044211	0.513146
O186	O	0.582426	0.455789	1.013146
N187	N	0.013063	0.111726	0.414043
N188	N	0.513063	0.611726	0.914043
N189	N	0.090453	-0.465282	0.837001
N190	N	0.590453	0.034718	1.337001
O191	O	0.085913	-0.581648	0.992925
O192	O	0.585913	-0.081648	1.492925
O193	O	-0.008857	-0.452947	0.992970
O194	O	0.491143	0.047053	1.492970
O195	O	-0.008635	-0.534562	0.992946
O196	O	0.491365	-0.034562	1.492946
O197	O	0.085691	-0.500033	0.992949
O198	O	0.585691	-0.000033	1.492949
O199	O	0.018365	-0.507512	0.911855
O200	O	0.518365	-0.007512	1.411855
O201	O	0.018143	-0.425898	0.911878
O202	O	0.518143	0.074102	1.411878
O203	O	0.112912	-0.554598	0.911834
O204	O	0.612912	-0.054598	1.411834
Cu205	Cu	0.067993	-0.487778	0.904452
Cu206	Cu	0.567993	0.012222	1.404452
Cu207	Cu	0.036063	-0.519767	1.000352
Cu208	Cu	0.536063	-0.019767	1.500352
O209	O	0.112691	-0.472984	0.911857
O210	O	0.612691	0.027016	1.411857
N211	N	0.013602	-0.542269	1.067803
N212	N	0.513602	-0.042269	1.567803
C213	C	0.031188	-0.423114	0.392334
C214	C	0.531188	0.076886	0.892334
C215	C	0.132194	-0.524016	0.392223
C216	C	0.632194	-0.024016	0.892223
C217	C	0.072056	-0.584366	0.512840
C218	C	0.572056	-0.084366	1.012840
C219	C	-0.028950	-0.483464	0.512950
C220	C	0.471050	0.016536	1.012950
C221	C	0.551868	-0.563965	0.532655
C222	C	1.051868	-0.063965	1.032655
C223	C	0.551766	-0.563697	0.431617
C224	C	1.051766	-0.063697	0.931617
C225	C	0.551623	-0.443070	0.371586
C226	C	1.051623	0.056930	0.871586
C227	C	0.551728	-0.443339	0.472623
C228	C	1.051728	0.056661	0.972623
C229	C	0.132090	-0.003555	0.392006
C230	C	0.632090	0.496445	0.892006
C231	C	0.031035	-0.003698	0.392374
C232	C	0.531035	0.496302	0.892374
C233	C	-0.028947	-0.003703	0.512961
C234	C	0.471053	0.496297	1.012961
C235	C	0.072143	-0.003661	0.512626
C236	C	0.572143	0.496339	1.012626
C237	C	-0.008408	-0.423209	0.952430
C238	C	0.491592	0.076791	1.452430
C239	C	-0.008128	-0.524272	0.952385
C240	C	0.491872	-0.024272	1.452385
C241	C	0.112464	-0.584336	0.952374
C242	C	0.612464	-0.084336	1.452374
C243	C	0.112190	-0.483267	0.952401
C244	C	0.612190	0.016733	1.452401
H245	H	0.050098	-0.392105	0.730957
H246	H	0.550098	0.107895	1.230957
H247	H	0.079554	-0.003651	0.542242
H248	H	0.579554	0.496349	1.042242
H249	H	0.023621	-0.003702	0.362756
H250	H	0.523621	0.496298	0.862756
O251	O	-0.043406	-0.533142	0.952322
O252	O	0.456594	-0.033142	1.452322
C253	C	-0.065692	-0.591060	0.952275
C254	C	0.434308	-0.091060	1.452275
C255	C	-0.025693	-0.581076	0.952336
C256	C	0.474307	-0.081076	1.452336
H257	H	-0.051390	-0.629817	0.952297
H258	H	0.448610	-0.129817	1.452297
H259	H	-0.076336	-0.564083	0.918325
H260	H	0.423664	-0.064083	1.418325
H261	H	-0.098981	-0.586676	0.986198
H262	H	0.401019	-0.086676	1.486198
H263	H	0.007622	-0.585467	0.918436
H264	H	0.507622	-0.085467	1.418436
H265	H	-0.015091	-0.608051	0.986309
H266	H	0.484909	-0.108051	1.486309
H267	H	0.079411	-0.621363	0.542512
H268	H	0.579411	-0.121363	1.042512
O269	O	0.020176	-0.658470	0.421165
O270	O	0.520176	-0.158470	0.921165
C271	C	0.095264	-0.724550	0.427798
C272	C	0.595264	-0.224550	0.927798
C273	C	0.063035	-0.688014	0.395460
C274	C	0.563035	-0.188014	0.895460
H275	H	0.129927	-0.748438	0.407025
H276	H	0.629927	-0.248438	0.907025
H277	H	0.074472	-0.748452	0.462405
H278	H	0.574472	-0.248452	0.962405
H279	H	0.105266	-0.703780	0.437895
H280	H	0.605266	-0.203780	0.937895
H281	H	0.053023	-0.708744	0.385326
H282	H	0.553023	-0.208744	0.885326
H283	H	0.083844	-0.664112	0.360875
H284	H	0.583844	-0.164112	0.860875
H285	H	-0.065919	-0.476185	0.542670
H286	H	0.434081	0.023815	1.042670
O287	O	-0.043859	-0.379094	0.952467
O288	O	0.456141	0.120906	1.452467
C289	C	-0.066521	-0.298760	0.952460
C290	C	0.433479	0.201240	1.452460
C291	C	-0.026334	-0.348701	0.952430
C292	C	0.473666	0.151299	1.452430
H293	H	-0.052364	-0.274170	0.952421
H294	H	0.447636	0.225830	1.452421
H295	H	-0.099767	-0.303858	0.986409
H296	H	0.400233	0.196142	1.486409
H297	H	-0.077174	-0.281270	0.918536
H298	H	0.422826	0.218730	1.418536
H299	H	-0.015639	-0.366219	0.986332
H300	H	0.484361	0.133781	1.486332
H301	H	0.006886	-0.343571	0.918459
H302	H	0.506886	0.156429	1.418459
O303	O	-0.073061	-0.003686	0.548408
O304	O	0.426939	0.496314	1.048408
C305	C	-0.153381	-0.003727	0.571123
C306	C	0.346619	0.496273	1.071123
C307	C	-0.103446	-0.003741	0.530936
C308	C	0.396554	0.496259	1.030936
H309	H	-0.177957	-0.003782	0.557016
H310	H	0.322043	0.496218	1.057016
H311	H	-0.170916	0.030224	0.581744
H312	H	0.329084	0.530224	1.081744
H313	H	-0.148222	-0.037652	0.604380
H314	H	0.351778	0.462348	1.104380
H315	H	-0.108562	0.030161	0.497653
H316	H	0.391438	0.530161	0.997653
H317	H	-0.085928	-0.037715	0.520357
H318	H	0.414072	0.462285	1.020357
O319	O	0.551616	-0.407549	0.327506
O320	O	1.051616	0.092451	0.827506
C321	C	0.593532	-0.354197	0.255917
C322	C	1.093532	0.145803	0.755917
C323	C	0.593596	-0.394414	0.305832
C324	C	1.093596	0.105586	0.805832
H325	H	0.627474	-0.343572	0.238375
H326	H	1.127474	0.156428	0.738375
H327	H	0.559598	-0.320938	0.261054
H328	H	1.059598	0.179062	0.761054
H329	H	0.593491	-0.368332	0.231354
H330	H	1.093491	0.131668	0.731354
H331	H	0.593654	-0.380324	0.330422
H332	H	1.093654	0.119676	0.830422
H333	H	0.627527	-0.427665	0.300659
H334	H	1.127527	0.072335	0.800659
H335	H	0.142219	-0.621297	0.952354
H336	H	0.642219	-0.121297	1.452354
O337	O	0.176328	-0.532771	0.356823
O338	O	0.676328	-0.032771	0.856823
C339	C	0.256611	-0.590542	0.334248
C340	C	0.756611	-0.090542	0.834248
C341	C	0.206656	-0.580688	0.374385
C342	C	0.706656	-0.080688	0.874385
H343	H	0.281141	-0.629286	0.348428
H344	H	0.781141	-0.129286	0.848428
H345	H	0.274185	-0.563526	0.323580
H346	H	0.774185	-0.063526	0.823580
H347	H	0.251475	-0.586116	0.301004
H348	H	0.751475	-0.086116	0.801004
H349	H	0.211749	-0.585121	0.407655
H350	H	0.711749	-0.085121	0.907655
H351	H	0.189099	-0.607702	0.385011
H352	H	0.689099	-0.107702	0.885011
O353	O	0.551804	-0.407991	0.481381
O354	O	1.051804	0.092009	0.981381
C355	C	0.593752	-0.354733	0.457879
C356	C	1.093752	0.145267	0.957879
C357	C	0.593731	-0.394770	0.447916
C358	C	1.093731	0.105230	0.947916
H359	H	0.627641	-0.344024	0.430822
H360	H	1.127641	0.155976	0.930822
H361	H	0.593835	-0.369020	0.496595
H362	H	1.093835	0.130980	0.996595
H363	H	0.559771	-0.321486	0.453575
H364	H	1.059771	0.178514	0.953575
H365	H	0.627706	-0.428030	0.452192
H366	H	1.127706	0.071970	0.952192
H367	H	0.593623	-0.380444	0.409203
H368	H	1.093623	0.119556	0.909203
O369	O	0.022454	-0.379020	0.356871
O370	O	0.522454	0.120980	0.856871
C371	C	0.017903	-0.335365	0.275666
C372	C	0.517903	0.164635	0.775666
C373	C	0.027818	-0.385334	0.315781
C374	C	0.527818	0.114666	0.815781
H375	H	0.022227	-0.340452	0.242439
H376	H	0.522227	0.159548	0.742439
H377	H	0.044929	-0.317779	0.264946
H378	H	0.544929	0.182221	0.764946
H379	H	-0.020824	-0.310865	0.289934
H380	H	0.479176	0.189135	0.789934
H381	H	0.066532	-0.409871	0.301547
H382	H	0.566532	0.090129	0.801547
H383	H	0.000763	-0.402881	0.326496
H384	H	0.500763	0.097119	0.826496
O385	O	0.551954	-0.599421	0.576755
O386	O	1.051954	-0.099421	1.076755
C387	C	0.552013	-0.622082	0.657065
C388	C	1.052013	-0.122082	1.157065
C389	C	0.551928	-0.581889	0.607141
C390	C	1.051928	-0.081889	1.107141
H391	H	0.551982	-0.607919	0.681650
H392	H	1.051982	-0.107919	1.181650
H393	H	0.585977	-0.655320	0.651940
H394	H	1.085977	-0.155320	1.151940
H395	H	0.518105	-0.632754	0.674577
H396	H	1.018105	-0.132754	1.174577
H397	H	0.585812	-0.571176	0.589602
H398	H	1.085812	-0.071176	1.089602
H399	H	0.517941	-0.548678	0.612298
H400	H	1.017941	-0.048678	1.112298
O401	O	0.551757	-0.598999	0.422734
O402	O	1.051757	-0.098999	0.922734
C403	C	0.551740	-0.621315	0.364812
C404	C	1.051740	-0.121315	0.864812
C405	C	0.551739	-0.581289	0.374810
C406	C	1.051739	-0.081289	0.874810
H407	H	0.551736	-0.607015	0.326063
H408	H	1.051736	-0.107015	0.826063
H409	H	0.517826	-0.632002	0.391801
H410	H	1.017826	-0.132002	0.891801
H411	H	0.585698	-0.654578	0.369164
H412	H	1.085698	-0.154578	0.869164
H413	H	0.517804	-0.548000	0.370453
H414	H	1.017804	-0.048000	0.870453
H415	H	0.585675	-0.570643	0.347824
H416	H	1.085675	-0.070643	0.847824
O417	O	0.176096	-0.003249	0.356452
O418	O	0.676096	0.496751	0.856452
C419	C	0.256295	-0.002847	0.333617
C420	C	0.756295	0.497153	0.833617
C421	C	0.206477	-0.003182	0.373920
C422	C	0.706477	0.496818	0.873920
H423	H	0.280875	-0.002804	0.347729
H424	H	0.780875	0.497196	0.847729
H425	H	0.250982	0.031174	0.300474
H426	H	0.750982	0.531174	0.800474
H427	H	0.273918	-0.036702	0.322819
H428	H	0.773918	0.463298	0.822819
H429	H	0.188826	0.030649	0.384759
H430	H	0.688826	0.530649	0.884759
H431	H	0.211821	-0.037225	0.407037
H432	H	0.711821	0.462775	0.907037
O433	O	0.147559	-0.474403	0.952307
O434	O	0.647559	0.025597	1.452307
C435	C	0.198785	-0.424895	0.910309
C436	C	0.698785	0.075105	1.410309
C437	C	0.158737	-0.434888	0.910348
C438	C	0.658737	0.065112	1.410348
H439	H	0.207828	-0.392941	0.876394
H440	H	0.707828	0.107059	1.376394
H441	H	0.232870	-0.458690	0.910263
H442	H	0.732870	0.041310	1.410263
H443	H	0.185279	-0.415635	0.944266
H444	H	0.685279	0.084365	1.444266
H445	H	0.172198	-0.444135	0.876398
H446	H	0.672198	0.055865	1.376398
H447	H	0.124661	-0.401085	0.910420
H448	H	0.624661	0.098915	1.410420
O449	O	0.075597	-0.356622	0.634430
O450	O	0.575597	0.143378	1.134430
C451	C	-0.008896	-0.317075	0.639886
C452	C	0.491104	0.182925	1.139886
C453	C	0.027656	-0.349343	0.667898
C454	C	0.527656	0.150657	1.167898
H455	H	-0.047664	-0.311171	0.666933
H456	H	0.452336	0.188829	1.166933
H457	H	-0.003072	-0.335767	0.616006
H458	H	0.496928	0.164233	1.116006
H459	H	-0.003008	-0.280365	0.615975
H460	H	0.496992	0.219635	1.115975
H461	H	0.021791	-0.386059	0.691835
H462	H	0.521791	0.113941	1.191835
H463	H	0.021823	-0.330613	0.691747
H464	H	0.521823	0.169387	1.191747
H465	H	0.232159	-0.436796	0.638236
H466	H	0.732159	0.063204	1.138236
O467	O	0.206660	-0.472305	0.734765
O468	O	0.706660	0.027695	1.234765
C469	C	0.291154	-0.511788	0.729302
C470	C	0.791154	-0.011788	1.229302
C471	C	0.254599	-0.479506	0.701294
C472	C	0.754599	0.020494	1.201294
H473	H	0.329921	-0.517612	0.702253
H474	H	0.829921	-0.017612	1.202253
H475	H	0.285341	-0.548534	0.753186
H476	H	0.785341	-0.048534	1.253186
H477	H	0.285260	-0.493087	0.753210
H478	H	0.785260	0.006913	1.253210
H479	H	0.260472	-0.498164	0.677360
H480	H	0.760472	0.001836	1.177360
H481	H	0.260422	-0.442762	0.677441
H482	H	0.760422	0.057238	1.177441
H483	H	0.049948	-0.392069	0.564138
H484	H	0.549948	0.107931	1.064138
O485	O	0.206429	-0.472228	0.483817
O486	O	0.706429	0.027772	0.983817
C487	C	0.290892	-0.511768	0.444252
C488	C	0.790892	-0.011768	0.944252
C489	C	0.254392	-0.479510	0.476561
C490	C	0.754392	0.020490	0.976561
H491	H	0.329678	-0.517673	0.438384
H492	H	0.829678	-0.017673	0.938384
H493	H	0.285013	-0.493066	0.407529
H494	H	0.785013	0.006934	0.907529
H495	H	0.285000	-0.548478	0.462953
H496	H	0.785000	-0.048478	0.962953
H497	H	0.260261	-0.442794	0.457903
H498	H	0.760261	0.057206	0.957903
H499	H	0.260279	-0.498250	0.513283
H500	H	0.760279	0.001750	1.013283
H501	H	0.232048	-0.436761	0.519270
H502	H	0.732048	0.063239	1.019270
O503	O	0.233744	-0.479106	0.589429
O504	O	0.733744	0.020894	1.089429
C505	C	0.239164	-0.562825	0.618891
C506	C	0.739164	-0.062825	1.118891
C507	C	0.267196	-0.526727	0.592207
C508	C	0.767196	-0.026727	1.092207
H509	H	0.266197	-0.601336	0.621155
H510	H	0.766197	-0.101336	1.121155
H511	H	0.215255	-0.552619	0.598045
H512	H	0.715255	-0.052619	1.098045
H513	H	0.215282	-0.561245	0.657264
H514	H	0.715282	-0.061245	1.157264
H515	H	0.291104	-0.528288	0.553834
H516	H	0.791104	-0.028288	1.053834
H517	H	0.291075	-0.536945	0.613091
H518	H	0.791075	-0.036945	1.113091
H519	H	0.330277	-0.504737	0.554712
H520	H	0.830277	-0.004737	1.054712
O521	O	0.334154	-0.349672	0.493754
O522	O	0.834154	0.150328	0.993754
C523	C	0.328738	-0.265961	0.464335
C524	C	0.828738	0.234039	0.964335
C525	C	0.300704	-0.302060	0.491045
C526	C	0.800704	0.197940	0.991045
H527	H	0.301707	-0.227460	0.462145
H528	H	0.801707	0.272540	0.962145
H529	H	0.352595	-0.267477	0.425938
H530	H	0.852595	0.232523	0.925938
H531	H	0.352673	-0.276229	0.485182
H532	H	0.852673	0.223771	0.985182
H533	H	0.276743	-0.291817	0.470239
H534	H	0.776743	0.208183	0.970239
H535	H	0.276878	-0.300538	0.529444
H536	H	0.776878	0.199462	1.029444
H537	H	-0.059677	-0.501957	0.173865
H538	H	0.440323	-0.001957	0.673865
O539	O	0.233556	-0.316241	0.527452
O540	O	0.733556	0.183759	1.027452
C541	C	0.175968	-0.254484	0.565079
C542	C	0.675968	0.245516	1.065079
C543	C	0.204079	-0.309259	0.573001
C544	C	0.704079	0.190741	1.073001
H545	H	0.152137	-0.248820	0.601899
H546	H	0.652137	0.251180	1.101899
H547	H	0.152011	-0.240098	0.542685
H548	H	0.652011	0.259902	1.042685
H549	H	0.202976	-0.233975	0.544782
H550	H	0.702976	0.266025	1.044782
H551	H	0.177106	-0.329807	0.593310
H552	H	0.677106	0.170193	1.093310
H553	H	0.228043	-0.323607	0.595375
H554	H	0.728043	0.176393	1.095375
H555	H	0.194180	-0.317769	0.481510
H556	H	0.694180	0.182231	0.981510
O557	O	0.165171	-0.221202	0.442780
O558	O	0.665171	0.278798	0.942780
C559	C	0.161184	-0.205542	0.366359
C560	C	0.661184	0.294458	0.866359
C561	C	0.147673	-0.233614	0.421566
C562	C	0.647673	0.266386	0.921566
H563	H	0.147034	-0.215559	0.349192
H564	H	0.647034	0.284441	0.849192
H565	H	0.202510	-0.215572	0.349095
H566	H	0.702510	0.284428	0.849095
H567	H	0.143981	-0.164680	0.359925
H568	H	0.643981	0.335320	0.859925
H569	H	0.164844	-0.274483	0.428043
H570	H	0.664844	0.225517	0.928043
H571	H	0.106343	-0.223544	0.438802
H572	H	0.606343	0.276456	0.938802
O573	O	0.083153	-0.221278	0.607201
O574	O	0.583153	0.278722	1.107201
C575	C	0.043716	-0.226690	0.691681
C576	C	0.543716	0.273310	1.191681
C577	C	0.075981	-0.254728	0.655154
C578	C	0.575981	0.245272	1.155154
H579	H	0.037916	-0.253722	0.730459
H580	H	0.537916	0.246278	1.230459
H581	H	0.006962	-0.202817	0.685872
H582	H	0.506962	0.297183	1.185872
H583	H	0.062416	-0.202767	0.685748
H584	H	0.562416	0.297233	1.185748
H585	H	0.057325	-0.278676	0.661065
H586	H	0.557325	0.221324	1.161065
H587	H	0.112735	-0.278570	0.660973
H588	H	0.612735	0.221430	1.160973
H589	H	0.080840	-0.361208	0.594989
H590	H	0.580840	0.138792	1.094989
H591	H	-0.015291	-0.684031	0.385637
H592	H	0.484709	-0.184031	0.885637
H593	H	0.118680	-0.317820	0.632757
H594	H	0.618680	0.182180	1.132757
H595	H	0.015877	-0.653227	0.173952
H596	H	0.515877	-0.153227	0.673952
O597	O	-0.095254	-0.527490	0.270394
O598	O	0.404746	-0.027490	0.770394
C599	C	-0.134765	-0.443000	0.264959
C600	C	0.365235	0.057000	0.764959
C601	C	-0.102488	-0.479540	0.236935
C602	C	0.397512	0.020460	0.736935
H603	H	-0.140632	-0.404224	0.237919
H604	H	0.359368	0.095776	0.737919
H605	H	-0.116104	-0.448866	0.288889
H606	H	0.383896	0.051134	0.788889
H607	H	-0.171488	-0.448864	0.288820
H608	H	0.328512	0.051136	0.788820
H609	H	-0.065759	-0.473698	0.213047
H610	H	0.434241	0.026302	0.713047
H611	H	-0.121187	-0.473665	0.213036
H612	H	0.378813	0.026335	0.713036
H613	H	-0.090726	-0.532768	0.309877
H614	H	0.409274	-0.032768	0.809877
O615	O	-0.013241	-0.691929	0.270545
O616	O	0.486759	-0.191929	0.770545
C617	C	-0.017139	-0.768353	0.286114
C618	C	0.482861	-0.268353	0.786114
C619	C	-0.030622	-0.713150	0.258015
C620	C	0.469378	-0.213150	0.758015
H621	H	-0.031177	-0.785528	0.275986
H622	H	0.468823	-0.285528	0.775986
H623	H	-0.034408	-0.774821	0.326981
H624	H	0.465592	-0.274821	0.826981
H625	H	0.024185	-0.785585	0.276150
H626	H	0.524185	-0.285585	0.776150
H627	H	-0.071940	-0.695882	0.267938
H628	H	0.428060	-0.195882	0.767938
H629	H	-0.013320	-0.706717	0.217155
H630	H	0.486680	-0.206717	0.717155
O631	O	-0.061863	-0.494047	0.338840
O632	O	0.438137	0.005953	0.838840
C633	C	-0.104892	-0.413144	0.295620
C634	C	0.395108	0.086856	0.795620
C635	C	-0.091381	-0.468352	0.309242
C636	C	0.408619	0.031648	0.809242
H637	H	-0.128767	-0.392354	0.271696
H638	H	0.371233	0.107646	0.771696
H639	H	-0.070246	-0.403127	0.274865
H640	H	0.429754	0.096873	0.774865
H641	H	-0.125692	-0.403080	0.330247
H642	H	0.374308	0.096920	0.830247
H643	H	-0.070593	-0.478456	0.274640
H644	H	0.429407	0.021544	0.774640
H645	H	-0.126045	-0.478340	0.330015
H646	H	0.373955	0.021660	0.830015
H647	H	-0.134277	-0.646110	0.423254
H648	H	0.365723	-0.146110	0.923254
H649	H	0.052703	-0.782242	0.350169
H650	H	0.552703	-0.282242	0.850169
O651	O	0.027118	-0.685707	0.315488
O652	O	0.527118	-0.185707	0.815488
C653	C	0.110831	-0.691178	0.286150
C654	C	0.610831	-0.191178	0.786150
C655	C	0.074721	-0.719183	0.312759
C656	C	0.574721	-0.219183	0.812759
H657	H	0.149327	-0.718232	0.283926
H658	H	0.649327	-0.218232	0.783926
H659	H	0.100601	-0.667289	0.307027
H660	H	0.600601	-0.167289	0.807027
H661	H	0.109298	-0.667276	0.247763
H662	H	0.609298	-0.167276	0.747763
H663	H	0.076235	-0.743113	0.351146
H664	H	0.576235	-0.243113	0.851146
H665	H	0.084963	-0.743042	0.291845
H666	H	0.584963	-0.243042	0.791845
H667	H	-0.097137	-0.782089	0.407066
H668	H	0.402863	-0.282089	0.907066
H669	H	-0.226875	-0.615140	0.453976
H670	H	0.273125	-0.115140	0.953976
O671	O	-0.135750	-0.685486	0.377218
O672	O	0.364250	-0.185486	0.877218
C673	C	-0.206099	-0.669819	0.362115
C674	C	0.293901	-0.169819	0.862115
C675	C	-0.151341	-0.697948	0.354283
C676	C	0.348659	-0.197948	0.854283
H677	H	-0.218723	-0.679892	0.343586
H678	H	0.281277	-0.179892	0.843586
H679	H	-0.212615	-0.628954	0.345757
H680	H	0.287385	-0.128954	0.845757
H681	H	-0.227505	-0.679812	0.402838
H682	H	0.272495	-0.179812	0.902838
H683	H	-0.129899	-0.687995	0.313571
H684	H	0.370101	-0.187995	0.813571
H685	H	-0.144862	-0.738806	0.370674
H686	H	0.355138	-0.238806	0.870674
O687	O	-0.230592	-0.535005	0.297397
O688	O	0.269408	-0.035005	0.797397
C689	C	-0.246141	-0.528486	0.231311
C690	C	0.253859	-0.028486	0.731311
C691	C	-0.218154	-0.560768	0.267886
C692	C	0.281846	-0.060768	0.767886
H693	H	-0.236103	-0.549306	0.207449
H694	H	0.263897	-0.049306	0.707449
H695	H	-0.236058	-0.493876	0.207389
H696	H	0.263942	0.006124	0.707389
H697	H	-0.287014	-0.518386	0.252046
H698	H	0.212986	-0.018386	0.752046
H699	H	-0.177275	-0.570905	0.247190
H700	H	0.322725	-0.070905	0.747190
H701	H	-0.228278	-0.595355	0.291807
H702	H	0.271722	-0.095355	0.791807
H703	H	-0.134040	-0.570516	0.271939
H704	H	0.365960	-0.070516	0.771939
