data_functionalizedCrystal
_audit_creation_method	'MofGen! by Chris Wilmer'
_symmetry_space_group_name_H-M	'P1'
_symmetry_Int_Tables_number	1
_symmetry_cell_setting	triclinic
loop_
_symmetry_equiv_pos_as_xyz
  x,y,z
_cell_length_a	19.077105
_cell_length_b	16.959454
_cell_length_c	19.077174
_cell_angle_alpha	92.276377
_cell_angle_beta	85.483752
_cell_angle_gamma	87.716588
loop_
_atom_site_label
_atom_site_type_symbol
_atom_site_fract_x
_atom_site_fract_y
_atom_site_fract_z
Zn1	Zn	1.093734	-0.384059	-0.441867
Zn2	Zn	1.088928	-0.510707	-0.323986
Zn3	Zn	0.971118	-0.373009	-0.319263
Zn4	Zn	0.975822	-0.510655	-0.437104
O5	O	1.032400	-0.444608	-0.380555
O6	O	1.191747	-0.405505	-0.430199
O7	O	1.069320	-0.487839	-0.224710
O8	O	0.987426	-0.263867	-0.335543
O9	O	1.188216	-0.498553	-0.343593
O10	O	1.077511	-0.271985	-0.425619
O11	O	0.982766	-0.386673	-0.221240
O12	O	0.873091	-0.386623	-0.330926
O13	O	0.995443	-0.498465	-0.536386
O14	O	0.876547	-0.487751	-0.417503
O15	O	1.082072	-0.405455	-0.539885
O16	O	1.073881	-0.621309	-0.338975
O17	O	0.990783	-0.621271	-0.422082
C18	C	0.849240	-0.435983	-0.373185
C19	C	0.770884	-0.432312	-0.370049
C20	C	0.735888	-0.483313	-0.413581
C21	C	0.662264	-0.479854	-0.410638
C22	C	0.623638	-0.425398	-0.364158
C23	C	0.658640	-0.374392	-0.320625
C24	C	0.732263	-0.377848	-0.323572
C25	C	0.403256	-0.409407	-0.350521
C26	C	0.329629	-0.405957	-0.347575
C27	C	0.333258	-0.511418	-0.437590
C28	C	0.406881	-0.514872	-0.440530
C29	C	0.441877	-0.463863	-0.396999
N30	N	0.548383	-0.421864	-0.361147
N31	N	0.517131	-0.467395	-0.400014
C32	C	1.032341	-0.649971	-0.380541
C33	C	1.032381	-0.737830	-0.380561
C34	C	0.989196	-1.109319	-0.423827
C35	C	1.075804	-1.109306	-0.337363
C36	C	1.075779	-1.026758	-0.337356
C37	C	1.032461	-0.985487	-0.380584
C38	C	0.989168	-1.026764	-0.423819
C39	C	1.119066	-0.985475	-0.294116
C40	C	1.119042	-0.902923	-0.294106
C41	C	1.075727	-0.861651	-0.337338
C42	C	1.032433	-0.902932	-0.380576
C43	C	0.989116	-0.861662	-0.423804
C44	C	0.945825	-0.902942	-0.467046
C45	C	0.945854	-0.985492	-0.467051
C46	C	1.075698	-0.779101	-0.337333
C47	C	0.989088	-0.779106	-0.423796
C48	C	1.216275	-0.453267	-0.387954
C49	C	1.294632	-0.456957	-0.391107
C50	C	1.039818	-0.453186	-0.564429
C51	C	1.042979	-0.456842	-0.642786
C52	C	1.032480	-0.238444	-0.380586
C53	C	1.032514	-0.150590	-0.380599
C54	C	0.999402	-0.405889	-0.677791
C55	C	1.002370	-0.409330	-0.751415
C56	C	1.048919	-0.463722	-0.790032
C57	C	1.092497	-0.514680	-0.755023
C58	C	1.089526	-0.511242	-0.681400
C59	C	1.062635	-0.479656	-1.010415
C60	C	1.065604	-0.483088	-1.084043
C61	C	0.975475	-0.377739	-1.080429
C62	C	0.972511	-0.374303	-1.006806
C63	C	1.016087	-0.425264	-0.971802
N64	N	1.051954	-0.467239	-0.865288
N65	N	1.013047	-0.421750	-0.896548
C66	C	1.025052	-0.436007	-0.197398
C67	C	1.022027	-0.432135	-0.119047
H68	H	0.431741	-0.367877	-0.315070
Cl69	Cl	1.117422	-0.543716	-0.966420
Cl70	Cl	1.130258	-1.161190	-0.283023
H71	H	1.130395	-0.558971	-0.786471
H72	H	1.103513	-0.527382	-1.115484
Cl73	Cl	0.455433	-0.583336	-0.498961
Cl74	Cl	0.947551	-0.345307	-0.795416
Cl75	Cl	0.934632	-0.727230	-0.478147
Cl76	Cl	0.891367	-0.851049	-0.521384
Cl77	Cl	1.173470	-0.851035	-0.239752
Cl78	Cl	1.130109	-0.727208	-0.282968
H79	H	0.961501	-0.361593	-0.646353
H80	H	1.125016	-0.552728	-0.652900
Cl81	Cl	0.776259	-0.313728	-0.268846
Cl82	Cl	0.934780	-1.161212	-0.478189
Cl83	Cl	0.784438	-0.551780	-0.472012
H84	H	0.633773	-0.521385	-0.446085
H85	H	0.627186	-0.330050	-0.282783
Cl86	Cl	1.173523	-1.037362	-0.239780
H87	H	0.934604	-0.330013	-0.975368
Cl88	Cl	0.891435	-1.037392	-0.521406
H89	H	0.304756	-0.552946	-0.473031
Cl90	Cl	0.281072	-0.337498	-0.289135
H91	H	0.939997	-0.336250	-1.108937
