data_functionalizedCrystal
_audit_creation_method	'MofGen! by Chris Wilmer'
_symmetry_space_group_name_H-M	'P1'
_symmetry_Int_Tables_number	1
_symmetry_cell_setting	triclinic
loop_
_symmetry_equiv_pos_as_xyz
  x,y,z
_cell_length_a	16.120566
_cell_length_b	18.215405
_cell_length_c	18.215399
_cell_angle_alpha	90.027541
_cell_angle_beta	92.919746
_cell_angle_gamma	87.118843
loop_
_atom_site_label
_atom_site_type_symbol
_atom_site_fract_x
_atom_site_fract_y
_atom_site_fract_z
Zn1	Zn	-1.274552	0.350108	-0.473157
Zn2	Zn	-0.774552	0.850108	0.026843
Zn3	Zn	-1.274453	0.473175	-0.350087
Zn4	Zn	-0.774453	0.973175	0.149913
Zn5	Zn	-1.135135	0.343883	-0.343865
Zn6	Zn	-0.635135	0.843883	0.156135
Zn7	Zn	-1.135101	0.466888	-0.466876
Zn8	Zn	-0.635101	0.966888	0.033124
O9	O	-1.204810	0.408513	-0.408496
O10	O	-0.704810	0.908513	0.091504
O11	O	-1.391204	0.371669	-0.462064
O12	O	-0.891204	0.871669	0.037936
O13	O	-1.255945	0.456050	-0.246276
O14	O	-0.755945	0.956050	0.253724
O15	O	-1.153684	0.241727	-0.361041
O16	O	-0.653684	0.741727	0.138959
O17	O	-1.391132	0.462086	-0.371645
O18	O	-0.891132	0.962086	0.128355
O19	O	-1.256113	0.246300	-0.456031
O20	O	-0.756113	0.746300	0.043969
O21	O	-1.153588	0.361060	-0.241705
O22	O	-0.653588	0.861060	0.258295
O23	O	-1.018464	0.354964	-0.354950
O24	O	-0.518464	0.854964	0.145050
O25	O	-1.153627	0.451371	-0.570694
O26	O	-0.653627	0.951371	-0.070694
O27	O	-1.018440	0.445335	-0.445325
O28	O	-0.518440	0.945335	0.054675
O29	O	-1.256080	0.365573	-0.575309
O30	O	-0.756080	0.865573	-0.075309
O31	O	-1.255913	0.575322	-0.365554
O32	O	-0.755913	1.075322	0.134446
O33	O	-1.153531	0.570704	-0.451359
O34	O	-0.653531	1.070704	0.048641
C35	C	-0.988202	0.398793	-0.398781
C36	C	-0.488202	0.898793	0.101219
C37	C	-0.895536	0.394652	-0.394643
C38	C	-0.395536	0.894652	0.105357
C39	C	-1.204861	0.408465	-0.600451
C40	C	-0.704861	0.908465	-0.100451
C41	C	-1.204883	0.408444	-0.682251
C42	C	-0.704883	0.908444	-0.182251
C43	C	-1.204730	0.599716	-0.408467
C44	C	-0.704730	1.099716	0.091533
C45	C	-1.204772	0.681517	-0.408483
C46	C	-0.704772	1.181517	0.091517
C47	C	-0.725874	0.387074	-0.387093
C48	C	-0.225874	0.887074	0.112907
C49	C	-0.684587	0.430016	-0.429905
C50	C	-0.184587	0.930016	0.070095
C51	C	-0.590181	0.425800	-0.425704
C52	C	-0.090181	0.925800	0.074296
C53	C	-0.820288	0.391289	-0.391293
C54	C	-0.320288	0.891289	0.108707
C55	C	-0.422264	0.418275	-0.418237
C56	C	0.077736	0.918275	0.081763
C57	C	-0.514930	0.422441	-0.422358
C58	C	-0.014930	0.922441	0.077642
C59	C	-1.204913	0.216565	-0.408542
C60	C	-0.704913	0.716565	0.091458
C61	C	-1.204957	0.134768	-0.408562
C62	C	-0.704957	0.634768	0.091438
C63	C	-1.258133	0.872032	-0.458009
C64	C	-0.758133	1.372032	0.041991
C65	C	-1.258163	0.948892	-0.458024
C66	C	-0.758163	1.448892	0.041976
C67	C	-1.151591	0.944247	-0.359033
C68	C	-0.651591	1.444247	0.140967
C69	C	-1.151557	0.867388	-0.359022
C70	C	-0.651557	1.367388	0.140978
C71	C	-1.204833	0.831283	-0.408509
C72	C	-0.704833	1.331283	0.091491
C73	C	-1.204897	0.985002	-0.408535
C74	C	-0.704897	1.485002	0.091465
C75	C	-1.204929	1.068337	-0.408552
C76	C	-0.704929	1.568337	0.091448
C77	C	-1.204799	0.747943	-0.408494
C78	C	-0.704799	1.247943	0.091506
C79	C	-1.258249	0.363726	-0.872850
C80	C	-0.758249	0.863726	-0.372850
C81	C	-1.258259	0.363705	-0.949709
C82	C	-0.758259	0.863705	-0.449709
C83	C	-1.151575	0.453051	-0.944893
C84	C	-0.651575	0.953051	-0.444893
C85	C	-1.151561	0.453068	-0.868035
C86	C	-0.651561	0.953068	-0.368035
C87	C	-1.204903	0.408407	-0.832016
C88	C	-0.704903	0.908407	-0.332016
C89	C	-1.204927	0.408369	-0.985733
C90	C	-0.704927	0.908369	-0.485733
C91	C	-1.204937	0.408347	-1.069067
C92	C	-0.704937	0.908347	-0.569067
C93	C	-1.204892	0.408428	-0.748676
C94	C	-0.704892	0.908428	-0.248676
C95	C	-1.204807	0.408511	-0.217290
C96	C	-0.704807	0.908511	0.282710
C97	C	-1.204947	0.408331	-0.135498
C98	C	-0.704947	0.908331	0.364502
H99	H	-0.720140	0.469945	-0.469713
H100	H	-0.220140	0.969945	0.030287
C101	C	-0.677850	0.333143	-0.333314
C102	C	-0.177850	0.833143	0.166686
H103	H	-0.619781	0.337358	-0.337507
H104	H	-0.119781	0.837358	0.162493
H105	H	-0.692090	0.284330	-0.344783
H106	H	-0.192090	0.784330	0.155217
H107	H	-0.692038	0.344482	-0.284466
H108	H	-0.192038	0.844482	0.215534
H109	H	-1.301512	0.842637	-0.498305
H110	H	-0.801512	1.342637	0.001695
H111	H	-1.108114	0.489451	-0.834786
H112	H	-0.608114	0.989451	-0.334786
C113	C	-1.316944	0.314560	-0.994625
C114	C	-0.816944	0.814560	-0.494625
H115	H	-1.348712	0.287970	-0.962163
H116	H	-0.848712	0.787970	-0.462163
H117	H	-1.285077	0.281056	-1.023183
H118	H	-0.785077	0.781056	-0.523183
H119	H	-1.353262	0.344340	-1.026230
H120	H	-0.853262	0.844340	-0.526230
H121	H	-1.108217	0.973654	-0.318742
H122	H	-0.608217	1.473654	0.181258
H123	H	-1.301563	0.982067	-0.498333
H124	H	-0.801563	1.482067	0.001667
C125	C	-1.316915	0.314597	-0.833228
C126	C	-0.816915	0.814597	-0.333228
H127	H	-1.309274	0.321010	-0.781605
H128	H	-0.809274	0.821010	-0.281605
H129	H	-1.304740	0.264602	-0.845289
H130	H	-0.804740	0.764602	-0.345289
H131	H	-1.372931	0.327881	-0.848338
H132	H	-0.872931	0.827881	-0.348338
H133	H	-1.108147	0.489414	-0.974229
H134	H	-0.608147	0.989414	-0.474229
C135	C	-1.092926	0.822561	-0.304568
C136	C	-0.592926	1.322561	0.195432
H137	H	-1.061210	0.855071	-0.275090
H138	H	-0.561210	1.355071	0.224910
H139	H	-1.056569	0.790958	-0.331059
H140	H	-0.556569	1.290958	0.168941
H141	H	-1.124834	0.794007	-0.273953
H142	H	-0.624834	1.294007	0.226047
