data_functionalizedCrystal
_audit_creation_method	'MofGen! by Chris Wilmer'
_symmetry_space_group_name_H-M	'P1'
_symmetry_Int_Tables_number	1
_symmetry_cell_setting	triclinic
loop_
_symmetry_equiv_pos_as_xyz
  x,y,z
_cell_length_a	10.654546
_cell_length_b	10.654550
_cell_length_c	17.766277
_cell_angle_alpha	89.994852
_cell_angle_beta	89.989732
_cell_angle_gamma	84.484193
loop_
_atom_site_label
_atom_site_type_symbol
_atom_site_fract_x
_atom_site_fract_y
_atom_site_fract_z
O1	O	1.667852	0.176380	-0.062609
O2	O	1.302373	0.193191	-0.062606
O3	O	1.493516	0.002046	-0.062605
O4	O	1.476710	0.367525	-0.062610
O5	O	1.493482	0.002036	0.062584
O6	O	1.302339	0.193180	0.062582
O7	O	1.667818	0.176370	0.062580
Cu8	Cu	1.485076	0.184774	0.074012
Cu9	Cu	1.485116	0.184786	-0.074038
O10	O	1.476676	0.367514	0.062578
C11	C	1.255558	0.191952	-0.000012
C12	C	1.116115	0.188262	-0.000011
C13	C	1.050639	0.186521	-0.068255
C14	C	0.919618	0.183044	-0.068261
C15	C	0.919562	0.183043	0.068227
C16	C	1.050579	0.186529	0.068232
C17	C	1.050671	0.186516	-0.147055
C18	C	0.919650	0.183039	-0.147061
C19	C	1.492265	-0.044757	-0.000011
C20	C	1.488573	-0.184200	-0.000014
C21	C	1.601115	-0.263687	-0.000012
C22	C	1.597638	-0.394708	-0.000018
C23	C	1.369068	-0.366742	-0.000023
C24	C	1.372546	-0.235724	-0.000023
C25	C	1.733078	-0.279835	-0.000006
C26	C	1.729601	-0.410855	-0.000011
C27	C	1.714633	0.177608	-0.000016
C28	C	1.854077	0.181298	-0.000022
C29	C	1.477927	0.414317	-0.000017
C30	C	1.481619	0.553761	-0.000019
N31	N	1.485057	0.184765	0.178142
N32	N	1.485145	0.184785	-0.178169
C33	C	1.569723	0.100168	0.217530
C34	C	1.569730	0.100163	0.296331
C35	C	1.485083	0.184775	0.335743
C36	C	1.400401	0.269378	0.296345
C37	C	1.400388	0.269373	0.217545
C38	C	1.469624	0.299014	0.460579
C39	C	1.469646	0.299020	0.539378
C40	C	1.485117	0.184791	0.578789
C41	C	1.500593	0.070550	0.539392
C42	C	1.500579	0.070544	0.460591
C43	C	1.485088	0.184790	0.421188
C44	C	1.569795	0.100181	0.703622
C45	C	1.569794	0.100173	0.782426
C46	C	1.400471	0.269400	0.782438
C47	C	1.400467	0.269397	0.703637
C48	C	1.485135	0.184788	0.664233
H49	H	1.280904	-0.171009	-0.000035
H50	H	1.513190	-0.022467	0.571478
H51	H	1.457004	0.392039	0.428497
F52	F	1.245591	-0.421589	-0.000034
H53	H	1.457053	0.392042	0.571449
H54	H	0.866187	0.181633	0.123788
F55	F	1.083128	0.302424	-0.186603
F56	F	1.659902	0.010128	0.661686
H57	H	1.638735	0.031278	0.814496
H58	H	1.513177	-0.022474	0.428517
F59	F	1.787967	-0.233266	0.070649
F60	F	1.800560	-0.241450	-0.068479
H61	H	1.638662	0.031273	0.185450
F62	F	1.781746	-0.470516	-0.070661
F63	F	1.310376	0.359443	0.824379
H64	H	1.331441	0.338263	0.185475
F65	F	1.310310	0.359425	0.338290
F66	F	1.794568	-0.465451	0.068465
H67	H	0.894843	0.094359	-0.177314
H68	H	1.103883	0.187961	0.123803
F69	F	1.118290	0.069614	-0.179004
F70	F	0.852061	0.299942	-0.179031
H71	H	1.331529	0.338288	0.671565
F72	F	1.659848	0.010118	0.338258
