data_functionalizedCrystal
_audit_creation_method	'MofGen! by Chris Wilmer'
_symmetry_space_group_name_H-M	'P1'
_symmetry_Int_Tables_number	1
_symmetry_cell_setting	triclinic
loop_
_symmetry_equiv_pos_as_xyz
  x,y,z
_cell_length_a	17.917603
_cell_length_b	21.606444
_cell_length_c	21.606444
_cell_angle_alpha	60.001331
_cell_angle_beta	90.001745
_cell_angle_gamma	57.010312
loop_
_atom_site_label
_atom_site_type_symbol
_atom_site_fract_x
_atom_site_fract_y
_atom_site_fract_z
Zr1	Zr	0.754895	0.620471	-0.052710
O2	O	0.629762	0.759039	-0.156256
O3	O	0.793256	0.488456	-0.020971
O4	O	0.793246	0.617580	-0.150090
O5	O	0.629778	0.629909	0.074718
O6	O	0.922203	0.607847	-0.145223
O7	O	0.629772	0.629914	-0.027137
O8	O	0.922221	0.376866	0.085747
O9	O	0.629760	0.860890	-0.156252
O10	O	0.905854	0.533064	-0.003799
O11	O	0.809620	0.540325	0.068582
O12	O	0.809608	0.692353	-0.083439
O13	O	0.713373	0.699613	-0.011058
Zr14	Zr	0.960578	0.604939	0.117498
Zr15	Zr	0.960567	0.604947	-0.044948
Zr16	Zr	0.754905	0.620463	0.109736
Zr17	Zr	0.754892	0.782911	-0.052705
Zr18	Zr	0.960580	0.442498	0.117493
O19	O	0.922216	0.736954	0.085759
O20	O	0.922202	0.736965	-0.145219
O21	O	0.629777	0.759028	0.074722
O22	O	1.085710	0.466371	0.221043
O23	O	1.085696	0.466382	-0.009934
O24	O	0.793271	0.488445	0.210006
O25	O	1.085694	0.595501	-0.009930
O26	O	0.922226	0.607829	0.214877
O27	O	0.793269	0.617563	0.210010
O28	O	1.085700	0.595496	0.091925
O29	O	0.793243	0.848550	-0.150082
O30	O	0.922230	0.376860	0.214870
O31	O	1.085712	0.364520	0.221040
O32	O	1.085703	0.364526	0.091917
O33	O	0.629769	0.860883	-0.027129
O34	O	0.793251	0.848544	-0.020959
O35	O	0.905864	0.533057	0.148227
O36	O	1.002099	0.525797	0.075846
O37	O	0.905852	0.685085	-0.003794
O38	O	0.809618	0.692345	0.068587
C39	C	0.857739	0.409517	0.032387
C40	C	0.857740	0.340556	0.032385
C41	C	0.600471	0.632123	0.022684
C42	C	0.513158	0.638714	0.019389
C43	C	0.907971	0.304369	-0.005398
C44	C	0.907975	0.239569	-0.005393
C45	C	0.857740	0.210962	0.032391
C46	C	0.807507	0.247152	0.070179
C47	C	0.807510	0.311946	0.070178
C48	C	0.807496	-0.014156	0.070185
C49	C	0.807495	-0.078953	0.070181
C50	C	0.907960	-0.086534	-0.005386
C51	C	0.907963	-0.021740	-0.005387
C52	C	0.857735	0.014441	0.032404
C53	C	0.857733	0.084704	0.032399
C54	C	0.857736	0.140706	0.032392
C55	C	0.353313	0.650752	0.013371
C56	C	0.362152	0.574661	0.051415
C57	C	0.273209	0.581360	0.048066
C58	C	0.442262	0.644056	0.016719
C59	C	1.115001	0.593286	0.042103
C60	C	1.202314	0.586696	0.045399
C61	C	0.857723	0.612715	-0.170801
C62	C	0.857719	0.612718	-0.239764
C63	C	0.857733	0.815893	0.032400
C64	C	0.857732	0.884853	0.032403
C65	C	0.807478	0.695864	-0.313734
C66	C	0.807487	0.695861	-0.378528
C67	C	0.857730	0.612711	-0.369352
C68	C	0.907977	0.529558	-0.295374
C69	C	0.907973	0.529562	-0.230581
C70	C	0.907992	0.529542	-0.556676
C71	C	0.907989	0.529545	-0.621477
C72	C	0.807505	0.695841	-0.704624
C73	C	0.807502	0.695845	-0.639831
C74	C	0.857752	0.612692	-0.565859
C75	C	0.857744	0.612696	-0.495602
C76	C	0.857733	0.612707	-0.439607
C77	C	0.857749	0.612695	0.235589
C78	C	0.857754	0.612692	0.304552
C79	C	1.115004	0.390098	0.042097
C80	C	1.202318	0.314547	0.045390
C81	C	0.857752	0.409507	0.235582
C82	C	0.857757	0.340543	0.304543
C83	C	1.115017	0.390088	0.245292
C84	C	1.202336	0.314534	0.317548
C85	C	0.600455	0.835321	-0.180504
C86	C	0.513137	0.910875	-0.252760
C87	C	0.600468	0.835312	0.022691
C88	C	0.513154	0.910862	0.019398
C89	C	0.857720	0.815903	-0.170795
C90	C	0.857715	0.884866	-0.239755
C91	C	1.193083	0.282862	0.005356
C92	C	1.275116	0.211883	0.008434
C93	C	1.366384	0.172588	0.051552
C94	C	1.375617	0.204280	0.091588
C95	C	1.293584	0.275261	0.088504
C96	C	0.907998	0.304364	0.378508
C97	C	0.908000	0.239575	0.443310
C98	C	0.857765	0.210961	0.434145
C99	C	0.807518	0.247148	0.360172
C100	C	0.807511	0.311941	0.295371
C101	C	1.293584	0.275263	0.313698
C102	C	1.375637	0.204280	0.381584
C103	C	1.366440	0.172566	0.453319
C104	C	1.275182	0.211845	0.457166
C105	C	1.193131	0.282830	0.389281
C106	C	0.421889	0.950155	-0.248910
C107	C	0.339836	1.021158	-0.316796
C108	C	0.349033	1.052875	-0.388531
C109	C	0.440290	1.013592	-0.392379
C110	C	0.522341	0.942595	-0.324494
C111	C	0.522389	0.942555	0.059425
C112	C	0.440356	1.013551	0.056329
C113	C	0.349089	1.052849	0.013209
C114	C	0.339856	1.021154	-0.026824
C115	C	0.421888	0.950163	-0.023731
C116	C	0.907959	0.913458	-0.230565
C117	C	0.907973	0.978247	-0.295354
C118	C	0.857736	1.014447	-0.369332
C119	C	0.807490	0.985849	-0.378520
C120	C	0.807483	0.921057	-0.313732
H121	H	0.948873	0.327660	-0.036170
H122	H	0.948888	1.001524	-0.287858
H123	H	0.278953	0.720921	-0.021712
Cl124	Cl	0.476964	0.466317	0.105570
H125	H	0.948891	0.461856	-0.287906
Cl126	Cl	1.078357	0.332252	-0.048859
Cl127	Cl	0.744372	0.211165	0.348663
Cl128	Cl	0.857785	0.129504	0.515617
Cl129	Cl	0.744322	0.800393	-0.471519
H130	H	0.948868	0.883993	-0.170335
H131	H	0.766611	0.223851	0.100948
Cl132	Cl	0.225124	1.070524	-0.311941
H133	H	1.449935	0.172306	0.378437
H134	H	1.433172	0.114790	0.054057
H135	H	0.766601	0.015291	0.100960
H136	H	0.766585	0.763554	-0.647310
Cl137	Cl	0.225112	1.070564	-0.081025
H138	H	0.766558	0.763575	-0.321215
H139	H	0.766602	0.341390	0.235148
Cl140	Cl	1.305211	0.315080	0.138845
H141	H	0.282213	1.110686	-0.443802
Cl142	Cl	0.744301	0.885130	-0.325299
Cl143	Cl	0.971177	0.194092	0.536295
Cl144	Cl	0.744335	0.800378	-0.797622
Cl145	Cl	1.263487	0.172053	-0.041897
Cl146	Cl	0.744329	1.031376	-0.471527
H147	H	0.948906	0.327653	0.385985
H148	H	0.948906	0.461830	-0.613996
Cl149	Cl	0.971110	-0.132026	-0.052892
H150	H	0.414355	0.924362	-0.056325
H151	H	0.766604	0.341412	0.100943
Cl152	Cl	0.971122	0.425010	-0.463692
Cl153	Cl	1.490360	0.154865	0.145793
Cl154	Cl	1.305171	0.315122	0.223526
Cl155	Cl	1.469600	0.083323	0.538654
Cl156	Cl	0.971146	0.425030	-0.137587
H157	H	0.948877	0.210104	-0.036158
Cl158	Cl	1.263636	0.171964	0.547354
H159	H	1.118836	0.314797	0.392426
Cl160	Cl	0.410301	0.910296	-0.158738
Cl161	Cl	0.451836	1.053473	-0.482566
Cl162	Cl	0.637050	0.893217	-0.329347
H163	H	0.447892	1.039345	0.088931
H164	H	0.596696	0.910563	0.094543
Cl165	Cl	0.245971	1.142093	0.009331
H166	H	0.948865	0.001553	-0.036157
H167	H	0.766586	-0.102243	0.100952
H168	H	0.857750	1.067205	-0.422080
