data_functionalizedCrystal
_audit_creation_method	'MofGen! by Chris Wilmer'
_symmetry_space_group_name_H-M	'P1'
_symmetry_Int_Tables_number	1
_symmetry_cell_setting	triclinic
loop_
_symmetry_equiv_pos_as_xyz
  x,y,z
_cell_length_a	16.120530
_cell_length_b	12.594516
_cell_length_c	16.120297
_cell_angle_alpha	87.122232
_cell_angle_beta	89.871860
_cell_angle_gamma	87.111852
loop_
_atom_site_label
_atom_site_type_symbol
_atom_site_fract_x
_atom_site_fract_y
_atom_site_fract_z
Zn1	Zn	1.247493	-0.539249	0.534603
Zn2	Zn	1.747493	-0.039249	1.034603
Zn3	Zn	1.254461	-0.708692	0.395557
Zn4	Zn	1.754461	-0.208692	0.895557
Zn5	Zn	1.115482	-0.521263	0.388519
Zn6	Zn	1.615482	-0.021263	0.888519
Zn7	Zn	1.108417	-0.707712	0.527526
Zn8	Zn	1.608417	-0.207712	1.027526
O9	O	1.181463	-0.619229	0.461551
O10	O	1.681463	-0.119229	0.961551
O11	O	1.364785	-0.569664	0.522065
O12	O	1.864785	-0.069664	1.022065
O13	O	1.241897	-0.676712	0.278258
O14	O	1.741897	-0.176712	0.778258
O15	O	1.133034	-0.374707	0.407914
O16	O	1.633034	0.125293	0.907914
O17	O	1.369904	-0.694153	0.419909
O18	O	1.869904	-0.194153	0.919909
O19	O	1.230022	-0.387921	0.515241
O20	O	1.730022	0.112079	1.015241
O21	O	1.139790	-0.539009	0.273087
O22	O	1.639790	-0.039009	0.773087
O23	O	0.998178	-0.538058	0.401052
O24	O	1.498178	-0.038058	0.901052
O25	O	1.120993	-0.692482	0.644831
O26	O	1.620993	-0.192482	1.144831
O27	O	0.992987	-0.675042	0.503180
O28	O	1.492987	-0.175042	1.003180
O29	O	1.223172	-0.568713	0.650030
O30	O	1.723172	-0.068713	1.150030
O31	O	1.235047	-0.857504	0.413047
O32	O	1.735047	-0.357504	0.913047
O33	O	1.127749	-0.856784	0.510004
O34	O	1.627749	-0.356784	1.010004
C35	C	0.965410	-0.604493	0.450585
C36	C	1.465410	-0.104493	0.950585
C37	C	0.872980	-0.598215	0.445913
C38	C	1.372980	-0.098215	0.945913
C39	C	0.703749	-0.586730	0.437391
C40	C	1.203749	-0.086730	0.937391
C41	C	0.660015	-0.651810	0.485772
C42	C	1.160015	-0.151810	0.985772
C43	C	0.565849	-0.645420	0.481031
C44	C	1.065849	-0.145420	0.981031
C45	C	0.797924	-0.593119	0.442132
C46	C	1.297924	-0.093119	0.942132
C47	C	1.181409	-0.895766	0.461540
C48	C	1.681409	-0.395766	0.961540
C49	C	1.181461	-1.014076	0.461567
C50	C	1.681461	-0.514076	0.961567
C51	C	1.123098	-1.082974	0.514263
C52	C	1.623098	-0.582974	1.014263
C53	C	1.106686	-1.147787	0.437359
C54	C	1.606686	-0.647787	0.937359
C55	C	1.197948	-1.160068	0.538488
C56	C	1.697948	-0.660068	1.038488
C57	C	1.165010	-1.077326	0.384621
C58	C	1.665010	-0.577326	0.884621
C59	C	1.256305	-1.089606	0.485803
C60	C	1.756305	-0.589606	0.985803
C61	C	1.239924	-1.154387	0.408848
C62	C	1.739924	-0.654387	0.908848
C63	C	1.398360	-0.634024	0.472561
C64	C	1.898360	-0.134024	0.972561
C65	C	1.490789	-0.640328	0.477253
C66	C	1.990789	-0.140328	0.977253
C67	C	1.170517	-0.632495	0.678446
C68	C	1.670517	-0.132495	1.178446
C69	C	1.165853	-0.638148	0.770874
C70	C	1.665853	-0.138148	1.270874
C71	C	1.181539	-0.341615	0.461582
C72	C	1.681539	0.158385	0.961582
C73	C	1.181572	-0.223313	0.461595
C74	C	1.681572	0.276687	0.961595
C75	C	1.192414	-0.605942	0.245502
C76	C	1.692414	-0.105942	0.745502
C77	C	1.197240	-0.600000	0.153083
C78	C	1.697240	-0.100000	0.653083
C79	C	1.157306	-0.648443	0.940100
C80	C	1.657306	-0.148443	1.440100
C81	C	1.205784	-0.589708	0.983863
C82	C	1.705784	-0.089708	1.483863
C83	C	1.201029	-0.595436	1.078026
C84	C	1.701029	-0.095436	1.578026
C85	C	1.162061	-0.642716	0.845928
C86	C	1.662061	-0.142716	1.345928
H87	H	1.073662	-1.051620	0.558754
H88	H	1.573662	-0.551620	1.058754
H89	H	1.112236	-0.703026	0.973349
H90	H	1.612236	-0.203026	1.473349
O91	O	1.298763	-1.191674	0.355581
O92	O	1.798763	-0.691674	0.855581
C93	C	1.260716	-1.248291	0.294002
C94	C	1.760716	-0.748291	0.794002
H95	H	1.198854	-1.277130	0.318237
H96	H	1.698854	-0.777130	0.818237
H97	H	1.302982	-1.319646	0.277958
H98	H	1.802982	-0.819646	0.777958
H99	H	1.249546	-1.193883	0.236018
H100	H	1.749546	-0.693883	0.736018
O101	O	0.664023	-0.514685	0.383637
O102	O	1.164023	-0.014685	0.883637
C103	C	0.616451	-0.568555	0.327388
C104	C	1.116451	-0.068555	0.827388
H105	H	0.642946	-0.653796	0.323441
H106	H	1.142946	-0.153796	0.823441
H107	H	0.618569	-0.525954	0.263386
H108	H	1.118569	-0.025954	0.763386
H109	H	0.549371	-0.569474	0.349852
H110	H	1.049371	-0.069474	0.849852
H111	H	0.693293	-0.712326	0.530755
H112	H	1.193293	-0.212326	1.030755
O113	O	1.031178	-1.178486	0.413045
O114	O	1.531178	-0.678486	0.913045
C115	C	0.969763	-1.142093	0.468738
C116	C	1.469763	-0.642093	0.968738
H117	H	0.999716	-1.128123	0.530989
H118	H	1.499716	-0.628123	1.030989
H119	H	0.921198	-1.204362	0.477928
H120	H	1.421198	-0.704362	0.977928
H121	H	0.938714	-1.064368	0.442334
H122	H	1.438714	-0.564368	0.942334
H123	H	1.151036	-1.041305	0.319560
H124	H	1.651036	-0.541305	0.819560
O125	O	1.259585	-0.524500	0.944332
O126	O	1.759585	-0.024500	1.444332
C127	C	1.303745	-0.471038	1.003569
C128	C	1.803745	0.028962	1.503569
H129	H	1.266618	-0.468714	1.063777
H130	H	1.766618	0.031286	1.563777
H131	H	1.313895	-0.386286	0.978843
H132	H	1.813895	0.113714	1.478843
H133	H	1.366430	-0.514883	1.015987
H134	H	1.866430	-0.014883	1.515987
O135	O	1.331701	-1.058889	0.510417
O136	O	1.831701	-0.558889	1.010417
C137	C	1.348792	-1.101201	0.591565
C138	C	1.848792	-0.601201	1.091565
H139	H	1.288038	-1.119321	0.624403
H140	H	1.788038	-0.619321	1.124403
H141	H	1.382715	-1.040868	0.627504
H142	H	1.882715	-0.540868	1.127504
H143	H	1.389441	-1.177626	0.588407
H144	H	1.889441	-0.677626	1.088407
O145	O	1.214437	-1.203060	0.616136
O146	O	1.714437	-0.703060	1.116136
C147	C	1.152679	-1.166655	0.671463
C148	C	1.652679	-0.666655	1.171463
H149	H	1.122228	-1.088507	0.645182
H150	H	1.622228	-0.588507	1.145182
H151	H	1.182144	-1.153464	0.734097
H152	H	1.682144	-0.653464	1.234097
H153	H	1.103728	-1.228555	0.679850
H154	H	1.603728	-0.728555	1.179850
