data_functionalizedCrystal
_audit_creation_method	'MofGen! by Chris Wilmer'
_symmetry_space_group_name_H-M	'P1'
_symmetry_Int_Tables_number	1
_symmetry_cell_setting	triclinic
loop_
_symmetry_equiv_pos_as_xyz
  x,y,z
_cell_length_a	15.944493
_cell_length_b	10.489741
_cell_length_c	15.021413
_cell_angle_alpha	90.004340
_cell_angle_beta	90.006749
_cell_angle_gamma	95.992891
loop_
_atom_site_label
_atom_site_type_symbol
_atom_site_fract_x
_atom_site_fract_y
_atom_site_fract_z
O1	O	1.115546	-0.164133	0.074020
O2	O	0.871112	-0.184492	0.074024
O3	O	0.998891	0.011364	0.074016
O4	O	0.987767	-0.359989	0.074027
O5	O	0.998871	0.011336	-0.074048
O6	O	0.871092	-0.184520	-0.074040
O7	O	1.115526	-0.164161	-0.074044
Zn8	Zn	0.993305	-0.174345	-0.097551
Zn9	Zn	0.993332	-0.174308	0.097530
O10	O	0.987747	-0.360017	-0.074037
C11	C	0.839802	-0.183674	-0.000008
C12	C	0.746538	-0.181179	-0.000006
C13	C	0.511472	-0.296465	-0.000002
C14	C	0.460530	-0.234310	-0.073011
C15	C	0.575790	-0.176557	-0.000008
C16	C	0.460554	-0.234254	0.072969
C17	C	0.410853	-0.172101	-0.000006
C18	C	0.526076	-0.114434	-0.073077
C19	C	0.526104	-0.114396	0.072968
C20	C	0.475194	-0.052153	-0.000059
C21	C	0.670805	-0.179127	-0.000010
C22	C	0.315841	-0.169521	-0.000010
C23	C	0.998041	0.058870	-0.000015
C24	C	0.995527	0.200464	-0.000013
C25	C	1.146836	-0.164979	-0.000011
C26	C	1.240099	-0.167474	-0.000007
C27	C	0.988597	-0.407523	-0.000003
C28	C	0.991111	-0.549117	0.000001
N29	N	0.993293	-0.174369	-0.230688
C30	C	0.914225	0.267451	-0.000005
C31	C	0.952621	0.360104	-0.073009
C32	C	0.952661	0.360107	0.072970
C33	C	1.033957	0.291252	-0.073078
C34	C	1.033985	0.291245	0.072968
C35	C	1.072440	0.383872	-0.000054
C36	C	0.934199	-0.264891	-0.470368
C37	C	1.010250	-0.289629	-0.529703
C38	C	0.993315	-0.174337	-0.412295
C39	C	0.917284	-0.149628	-0.529702
C40	C	0.993328	-0.174310	-0.587719
C41	C	1.069404	-0.199133	-0.470324
C42	C	0.976388	-0.059082	-0.470317
C43	C	1.052494	-0.083771	-0.529626
C44	C	0.993305	-0.174357	-0.311238
C45	C	0.993346	-0.174289	-0.688774
N46	N	0.993351	-0.174274	0.230668
H47	H	0.459107	0.051213	-0.000104
H48	H	0.918212	0.390616	-0.134728
C49	C	0.866736	-0.368426	-0.435207
N50	N	0.815928	-0.446411	-0.408721
C51	C	1.080430	0.249973	0.156352
N52	N	1.115407	0.218884	0.219164
H53	H	0.918258	0.390594	0.134695
H54	H	1.139346	0.434244	-0.000096
C55	C	0.564810	-0.046019	0.156354
N56	N	0.593961	0.005478	0.219167
C57	C	0.830413	-0.121402	-0.564934
N58	N	0.764979	-0.100152	-0.591467
C59	C	1.080376	0.250246	-0.156554
N60	N	1.115334	0.219356	-0.219429
C61	C	1.029603	-0.421286	-0.564953
N62	N	1.044172	-0.520452	-0.591502
H63	H	0.527716	-0.399752	-0.000067
H64	H	1.133722	-0.220137	-0.444351
C65	C	0.421890	-0.302676	0.156348
N66	N	0.392772	-0.354220	0.219146
C67	C	0.823923	0.199083	-0.000105
N68	N	0.755909	0.147584	-0.000185
H69	H	0.962036	0.038344	-0.444212
H70	H	1.102547	-0.007177	-0.555481
C71	C	0.564595	-0.046094	-0.156552
N72	N	0.593608	0.005373	-0.219426
C73	C	0.421827	-0.302738	-0.156386
N74	N	0.392676	-0.354288	-0.219180
