data_functionalizedCrystal
_audit_creation_method	'MofGen! by Chris Wilmer'
_symmetry_space_group_name_H-M	'P1'
_symmetry_Int_Tables_number	1
_symmetry_cell_setting	triclinic
loop_
_symmetry_equiv_pos_as_xyz
  x,y,z
_cell_length_a	17.640112
_cell_length_b	17.640280
_cell_length_c	17.637815
_cell_angle_alpha	87.852258
_cell_angle_beta	109.604340
_cell_angle_gamma	87.815931
loop_
_atom_site_label
_atom_site_type_symbol
_atom_site_fract_x
_atom_site_fract_y
_atom_site_fract_z
Zn1	Zn	1.193472	0.110284	-0.183748
Zn2	Zn	1.243953	0.199818	-0.023314
Zn3	Zn	1.083557	0.110323	-0.073770
Zn4	Zn	1.093741	0.260528	-0.173499
O5	O	1.153681	0.170238	-0.113583
O6	O	1.309033	0.096737	-0.145639
O7	O	1.239541	0.162555	0.078871
O8	O	1.072748	0.009987	-0.113764
O9	O	1.346121	0.162517	-0.027769
O10	O	1.153503	0.009958	-0.194565
O11	O	1.121698	0.096804	0.041802
O12	O	0.976043	0.155672	-0.103826
O13	O	1.090106	0.265988	-0.283737
O14	O	0.983526	0.266027	-0.177097
O15	O	1.163378	0.155605	-0.291267
O16	O	1.249416	0.308202	-0.017831
O17	O	1.139056	0.352805	-0.128171
C18	C	0.951557	0.217442	-0.144825
C19	C	0.865089	0.237658	-0.158204
C20	C	1.200837	0.356518	-0.066428
C21	C	1.221078	0.436198	-0.046270
C22	C	1.122247	0.217564	-0.316523
C23	C	1.108852	0.237731	-0.403004
C24	C	0.560978	0.016651	-0.011950
C25	C	0.479730	0.035664	-0.024529
C26	C	0.487635	0.150662	-0.100622
C27	C	0.568884	0.131657	-0.088053
C28	C	0.605549	0.064651	-0.043715
C29	C	0.613455	0.179657	-0.119818
C30	C	0.694698	0.160655	-0.107246
C31	C	0.731370	0.093653	-0.062909
C32	C	0.686792	0.045649	-0.031143
C33	C	0.576789	0.246665	-0.164150
C34	C	0.621360	0.294665	-0.195915
C35	C	0.702603	0.275661	-0.183348
C36	C	0.739275	0.208659	-0.139011
C37	C	0.747181	0.323665	-0.215113
C38	C	0.828424	0.304664	-0.202541
C39	C	0.820518	0.189658	-0.126439
C40	C	1.356594	0.122850	-0.082219
C41	C	1.443063	0.102656	-0.068854
C42	C	1.106359	-0.016770	-0.160936
C43	C	1.086193	-0.096461	-0.181115
C44	C	1.000188	0.814490	-0.266956
C45	C	1.019213	0.889356	-0.247989
C46	C	1.134177	0.842854	-0.133183
C47	C	1.115164	0.767982	-0.152143
C48	C	1.048168	0.753807	-0.219029
C49	C	1.163144	0.707300	-0.104216
C50	C	1.144130	0.632435	-0.123172
C51	C	1.077136	0.618253	-0.190054
C52	C	1.029154	0.678942	-0.237985
C53	C	1.230137	0.721477	-0.037326
C54	C	1.278117	0.660794	0.010600
C55	C	1.259107	0.585928	-0.008358
C56	C	1.192112	0.571746	-0.075241
C57	C	1.307088	0.525238	0.039573
C58	C	1.288074	0.450373	0.020617
C59	C	1.173098	0.496881	-0.094196
C60	C	1.255544	0.016725	-0.707026
C61	C	1.242952	0.035693	-0.788285
C62	C	1.166661	0.150626	-0.780435
C63	C	1.179249	0.131669	-0.699172
C64	C	1.223690	0.064717	-0.662475
C65	C	1.147396	0.179661	-0.654621
C66	C	1.159979	0.160703	-0.573366
C67	C	1.204417	0.093753	-0.536663
C68	C	1.236274	0.045759	-0.581220
C69	C	1.102950	0.246610	-0.691321
C70	C	1.071096	0.294602	-0.646770
C71	C	1.083685	0.275647	-0.565512
C72	C	1.128122	0.208697	-0.528809
C73	C	1.051827	0.323641	-0.520955
C74	C	1.064411	0.304683	-0.439701
C75	C	1.140706	0.189739	-0.447555
C76	C	1.185024	0.123034	0.088561
C77	C	1.198518	0.102630	0.175014
H78	H	0.850369	0.135087	-0.090350
H79	H	1.118548	0.485341	-0.148667
N80	N	0.927934	0.799184	-0.339101
H81	H	0.934664	0.822345	-0.389549
H82	H	0.877589	0.822401	-0.332185
H83	H	1.327144	0.400963	0.059645
N84	N	0.448089	0.222927	-0.148448
H85	H	0.477086	0.267990	-0.121125
H86	H	0.389860	0.227615	-0.151583
H87	H	1.214662	0.078319	-0.470501
H88	H	0.590828	-0.037920	0.024139
H89	H	0.716642	-0.008922	0.004946
H90	H	1.272467	-0.008758	-0.551338
H91	H	1.061651	0.557292	-0.205482
H92	H	0.974604	0.667402	-0.292456
N93	N	0.431666	-0.016100	0.009760
H94	H	0.374638	0.006109	-0.004920
H95	H	0.457291	-0.021276	0.070347
H96	H	1.130475	0.205137	-0.810326
H97	H	1.268889	-0.003396	-0.824559
N98	N	0.876501	0.356435	-0.236800
H99	H	0.897260	0.327885	-0.275050
H100	H	0.923473	0.374331	-0.191456
H101	H	0.980144	0.938765	-0.287030
H102	H	0.510636	0.262134	-0.174384
N103	N	1.303488	-0.055482	-0.667433
H104	H	1.321764	-0.083009	-0.707983
H105	H	1.268646	-0.089132	-0.647019
N106	N	0.581814	0.366936	-0.243729
H107	H	0.523584	0.371692	-0.246873
H108	H	0.584609	0.365492	-0.299923
H109	H	0.797524	0.078185	-0.052671
N110	N	1.206427	0.858146	-0.061037
H111	H	1.211191	0.914780	-0.056297
H112	H	1.256763	0.834879	-0.067928
H113	H	1.034910	0.349113	-0.676660
N114	N	1.030065	0.356445	-0.391638
H115	H	0.991860	0.327863	-0.370880
H116	H	1.000047	0.401727	-0.427256
N117	N	0.707635	0.395939	-0.262921
H118	H	0.649406	0.400695	-0.266060
H119	H	0.710426	0.394502	-0.319116
H120	H	1.245617	0.782438	-0.021897
H121	H	1.361632	0.536792	0.094036
H122	H	1.092696	0.262038	-0.757487
N123	N	1.350367	0.676086	0.082747
H124	H	1.355131	0.732721	0.087486
H125	H	1.400702	0.652820	0.075856
H126	H	1.015637	0.378150	-0.550849
H127	H	1.176899	0.135223	-0.417673
