data_functionalizedCrystal
_audit_creation_method	'MofGen! by Chris Wilmer'
_symmetry_space_group_name_H-M	'P1'
_symmetry_Int_Tables_number	1
_symmetry_cell_setting	triclinic
loop_
_symmetry_equiv_pos_as_xyz
  x,y,z
_cell_length_a	14.628931
_cell_length_b	14.560432
_cell_length_c	14.628931
_cell_angle_alpha	90.000632
_cell_angle_beta	60.000028
_cell_angle_gamma	60.001153
loop_
_atom_site_label
_atom_site_type_symbol
_atom_site_fract_x
_atom_site_fract_y
_atom_site_fract_z
Zr1	Zr	1.000603	0.884747	-0.119964
O2	O	1.191305	0.738101	-0.265925
O3	O	0.809898	0.929702	-0.075219
O4	O	1.000604	0.929702	-0.265925
O5	O	1.000600	0.738101	0.075212
O6	O	1.000608	1.080840	-0.265925
O7	O	1.000599	0.738102	-0.075219
O8	O	0.659470	1.080840	0.075212
O9	O	1.341737	0.738101	-0.265925
O10	O	0.888342	1.061667	-0.056137
O11	O	0.888339	0.948875	0.056129
O12	O	1.112870	0.948874	-0.168402
O13	O	1.112868	0.836082	-0.056137
Zr14	Zr	1.000610	1.125794	0.119956
Zr15	Zr	1.000609	1.125794	-0.119965
Zr16	Zr	1.000604	0.884747	0.119957
Zr17	Zr	1.240525	0.884747	-0.119965
Zr18	Zr	0.760688	1.125794	0.119957
O19	O	1.191315	1.080839	0.075211
O20	O	1.191314	1.080839	-0.265926
O21	O	1.191306	0.738101	0.075212
O22	O	0.809908	1.272440	0.265917
O23	O	0.809907	1.272440	-0.075220
O24	O	0.809899	0.929702	0.265918
O25	O	1.000613	1.272440	-0.075220
O26	O	1.000609	1.080839	0.265917
O27	O	1.000605	0.929701	0.265917
O28	O	1.000614	1.272440	0.075211
O29	O	1.341742	0.929701	-0.265926
O30	O	0.659471	1.080840	0.265918
O31	O	0.659476	1.272440	0.265917
O32	O	0.659475	1.272440	0.075212
O33	O	1.341738	0.738101	-0.075220
O34	O	1.341742	0.929701	-0.075220
O35	O	0.888343	1.061667	0.168394
O36	O	0.888345	1.174459	0.056129
O37	O	1.112874	1.061667	-0.056137
O38	O	1.112871	0.948874	0.056129
C39	C	0.700501	1.005271	-0.000003
C40	C	0.598647	1.005271	-0.000003
C41	C	0.631995	0.926142	-0.078762
C42	C	0.526727	0.926141	-0.078764
C43	C	1.000599	0.703757	-0.000003
C44	C	1.000596	0.601427	-0.000003
C45	C	0.766186	0.719166	0.117192
C46	C	0.648985	0.729959	0.175785
C47	C	0.648990	0.633806	0.175782
C48	C	0.766209	0.526852	0.117183
C49	C	0.883410	0.516060	0.058591
C50	C	0.883392	0.612221	0.058597
C51	C	1.117818	0.398322	-0.058597
C52	C	1.117815	0.494473	-0.058602
C53	C	1.235037	0.291368	-0.117196
C54	C	1.352241	0.280574	-0.175796
C55	C	1.352230	0.376734	-0.175792
C56	C	1.235016	0.483680	-0.117194
C57	C	1.300712	1.005270	-0.000005
C58	C	1.402565	1.005270	-0.000005
C59	C	1.000606	1.005271	-0.300109
C60	C	1.000605	1.005271	-0.401962
C61	C	1.000614	1.306784	-0.000005
C62	C	1.000617	1.409114	-0.000005
C63	C	1.111986	0.949318	-0.503062
C64	C	1.111989	0.949317	-0.608334
C65	C	1.000607	1.005270	0.300101
C66	C	1.000608	1.005270	0.401954
C67	C	0.700508	1.306784	-0.000004
C68	C	0.598658	1.409115	-0.000004
C69	C	0.700501	1.005271	0.300101
C70	C	0.598649	1.005271	0.401954
C71	C	0.700509	1.306784	0.300101
C72	C	0.598659	1.409115	0.401954
C73	C	1.300704	0.703757	-0.300109
C74	C	1.402554	0.601426	-0.401962
C75	C	1.300705	0.703757	-0.000004
C76	C	1.402555	0.601426	-0.000004
C77	C	1.300711	1.005270	-0.300109
C78	C	1.402564	1.005270	-0.401962
C79	C	0.553248	1.398785	-0.055695
C80	C	0.447980	1.504548	-0.055696
C81	C	0.553241	1.061223	0.503055
C82	C	0.447971	1.061225	0.608327
C83	C	0.553252	1.510690	0.391671
C84	C	0.447985	1.616455	0.496940
H85	H	0.555103	0.858393	-0.146190
H86	H	0.441616	1.518986	0.606673
C87	C	0.364215	1.096799	0.091094
N88	N	0.335336	1.165742	0.159708
C89	C	0.520050	0.847612	0.240232
N90	N	0.422936	0.936226	0.288771
H91	H	0.408932	1.703592	0.488311
C92	C	0.395223	1.492832	-0.120108
N93	N	0.355484	1.484007	-0.168625
H94	H	1.207346	0.901407	-0.695064
C95	C	0.455331	1.617843	0.064408
N96	N	0.495073	1.626667	0.112922
C97	C	0.766169	0.824942	0.117193
N98	N	0.766153	0.904615	0.117196
H99	H	1.447671	0.193489	-0.223497
H100	H	0.905245	1.053170	-0.511320
H101	H	0.559606	1.496259	0.047670
H102	H	0.553555	0.642599	0.223497
H103	H	0.905250	1.053177	-0.393341
C104	C	0.606002	1.125942	0.514707
N105	N	0.645738	1.174692	0.523487
H106	H	0.766203	0.448565	0.117197
C107	C	1.240813	0.884613	-0.514715
N108	N	1.337849	0.835877	-0.523495
H109	H	0.592309	1.311642	-0.103378
H110	H	0.408920	1.109129	0.695057
C111	C	0.455293	0.940570	0.480875
N112	N	0.495009	0.891841	0.392619
H113	H	1.447670	0.367934	-0.223490
C114	C	0.606011	1.522397	0.274496
N115	N	0.645744	1.531218	0.186239
C116	C	0.545897	1.397407	0.519129
N117	N	0.506156	1.388586	0.607386
H118	H	0.738479	0.858402	-0.146193
C119	C	1.235039	0.185599	-0.117197
N120	N	1.235044	0.105932	-0.117203
C121	C	1.234994	0.589459	-0.117183
N122	N	1.234971	0.669135	-0.117167
H123	H	0.492164	1.073017	0.067423
H124	H	0.559594	0.957364	0.393334
