data_functionalizedCrystal
_audit_creation_method	'MofGen! by Chris Wilmer'
_symmetry_space_group_name_H-M	'P1'
_symmetry_Int_Tables_number	1
_symmetry_cell_setting	triclinic
loop_
_symmetry_equiv_pos_as_xyz
  x,y,z
_cell_length_a	10.654562
_cell_length_b	10.489716
_cell_length_c	9.130313
_cell_angle_alpha	90.002761
_cell_angle_beta	89.996930
_cell_angle_gamma	84.509620
loop_
_atom_site_label
_atom_site_type_symbol
_atom_site_fract_x
_atom_site_fract_y
_atom_site_fract_z
O1	O	1.667893	0.179235	-0.121881
O2	O	1.302423	0.196288	-0.121862
O3	O	1.493490	0.002158	-0.121877
O4	O	1.476826	0.373365	-0.121866
O5	O	1.493488	0.002163	0.121722
O6	O	1.302421	0.196293	0.121737
O7	O	1.667891	0.179241	0.121717
Cu8	Cu	1.485156	0.187767	0.143970
Cu9	Cu	1.485158	0.187761	-0.144114
O10	O	1.476824	0.373370	0.121733
C11	C	1.255624	0.195035	-0.000060
C12	C	1.116180	0.191279	-0.000053
C13	C	1.050647	0.189530	0.132721
C14	C	0.919624	0.186011	0.132696
C15	C	0.919676	0.185995	-0.132888
C16	C	1.050699	0.189505	-0.132862
C17	C	1.116129	0.191303	0.265530
C18	C	1.050596	0.189556	0.398315
C19	C	0.919572	0.186036	0.398290
C20	C	0.854081	0.184265	0.265481
C21	C	1.492237	-0.045371	-0.000082
C22	C	1.488491	-0.187000	-0.000095
C23	C	1.605659	-0.284725	-0.000088
C24	C	1.543746	-0.362061	-0.120188
C25	C	1.543717	-0.362020	0.119981
C26	C	1.426627	-0.262471	-0.120294
C27	C	1.426615	-0.262424	0.119983
C28	C	1.364615	-0.339711	-0.000146
C29	C	1.714690	0.180493	-0.000088
C30	C	1.854134	0.184250	-0.000104
C31	C	1.478077	0.420899	-0.000065
C32	C	1.481823	0.562529	-0.000062
N33	N	1.485163	0.187771	0.346592
N34	N	1.485161	0.187748	-0.346737
C35	C	1.569789	0.101840	0.423237
C36	C	1.569786	0.101825	0.576574
C37	C	1.400526	0.273683	0.576607
C38	C	1.400524	0.273691	0.423273
C39	C	1.654428	0.015920	0.346556
C40	C	1.739063	-0.070017	0.423202
C41	C	1.739059	-0.070033	0.576539
C42	C	1.654421	0.015889	0.653230
H43	H	1.104056	0.190936	-0.240979
C44	C	0.847638	0.184060	-0.278970
C45	C	0.770816	0.071080	-0.315510
C46	C	0.698778	0.069151	-0.461594
C47	C	0.703562	0.180202	-0.571138
C48	C	0.780387	0.293190	-0.534601
C49	C	0.852425	0.295119	-0.388517
H50	H	0.767272	-0.011134	-0.234416
H51	H	0.641907	-0.014491	-0.488640
H52	H	0.650235	0.178773	-0.679278
H53	H	0.783931	0.375404	-0.615695
H54	H	0.909295	0.378762	-0.361471
H55	H	1.262622	-0.364097	-0.000206
H56	H	1.807965	-0.139979	0.360752
H57	H	1.707576	-0.260093	-0.000216
H58	H	1.807963	-0.140014	0.638942
H59	H	1.222814	0.194173	0.265565
C60	C	1.359854	-0.203589	0.257163
C61	C	1.409101	-0.243171	0.410703
C62	C	1.342352	-0.184334	0.547897
C63	C	1.226357	-0.085914	0.531551
C64	C	1.177105	-0.046326	0.378005
C65	C	1.243853	-0.105163	0.240811
H66	H	1.494973	-0.316033	0.422809
H67	H	1.378813	-0.213640	0.661562
H68	H	1.176946	-0.042359	0.633111
H69	H	1.091233	0.026535	0.365899
H70	H	1.207393	-0.075857	0.127146
H71	H	1.103928	0.190988	0.506443
C72	C	1.307437	0.368219	0.338956
C73	C	1.214399	0.462787	0.423301
C74	C	1.121305	0.557313	0.338984
C75	C	1.121249	0.557272	0.170323
C76	C	1.214291	0.462702	0.085968
C77	C	1.307385	0.368175	0.170285
H78	H	1.214437	0.462820	0.548162
H79	H	1.052430	0.627321	0.401430
H80	H	1.052336	0.627247	0.107907
H81	H	1.214253	0.462668	-0.038893
H82	H	1.376260	0.298168	0.107839
H83	H	0.747394	0.181396	0.265472
H84	H	1.654417	0.015861	0.778087
C85	C	1.610555	-0.420764	0.257157
C86	C	1.750923	-0.404670	0.283497
C87	C	1.817771	-0.463410	0.420665
C88	C	1.744251	-0.538245	0.531493
C89	C	1.603875	-0.554342	0.505156
C90	C	1.537027	-0.495602	0.367988
H91	H	1.805354	-0.349270	0.201453
H92	H	1.921687	-0.451493	0.440161
H93	H	1.793736	-0.581728	0.633032
H94	H	1.549444	-0.609742	0.587200
H95	H	1.433111	-0.507519	0.348492
H96	H	1.593208	-0.405580	-0.221732
H97	H	1.377193	-0.219148	-0.221942
H98	H	0.866220	0.184603	0.506410
H99	H	1.654441	0.015927	0.221702
H100	H	1.331618	0.343638	0.639060
