data_functionalizedCrystal
_audit_creation_method	'MofGen! by Chris Wilmer'
_symmetry_space_group_name_H-M	'P1'
_symmetry_Int_Tables_number	1
_symmetry_cell_setting	triclinic
loop_
_symmetry_equiv_pos_as_xyz
  x,y,z
_cell_length_a	6.817900
_cell_length_b	16.418049
_cell_length_c	18.024673
_cell_angle_alpha	84.483297
_cell_angle_beta	76.961240
_cell_angle_gamma	103.389670
loop_
_atom_site_label
_atom_site_type_symbol
_atom_site_fract_x
_atom_site_fract_y
_atom_site_fract_z
V1	V	-4.021204	-0.116667	0.237818
V2	V	-3.521204	0.383333	0.737818
O3	O	-4.009300	0.004803	0.233015
O4	O	-3.509300	0.504803	0.733015
O5	O	-3.972300	-0.230559	0.236457
O6	O	-3.472300	0.269441	0.736457
O7	O	-3.970588	-0.115225	0.341417
O8	O	-3.470588	0.384775	0.841417
O9	O	-4.011023	-0.111329	0.127328
O10	O	-3.511023	0.388671	0.627328
V11	V	-4.505184	-0.102096	0.224570
V12	V	-4.005184	0.397904	0.724570
O13	O	-4.281459	-0.148630	0.266878
O14	O	-3.781459	0.351370	0.766878
O15	O	-4.695126	-0.070134	0.195510
O16	O	-4.195126	0.429866	0.695510
O17	O	-4.330881	0.011796	0.225931
O18	O	-3.830881	0.511796	0.725931
O19	O	-4.634485	-0.223567	0.229373
O20	O	-4.134485	0.276433	0.729373
O21	O	-4.632761	-0.107434	0.335060
O22	O	-4.132761	0.392566	0.835060
O23	O	-4.332593	-0.103539	0.120971
O24	O	-3.832593	0.396461	0.620971
C25	C	-3.817250	-0.258313	0.232774
C26	C	-3.317250	0.241687	0.732774
C27	C	-3.858537	-0.351423	0.232352
C28	C	-3.358537	0.148577	0.732352
C29	C	-3.815065	-0.111191	0.366660
C30	C	-3.315065	0.388809	0.866660
C31	C	-3.854962	-0.110766	0.451355
C32	C	-3.354962	0.389234	0.951355
C33	C	-4.135509	-0.569922	0.235206
C34	C	-3.635509	-0.069922	0.735206
C35	C	-4.174291	-0.657410	0.234816
C36	C	-3.674291	-0.157410	0.734816
C37	C	-3.810237	-0.648841	0.227187
C38	C	-3.310237	-0.148841	0.727187
C39	C	-3.771460	-0.561355	0.227583
C40	C	-3.271460	-0.061355	0.727583
C41	C	-3.934101	-0.521898	0.231588
C42	C	-3.434101	-0.021898	0.731588
C43	C	-4.011660	-0.696871	0.230803
C44	C	-3.511660	-0.196871	0.730803
C45	C	-4.053708	-0.791729	0.230380
C46	C	-3.553708	-0.291729	0.730380
C47	C	-3.892052	-0.427034	0.232013
C48	C	-3.392052	0.072966	0.732013
C49	C	-4.055716	-0.114763	0.495036
C50	C	-3.555716	0.385237	0.995036
C51	C	-4.093191	-0.114362	0.574616
C52	C	-3.593191	0.385638	1.074616
C53	C	-3.929912	-0.109971	0.610514
C54	C	-3.429912	0.390029	1.110514
C55	C	-3.729140	-0.105971	0.566827
C56	C	-3.229140	0.394029	1.066827
C57	C	-3.691664	-0.106365	0.487248
C58	C	-3.191664	0.393635	0.987248
C59	C	-3.880269	-0.104379	0.887759
C60	C	-3.380269	0.395621	1.387759
C61	C	-3.917762	-0.103987	0.967344
C62	C	-3.417762	0.396013	1.467344
C63	C	-4.281795	-0.112376	0.975127
C64	C	-3.781795	0.387624	1.475127
C65	C	-4.244320	-0.112770	0.895548
C66	C	-3.744320	0.387230	1.395548
C67	C	-4.043550	-0.108766	0.851867
C68	C	-3.543550	0.391234	1.351867
C69	C	-4.002917	-0.109198	0.765578
C70	C	-3.502917	0.390802	1.265578
C71	C	-3.970545	-0.109544	0.696802
C72	C	-3.470545	0.390456	1.196802
C73	C	-4.158421	-0.107570	1.095723
C74	C	-3.658421	0.392430	1.595723
C75	C	-4.118516	-0.107978	1.011026
C76	C	-3.618516	0.392022	1.511026
C77	C	-4.149273	0.039545	0.229612
C78	C	-3.649273	0.539545	0.729612
C79	C	-4.087224	0.132654	0.230039
C80	C	-3.587224	0.632654	0.730039
H81	H	-4.338294	-0.696508	0.237763
H82	H	-3.838294	-0.196508	0.737763
N83	N	-4.310935	-0.527370	0.239538
N84	N	-3.810935	-0.027370	0.739538
H85	H	-4.329266	-0.499553	0.287340
H86	H	-3.829266	0.000447	0.787340
H87	H	-4.276547	-0.483015	0.192371
H88	H	-3.776547	0.016985	0.692371
H89	H	-3.677825	-0.680978	0.223925
H90	H	-3.177825	-0.180978	0.723925
H91	H	-3.716810	-0.101148	0.852208
H92	H	-3.216810	0.398852	1.352208
N93	N	-3.741667	-0.099244	1.006077
N94	N	-3.241667	0.400756	1.506077
H95	H	-3.776091	-0.151085	1.046436
H96	H	-3.276091	0.348915	1.546436
H97	H	-3.608850	-0.096736	0.966290
H98	H	-3.108850	0.403264	1.466290
N99	N	-4.231841	-0.119495	0.456328
N100	N	-3.731841	0.380505	0.956328
H101	H	-4.197433	-0.067657	0.415967
H102	H	-3.697433	0.432343	0.915967
H103	H	-4.251315	-0.172064	0.431048
H104	H	-3.751315	0.327936	0.931048
N105	N	-3.475129	-0.102049	0.440135
N106	N	-2.975129	0.397951	0.940135
H107	H	-3.429035	-0.152334	0.459796
H108	H	-2.929035	0.347666	0.959796
H109	H	-3.476313	-0.102933	0.384287
H110	H	-2.976313	0.397067	0.884287
H111	H	-3.607444	-0.522253	0.224640
H112	H	-3.107444	-0.022253	0.724640
H113	H	-4.256659	-0.117612	0.610177
H114	H	-3.756659	0.382388	1.110177
H115	H	-4.377285	-0.116351	0.866325
H116	H	-3.877285	0.383649	1.366325
H117	H	-4.445274	-0.115633	1.010701
H118	H	-3.945274	0.384367	1.510701
H119	H	-3.596195	-0.102390	0.596060
H120	H	-3.096195	0.397610	1.096060
