data_functionalizedCrystal
_audit_creation_method	'MofGen! by Chris Wilmer'
_symmetry_space_group_name_H-M	'P1'
_symmetry_Int_Tables_number	1
_symmetry_cell_setting	triclinic
loop_
_symmetry_equiv_pos_as_xyz
  x,y,z
_cell_length_a	12.645323
_cell_length_b	12.645331
_cell_length_c	13.897448
_cell_angle_alpha	89.988054
_cell_angle_beta	89.971832
_cell_angle_gamma	90.026382
loop_
_atom_site_label
_atom_site_type_symbol
_atom_site_fract_x
_atom_site_fract_y
_atom_site_fract_z
Zn1	Zn	-0.599527	-1.620731	-0.384155
Zn2	Zn	-0.422257	-1.620613	-0.545470
Zn3	Zn	-0.422260	-1.443446	-0.384174
Zn4	Zn	-0.599461	-1.443428	-0.545394
O5	O	-0.510876	-1.532054	-0.464798
O6	O	-0.576038	-1.769063	-0.405578
O7	O	-0.273910	-1.597069	-0.524114
O8	O	-0.445803	-1.467020	-0.249190
O9	O	-0.445798	-1.768976	-0.524095
O10	O	-0.576041	-1.597271	-0.249176
O11	O	-0.273912	-1.466906	-0.405611
O12	O	-0.445739	-1.295096	-0.405537
O13	O	-0.747817	-1.466989	-0.523965
O14	O	-0.575928	-1.295083	-0.523984
O15	O	-0.747865	-1.597253	-0.405504
O16	O	-0.445734	-1.597052	-0.680441
O17	O	-0.575925	-1.466874	-0.680385
C18	C	-0.510827	-1.256625	-0.464755
C19	C	-0.510832	-1.138795	-0.464759
C20	C	-0.429371	-0.971204	-0.389889
C21	C	-0.429020	-1.093763	-0.390092
C22	C	-0.480308	-1.094274	-0.566368
C23	C	-0.479744	-0.971676	-0.565950
C24	C	-0.623107	-0.971645	-0.438959
C25	C	-0.622491	-1.094251	-0.436698
C26	C	-0.787381	-1.532132	-0.464724
C27	C	-0.905211	-1.532166	-0.464692
C28	C	-1.072745	-1.449964	-0.538865
C29	C	-0.950185	-1.450179	-0.539232
C30	C	-0.949737	-1.643865	-0.492289
C31	C	-1.072335	-1.643414	-0.492754
C32	C	-1.072414	-1.503724	-0.362507
C33	C	-0.949807	-1.501232	-0.363119
C34	C	-0.235446	-1.532038	-0.464803
C35	C	-0.117617	-1.532210	-0.464563
C36	C	-0.510845	-1.531977	-0.715413
C37	C	-0.510868	-1.532041	-0.822627
C38	C	-0.510909	-0.808560	-0.464824
C39	C	-0.510881	-0.926390	-0.464787
C40	C	-0.510934	-1.532152	-1.018922
C41	C	-0.510900	-1.532087	-0.909689
C42	C	-0.510930	-1.532161	-0.213205
C43	C	-0.510953	-1.532206	-0.105991
H44	H	-0.650861	-0.940749	-0.366155
Br45	Br	-0.343002	-0.923925	-0.602456
H46	H	-0.448295	-0.941740	-0.314310
H47	H	-1.101435	-1.563628	-0.307150
Br48	Br	-0.660871	-1.142777	-0.312080
Br49	Br	-0.576167	-1.142871	-0.661876
Br50	Br	-1.124193	-1.480926	-0.664165
Br51	Br	-0.291578	-0.919765	-0.418001
Br52	Br	-0.345039	-1.145363	-0.603515
Br53	Br	-0.724333	-0.923348	-0.529882
H54	H	-1.102021	-1.706772	-0.440986
H55	H	-0.920867	-1.468983	-0.614890
H56	H	-0.345861	-1.123041	-0.407167
H57	H	-0.448153	-1.123864	-0.314744
H58	H	-0.919045	-1.668424	-0.566112
H59	H	-1.100943	-1.667560	-0.567359
H60	H	-0.536524	-0.942031	-0.623644
H61	H	-0.686475	-1.124909	-0.487276
Br62	Br	-0.900000	-1.312127	-0.510439
Br63	Br	-0.898800	-1.593793	-0.265968
H64	H	-1.102214	-1.366889	-0.521760
Br65	Br	-1.123912	-1.370328	-0.320583
Br66	Br	-0.901197	-1.748746	-0.404944
Br67	Br	-0.901319	-1.364216	-0.328434
