data_functionalizedCrystal
_audit_creation_method	'MofGen! by Chris Wilmer'
_symmetry_space_group_name_H-M	'P1'
_symmetry_Int_Tables_number	1
_symmetry_cell_setting	triclinic
loop_
_symmetry_equiv_pos_as_xyz
  x,y,z
_cell_length_a	23.532409
_cell_length_b	19.188930
_cell_length_c	17.666332
_cell_angle_alpha	89.976766
_cell_angle_beta	89.996569
_cell_angle_gamma	82.997171
loop_
_atom_site_label
_atom_site_type_symbol
_atom_site_fract_x
_atom_site_fract_y
_atom_site_fract_z
O1	O	0.071102	0.925923	-0.063187
O2	O	0.571102	1.425923	0.436813
O3	O	0.080673	0.722582	-0.063134
O4	O	0.580673	1.222582	0.436866
O5	O	-0.007031	0.830383	-0.063163
O6	O	0.492969	1.330383	0.436837
O7	O	0.158806	0.818121	-0.063158
O8	O	0.658806	1.318121	0.436842
O9	O	-0.007036	0.830365	0.062734
O10	O	0.492964	1.330365	0.562734
O11	O	0.080669	0.722563	0.062763
O12	O	0.580669	1.222563	0.562763
O13	O	0.071097	0.925905	0.062710
O14	O	0.571097	1.425905	0.562710
Cu15	Cu	0.075883	0.824232	0.074232
Cu16	Cu	0.575883	1.324232	0.574232
Cu17	Cu	0.075888	0.824254	-0.074656
Cu18	Cu	0.575888	1.324254	0.425344
O19	O	0.158802	0.818103	0.062739
O20	O	0.658802	1.318103	0.562739
C21	C	0.080361	0.696562	-0.000179
C22	C	0.580361	1.196562	0.499821
C23	C	0.079431	0.619061	-0.000159
C24	C	0.579431	1.119061	0.499841
C25	C	-0.028250	0.830062	-0.000216
C26	C	0.471750	1.330062	0.499784
C27	C	-0.091469	0.829122	-0.000221
C28	C	0.408531	1.329122	0.499779
C29	C	0.130893	0.573973	-0.000169
C30	C	0.630893	1.073973	0.499831
C31	C	0.130019	0.501152	-0.000178
C32	C	0.630019	1.001152	0.499822
C33	C	0.077679	0.473422	-0.000191
C34	C	0.577679	0.973422	0.499809
C35	C	0.026211	0.518519	-0.000176
C36	C	0.526211	1.018519	0.499824
C37	C	0.027086	0.591339	-0.000160
C38	C	0.527086	1.091339	0.499840
N39	N	0.037674	0.365575	-0.043071
N40	N	0.537674	0.865575	0.456929
N41	N	0.036846	0.296399	-0.043088
N42	N	0.536846	0.796399	0.456912
C43	C	0.075038	0.254022	-0.000237
C44	C	0.575038	0.754022	0.499763
N45	N	0.114099	0.283432	0.042621
N46	N	0.614099	0.783432	0.542621
N47	N	0.114928	0.352614	0.042634
N48	N	0.614928	0.852614	0.542634
C49	C	0.076724	0.394462	-0.000208
C50	C	0.576724	0.894462	0.499792
C51	C	0.125556	0.129973	-0.000256
C52	C	0.625556	0.629973	0.499744
C53	C	0.124680	0.057151	-0.000259
C54	C	0.624680	0.557151	0.499741
C55	C	0.020870	0.074520	-0.000266
C56	C	0.520870	0.574520	0.499734
C57	C	0.021748	0.147340	-0.000254
C58	C	0.521748	0.647340	0.499746
C59	C	0.074092	0.175062	-0.000253
C60	C	0.574092	0.675062	0.499747
C61	C	-0.364720	0.825137	-0.068850
C62	C	0.135280	1.325137	0.431150
C63	C	-0.305318	0.826009	-0.068850
C64	C	0.194682	1.326009	0.431150
O65	O	-0.274590	0.826494	-0.127212
O66	O	0.225410	1.326494	0.372788
N67	N	-0.275617	0.826431	-0.000223
N68	N	0.224383	1.326431	0.499777
C69	C	-0.305323	0.825987	0.068409
C70	C	0.194677	1.325987	0.568409
O71	O	-0.274606	0.826427	0.126782
O72	O	0.225394	1.326427	0.626782
C73	C	-0.364724	0.825120	0.068409
C74	C	0.135276	1.325120	0.568409
C75	C	-0.394421	0.824691	-0.000223
C76	C	0.105579	1.324691	0.499777
C77	C	-0.394417	0.824709	-0.137476
C78	C	0.105583	1.324709	0.362524
C79	C	-0.453815	0.823835	-0.137476
C80	C	0.046185	1.323835	0.362524
C81	C	-0.483516	0.823390	-0.068849
C82	C	0.016484	1.323390	0.431151
C83	C	-0.453819	0.823817	-0.000222
C84	C	0.046181	1.323817	0.499778
C85	C	-0.394429	0.824681	0.137040
C86	C	0.105571	1.324681	0.637040
C87	C	-0.453835	0.823814	0.137034
C88	C	0.046165	1.323814	0.637034
C89	C	-0.483531	0.823385	0.068402
C90	C	0.016469	1.323385	0.568402
C91	C	-0.542918	0.822498	0.068405
C92	C	-0.042918	1.322498	0.568405
N93	N	-0.572618	0.822076	-0.000222
N94	N	-0.072618	1.322076	0.499778
C95	C	-0.542917	0.822522	-0.068849
C96	C	-0.042917	1.322522	0.431151
C97	C	-0.180576	0.827810	0.068405
C98	C	0.319424	1.327810	0.568405
C99	C	-0.121175	0.828672	0.068406
C100	C	0.378825	1.328672	0.568406
C101	C	-0.121174	0.828696	-0.068854
C102	C	0.378826	1.328696	0.431146
C103	C	-0.180576	0.827829	-0.068854
C104	C	0.319424	1.327829	0.431146
C105	C	-0.210276	0.827389	-0.000223
C106	C	0.289724	1.327389	0.499777
C107	C	-0.667657	0.820687	-0.068843
C108	C	-0.167657	1.320687	0.431157
C109	C	-0.727059	0.819810	-0.068836
C110	C	-0.227059	1.319810	0.431164
C111	C	-0.727055	0.819790	0.068424
C112	C	-0.227055	1.319790	0.568424
C113	C	-0.667657	0.820663	0.068417
C114	C	-0.167657	1.320663	0.568417
C115	C	-0.637960	0.821114	-0.000222
C116	C	-0.137960	1.321114	0.499778
O117	O	-0.573683	0.822016	0.126737
O118	O	-0.073683	1.322016	0.626737
O119	O	-0.573642	0.822092	-0.127212
O120	O	-0.073642	1.322092	0.372788
C121	C	0.180021	0.818425	-0.000209
C122	C	0.680021	1.318425	0.499791
C123	C	0.243240	0.819364	-0.000209
C124	C	0.743240	1.319364	0.499791
C125	C	0.071410	0.951924	-0.000246
C126	C	0.571410	1.451924	0.499754
C127	C	0.072340	1.029426	-0.000271
C128	C	0.572340	1.529426	0.499729
N129	N	0.075878	0.824221	0.178951
N130	N	0.575878	1.324221	0.678951
N131	N	0.075888	0.824270	-0.179375
N132	N	0.575888	1.324270	0.320625
C133	C	0.037062	0.871971	0.218548
C134	C	0.537062	1.371971	0.718548
C135	C	0.037059	0.871975	0.297796
C136	C	0.537059	1.371975	0.797796
C137	C	0.075883	0.824236	0.337444
C138	C	0.575883	1.324236	0.837444
C139	C	0.114702	0.776477	0.297837
C140	C	0.614702	1.276477	0.797837
C141	C	0.114700	0.776470	0.218591
C142	C	0.614700	1.276470	0.718591
N143	N	0.126298	0.815000	0.461865
N144	N	0.626298	1.315000	0.961865
N145	N	0.126298	0.815011	0.537146
N146	N	0.626298	1.315011	1.037146
C147	C	0.075891	0.824255	0.576208
C148	C	0.575891	1.324255	1.076208
N149	N	0.025481	0.833501	0.537145
N150	N	0.525481	1.333501	1.037145
N151	N	0.025482	0.833493	0.461858
N152	N	0.525482	1.333493	0.961858
C153	C	0.075889	0.824239	0.423373
C154	C	0.575889	1.324239	0.923373
C155	C	0.037068	0.872012	0.701734
C156	C	0.537068	1.372012	1.201734
C157	C	0.037064	0.872011	0.780983
C158	C	0.537064	1.372011	1.280983
C159	C	0.114712	0.776516	0.781022
C160	C	0.614712	1.276516	1.281022
C161	C	0.114711	0.776513	0.701775
C162	C	0.614711	1.276513	1.201775
C163	C	0.075889	0.824265	0.662135
C164	C	0.575889	1.324265	1.162135
H165	H	0.173515	0.596539	-0.000170
H166	H	0.673515	1.096539	0.499830
H167	H	0.005452	0.910892	0.813223
H168	H	0.505452	1.410892	1.313223
H169	H	0.171926	0.464434	-0.000184
H170	H	0.671926	0.964434	0.499816
Cl171	Cl	-0.083823	0.829242	-0.155129
Cl172	Cl	0.416177	1.329242	0.344871
H173	H	0.146312	0.737606	0.330122
H174	H	0.646312	1.237606	0.830122
H175	H	-0.751248	0.819424	0.124298
H176	H	-0.251248	1.319424	0.624298
Cl177	Cl	0.191359	0.164826	-0.000246
Cl178	Cl	0.691359	0.664826	0.499754
H179	H	-0.204754	0.827446	0.124296
H180	H	0.295246	1.327446	0.624296
Cl181	Cl	-0.357110	0.825212	0.223326
Cl182	Cl	0.142890	1.325212	0.723326
H183	H	-0.020158	0.184052	-0.000250
H184	H	0.479842	0.684052	0.499750
H185	H	0.166588	0.020440	-0.000263
H186	H	0.666588	0.520440	0.499737
Cl187	Cl	-0.011744	0.931997	0.168716
Cl188	Cl	0.488256	1.431997	0.668716
Cl189	Cl	-0.357089	0.825269	-0.223762
Cl190	Cl	0.142911	1.325269	0.276238
H191	H	-0.478014	0.823456	0.192923
H192	H	0.021986	1.323456	0.692923
Cl193	Cl	0.163515	0.716496	0.830860
Cl194	Cl	0.663515	1.216496	1.330860
H195	H	0.005449	0.910860	0.330042
H196	H	0.505449	1.410860	0.830042
H197	H	-0.096999	0.829008	0.124293
H198	H	0.403001	1.329008	0.624293
H199	H	-0.643484	0.821054	-0.124735
H200	H	-0.143484	1.321054	0.375265
Cl201	Cl	-0.491140	0.823305	-0.223761
Cl202	Cl	0.008860	1.323305	0.276239
H203	H	-0.204751	0.827478	-0.124740
H204	H	0.295249	1.327478	0.375260
Cl205	Cl	-0.630323	0.821201	0.154698
Cl206	Cl	-0.130323	1.321201	0.654698
H207	H	-0.751236	0.819458	-0.124727
H208	H	-0.251236	1.319458	0.375273
H209	H	-0.021745	0.051943	-0.000323
H210	H	0.478255	0.551943	0.499677
H211	H	0.146310	0.737585	0.186350
H212	H	0.646310	1.237585	0.686350
H213	H	-0.016404	0.495937	-0.000198
H214	H	0.483596	0.995937	0.499802
Cl215	Cl	-0.037614	0.648024	-0.000148
Cl216	Cl	0.462386	1.148024	0.499852
Cl217	Cl	-0.011739	0.932038	0.651900
Cl218	Cl	0.488261	1.432038	1.151900
Cl219	Cl	0.163514	0.716486	0.651991
Cl220	Cl	0.663514	1.216486	1.151991
