data_functionalizedCrystal
_audit_creation_method	'MofGen! by Chris Wilmer'
_symmetry_space_group_name_H-M	'P1'
_symmetry_Int_Tables_number	1
_symmetry_cell_setting	triclinic
loop_
_symmetry_equiv_pos_as_xyz
  x,y,z
_cell_length_a	15.944493
_cell_length_b	15.944545
_cell_length_c	9.198806
_cell_angle_alpha	89.994714
_cell_angle_beta	89.996623
_cell_angle_gamma	83.485608
loop_
_atom_site_label
_atom_site_type_symbol
_atom_site_fract_x
_atom_site_fract_y
_atom_site_fract_z
O1	O	1.114552	0.108099	-0.120880
O2	O	0.869995	0.121506	-0.120888
O3	O	0.998954	-0.007474	-0.120866
O4	O	0.985592	0.237079	-0.120902
O5	O	0.998944	-0.007475	0.120919
O6	O	0.869985	0.121505	0.120897
O7	O	1.114541	0.108098	0.120905
Cu8	Cu	0.992262	0.114802	0.142978
Cu9	Cu	0.992274	0.114802	-0.142961
O10	O	0.985582	0.237078	0.120883
C11	C	0.998395	-0.038768	0.000027
C12	C	0.996735	-0.132014	0.000031
C13	C	0.838695	0.120958	0.000004
C14	C	0.745447	0.119315	0.000001
C15	C	0.911839	-0.402630	-0.000001
C16	C	0.952774	-0.352052	-0.119213
C17	C	0.990814	-0.467657	-0.000010
C18	C	0.952785	-0.352080	0.119168
C19	C	0.993719	-0.302744	0.000013
C20	C	1.031728	-0.418308	-0.119321
C21	C	1.031728	-0.418339	0.119168
C22	C	1.072721	-0.367795	-0.000074
C23	C	0.989139	-0.562659	-0.000024
C24	C	0.995401	-0.207745	0.000017
C25	C	0.509685	0.195235	-0.000011
C26	C	0.459122	0.154294	0.119214
C27	C	0.574726	0.116271	0.000005
C28	C	0.459137	0.154276	-0.119167
C29	C	0.409816	0.113336	0.000001
C30	C	0.525391	0.075351	0.119328
C31	C	0.525409	0.075344	-0.119161
C32	C	0.474880	0.034345	0.000093
C33	C	0.669725	0.117963	0.000008
C34	C	0.314819	0.111637	0.000009
C35	C	1.145841	0.108646	0.000010
C36	C	1.239090	0.110289	0.000003
C37	C	0.986141	0.268373	-0.000014
C38	C	0.987801	0.361618	-0.000027
N39	N	0.992260	0.114801	0.344092
N40	N	0.992283	0.114796	-0.344075
C41	C	1.046408	0.060409	0.416298
C42	C	1.046421	0.060406	0.583710
H43	H	0.843825	-0.418268	-0.000120
H44	H	0.945925	0.161369	0.593840
C45	C	1.109027	-0.002501	0.332395
C46	C	1.108848	-0.002490	0.164989
C47	C	1.171470	-0.065403	0.081092
C48	C	1.234271	-0.128328	0.164600
C49	C	1.234453	-0.128343	0.332015
C50	C	1.171831	-0.065429	0.415912
H51	H	1.062356	0.044094	0.103163
H52	H	1.171335	-0.065392	-0.042840
H53	H	1.280627	-0.174901	0.102494
H54	H	1.280944	-0.174926	0.393841
H55	H	1.171966	-0.065440	0.539844
C56	C	0.929641	0.177711	0.427998
C57	C	0.962716	0.241792	0.532654
C58	C	0.900095	0.304705	0.616556
C59	C	0.804400	0.303536	0.595802
C60	C	0.771321	0.239452	0.491142
C61	C	0.833941	0.176539	0.407240
H62	H	1.033560	0.242660	0.548021
H63	H	0.924584	0.352144	0.694033
H64	H	0.758045	0.350107	0.657912
H65	H	0.700477	0.238584	0.475775
H66	H	0.809453	0.129100	0.329763
C67	C	0.907727	-0.312949	-0.255370
C68	C	0.956459	-0.264069	-0.365326
C69	C	0.911407	-0.224970	-0.501478
C70	C	0.817623	-0.234751	-0.527674
C71	C	0.768886	-0.283633	-0.417714
C72	C	0.813938	-0.322732	-0.281562
H73	H	1.025888	-0.256827	-0.345938
H74	H	0.947486	-0.188784	-0.582878
H75	H	0.784273	-0.205807	-0.628462
H76	H	0.699456	-0.290875	-0.437103
H77	H	0.777859	-0.358918	-0.200163
C78	C	1.076708	-0.457508	0.255324
C79	C	1.043494	-0.431189	0.407721
C80	C	1.088451	-0.470379	0.543890
C81	C	1.166622	-0.535888	0.527663
C82	C	1.199840	-0.562210	0.375260
C83	C	1.154883	-0.523020	0.239090
H84	H	0.985623	-0.382693	0.419739
H85	H	1.063860	-0.450893	0.656709
H86	H	1.199901	-0.564899	0.628463
H87	H	1.257711	-0.610707	0.363242
H88	H	1.179474	-0.542506	0.126271
C89	C	0.564323	0.030334	0.255641
C90	C	0.553824	-0.063226	0.282575
C91	C	0.592757	-0.108240	0.418888
C92	C	0.642190	-0.059693	0.528266
C93	C	0.652691	0.033872	0.501335
C94	C	0.613758	0.078886	0.365023
H95	H	0.517229	-0.099168	0.201604
H96	H	0.584983	-0.177503	0.438823
H97	H	0.671011	-0.093015	0.629172
H98	H	0.689286	0.069814	0.582306
H99	H	0.621532	0.148149	0.345087
C100	C	0.420015	0.199343	0.255362
C101	C	0.324075	0.205337	0.280960
C102	C	0.284971	0.250392	0.417101
C103	C	0.341806	0.289453	0.527643
C104	C	0.437752	0.283459	0.502049
C105	C	0.476856	0.238404	0.365908
H106	H	0.281997	0.176421	0.199127
H107	H	0.213945	0.254829	0.436047
H108	H	0.312858	0.322805	0.628423
H109	H	0.479830	0.312375	0.583882
H110	H	0.547882	0.233968	0.346962
H111	H	1.065061	-0.447121	-0.220216
H112	H	0.919414	-0.323159	0.219950
H113	H	0.459415	-0.033726	0.000172
H114	H	1.140788	-0.352318	-0.000139
C115	C	1.109053	-0.002507	0.667584
C116	C	1.075995	-0.066566	0.772330
C117	C	1.138629	-0.129481	0.856206
C118	C	1.234320	-0.128338	0.835337
C119	C	1.267383	-0.064276	0.730586
C120	C	1.204749	-0.001361	0.646710
H121	H	1.005154	-0.067415	0.787783
H122	H	1.114153	-0.176904	0.933750
H123	H	1.280686	-0.174912	0.897428
H124	H	1.338224	-0.063427	0.715134
H125	H	1.229225	0.046062	0.569166
H126	H	0.525307	0.263255	0.000091
H127	H	0.554360	0.042021	-0.219950
H128	H	0.430202	0.187640	-0.219948
