data_functionalizedCrystal
_audit_creation_method	'MofGen! by Chris Wilmer'
_symmetry_space_group_name_H-M	'P1'
_symmetry_Int_Tables_number	1
_symmetry_cell_setting	triclinic
loop_
_symmetry_equiv_pos_as_xyz
  x,y,z
_cell_length_a	9.065218
_cell_length_b	9.065218
_cell_length_c	7.540329
_cell_angle_alpha	90.001713
_cell_angle_beta	89.998312
_cell_angle_gamma	94.984115
loop_
_atom_site_label
_atom_site_type_symbol
_atom_site_fract_x
_atom_site_fract_y
_atom_site_fract_z
O1	O	-1.960396	0.216354	0.147481
O2	O	-1.460396	0.716354	0.647481
O3	O	-1.531111	0.234101	0.147483
O4	O	-1.031111	0.734101	0.647483
O5	O	-1.754626	0.010585	0.147476
O6	O	-1.254626	0.510585	0.647476
O7	O	-1.736880	0.439870	0.147487
O8	O	-1.236880	0.939870	0.647487
O9	O	-1.754619	0.010583	-0.147489
O10	O	-1.254619	0.510583	0.352511
O11	O	-1.531103	0.234099	-0.147482
O12	O	-1.031103	0.734099	0.352518
O13	O	-1.960388	0.216352	-0.147484
O14	O	-1.460388	0.716352	0.352516
Cu15	Cu	-1.745745	0.225225	-0.174416
Cu16	Cu	-1.245745	0.725225	0.325584
Cu17	Cu	-1.745754	0.225227	0.174414
Cu18	Cu	-1.245754	0.725227	0.674414
O19	O	-1.736872	0.439868	-0.147478
O20	O	-1.236872	0.939868	0.352522
C21	C	-1.476120	0.232394	0.000000
C22	C	-0.976120	0.732394	0.500000
C23	C	-1.312277	0.227294	0.000001
C24	C	-0.812277	0.727294	0.500001
C25	C	-1.752917	-0.044403	-0.000004
C26	C	-1.252917	0.455597	0.499996
C27	C	-1.747817	-0.208245	0.000004
C28	C	-1.247817	0.291755	0.500004
C29	C	-2.015378	0.218059	0.000002
C30	C	-1.515378	0.718059	0.500002
C31	C	-2.179221	0.223158	0.000012
C32	C	-1.679221	0.723158	0.500012
N33	N	-1.745749	0.225223	-0.419765
N34	N	-1.245749	0.725223	0.080235
C35	C	-1.738582	0.494855	0.000006
C36	C	-1.238582	0.994855	0.500006
C37	C	-1.743681	0.658698	0.000010
C38	C	-1.243681	1.158698	0.500010
N39	N	-1.745761	0.225218	0.419763
N40	N	-1.245761	0.725218	0.919763
