data_functionalizedCrystal
_audit_creation_method	'MofGen! by Chris Wilmer'
_symmetry_space_group_name_H-M	'P1'
_symmetry_Int_Tables_number	1
_symmetry_cell_setting	triclinic
loop_
_symmetry_equiv_pos_as_xyz
  x,y,z
_cell_length_a	13.339070
_cell_length_b	19.188930
_cell_length_c	11.804365
_cell_angle_alpha	101.784974
_cell_angle_beta	74.875130
_cell_angle_gamma	99.387037
loop_
_atom_site_label
_atom_site_type_symbol
_atom_site_fract_x
_atom_site_fract_y
_atom_site_fract_z
O1	O	1.361237	0.339586	-0.099122
O2	O	1.066910	0.293684	-0.099108
O3	O	1.222562	0.216645	-0.099092
O4	O	1.205585	0.416625	-0.099138
O5	O	1.181585	0.236898	0.098959
O6	O	1.025933	0.313937	0.098944
O7	O	1.320260	0.359839	0.098929
Cu8	Cu	1.169355	0.338737	0.117020
Cu9	Cu	1.217815	0.314786	-0.117199
O10	O	1.164608	0.436878	0.098914
C11	C	1.008766	0.296057	-0.000080
C12	C	0.896565	0.272945	-0.000074
C13	C	1.201523	0.200653	-0.000063
C14	C	1.199870	0.122826	-0.000053
C15	C	0.530990	0.452652	-0.000134
C16	C	0.636408	0.474369	-0.000143
C17	C	0.701453	0.424015	-0.000126
C18	C	0.661068	0.351940	-0.000099
C19	C	0.555641	0.330220	-0.000098
C20	C	0.726104	0.301582	-0.000090
C21	C	0.685720	0.229508	-0.000064
C22	C	0.580303	0.207791	-0.000062
C23	C	0.515258	0.258146	-0.000080
C24	C	0.831531	0.323302	-0.000091
C25	C	0.856183	0.200870	-0.000056
C26	C	0.750764	0.179154	-0.000046
C27	C	1.291203	0.095789	-0.000051
C28	C	1.289655	0.022659	-0.000070
C29	C	1.196765	-0.023428	-0.000067
C30	C	1.105421	0.003617	-0.000075
C31	C	1.106973	0.076744	-0.000068
N32	N	1.111815	-0.138445	0.067337
N33	N	1.110346	-0.207912	0.067333
C34	C	1.192082	-0.243757	-0.000091
N35	N	1.275355	-0.207508	-0.067495
N36	N	1.276826	-0.138034	-0.067486
C37	C	1.195071	-0.102723	-0.000075
C38	C	1.281744	-0.350090	-0.000112
C39	C	1.280194	-0.423222	-0.000138
C40	C	1.095954	-0.442262	-0.000131
C41	C	1.097509	-0.369132	-0.000116
C42	C	1.190405	-0.323050	-0.000101
C43	C	1.378404	0.357466	-0.000101
C44	C	1.490607	0.380578	-0.000115
C45	C	1.185648	0.452870	-0.000118
C46	C	1.187303	0.530696	-0.000136
N47	N	1.135278	0.355585	0.281757
N48	N	1.251900	0.297935	-0.281936
C49	C	1.333731	0.257465	0.655726
C50	C	1.359509	0.244717	0.531067
C51	C	1.303453	0.272433	0.468734
C52	C	1.221616	0.312899	0.531071
C53	C	1.195840	0.325653	0.655743
C54	C	1.165562	0.340620	0.468750
C55	C	1.083725	0.381087	0.531088
C56	C	1.057953	0.393838	0.655747
C57	C	1.114009	0.366123	0.718080
C58	C	1.191338	0.327866	0.344079
C59	C	1.053447	0.396054	0.344095
C60	C	1.027669	0.408802	0.468754
H61	H	0.864400	0.381986	-0.000108
H62	H	1.032596	0.098756	-0.000069
H63	H	0.909143	0.159867	-0.000046
H64	H	0.478024	0.493641	-0.000158
C65	C	0.915243	-0.395298	-0.000092
C66	C	0.997107	-0.339406	-0.000096
H67	H	0.853256	-0.376944	-0.000074
H68	H	0.932754	-0.430476	-0.069158
H69	H	0.904189	-0.416371	0.068973
H70	H	1.008166	-0.318336	-0.069166
H71	H	0.979592	-0.304215	0.068976
C72	C	0.926943	0.458628	0.659867
C73	C	0.937721	0.453289	0.537285
H74	H	0.871417	0.486096	0.702172
H75	H	0.911950	0.412035	0.680302
H76	H	0.990150	0.481387	0.680261
H77	H	0.874516	0.430525	0.516889
H78	H	0.952707	0.499891	0.516841
C79	C	0.839038	0.521781	-0.000143
C80	C	0.817328	0.447886	-0.000122
H81	H	0.910576	0.536520	-0.000128
H82	H	0.824939	0.532405	-0.069215
H83	H	0.796334	0.546534	0.068916
H84	H	0.860028	0.423133	-0.069186
H85	H	0.831438	0.437256	0.068957
C86	C	1.001485	0.501371	0.305695
C87	C	0.991822	0.426524	0.275592
H88	H	0.963451	0.520180	0.263392
H89	H	0.974423	0.514752	0.388851
H90	H	1.073138	0.519940	0.285237
H91	H	0.920170	0.407955	0.296058
H92	H	1.018881	0.413137	0.192417
H93	H	0.429417	0.240467	-0.000072
C94	C	0.981918	0.351822	0.896687
C95	C	1.085675	0.380132	0.855113
H96	H	0.964432	0.360467	0.981285
H97	H	0.936833	0.374129	0.868500
H98	H	0.974129	0.301669	0.868483
H99	H	1.093463	0.430287	0.883309
H100	H	1.130773	0.357828	0.883311
C101	C	0.615258	0.088954	-0.000015
C102	C	0.535911	0.128566	-0.000037
H103	H	0.587850	0.040046	0.000008
H104	H	0.670152	0.092905	-0.069078
H105	H	0.641572	0.107043	0.069053
H106	H	0.509602	0.110481	-0.069110
H107	H	0.480999	0.124611	0.069033
C108	C	1.463706	-0.338615	-0.000149
C109	C	1.383858	-0.299434	-0.000124
H110	H	1.526748	-0.307343	-0.000168
H111	H	1.444988	-0.360476	0.068910
H112	H	1.473542	-0.374592	-0.069221
H113	H	1.374016	-0.263460	0.068952
H114	H	1.402579	-0.277561	-0.069190
H115	H	1.366847	0.133305	-0.000043
C116	C	0.601443	0.593202	-0.000169
C117	C	0.680794	0.553590	-0.000162
H118	H	0.628846	0.642113	-0.000171
H119	H	0.575131	0.575124	-0.069229
H120	H	0.546543	0.589242	0.068902
H121	H	0.735690	0.557546	-0.069237
H122	H	0.707121	0.571674	0.068905
C123	C	1.385673	0.152153	0.694144
C124	C	1.395333	0.227000	0.724248
H125	H	1.423710	0.133345	0.736445
H126	H	1.314031	0.133584	0.714593
H127	H	1.412745	0.138772	0.610978
H128	H	1.368255	0.240381	0.807414
H129	H	1.466990	0.245576	0.703807
H130	H	1.354573	-0.445234	-0.000144
H131	H	0.717870	0.120468	-0.000034
H132	H	1.364033	0.000640	-0.000074
H133	H	1.029789	-0.033912	-0.000075
C134	C	1.410305	0.139450	0.391396
C135	C	1.449230	0.199985	0.462779
H136	H	1.465633	0.111761	0.349301
H137	H	1.358067	0.111396	0.440207
H138	H	1.380832	0.154143	0.336254
H139	H	1.478696	0.185292	0.517926
H140	H	1.501487	0.228044	0.413963
C141	C	1.259099	0.214696	0.305830
C142	C	1.281272	0.283362	0.275613
H143	H	1.314618	0.187212	0.263570
H144	H	1.251746	0.218353	0.388995
H145	H	1.195902	0.191950	0.285397
H146	H	1.344466	0.306110	0.296054
H147	H	1.288637	0.279707	0.192429
H148	H	1.020322	-0.479786	-0.000134
H149	H	1.324446	0.262051	0.367230
H150	H	0.991324	0.426795	0.706502
