data_functionalizedCrystal
_audit_creation_method	'MofGen! by Chris Wilmer'
_symmetry_space_group_name_H-M	'P1'
_symmetry_Int_Tables_number	1
_symmetry_cell_setting	triclinic
loop_
_symmetry_equiv_pos_as_xyz
  x,y,z
_cell_length_a	19.805404
_cell_length_b	25.639243
_cell_length_c	19.805399
_cell_angle_alpha	89.978810
_cell_angle_beta	89.972890
_cell_angle_gamma	90.032317
loop_
_atom_site_label
_atom_site_type_symbol
_atom_site_fract_x
_atom_site_fract_y
_atom_site_fract_z
Zn1	Zn	-0.269430	0.799285	-0.382751
Zn2	Zn	0.063904	1.132618	-0.049418
Zn3	Zn	0.397237	1.465952	0.283916
Zn4	Zn	-0.382618	0.799214	-0.269564
Zn5	Zn	-0.049285	1.132548	0.063770
Zn6	Zn	0.284049	1.465881	0.397103
Zn7	Zn	-0.269454	0.711853	-0.269572
Zn8	Zn	0.063880	1.045187	0.063761
Zn9	Zn	0.397213	1.378520	0.397094
Zn10	Zn	-0.382587	0.711820	-0.382707
Zn11	Zn	-0.049254	1.045154	-0.049374
Zn12	Zn	0.284079	1.378487	0.283959
O13	O	-0.326022	0.755543	-0.326149
O14	O	0.007311	1.088877	0.007185
O15	O	0.340644	1.422210	0.340518
O16	O	-0.284447	0.872441	-0.367751
O17	O	0.048886	1.205774	-0.034418
O18	O	0.382220	1.539108	0.298915
O19	O	-0.367629	0.787610	-0.174848
O20	O	-0.034296	1.120943	0.158485
O21	O	0.299037	1.454277	0.491818
O22	O	-0.174734	0.723495	-0.284608
O23	O	0.158599	1.056828	0.048726
O24	O	0.491933	1.390161	0.382059
O25	O	-0.367606	0.872389	-0.284593
O26	O	-0.034273	1.205722	0.048740
O27	O	0.299061	1.539056	0.382074
O28	O	-0.174716	0.787731	-0.367760
O29	O	0.158617	1.121064	-0.034426
O30	O	0.491950	1.454397	0.298907
O31	O	-0.284488	0.723426	-0.174855
O32	O	0.048845	1.056760	0.158479
O33	O	0.382179	1.390093	0.491812
O34	O	-0.284458	0.638684	-0.284565
O35	O	0.048875	0.972017	0.048768
O36	O	0.382208	1.305351	0.382101
O37	O	-0.367554	0.723439	-0.477430
O38	O	-0.034221	1.056772	-0.144096
O39	O	0.299113	1.390105	0.189237
O40	O	-0.367577	0.638660	-0.367685
O41	O	-0.034244	0.971993	-0.034352
O42	O	0.299089	1.305326	0.298982
O43	O	-0.284417	0.787698	-0.477462
O44	O	0.048916	1.121032	-0.144129
O45	O	0.382249	1.454365	0.189205
O46	O	-0.477331	0.787578	-0.284551
O47	O	-0.143997	1.120911	0.048783
O48	O	0.189336	1.454245	0.382116
O49	O	-0.477308	0.723370	-0.367677
O50	O	-0.143975	1.056703	-0.034343
O51	O	0.189359	1.390037	0.298990
C52	C	-0.326018	0.619701	-0.326122
C53	C	0.007316	0.953034	0.007212
C54	C	0.340649	1.286367	0.340545
C55	C	-0.326032	0.561587	-0.326126
C56	C	0.007301	0.894920	0.007207
C57	C	0.340635	1.228253	0.340540
C58	C	-0.282789	0.201245	-0.369521
C59	C	0.050544	0.534578	-0.036188
C60	C	0.383877	0.867912	0.297145
C61	C	-0.282789	0.146641	-0.369526
C62	C	0.050545	0.479974	-0.036192
C63	C	0.383878	0.813307	0.297141
O64	O	-0.246010	0.118422	-0.406388
O65	O	0.087324	0.451756	-0.073055
O66	O	0.420657	0.785089	0.260279
N67	N	-0.326020	0.119304	-0.326167
N68	N	0.007313	0.452638	0.007166
N69	N	0.340646	0.785971	0.340499
C70	C	-0.369250	0.146575	-0.282797
C71	C	-0.035917	0.479908	0.050536
C72	C	0.297416	0.813242	0.383870
O73	O	-0.406022	0.118309	-0.245917
O74	O	-0.072688	0.451642	0.087416
O75	O	0.260645	0.784976	0.420749
C76	C	-0.369247	0.201178	-0.282790
C77	C	-0.035914	0.534512	0.050543
C78	C	0.297420	0.867845	0.383877
C79	C	-0.326017	0.228512	-0.326156
C80	C	0.007316	0.561845	0.007177
C81	C	0.340649	0.895179	0.340511
C82	C	-0.239563	0.228579	-0.412883
C83	C	0.093770	0.561912	-0.079550
C84	C	0.427104	0.895246	0.253783
C85	C	-0.239565	0.283179	-0.412880
C86	C	0.093769	0.616513	-0.079546
C87	C	0.427102	0.949846	0.253787
C88	C	-0.282793	0.310446	-0.369514
C89	C	0.050541	0.643780	-0.036181
C90	C	0.383874	0.977113	0.297152
C91	C	-0.326019	0.283112	-0.326152
C92	C	0.007314	0.616446	0.007181
C93	C	0.340648	0.949779	0.340514
C94	C	-0.412473	0.228448	-0.239417
C95	C	-0.079140	0.561781	0.093916
C96	C	0.254194	0.895114	0.427250
C97	C	-0.412466	0.283055	-0.239413
C98	C	-0.079132	0.616388	0.093920
C99	C	0.254201	0.949722	0.427253
C100	C	-0.369236	0.310389	-0.282779
C101	C	-0.035903	0.643722	0.050554
C102	C	0.297431	0.977055	0.383887
C103	C	-0.369249	0.364980	-0.282784
C104	C	-0.035916	0.698313	0.050550
C105	C	0.297418	1.031646	0.383883
N106	N	-0.326017	0.392316	-0.326142
N107	N	0.007316	0.725650	0.007191
N108	N	0.340649	1.058983	0.340525
C109	C	-0.282789	0.365050	-0.369507
C110	C	0.050544	0.698383	-0.036174
C111	C	0.383877	1.031716	0.297159
C112	C	-0.369253	0.031904	-0.282814
C113	C	-0.035920	0.365238	0.050519
C114	C	0.297414	0.698571	0.383852
C115	C	-0.369260	-0.022698	-0.282824
C116	C	-0.035927	0.310635	0.050509
C117	C	0.297406	0.643969	0.383842
C118	C	-0.282798	-0.022628	-0.369552
C119	C	0.050535	0.310705	-0.036219
C120	C	0.383869	0.644038	0.297114
C121	C	-0.282795	0.031975	-0.369545
C122	C	0.050539	0.365308	-0.036212
C123	C	0.383872	0.698642	0.297122
C124	C	-0.326022	0.059241	-0.326173
C125	C	0.007312	0.392574	0.007161
C126	C	0.340645	0.725907	0.340494
C127	C	-0.282796	0.479715	-0.369497
C128	C	0.050537	0.813048	-0.036164
C129	C	0.383870	1.146381	0.297170
C130	C	-0.282804	0.534320	-0.369492
C131	C	0.050529	0.867653	-0.036158
C132	C	0.383863	1.200987	0.297175
C133	C	-0.369264	0.534246	-0.282762
C134	C	-0.035930	0.867579	0.050572
C135	C	0.297403	1.200912	0.383905
C136	C	-0.369259	0.479645	-0.282769
C137	C	-0.035926	0.812978	0.050564
C138	C	0.297408	1.146312	0.383897
C139	C	-0.326020	0.452381	-0.326139
C140	C	0.007313	0.785714	0.007194
C141	C	0.340647	1.119047	0.340527
O142	O	-0.406007	0.393233	-0.245938
O143	O	-0.072674	0.726566	0.087395
O144	O	0.260659	1.059900	0.420729
O145	O	-0.246018	0.393322	-0.406374
O146	O	0.087315	0.726655	-0.073041
O147	O	0.420649	1.059989	0.260292
C148	C	-0.501878	0.755477	-0.326123
C149	C	-0.168545	1.088810	0.007211
C150	C	0.164788	1.422144	0.340544
C151	C	-0.577110	0.755496	-0.326134
C152	C	-0.243777	1.088830	0.007199
C153	C	0.089556	1.422163	0.340533
C154	C	-1.038890	0.789105	-0.282960
C155	C	-0.705557	1.122438	0.050374
C156	C	-0.372224	1.455772	0.383707
C157	C	-0.968202	0.789080	-0.282946
C158	C	-0.634869	1.122414	0.050387
C159	C	-0.301535	1.455747	0.383720
C160	C	-0.932872	0.755612	-0.326185
C161	C	-0.599539	1.088945	0.007149
C162	C	-0.266205	1.422279	0.340482
C163	C	-0.968234	0.722162	-0.369434
C164	C	-0.634901	1.055495	-0.036100
C165	C	-0.301567	1.388829	0.297233
C166	C	-1.038921	0.722184	-0.369443
C167	C	-0.705588	1.055518	-0.036110
C168	C	-0.372254	1.388851	0.297224
C169	C	-0.683161	0.722071	-0.369397
C170	C	-0.349827	1.055404	-0.036063
C171	C	-0.016494	1.388738	0.297270
C172	C	-0.612469	0.722052	-0.369385
C173	C	-0.279135	1.055386	-0.036052
C174	C	0.054198	1.388719	0.297281
C175	C	-0.612442	0.788967	-0.282900
C176	C	-0.279108	1.122300	0.050433
C177	C	0.054225	1.455634	0.383767
C178	C	-0.683129	0.788989	-0.282909
C179	C	-0.349795	1.122323	0.050424
C180	C	-0.016462	1.455656	0.383757
C181	C	-0.718485	0.755538	-0.326156
C182	C	-0.385151	1.088871	0.007178
C183	C	-0.051818	1.422204	0.340511
C184	C	-0.795133	0.755564	-0.326169
C185	C	-0.461800	1.088897	0.007165
C186	C	-0.128466	1.422231	0.340498
C187	C	-0.856225	0.755588	-0.326176
C188	C	-0.522891	1.088921	0.007158
C189	C	-0.189558	1.422255	0.340491
C190	C	-0.149479	0.755624	-0.326190
C191	C	0.183854	1.088958	0.007144
C192	C	0.517187	1.422291	0.340477
C193	C	-0.074247	0.755659	-0.326207
C194	C	0.259086	1.088992	0.007126
C195	C	0.592419	1.422325	0.340460
C196	C	-0.325980	0.755573	-0.502691
C197	C	0.007354	1.088906	-0.169358
C198	C	0.340687	1.422239	0.163975
C199	C	-0.325961	0.755585	-0.577923
C200	C	0.007372	1.088919	-0.244590
C201	C	0.340705	1.422252	0.088743
C202	C	-0.326027	0.891916	-0.326176
C203	C	0.007306	1.225250	0.007157
C204	C	0.340639	1.558583	0.340491
C205	C	-0.326029	0.950030	-0.326188
C206	C	0.007304	1.283364	0.007146
C207	C	0.340637	1.616697	0.340479
C208	C	-0.282670	0.789046	-0.613285
C209	C	0.050663	1.122379	-0.279952
C210	C	0.383997	1.455713	0.053381
C211	C	-0.282650	0.789051	-0.683974
C212	C	0.050683	1.122385	-0.350641
C213	C	0.384016	1.455718	-0.017307
C214	C	-0.325926	0.755598	-0.719299
C215	C	0.007407	1.088932	-0.385966
C216	C	0.340741	1.422265	-0.052632
C217	C	-0.369219	0.722134	-0.683932
C218	C	-0.035886	1.055467	-0.350599
C219	C	0.297447	1.388800	-0.017266
C220	C	-0.369235	0.722126	-0.613245
C221	C	-0.035902	1.055459	-0.279912
C222	C	0.297432	1.388793	0.053422
C223	C	-0.369156	0.722163	-0.969006
C224	C	-0.035823	1.055496	-0.635672
C225	C	0.297510	1.388830	-0.302339
C226	C	-0.369139	0.722174	-1.039698
C227	C	-0.035805	1.055508	-0.706364
C228	C	0.297528	1.388841	-0.373031
C229	C	-0.282572	0.789089	-1.039735
C230	C	0.050762	1.122422	-0.706401
C231	C	0.384095	1.455755	-0.373068
C232	C	-0.282587	0.789081	-0.969047
C233	C	0.050746	1.122414	-0.635714
C234	C	0.384079	1.455748	-0.302381
C235	C	-0.325878	0.755615	-0.933687
C236	C	0.007456	1.088948	-0.600353
C237	C	0.340789	1.422281	-0.267020
C238	C	-0.325898	0.755609	-0.857038
C239	C	0.007436	1.088942	-0.523705
C240	C	0.340769	1.422275	-0.190371
C241	C	-0.325910	0.755607	-0.795946
C242	C	0.007423	1.088940	-0.462613
C243	C	0.340757	1.422273	-0.129280
C244	C	-0.326016	0.755544	-0.150293
C245	C	0.007317	1.088878	0.183041
C246	C	0.340651	1.422211	0.516374
C247	C	-0.325843	0.755633	-0.075061
C248	C	0.007490	1.088966	0.258272
C249	C	0.340823	1.422300	0.591606
H250	H	-0.247585	0.457523	-0.404811
H251	H	0.085748	0.790856	-0.071478
H252	H	0.419082	1.124189	0.261856
H253	H	-0.247601	0.556573	-0.404808
H254	H	0.085733	0.889906	-0.071475
H255	H	0.419066	1.223239	0.261859
H256	H	-0.939464	0.694909	-0.404637
H257	H	-0.606131	1.028242	-0.071303
H258	H	-0.272797	1.361575	0.262030
C259	C	-0.460020	0.198393	-0.191707
C260	C	-0.126686	0.531726	0.141626
C261	C	0.206647	0.865059	0.474960
H262	H	-0.485753	0.222459	-0.165877
H263	H	-0.152420	0.555793	0.167457
H264	H	0.180914	0.889126	0.500790
H265	H	-0.489553	0.177085	-0.217535
H266	H	-0.156220	0.510419	0.115798
H267	H	0.177114	0.843752	0.449131
H268	H	-0.434082	0.177097	-0.162261
H269	H	-0.100748	0.510430	0.171072
H270	H	0.232585	0.843763	0.504406
C271	C	-0.573552	0.825761	-0.235323
C272	C	-0.240218	1.159094	0.098011
C273	C	0.093115	1.492428	0.431344
H274	H	-0.604718	0.845700	-0.209580
H275	H	-0.271385	1.179034	0.123754
H276	H	0.061949	1.512367	0.457087
H277	H	-0.546020	0.805769	-0.205800
H278	H	-0.212686	1.139102	0.127533
H279	H	0.120647	1.472435	0.460867
H280	H	-0.545933	0.848523	-0.261244
H281	H	-0.212599	1.181856	0.072089
H282	H	0.120734	1.515189	0.405422
H283	H	-0.583704	0.694796	-0.404596
H284	H	-0.250371	1.028130	-0.071263
H285	H	0.082963	1.361463	0.262070
H286	H	-0.939415	0.816314	-0.247731
H287	H	-0.606081	1.149648	0.085603
H288	H	-0.272748	1.482981	0.418936
C289	C	-0.721988	0.825803	-0.235346
C290	C	-0.388655	1.159136	0.097988
C291	C	-0.055322	1.492469	0.431321
H292	H	-0.690806	0.845716	-0.209581
H293	H	-0.357473	1.179049	0.123752
H294	H	-0.024139	1.512382	0.457085
H295	H	-0.749521	0.848580	-0.261266
H296	H	-0.416188	1.181914	0.072067
H297	H	-0.082855	1.515247	0.405400
H298	H	-0.749604	0.805819	-0.205832
H299	H	-0.416270	1.139152	0.127502
H300	H	-0.082937	1.472486	0.460835
H301	H	-0.204358	0.206384	-0.448197
H302	H	0.128976	0.539717	-0.114863
H303	H	0.462309	0.873051	0.218470
H304	H	-0.711939	0.694829	-0.404605
H305	H	-0.378606	1.028162	-0.071272
H306	H	-0.045272	1.361495	0.262061
C307	C	-0.235242	-0.052626	-0.417252
C308	C	0.098091	0.280707	-0.083918
C309	C	0.431424	0.614040	0.249415
H310	H	-0.209496	-0.028530	-0.443081
H311	H	0.123837	0.304803	-0.109747
H312	H	0.457171	0.638137	0.223586
H313	H	-0.205722	-0.073924	-0.391411
H314	H	0.127612	0.259409	-0.058078
H315	H	0.460945	0.592743	0.275256
H316	H	-0.261179	-0.073928	-0.446700
H317	H	0.072155	0.259406	-0.113366
H318	H	0.405488	0.592739	0.219967
C319	C	-1.077814	0.685396	-0.417018
C320	C	-0.744481	1.018729	-0.083685
C321	C	-0.411147	1.352063	0.249648
H322	H	-1.046650	0.665464	-0.442773
H323	H	-0.713317	0.998797	-0.109440
H324	H	-0.379983	1.332130	0.223893
H325	H	-1.105434	0.662636	-0.391103
H326	H	-0.772101	0.995969	-0.057770
H327	H	-0.438767	1.329303	0.275564
H328	H	-1.105345	0.705395	-0.446541
H329	H	-0.772011	1.038729	-0.113207
H330	H	-0.438678	1.372062	0.220126
H331	H	-0.404460	0.054101	-0.247497
H332	H	-0.071127	0.387434	0.085836
H333	H	0.262207	0.720767	0.419169
C334	C	-0.460023	0.313044	-0.191708
C335	C	-0.126689	0.646378	0.141625
C336	C	0.206644	0.979711	0.474958
H337	H	-0.485770	0.288942	-0.165890
H338	H	-0.152437	0.622275	0.167443
H339	H	0.180896	0.955608	0.500777
H340	H	-0.434098	0.334349	-0.162261
H341	H	-0.100764	0.667682	0.171073
H342	H	0.232569	1.001016	0.504406
H343	H	-0.489552	0.334337	-0.217552
H344	H	-0.156219	0.667671	0.115782
H345	H	0.177114	1.001004	0.449115
H346	H	-0.404470	-0.044949	-0.247519
H347	H	-0.071136	0.288385	0.085814
H348	H	0.262197	0.621718	0.419148
C349	C	-0.235063	0.825843	-0.574434
C350	C	0.098270	1.159176	-0.241101
C351	C	0.431604	1.492509	0.092233
H352	H	-0.209272	0.845767	-0.605621
H353	H	0.124061	1.179101	-0.272288
H354	H	0.457394	1.512434	0.061046
H355	H	-0.260957	0.848610	-0.546857
H356	H	0.072377	1.181944	-0.213523
H357	H	0.405710	1.515277	0.119810
H358	H	-0.205575	0.805847	-0.546863
H359	H	0.127758	1.139180	-0.213530
H360	H	0.461091	1.472514	0.119803
C361	C	-0.235033	0.825861	-0.722869
C362	C	0.098300	1.159194	-0.389536
C363	C	0.431633	1.492528	-0.056203
H364	H	-0.209269	0.845788	-0.691707
H365	H	0.124064	1.179122	-0.358374
H366	H	0.457398	1.512455	-0.025040
H367	H	-0.205532	0.805880	-0.750446
H368	H	0.127801	1.139213	-0.417112
H369	H	0.461135	1.472547	-0.083779
H370	H	-0.260926	0.848633	-0.750444
H371	H	0.072407	1.181967	-0.417111
H372	H	0.405741	1.515300	-0.083778
C373	C	-0.234982	0.825878	-0.930193
C374	C	0.098351	1.159211	-0.596860
C375	C	0.431685	1.492544	-0.263527
H376	H	-0.209191	0.845803	-0.961378
H377	H	0.124142	1.179137	-0.628045
H378	H	0.457476	1.512470	-0.294712
H379	H	-0.260878	0.848644	-0.902616
H380	H	0.072456	1.181977	-0.569283
H381	H	0.405789	1.515310	-0.235949
H382	H	-0.205495	0.805882	-0.902622
H383	H	0.127838	1.139215	-0.569289
H384	H	0.461172	1.472548	-0.235956
C385	C	-0.416807	0.564246	-0.235060
C386	C	-0.083474	0.897579	0.098273
C387	C	0.249859	1.230913	0.431607
H388	H	-0.410607	0.600680	-0.241267
H389	H	-0.077273	0.934013	0.092067
H390	H	0.256060	1.267346	0.425400
H391	H	-0.462300	0.555286	-0.244876
H392	H	-0.128967	0.888619	0.088457
H393	H	0.204366	1.221952	0.421790
H394	H	-0.406832	0.555287	-0.189600
H395	H	-0.073498	0.888620	0.143733
H396	H	0.259835	1.221954	0.477067
C397	C	-0.234948	0.825898	-1.078633
C398	C	0.098386	1.159231	-0.745300
C399	C	0.431719	1.492565	-0.411967
H400	H	-0.241129	0.821109	-1.125791
H401	H	0.092205	1.154443	-0.792458
H402	H	0.425538	1.487776	-0.459125
H403	H	-0.244860	0.861021	-1.067056
H404	H	0.088473	1.194354	-0.733723
H405	H	0.421807	1.527687	-0.400389
H406	H	-0.189470	0.818264	-1.067055
H407	H	0.143863	1.151598	-0.733722
H408	H	0.477196	1.484931	-0.400389
C409	C	-0.416739	0.685370	-1.078555
C410	C	-0.083406	1.018704	-0.745221
C411	C	0.249928	1.352037	-0.411888
H412	H	-0.442519	0.665434	-1.047372
H413	H	-0.109186	0.998767	-0.714038
H414	H	0.224148	1.332100	-0.380705
H415	H	-0.446227	0.705358	-1.106128
H416	H	-0.112893	1.038691	-0.772795
H417	H	0.220440	1.372025	-0.439462
H418	H	-0.390831	0.662606	-1.106129
H419	H	-0.057497	0.995940	-0.772796
H420	H	0.275836	1.329273	-0.439462
C421	C	-1.077747	0.825920	-0.235396
C422	C	-0.744414	1.159253	0.097938
C423	C	-0.411081	1.492586	0.431271
H424	H	-1.046563	0.845831	-0.209633
H425	H	-0.713230	1.179165	0.123701
H426	H	-0.379896	1.512498	0.457034
H427	H	-1.105280	0.848698	-0.261316
H428	H	-0.771946	1.182031	0.072017
H429	H	-0.438613	1.515365	0.405350
H430	H	-1.105363	0.805937	-0.205881
H431	H	-0.772030	1.139270	0.127453
H432	H	-0.438697	1.472604	0.460786
C433	C	-0.416760	0.685341	-0.930118
C434	C	-0.083426	1.018675	-0.596784
C435	C	0.249907	1.352008	-0.263451
H436	H	-0.442529	0.665420	-0.961282
H437	H	-0.109196	0.998753	-0.627949
H438	H	0.224138	1.332086	-0.294615
H439	H	-0.390858	0.662572	-0.902552
H440	H	-0.057525	0.995906	-0.569219
H441	H	0.275808	1.329239	-0.235886
H442	H	-0.446268	0.705314	-0.902532
H443	H	-0.112934	1.038647	-0.569198
H444	H	0.220399	1.371980	-0.235865
H445	H	-0.204362	0.305430	-0.448192
H446	H	0.128972	0.638763	-0.114858
H447	H	0.462305	0.972096	0.218475
H448	H	-0.404453	0.694893	-0.712700
H449	H	-0.071119	1.028227	-0.379366
H450	H	0.262214	1.361560	-0.046033
C451	C	-0.235238	0.062037	-0.417242
C452	C	0.098095	0.395371	-0.083909
C453	C	0.431428	0.728704	0.249424
H454	H	-0.209494	0.037973	-0.443066
H455	H	0.123840	0.371306	-0.109732
H456	H	0.457173	0.704640	0.223601
H457	H	-0.261163	0.083340	-0.446686
H458	H	0.072170	0.416674	-0.113352
H459	H	0.405504	0.750007	0.219981
H460	H	-0.205706	0.083338	-0.391397
H461	H	0.127627	0.416671	-0.058064
H462	H	0.460961	0.750004	0.275269
C463	C	-0.416872	0.685332	-0.574347
C464	C	-0.083539	1.018665	-0.241013
C465	C	0.249795	1.351999	0.092320
H466	H	-0.442652	0.665416	-0.605508
H467	H	-0.109319	0.998749	-0.272175
H468	H	0.224014	1.332083	0.061159
H469	H	-0.391000	0.662557	-0.546763
H470	H	-0.057666	0.995890	-0.213430
H471	H	0.275667	1.329223	0.119903
H472	H	-0.446368	0.705330	-0.546779
H473	H	-0.113035	1.038663	-0.213445
H474	H	0.220299	1.371996	0.119888
H475	H	-0.404468	0.457389	-0.247465
H476	H	-0.071134	0.790722	0.085868
H477	H	0.262199	1.124055	0.419202
