data_functionalizedCrystal
_audit_creation_method	'MofGen! by Chris Wilmer'
_symmetry_space_group_name_H-M	'P1'
_symmetry_Int_Tables_number	1
_symmetry_cell_setting	triclinic
loop_
_symmetry_equiv_pos_as_xyz
  x,y,z
_cell_length_a	20.299480
_cell_length_b	20.298645
_cell_length_c	20.294903
_cell_angle_alpha	60.007695
_cell_angle_beta	60.015306
_cell_angle_gamma	59.991039
loop_
_atom_site_label
_atom_site_type_symbol
_atom_site_fract_x
_atom_site_fract_y
_atom_site_fract_z
O1	O	0.091305	-0.962534	0.804873
O2	O	0.034397	-0.749399	0.648508
O3	O	0.169355	-0.884263	0.648401
O4	O	-0.043654	-0.827670	0.804979
O5	O	0.214132	-0.839502	0.693072
O6	O	0.079173	-0.704639	0.693178
O7	O	0.136081	-0.917774	0.849544
Zn8	Zn	0.114736	-0.804099	0.778453
Zn9	Zn	0.055742	-0.863073	0.719598
O10	O	0.001122	-0.782910	0.849650
N11	N	0.155000	-0.763857	0.818624
N12	N	0.015485	-0.903322	0.679427
C13	C	0.179343	-0.615641	0.842971
C14	C	0.179443	-0.739552	0.966834
C15	C	0.303264	-0.739536	0.842917
C16	C	0.179356	-0.739528	0.842952
C17	C	0.210353	-0.708565	0.873918
C18	C	-0.132622	-0.927446	0.654695
C19	C	-0.008595	-0.927622	0.530981
C20	C	-0.008820	-1.051459	0.654914
C21	C	-0.008800	-0.927618	0.654995
C22	C	-0.039709	-0.958538	0.623897
N23	N	0.376268	-0.763873	0.818558
O24	O	0.652281	-0.777347	0.619856
O25	O	0.652556	-0.934198	0.832777
O26	O	0.652445	-0.933836	0.697731
O27	O	0.652392	-0.777709	0.754902
O28	O	0.518259	-0.889182	0.742556
O29	O	0.518369	-0.889544	0.877602
O30	O	0.518095	-0.732693	0.664680
Zn31	Zn	0.496927	-0.804029	0.778258
Zn32	Zn	0.673724	-0.862862	0.719200
O33	O	0.518205	-0.733055	0.799726
N34	N	0.794383	-0.903019	0.678891
N35	N	0.154981	-0.542636	0.818657
O36	O	-0.043628	-0.266455	0.805024
O37	O	0.169291	-0.266451	0.648191
O38	O	0.034217	-0.266468	0.648577
O39	O	0.091446	-0.266438	0.804638
O40	O	0.078998	-0.400670	0.693303
O41	O	0.214071	-0.400653	0.692918
O42	O	0.001152	-0.400657	0.849750
Zn43	Zn	0.114722	-0.421963	0.778435
Zn44	Zn	0.055722	-0.245145	0.719506
O45	O	0.136226	-0.400640	0.849364
N46	N	0.015453	-0.124472	0.679286
N47	N	0.155155	-0.763898	1.039838
O48	O	0.141555	-0.962488	1.315987
O49	O	-0.015254	-0.749480	1.316022
O50	O	-0.014890	-0.884527	1.315962
O51	O	0.141192	-0.827441	1.316047
O52	O	0.029815	-0.839777	1.181768
O53	O	0.029452	-0.704730	1.181828
O54	O	0.186261	-0.917739	1.181793
Zn55	Zn	0.114954	-0.804130	1.160504
Zn56	Zn	0.056053	-0.863089	1.337311
O57	O	0.185897	-0.782692	1.181853
N58	N	0.015850	-0.903330	1.457977
C59	C	0.051451	-0.700162	0.649301
C60	C	0.218580	-0.867175	0.649169
C61	C	0.119026	-0.967011	0.848750
C62	C	-0.048103	-0.799998	0.848882
C63	C	0.585495	-0.933471	0.882014
C64	C	0.585361	-0.933023	0.714775
C65	C	0.585151	-0.733419	0.615444
C66	C	0.585291	-0.733869	0.782682
C67	C	0.218449	-0.333386	0.648902
C68	C	0.051232	-0.333573	0.649435
C69	C	-0.048061	-0.333556	0.848984
C70	C	0.119212	-0.333537	0.848507
C71	C	-0.014496	-0.700269	1.248929
C72	C	-0.014037	-0.867500	1.248828
C73	C	0.185503	-0.966949	1.248886
C74	C	0.185054	-0.799709	1.248957
H75	H	0.039295	-0.638935	0.600193
H76	H	0.585565	-0.982710	0.943168
C77	C	-0.129665	-0.333498	0.914518
C78	C	-0.179500	-0.333481	0.885609
C79	C	-0.254685	-0.333410	0.945949
H80	H	-0.122696	-0.380275	0.960413
H81	H	-0.153837	-0.286670	0.929156
H82	H	-0.155333	-0.380304	0.870983
H83	H	-0.186493	-0.286708	0.839722
H84	H	-0.278857	-0.286583	0.960587
H85	H	-0.247707	-0.380188	0.991840
H86	H	-0.288510	-0.333392	0.926341
C87	C	0.035066	-0.333716	0.584020
C88	C	0.090045	-0.402755	0.562507
C89	C	0.075192	-0.402912	0.502240
H90	H	-0.018320	-0.333762	0.603648
H91	H	0.041098	-0.286944	0.538094
H92	H	0.084007	-0.449514	0.608425
H93	H	0.143437	-0.402723	0.542865
H94	H	0.081224	-0.356141	0.456314
H95	H	0.021804	-0.402956	0.521875
H96	H	0.112497	-0.449750	0.487631
H97	H	0.131466	-0.333527	0.897533
H98	H	-0.109285	-0.787936	0.898049
C99	C	-0.080054	-0.618660	1.248982
C100	C	-0.051150	-0.568875	1.249034
C101	C	-0.111522	-0.493695	1.249093
H102	H	-0.094764	-0.594407	1.202191
H103	H	-0.125903	-0.625689	1.295790
H104	H	-0.005315	-0.561845	1.202230
H105	H	-0.036445	-0.593103	1.295821
H106	H	-0.157372	-0.500723	1.295902
H107	H	-0.126229	-0.469449	1.202302
H108	H	-0.091922	-0.459909	1.249136
H109	H	-0.063051	-0.879692	1.248749
C110	C	0.251035	-1.048584	1.248910
C111	C	0.222119	-1.098381	1.248894
C112	C	0.282462	-1.173591	1.248925
H113	H	0.296914	-1.041632	1.202133
H114	H	0.265696	-1.072782	1.295732
H115	H	0.207470	-1.074189	1.202076
H116	H	0.176249	-1.105356	1.295667
H117	H	0.297122	-1.197789	1.295747
H118	H	0.328337	-1.166631	1.202147
H119	H	0.262848	-1.207391	1.248922
H120	H	0.585062	-0.684173	0.554297
C121	C	0.299859	-0.333063	0.583114
C122	C	0.335541	-0.401974	0.561366
C123	C	0.410544	-0.401716	0.500776
H124	H	0.292621	-0.286222	0.537338
H125	H	0.333780	-0.333000	0.602550
H126	H	0.301628	-0.402030	0.541927
H127	H	0.342799	-0.448827	0.607122
H128	H	0.444464	-0.401653	0.520213
H129	H	0.403298	-0.354872	0.455006
H130	H	0.434766	-0.448475	0.486018
C131	C	0.250468	-0.783331	1.248810
C132	C	0.268810	-0.718452	1.179774
C133	C	0.329072	-0.703348	1.179606
H134	H	0.231920	-0.770474	1.295561
H135	H	0.297463	-0.829953	1.248761
H136	H	0.221824	-0.671840	1.179831
H137	H	0.287371	-0.731291	1.133012
H138	H	0.376067	-0.749970	1.179556
H139	H	0.310518	-0.690495	1.226360
H140	H	0.341530	-0.659332	1.132762
C141	C	0.300220	-0.883396	0.583718
C142	C	0.349959	-0.962139	0.612761
C143	C	0.425174	-0.977107	0.552495
H144	H	0.293281	-0.877390	0.537834
H145	H	0.324449	-0.846145	0.569029
H146	H	0.325735	-0.999380	0.627439
H147	H	0.356921	-0.968163	0.658637
H148	H	0.449403	-0.939855	0.537806
H149	H	0.418226	-0.971097	0.506615
H150	H	0.458933	-1.030532	0.572195
H151	H	0.585383	-0.982069	0.702538
H152	H	0.131184	-1.028235	0.897860
C153	C	0.585227	-0.668557	0.799158
C154	C	0.585292	-0.697816	0.877926
C155	C	0.585222	-0.637671	0.893136
H156	H	0.631971	-0.653788	0.761988
H157	H	0.538377	-0.622681	0.793227
H158	H	0.632136	-0.743677	0.883850
H159	H	0.538551	-0.712579	0.915112
H160	H	0.538373	-0.591795	0.887205
H161	H	0.631967	-0.622906	0.855962
H162	H	0.585259	-0.657511	0.946583
