data_functionalizedCrystal
_audit_creation_method	'MofGen! by Chris Wilmer'
_symmetry_space_group_name_H-M	'P1'
_symmetry_Int_Tables_number	1
_symmetry_cell_setting	triclinic
loop_
_symmetry_equiv_pos_as_xyz
  x,y,z
_cell_length_a	14.519709
_cell_length_b	16.109302
_cell_length_c	12.996460
_cell_angle_alpha	89.991849
_cell_angle_beta	89.998766
_cell_angle_gamma	83.570963
loop_
_atom_site_label
_atom_site_type_symbol
_atom_site_fract_x
_atom_site_fract_y
_atom_site_fract_z
O1	O	0.118538	1.103339	-0.085615
O2	O	0.618538	1.603339	0.414385
O3	O	0.133289	0.861303	-0.085607
O4	O	0.633289	1.361303	0.414393
O5	O	-0.008338	0.988738	-0.085602
O6	O	0.491662	1.488738	0.414398
O7	O	0.260166	0.975904	-0.085620
O8	O	0.760166	1.475904	0.414380
O9	O	-0.008330	0.988722	0.085532
O10	O	0.491670	1.488722	0.585532
O11	O	0.133298	0.861287	0.085526
O12	O	0.633298	1.361287	0.585526
O13	O	0.118546	1.103323	0.085519
O14	O	0.618546	1.603323	0.585519
Cu15	Cu	0.125923	0.982303	0.101148
Cu16	Cu	0.625923	1.482303	0.601148
Cu17	Cu	0.125913	0.982323	-0.101237
Cu18	Cu	0.625913	1.482323	0.398763
O19	O	0.260174	0.975888	0.085513
O20	O	0.760174	1.475888	0.585513
C21	C	0.132696	0.830319	-0.000039
C22	C	0.632696	1.330319	0.499961
C23	C	0.130904	0.738021	-0.000036
C24	C	0.630904	1.238021	0.499964
C25	C	-0.042693	0.988132	-0.000035
C26	C	0.457307	1.488132	0.499965
C27	C	-0.145070	0.986340	-0.000035
C28	C	0.354930	1.486340	0.499965
C29	C	0.126765	0.525664	0.093239
C30	C	0.626765	1.025664	0.593239
C31	C	0.125072	0.438941	0.093235
C32	C	0.625072	0.938941	0.593235
C33	C	0.125068	0.438969	-0.093344
C34	C	0.625068	0.938969	0.406656
C35	C	0.126754	0.525691	-0.093339
C36	C	0.626754	1.025691	0.406661
C37	C	0.127608	0.569036	-0.000045
C38	C	0.627608	1.069036	0.499955
C39	C	0.124228	0.395590	-0.000053
C40	C	0.624228	0.895590	0.499947
C41	C	0.122391	0.301562	-0.000057
C42	C	0.622391	0.801562	0.499943
C43	C	0.129442	0.663071	-0.000040
C44	C	0.629442	1.163071	0.499960
C45	C	-0.519952	0.979741	-0.000061
C46	C	-0.019952	1.479741	0.499939
C47	C	-0.415648	0.981574	-0.000053
C48	C	0.084352	1.481574	0.499947
C49	C	-0.332514	0.983040	-0.000047
C50	C	0.167486	1.483040	0.499953
C51	C	-0.228204	0.984873	-0.000041
C52	C	0.271796	1.484873	0.499959
C53	C	0.294528	0.976494	-0.000056
C54	C	0.794528	1.476494	0.499944
C55	C	0.396906	0.978286	-0.000063
C56	C	0.896906	1.478286	0.499937
C57	C	0.119140	1.134307	-0.000052
C58	C	0.619140	1.634307	0.499948
C59	C	0.120932	1.226605	-0.000062
C60	C	0.620932	1.726605	0.499938
N61	N	0.125929	0.982296	0.243495
N62	N	0.625929	1.482296	0.743495
N63	N	0.125899	0.982337	-0.243584
N64	N	0.625899	1.482337	0.256416
C65	C	0.125931	0.982300	0.336601
C66	C	0.625931	1.482300	0.836601
C67	C	0.125925	0.982307	0.453407
C68	C	0.625925	1.482307	0.953407
C69	C	0.125915	0.982318	0.546505
C70	C	0.625915	1.482318	1.046505
C71	C	0.125910	0.982326	0.663317
C72	C	0.625910	1.482326	1.163317
H73	H	0.127460	0.560952	0.169205
H74	H	0.627460	1.060952	0.669205
H75	H	0.127438	0.561006	-0.169307
H76	H	0.627438	1.061006	0.330693
Br77	Br	0.123927	0.380081	0.219841
Br78	Br	0.623927	0.880081	0.719841
Br79	Br	0.123881	0.380142	-0.219952
Br80	Br	0.623881	0.880142	0.280048
