data_functionalizedCrystal
_audit_creation_method	'MofGen! by Chris Wilmer'
_symmetry_space_group_name_H-M	'P1'
_symmetry_Int_Tables_number	1
_symmetry_cell_setting	triclinic
loop_
_symmetry_equiv_pos_as_xyz
  x,y,z
_cell_length_a	12.759395
_cell_length_b	12.759394
_cell_length_c	18.215399
_cell_angle_alpha	89.976598
_cell_angle_beta	89.981782
_cell_angle_gamma	90.015257
loop_
_atom_site_label
_atom_site_type_symbol
_atom_site_fract_x
_atom_site_fract_y
_atom_site_fract_z
Zn1	Zn	1.606236	-0.418258	-0.416107
Zn2	Zn	1.606137	-0.593955	-0.293051
Zn3	Zn	1.430544	-0.418293	-0.293058
Zn4	Zn	1.430527	-0.593898	-0.416079
O5	O	1.518361	-0.506101	-0.354574
O6	O	1.753244	-0.441574	-0.399792
O7	O	1.582810	-0.570692	-0.190068
O8	O	1.453899	-0.271267	-0.309396
O9	O	1.753171	-0.570658	-0.309383
O10	O	1.582979	-0.271242	-0.399800
O11	O	1.453803	-0.441634	-0.190073
O12	O	1.283521	-0.441578	-0.309369
O13	O	1.453870	-0.570560	-0.519067
O14	O	1.283508	-0.570594	-0.399752
O15	O	1.582963	-0.441518	-0.519088
O16	O	1.582794	-0.740969	-0.309356
O17	O	1.453774	-0.740926	-0.399744
C18	C	1.245394	-0.506084	-0.354558
C19	C	1.128617	-0.506102	-0.354569
C20	C	0.909219	-0.640688	-0.448561
C21	C	0.964104	-0.707959	-0.495539
C22	C	1.073825	-0.707946	-0.495530
C23	C	1.128665	-0.640657	-0.448535
C24	C	1.073780	-0.573386	-0.401557
C25	C	0.964056	-0.573404	-0.401573
C26	C	1.073733	-0.438831	-0.307591
C27	C	0.964011	-0.438837	-0.307603
C28	C	1.128572	-0.371542	-0.260596
C29	C	1.073687	-0.304265	-0.213620
C30	C	0.963959	-0.304279	-0.213632
C31	C	0.909126	-0.371566	-0.260624
C32	C	1.518300	-0.779069	-0.354562
C33	C	1.518369	-0.895845	-0.354582
C34	C	1.384180	-1.115482	-0.260406
C35	C	1.316998	-1.060716	-0.213290
C36	C	1.316938	-0.950995	-0.213270
C37	C	1.384065	-0.896036	-0.260372
C38	C	1.451247	-0.950801	-0.307487
C39	C	1.451302	-1.060525	-0.307501
C40	C	1.585551	-0.950611	-0.401698
C41	C	1.585618	-1.060332	-0.401715
C42	C	1.652678	-0.895652	-0.448799
C43	C	1.719867	-0.950417	-0.495912
C44	C	1.719925	-1.060146	-0.495930
C45	C	1.652799	-1.115098	-0.448831
C46	C	1.792395	-0.506119	-0.354590
C47	C	1.909171	-0.506126	-0.354597
C48	C	1.518425	-0.506029	-0.546527
C49	C	1.518453	-0.505998	-0.628326
C50	C	1.518452	-0.232068	-0.354602
C51	C	1.518491	-0.115291	-0.354613
C52	C	1.585695	-0.438743	-0.816532
C53	C	1.585708	-0.438712	-0.893391
C54	C	1.451284	-0.573090	-0.893358
C55	C	1.451267	-0.573115	-0.816500
C56	C	1.518479	-0.505943	-0.778089
C57	C	1.518508	-0.505887	-0.931806
C58	C	1.518521	-0.505855	-1.015139
C59	C	1.518464	-0.505974	-0.694750
C60	C	1.518358	-0.506097	-0.163368
C61	C	1.518534	-0.505832	-0.081569
H62	H	1.218006	-0.640662	-0.448525
H63	H	1.396565	-0.627781	-0.924641
O64	O	1.384195	-0.789453	-0.260355
C65	C	1.484872	-0.752724	-0.241492
H66	H	1.545417	-0.815892	-0.254107
H67	H	1.503479	-0.679276	-0.274689
H68	H	1.487131	-0.733303	-0.180428
H69	H	1.396524	-0.627836	-0.785200
H70	H	0.819878	-0.640695	-0.448580
H71	H	1.217913	-0.371542	-0.260589
H72	H	1.652619	-0.806311	-0.448783
O73	O	0.910528	-0.238887	-0.168096
C74	C	0.847115	-0.171092	-0.210077
H75	H	0.830710	-0.208243	-0.265809
H76	H	0.769940	-0.156975	-0.180124
H77	H	0.889415	-0.093241	-0.218245
H78	H	0.919441	-0.762746	-0.533799
H79	H	1.118512	-0.762726	-0.533782
H80	H	1.118346	-0.249488	-0.175358
O81	O	0.802544	-0.371558	-0.260775
C82	C	0.765952	-0.344677	-0.331340
H83	H	0.829209	-0.362710	-0.373698
H84	H	0.692539	-0.392082	-0.344377
H85	H	0.746516	-0.257504	-0.333006
O86	O	1.384074	-1.222064	-0.260486
C87	C	1.283381	-1.258793	-0.279307
H88	H	1.239882	-1.195573	-0.311355
H89	H	1.290916	-1.332162	-0.314609
H90	H	1.237922	-1.278344	-0.227178
H91	H	1.652843	-1.204439	-0.448838
O92	O	1.251646	-1.114058	-0.167615
C93	C	1.146907	-1.087297	-0.183617
H94	H	1.141538	-1.057085	-0.242400
H95	H	1.095046	-1.159502	-0.177256
H96	H	1.119442	-1.023666	-0.144133
O97	O	1.785278	-1.113179	-0.541728
C98	C	1.844481	-1.041138	-0.583309
H99	H	1.848108	-0.962952	-0.553152
H100	H	1.927268	-1.072766	-0.591227
H101	H	1.805943	-1.029444	-0.639171
O102	O	1.650826	-0.373432	-0.779139
C103	C	1.591015	-0.305572	-0.734700
H104	H	1.511386	-0.342635	-0.723169
H105	H	1.633802	-0.291502	-0.680661
H106	H	1.579492	-0.227708	-0.764332
H107	H	1.262229	-0.906404	-0.174907
H108	H	1.774512	-0.905663	-0.534262
H109	H	1.640441	-0.383990	-0.924687
