data_functionalizedCrystal
_audit_creation_method	'MofGen! by Chris Wilmer'
_symmetry_space_group_name_H-M	'P1'
_symmetry_Int_Tables_number	1
_symmetry_cell_setting	triclinic
loop_
_symmetry_equiv_pos_as_xyz
  x,y,z
_cell_length_a	14.853558
_cell_length_b	15.944493
_cell_length_c	13.930277
_cell_angle_alpha	90.001318
_cell_angle_beta	89.993309
_cell_angle_gamma	83.553089
loop_
_atom_site_label
_atom_site_type_symbol
_atom_site_fract_x
_atom_site_fract_y
_atom_site_fract_z
O1	O	1.196208	0.109630	-0.079806
O2	O	0.933728	0.122702	-0.079809
O3	O	1.072163	-0.006104	-0.079816
O4	O	1.057773	0.238437	-0.079800
O5	O	1.072144	-0.006107	0.079846
O6	O	0.933709	0.122700	0.079853
O7	O	1.196189	0.109627	0.079856
Zn8	Zn	1.064946	0.116163	0.105204
Zn9	Zn	1.064971	0.116167	-0.105158
O10	O	1.057754	0.238434	0.079862
C11	C	0.900130	0.122110	0.000021
C12	C	0.800049	0.120339	0.000019
C13	C	0.753041	0.119511	-0.087016
C14	C	0.753018	0.119498	0.087053
C15	C	0.658987	0.117829	0.087055
C16	C	0.611978	0.117000	0.000020
C17	C	0.659001	0.117840	-0.087017
C18	C	0.611958	0.116981	0.174090
C19	C	0.517921	0.115312	0.174095
C20	C	0.470910	0.114489	0.087059
C21	C	0.517939	0.115330	0.000018
C22	C	0.470930	0.114501	-0.087017
C23	C	0.517956	0.115347	-0.174058
C24	C	0.611990	0.117017	-0.174054
C25	C	0.376877	0.112819	0.087054
C26	C	0.376891	0.112830	-0.087018
C27	C	1.071565	-0.037401	0.000011
C28	C	1.069802	-0.130651	-0.000001
C29	C	1.151288	-0.366323	0.000018
C30	C	1.107355	-0.416937	-0.078704
C31	C	1.066535	-0.301376	0.000011
C32	C	1.107317	-0.416916	0.078711
C33	C	1.063385	-0.466289	0.000026
C34	C	1.022625	-0.350762	-0.078776
C35	C	1.022599	-0.350737	0.078709
C36	C	0.978603	-0.401319	-0.000032
C37	C	1.068352	-0.206374	0.000001
C38	C	1.061562	-0.561288	0.000029
C39	C	1.229787	0.110220	0.000023
C40	C	1.329868	0.111990	0.000019
C41	C	1.058352	0.269731	0.000033
C42	C	1.060115	0.362981	0.000039
N43	N	1.064935	0.116160	0.248770
N44	N	1.064989	0.116163	-0.248724
C45	C	1.003670	0.173180	0.701042
C46	C	1.126297	0.059147	0.701006
C47	C	1.126287	0.059145	0.600510
C48	C	1.064968	0.116161	0.550276
C49	C	1.003659	0.173181	0.600537
C50	C	1.187600	0.002132	0.550241
C51	C	1.187593	0.002128	0.449739
C52	C	1.126268	0.059141	0.399503
C53	C	1.064957	0.116162	0.449771
C54	C	1.003637	0.173179	0.399536
C55	C	0.942321	0.230197	0.449802
C56	C	0.942335	0.230194	0.550301
C57	C	1.126254	0.059143	0.299004
C58	C	1.003627	0.173180	0.299031
H59	H	0.650287	0.117704	-0.244918
Br60	Br	0.920396	0.250557	0.230864
H61	H	0.892414	0.276617	0.591233
Br62	Br	0.859113	0.307582	0.381616
H63	H	0.986861	-0.321980	-0.145400
H64	H	1.143156	-0.445843	-0.145257
Br65	Br	0.856832	-0.427232	-0.000099
Br66	Br	0.313062	0.111653	0.205171
H67	H	0.953744	0.219601	0.741971
Br68	Br	0.675758	0.118107	0.292202
Br69	Br	0.816856	0.120662	-0.205138
H70	H	1.176226	0.012730	0.741910
H71	H	0.986829	-0.321817	0.145265
H72	H	1.224292	-0.350615	-0.000060
Br73	Br	0.816816	0.120618	0.205167
Br74	Br	1.166986	-0.465074	0.189630
H75	H	0.479641	0.114622	0.244969
H76	H	1.237529	-0.044286	0.591145
Br77	Br	1.270803	-0.075252	0.381527
H78	H	1.176182	0.012724	0.258083
H79	H	0.479670	0.114667	-0.244923
Br80	Br	0.313099	0.111715	-0.205144
