data_functionalizedCrystal
_audit_creation_method	'MofGen! by Chris Wilmer'
_symmetry_space_group_name_H-M	'P1'
_symmetry_Int_Tables_number	1
_symmetry_cell_setting	triclinic
loop_
_symmetry_equiv_pos_as_xyz
  x,y,z
_cell_length_a	13.033293
_cell_length_b	17.637651
_cell_length_c	13.033109
_cell_angle_alpha	87.278937
_cell_angle_beta	74.800007
_cell_angle_gamma	106.685376
loop_
_atom_site_label
_atom_site_type_symbol
_atom_site_fract_x
_atom_site_fract_y
_atom_site_fract_z
Zn1	Zn	1.630155	-0.229073	-0.736962
Zn2	Zn	2.130155	0.270927	-0.236962
Zn3	Zn	1.571565	-0.346404	-0.523369
Zn4	Zn	2.071565	0.153596	-0.023369
Zn5	Zn	1.429955	-0.229088	-0.536760
Zn6	Zn	1.929955	0.270912	-0.036760
Zn7	Zn	1.407468	-0.376118	-0.669235
Zn8	Zn	1.907468	0.123882	-0.169235
O9	O	1.509785	-0.295171	-0.616581
O10	O	2.009785	0.204829	-0.116581
O11	O	1.774843	-0.232196	-0.731368
O12	O	2.274843	0.267804	-0.231368
O13	O	1.537671	-0.318412	-0.380315
O14	O	2.037671	0.181588	0.119685
O15	O	1.490443	-0.118450	-0.597265
O16	O	1.990443	0.381550	-0.097265
O17	O	1.731797	-0.318398	-0.574443
O18	O	2.231797	0.181602	-0.074443
O19	O	1.637529	-0.118440	-0.744353
O20	O	2.137529	0.381560	-0.244353
O21	O	1.433630	-0.232221	-0.390153
O22	O	1.933630	0.267779	0.109847
O23	O	1.274512	-0.261034	-0.531593
O24	O	1.774512	0.238966	-0.031593
O25	O	1.452117	-0.369042	-0.823049
O26	O	1.952117	0.130958	-0.323049
O27	O	1.257991	-0.369056	-0.628922
O28	O	1.757991	0.130944	-0.128922
O29	O	1.615724	-0.261009	-0.872808
O30	O	2.115724	0.238991	-0.372808
O31	O	1.515866	-0.460981	-0.508771
O32	O	2.015866	0.039019	-0.008771
O33	O	1.395304	-0.482812	-0.615938
O34	O	1.895304	0.017188	-0.115938
C35	C	1.226720	-0.318271	-0.574361
C36	C	1.726720	0.181729	-0.074361
C37	C	1.105620	-0.328175	-0.556318
C38	C	1.605620	0.171825	-0.056318
C39	C	1.072915	-0.290022	-0.625992
C40	C	1.572915	0.209978	-0.125992
C41	C	0.947752	-0.300257	-0.607345
C42	C	1.447752	0.199743	-0.107345
C43	C	1.446819	-0.500583	-0.553579
C44	C	1.946819	-0.000583	-0.053579
C45	C	1.419985	-0.588454	-0.526676
C46	C	1.919985	-0.088454	-0.026676
C47	C	1.714382	-0.877180	-0.821395
C48	C	2.214382	-0.377180	-0.321395
C49	C	1.689131	-0.959750	-0.796092
C50	C	2.189131	-0.459750	-0.296092
C51	C	1.536049	-0.959850	-0.642815
C52	C	2.036049	-0.459850	-0.142815
C53	C	1.561291	-0.877278	-0.668102
C54	C	2.061291	-0.377278	-0.168102
C55	C	1.650458	-0.835950	-0.757394
C56	C	2.150458	-0.335950	-0.257394
C57	C	1.497367	-0.836048	-0.604102
C58	C	1.997367	-0.336048	-0.104102
C59	C	1.522603	-0.753484	-0.629390
C60	C	2.022603	-0.253484	-0.129390
C61	C	1.611764	-0.712150	-0.718680
C62	C	2.111764	-0.212150	-0.218680
C63	C	1.675694	-0.753386	-0.782683
C64	C	2.175694	-0.253386	-0.282683
C65	C	1.408196	-0.877378	-0.514815
C66	C	1.908196	-0.377378	-0.014815
C67	C	1.344271	-0.836148	-0.450814
C68	C	1.844271	-0.336148	0.049186
C69	C	1.369512	-0.753581	-0.476098
C70	C	1.869512	-0.253581	0.023902
C71	C	1.458673	-0.712248	-0.565388
C72	C	1.958673	-0.212248	-0.065388
C73	C	1.305582	-0.712346	-0.412095
C74	C	1.805582	-0.212346	0.087905
C75	C	1.330818	-0.629782	-0.437384
C76	C	1.830818	-0.129782	0.062616
C77	C	1.483909	-0.629684	-0.590676
C78	C	1.983909	-0.129684	-0.090676
C79	C	1.793956	-0.271981	-0.658967
C80	C	2.293956	0.228019	-0.158967
C81	C	1.915053	-0.262099	-0.677029
C82	C	2.415053	0.237901	-0.177029
C83	C	1.537948	-0.318338	-0.886532
C84	C	2.037948	0.181662	-0.386532
C85	C	1.549949	-0.328211	-1.001568
C86	C	2.049949	0.171789	-0.501568
C87	C	1.573030	-0.088956	-0.679857
C88	C	2.073030	0.411044	-0.179857
C89	C	1.599981	-0.001080	-0.706822
C90	C	2.099981	0.498920	-0.206822
C91	C	1.503822	-0.289966	-1.057723
C92	C	2.003822	0.210034	-0.557723
C93	C	1.516224	-0.300169	-1.176620
C94	C	2.016224	0.199831	-0.676620
C95	C	1.481813	-0.272032	-0.347708
C96	C	1.981813	0.227968	0.152292
C97	C	1.470091	-0.261919	-0.232772
C98	C	1.970091	0.238081	0.267228
H99	H	1.040959	-0.368414	-0.482862
H100	H	1.540959	0.131586	0.017138
F101	F	1.441148	-1.003844	-0.547794
F102	F	1.941148	-0.503844	-0.047794
H103	H	1.137577	-0.249778	-0.699444
H104	H	1.637577	0.250222	-0.199444
F105	F	1.579842	-0.352847	-1.228821
F106	F	2.079842	0.147153	-0.728821
H107	H	0.979711	-0.221850	-0.750486
H108	H	1.479711	0.278150	-0.250486
H109	H	1.278763	-0.596212	-0.385268
H110	H	1.778763	-0.096212	0.114732
H111	H	1.556525	-0.596032	-0.663380
H112	H	2.056525	-0.096032	-0.163380
F113	F	1.440215	-0.237286	-1.005520
F114	F	1.940215	0.262714	-0.505520
F115	F	1.406440	-0.209263	-1.180563
F116	F	1.906440	0.290737	-0.680563
H117	H	0.883094	-0.340499	-0.533883
H118	H	1.383094	0.159501	-0.033883
F119	F	1.638379	-0.624322	-0.745811
F120	F	2.138379	-0.124322	-0.245811
H121	H	1.748310	-0.719734	-0.855387
H122	H	2.248310	-0.219734	-0.355387
F123	F	1.809295	-0.833190	-0.916420
F124	F	2.309295	-0.333190	-0.416420
H125	H	1.598620	-0.368507	-1.041515
H126	H	2.098620	0.131493	-0.541515
H127	H	1.741179	-0.993319	-0.848228
H128	H	2.241179	-0.493319	-0.348228
F129	F	1.381454	-0.965230	-0.487800
F130	F	1.881454	-0.465230	0.012200
H131	H	1.232976	-0.746008	-0.339400
H132	H	1.732976	-0.246008	0.160600
F133	F	1.249370	-0.880141	-0.355793
F134	F	1.749370	-0.380141	0.144207
