data_functionalizedCrystal
_audit_creation_method	'MofGen! by Chris Wilmer'
_symmetry_space_group_name_H-M	'P1'
_symmetry_Int_Tables_number	1
_symmetry_cell_setting	triclinic
loop_
_symmetry_equiv_pos_as_xyz
  x,y,z
_cell_length_a	19.077105
_cell_length_b	12.759399
_cell_length_c	19.076919
_cell_angle_alpha	92.274423
_cell_angle_beta	90.076224
_cell_angle_gamma	87.711582
loop_
_atom_site_label
_atom_site_type_symbol
_atom_site_fract_x
_atom_site_fract_y
_atom_site_fract_z
Zn1	Zn	1.058325	-0.508276	-0.440434
Zn2	Zn	1.558325	-0.008276	0.059566
Zn3	Zn	1.062983	-0.677203	-0.322932
Zn4	Zn	1.562983	-0.177203	0.177068
Zn5	Zn	0.945542	-0.494201	-0.318226
Zn6	Zn	1.445542	0.005799	0.181774
Zn7	Zn	0.940805	-0.676569	-0.435685
Zn8	Zn	1.440805	-0.176569	0.064315
O9	O	1.001914	-0.589062	-0.379319
O10	O	1.501914	-0.089062	0.120681
O11	O	1.157276	-0.536839	-0.428803
O12	O	1.657276	-0.036839	0.071197
O13	O	1.051336	-0.647302	-0.223976
O14	O	1.551336	-0.147302	0.276024
O15	O	0.960535	-0.349050	-0.334456
O16	O	1.460535	0.150950	0.165544
O17	O	1.160698	-0.660949	-0.342476
O18	O	1.660698	-0.160949	0.157524
O19	O	1.043397	-0.359391	-0.424241
O20	O	1.543397	0.140609	0.075759
O21	O	0.965052	-0.512852	-0.220519
O22	O	1.465052	-0.012852	0.279481
O23	O	0.846581	-0.512237	-0.329851
O24	O	1.346581	-0.012237	0.170149
O25	O	0.952463	-0.659869	-0.534646
O26	O	1.452463	-0.159869	-0.034646
O27	O	0.843101	-0.646222	-0.416147
O28	O	1.343101	-0.146222	0.083853
O29	O	1.038804	-0.536225	-0.538135
O30	O	1.538804	-0.036225	-0.038135
O31	O	1.046743	-0.824136	-0.337871
O32	O	1.546743	-0.324136	0.162129
O33	O	0.956979	-0.823671	-0.420709
O34	O	1.456979	-0.323671	0.079291
C35	C	0.819344	-0.577635	-0.371973
C36	C	1.319344	-0.077635	0.128027
C37	C	0.741240	-0.572772	-0.368847
C38	C	1.241240	-0.072772	0.131153
C39	C	0.702755	-0.640344	-0.412238
C40	C	1.202755	-0.140344	0.087762
C41	C	0.629367	-0.635761	-0.409304
C42	C	1.129367	-0.135761	0.090696
C43	C	0.594465	-0.563611	-0.362976
C44	C	1.094465	-0.063611	0.137024
C45	C	0.632955	-0.496033	-0.319583
C46	C	1.132955	0.003967	0.180417
C47	C	0.706341	-0.500611	-0.322521
C48	C	1.206341	-0.000611	0.177479
C49	C	0.375176	-0.542424	-0.349382
C50	C	0.875176	-0.042424	0.150618
C51	C	0.301784	-0.537853	-0.346446
C52	C	0.801784	-0.037853	0.153554
C53	C	0.298202	-0.677580	-0.436168
C54	C	0.798202	-0.177580	0.063832
C55	C	0.371590	-0.682156	-0.439099
C56	C	0.871590	-0.182156	0.060901
C57	C	0.410073	-0.614574	-0.395709
C58	C	0.910073	-0.114574	0.104291
N59	N	0.519451	-0.558928	-0.359974
N60	N	1.019451	-0.058928	0.140026
N61	N	0.485085	-0.619253	-0.398715
N62	N	0.985085	-0.119253	0.101285
C63	C	1.001871	-0.862026	-0.379301
C64	C	1.501871	-0.362026	0.120699
C65	C	1.001917	-0.978806	-0.379320
C66	C	1.501917	-0.478806	0.120680
C67	C	1.048706	-1.033882	-0.336239
C68	C	1.548706	-0.533882	0.163761
C69	C	1.048750	-1.143610	-0.336264
C70	C	1.548750	-0.643610	0.163736
C71	C	0.955209	-1.143177	-0.422453
C72	C	1.455209	-0.643177	0.077547
C73	C	0.955169	-1.033451	-0.422431
C74	C	1.455169	-0.533451	0.077569
C75	C	1.132698	-1.297227	-0.314590
C76	C	1.632698	-0.797227	0.185410
C77	C	1.179482	-1.352305	-0.271497
C78	C	1.679482	-0.852305	0.228503
C79	C	1.193053	-1.313482	-0.203371
C80	C	1.693053	-0.813482	0.296629
C81	C	1.159831	-1.219581	-0.178322
C82	C	1.659831	-0.719581	0.321678
C83	C	1.113042	-1.164508	-0.221411
C84	C	1.613042	-0.664508	0.278589
C85	C	1.099484	-1.203331	-0.289547
C86	C	1.599484	-0.703331	0.210453
C87	C	0.871220	-0.879832	-0.444098
C88	C	1.371220	-0.379832	0.055902
C89	C	0.824428	-0.824756	-0.487184
C90	C	1.324428	-0.324756	0.012816
C91	C	0.810849	-0.863577	-0.555311
C92	C	1.310849	-0.363577	-0.055311
C93	C	0.844059	-0.957481	-0.580357
C94	C	1.344059	-0.457481	-0.080357
C95	C	0.890852	-1.012557	-0.537271
C96	C	1.390852	-0.512557	-0.037271
C97	C	0.904431	-0.973728	-0.469145
C98	C	1.404431	-0.473728	0.030855
C99	C	1.185196	-0.600535	-0.386694
C100	C	1.685196	-0.100535	0.113306
C101	C	1.263300	-0.605424	-0.389837
C102	C	1.763300	-0.105424	0.110163
C103	C	0.994585	-0.599547	-0.562600
C104	C	1.494585	-0.099547	-0.062600
C105	C	0.991463	-0.604014	-0.640703
C106	C	1.491463	-0.104014	-0.140703
C107	C	1.001975	-0.315035	-0.379353
C108	C	1.501975	0.184965	0.120647
C109	C	1.002001	-0.198260	-0.379367
C110	C	1.502001	0.301740	0.120633
C111	C	1.034947	-0.541741	-0.679214
C112	C	1.534947	-0.041741	-0.179214
C113	C	1.032004	-0.545935	-0.752599
C114	C	1.532004	-0.045935	-0.252599
C115	C	0.985580	-0.612408	-0.787473
C116	C	1.485580	-0.112408	-0.287473
C117	C	0.942091	-0.674683	-0.748957
C118	C	1.442091	-0.174683	-0.248957
C119	C	0.945031	-0.670483	-0.675573
C120	C	1.445031	-0.170483	-0.175573
C121	C	0.971964	-0.631866	-1.006755
C122	C	1.471964	-0.131866	-0.506755
C123	C	0.969029	-0.636063	-1.080145
C124	C	1.469029	-0.136063	-0.580145
C125	C	1.058941	-0.507313	-1.083782
C126	C	1.558941	-0.007313	-0.583782
C127	C	1.061880	-0.503124	-1.010396
C128	C	1.561880	-0.003124	-0.510396
C129	C	1.018388	-0.565395	-0.971886
C130	C	1.518388	-0.065395	-0.471886
N131	N	0.982572	-0.616698	-0.862486
N132	N	1.482572	-0.116698	-0.362486
N133	N	1.021393	-0.561098	-0.896875
N134	N	1.521393	-0.061098	-0.396875
C135	C	1.009254	-0.578545	-0.196753
C136	C	1.509254	-0.078545	0.303247
C137	C	1.012513	-0.573790	-0.118656
C138	C	1.512513	-0.073790	0.381344
H139	H	0.604532	-0.437283	-0.281865
H140	H	1.104532	0.062717	0.218135
H141	H	1.094348	-0.456614	-1.115144
H142	H	1.594348	0.043386	-0.615144
H143	H	0.909615	-0.721182	-0.644218
H144	H	1.409615	-0.221182	-0.144218
F145	F	0.739894	-0.717141	-0.461544
F146	F	1.239894	-0.217141	0.038456
F147	F	0.588413	-0.707680	-0.455487
F148	F	1.088413	-0.207680	0.044513
F149	F	0.747299	-0.428690	-0.276341
F150	F	1.247299	0.071310	0.223659
F151	F	1.098459	-0.975728	-0.290357
F152	F	1.598459	-0.475728	0.209643
F153	F	0.919613	-0.706811	-1.117259
F154	F	1.419613	-0.206811	-0.617259
H155	H	1.231146	-1.358334	-0.168285
H156	H	1.731146	-0.858334	0.331715
H157	H	0.273369	-0.479088	-0.308725
H158	H	0.773369	0.020912	0.191275
F159	F	0.416123	-0.470493	-0.303205
F160	F	0.916123	0.029507	0.196795
H161	H	0.266861	-0.732600	-0.471495
H162	H	0.766861	-0.232600	0.028505
F163	F	0.905459	-1.201343	-0.468332
F164	F	1.405459	-0.701343	0.031668
F165	F	0.408730	-0.758950	-0.488406
F166	F	0.908730	-0.258950	0.011594
H167	H	1.085995	-1.088054	-0.201017
H168	H	1.585995	-0.588054	0.298983
F169	F	0.925676	-0.698141	-0.965780
F170	F	1.425676	-0.198141	-0.465780
H171	H	1.170879	-1.187984	-0.122844
H172	H	1.670879	-0.687984	0.377156
F173	F	1.214838	-1.452239	-0.298158
F174	F	1.714838	-0.952239	0.201842
H175	H	0.772745	-0.818725	-0.590389
H176	H	1.272745	-0.318725	-0.090389
F177	F	1.118267	-1.338545	-0.387103
F178	F	1.618267	-0.838545	0.112897
H179	H	0.904289	-0.728803	-0.777358
H180	H	1.404289	-0.228803	-0.277358
H181	H	0.917895	-1.089016	-0.557671
H182	H	1.417895	-0.589016	-0.057671
F183	F	0.885673	-0.838505	-0.371589
F184	F	1.385673	-0.338505	0.128411
H185	H	0.833003	-0.989090	-0.635832
H186	H	1.333003	-0.489090	-0.135832
H187	H	0.797391	-0.748290	-0.466787
H188	H	1.297391	-0.248290	0.033213
F189	F	1.084361	-0.470997	-0.642105
F190	F	1.584361	0.029003	-0.142105
F191	F	1.078310	-0.479692	-0.793583
F192	F	1.578310	0.020308	-0.293583
H193	H	1.099685	-0.448997	-0.982007
H194	H	1.599685	0.051003	-0.482007
