data_functionalizedCrystal
_audit_creation_method	'MofGen! by Chris Wilmer'
_symmetry_space_group_name_H-M	'P1'
_symmetry_Int_Tables_number	1
_symmetry_cell_setting	triclinic
loop_
_symmetry_equiv_pos_as_xyz
  x,y,z
_cell_length_a	19.805407
_cell_length_b	19.805405
_cell_length_c	19.805398
_cell_angle_alpha	89.975049
_cell_angle_beta	89.984135
_cell_angle_gamma	90.026726
loop_
_atom_site_label
_atom_site_type_symbol
_atom_site_fract_x
_atom_site_fract_y
_atom_site_fract_z
Zn1	Zn	1.034709	-0.269490	-0.382724
Zn2	Zn	1.034631	-0.382675	-0.269538
Zn3	Zn	0.921531	-0.269505	-0.269549
Zn4	Zn	0.921487	-0.382642	-0.382685
O5	O	0.978090	-0.326078	-0.326124
O6	O	1.129416	-0.284511	-0.367722
O7	O	1.019614	-0.367683	-0.174823
O8	O	0.936596	-0.174787	-0.284583
O9	O	1.129358	-0.367668	-0.284564
O10	O	1.019748	-0.174775	-0.367732
O11	O	0.936520	-0.284538	-0.174831
O12	O	0.826809	-0.284506	-0.284544
O13	O	0.936520	-0.367612	-0.477406
O14	O	0.826776	-0.367627	-0.367665
O15	O	1.019704	-0.284480	-0.477436
O16	O	1.019571	-0.477387	-0.284526
O17	O	0.936444	-0.477363	-0.367654
C18	C	0.802234	-0.326065	-0.326102
C19	C	0.727002	-0.326076	-0.326109
C20	C	0.978013	-0.501934	-0.326099
C21	C	0.978041	-0.577166	-0.326112
C22	C	0.691658	-0.369422	-0.369319
C23	C	0.620970	-0.369424	-0.369329
C24	C	0.585626	-0.326081	-0.326124
C25	C	0.620974	-0.282730	-0.282911
C26	C	0.691662	-0.282726	-0.282906
C27	C	0.335901	-0.282745	-0.282934
C28	C	0.265209	-0.282754	-0.282941
C29	C	0.265209	-0.369443	-0.369357
C30	C	0.335896	-0.369439	-0.369351
C31	C	0.371239	-0.326085	-0.326142
C32	C	0.447887	-0.326083	-0.326133
C33	C	0.508979	-0.326086	-0.326129
C34	C	1.021313	-0.612446	-0.369441
C35	C	1.021337	-0.683135	-0.369454
C36	C	0.978093	-0.718542	-0.326133
C37	C	0.934817	-0.683257	-0.282801
C38	C	0.934790	-0.612570	-0.282792
C39	C	0.934926	-0.968330	-0.282836
C40	C	0.934958	-1.039022	-0.282846
C41	C	1.021473	-1.038895	-0.369497
C42	C	1.021446	-0.968208	-0.369489
C43	C	0.978168	-0.932929	-0.326160
C44	C	0.978141	-0.856281	-0.326147
C45	C	0.978123	-0.795189	-0.326141
C46	C	1.154632	-0.326092	-0.326146
C47	C	1.229864	-0.326097	-0.326156
C48	C	0.978116	-0.326041	-0.502667
C49	C	0.978128	-0.326025	-0.577899
C50	C	0.978186	-0.149535	-0.326163
C51	C	0.978226	-0.074303	-0.326180
C52	C	1.021523	-0.282618	-1.039706
C53	C	1.021512	-0.282638	-0.969018
C54	C	0.978197	-0.325931	-0.933661
C55	C	0.934894	-0.369210	-0.968996
C56	C	0.934909	-0.369192	-1.039683
C57	C	0.934835	-0.369283	-0.683922
C58	C	0.934823	-0.369296	-0.613230
C59	C	1.021439	-0.282730	-0.613257
C60	C	1.021454	-0.282712	-0.683944
C61	C	0.978154	-0.325993	-0.719273
C62	C	0.978166	-0.325971	-0.795922
C63	C	0.978180	-0.325950	-0.857013
C64	C	0.978102	-0.326067	-0.150268
C65	C	0.978222	-0.325892	-0.075036
H66	H	0.720430	-0.404719	-0.404500
H67	H	0.364670	-0.404735	-0.404531
C68	C	0.887176	-0.416923	-0.574335
C69	C	0.916473	-0.470069	-0.525726
C70	C	0.868829	-0.517692	-0.486830
C71	C	0.791887	-0.512170	-0.496543
C72	C	0.762587	-0.459022	-0.545154
C73	C	0.810231	-0.411399	-0.584050
H74	H	0.973433	-0.474158	-0.518533
H75	H	0.890519	-0.557035	-0.450844
H76	H	0.756618	-0.547423	-0.467750
H77	H	0.705627	-0.454933	-0.552346
H78	H	0.788540	-0.372056	-0.620035
H79	H	1.056578	-0.711857	-0.404732
C80	C	0.887382	-1.077972	-0.235194
C81	C	0.916763	-1.126570	-0.182085
C82	C	0.869191	-1.165520	-0.134435
C83	C	0.792238	-1.155871	-0.139895
C84	C	0.762853	-1.107270	-0.193006
C85	C	0.810425	-1.068320	-0.240655
H86	H	0.973732	-1.133715	-0.178042
H87	H	0.890944	-1.201497	-0.095119
H88	H	0.757022	-1.184704	-0.104621
H89	H	0.705884	-1.100125	-0.197049
H90	H	0.788672	-1.032343	-0.279972
C91	C	1.068883	-0.573502	-0.417097
C92	C	1.068858	-0.495749	-0.417090
C93	C	1.116427	-0.456806	-0.464748
C94	C	1.164021	-0.495617	-0.512414
C95	C	1.164048	-0.573375	-0.512422
C96	C	1.116479	-0.612317	-0.464764
H97	H	1.033624	-0.467015	-0.381804
H98	H	1.116407	-0.399245	-0.464742
H99	H	1.199235	-0.466790	-0.547693
H100	H	1.199282	-0.602109	-0.547708
H101	H	1.116499	-0.669878	-0.464770
H102	H	0.899553	-0.583845	-0.247510
H103	H	0.236425	-0.404741	-0.404543
H104	H	0.899577	-0.404524	-0.712678
C105	C	0.887246	-0.416832	-0.930105
C106	C	0.839616	-0.464434	-0.968970
C107	C	0.791964	-0.512056	-0.930081
C108	C	0.791942	-0.512075	-0.852328
C109	C	0.839574	-0.464471	-0.813459
C110	C	0.887225	-0.416849	-0.852348
H111	H	0.839631	-0.464422	-1.026531
H112	H	0.756704	-0.547296	-0.958854
H113	H	0.756668	-0.547328	-0.823540
H114	H	0.839559	-0.464484	-0.755897
H115	H	0.922485	-0.381610	-0.823574
C116	C	0.374780	-0.235069	-0.235399
C117	C	0.423346	-0.264334	-0.182210
C118	C	0.462231	-0.216660	-0.134671
C119	C	0.452551	-0.139721	-0.140322
C120	C	0.403982	-0.110453	-0.193513
C121	C	0.365097	-0.158127	-0.241051
H122	H	0.430514	-0.321292	-0.178025
H123	H	0.498185	-0.238327	-0.095296
H124	H	0.481336	-0.104430	-0.105131
H125	H	0.396814	-0.053495	-0.197698
H126	H	0.329143	-0.136460	-0.280427
H127	H	0.236434	-0.247455	-0.247758
H128	H	0.592196	-0.404721	-0.404515
C129	C	0.887280	-0.416796	-1.078552
C130	C	0.892767	-0.493743	-1.068816
C131	C	0.845142	-0.541352	-1.107686
C132	C	0.792031	-0.512014	-1.156290
C133	C	0.786542	-0.435062	-1.166027
C134	C	0.834167	-0.387453	-1.127158
H135	H	0.932085	-0.515464	-1.032835
H136	H	0.849205	-0.598317	-1.100477
H137	H	0.756776	-0.547257	-1.185063
H138	H	0.747224	-0.413341	-1.202009
H139	H	0.830103	-0.330489	-1.134366
C140	C	1.069172	-0.234995	-1.078596
C141	C	1.116806	-0.187398	-1.039730
C142	C	1.164459	-0.139776	-1.078617
C143	C	1.164478	-0.139752	-1.156370
C144	C	1.116842	-0.187351	-1.195240
C145	C	1.069190	-0.234973	-1.156353
H146	H	1.116793	-0.187415	-0.982168
H147	H	1.199722	-0.104541	-1.049842
H148	H	1.199753	-0.104500	-1.185157
H149	H	1.116855	-0.187335	-1.252802
H150	H	1.033927	-0.270209	-1.185128
C151	C	1.069014	-0.929262	-0.417144
C152	C	1.122156	-0.880637	-0.387863
C153	C	1.169723	-0.841693	-0.435522
C154	C	1.164148	-0.851373	-0.512463
C155	C	1.111004	-0.900001	-0.541749
C156	C	1.063437	-0.938945	-0.494089
H157	H	1.126285	-0.873469	-0.330903
H158	H	1.209063	-0.805696	-0.413842
H159	H	1.199360	-0.822545	-0.547743
H160	H	1.106875	-0.907169	-0.598709
H161	H	1.024096	-0.974942	-0.515769
C162	C	0.887326	-0.929534	-0.235167
C163	C	0.892910	-0.939298	-0.158229
C164	C	0.845308	-0.900501	-0.110556
C165	C	0.792121	-0.851939	-0.139819
C166	C	0.786534	-0.842172	-0.216761
C167	C	0.834136	-0.880970	-0.264434
H168	H	0.932285	-0.975249	-0.136563
H169	H	0.849444	-0.907731	-0.053598
H170	H	0.756883	-0.823219	-0.104528
H171	H	0.747160	-0.806222	-0.238427
H172	H	0.830000	-0.873739	-0.321392
C173	C	1.069075	-1.077704	-0.417168
C174	C	1.122251	-1.126274	-0.387896
C175	C	1.169852	-1.165080	-0.435563
C176	C	1.164278	-1.155317	-0.512502
C177	C	1.111100	-1.106745	-0.541777
C178	C	1.063498	-1.067938	-0.494110
H179	H	1.126379	-1.133503	-0.330938
H180	H	1.209218	-1.201036	-0.413891
H181	H	1.199515	-1.184044	-0.547788
H182	H	1.106971	-1.099516	-0.598735
H183	H	1.024132	-1.031982	-0.515782
H184	H	0.899604	-0.712091	-0.247531
H185	H	1.056774	-0.247402	-0.940255
H186	H	0.592192	-0.247437	-0.247736
C187	C	1.069101	-0.235090	-0.722836
C188	C	1.116735	-0.187490	-0.683974
C189	C	1.164385	-0.139869	-0.722865
C190	C	1.164401	-0.139847	-0.800619
C191	C	1.116765	-0.187449	-0.839485
C192	C	1.069115	-0.235070	-0.800594
H193	H	1.116725	-0.187504	-0.626413
H194	H	1.199649	-0.104631	-0.694093
H195	H	1.199675	-0.104595	-0.829408
H196	H	1.116775	-0.187435	-0.897046
H197	H	1.033852	-0.270308	-0.829366
H198	H	1.056698	-0.247490	-0.584484
H199	H	0.720437	-0.247425	-0.247723
