data_functionalizedCrystal
_audit_creation_method	'MofGen! by Chris Wilmer'
_symmetry_space_group_name_H-M	'P1'
_symmetry_Int_Tables_number	1
_symmetry_cell_setting	triclinic
loop_
_symmetry_equiv_pos_as_xyz
  x,y,z
_cell_length_a	18.101398
_cell_length_b	18.101397
_cell_length_c	12.827885
_cell_angle_alpha	90.036582
_cell_angle_beta	90.026581
_cell_angle_gamma	90.015732
loop_
_atom_site_label
_atom_site_type_symbol
_atom_site_fract_x
_atom_site_fract_y
_atom_site_fract_z
Zn1	Zn	1.132192	-0.294887	0.591003
Zn2	Zn	1.632192	0.205113	1.091003
Zn3	Zn	1.132106	-0.418746	0.416243
Zn4	Zn	1.632106	0.081254	0.916243
Zn5	Zn	1.008346	-0.294913	0.416254
Zn6	Zn	1.508346	0.205087	0.916254
Zn7	Zn	1.008325	-0.418681	0.590920
Zn8	Zn	1.508325	0.081319	1.090920
O9	O	1.070242	-0.356807	0.503605
O10	O	1.570242	0.143193	1.003605
O11	O	1.235814	-0.311334	0.567850
O12	O	1.735814	0.188666	1.067850
O13	O	1.115662	-0.402358	0.270008
O14	O	1.615662	0.097642	0.770008
O15	O	1.024820	-0.191277	0.439475
O16	O	1.524820	0.308723	0.939475
O17	O	1.235751	-0.402333	0.439455
O18	O	1.735751	0.097667	0.939455
O19	O	1.115809	-0.191258	0.567862
O20	O	1.615809	0.308742	1.067862
O21	O	1.024736	-0.311378	0.270017
O22	O	1.524736	0.188622	0.770017
O23	O	0.904711	-0.311315	0.439395
O24	O	1.404711	0.188685	0.939395
O25	O	1.024783	-0.402221	0.737167
O26	O	1.524783	0.097779	1.237167
O27	O	0.904695	-0.402247	0.567721
O28	O	1.404695	0.097753	1.067721
O29	O	1.115788	-0.311271	0.737228
O30	O	1.615788	0.188729	1.237228
O31	O	1.115641	-0.522371	0.439374
O32	O	1.615641	-0.022371	0.939374
O33	O	1.024700	-0.522323	0.567709
O34	O	1.524700	-0.022323	1.067709
C35	C	0.877832	-0.356777	0.503551
C36	C	1.377832	0.143223	1.003551
C37	C	0.795518	-0.356782	0.503552
C38	C	1.295518	0.143218	1.003552
C39	C	0.496427	-0.356828	0.503640
C40	C	0.996427	0.143172	1.003640
C41	C	0.527737	-0.299330	0.423294
C42	C	1.027737	0.200670	0.923294
C43	C	0.613355	-0.299484	0.422951
C44	C	1.113355	0.200516	0.922951
C45	C	0.644809	-0.356805	0.503596
C46	C	1.144809	0.143195	1.003596
C47	C	0.613705	-0.434818	0.473500
C48	C	1.113705	0.065182	0.973500
C49	C	0.528060	-0.434499	0.472942
C50	C	1.028060	0.065501	0.972942
C51	C	0.528041	-0.336990	0.614270
C52	C	1.028041	0.163010	1.114270
C53	C	0.613691	-0.335253	0.613667
C54	C	1.113691	0.164747	1.113667
C55	C	0.728669	-0.356796	0.503573
C56	C	1.228669	0.143204	1.003573
C57	C	0.412567	-0.356842	0.503660
C58	C	0.912567	0.143158	1.003660
C59	C	1.070179	-0.549218	0.503554
C60	C	1.570179	-0.049218	1.003554
C61	C	1.070220	-0.631532	0.503568
C62	C	1.570220	-0.131532	1.003568
C63	C	1.070314	-0.930623	0.503663
C64	C	1.570314	-0.430623	1.003663
C65	C	1.127373	-0.899297	0.422702
C66	C	1.627373	-0.399297	0.922702
C67	C	1.127570	-0.813678	0.422912
C68	C	1.627570	-0.313678	0.922912
C69	C	1.070267	-0.782240	0.503615
C70	C	1.570267	-0.282240	1.003615
C71	C	1.091426	-0.813241	0.613769
C72	C	1.591426	-0.313241	1.113769
C73	C	1.091868	-0.898886	0.613328
C74	C	1.591868	-0.398886	1.113328
C75	C	0.991945	-0.899127	0.475424
C76	C	1.491945	-0.399127	0.975424
C77	C	0.992332	-0.813478	0.472965
C78	C	1.492332	-0.313478	0.972965
C79	C	1.070240	-0.698381	0.503594
C80	C	1.570240	-0.198381	1.003594
C81	C	1.070344	-1.014482	0.503691
C82	C	1.570344	-0.514482	1.003691
C83	C	1.263404	-0.356838	0.503660
C84	C	1.763404	0.143162	1.003660
C85	C	1.345718	-0.356851	0.503684
C86	C	1.845718	0.143149	1.003684
C87	C	1.070293	-0.356736	0.776175
C88	C	1.570293	0.143264	1.276175
C89	C	1.070314	-0.356706	0.892329
C90	C	1.570314	0.143294	1.392329
C91	C	1.070326	-0.163645	0.503679
C92	C	1.570326	0.336355	1.003679
C93	C	1.070362	-0.081331	0.503710
C94	C	1.570362	0.418669	1.003710
C95	C	1.070235	-0.356824	0.232095
C96	C	1.570235	0.143176	0.732095
C97	C	1.070357	-0.356646	0.115943
C98	C	1.570357	0.143354	0.615943
C99	C	1.115351	-0.311691	0.944143
C100	C	1.615351	0.188309	1.444143
C101	C	1.115375	-0.311659	1.064194
C102	C	1.615375	0.188341	1.564194
H103	H	0.507157	-0.241303	0.441952
H104	H	1.007157	0.258697	0.941952
O105	O	1.019254	-0.407722	0.951281
O106	O	1.519254	0.092278	1.451281
H107	H	1.052421	-0.445365	1.001001
H108	H	1.552421	0.054635	1.501001
H109	H	1.148070	-0.791736	0.638093
H110	H	1.648070	-0.291736	1.138093
O111	O	1.110498	-0.927235	0.314344
O112	O	1.610498	-0.427235	0.814344
H113	H	1.061205	-0.963668	0.317008
H114	H	1.561205	-0.463668	0.817008
O115	O	0.501219	-0.392454	0.693579
O116	O	1.001219	0.107546	1.193579
H117	H	0.465545	-0.433951	0.654461
H118	H	0.965545	0.066049	1.154461
O119	O	0.641222	-0.222852	0.447905
O120	O	1.141222	0.277148	0.947905
H121	H	0.593526	-0.185348	0.460325
H122	H	1.093526	0.314652	0.960325
H123	H	0.972696	-0.920792	0.396492
H124	H	1.472696	-0.420792	0.896492
O125	O	1.019259	-0.407687	1.056943
O126	O	1.519259	0.092313	1.556943
H127	H	1.031915	-0.465824	1.077803
H128	H	1.531915	0.034176	1.577803
H129	H	0.976377	-0.793224	0.391900
H130	H	1.476377	-0.293224	0.891900
O131	O	1.166404	-0.260671	0.885184
O132	O	1.666404	0.239329	1.385184
H133	H	1.199394	-0.227688	0.941401
H134	H	1.699394	0.272312	1.441401
O135	O	0.499205	-0.316522	0.315338
O136	O	0.999205	0.183478	0.815338
H137	H	0.437953	-0.313693	0.315253
H138	H	0.937953	0.186307	0.815253
O139	O	0.500621	-0.493172	0.547066
O140	O	1.000621	0.006828	1.047066
H141	H	0.439303	-0.493380	0.547227
H142	H	0.939303	0.006620	1.047227
H143	H	0.947532	-0.792085	0.527614
H144	H	1.447532	-0.292085	1.027614
H145	H	1.114332	-0.792721	0.341234
H146	H	1.614332	-0.292721	0.841234
O147	O	1.166453	-0.260610	1.123213
O148	O	1.666453	0.239390	1.623213
H149	H	1.199430	-0.227666	1.067037
H150	H	1.699430	0.272334	1.567037
H151	H	0.635121	-0.451932	0.393497
H152	H	1.135121	0.048068	0.893497
H153	H	1.051139	-0.792874	0.675714
H154	H	1.551139	-0.292874	1.175714
O155	O	0.640687	-0.493093	0.548583
O156	O	1.140687	0.006907	1.048583
H157	H	0.701953	-0.495192	0.546624
H158	H	1.201953	0.004808	1.046624
O159	O	0.640443	-0.316829	0.314352
O160	O	1.140443	0.183171	0.814352
H161	H	0.619664	-0.371967	0.290316
H162	H	1.119664	0.128033	0.790316
O163	O	0.501543	-0.456770	0.365811
O164	O	1.001543	0.043230	0.865811
H165	H	0.549891	-0.467664	0.314889
H166	H	1.049891	0.032336	0.814889
O167	O	0.499464	-0.262945	0.650521
O168	O	0.999464	0.237055	1.150521
H169	H	0.462405	-0.239455	0.590083
H170	H	0.962405	0.260545	1.090083
H171	H	1.185107	-0.920768	0.441172
H172	H	1.685107	-0.420768	0.941172
H173	H	0.634025	-0.277844	0.636360
H174	H	1.134025	0.222156	1.136360
O175	O	0.642027	-0.386697	0.697217
O176	O	1.142027	0.113303	1.197217
H177	H	0.678895	-0.428617	0.661434
H178	H	1.178895	0.071383	1.161434
H179	H	1.185622	-0.793138	0.441597
H180	H	1.685622	-0.293138	0.941597
H181	H	1.149153	-0.918808	0.637248
H182	H	1.649153	-0.418808	1.137248
H183	H	1.052130	-0.919605	0.675730
H184	H	1.552130	-0.419605	1.175730
H185	H	0.949432	-0.919385	0.534391
H186	H	1.449432	-0.419385	1.034391
