data_functionalizedCrystal
_audit_creation_method	'MofGen! by Chris Wilmer'
_symmetry_space_group_name_H-M	'P1'
_symmetry_Int_Tables_number	1
_symmetry_cell_setting	triclinic
loop_
_symmetry_equiv_pos_as_xyz
  x,y,z
_cell_length_a	10.686220
_cell_length_b	18.050589
_cell_length_c	10.686551
_cell_angle_alpha	94.403861
_cell_angle_beta	89.691918
_cell_angle_gamma	94.409750
loop_
_atom_site_label
_atom_site_type_symbol
_atom_site_fract_x
_atom_site_fract_y
_atom_site_fract_z
Zn1	Zn	1.972217	-0.181059	0.562396
Zn2	Zn	1.955936	-0.315479	0.352644
Zn3	Zn	1.746328	-0.200057	0.368714
Zn4	Zn	1.762366	-0.313974	0.578422
O5	O	1.859212	-0.252642	0.465544
O6	O	2.145602	-0.191569	0.521139
O7	O	1.914605	-0.308749	0.179231
O8	O	1.776395	-0.093607	0.394425
O9	O	2.133640	-0.290327	0.367036
O10	O	1.942354	-0.079649	0.536722
O11	O	1.760607	-0.223949	0.191038
O12	O	1.572911	-0.222489	0.409965
O13	O	1.803729	-0.287762	0.751841
O14	O	1.584694	-0.306184	0.564036
O15	O	1.957906	-0.190110	0.740067
O16	O	1.930156	-0.419209	0.382576
O17	O	1.787942	-0.418104	0.548454
C18	C	1.533286	-0.266235	0.490484
C19	C	1.393856	-0.272067	0.501183
C20	C	1.859059	-0.445602	0.465535
C21	C	1.859111	-0.528144	0.465564
C22	C	1.781855	-0.727018	0.555733
C23	C	1.742482	-0.783311	0.443604
C24	C	1.859236	-0.679268	0.465571
C25	C	1.898671	-0.770054	0.577708
C26	C	1.859354	-0.825247	0.465588
C27	C	1.819798	-0.734480	0.353387
C28	C	1.976046	-0.721212	0.487563
C29	C	1.936711	-0.777484	0.375352
C30	C	1.859164	-0.595174	0.465563
C31	C	1.859425	-0.909341	0.465583
C32	C	2.186411	-0.238997	0.440508
C33	C	2.325843	-0.233182	0.429838
C34	C	1.884423	-0.236649	0.792743
C35	C	1.895166	-0.229833	0.932176
C36	C	1.859402	-0.058926	0.465578
C37	C	1.859483	0.023624	0.465593
C38	C	1.834171	-0.268517	0.139612
C39	C	1.823671	-0.275113	0.000161
H40	H	1.345409	-0.309826	0.570447
O41	O	1.978178	-0.177435	0.989923
C42	C	2.194659	-0.130505	1.013874
C43	C	2.100793	-0.189898	0.948409
H44	H	2.293812	-0.140551	0.980316
H45	H	2.188971	-0.134169	1.119804
H46	H	2.170665	-0.072785	0.989901
H47	H	2.124725	-0.247645	0.972281
H48	H	2.106500	-0.186168	0.842496
O49	O	1.383825	-0.188150	0.347307
C50	C	1.580325	-0.141140	0.260947
C51	C	1.514814	-0.192153	0.354487
H52	H	1.686238	-0.144371	0.266702
H53	H	1.556479	-0.081232	0.285088
H54	H	1.546737	-0.160092	0.161727
H55	H	1.548366	-0.173268	0.453740
H56	H	1.538658	-0.252051	0.330239
O57	O	2.014821	-0.803866	0.284402
C58	C	2.103258	-0.911690	0.182840
C59	C	2.014794	-0.881907	0.285911
H60	H	2.103244	-0.974791	0.184008
H61	H	2.202474	-0.885192	0.200753
H62	H	2.069475	-0.897135	0.087385
H63	H	2.048462	-0.896454	0.381408
H64	H	1.915594	-0.908403	0.267888
H65	H	1.786378	-0.718720	0.258543
H66	H	1.716305	-0.704886	0.631887
H67	H	1.754245	-0.319095	0.951696
H68	H	2.074755	-0.694126	0.506203
O69	O	1.624637	-0.815568	0.421620
C70	C	1.409768	-0.826375	0.491718
C71	C	1.543174	-0.789809	0.516770
H72	H	1.343863	-0.805551	0.568616
H73	H	1.411047	-0.889497	0.491089
H74	H	1.375615	-0.811106	0.396836
H75	H	1.577409	-0.805020	0.611652
H76	H	1.541819	-0.726695	0.517318
H77	H	1.931977	-0.785908	0.672534
