data_functionalizedCrystal
_audit_creation_method	'MofGen! by Chris Wilmer'
_symmetry_space_group_name_H-M	'P1'
_symmetry_Int_Tables_number	1
_symmetry_cell_setting	triclinic
loop_
_symmetry_equiv_pos_as_xyz
  x,y,z
_cell_length_a	14.853566
_cell_length_b	23.532407
_cell_length_c	13.930277
_cell_angle_alpha	89.990782
_cell_angle_beta	89.995631
_cell_angle_gamma	83.241546
loop_
_atom_site_label
_atom_site_type_symbol
_atom_site_fract_x
_atom_site_fract_y
_atom_site_fract_z
O1	O	1.195556	0.074349	-0.079778
O2	O	0.932999	0.083207	-0.079795
O3	O	1.072195	-0.004119	-0.079768
O4	O	1.056360	0.161675	-0.079804
O5	O	1.072176	-0.004121	0.079894
O6	O	0.932980	0.083205	0.079867
O7	O	1.195537	0.074347	0.079884
Zn8	Zn	1.064255	0.078776	0.105225
Zn9	Zn	1.064281	0.078779	-0.105136
O10	O	1.056341	0.161674	0.079858
C11	C	0.899405	0.082805	0.000034
C12	C	0.799335	0.081603	0.000029
C13	C	0.376216	0.076518	-0.086985
C14	C	0.376216	0.076517	0.087084
C15	C	0.470238	0.077646	0.087081
C16	C	0.517253	0.078212	0.000044
C17	C	0.470246	0.077649	-0.086991
C18	C	0.517251	0.078214	0.174114
C19	C	0.611278	0.079344	0.174114
C20	C	0.658296	0.079906	0.087076
C21	C	0.611283	0.079343	0.000038
C22	C	0.658298	0.079909	-0.087000
C23	C	0.611288	0.079341	-0.174039
C24	C	0.517263	0.078211	-0.174030
C25	C	0.752320	0.081036	0.087066
C26	C	0.752328	0.081040	-0.087006
C27	C	1.071782	-0.025338	0.000065
C28	C	1.070570	-0.088560	0.000073
C29	C	1.145339	-0.487337	0.000025
C30	C	1.144213	-0.546742	0.000017
O31	O	1.213524	-0.583184	-0.000013
N32	N	1.061461	-0.569729	0.000013
C33	C	0.979830	-0.533308	0.000006
O34	O	0.909340	-0.558315	0.000000
C35	C	0.980957	-0.473904	0.000006
C36	C	1.063714	-0.450920	0.000021
C37	C	1.228089	-0.464353	0.000038
C38	C	1.229215	-0.404952	0.000047
C39	C	1.147591	-0.368535	0.000043
C40	C	1.064840	-0.391519	0.000030
C41	C	0.899327	-0.437483	-0.000008
C42	C	0.900462	-0.378076	-0.000008
C43	C	0.983219	-0.355092	0.000006
C44	C	0.984341	-0.295701	0.000035
N45	N	1.067093	-0.272714	0.000039
C46	C	1.148718	-0.309131	0.000044
C47	C	0.977469	-0.658060	0.000003
C48	C	0.976341	-0.717463	0.000009
C49	C	1.140724	-0.730894	0.000019
C50	C	1.141851	-0.671490	0.000020
C51	C	1.060221	-0.635073	0.000008
C52	C	1.151076	-0.184384	0.000064
C53	C	1.152194	-0.124977	0.000077
C54	C	0.987812	-0.111552	0.000062
C55	C	0.986693	-0.170953	0.000054
C56	C	1.068332	-0.207369	0.000051
O57	O	0.915066	-0.259224	0.000062
O58	O	1.219196	-0.284115	0.000037
C59	C	1.229131	0.074750	0.000053
C60	C	1.329201	0.075952	0.000053
C61	C	1.056754	0.182892	0.000022
C62	C	1.057966	0.246115	0.000009
N63	N	1.064245	0.078774	0.248792
N64	N	1.064299	0.078776	-0.248702
C65	C	1.002643	0.117431	0.701049
C66	C	1.125944	0.040121	0.701042
C67	C	1.125933	0.040120	0.600546
C68	C	1.064277	0.078775	0.550297
C69	C	1.002632	0.117432	0.600544
C70	C	1.187583	0.001467	0.550292
C71	C	1.187576	0.001464	0.449790
C72	C	1.125915	0.040117	0.399539
C73	C	1.064266	0.078775	0.449792
C74	C	1.002610	0.117431	0.399543
C75	C	0.940957	0.156087	0.449794
C76	C	0.940971	0.156085	0.550293
C77	C	1.125901	0.040119	0.299041
C78	C	1.002599	0.117431	0.299038
H79	H	0.790601	0.081499	-0.157884
H80	H	1.294562	-0.493998	0.000038
H81	H	1.176146	0.008652	0.741958
H82	H	1.209239	-0.652781	0.000031
H83	H	0.908952	-0.736171	0.000014
H84	H	1.237786	-0.030002	0.591208
H85	H	0.478964	0.077757	0.244975
H86	H	0.952443	0.148903	0.741966
H87	H	1.237776	-0.030012	0.408882
H88	H	0.649579	0.079806	-0.244905
H89	H	0.831938	-0.456186	-0.000025
H90	H	0.890776	0.187558	0.591214
H91	H	0.649546	0.079805	0.244987
H92	H	0.337931	0.076059	0.157946
H93	H	0.478980	0.077749	-0.244892
H94	H	1.176102	0.008648	0.258131
H95	H	0.337937	0.076054	-0.157850
H96	H	1.207187	-0.760555	0.000019
H97	H	0.910992	-0.628413	0.000001
H98	H	0.833987	-0.348428	-0.000019
H99	H	1.219588	-0.106267	0.000091
H100	H	1.217555	-0.214027	0.000058
H101	H	0.790590	0.081504	0.157932
H102	H	1.296604	-0.386244	0.000055
H103	H	0.919305	-0.189667	0.000069
H104	H	0.921355	-0.081891	0.000062
H105	H	0.890760	0.187563	0.408870
H106	H	0.952388	0.148907	0.258132
