data_functionalizedCrystal
_audit_creation_method	'MofGen! by Chris Wilmer'
_symmetry_space_group_name_H-M	'P1'
_symmetry_Int_Tables_number	1
_symmetry_cell_setting	triclinic
loop_
_symmetry_equiv_pos_as_xyz
  x,y,z
_cell_length_a	25.639243
_cell_length_b	25.639239
_cell_length_c	12.827885
_cell_angle_alpha	89.963827
_cell_angle_beta	89.976183
_cell_angle_gamma	90.041410
loop_
_atom_site_label
_atom_site_type_symbol
_atom_site_fract_x
_atom_site_fract_y
_atom_site_fract_z
Zn1	Zn	0.799266	-0.208086	-0.590930
Zn2	Zn	0.799177	-0.295532	-0.416172
Zn3	Zn	0.711830	-0.208116	-0.416190
Zn4	Zn	0.711787	-0.295497	-0.590858
O5	O	0.755515	-0.251808	-0.503538
O6	O	0.872419	-0.219688	-0.567771
O7	O	0.787571	-0.283963	-0.269938
O8	O	0.723484	-0.134947	-0.439408
O9	O	0.872354	-0.283934	-0.439377
O10	O	0.787722	-0.134925	-0.567789
O11	O	0.723398	-0.219739	-0.269952
O12	O	0.638659	-0.219706	-0.439338
O13	O	0.723410	-0.283875	-0.737104
O14	O	0.638628	-0.283904	-0.567665
O15	O	0.787681	-0.219654	-0.737157
O16	O	0.787530	-0.368692	-0.439306
O17	O	0.723325	-0.368667	-0.567647
C18	C	0.619672	-0.251804	-0.503496
C19	C	0.561558	-0.251815	-0.503503
C20	C	0.201224	-0.218408	-0.570504
C21	C	0.146619	-0.218407	-0.570510
O22	O	0.118407	-0.189993	-0.627425
N23	N	0.119276	-0.251806	-0.503566
C24	C	0.146540	-0.285204	-0.436604
O25	O	0.118268	-0.313613	-0.379662
C26	C	0.201143	-0.285202	-0.436593
C27	C	0.228484	-0.251804	-0.503549
C28	C	0.228564	-0.185012	-0.637454
C29	C	0.283165	-0.185014	-0.637448
C30	C	0.310425	-0.218410	-0.570493
C31	C	0.283084	-0.251805	-0.503543
C32	C	0.228406	-0.318597	-0.369626
C33	C	0.283013	-0.318591	-0.369620
C34	C	0.310353	-0.285193	-0.436576
C35	C	0.364945	-0.285203	-0.436583
N36	N	0.392288	-0.251804	-0.503527
C37	C	0.365028	-0.218408	-0.570482
C38	C	0.031869	-0.285207	-0.436631
C39	C	-0.022733	-0.285212	-0.436646
C40	C	-0.022650	-0.218414	-0.570552
C41	C	0.031953	-0.218412	-0.570541
C42	C	0.059212	-0.251807	-0.503575
C43	C	0.479693	-0.218413	-0.570467
C44	C	0.534298	-0.218419	-0.570458
C45	C	0.534210	-0.285215	-0.436549
C46	C	0.479610	-0.285211	-0.436561
C47	C	0.452352	-0.251806	-0.503523
O48	O	0.393192	-0.313602	-0.379694
O49	O	0.393306	-0.189999	-0.627404
C50	C	0.755427	-0.387651	-0.503490
C51	C	0.755437	-0.445765	-0.503504
C52	C	0.789034	-0.806128	-0.436824
C53	C	0.789054	-0.860733	-0.436838
O54	O	0.817528	-0.888970	-0.380092
N55	N	0.755607	-0.888047	-0.503607
C56	C	0.722141	-0.860754	-0.570373
O57	O	0.693694	-0.889001	-0.627167
C58	C	0.722124	-0.806151	-0.570364
C59	C	0.755569	-0.778839	-0.503583
C60	C	0.822477	-0.778817	-0.370050
C61	C	0.822456	-0.724216	-0.370035
C62	C	0.788992	-0.696927	-0.436794
C63	C	0.755548	-0.724239	-0.503568
C64	C	0.688661	-0.778859	-0.637135
C65	C	0.688647	-0.724252	-0.637120
C66	C	0.722092	-0.696940	-0.570340
C67	C	0.722063	-0.642349	-0.570312
N68	N	0.755510	-0.615035	-0.503544
C69	C	0.788974	-0.642324	-0.436785
C70	C	0.722180	-0.975425	-0.570389
C71	C	0.722195	-1.030027	-0.570394
C72	C	0.789109	-1.030002	-0.436860
C73	C	0.789091	-0.975398	-0.436851
C74	C	0.755628	-0.948110	-0.503621
C75	C	0.788927	-0.527659	-0.436757
C76	C	0.788902	-0.473054	-0.436745
C77	C	0.721990	-0.473084	-0.570282
C78	C	0.722013	-0.527684	-0.570291
C79	C	0.755486	-0.554970	-0.503525
O80	O	0.693605	-0.614077	-0.627033
O81	O	0.817422	-0.614070	-0.380010
C82	C	0.891888	-0.251812	-0.503580
C83	C	0.950002	-0.251814	-0.503598
C84	C	0.755551	-0.251757	-0.776108
C85	C	0.755566	-0.251736	-0.892261
C86	C	0.755617	-0.115435	-0.503608
C87	C	0.755661	-0.057321	-0.503639
C88	C	0.787324	-0.283503	-0.944039
C89	C	0.787341	-0.283481	-1.064090
C90	C	0.755510	-0.251821	-0.232028
C91	C	0.755596	-0.251695	-0.115875
H92	H	0.206375	-0.157814	-0.691977
C93	C	0.651876	-1.091498	-0.584802
C94	C	0.685426	-1.060044	-0.643793
H95	H	0.629176	-1.110025	-0.630122
H96	H	0.671807	-1.115567	-0.545060
H97	H	0.631884	-1.070231	-0.539227
H98	H	0.705420	-1.081311	-0.689363
H99	H	0.665492	-1.035972	-0.683553
C100	C	-0.106468	-0.314884	-0.377196
C101	C	-0.052783	-0.321930	-0.363059
H102	H	-0.125017	-0.337555	-0.331767
H103	H	-0.115395	-0.279751	-0.362022
H104	H	-0.115402	-0.322577	-0.447386
H105	H	-0.043848	-0.314233	-0.292871
H106	H	-0.043853	-0.357071	-0.378226
H107	H	0.728390	-0.224521	-0.936809
C108	C	0.852147	-0.640507	-0.310704
C109	C	0.859224	-0.694200	-0.296634
H110	H	0.874846	-0.621980	-0.265383
H111	H	0.859777	-0.631525	-0.380921
H112	H	0.817019	-0.631604	-0.295333
H113	H	0.894351	-0.703104	-0.312012
H114	H	0.851597	-0.703186	-0.226401
C115	C	0.418354	-0.148079	-0.585277
C116	C	0.449738	-0.181696	-0.644077
H117	H	0.399864	-0.125413	-0.630727
H118	H	0.394252	-0.167965	-0.545421
H119	H	0.439663	-0.128055	-0.539817
H120	H	0.428428	-0.201723	-0.689532
H121	H	0.473843	-0.161809	-0.683951
H122	H	0.054211	-0.191215	-0.625060
H123	H	0.728403	-0.224498	-1.071354
C124	C	0.551163	-0.193049	-0.747509
C125	C	0.564349	-0.181704	-0.644060
H126	H	0.569712	-0.170381	-0.792942
H127	H	0.560094	-0.228183	-0.762669
H128	H	0.514740	-0.188270	-0.757076
H129	H	0.600772	-0.186487	-0.634491
H130	H	0.555422	-0.146562	-0.628894
H131	H	0.694781	-0.549922	-0.624673
H132	H	0.694742	-0.450856	-0.624634
H133	H	-0.044855	-0.191220	-0.625068
C134	C	0.888607	-0.773293	-0.238049
C135	C	0.859262	-0.808807	-0.296653
H136	H	0.911314	-0.791806	-0.192725
H137	H	0.908587	-0.751962	-0.283619
H138	H	0.865821	-0.752031	-0.198045
H139	H	0.882049	-0.830066	-0.336663
H140	H	0.839282	-0.830146	-0.251078
C141	C	0.855232	-0.980871	-0.304860
C142	C	0.825859	-0.945380	-0.363451
H143	H	0.877934	-0.962340	-0.259550
H144	H	0.832467	-1.002203	-0.264852
H145	H	0.875222	-1.002133	-0.350447
H146	H	0.805865	-0.924121	-0.317865
H147	H	0.848626	-0.924039	-0.403463
H148	H	0.305421	-0.157817	-0.691969
C149	C	0.812701	-0.372028	-0.910188
C150	C	0.824013	-0.320244	-0.883912
H151	H	0.835354	-0.394711	-0.873073
H152	H	0.777559	-0.379667	-0.892335
H153	H	0.817529	-0.376828	-0.982978
H154	H	0.819182	-0.315443	-0.811123
H155	H	0.859164	-0.312602	-0.901758
H156	H	0.054060	-0.312406	-0.382102
C157	C	0.233831	-0.384607	-0.237243
C158	C	0.198363	-0.355304	-0.296013
H159	H	0.215284	-0.407266	-0.191789
H160	H	0.255121	-0.404634	-0.282698
H161	H	0.255138	-0.361791	-0.197370
H162	H	0.177058	-0.378120	-0.335893
H163	H	0.177064	-0.335275	-0.250552
H164	H	0.816359	-1.052230	-0.382505
H165	H	0.694926	-0.953209	-0.624758
H166	H	0.305204	-0.345786	-0.315085
H167	H	0.457348	-0.312412	-0.382052
C168	C	0.622532	-0.773376	-0.769144
C169	C	0.651899	-0.808870	-0.710551
H170	H	0.599838	-0.791904	-0.814475
H171	H	0.602537	-0.752120	-0.723568
H172	H	0.645304	-0.752037	-0.809139
H173	H	0.629126	-0.830206	-0.670549
H174	H	0.671895	-0.830134	-0.756132
H175	H	0.556415	-0.312406	-0.382038
C176	C	0.855049	-0.478522	-0.304754
C177	C	0.825670	-0.443034	-0.363339
H178	H	0.877749	-0.459989	-0.259444
H179	H	0.832287	-0.499858	-0.264745
H180	H	0.875041	-0.499781	-0.350344
H181	H	0.805675	-0.421777	-0.317750
H182	H	0.848434	-0.421689	-0.403351
C183	C	0.681323	-0.662805	-0.777672
C184	C	0.651862	-0.694257	-0.710517
H185	H	0.658613	-0.644291	-0.822985
H186	H	0.701232	-0.638725	-0.737901
H187	H	0.704100	-0.684073	-0.817686
H188	H	0.629087	-0.672989	-0.670497
H189	H	0.631945	-0.718340	-0.750292
C190	C	0.857629	-0.290666	-1.186966
C191	C	0.824052	-0.320197	-1.124187
H192	H	0.880296	-0.313334	-1.224062
H193	H	0.837715	-0.270729	-1.235015
H194	H	0.877654	-0.267913	-1.144391
H195	H	0.804024	-0.342947	-1.166762
H196	H	0.843969	-0.340143	-1.076132
H197	H	0.816185	-0.549869	-0.382392
