data_functionalizedCrystal
_audit_creation_method	'MofGen! by Chris Wilmer'
_symmetry_space_group_name_H-M	'P1'
_symmetry_Int_Tables_number	1
_symmetry_cell_setting	triclinic
loop_
_symmetry_equiv_pos_as_xyz
  x,y,z
_cell_length_a	19.188900
_cell_length_b	18.266242
_cell_length_c	17.038272
_cell_angle_alpha	89.993727
_cell_angle_beta	87.122023
_cell_angle_gamma	89.982578
loop_
_atom_site_label
_atom_site_type_symbol
_atom_site_fract_x
_atom_site_fract_y
_atom_site_fract_z
O1	O	-0.932219	0.061025	-0.097480
O2	O	-0.432219	0.561025	0.402520
O3	O	-0.729722	0.060995	-0.110641
O4	O	-0.229722	0.560995	0.389359
O5	O	-0.829767	0.061004	0.009751
O6	O	-0.329767	0.561004	0.509751
O7	O	-0.832174	0.061016	-0.217872
O8	O	-0.332174	0.561016	0.282128
O9	O	-0.829748	-0.060758	0.009757
O10	O	-0.329748	0.439242	0.509757
O11	O	-0.729704	-0.060767	-0.110635
O12	O	-0.229704	0.439233	0.389365
O13	O	-0.932200	-0.060737	-0.097473
O14	O	-0.432200	0.439263	0.402527
Zn15	Zn	-0.830949	-0.080084	-0.104053
Zn16	Zn	-0.330949	0.419916	0.395947
Zn17	Zn	-0.830973	0.080342	-0.104062
Zn18	Zn	-0.330973	0.580342	0.395938
O19	O	-0.832155	-0.060746	-0.217866
O20	O	-0.332155	0.439254	0.282134
C21	C	-0.703675	0.000110	-0.110216
C22	C	-0.203675	0.500110	0.389784
C23	C	-0.626091	0.000099	-0.108948
C24	C	-0.126091	0.500099	0.391052
N25	N	-0.830937	-0.189571	-0.104047
N26	N	-0.330937	0.310429	0.395953
C27	C	-0.589671	0.066472	-0.108343
C28	C	-0.089671	0.566472	0.391657
C29	C	-0.516773	0.066480	-0.107143
C30	C	-0.016773	0.566480	0.392857
C31	C	-0.480298	0.000110	-0.106533
C32	C	0.019702	0.500110	0.393467
C33	C	-0.516726	-0.066272	-0.107143
C34	C	-0.016726	0.433728	0.392857
C35	C	-0.589623	-0.066278	-0.108351
C36	C	-0.089623	0.433722	0.391649
N37	N	-0.368388	-0.049287	-0.060150
N38	N	0.131612	0.450713	0.439850
N39	N	-0.299140	-0.049278	-0.059002
N40	N	0.200860	0.450722	0.440998
C41	C	-0.260665	0.000122	-0.102896
C42	C	0.239335	0.500122	0.397104
N43	N	-0.294055	0.049523	-0.147973
N44	N	0.205945	0.549523	0.352027
N45	N	-0.363310	0.049516	-0.149118
N46	N	0.136690	0.549516	0.350882
C47	C	-0.401254	0.000108	-0.105224
C48	C	0.098746	0.500108	0.394776
C49	C	-0.145200	0.066508	-0.100990
C50	C	0.354800	0.566508	0.399010
C51	C	-0.072300	0.066513	-0.099795
C52	C	0.427700	0.566513	0.400205
C53	C	-0.072255	-0.066241	-0.099788
C54	C	0.427745	0.433759	0.400212
C55	C	-0.145153	-0.066244	-0.100991
C56	C	0.354847	0.433756	0.399009
C57	C	-0.181622	0.000133	-0.101588
C58	C	0.318378	0.500133	0.398412
C59	C	-0.875254	-0.227876	-0.050764
C60	C	-0.375254	0.272124	0.449236
C61	C	-0.875259	-0.304521	-0.050760
C62	C	-0.375259	0.195479	0.449240
C63	C	-0.830953	-0.342858	-0.104054
C64	C	-0.330953	0.157142	0.395946
C65	C	-0.786628	-0.304544	-0.157341
C66	C	-0.286628	0.195456	0.342659
C67	C	-0.786620	-0.227901	-0.157338
C68	C	-0.286620	0.272099	0.342662
N69	N	-0.826177	-0.463188	-0.173253
N70	N	-0.326177	0.036812	0.326747
N71	N	-0.826188	-0.535996	-0.173253
N72	N	-0.326188	-0.035996	0.326747
C73	C	-0.830974	-0.573781	-0.104065
C74	C	-0.330974	-0.073781	0.395935
N75	N	-0.835760	-0.536007	-0.034874
N76	N	-0.335760	-0.036007	0.465126
N77	N	-0.835752	-0.463192	-0.034874
N78	N	-0.335752	0.036808	0.465126
C79	C	-0.830957	-0.425965	-0.104062
C80	C	-0.330957	0.074035	0.395938
C81	C	-0.875297	-0.695193	-0.050773
C82	C	-0.375297	-0.195193	0.449227
C83	C	-0.875297	-0.771839	-0.050768
C84	C	-0.375297	-0.271839	0.449232
C85	C	-0.786670	-0.771860	-0.157356
C86	C	-0.286670	-0.271860	0.342644
C87	C	-0.786667	-0.695216	-0.157354
C88	C	-0.286667	-0.195216	0.342646
C89	C	-0.830984	-0.656886	-0.104063
C90	C	-0.330984	-0.156886	0.395937
C91	C	0.041753	0.000143	-0.097904
C92	C	0.541753	0.500143	0.402096
C93	C	-0.035830	0.000142	-0.099187
C94	C	0.464170	0.500142	0.400813
C95	C	-0.827568	0.000123	0.038875
C96	C	-0.327568	0.500123	0.538875
C97	C	-0.821037	0.000122	0.125647
C98	C	-0.321037	0.500122	0.625647
N99	N	-0.830990	0.189829	-0.104061
N100	N	-0.330990	0.689829	0.395939
C101	C	-0.834354	0.000137	-0.246990
C102	C	-0.334354	0.500137	0.253010
C103	C	-0.840885	0.000142	-0.333762
C104	C	-0.340885	0.500142	0.166238
C105	C	-0.881004	0.000130	0.175956
C106	C	-0.381004	0.500130	0.675956
C107	C	-0.874863	0.000136	0.257486
C108	C	-0.374863	0.500136	0.757486
C109	C	-0.808754	0.000129	0.288706
C110	C	-0.308754	0.500129	0.788706
C111	C	-0.748783	0.000123	0.238391
C112	C	-0.248783	0.500123	0.738391
C113	C	-0.754924	0.000122	0.156862
C114	C	-0.254924	0.500122	0.656862
C115	C	-0.787056	0.000136	0.534394
C116	C	-0.287056	0.500136	1.034394
C117	C	-0.780919	0.000134	0.615929
C118	C	-0.280919	0.500134	1.115929
C119	C	-0.906999	0.000149	0.635019
C120	C	-0.406999	0.500149	1.135019
C121	C	-0.913135	0.000143	0.553488
C122	C	-0.413135	0.500143	1.053488
C123	C	-0.853164	0.000142	0.503179
C124	C	-0.353164	0.500142	1.003179
C125	C	-0.802475	0.000133	0.372044
C126	C	-0.302475	0.500133	0.872044
C127	C	-0.859443	0.000143	0.419844
C128	C	-0.359443	0.500143	0.919844
H129	H	-0.619359	0.120522	-0.108830
H130	H	-0.119359	0.620522	0.391170
H131	H	-0.913269	0.000165	0.394421
H132	H	-0.413269	0.500165	0.894421
Cl133	Cl	-0.665674	0.000123	0.277639
Cl134	Cl	-0.165674	0.500123	0.777639
Cl135	Cl	-0.191049	0.149951	-0.101749
Cl136	Cl	0.308951	0.649951	0.398251
Cl137	Cl	-0.719369	0.000128	0.411299
Cl138	Cl	-0.219369	0.500128	0.911299
H139	H	-0.911348	-0.335715	-0.007368
H140	H	-0.411348	0.164285	0.492632
H141	H	-0.911339	-0.196671	-0.007369
H142	H	-0.411339	0.303329	0.492631
H143	H	-0.487023	-0.120311	-0.106648
H144	H	0.012977	0.379689	0.393352
Cl145	Cl	-0.730926	-0.352737	-0.224336
Cl146	Cl	-0.230926	0.147263	0.275664
Cl147	Cl	-0.931010	-0.819997	0.016227
Cl148	Cl	-0.431010	-0.319997	0.516227
Cl149	Cl	-0.190941	-0.149690	-0.101747
Cl150	Cl	0.309059	0.350310	0.398253
Cl151	Cl	-0.964116	0.000131	0.136716
Cl152	Cl	-0.464116	0.500131	0.636716
Cl153	Cl	-0.950254	0.000144	0.320729
Cl154	Cl	-0.450254	0.500144	0.820729
Cl155	Cl	-0.931007	-0.647006	0.016225
Cl156	Cl	-0.431007	-0.147006	0.516225
H157	H	-0.750582	-0.664025	-0.200746
H158	H	-0.250582	-0.164025	0.299254
H159	H	-0.487114	0.120531	-0.106651
H160	H	0.012886	0.620531	0.393349
H161	H	-0.955824	0.000152	0.675988
H162	H	-0.455824	0.500152	1.175988
Cl163	Cl	-0.697804	0.000121	0.655176
Cl164	Cl	-0.197804	0.500121	1.155176
Cl165	Cl	-0.730903	-0.179742	-0.224330
Cl166	Cl	-0.230903	0.320258	0.275670
H167	H	-0.619275	-0.120329	-0.108845
H168	H	-0.119275	0.379671	0.391155
H169	H	-0.750593	-0.803074	-0.200746
H170	H	-0.250593	-0.303074	0.299254
H171	H	-0.966968	0.000149	0.528075
H172	H	-0.466968	0.500149	1.028075
Cl173	Cl	-0.026515	0.149962	-0.099041
Cl174	Cl	0.473485	0.649962	0.400959
Cl175	Cl	-0.711662	0.000135	0.471160
Cl176	Cl	-0.211662	0.500135	0.971160
Cl177	Cl	-0.679534	0.000115	0.093616
Cl178	Cl	-0.179534	0.500115	0.593616
Cl179	Cl	-0.026407	-0.149679	-0.099029
Cl180	Cl	0.473593	0.350321	0.400971
