data_functionalizedCrystal
_audit_creation_method	'MofGen! by Chris Wilmer'
_symmetry_space_group_name_H-M	'P1'
_symmetry_Int_Tables_number	1
_symmetry_cell_setting	triclinic
loop_
_symmetry_equiv_pos_as_xyz
  x,y,z
_cell_length_a	10.654541
_cell_length_b	10.540539
_cell_length_c	9.730217
_cell_angle_alpha	89.998866
_cell_angle_beta	89.999932
_cell_angle_gamma	84.504710
loop_
_atom_site_label
_atom_site_type_symbol
_atom_site_fract_x
_atom_site_fract_y
_atom_site_fract_z
O1	O	1.667901	0.178284	-0.114241
O2	O	1.302428	0.195274	-0.114252
O3	O	1.493503	0.002070	-0.114244
O4	O	1.476827	0.371489	-0.114248
O5	O	1.493497	0.002068	0.114336
O6	O	1.302422	0.195273	0.114328
O7	O	1.667895	0.178282	0.114339
Zn8	Zn	1.485158	0.186777	0.150626
Zn9	Zn	1.485166	0.186779	-0.150538
O10	O	1.476821	0.371487	0.114332
C11	C	1.255627	0.194027	0.000036
C12	C	1.116182	0.190296	0.000032
C13	C	1.088292	0.421325	0.000012
C14	C	1.008838	0.535081	-0.000003
C15	C	0.877819	0.531569	-0.000004
C16	C	0.826252	0.414286	0.000014
C17	C	0.905707	0.300530	0.000029
C18	C	1.036727	0.304055	0.000026
C19	C	0.933596	0.069504	0.000059
C20	C	1.064615	0.073014	0.000050
C21	C	0.882029	-0.047778	0.000077
C22	C	0.961484	-0.161538	0.000082
C23	C	1.092511	-0.158020	0.000082
C24	C	1.144070	-0.040742	0.000065
C25	C	1.492249	-0.045234	0.000043
C26	C	1.488508	-0.186180	0.000036
C27	C	1.345136	-0.369555	-0.000482
C28	C	1.348929	-0.222938	0.000033
C29	C	1.555676	-0.247864	0.130568
C30	C	1.550912	-0.394407	0.130678
C31	C	1.553758	-0.394924	-0.129260
C32	C	1.555043	-0.247942	-0.130986
C33	C	1.714697	0.179530	0.000048
C34	C	1.854142	0.183260	0.000043
C35	C	1.478074	0.418790	0.000041
C36	C	1.481816	0.559737	0.000040
N37	N	1.485162	0.186775	0.356162
N38	N	1.485172	0.186772	-0.356075
C39	C	1.654428	0.015742	0.356160
C40	C	1.739070	-0.069770	0.428098
C41	C	1.739082	-0.069771	0.571978
C42	C	1.654442	0.015747	0.643922
C43	C	1.569800	0.101260	0.571984
C44	C	1.569799	0.101254	0.428101
C45	C	1.400530	0.272284	0.571986
C46	C	1.400521	0.272293	0.428107
C47	C	1.315890	0.357803	0.643931
C48	C	1.231252	0.443324	0.571992
C49	C	1.231244	0.443322	0.428104
C50	C	1.315880	0.357806	0.356168
H51	H	1.296077	-0.180314	-0.093538
H52	H	1.315885	0.357801	0.239014
H53	H	1.157196	-0.250655	0.000100
C54	C	1.488752	-0.192614	-0.261443
H55	H	1.420813	-0.132120	-0.236183
H56	H	1.457309	-0.259443	-0.312698
H57	H	1.547239	-0.152113	-0.315923
C58	C	1.232409	0.425194	0.000002
H59	H	1.251741	0.511331	-0.000005
H60	H	1.267196	0.383316	-0.079702
H61	H	1.267199	0.383341	0.079730
H62	H	1.290002	-0.398134	-0.094089
H63	H	1.290221	-0.399742	0.092598
H64	H	1.808000	-0.139407	0.630551
H65	H	1.050838	0.630571	-0.000014
H66	H	1.250751	-0.037867	0.000049
C67	C	0.737912	-0.051644	0.000073
H68	H	0.697975	0.032900	0.000047
H69	H	0.713416	-0.095095	0.079787
H70	H	0.713432	-0.095110	-0.079645
H71	H	1.295702	-0.181163	0.093756
H72	H	0.813126	0.624199	-0.000007
H73	H	1.501267	-0.422589	0.228251
H74	H	1.654437	0.015745	0.239005
H75	H	1.651295	-0.442412	0.136603
C76	C	1.832167	-0.163834	0.348958
H77	H	1.820048	-0.151583	0.252965
H78	H	1.817784	-0.248689	0.372544
H79	H	1.916109	-0.149242	0.372531
C80	C	1.492630	-0.190316	0.261792
H81	H	1.425385	-0.128715	0.237310
H82	H	1.552956	-0.150766	0.314610
H83	H	1.460623	-0.255976	0.314402
C84	C	1.138162	0.537382	0.651130
H85	H	1.150293	0.525134	0.747122
H86	H	1.054223	0.522808	0.627554
H87	H	1.152560	0.622242	0.627555
H88	H	1.658178	-0.225548	0.135424
C89	C	0.904759	-0.290529	0.000100
H90	H	0.815350	-0.276329	0.000095
H91	H	0.931963	-0.337417	0.079810
H92	H	0.931952	-0.337417	-0.079622
H93	H	1.508585	-0.426459	-0.228195
H94	H	1.162314	0.512952	0.369539
H95	H	1.656807	-0.223758	-0.138865
C96	C	1.689950	-0.458769	-0.130457
H97	H	1.732948	-0.430993	-0.208814
H98	H	1.688669	-0.548704	-0.133809
H99	H	1.732259	-0.435977	-0.049480
C100	C	0.682135	0.410424	0.000023
H101	H	0.642201	0.494969	0.000008
H102	H	0.657647	0.366968	0.079737
H103	H	0.657644	0.366964	-0.079695
C104	C	1.654436	0.015734	0.802186
H105	H	1.591902	0.078903	0.834730
H106	H	1.734853	0.033860	0.834747
H107	H	1.636518	-0.065575	0.834720
C108	C	1.315905	0.357806	0.802194
H109	H	1.378444	0.294641	0.834737
H110	H	1.235490	0.339671	0.834757
H111	H	1.333816	0.439116	0.834728
