data_functionalizedCrystal
_audit_creation_method	'MofGen! by Chris Wilmer'
_symmetry_space_group_name_H-M	'P1'
_symmetry_Int_Tables_number	1
_symmetry_cell_setting	triclinic
loop_
_symmetry_equiv_pos_as_xyz
  x,y,z
_cell_length_a	12.759401
_cell_length_b	18.101395
_cell_length_c	12.759401
_cell_angle_alpha	90.008771
_cell_angle_beta	90.003070
_cell_angle_gamma	90.031265
loop_
_atom_site_label
_atom_site_type_symbol
_atom_site_fract_x
_atom_site_fract_y
_atom_site_fract_z
Zn1	Zn	1.605976	-0.294963	0.593967
Zn2	Zn	1.605867	-0.418771	0.418282
Zn3	Zn	1.430325	-0.294949	0.418307
Zn4	Zn	1.430216	-0.418768	0.593923
O5	O	1.518096	-0.356863	0.506120
O6	O	1.752982	-0.311394	0.570670
O7	O	1.582581	-0.402341	0.271264
O8	O	1.453716	-0.191318	0.441637
O9	O	1.752902	-0.402356	0.441595
O10	O	1.582766	-0.191328	0.570694
O11	O	1.453611	-0.311369	0.271282
O12	O	1.283289	-0.311366	0.441595
O13	O	1.453531	-0.402349	0.740950
O14	O	1.283209	-0.402335	0.570619
O15	O	1.582661	-0.311391	0.740982
O16	O	1.582475	-0.522404	0.441552
O17	O	1.453425	-0.522401	0.570595
C18	C	1.245128	-0.356849	0.506105
C19	C	1.128352	-0.356861	0.506124
C20	C	1.073476	-0.404305	0.573196
C21	C	0.963752	-0.404314	0.573207
C22	C	0.963790	-0.309434	0.439066
C23	C	1.073512	-0.309422	0.439061
C24	C	1.128316	-0.451744	0.640260
C25	C	1.073439	-0.499192	0.707336
C26	C	0.963715	-0.499201	0.707347
C27	C	0.908868	-0.451763	0.640282
C28	C	1.517955	-0.549273	0.506089
C29	C	1.517991	-0.631587	0.506111
C30	C	1.518222	-0.930678	0.506167
C31	C	1.437215	-0.899382	0.587559
C32	C	1.436830	-0.813764	0.587304
C33	C	1.518107	-0.782296	0.506140
C34	C	1.488157	-0.813422	0.395415
C35	C	1.487634	-0.899067	0.395902
C36	C	1.629357	-0.899028	0.534526
C37	C	1.628703	-0.813378	0.536954
C38	C	1.518045	-0.698436	0.506118
C39	C	1.518282	-1.014538	0.506182
C40	C	1.792129	-0.356877	0.506134
C41	C	1.908906	-0.356883	0.506141
C42	C	1.518096	-0.356871	0.780153
C43	C	1.518095	-0.356875	0.896929
C44	C	1.518266	-0.163701	0.506174
C45	C	1.518338	-0.081387	0.506197
C46	C	1.585245	-0.404238	1.061511
C47	C	1.585243	-0.404239	0.951787
C48	C	1.450939	-0.309511	0.951802
C49	C	1.450937	-0.309513	1.061524
C50	C	1.652404	-0.451600	1.116362
C51	C	1.719559	-0.498965	1.061497
C52	C	1.719557	-0.498967	0.951773
C53	C	1.652399	-0.451603	0.896914
C54	C	1.518090	-0.356873	1.233152
C55	C	1.518096	-0.356876	1.116376
H56	H	0.919038	-0.537830	0.761972
H57	H	0.819523	-0.451768	0.640306
H58	H	0.919124	-0.270813	0.384464
H59	H	1.118193	-0.270783	0.384453
C60	C	1.379568	-0.784540	0.362382
H61	H	1.352339	-0.753521	0.415912
H62	H	1.385867	-0.757192	0.299159
H63	H	1.333494	-0.825095	0.351722
H64	H	1.455566	-0.792719	0.669406
C65	C	1.377889	-0.926141	0.363460
H66	H	1.334043	-0.884796	0.350113
H67	H	1.383281	-0.955379	0.301868
H68	H	1.348628	-0.954938	0.418403
H69	H	1.354454	-0.793337	0.568520
H70	H	1.652416	-0.451602	1.205705
H71	H	1.774232	-0.537538	0.907105
H72	H	1.455765	-0.919949	0.669926
C73	C	1.652389	-0.451606	0.776220
H74	H	1.602775	-0.416618	0.751409
H75	H	1.720197	-0.438806	0.751400
H76	H	1.634169	-0.499399	0.751392
C77	C	1.326605	-0.928528	0.562502
H78	H	1.329578	-0.959684	0.502652
H79	H	1.300780	-0.955785	0.620646
H80	H	1.281222	-0.888090	0.548727
H81	H	1.692247	-0.791953	0.481993
H82	H	1.396264	-0.270949	0.907127
H83	H	1.544078	-0.919770	0.333191
C84	C	1.565345	-0.785882	0.311252
H85	H	1.616643	-0.755080	0.342969
H86	H	1.598755	-0.826985	0.279243
H87	H	1.528254	-0.758575	0.259628
C88	C	1.666252	-0.928155	0.641741
H89	H	1.614215	-0.959894	0.670215
H90	H	1.729815	-0.954788	0.633234
H91	H	1.677461	-0.887749	0.687931
C92	C	1.659229	-0.785885	0.647026
H93	H	1.604812	-0.755588	0.674097
H94	H	1.669466	-0.827028	0.692080
H95	H	1.722239	-0.758061	0.642802
C96	C	1.710866	-0.926291	0.454375
H97	H	1.677392	-0.956823	0.403880
H98	H	1.741843	-0.885052	0.420294
H99	H	1.763630	-0.953814	0.489482
H100	H	1.774232	-0.537530	1.106171
C101	C	1.377083	-0.257413	1.121884
H102	H	1.386696	-0.264204	1.195086
H103	H	1.392503	-0.207655	1.103918
H104	H	1.306478	-0.268250	1.103898
C105	C	1.133767	-0.551372	0.781098
H106	H	1.206973	-0.544579	0.771478
H107	H	1.115806	-0.540622	0.851719
H108	H	1.115749	-0.601115	0.765585
C109	C	1.249008	-0.451732	0.640255
H110	H	1.273811	-0.486774	0.689806
H111	H	1.273816	-0.464453	0.572422
H112	H	1.273855	-0.403958	0.658555
