data_functionalizedCrystal
_audit_creation_method	'MofGen! by Chris Wilmer'
_symmetry_space_group_name_H-M	'P1'
_symmetry_Int_Tables_number	1
_symmetry_cell_setting	triclinic
loop_
_symmetry_equiv_pos_as_xyz
  x,y,z
_cell_length_a	14.971482
_cell_length_b	10.654551
_cell_length_c	13.448316
_cell_angle_alpha	89.996249
_cell_angle_beta	89.993798
_cell_angle_gamma	84.048985
loop_
_atom_site_label
_atom_site_type_symbol
_atom_site_fract_x
_atom_site_fract_y
_atom_site_fract_z
O1	O	1.187840	0.163637	-0.082673
O2	O	0.927546	0.183240	-0.082677
O3	O	1.063678	-0.009365	-0.082675
O4	O	1.051709	0.356242	-0.082674
O5	O	1.063660	-0.009377	0.082709
O6	O	0.927529	0.183228	0.082707
O7	O	1.187823	0.163625	0.082711
Cu8	Cu	1.057675	0.173426	0.097810
Cu9	Cu	1.057695	0.173440	-0.097776
O10	O	1.051692	0.356230	0.082710
C11	C	0.894208	0.182358	0.000015
C12	C	0.794897	0.179734	0.000013
C13	C	0.748236	0.178491	0.090165
C14	C	0.654924	0.176005	0.090166
C15	C	0.608274	0.174770	0.000014
C16	C	0.654941	0.176009	-0.090145
C17	C	0.748252	0.178486	-0.090145
C18	C	0.460451	0.170849	-0.090138
C19	C	0.367134	0.168374	-0.090139
C20	C	0.367123	0.168367	0.090172
C21	C	0.460434	0.170845	0.090172
C22	C	0.507095	0.172086	0.000013
C23	C	1.062790	-0.056159	0.000015
C24	C	1.060160	-0.195574	0.000008
C25	C	1.058936	-0.261067	-0.090141
C26	C	1.056457	-0.392060	-0.090137
C27	C	1.056431	-0.392059	0.090174
C28	C	1.058903	-0.261066	0.090168
C29	C	1.060193	-0.195575	-0.180302
C30	C	1.058970	-0.261067	-0.270458
C31	C	1.056491	-0.392061	-0.270453
C32	C	1.055236	-0.457562	-0.180293
C33	C	1.221161	0.164507	0.000018
C34	C	1.320473	0.167131	0.000013
C35	C	1.052580	0.403025	0.000018
C36	C	1.055209	0.542439	0.000018
N37	N	1.057667	0.173415	0.235374
N38	N	1.057710	0.173440	-0.235340
C39	C	1.117965	0.088164	0.287415
C40	C	1.117970	0.088163	0.391519
C41	C	1.057681	0.173420	0.443579
C42	C	0.997377	0.258674	0.391531
C43	C	0.997368	0.258668	0.287429
C44	C	0.997402	0.258683	0.608511
C45	C	0.997412	0.258691	0.712619
C46	C	1.118004	0.088178	0.712600
C47	C	1.117995	0.088172	0.608499
C48	C	1.057692	0.173428	0.556458
H49	H	0.616939	0.174972	0.163576
F50	F	1.182165	-0.002559	0.553092
F51	F	0.933243	0.349431	0.768018
H52	H	1.167062	0.018744	0.245035
H53	H	0.329153	0.167370	-0.163548
F54	F	0.510110	0.172166	-0.186097
F55	F	1.060303	-0.191354	-0.366408
F56	F	0.317462	0.167047	0.186127
F57	F	1.182145	-0.002571	0.446905
H58	H	0.948266	0.328086	0.245058
F59	F	1.182184	-0.002556	0.767990
F60	F	0.797912	0.179804	-0.186097
H61	H	0.616952	0.174995	-0.163548
H62	H	1.053204	-0.564224	-0.180296
F63	F	1.062835	-0.056161	-0.180314
F64	F	1.055180	-0.461758	-0.366404
H65	H	1.055409	-0.445400	0.163578
H66	H	1.059881	-0.207738	0.163576
H67	H	0.948293	0.328104	0.566142
H68	H	0.786211	0.179507	0.163577
F69	F	0.510080	0.172171	0.186121
H70	H	0.948284	0.328088	0.433924
