data_functionalizedCrystal
_audit_creation_method	'MofGen! by Chris Wilmer'
_symmetry_space_group_name_H-M	'P1'
_symmetry_Int_Tables_number	1
_symmetry_cell_setting	triclinic
loop_
_symmetry_equiv_pos_as_xyz
  x,y,z
_cell_length_a	10.723023
_cell_length_b	19.188930
_cell_length_c	9.198806
_cell_angle_alpha	89.991701
_cell_angle_beta	89.996191
_cell_angle_gamma	83.806164
loop_
_atom_site_label
_atom_site_type_symbol
_atom_site_fract_x
_atom_site_fract_y
_atom_site_fract_z
O1	O	1.655156	0.097919	-0.120907
O2	O	1.291809	0.107293	-0.120912
O3	O	1.483968	0.001019	-0.120881
O4	O	1.462997	0.204194	-0.120938
O5	O	1.483952	0.001018	0.120904
O6	O	1.291794	0.107293	0.120873
O7	O	1.655141	0.097919	0.120878
Cu8	Cu	1.473466	0.102606	0.142952
Cu9	Cu	1.473484	0.102606	-0.142986
O10	O	1.462982	0.204193	0.120847
C11	C	1.245316	0.106611	-0.000020
C12	C	1.106804	0.104570	-0.000021
C13	C	1.045059	0.103661	-0.125273
C14	C	0.901899	0.101552	-0.125277
C15	C	1.483281	-0.024997	0.000016
C16	C	1.481242	-0.102515	0.000028
C17	C	1.593995	-0.146706	0.000037
C18	C	1.592080	-0.219542	0.000014
C19	C	1.477405	-0.248184	0.000011
C20	C	1.364638	-0.203983	-0.000006
C21	C	1.366557	-0.131148	0.000003
N22	N	1.389746	-0.356758	0.082294
N23	N	1.387931	-0.425949	0.082288
C24	C	1.471618	-0.467630	-0.000019
N25	N	1.557208	-0.437508	-0.082302
N26	N	1.559027	-0.368312	-0.082290
C27	C	1.475313	-0.327160	0.000000
C28	C	1.582302	-0.590799	-0.000037
C29	C	1.580382	-0.663637	-0.000070
C30	C	1.352937	-0.648076	-0.000075
C31	C	1.354861	-0.575240	-0.000057
C32	C	1.469546	-0.546606	-0.000031
C33	C	1.701634	0.098601	-0.000017
C34	C	1.840146	0.100642	-0.000026
C35	C	1.463668	0.230209	-0.000053
C36	C	1.465707	0.307727	-0.000075
N37	N	1.473462	0.102605	0.344066
N38	N	1.473497	0.102601	-0.344100
C39	C	1.554148	0.057787	0.416277
C40	C	1.554168	0.057784	0.583689
H41	H	1.053680	0.103792	0.107209
H42	H	0.848801	0.100768	-0.232510
H43	H	1.404419	0.140977	0.593811
H44	H	1.263045	-0.539258	-0.000056
H45	H	1.687381	-0.123398	0.000053
O46	O	1.390891	0.148311	0.418095
C47	C	1.267310	0.136555	0.381010
H48	H	1.266692	0.080691	0.339084
H49	H	1.204759	0.144312	0.481186
H50	H	1.230547	0.175155	0.292774
H51	H	0.893237	0.101421	0.107213
O52	O	1.256941	-0.088288	-0.000191
C53	C	1.187314	-0.101325	-0.125439
H54	H	1.218257	-0.156415	-0.167199
H55	H	1.083214	-0.096703	-0.097281
H56	H	1.204167	-0.061401	-0.213114
O57	O	1.701578	-0.262510	-0.000225
C58	C	1.707277	-0.305111	-0.125428
H59	H	1.643345	-0.278739	-0.212965
H60	H	1.807841	-0.312821	-0.167440
H61	H	1.675257	-0.358220	-0.097123
H62	H	1.271269	-0.227307	-0.000012
O63	O	1.693811	-0.563095	-0.000103
C64	C	1.792923	-0.617723	-0.000085
H65	H	1.758216	-0.667357	-0.045863
H66	H	1.873008	-0.602112	-0.070287
H67	H	1.827689	-0.627873	0.115907
O68	O	1.636423	0.011927	0.342218
C69	C	1.616261	-0.057267	0.379312
H70	H	1.516382	-0.058001	0.421293
H71	H	1.630535	-0.092180	0.279126
H72	H	1.685559	-0.077571	0.467507
H73	H	1.623251	0.019416	0.645786
H74	H	1.672203	-0.699617	-0.000071
O75	O	1.241618	-0.675970	-0.000276
C76	C	1.233699	-0.717606	-0.125527
H77	H	1.332149	-0.735269	-0.167271
H78	H	1.184215	-0.765533	-0.097378
H79	H	1.178330	-0.685686	-0.213210
O80	O	1.108539	0.104691	-0.253110
C81	C	1.169340	0.166170	-0.260912
H82	H	1.183875	0.186580	-0.146452
H83	H	1.264178	0.153946	-0.316545
H84	H	1.109135	0.207699	-0.326045
