data_functionalizedCrystal
_audit_creation_method	'MofGen! by Chris Wilmer'
_symmetry_space_group_name_H-M	'P1'
_symmetry_Int_Tables_number	1
_symmetry_cell_setting	triclinic
loop_
_symmetry_equiv_pos_as_xyz
  x,y,z
_cell_length_a	13.635800
_cell_length_b	9.514088
_cell_length_c	23.752933
_cell_angle_alpha	102.880289
_cell_angle_beta	79.933939
_cell_angle_gamma	118.843545
loop_
_atom_site_label
_atom_site_type_symbol
_atom_site_fract_x
_atom_site_fract_y
_atom_site_fract_z
V1	V	2.051597	0.501663	0.080176
O2	O	2.102683	0.491179	-0.002809
O3	O	1.971257	0.499131	0.157973
O4	O	2.069538	0.720046	0.079401
O5	O	2.003721	0.268735	0.076306
V6	V	2.295225	0.473694	0.070196
O7	O	2.178132	0.563016	0.102069
O8	O	2.393788	0.412341	0.048304
O9	O	2.263961	0.476226	-0.007600
O10	O	2.302837	0.484179	0.153182
O11	O	2.401799	0.706622	0.074066
O12	O	2.165680	0.255312	0.070972
V13	V	2.551597	0.501663	0.080176
O14	O	2.602683	0.491179	-0.002809
O15	O	2.471257	0.499131	0.157973
O16	O	2.569538	0.720046	0.079401
O17	O	2.503721	0.268735	0.076306
V18	V	2.795225	0.473694	0.070196
O19	O	2.678132	0.563016	0.102069
O20	O	2.893788	0.412341	0.048304
O21	O	2.763961	0.476226	-0.007600
O22	O	2.802837	0.484179	0.153182
O23	O	2.901799	0.706622	0.074066
O24	O	2.665680	0.255312	0.070972
C25	C	1.878736	0.491450	0.176923
C26	C	1.853973	0.490835	0.240526
C27	C	2.004104	0.773246	0.076697
C28	C	2.059043	0.951780	0.076578
C29	C	1.800249	0.343362	0.261928
C30	C	1.776990	0.342763	0.321688
C31	C	1.807448	0.489637	0.360045
C32	C	1.861180	0.637122	0.338639
C33	C	1.884445	0.637720	0.278880
C34	C	2.188150	0.483903	-0.026548
C35	C	2.202534	0.484528	-0.090149
C36	C	2.062782	0.202103	0.073678
C37	C	1.997464	0.023567	0.073794
C38	C	2.378632	0.480168	-0.487491
C39	C	2.392152	0.480729	-0.547253
O40	O	2.472993	0.474120	-0.580657
N41	N	2.312054	0.489066	-0.574212
C42	C	2.218425	0.496827	-0.541406
O43	O	2.151537	0.503968	-0.569825
C44	C	2.204903	0.496255	-0.481646
C45	C	2.285012	0.487933	-0.454689
C46	C	2.458734	0.471846	-0.460534
C47	C	2.445216	0.471289	-0.400775
C48	C	2.351596	0.479054	-0.367973
C49	C	2.271494	0.487376	-0.394930
C50	C	2.111270	0.504004	-0.448842
C51	C	2.097754	0.503430	-0.389077
C52	C	2.177864	0.495108	-0.362121
C53	C	2.164356	0.494584	-0.302370
N54	N	2.244453	0.486247	-0.275411
C55	C	2.338073	0.478481	-0.308213
C56	C	2.246829	0.498025	-0.666908
C57	C	2.260354	0.498609	-0.726667
C58	C	2.434079	0.482508	-0.732510
C59	C	2.420557	0.481936	-0.672749
C60	C	2.326926	0.489688	-0.639949
C61	C	2.309678	0.477313	-0.182715
C62	C	2.296153	0.476763	-0.122951
C63	C	2.122427	0.492856	-0.117114
C64	C	2.135953	0.493414	-0.176873
C65	C	2.229584	0.485637	-0.209672
O66	O	2.083541	0.501182	-0.268930
O67	O	2.404940	0.471320	-0.279788
C68	C	2.378736	0.491450	0.176923
C69	C	2.353973	0.490835	0.240526
C70	C	2.504104	0.773246	0.076697
C71	C	2.559043	0.951780	0.076578
C72	C	2.688150	0.483903	-0.026548
C73	C	2.702534	0.484528	-0.090149
C74	C	2.562782	0.202103	0.073678
C75	C	2.497464	0.023567	0.073794
C76	C	2.796153	0.476763	-0.122951
C77	C	2.809673	0.477324	-0.182713
C78	C	2.729576	0.485661	-0.209672
C79	C	2.635947	0.493422	-0.176867
C80	C	2.622424	0.492849	-0.117106
H81	H	1.775435	0.223753	0.230704
C82	C	1.782082	0.489193	0.424934
C83	C	1.711923	0.561618	0.446561
C84	C	1.688536	0.561244	0.506334
H85	H	1.745665	0.380406	0.432259
H86	H	1.850233	0.548629	0.443488
H87	H	1.643784	0.502180	0.428014
H88	H	1.748318	0.670412	0.439252
H89	H	1.756687	0.620680	0.524888
H90	H	1.652123	0.452453	0.513654
H91	H	1.640939	0.610396	0.521017
C92	C	1.942970	0.797817	0.255623
C93	C	2.044218	0.814404	0.224585
C94	C	2.098172	0.961883	0.203163
H95	H	1.896033	0.799190	0.230757
H96	H	1.957844	0.885243	0.287016
H97	H	2.029341	0.727002	0.193196
H98	H	2.091183	0.813061	0.249438
H99	H	2.113046	1.049309	0.234556
H100	H	2.051226	0.963243	0.178300
H101	H	2.166879	0.973165	0.182106
H102	H	2.861385	0.469976	-0.101009
H103	H	1.733235	0.222659	0.339107
H104	H	2.361394	0.469991	-0.101006
C105	C	2.371132	0.923551	0.070653
C106	C	2.341137	0.937070	0.019403
C107	C	2.224765	0.844957	0.016496
H108	H	2.349630	0.812799	0.071112
H109	H	2.334039	0.962673	0.102985
H110	H	2.378218	0.897939	-0.012921
H111	H	2.362611	1.047800	0.018933
H112	H	2.187672	0.884079	0.048828
H113	H	2.203274	0.734211	0.016956
H114	H	2.204398	0.854129	-0.018274
H115	H	2.570736	0.500208	-0.198826
C116	C	1.871132	0.923551	0.070653
C117	C	1.841137	0.937070	0.019403
C118	C	1.724765	0.844957	0.016496
H119	H	1.849630	0.812799	0.071112
H120	H	1.834039	0.962673	0.102985
H121	H	1.878218	0.897939	-0.012921
H122	H	1.862611	1.047800	0.018933
H123	H	1.687672	0.884079	0.048828
H124	H	1.703274	0.734211	0.016956
H125	H	1.704398	0.854129	-0.018274
H126	H	2.485790	0.475158	-0.650805
C127	C	2.685359	1.052189	0.079720
C128	C	2.708031	1.171224	0.129310
C129	C	2.824377	1.263765	0.132220
H130	H	2.716760	0.983423	0.081515
H131	H	2.717502	1.103012	0.046262
H132	H	2.675901	1.120403	0.162760
H133	H	2.676657	1.240026	0.127526
H134	H	2.856520	1.314589	0.098762
H135	H	2.855768	1.194986	0.134014
H136	H	2.839775	1.344550	0.165863
H137	H	1.885975	0.756702	0.369878
C138	C	2.185359	1.052189	0.079720
C139	C	2.208031	1.171224	0.129310
C140	C	2.324377	1.263765	0.132220
H141	H	2.216760	0.983423	0.081515
H142	H	2.217502	1.103012	0.046262
H143	H	2.175901	1.120403	0.162760
H144	H	2.176657	1.240026	0.127526
H145	H	2.356520	1.314589	0.098762
H146	H	2.355768	1.194986	0.134014
H147	H	2.339775	1.344550	0.165863
C148	C	2.535584	0.473729	-0.768179
C149	C	2.499494	0.334654	-0.810637
C150	C	2.592963	0.326502	-0.843502
H151	H	2.577687	0.567645	-0.786256
H152	H	2.581359	0.468593	-0.743593
H153	H	2.453738	0.339803	-0.835220
H154	H	2.457404	0.240713	-0.792576
H155	H	2.638738	0.321366	-0.818916
H156	H	2.635059	0.420425	-0.861575
H157	H	2.568490	0.232134	-0.872310
C158	C	2.532006	0.461952	-0.371461
C159	C	2.480389	0.322256	-0.345310
C160	C	2.560303	0.313590	-0.318303
H161	H	2.589719	0.457303	-0.399509
H162	H	2.563504	0.555483	-0.342821
H163	H	2.448909	0.228748	-0.373947
H164	H	2.422684	0.326874	-0.317254
H165	H	2.591801	0.407121	-0.289662
H166	H	2.618011	0.308945	-0.346354
H167	H	2.525291	0.218815	-0.300552
H168	H	2.385916	0.470972	-0.209415
C169	C	2.911302	0.468653	-0.218266
C170	C	2.911532	0.324786	-0.213467
C171	C	3.005142	0.316755	-0.246201
H172	H	2.907999	0.470083	-0.257738
H173	H	2.977954	0.559361	-0.204246
H174	H	2.844897	0.234102	-0.227490
H175	H	2.914851	0.323324	-0.174003
H176	H	3.071795	0.407463	-0.232181
H177	H	3.001831	0.318191	-0.285671
H178	H	3.005317	0.219150	-0.242945
C179	C	2.173231	0.507588	-0.755828
C180	C	2.088340	0.514229	-0.714305
C181	C	2.008049	0.522470	-0.741145
H182	H	2.207897	0.602280	-0.773604
H183	H	2.141666	0.413955	-0.784421
H184	H	2.119902	0.607853	-0.685722
H185	H	2.053644	0.419548	-0.696526
H186	H	1.976484	0.428838	-0.769739
H187	H	2.042726	0.617162	-0.758921
H188	H	1.950436	0.526962	-0.712978
C189	C	2.145079	0.506131	-0.631288
C190	C	2.083300	0.367353	-0.604810
C191	C	1.989555	0.374750	-0.572003
H192	H	2.169202	0.600294	-0.602394
H193	H	2.099258	0.511094	-0.655893
H194	H	2.129113	0.362405	-0.580207
H195	H	2.059150	0.273168	-0.633691
H196	H	1.943734	0.379713	-0.596608
H197	H	2.013687	0.468918	-0.543112
H198	H	1.947620	0.280585	-0.554038
H199	H	2.534970	0.465516	-0.487235
C200	C	2.024132	0.512952	-0.477997
C201	C	1.939241	0.519574	-0.436472
C202	C	1.858935	0.527793	-0.463309
H203	H	2.058786	0.607643	-0.495773
H204	H	1.992572	0.419318	-0.506590
H205	H	1.970798	0.613199	-0.407890
H206	H	1.904557	0.424893	-0.418694
H207	H	1.827375	0.434158	-0.491902
H208	H	1.893600	0.622485	-0.481084
H209	H	1.801322	0.532272	-0.435139
C210	C	1.996239	0.512097	-0.353382
C211	C	2.032305	0.651128	-0.310904
C212	C	1.938825	0.659158	-0.278007
H213	H	1.950407	0.517223	-0.377926
H214	H	1.954201	0.418109	-0.335326
H215	H	2.074324	0.745092	-0.328959
H216	H	2.078125	0.646032	-0.286347
H217	H	1.896787	0.565170	-0.259952
H218	H	1.892999	0.664279	-0.302556
H219	H	1.963283	0.753481	-0.249179
C220	C	2.020874	0.501610	-0.081506
C221	C	2.020665	0.645516	-0.086272
C222	C	1.927133	0.653630	-0.053471
H223	H	1.954169	0.410969	-0.095479
H224	H	2.024287	0.500167	-0.042042
H225	H	2.017241	0.646945	-0.125726
H226	H	2.087348	0.736182	-0.072294
H227	H	1.930546	0.652187	-0.014008
H228	H	1.860435	0.562983	-0.067448
H229	H	1.926984	0.751276	-0.056696
C230	C	2.744219	0.486559	-0.274537
C231	C	2.750255	0.630025	-0.284725
C232	C	2.763738	0.630903	-0.344470
H233	H	2.811444	0.480833	-0.290274
H234	H	2.682027	0.395566	-0.292415
H235	H	2.812441	0.720993	-0.266854
H236	H	2.683039	0.635781	-0.269001
H237	H	2.701546	0.539910	-0.362349
H238	H	2.830962	0.625173	-0.360203
H239	H	2.767825	0.728236	-0.351391
C240	C	2.520684	0.500964	-0.081486
C241	C	2.458901	0.362189	-0.055007
C242	C	2.365159	0.369597	-0.022199
H243	H	2.544810	0.595129	-0.052593
H244	H	2.474865	0.505930	-0.106091
H245	H	2.504713	0.357240	-0.030403
H246	H	2.434748	0.268003	-0.083886
H247	H	2.319339	0.374563	-0.046804
H248	H	2.389295	0.463768	0.006691
H249	H	2.323222	0.275435	-0.004233
H250	H	2.070731	0.500219	-0.198820
