data_functionalizedCrystal
_audit_creation_method	'MofGen! by Chris Wilmer'
_symmetry_space_group_name_H-M	'P1'
_symmetry_Int_Tables_number	1
_symmetry_cell_setting	triclinic
loop_
_symmetry_equiv_pos_as_xyz
  x,y,z
_cell_length_a	12.759395
_cell_length_b	17.640280
_cell_length_c	12.759387
_cell_angle_alpha	78.768503
_cell_angle_beta	89.979491
_cell_angle_gamma	78.802277
loop_
_atom_site_label
_atom_site_type_symbol
_atom_site_fract_x
_atom_site_fract_y
_atom_site_fract_z
Zn1	Zn	1.690820	-0.314594	-0.509546
Zn2	Zn	2.190820	0.185406	-0.009546
Zn3	Zn	1.726239	-0.446788	-0.298376
Zn4	Zn	2.226239	0.053212	0.201624
Zn5	Zn	1.515129	-0.314637	-0.333871
Zn6	Zn	2.015129	0.185363	0.166129
Zn7	Zn	1.550624	-0.446732	-0.474030
Zn8	Zn	2.050624	0.053268	0.025970
O9	O	1.620703	-0.380688	-0.403956
O10	O	2.120703	0.119312	0.096044
O11	O	1.842541	-0.332135	-0.481542
O12	O	2.342541	0.167865	0.018458
O13	O	1.698204	-0.429300	-0.156052
O14	O	2.198204	0.070700	0.343948
O15	O	1.508757	-0.204025	-0.386893
O16	O	2.008757	0.295975	0.113107
O17	O	1.868563	-0.429258	-0.326397
O18	O	2.368563	0.070742	0.173603
O19	O	1.637836	-0.203994	-0.515961
O20	O	2.137836	0.296006	-0.015961
O21	O	1.543102	-0.332209	-0.182130
O22	O	2.043102	0.167791	0.317870
O23	O	1.372815	-0.332154	-0.352455
O24	O	1.872815	0.167846	0.147545
O25	O	1.569253	-0.429162	-0.625774
O26	O	2.069253	0.070838	-0.125774
O27	O	1.398893	-0.429204	-0.455429
O28	O	1.898893	0.070796	0.044571
O29	O	1.672254	-0.332081	-0.651867
O30	O	2.172254	0.167919	-0.151867
O31	O	1.732621	-0.557387	-0.291959
O32	O	2.232621	-0.057387	0.208041
O33	O	1.603597	-0.557346	-0.421011
O34	O	2.103597	-0.057346	0.078989
C35	C	1.347733	-0.380678	-0.403940
C36	C	1.847733	0.119322	0.096060
C37	C	1.230960	-0.380693	-0.403954
C38	C	1.730960	0.119307	0.096046
C39	C	1.675833	-0.586045	-0.348802
C40	C	2.175833	-0.086045	0.151198
C41	C	1.699514	-0.673898	-0.325242
C42	C	2.199514	-0.173898	0.174758
C43	C	1.258197	-0.481915	-0.510919
C44	C	1.758197	0.018085	-0.010919
C45	C	1.216957	-0.532532	-0.564404
C46	C	1.716957	-0.032532	-0.064404
C47	C	1.107238	-0.532541	-0.564414
C48	C	1.607238	-0.032541	-0.064414
C49	C	1.038755	-0.481927	-0.510937
C50	C	1.538755	0.018073	-0.010937
C51	C	1.079995	-0.431310	-0.457453
C52	C	1.579995	0.068690	0.042547
C53	C	1.189719	-0.431307	-0.457446
C54	C	1.689719	0.068693	0.042554
C55	C	1.052757	-0.330086	-0.350495
C56	C	1.552757	0.169914	0.149505
C57	C	1.162477	-0.330079	-0.350477
C58	C	1.662477	0.169921	0.149523
C59	C	0.984275	-0.279471	-0.297017
C60	C	1.484275	0.220529	0.202983
C61	C	1.025516	-0.228857	-0.243526
C62	C	1.525516	0.271143	0.256474
C63	C	1.135242	-0.228850	-0.243516
C64	C	1.635242	0.271150	0.256484
C65	C	1.203718	-0.279462	-0.296992
C66	C	1.703718	0.220538	0.203008
C67	C	1.441233	-0.962865	-0.583319
C68	C	1.941233	-0.462865	-0.083319
C69	C	1.463487	-1.045416	-0.561148
C70	C	1.963487	-0.545416	-0.061148
C71	C	1.597922	-1.045394	-0.426902
C72	C	2.097922	-0.545394	0.073098
C73	C	1.575683	-0.962841	-0.449066
C74	C	2.075683	-0.462841	0.050934
C75	C	1.497337	-0.921583	-0.527275
C76	C	1.997337	-0.421583	-0.027275
C77	C	1.631787	-0.921559	-0.393021
C78	C	2.131787	-0.421559	0.106979
C79	C	1.609546	-0.839013	-0.415179
C80	C	2.109546	-0.339013	0.084821
C81	C	1.531201	-0.797750	-0.493383
C82	C	2.031201	-0.297750	0.006617
C83	C	1.475095	-0.839038	-0.549433
C84	C	1.975095	-0.339038	-0.049433
C85	C	1.710128	-0.962818	-0.314807
C86	C	2.210128	-0.462818	0.185193
C87	C	1.766232	-0.921536	-0.258762
C88	C	2.266232	-0.421536	0.241238
C89	C	1.743997	-0.838989	-0.280925
C90	C	2.243997	-0.338989	0.219075
C91	C	1.665651	-0.797726	-0.359129
C92	C	2.165651	-0.297726	0.140871
C93	C	1.800102	-0.797702	-0.224875
C94	C	2.300102	-0.297702	0.275125
C95	C	1.777861	-0.715156	-0.247033
C96	C	2.277861	-0.215156	0.252967
C97	C	1.643410	-0.715180	-0.381287
C98	C	2.143410	-0.215180	0.118713
C99	C	1.894739	-0.380698	-0.403972
C100	C	2.394739	0.119302	0.096028
C101	C	2.011517	-0.380703	-0.403979
C102	C	2.511517	0.119297	0.096021
C103	C	1.620761	-0.380610	-0.678010
C104	C	2.120761	0.119390	-0.178010
C105	C	1.620786	-0.380577	-0.794796
C106	C	2.120786	0.119423	-0.294796
C107	C	1.565386	-0.174529	-0.459348
C108	C	2.065386	0.325471	0.040652
C109	C	1.541814	-0.086676	-0.482953
C110	C	2.041814	0.413324	0.017047
C111	C	1.728052	-0.279493	-0.821985
C112	C	2.228052	0.220507	-0.321985
C113	C	1.781697	-0.228939	-0.890443
C114	C	2.281697	0.271061	-0.390443
C115	C	1.781715	-0.228910	-1.000173
C116	C	2.281715	0.271090	-0.500173
C117	C	1.728080	-0.279439	-1.041445
C118	C	2.228080	0.220561	-0.541445
C119	C	1.674435	-0.329993	-0.972987
C120	C	2.174435	0.170007	-0.472987
C121	C	1.674426	-0.330018	-0.863256
C122	C	2.174426	0.169982	-0.363256
C123	C	1.567164	-0.431072	-0.945799
C124	C	2.067164	0.068928	-0.445799
C125	C	1.567151	-0.431106	-0.836068
C126	C	2.067151	0.068894	-0.336068
C127	C	1.513529	-0.481601	-0.987072
C128	C	2.013529	0.018399	-0.487072
C129	C	1.459890	-0.532160	-0.918612
C130	C	1.959890	-0.032160	-0.418612
C131	C	1.459875	-0.532188	-0.808876
C132	C	1.959875	-0.032188	-0.308876
C133	C	1.513507	-0.481660	-0.767610
C134	C	2.013507	0.018340	-0.267610
C135	C	1.620690	-0.380708	-0.130983
C136	C	2.120690	0.119292	0.369017
C137	C	1.620809	-0.380518	-0.014258
C138	C	2.120809	0.119482	0.485742
H139	H	1.347539	-0.481918	-0.510907
H140	H	1.847539	0.018082	-0.010907
H141	H	0.894936	-0.279479	-0.297035
H142	H	1.394936	0.220521	0.202965
H143	H	1.272727	-0.573739	-0.607946
H144	H	1.772727	-0.073739	-0.107946
H145	H	1.073660	-0.573754	-0.607972
H146	H	1.573660	-0.073754	-0.107972
H147	H	1.293059	-0.279463	-0.296986
H148	H	1.793059	0.220537	0.203014
Cl149	Cl	1.392464	-0.595671	-0.970505
Cl150	Cl	1.892464	-0.095671	-0.470505
H151	H	1.863884	-0.831306	-0.161190
H152	H	2.363884	-0.331306	0.338810
H153	H	1.411305	-0.805444	-0.613127
H154	H	1.911305	-0.305444	-0.113127
Cl155	Cl	1.187076	-0.165209	-0.176281
Cl156	Cl	1.687076	0.334791	0.323719
Cl157	Cl	1.544925	-0.663307	-0.479619
Cl158	Cl	2.044925	-0.163307	0.020381
Cl159	Cl	1.342748	-0.910992	-0.681652
Cl160	Cl	1.842748	-0.410992	-0.181652
H161	H	1.416177	-0.573347	-0.753145
H162	H	1.916177	-0.073347	-0.253145
H163	H	1.825389	-0.187740	-1.055914
H164	H	2.325389	0.312260	-0.555914
H165	H	1.513542	-0.481571	-1.076421
H166	H	2.013542	0.018429	-0.576421
H167	H	1.513505	-0.481681	-0.678263
H168	H	2.013505	0.018319	-0.178263
Cl169	Cl	1.728092	-0.279394	-1.179394
Cl170	Cl	2.228092	0.220606	-0.679394
H171	H	0.949415	-0.481932	-0.510961
H172	H	1.449415	0.018068	-0.010961
H173	H	1.825363	-0.187798	-0.856827
H174	H	2.325363	0.312202	-0.356827
Cl175	Cl	1.392934	-1.097311	-0.631602
Cl176	Cl	1.892934	-0.597311	-0.131602
Cl177	Cl	1.728052	-0.279537	-0.684036
Cl178	Cl	2.228052	0.220463	-0.184036
Cl179	Cl	1.848382	-0.663255	-0.176566
Cl180	Cl	2.348382	-0.163255	0.323434
Cl181	Cl	1.738127	-1.066591	-0.286988
Cl182	Cl	2.238127	-0.566591	0.213012
Cl183	Cl	0.939419	-0.165229	-0.176314
Cl184	Cl	1.439419	0.334771	0.323686
H185	H	1.513086	-0.730536	-0.511415
H186	H	2.013086	-0.230536	-0.011415
H187	H	1.661709	-1.078997	-0.363221
H188	H	2.161709	-0.578997	0.136779
Cl189	Cl	1.864724	-0.973411	-0.160448
Cl190	Cl	2.364724	-0.473411	0.339552
