data_functionalizedCrystal
_audit_creation_method	'MofGen! by Chris Wilmer'
_symmetry_space_group_name_H-M	'P1'
_symmetry_Int_Tables_number	1
_symmetry_cell_setting	triclinic
loop_
_symmetry_equiv_pos_as_xyz
  x,y,z
_cell_length_a	8.559649
_cell_length_b	7.681481
_cell_length_c	8.559649
_cell_angle_alpha	85.095791
_cell_angle_beta	110.221336
_cell_angle_gamma	85.061486
loop_
_atom_site_label
_atom_site_type_symbol
_atom_site_fract_x
_atom_site_fract_y
_atom_site_fract_z
O1	O	-2.144129	0.146430	-0.072237
O2	O	-1.668644	0.146430	0.011544
O3	O	-1.948277	0.146428	-0.268089
O4	O	-1.864496	0.146432	0.207395
O5	O	-1.913762	-0.146429	-0.233690
O6	O	-1.634129	-0.146427	0.045943
O7	O	-2.109614	-0.146428	-0.037838
Zn8	Zn	-1.866392	-0.192925	0.009514
Zn9	Zn	-1.911866	0.192928	-0.035809
O10	O	-1.829981	-0.146426	0.241795
C11	C	-1.591078	0.000002	0.035093
C12	C	-1.411378	0.000002	0.053992
N13	N	-1.942904	0.456262	-0.066752
C14	C	-1.937369	0.000003	-0.311199
C15	C	-1.956269	0.000013	-0.490899
C16	C	-1.187180	0.000002	-0.061387
C17	C	-1.366880	0.000003	-0.080286
N18	N	-1.835369	-0.456259	0.040443
C19	C	-1.840889	0.000004	0.284904
C20	C	-1.821991	0.000006	0.464603
H21	H	-1.466259	0.000011	-0.209707
H22	H	-1.725607	0.468545	0.149867
C23	C	-1.277127	0.000004	0.228839
H24	H	-1.169906	-0.000006	0.219039
H25	H	-1.301355	0.102127	0.275679
H26	H	-1.277279	-0.102138	0.299663
C27	C	-1.647149	0.000013	-0.401162
H28	H	-1.565440	-0.000005	-0.453169
H29	H	-1.646099	0.102141	-0.345750
H30	H	-1.622028	-0.102123	-0.321754
C31	C	-2.091201	0.557844	-0.214575
H32	H	-2.087829	0.680805	-0.211206
H33	H	-2.083594	0.527702	-0.317273
H34	H	-2.193684	0.527712	-0.206416
C35	C	-2.131119	0.000002	-0.625143
H36	H	-2.212823	-0.000004	-0.573129
H37	H	-2.156244	0.102118	-0.704560
H38	H	-2.132164	-0.102146	-0.680541
