data_functionalizedCrystal
_audit_creation_method	'MofGen! by Chris Wilmer'
_symmetry_space_group_name_H-M	'P1'
_symmetry_Int_Tables_number	1
_symmetry_cell_setting	triclinic
loop_
_symmetry_equiv_pos_as_xyz
  x,y,z
_cell_length_a	14.519709
_cell_length_b	14.971506
_cell_length_c	13.448316
_cell_angle_alpha	89.992937
_cell_angle_beta	89.992453
_cell_angle_gamma	83.651266
loop_
_atom_site_label
_atom_site_type_symbol
_atom_site_fract_x
_atom_site_fract_y
_atom_site_fract_z
O1	O	0.120273	1.187004	-0.082701
O2	O	0.620273	1.687004	0.417299
O3	O	0.134645	0.926614	-0.082702
O4	O	0.634645	1.426614	0.417298
O5	O	-0.006783	1.063713	-0.082692
O6	O	0.493217	1.563713	0.417308
O7	O	0.261701	1.049905	-0.082710
O8	O	0.761701	1.549905	0.417290
O9	O	-0.006792	1.063696	0.082691
O10	O	0.493208	1.563696	0.582691
O11	O	0.134637	0.926597	0.082682
O12	O	0.634637	1.426597	0.582682
O13	O	0.120264	1.186987	0.082683
O14	O	0.620264	1.686987	0.582683
Cu15	Cu	0.127450	1.056790	0.097783
Cu16	Cu	0.627450	1.556790	0.597783
Cu17	Cu	0.127460	1.056811	-0.097802
Cu18	Cu	0.627460	1.556811	0.402198
O19	O	0.261692	1.049888	0.082673
O20	O	0.761692	1.549888	0.582673
C21	C	0.133995	0.893281	-0.000010
C22	C	0.633995	1.393281	0.499990
C23	C	0.132059	0.793984	-0.000010
C24	C	0.632059	1.293984	0.499990
C25	C	0.207756	0.355744	-0.000025
C26	C	0.707756	0.855744	0.499975
C27	C	0.209568	0.449045	-0.000029
C28	C	0.709568	0.949045	0.499971
C29	C	0.126474	0.506218	-0.000020
C30	C	0.626474	1.006218	0.499980
C31	C	0.041562	0.470086	-0.000015
C32	C	0.541562	0.970086	0.499985
C33	C	0.039750	0.376786	-0.000018
C34	C	0.539750	0.876786	0.499982
C35	C	0.045342	0.664551	-0.000007
C36	C	0.545342	1.164551	0.499993
C37	C	0.047153	0.757857	-0.000003
C38	C	0.547153	1.257857	0.499997
C39	C	0.215160	0.736810	-0.000019
C40	C	0.715160	1.236810	0.499981
C41	C	0.213349	0.643510	-0.000021
C42	C	0.713349	1.143510	0.499979
C43	C	0.128437	0.607384	-0.000015
C44	C	0.628437	1.107384	0.499985
C45	C	-0.041147	1.063061	-0.000000
C46	C	0.458853	1.563061	0.500000
C47	C	-0.143527	1.061132	0.000000
C48	C	0.356473	1.561132	0.500000
C49	C	-0.518419	1.054033	-0.000026
C50	C	-0.018419	1.554033	0.499974
C51	C	-0.414112	1.056005	-0.000018
C52	C	0.085888	1.556005	0.499982
C53	C	-0.330976	1.057583	-0.000012
C54	C	0.169024	1.557583	0.499988
C55	C	-0.226663	1.059555	-0.000006
C56	C	0.273337	1.559555	0.499994
C57	C	0.296056	1.050540	-0.000021
C58	C	0.796056	1.550540	0.499979
C59	C	0.398436	1.052468	-0.000028
C60	C	0.898436	1.552468	0.499972
C61	C	0.120914	1.220320	-0.000011
C62	C	0.620914	1.720320	0.499989
C63	C	0.122851	1.319617	-0.000018
C64	C	0.622851	1.819617	0.499982
N65	N	0.127442	1.056782	0.235348
N66	N	0.627442	1.556782	0.735348
N67	N	0.127460	1.056825	-0.235367
N68	N	0.627460	1.556825	0.264633
C69	C	0.064843	1.117509	0.287392
C70	C	0.564843	1.617509	0.787392
C71	C	0.064842	1.117514	0.391495
C72	C	0.564842	1.617514	0.891495
C73	C	0.127445	1.056797	0.443552
C74	C	0.627445	1.556797	0.943552
C75	C	0.190047	0.996064	0.391500
C76	C	0.690047	1.496064	0.891500
C77	C	0.190043	0.996055	0.287399
C78	C	0.690043	1.496055	0.787399
C79	C	0.190053	0.996089	0.608480
C80	C	0.690053	1.496089	1.108480
C81	C	0.190059	0.996099	0.712589
C82	C	0.690059	1.496099	1.212589
C83	C	0.064853	1.117548	0.712577
C84	C	0.564853	1.617548	1.212577
C85	C	0.064848	1.117539	0.608475
C86	C	0.564848	1.617539	1.108475
C87	C	0.127452	1.056807	0.556431
C88	C	0.627452	1.556807	1.056431
H89	H	-0.026095	0.516644	-0.000013
H90	H	0.473905	1.016644	0.499987
F91	F	0.301788	0.582663	-0.000027
F92	F	0.801788	1.082663	0.499973
H93	H	0.013869	1.166961	0.433869
H94	H	0.513869	1.666961	0.933869
H95	H	0.241029	0.946632	0.566109
H96	H	0.741029	1.446632	1.066109
F97	F	-0.041285	0.818704	0.000002
F98	F	0.458715	1.318704	0.500002
F99	F	0.256667	0.931419	0.232011
F100	F	0.756667	1.431419	0.732011
H101	H	-0.029388	0.347374	-0.000014
H102	H	0.470612	0.847374	0.499986
F103	F	-0.001774	1.182165	0.553072
F104	F	0.498226	1.682165	1.053072
F105	F	0.256689	0.931474	0.767984
F106	F	0.756689	1.431474	1.267984
H107	H	0.278707	0.478454	-0.000045
H108	H	0.778707	0.978454	0.499955
H109	H	0.013879	1.166998	0.754958
H110	H	0.513879	1.666998	1.254958
H111	H	-0.023802	0.635141	-0.000007
H112	H	0.476198	1.135141	0.499993
F113	F	-0.001785	1.182138	0.231999
F114	F	0.498215	1.682138	0.731999
H115	H	0.241017	0.946623	0.433891
H116	H	0.741017	1.446623	0.933891
H117	H	0.284299	0.766227	-0.000023
H118	H	0.784299	1.266227	0.499977
F119	F	0.296199	0.294903	-0.000028
F120	F	0.796199	0.794903	0.499972
