data_functionalizedCrystal
_audit_creation_method	'MofGen! by Chris Wilmer'
_symmetry_space_group_name_H-M	'P1'
_symmetry_Int_Tables_number	1
_symmetry_cell_setting	triclinic
loop_
_symmetry_equiv_pos_as_xyz
  x,y,z
_cell_length_a	12.827893
_cell_length_b	16.625546
_cell_length_c	12.827885
_cell_angle_alpha	90.035124
_cell_angle_beta	90.019272
_cell_angle_gamma	90.022439
loop_
_atom_site_label
_atom_site_type_symbol
_atom_site_fract_x
_atom_site_fract_y
_atom_site_fract_z
Zn1	Zn	1.597618	-0.320963	0.590810
Zn2	Zn	2.097618	0.179037	1.090810
Zn3	Zn	1.597491	-0.455817	0.416054
Zn4	Zn	2.097491	0.044183	0.916054
Zn5	Zn	1.422860	-0.321002	0.416084
Zn6	Zn	1.922860	0.178998	0.916084
Zn7	Zn	1.422823	-0.455757	0.590754
Zn8	Zn	1.922823	0.044243	1.090754
O9	O	1.510198	-0.388385	0.503425
O10	O	2.010198	0.111615	1.003425
O11	O	1.743837	-0.338861	0.567639
O12	O	2.243837	0.161139	1.067639
O13	O	1.574287	-0.437976	0.269822
O14	O	2.074287	0.062024	0.769822
O15	O	1.446110	-0.208165	0.439297
O16	O	1.946110	0.291835	0.939297
O17	O	1.743744	-0.437937	0.439247
O18	O	2.243744	0.062063	0.939247
O19	O	1.574505	-0.208136	0.567668
O20	O	2.074505	0.291864	1.067668
O21	O	1.445987	-0.338928	0.269843
O22	O	1.945987	0.161072	0.769843
O23	O	1.276619	-0.338869	0.439243
O24	O	1.776619	0.161131	0.939243
O25	O	1.446048	-0.437835	0.736997
O26	O	1.946048	0.062165	1.236997
O27	O	1.276592	-0.437873	0.567572
O28	O	1.776592	0.062127	1.067572
O29	O	1.574469	-0.338802	0.737039
O30	O	2.074469	0.161198	1.237039
O31	O	1.574252	-0.568642	0.439192
O32	O	2.074252	-0.068642	0.939192
O33	O	1.445925	-0.568598	0.567544
O34	O	1.945925	-0.068598	1.067544
C35	C	1.238688	-0.388370	0.503405
C36	C	1.738688	0.111630	1.003405
C37	C	1.122535	-0.388382	0.503422
C38	C	1.622535	0.111618	1.003422
C39	C	1.070765	-0.437449	0.566825
C40	C	1.570765	0.062551	1.066825
C41	C	0.950714	-0.437464	0.566844
C42	C	1.450714	0.062536	1.066844
C43	C	1.510099	-0.597876	0.503382
C44	C	2.010099	-0.097876	1.003382
C45	C	1.510152	-0.687497	0.503398
C46	C	2.010152	-0.187497	1.003398
C47	C	1.510335	-1.015673	0.503507
C48	C	2.010335	-0.515673	1.003507
C49	C	1.510281	-0.924364	0.503479
C50	C	2.010281	-0.424364	1.003479
C51	C	1.510243	-0.851588	0.503452
C52	C	2.010243	-0.351588	1.003452
C53	C	1.510190	-0.760274	0.503425
C54	C	2.010190	-0.260274	1.003425
C55	C	1.782768	-0.388401	0.503446
C56	C	2.282768	0.111599	1.003446
C57	C	1.898921	-0.388408	0.503455
C58	C	2.398921	0.111592	1.003455
C59	C	1.510269	-0.388308	0.775996
C60	C	2.010269	0.111692	1.275996
C61	C	1.510299	-0.388275	0.892149
C62	C	2.010299	0.111725	1.392149
C63	C	1.510326	-0.178076	0.503492
C64	C	2.010326	0.321924	1.003492
C65	C	1.510380	-0.088455	0.503521
C66	C	2.010380	0.411545	1.003521
C67	C	1.510187	-0.388404	0.231915
C68	C	2.010187	0.111596	0.731915
C69	C	1.510359	-0.388210	0.115763
C70	C	2.010359	0.111790	0.615763
C71	C	1.573853	-0.339261	0.943954
C72	C	2.073853	0.160739	1.443954
C73	C	1.573886	-0.339225	1.064004
C74	C	2.073886	0.160775	1.564004
H75	H	1.077981	-0.346382	0.449157
H76	H	1.577981	0.153618	0.949157
H77	H	0.906193	-0.479474	0.621123
H78	H	1.406193	0.020526	1.121123
O79	O	1.638750	-0.289048	1.117028
O80	O	2.138750	0.210952	1.617028
C81	C	1.689493	-0.151907	1.150718
C82	C	2.189493	0.348093	1.650718
C83	C	1.615984	-0.208644	1.090584
C84	C	2.115984	0.291356	1.590584
H85	H	1.671099	-0.086888	1.129377
H86	H	2.171099	0.413112	1.629377
H87	H	1.773779	-0.165994	1.129298
H88	H	2.273779	0.334006	1.629298
H89	H	1.677974	-0.160839	1.238064
H90	H	2.177974	0.339161	1.738064
H91	H	1.627411	-0.199744	1.003224
H92	H	2.127411	0.300256	1.503224
H93	H	1.531725	-0.194543	1.112090
H94	H	2.031725	0.305457	1.612090
H95	H	0.943436	-0.346401	0.449166
H96	H	1.443436	0.153599	0.949166
O97	O	1.638709	-0.289306	0.890685
O98	O	2.138709	0.210694	1.390685
C99	C	1.697740	-0.243740	0.722465
C100	C	2.197740	0.256260	1.222465
C101	C	1.624250	-0.300367	0.782658
C102	C	2.124250	0.199633	1.282658
H103	H	1.686059	-0.252650	0.635115
H104	H	2.186059	0.247350	1.135115
H105	H	1.782042	-0.257889	0.743788
H106	H	2.282042	0.242111	1.243788
H107	H	1.679471	-0.178709	0.743944
H108	H	2.179471	0.321291	1.243944
H109	H	1.642424	-0.365417	0.761212
H110	H	2.142424	0.134583	1.261212
H111	H	1.539970	-0.286148	0.761330
H112	H	2.039970	0.213852	1.261330
O113	O	1.124024	-0.487442	0.631622
O114	O	1.624024	0.012558	1.131622
C115	C	1.247400	-0.498313	0.772597
C116	C	1.747400	0.001687	1.272597
C117	C	1.187172	-0.441605	0.699263
C118	C	1.687172	0.058395	1.199263
H119	H	1.298453	-0.461276	0.827317
H120	H	1.798453	0.038724	1.327317
H121	H	1.298537	-0.540374	0.724523
H122	H	1.798537	-0.040374	1.224523
H123	H	1.189732	-0.535279	0.820290
H124	H	1.689732	-0.035279	1.320290
H125	H	1.244764	-0.404587	0.651554
H126	H	1.744764	0.095413	1.151554
H127	H	1.136019	-0.399597	0.747396
H128	H	1.636019	0.100403	1.247396
H129	H	1.455906	-0.430206	0.936673
H130	H	1.955906	0.069794	1.436673
O131	O	1.445589	-0.438316	1.062511
O132	O	1.945589	0.061684	1.562511
C133	C	1.431556	-0.547158	0.939165
C134	C	1.931556	-0.047158	1.439165
C135	C	1.505022	-0.490452	0.999400
C136	C	2.005022	0.009548	1.499400
H137	H	1.479579	-0.589335	0.888142
H138	H	1.979579	-0.089335	1.388142
H139	H	1.376988	-0.510160	0.887998
H140	H	1.876988	-0.010160	1.387998
H141	H	1.383706	-0.583998	0.996829
H142	H	1.883706	-0.083998	1.496829
H143	H	1.552940	-0.453599	0.941811
H144	H	2.052940	0.046401	1.441811
H145	H	1.559522	-0.527496	1.050582
H146	H	2.059522	-0.027496	1.550582
