data_functionalizedCrystal
_audit_creation_method	'MofGen! by Chris Wilmer'
_symmetry_space_group_name_H-M	'P1'
_symmetry_Int_Tables_number	1
_symmetry_cell_setting	triclinic
loop_
_symmetry_equiv_pos_as_xyz
  x,y,z
_cell_length_a	10.685904
_cell_length_b	16.625546
_cell_length_c	10.686551
_cell_angle_alpha	94.409858
_cell_angle_beta	98.408451
_cell_angle_gamma	94.389060
loop_
_atom_site_label
_atom_site_type_symbol
_atom_site_fract_x
_atom_site_fract_y
_atom_site_fract_z
Zn1	Zn	1.995765	-0.180723	0.866686
Zn2	Zn	1.979310	-0.326796	0.654401
Zn3	Zn	1.767185	-0.203165	0.638146
Zn4	Zn	1.783433	-0.326718	0.850311
O5	O	1.881423	-0.259350	0.752386
O6	O	2.171219	-0.190740	0.852181
O7	O	1.937486	-0.319821	0.474612
O8	O	1.797593	-0.087349	0.668512
O9	O	2.159130	-0.298059	0.696217
O10	O	1.965530	-0.070861	0.836419
O11	O	1.781638	-0.228990	0.462669
O12	O	1.591703	-0.228915	0.652634
O13	O	1.825285	-0.297926	1.030117
O14	O	1.603640	-0.319688	0.808511
O15	O	1.981284	-0.190665	1.042147
O16	O	1.953240	-0.439624	0.680339
O17	O	1.809330	-0.439567	0.824273
C18	C	1.551613	-0.276729	0.727033
C19	C	1.410521	-0.284181	0.716217
C20	C	1.881299	-0.468850	0.752324
C21	C	1.881365	-0.558467	0.752348
C22	C	1.881597	-0.886624	0.752498
C23	C	1.881529	-0.795321	0.752459
C24	C	1.881480	-0.722549	0.752422
C25	C	1.881414	-0.631239	0.752385
C26	C	2.212522	-0.241905	0.777839
C27	C	2.353616	-0.234471	0.788686
C28	C	1.906932	-0.241783	1.083478
C29	C	1.917803	-0.234297	1.224570
C30	C	1.881585	-0.049029	0.752479
C31	C	1.881653	0.040597	0.752519
C32	C	1.856086	-0.276787	0.422588
C33	C	1.845462	-0.284033	0.281516
H34	H	1.351299	-0.332437	0.645897
C35	C	1.750554	-0.349292	1.201569
H36	H	1.755445	-0.345928	1.114046
H37	H	1.770735	-0.401356	1.224637
H38	H	1.666919	-0.340841	1.216683
H39	H	1.988063	-0.185990	1.283762
H40	H	1.412844	-0.186206	0.859001
