data_functionalizedCrystal
_audit_creation_method	'MofGen! by Chris Wilmer'
_symmetry_space_group_name_H-M	'P1'
_symmetry_Int_Tables_number	1
_symmetry_cell_setting	triclinic
loop_
_symmetry_equiv_pos_as_xyz
  x,y,z
_cell_length_a	14.853567
_cell_length_b	14.044220
_cell_length_c	13.330367
_cell_angle_alpha	89.994700
_cell_angle_beta	89.995418
_cell_angle_gamma	88.411904
loop_
_atom_site_label
_atom_site_type_symbol
_atom_site_fract_x
_atom_site_fract_y
_atom_site_fract_z
O1	O	1.206175	0.123767	-0.083357
O2	O	0.944883	0.138510	-0.083374
O3	O	1.071607	-0.006851	-0.083356
O4	O	1.079451	0.269128	-0.083375
O5	O	1.071587	-0.006854	0.083491
O6	O	0.944863	0.138507	0.083473
O7	O	1.206154	0.123764	0.083490
Cu8	Cu	1.075507	0.131135	0.098716
Cu9	Cu	1.075531	0.131139	-0.098600
O10	O	1.079431	0.269125	0.083472
C11	C	0.911231	0.137841	0.000047
C12	C	0.810989	0.135839	0.000041
C13	C	0.390944	0.041029	0.000070
C14	C	0.383345	0.213721	0.000057
C15	C	0.477528	0.215604	0.000054
C16	C	0.528423	0.130197	0.000057
C17	C	0.485135	0.042908	0.000064
C18	C	0.520822	0.302891	0.000037
C19	C	0.615011	0.304777	0.000032
C20	C	0.665908	0.219369	0.000043
C21	C	0.622615	0.132077	0.000051
C22	C	0.673510	0.046670	0.000054
C23	C	0.630218	-0.040623	0.000069
C24	C	0.536032	-0.042499	0.000074
C25	C	0.760094	0.221246	0.000038
C26	C	0.767702	0.048550	0.000048
C27	C	1.068163	-0.042172	0.000068
C28	C	1.057921	-0.147411	0.000069
C29	C	1.039197	-0.340097	0.000053
C30	C	1.111836	-0.397635	0.000055
C31	C	1.101418	-0.504852	0.000046
C32	C	1.049614	-0.232870	0.000062
C33	C	1.239806	0.124433	0.000067
C34	C	1.340048	0.126435	0.000067
C35	C	1.082874	0.304446	0.000046
C36	C	1.093116	0.409685	0.000039
N37	N	1.075496	0.131132	0.237498
N38	N	1.075548	0.131135	-0.237381
C39	C	1.019413	0.195480	0.710112
C40	C	1.131672	0.066791	0.710097
C41	C	1.131662	0.066788	0.605078
C42	C	1.075527	0.131133	0.552572
C43	C	1.019403	0.195481	0.605084
C44	C	1.187792	0.002448	0.552558
C45	C	1.187785	0.002443	0.447534
C46	C	1.131644	0.066784	0.395025
C47	C	1.075517	0.131134	0.447544
C48	C	1.019382	0.195479	0.395038
C49	C	0.963249	0.259825	0.447555
C50	C	0.963262	0.259822	0.552576
C51	C	1.131631	0.066787	0.290004
C52	C	1.019372	0.195480	0.290010
H53	H	0.500776	-0.113569	0.000110
O54	O	1.204580	-0.356236	0.000079
H55	H	1.198319	-0.277298	0.000095
O56	O	0.902710	0.329226	0.390913
H57	H	0.863683	0.373975	0.445068
O58	O	0.328451	0.305832	0.000064
H59	H	0.285353	0.309108	-0.067933
O60	O	0.958814	0.264868	0.233375
H61	H	1.000459	0.311016	0.185504
O62	O	1.192215	-0.002603	0.766729
H63	H	1.263471	0.009617	0.746560
H64	H	1.233500	-0.049936	0.595312
O65	O	0.806782	0.315389	0.000026
H66	H	0.849511	0.320380	-0.067983
O67	O	0.946460	-0.381496	0.000062
H68	H	0.952728	-0.460434	0.000071
O69	O	0.465934	0.395005	0.000046
H70	H	0.393168	0.379031	0.000071
H71	H	0.917562	0.312211	0.595342
H72	H	0.973708	0.247867	0.752874
O73	O	1.248313	-0.066964	0.390891
H74	H	1.287342	-0.111712	0.445047
H75	H	0.650251	0.375856	0.000020
O76	O	0.822596	-0.043568	0.000053
H77	H	0.776667	-0.104578	0.000058
O78	O	0.685119	-0.132738	0.000082
H79	H	0.728217	-0.136007	-0.067923
O80	O	1.192150	-0.002611	0.233346
H81	H	1.263415	0.009591	0.253475
O82	O	0.344261	-0.053122	0.000087
H83	H	0.270216	-0.040087	0.000089
