data_functionalizedCrystal
_audit_creation_method	'MofGen! by Chris Wilmer'
_symmetry_space_group_name_H-M	'P1'
_symmetry_Int_Tables_number	1
_symmetry_cell_setting	triclinic
loop_
_symmetry_equiv_pos_as_xyz
  x,y,z
_cell_length_a	19.188930
_cell_length_b	9.065218
_cell_length_c	8.140239
_cell_angle_alpha	89.998314
_cell_angle_beta	89.983403
_cell_angle_gamma	84.080333
loop_
_atom_site_label
_atom_site_type_symbol
_atom_site_fract_x
_atom_site_fract_y
_atom_site_fract_z
O1	O	0.927574	0.184174	-0.137136
O2	O	0.724455	0.208967	-0.137023
O3	O	0.830213	-0.018217	-0.137078
O4	O	0.821816	0.411359	-0.137080
O5	O	0.830207	-0.018220	0.136149
O6	O	0.724449	0.208965	0.136205
O7	O	0.927568	0.184172	0.136091
Zn8	Zn	0.826008	0.196568	0.179529
Zn9	Zn	0.826016	0.196571	-0.180460
O10	O	0.821810	0.411356	0.136147
C11	C	0.698435	0.208163	-0.000395
C12	C	0.620912	0.205753	-0.000351
C13	C	0.829403	-0.073177	-0.000467
C14	C	0.826990	-0.236936	-0.000473
C15	C	0.577024	0.339058	-0.000378
C16	C	0.504182	0.336793	-0.000396
C17	C	0.475232	0.201217	-0.000421
C18	C	0.519130	0.067895	-0.000385
C19	C	0.591970	0.070163	-0.000350
N20	N	0.366449	0.097586	-0.093477
N21	N	0.297254	0.095441	-0.093514
C22	C	0.255771	0.194375	-0.000521
N23	N	0.286095	0.295558	0.092489
N24	N	0.355297	0.297708	0.092518
C25	C	0.396251	0.198742	-0.000457
C26	C	0.132899	0.325234	-0.000565
C27	C	0.060056	0.322964	-0.000572
C28	C	0.075006	0.054061	-0.000578
C29	C	0.147847	0.056335	-0.000554
C30	C	0.176789	0.191925	-0.000555
C31	C	0.953588	0.184976	-0.000540
C32	C	1.031112	0.187386	-0.000594
C33	C	0.822620	0.466316	-0.000468
C34	C	0.825033	0.630075	-0.000472
N35	N	0.826008	0.196565	0.425211
N36	N	0.826021	0.196563	-0.426143
H37	H	0.600583	0.449466	-0.000382
O38	O	0.046976	-0.077733	-0.000819
C39	C	0.037462	-0.308214	-0.142430
C40	C	0.069268	-0.159020	-0.142351
H41	H	0.055461	-0.373964	-0.256863
H42	H	0.055468	-0.374170	-0.028157
H43	H	-0.022137	-0.286907	-0.142374
H44	H	0.128868	-0.180192	-0.142464
H45	H	0.051207	-0.093111	-0.256614
O46	O	0.634636	-0.059296	-0.000048
C47	C	0.725557	-0.212749	0.141471
C48	C	0.677265	-0.066099	0.141359
H49	H	0.760044	-0.218284	0.255768
H50	H	0.692392	-0.310102	0.141560
H51	H	0.760020	-0.218384	0.027083
H52	H	0.642793	-0.060320	0.255727
H53	H	0.710471	0.031184	0.141183
O54	O	0.461639	0.466427	-0.000509
C55	C	0.454493	0.733376	-0.000454
C56	C	0.502750	0.586679	-0.000357
H57	H	0.487712	0.830638	-0.000296
H58	H	0.420059	0.739118	-0.114848
H59	H	0.419975	0.738966	0.113842
H60	H	0.537311	0.580991	-0.114575
H61	H	0.537136	0.580999	0.114114
O62	O	0.160938	0.457028	-0.000763
C63	C	0.170515	0.687516	-0.142338
C64	C	0.138703	0.538329	-0.142301
H65	H	0.152563	0.753276	-0.256777
H66	H	0.152469	0.753466	-0.028071
H67	H	0.230114	0.666198	-0.142241
H68	H	0.079103	0.559512	-0.142457
H69	H	0.156805	0.472425	-0.256559
O70	O	0.190514	-0.073118	-0.000261
C71	C	0.281432	-0.226576	0.141260
C72	C	0.233140	-0.079926	0.141149
H73	H	0.315918	-0.232114	0.255561
H74	H	0.248267	-0.323928	0.141342
H75	H	0.315897	-0.232208	0.026876
H76	H	0.198666	-0.074149	0.255514
H77	H	0.266347	0.017357	0.140981
H78	H	0.495555	-0.042493	-0.000427
O79	O	0.017390	0.452422	-0.000311
C80	C	-0.073583	0.605889	0.141133
C81	C	-0.025291	0.459239	0.141065
H82	H	-0.108114	0.611434	0.255406
H83	H	-0.040418	0.703241	0.141237
H84	H	-0.108004	0.611513	0.026721
H85	H	0.009138	0.453470	0.255458
H86	H	-0.058498	0.361955	0.140875
