data_functionalizedCrystal
_audit_creation_method	'MofGen! by Chris Wilmer'
_symmetry_space_group_name_H-M	'P1'
_symmetry_Int_Tables_number	1
_symmetry_cell_setting	triclinic
loop_
_symmetry_equiv_pos_as_xyz
  x,y,z
_cell_length_a	12.759401
_cell_length_b	16.120256
_cell_length_c	12.759400
_cell_angle_alpha	92.877147
_cell_angle_beta	90.013728
_cell_angle_gamma	92.881458
loop_
_atom_site_label
_atom_site_type_symbol
_atom_site_fract_x
_atom_site_fract_y
_atom_site_fract_z
Zn1	Zn	1.576121	-0.471337	-0.448456
Zn2	Zn	2.076121	0.028663	0.051544
Zn3	Zn	1.584928	-0.331931	-0.615235
Zn4	Zn	2.084928	0.168069	-0.115235
Zn5	Zn	1.409335	-0.331947	-0.439569
Zn6	Zn	1.909335	0.168053	0.060431
Zn7	Zn	1.400413	-0.471306	-0.624088
Zn8	Zn	1.900413	0.028694	-0.124088
O9	O	1.492699	-0.401630	-0.531837
O10	O	1.992699	0.098370	-0.031837
O11	O	1.724310	-0.452851	-0.470594
O12	O	2.224310	0.047149	0.029406
O13	O	1.569055	-0.215269	-0.584508
O14	O	2.069055	0.284731	-0.084508
O15	O	1.431507	-0.350456	-0.293728
O16	O	1.931507	0.149544	0.206272
O17	O	1.730780	-0.350430	-0.593126
O18	O	2.230780	0.149570	-0.093126
O19	O	1.554044	-0.452865	-0.300257
O20	O	2.054044	0.047135	0.199743
O21	O	1.440047	-0.215281	-0.455447
O22	O	1.940047	0.284719	0.044553
O23	O	1.261131	-0.350426	-0.464032
O24	O	1.761131	0.149574	0.035968
O25	O	1.416302	-0.587974	-0.608215
O26	O	1.916302	-0.087974	-0.108215
O27	O	1.254576	-0.452813	-0.599597
O28	O	1.754576	0.047187	-0.099597
O29	O	1.545393	-0.587996	-0.479178
O30	O	2.045393	-0.087996	0.020822
O31	O	1.560404	-0.350401	-0.763429
O32	O	2.060404	0.149599	-0.263429
O33	O	1.424842	-0.452798	-0.769934
O34	O	1.924842	0.047202	-0.269934
C35	C	1.219733	-0.401619	-0.531812
C36	C	1.719733	0.098381	-0.031812
C37	C	1.102955	-0.401633	-0.531827
C38	C	1.602955	0.098367	-0.031827
C39	C	1.044711	-0.455046	-0.468157
C40	C	1.544711	0.044954	0.031843
C41	C	0.934987	-0.455051	-0.468178
C42	C	1.434987	0.044949	0.031822
C43	C	0.941760	-0.348229	-0.595548
C44	C	1.441760	0.151771	-0.095548
C45	C	1.051482	-0.348220	-0.595521
C46	C	1.551482	0.151780	-0.095521
C47	C	1.040800	-0.516722	-0.394624
C48	C	1.540800	-0.016722	0.105376
C49	C	0.931076	-0.516727	-0.394645
C50	C	1.431076	-0.016727	0.105355
C51	C	1.478870	-0.619081	-0.545675
C52	C	1.978870	-0.119081	-0.045675
C53	C	1.472977	-0.711745	-0.551572
C54	C	1.972977	-0.211745	-0.051572
C55	C	1.523429	-0.922703	-0.501058
C56	C	2.023429	-0.422703	-0.001058
C57	C	1.462182	-0.881399	-0.562295
C58	C	1.962182	-0.381399	-0.062295
C59	C	1.468190	-0.786995	-0.556327
C60	C	1.968190	-0.286995	-0.056327
C61	C	1.517423	-1.017115	-0.507025
C62	C	2.017423	-0.517115	-0.007025
C63	C	1.766732	-0.401642	-0.531863
C64	C	2.266732	0.098358	-0.031863
C65	C	1.883508	-0.401647	-0.531875
C66	C	2.383508	0.098353	-0.031875
C67	C	1.492638	-0.401613	-0.804803
C68	C	1.992638	0.098387	-0.304803
C69	C	1.492706	-0.401633	-0.921581
C70	C	1.992706	0.098367	-0.421581
C71	C	1.506535	-0.185026	-0.517977
C72	C	2.006535	0.314974	-0.017977
C73	C	1.512632	-0.092362	-0.511784
C74	C	2.012632	0.407638	-0.011784
C75	C	1.563364	-0.348374	-0.973025
C76	C	2.063364	0.151626	-0.473025
C77	C	1.563427	-0.348399	-1.082751
C78	C	2.063427	0.151601	-0.582751
C79	C	1.422165	-0.454947	-1.089579
C80	C	1.922165	0.045053	-0.589579
C81	C	1.422108	-0.454924	-0.979856
C82	C	1.922108	0.045076	-0.479856
C83	C	1.644918	-0.286857	-0.969084
C84	C	2.144918	0.213143	-0.469084
C85	C	1.644981	-0.286882	-1.078810
C86	C	2.144981	0.213118	-0.578810
C87	C	1.492788	-0.401666	-0.257806
C88	C	1.992788	0.098334	0.242194
C89	C	1.492826	-0.401681	-0.141030
C90	C	1.992826	0.098319	0.358970
H91	H	1.070947	-0.578012	-0.427787
H92	H	1.570947	-0.078012	0.072213
H93	H	1.098901	-0.304718	-0.647357
H94	H	1.598901	0.195282	-0.147357
C95	C	1.621193	-0.199652	-1.113570
C96	C	2.121193	0.300348	-0.613570
H97	H	1.621248	-0.199671	-1.188029
H98	H	2.121248	0.300329	-0.688029
H99	H	1.554313	-0.185177	-1.087905
H100	H	2.054313	0.314823	-0.587905
H101	H	1.673361	-0.160293	-1.086233
H102	H	2.173361	0.339707	-0.586233
H103	H	0.899837	-0.304741	-0.647405
H104	H	1.399837	0.195259	-0.147405
H105	H	0.898506	-0.493716	-0.315841
H106	H	1.398506	0.006284	0.184159
C107	C	1.385256	-0.929398	-0.639182
C108	C	1.885256	-0.429398	-0.139182
H109	H	1.347615	-0.891067	-0.676816
H110	H	1.847615	-0.391067	-0.176816
H111	H	1.423314	-0.963376	-0.687064
H112	H	1.923314	-0.463376	-0.187064
H113	H	1.337366	-0.963358	-0.601090
H114	H	1.837366	-0.463358	-0.101090
H115	H	1.071666	-0.499540	-0.312119
H116	H	1.571666	0.000460	0.187881
C117	C	0.885311	-0.603904	-0.429848
C118	C	1.385311	-0.103904	0.070152
H119	H	0.940948	-0.639751	-0.444321
H120	H	1.440948	-0.139751	0.055679
H121	H	0.842581	-0.625451	-0.375596
H122	H	1.342581	-0.125451	0.124404
H123	H	0.844183	-0.600288	-0.491373
H124	H	1.344183	-0.100288	0.008627
C125	C	1.344397	-0.513517	-0.923266
C126	C	1.844397	-0.013517	-0.423266
H127	H	1.354479	-0.505879	-0.849573
H128	H	1.854479	-0.005879	-0.349573
H129	H	1.274604	-0.501283	-0.940528
H130	H	1.774604	-0.001283	-0.440528
H131	H	1.356183	-0.569546	-0.944775
H132	H	1.856183	-0.069546	-0.444775
H133	H	1.580372	-0.887166	-0.444155
H134	H	2.080372	-0.387166	0.055845
C135	C	1.344508	-0.513558	-1.153683
C136	C	1.844508	-0.013558	-0.653683
H137	H	1.354657	-0.505941	-1.226399
H138	H	1.854657	-0.005941	-0.726399
H139	H	1.356253	-0.569579	-1.139222
H140	H	1.856253	-0.069579	-0.639222
H141	H	1.274695	-0.501299	-1.134985
H142	H	1.774695	-0.001299	-0.634985
H143	H	1.720802	-0.310063	-1.114242
H144	H	2.220802	0.189937	-0.614242
C145	C	1.753298	-0.310290	-0.930245
C146	C	2.253298	0.189710	-0.430245
H147	H	1.797907	-0.319950	-0.988731
H148	H	2.297907	0.180050	-0.488731
H149	H	1.783167	-0.266112	-0.886074
H150	H	2.283167	0.233888	-0.386074
H151	H	1.745678	-0.359280	-0.891981
H152	H	2.245678	0.140720	-0.391981
C153	C	1.610883	-0.203966	-0.917900
C154	C	2.110883	0.296034	-0.417900
H155	H	1.595771	-0.167067	-0.971034
H156	H	2.095771	0.332933	-0.471034
H157	H	1.549969	-0.213822	-0.876661
H158	H	2.049969	0.286178	-0.376661
H159	H	1.665927	-0.179864	-0.874437
H160	H	2.165927	0.320136	-0.374437
