data_functionalizedCrystal
_audit_creation_method	'MofGen! by Chris Wilmer'
_symmetry_space_group_name_H-M	'P1'
_symmetry_Int_Tables_number	1
_symmetry_cell_setting	triclinic
loop_
_symmetry_equiv_pos_as_xyz
  x,y,z
_cell_length_a	12.759401
_cell_length_b	18.050589
_cell_length_c	12.759393
_cell_angle_alpha	90.029546
_cell_angle_beta	90.020938
_cell_angle_gamma	90.029746
loop_
_atom_site_label
_atom_site_type_symbol
_atom_site_fract_x
_atom_site_fract_y
_atom_site_fract_z
Zn1	Zn	1.606168	-0.295593	0.594027
Zn2	Zn	1.606017	-0.419801	0.418350
Zn3	Zn	1.430466	-0.295633	0.418362
Zn4	Zn	1.430417	-0.419749	0.593987
O5	O	1.518267	-0.357694	0.506182
O6	O	1.753169	-0.312075	0.570735
O7	O	1.582688	-0.403368	0.271331
O8	O	1.453857	-0.191703	0.441686
O9	O	1.753058	-0.403330	0.441666
O10	O	1.582944	-0.191674	0.570746
O11	O	1.453711	-0.312142	0.271339
O12	O	1.283439	-0.312092	0.441648
O13	O	1.453773	-0.403241	0.741014
O14	O	1.283402	-0.403280	0.570679
O15	O	1.582896	-0.312025	0.741043
O16	O	1.582640	-0.523719	0.441627
O17	O	1.453627	-0.523681	0.570667
C18	C	1.245300	-0.357685	0.506161
C19	C	1.128523	-0.357699	0.506177
C20	C	1.073670	-0.405253	0.573257
C21	C	0.963946	-0.405256	0.573278
C22	C	0.963938	-0.310149	0.439129
C23	C	1.073660	-0.310143	0.439114
C24	C	1.518140	-0.550646	0.506164
C25	C	1.518182	-0.633192	0.506192
C26	C	1.448094	-0.832649	0.576339
C27	C	1.422478	-0.882097	0.480470
C28	C	1.518285	-0.784322	0.506206
C29	C	1.543953	-0.881956	0.602085
C30	C	1.518383	-0.930307	0.506227
C31	C	1.492619	-0.832683	0.410286
C32	C	1.614139	-0.832538	0.531966
C33	C	1.588559	-0.881964	0.436031
C34	C	1.518226	-0.700224	0.506194
C35	C	1.518442	-1.014404	0.506228
C36	C	1.792300	-0.357704	0.506203
C37	C	1.909077	-0.357708	0.506212
C38	C	1.518346	-0.357623	0.780215
C39	C	1.518379	-0.357592	0.896992
C40	C	1.518423	-0.163989	0.506222
C41	C	1.518489	-0.081443	0.506239
C42	C	1.518249	-0.357712	0.233214
C43	C	1.518419	-0.357533	0.116438
C44	C	1.585619	-0.310088	0.951871
C45	C	1.585637	-0.310056	1.061595
C46	C	1.451172	-0.405039	1.061552
C47	C	1.451150	-0.405067	0.951829
H48	H	0.919255	-0.271432	0.384527
O49	O	1.385798	-0.451287	0.898676
C50	C	1.252387	-0.545464	0.910202
C51	C	1.326359	-0.493176	0.970529
H52	H	1.204296	-0.579333	0.968269
H53	H	1.300530	-0.584359	0.858860
H54	H	1.197517	-0.511363	0.858803
H55	H	1.381244	-0.527216	1.021985
H56	H	1.278151	-0.454278	1.021805
O57	O	1.569998	-0.907742	0.698775
C58	C	1.699613	-0.910623	0.836112
C59	C	1.670271	-0.881388	0.726593
H60	H	1.780675	-0.889315	0.858646
H61	H	1.700238	-0.973775	0.835038
H62	H	1.639601	-0.890379	0.895768
H63	H	1.730252	-0.901577	0.666876
H64	H	1.669612	-0.818237	0.727754
O65	O	1.650803	-0.263861	0.898649
C66	C	1.701935	-0.137545	0.865173
C67	C	1.628034	-0.189816	0.925487
H68	H	1.683567	-0.077669	0.886865
H69	H	1.690371	-0.145657	0.777311
H70	H	1.786638	-0.150621	0.886747
H71	H	1.543302	-0.176772	0.904000
H72	H	1.639688	-0.181694	1.013334
H73	H	1.388648	-0.810995	0.635565
H74	H	1.341464	-0.903882	0.458702
H75	H	1.118336	-0.443974	0.627867
H76	H	1.470854	-0.811128	0.329188
H77	H	1.640388	-0.271372	1.106272
O78	O	1.385973	-0.451133	1.114985
C79	C	1.326370	-0.493156	1.283998
C80	C	1.400278	-0.440927	1.223619
H81	H	1.337894	-0.484911	1.371839
H82	H	1.344765	-0.553062	1.262492
H83	H	1.241672	-0.480122	1.262352
H84	H	1.485001	-0.453893	1.245234
H85	H	1.381792	-0.381036	1.245131
H86	H	0.919289	-0.443978	0.627904
H87	H	1.647959	-0.903481	0.376662
O88	O	1.126789	-0.263923	0.373847
C89	C	1.115212	-0.169559	0.240836
C90	C	1.054913	-0.221876	0.314670
H91	H	1.057127	-0.135539	0.192987
H92	H	1.166506	-0.203570	0.185742
H93	H	1.166657	-0.130799	0.289180
H94	H	1.003411	-0.260646	0.266410
H95	H	1.003686	-0.187819	0.369766
H96	H	1.695134	-0.810755	0.553780
