data_functionalizedCrystal
_audit_creation_method	'MofGen! by Chris Wilmer'
_symmetry_space_group_name_H-M	'P1'
_symmetry_Int_Tables_number	1
_symmetry_cell_setting	triclinic
loop_
_symmetry_equiv_pos_as_xyz
  x,y,z
_cell_length_a	10.967819
_cell_length_b	11.026607
_cell_length_c	16.053802
_cell_angle_alpha	93.134017
_cell_angle_beta	75.280432
_cell_angle_gamma	96.381100
loop_
_atom_site_label
_atom_site_type_symbol
_atom_site_fract_x
_atom_site_fract_y
_atom_site_fract_z
O1	O	1.712798	0.147466	-0.315863
O2	O	2.212798	0.647466	0.184137
O3	O	1.350060	0.167596	-0.263674
O4	O	1.850060	0.667596	0.236326
O5	O	1.501365	-0.019054	-0.285440
O6	O	2.001365	0.480946	0.214560
O7	O	1.561492	0.334117	-0.294097
O8	O	2.061492	0.834117	0.205903
O9	O	1.493027	-0.008823	-0.145382
O10	O	1.993027	0.491177	0.354618
O11	O	1.341722	0.177828	-0.123615
O12	O	1.841722	0.677828	0.376385
O13	O	1.704460	0.157698	-0.175805
O14	O	2.204460	0.657698	0.324195
Zn15	Zn	1.521767	0.169387	-0.127473
Zn16	Zn	2.021767	0.669387	0.372527
Zn17	Zn	1.532753	0.155907	-0.312006
Zn18	Zn	2.032753	0.655907	0.187994
O19	O	1.553154	0.344348	-0.154038
O20	O	2.053154	0.844348	0.345962
C21	C	1.298730	0.172019	-0.186859
C22	C	1.798730	0.672019	0.313141
C23	C	1.158205	0.169940	-0.166641
C24	C	1.658205	0.669940	0.333359
C25	C	0.954642	0.161576	-0.209302
C26	C	1.454642	0.661576	0.290698
C27	C	1.099882	0.163716	-0.230193
C28	C	1.599882	0.663716	0.269807
C29	C	1.486104	-0.059124	-0.213816
C30	C	1.986104	0.440876	0.286184
C31	C	1.453037	-0.193765	-0.209061
C32	C	1.953037	0.306235	0.290939
C33	C	1.544340	-0.267775	-0.222199
C34	C	2.044340	0.232225	0.277801
C35	C	1.510167	-0.406933	-0.217285
C36	C	2.010167	0.093067	0.282715
C37	C	1.755789	0.153275	-0.252621
C38	C	2.255789	0.653275	0.247379
C39	C	1.896315	0.155353	-0.272844
C40	C	2.396315	0.655353	0.227156
C41	C	1.568416	0.384418	-0.225664
C42	C	2.068416	0.884418	0.274336
C43	C	1.601483	0.519058	-0.230424
C44	C	2.101483	1.019058	0.269576
N45	N	1.514279	0.178586	-0.001535
N46	N	2.014279	0.678586	0.498465
N47	N	1.540249	0.146698	-0.437944
N48	N	2.040249	0.646698	0.062056
C49	C	1.578696	0.099195	0.032892
C50	C	2.078696	0.599195	0.532892
C51	C	1.573472	0.105641	0.121050
C52	C	2.073472	0.605641	0.621050
C53	C	1.503838	0.191486	0.174779
C54	C	2.003838	0.691486	0.674779
C55	C	1.439413	0.270881	0.140347
C56	C	1.939413	0.770881	0.640347
C57	C	1.444630	0.264428	0.052191
C58	C	1.944630	0.764428	0.552191
C59	C	1.481041	0.219640	0.439468
C60	C	1.981041	0.719640	0.939468
C61	C	1.475831	0.226090	0.527628
C62	C	1.975831	0.726090	1.027628
C63	C	1.609890	0.060847	0.508326
C64	C	2.109890	0.560847	1.008326
C65	C	1.615107	0.054406	0.420169
C66	C	2.115107	0.554406	0.920169
C67	C	1.550676	0.133797	0.385745
C68	C	2.050676	0.633797	0.885745
N69	N	1.498500	0.198080	0.264890
N70	N	1.998500	0.698080	0.764890
N71	N	1.556008	0.127197	0.295636
N72	N	2.056008	0.627197	0.795636
H73	H	0.953905	0.151617	-0.342712
H74	H	1.453905	0.651617	0.157288
N75	N	1.176156	0.158751	-0.322746
N76	N	1.676156	0.658751	0.177254
H77	H	1.148384	0.080809	-0.351860
H78	H	1.648384	0.580809	0.148140
H79	H	1.162058	0.231188	-0.353768
H80	H	1.662058	0.731188	0.146232
H81	H	1.392173	0.329076	0.024162
H82	H	1.892173	0.829076	0.524162
N83	N	1.373098	-0.459434	-0.197567
N84	N	1.873098	0.040566	0.302433
H85	H	1.358389	-0.515069	-0.246926
H86	H	1.858389	-0.015069	0.253074
H87	H	1.352294	-0.507429	-0.143065
H88	H	1.852294	-0.007429	0.356935
H89	H	1.647807	-0.228115	-0.237080
H90	H	2.147807	0.271885	0.262920
H91	H	1.704961	-0.441295	-0.245375
H92	H	2.204961	0.058705	0.254625
N93	N	0.878282	0.165478	-0.116741
N94	N	1.378282	0.665478	0.383259
H95	H	0.785307	0.162891	-0.114933
H96	H	1.285307	0.662891	0.385067
H97	H	0.892910	0.092707	-0.086287
H98	H	1.392910	0.592707	0.413713
H99	H	1.349571	-0.233424	-0.194181
H100	H	1.849571	0.266576	0.305819
N101	N	1.653811	0.006611	-0.025057
N102	N	2.153811	0.506611	0.474943
H103	H	1.693824	-0.042706	0.010134
H104	H	2.193824	0.457294	0.510134
H105	H	1.595524	-0.049607	-0.052923
H106	H	2.095524	0.450393	0.447077
H107	H	1.625925	0.040993	0.149080
H108	H	2.125925	0.540993	0.649080
H109	H	1.428581	0.284286	0.411447
H110	H	1.928581	0.784286	0.911447
H111	H	1.100622	0.173692	-0.096769
H112	H	1.600622	0.673692	0.403231
N113	N	1.690214	-0.038182	0.362220
N114	N	2.190214	0.461818	0.862220
H115	H	1.730230	-0.087501	0.397407
H116	H	2.230230	0.412499	0.897407
H117	H	1.631925	-0.094398	0.334354
H118	H	2.131925	0.405602	0.834354
N119	N	1.679378	-0.024778	0.545454
N120	N	2.179378	0.475222	1.045454
H121	H	1.665510	-0.007669	0.609453
H122	H	2.165510	0.492331	1.109453
H123	H	1.646184	-0.111926	0.534962
H124	H	2.146184	0.388074	1.034962
H125	H	1.419124	0.296000	0.571372
H126	H	1.919124	0.796000	1.071372
N127	N	1.364295	0.363465	0.198293
N128	N	1.864295	0.863465	0.698293
H129	H	1.370766	0.355510	0.259364
H130	H	1.870766	0.855510	0.759364
H131	H	1.399308	0.448357	0.177966
H132	H	1.899308	0.948357	0.677966
