data_functionalizedCrystal
_audit_creation_method	'MofGen! by Chris Wilmer'
_symmetry_space_group_name_H-M	'P1'
_symmetry_Int_Tables_number	1
_symmetry_cell_setting	triclinic
loop_
_symmetry_equiv_pos_as_xyz
  x,y,z
_cell_length_a	16.120530
_cell_length_b	18.050589
_cell_length_c	18.050571
_cell_angle_alpha	89.916021
_cell_angle_beta	87.037076
_cell_angle_gamma	87.123928
loop_
_atom_site_label
_atom_site_type_symbol
_atom_site_fract_x
_atom_site_fract_y
_atom_site_fract_z
Zn1	Zn	1.274919	-0.352830	-0.477457
Zn2	Zn	1.274701	-0.477146	-0.353267
Zn3	Zn	1.135392	-0.346679	-0.346986
Zn4	Zn	1.135450	-0.470681	-0.471133
O5	O	1.205115	-0.411834	-0.412211
O6	O	1.391560	-0.374600	-0.466259
O7	O	1.256106	-0.459971	-0.248504
O8	O	1.153967	-0.243574	-0.364312
O9	O	1.391400	-0.465934	-0.375016
O10	O	1.256477	-0.248092	-0.460168
O11	O	1.153756	-0.364118	-0.243889
O12	O	1.018730	-0.357849	-0.358179
O13	O	1.154066	-0.454916	-0.575902
O14	O	1.018773	-0.448952	-0.449389
O15	O	1.256533	-0.368331	-0.580548
O16	O	1.256163	-0.580210	-0.368884
O17	O	1.153856	-0.575460	-0.455479
C18	C	0.988500	-0.402032	-0.402417
C19	C	0.895831	-0.397857	-0.398244
C20	C	0.726163	-0.390217	-0.390633
C21	C	0.684908	-0.433506	-0.433842
C22	C	0.590499	-0.429255	-0.429608
C23	C	0.820581	-0.394467	-0.394867
C24	C	1.205015	-0.604781	-0.412194
C25	C	1.205048	-0.687329	-0.412215
C26	C	1.149468	-0.884226	-0.459291
C27	C	1.129087	-0.932817	-0.390604
C28	C	1.205130	-0.838463	-0.412228
C29	C	1.225552	-0.936955	-0.480925
C30	C	1.205208	-0.984451	-0.412247
C31	C	1.184709	-0.885965	-0.343504
C32	C	1.281209	-0.890100	-0.433872
C33	C	1.260857	-0.938670	-0.365140
C34	C	1.205083	-0.754362	-0.412218
C35	C	1.205254	-1.068550	-0.412249
C36	C	1.422577	-0.421674	-0.422043
C37	C	1.515246	-0.425868	-0.426234
C38	C	1.205331	-0.411588	-0.605927
C39	C	1.205422	-0.411483	-0.688477
C40	C	1.205239	-0.218134	-0.412245
C41	C	1.205292	-0.135590	-0.412260
C42	C	1.204949	-0.412027	-0.219251
C43	C	1.205019	-0.411930	-0.136708
C44	C	1.149174	-0.359891	0.114597
C45	C	1.129243	-0.426924	0.066310
C46	C	1.205286	-0.411636	0.160399
C47	C	1.225046	-0.344751	0.061613
C48	C	1.205153	-0.411777	0.014421
C49	C	1.185316	-0.478702	0.113202
C50	C	1.281155	-0.396484	0.108507
C51	C	1.261252	-0.463565	0.060241
C52	C	1.205361	-0.411553	0.244494
C53	C	1.205078	-0.411866	-0.069672
H54	H	0.720491	-0.473759	-0.474017
C55	C	1.085784	-0.852032	-0.512970
N56	N	1.037815	-0.827780	-0.553396
H57	H	1.345354	-0.383583	0.127179
C58	C	1.042214	-0.958318	-0.365878
N59	N	0.976779	-0.977523	-0.347259
C60	C	1.161310	-0.855864	-0.265003
N61	N	1.143683	-0.833190	-0.205878
C62	C	1.324491	-0.970676	-0.311319
N63	N	1.372415	-0.994785	-0.270779
C64	C	1.247703	-0.268256	0.031052
N65	N	1.264763	-0.210638	0.008037
H66	H	1.065025	-0.439806	0.047656
C67	C	1.368051	-0.864563	-0.458631
N68	N	1.433459	-0.845323	-0.477290
C69	C	1.248847	-0.967175	-0.559400
N70	N	1.266386	-0.989933	-0.618508
C71	C	1.162556	-0.555214	0.143645
N72	N	1.145409	-0.612841	0.166576
H73	H	1.101744	-0.316123	0.138384
H74	H	1.308648	-0.507432	0.036593
H75	H	0.690582	-0.349967	-0.350463
