data_functionalizedCrystal
_audit_creation_method	'MofGen! by Chris Wilmer'
_symmetry_space_group_name_H-M	'P1'
_symmetry_Int_Tables_number	1
_symmetry_cell_setting	triclinic
loop_
_symmetry_equiv_pos_as_xyz
  x,y,z
_cell_length_a	16.992694
_cell_length_b	9.798715
_cell_length_c	16.992695
_cell_angle_alpha	89.996314
_cell_angle_beta	89.331777
_cell_angle_gamma	89.998094
loop_
_atom_site_label
_atom_site_type_symbol
_atom_site_fract_x
_atom_site_fract_y
_atom_site_fract_z
O1	O	1.050850	0.113321	-0.166915
O2	O	0.822450	0.113361	-0.165084
O3	O	0.935734	0.113331	-0.051799
O4	O	0.937565	0.113352	-0.280200
O5	O	0.935725	-0.113652	-0.051798
O6	O	0.822441	-0.113621	-0.165082
O7	O	1.050841	-0.113661	-0.166914
Zn8	Zn	0.936639	-0.149679	-0.165998
Zn9	Zn	0.936651	0.149380	-0.166000
O10	O	0.937556	-0.113630	-0.280198
C11	C	0.793085	-0.000125	-0.162727
C12	C	0.705600	-0.000110	-0.155699
C13	C	0.659610	-0.000104	-0.223517
C14	C	0.577409	-0.000124	-0.216908
C15	C	0.541201	-0.000139	-0.142480
C16	C	0.587198	-0.000148	-0.074657
C17	C	0.669397	-0.000138	-0.081267
C18	C	0.295886	-0.000178	-0.115086
C19	C	0.213681	-0.000183	-0.108481
C20	C	0.203898	-0.000162	-0.250732
C21	C	0.286099	-0.000144	-0.257336
C22	C	0.332089	-0.000160	-0.189512
N23	N	0.457178	-0.000154	-0.135723
N24	N	0.416110	-0.000154	-0.196270
N25	N	0.936637	-0.353779	-0.165997
C26	C	0.984986	-0.421561	-0.214105
C27	C	0.984998	-0.578723	-0.214104
C28	C	1.080205	-0.000172	-0.169270
C29	C	1.167690	-0.000178	-0.176299
C30	C	0.933374	-0.000160	-0.022439
C31	C	0.926345	-0.000158	0.065046
N32	N	0.936659	0.353479	-0.165995
C33	C	0.939917	-0.000137	-0.309559
C34	C	0.946945	-0.000129	-0.397044
C35	C	0.994163	-0.000172	0.111037
C36	C	0.987554	-0.000158	0.193238
C37	C	0.913127	-0.000140	0.229446
C38	C	0.845303	-0.000122	0.183449
C39	C	0.851913	-0.000127	0.101250
C40	C	0.885732	-0.000116	0.474760
C41	C	0.879127	-0.000116	0.556966
C42	C	1.021379	-0.000149	0.566749
C43	C	1.027982	-0.000161	0.484547
C44	C	0.960159	-0.000136	0.438558
N45	N	0.906369	-0.000130	0.313468
N46	N	0.966917	-0.000137	0.354537
H47	H	0.539966	-0.000118	-0.272133
O48	O	1.034321	-0.352145	-0.263353
C49	C	1.073669	-0.308067	-0.397660
C50	C	1.017760	-0.386785	-0.341973
H51	H	1.060289	-0.336022	-0.461237
H52	H	1.137199	-0.336097	-0.384101
H53	H	1.064875	-0.193718	-0.388863
H54	H	1.026484	-0.501153	-0.350739
H55	H	0.954251	-0.358641	-0.355546
H56	H	1.054770	-0.000194	0.081563
H57	H	0.706842	-0.000142	-0.026042
H58	H	0.557710	-0.000180	-0.014056
H59	H	0.818517	-0.000124	0.586443
O60	O	1.034493	-0.648101	-0.263204
C61	C	1.168989	-0.692123	-0.301895
C62	C	1.113023	-0.613441	-0.246251
H63	H	1.232493	-0.664151	-0.288197
H64	H	1.155743	-0.664077	-0.365491
H65	H	1.160160	-0.806478	-0.293153
H66	H	1.121821	-0.499068	-0.254922
H67	H	1.126283	-0.641601	-0.182675
O68	O	0.340517	0.000058	-0.049180
C69	C	0.373977	0.117596	0.070408
C70	C	0.323397	0.117515	-0.004212
H71	H	0.360143	0.212535	0.106793
H72	H	0.438962	0.117687	0.052956
H73	H	0.360233	0.022556	0.106745
H74	H	0.337073	0.212538	-0.040583
H75	H	0.258428	0.117353	0.013294
H76	H	0.895260	-0.588239	-0.124810
H77	H	0.830505	-0.000097	0.437325
H78	H	0.895255	-0.412101	-0.124807
O79	O	0.159340	-0.000096	-0.316691
C80	C	0.158313	-0.000166	-0.458482
C81	C	0.208867	-0.000203	-0.383845
H82	H	0.198335	-0.000282	-0.512794
H83	H	0.119597	0.094843	-0.459002
H84	H	0.119572	-0.095140	-0.458900
H85	H	0.247655	0.094706	-0.383378
H86	H	0.247531	-0.095276	-0.383354
H87	H	0.784703	-0.000099	0.212936
H88	H	0.796688	-0.000116	0.063804
O89	O	1.053513	-0.000240	0.237796
C90	C	1.195303	-0.000213	0.238825
C91	C	1.120667	-0.000150	0.188269
H92	H	1.249616	-0.000111	0.198804
H93	H	1.195812	-0.095225	0.277541
H94	H	1.195732	0.094759	0.277566
H95	H	1.120189	-0.095057	0.149482
H96	H	1.120188	0.094925	0.149606
O97	O	1.100262	-0.000410	0.449337
C98	C	1.190249	-0.117977	0.362170
C99	C	1.108376	-0.117876	0.402012
H100	H	1.196830	-0.212923	0.323886
H101	H	1.237625	-0.118069	0.409125
H102	H	1.196885	-0.022944	0.323961
H103	H	1.101664	-0.212892	0.440218
H104	H	1.061041	-0.117712	0.355018
O105	O	0.694652	-0.000148	-0.295877
C106	C	0.676263	-0.000054	-0.436272
C107	C	0.636480	-0.000031	-0.354371
H108	H	0.629249	0.000070	-0.483586
H109	H	0.714483	-0.095063	-0.442976
H110	H	0.714521	0.094921	-0.442883
H111	H	0.598183	-0.094942	-0.347705
H112	H	0.598308	0.095040	-0.347704
O113	O	0.321294	0.000144	-0.329623
C114	C	0.408414	0.117807	-0.419617
C115	C	0.368601	0.117635	-0.337730
H116	H	0.446684	0.212773	-0.426192
H117	H	0.361443	0.117910	-0.466976
H118	H	0.446633	0.022794	-0.426286
H119	H	0.330386	0.212631	-0.330985
H120	H	0.415612	0.117460	-0.290412
H121	H	1.076596	-0.000166	0.604202
H122	H	0.184203	-0.000194	-0.047870
