data_functionalizedCrystal
_audit_creation_method	'MofGen! by Chris Wilmer'
_symmetry_space_group_name_H-M	'P1'
_symmetry_Int_Tables_number	1
_symmetry_cell_setting	triclinic
loop_
_symmetry_equiv_pos_as_xyz
  x,y,z
_cell_length_a	18.101395
_cell_length_b	13.897449
_cell_length_c	13.897441
_cell_angle_alpha	89.978743
_cell_angle_beta	89.970274
_cell_angle_gamma	90.031931
loop_
_atom_site_label
_atom_site_type_symbol
_atom_site_fract_x
_atom_site_fract_y
_atom_site_fract_z
Zn1	Zn	-0.294797	1.474592	-0.545449
Zn2	Zn	-0.418650	1.474455	-0.384150
Zn3	Zn	-0.294829	1.313288	-0.384160
Zn4	Zn	-0.418603	1.313226	-0.545395
O5	O	-0.356720	1.393890	-0.464789
O6	O	-0.311233	1.609556	-0.524071
O7	O	-0.402258	1.453044	-0.249170
O8	O	-0.191192	1.334769	-0.405582
O9	O	-0.402227	1.609455	-0.405565
O10	O	-0.191168	1.453279	-0.524080
O11	O	-0.311287	1.334635	-0.249177
O12	O	-0.311241	1.178298	-0.405530
O13	O	-0.402146	1.334663	-0.680384
O14	O	-0.402177	1.178252	-0.523989
O15	O	-0.311187	1.453218	-0.680424
O16	O	-0.522277	1.452984	-0.405513
O17	O	-0.522242	1.334529	-0.523979
C18	C	-0.356708	1.143276	-0.464755
C19	C	-0.356721	1.036062	-0.464763
C20	C	-0.549130	1.393761	-0.464760
C21	C	-0.631444	1.393794	-0.464780
C22	C	-0.356724	0.948992	-0.464779
C23	C	-0.356729	0.839760	-0.464809
C24	C	-0.930535	1.394006	-0.464832
C25	C	-0.899219	1.319650	-0.539553
C26	C	-0.813601	1.319297	-0.539319
C27	C	-0.782153	1.393901	-0.464807
C28	C	-0.813308	1.366379	-0.363147
C29	C	-0.898953	1.365899	-0.363594
C30	C	-0.898877	1.496046	-0.490877
C31	C	-0.813226	1.495446	-0.493106
C32	C	-0.698293	1.393843	-0.464787
C33	C	-1.014395	1.394061	-0.464846
C34	C	-0.163558	1.394046	-0.464838
C35	C	-0.081244	1.394112	-0.464859
C36	C	-0.356658	1.393949	-0.716382
C37	C	-0.356631	1.393974	-0.823596
C38	C	-0.356732	1.645483	-0.464823
C39	C	-0.356737	1.752697	-0.464837
C40	C	-0.356610	1.393994	-0.910665
C41	C	-0.356577	1.394022	-1.019898
C42	C	-0.356728	1.393887	-0.214174
C43	C	-0.356546	1.394048	-0.106961
H44	H	-0.792534	1.336516	-0.614699
H45	H	-0.791924	1.292578	-0.340690
N46	N	-0.786243	1.522939	-0.592205
H47	H	-0.730473	1.525211	-0.592460
H48	H	-0.806454	1.588296	-0.609957
H49	H	-0.919671	1.417707	-0.306023
N50	N	-0.926434	1.342218	-0.639729
H51	H	-0.959330	1.400859	-0.637652
H52	H	-0.955327	1.285577	-0.665363
H53	H	-0.920807	1.244475	-0.522518
H54	H	-0.918997	1.291308	-0.341532
H55	H	-0.793179	1.243662	-0.522067
H56	H	-0.792939	1.418832	-0.305956
N57	N	-0.784862	1.572709	-0.426272
H58	H	-0.800699	1.557749	-0.358192
H59	H	-0.805741	1.637049	-0.446285
N60	N	-0.925699	1.569427	-0.418791
H61	H	-0.981456	1.571879	-0.419920
H62	H	-0.905134	1.634798	-0.435927
H63	H	-0.920422	1.521138	-0.563744
