data_functionalizedCrystal
_audit_creation_method	'MofGen! by Chris Wilmer'
_symmetry_space_group_name_H-M	'P1'
_symmetry_Int_Tables_number	1
_symmetry_cell_setting	triclinic
loop_
_symmetry_equiv_pos_as_xyz
  x,y,z
_cell_length_a	19.188930
_cell_length_b	19.188930
_cell_length_c	18.266242
_cell_angle_alpha	89.988525
_cell_angle_beta	89.977082
_cell_angle_gamma	83.144779
loop_
_atom_site_label
_atom_site_type_symbol
_atom_site_fract_x
_atom_site_fract_y
_atom_site_fract_z
O1	O	0.926149	0.087169	-0.061124
O2	O	1.426149	0.587169	0.438876
O3	O	0.722838	0.098903	-0.061075
O4	O	1.222838	0.598903	0.438925
O5	O	0.830361	-0.008620	-0.061087
O6	O	1.330361	0.491380	0.438913
O7	O	0.818627	0.194691	-0.061113
O8	O	1.318627	0.694691	0.438887
O9	O	0.830343	-0.008625	0.060675
O10	O	1.330343	0.491375	0.560675
O11	O	0.722820	0.098897	0.060687
O12	O	1.222820	0.598897	0.560687
O13	O	0.926131	0.087163	0.060638
O14	O	1.426131	0.587163	0.560638
Zn15	Zn	0.824473	0.093029	0.079994
Zn16	Zn	1.324473	0.593029	0.579994
Zn17	Zn	0.824497	0.093037	-0.080432
Zn18	Zn	1.324497	0.593037	0.419568
O19	O	0.818608	0.194686	0.060649
O20	O	1.318608	0.694686	0.560649
C21	C	0.696818	0.098520	-0.000188
C22	C	1.196818	0.598520	0.499812
C23	C	0.619313	0.097380	-0.000169
C24	C	1.119313	0.597380	0.499831
C25	C	0.574389	0.160470	-0.000188
C26	C	1.074389	0.660470	0.499812
C27	C	0.501566	0.159399	-0.000196
C28	C	1.001566	0.659399	0.499804
C29	C	0.473669	0.095233	-0.000199
C30	C	0.973669	0.595233	0.499801
C31	C	0.518603	0.032133	-0.000175
C32	C	1.018603	0.532133	0.499825
C33	C	0.591425	0.033207	-0.000160
C34	C	1.091425	0.533207	0.499840
N35	N	0.365695	0.046188	-0.041663
N36	N	0.865695	0.546188	0.458337
N37	N	0.296516	0.045172	-0.041679
N38	N	0.796516	0.545172	0.458321
C39	C	0.254260	0.091994	-0.000243
C40	C	0.754260	0.591994	0.499757
N41	N	0.283795	0.139881	0.041200
N42	N	0.783795	0.639881	0.541200
N43	N	0.352980	0.140899	0.041213
N44	N	0.852980	0.640899	0.541213
C45	C	0.394707	0.094062	-0.000215
C46	C	0.894707	0.594062	0.499785
C47	C	0.130372	0.153928	-0.000270
C48	C	0.630372	0.653928	0.499730
C49	C	0.057547	0.152853	-0.000274
C50	C	0.557547	0.652853	0.499726
C51	C	0.074586	0.025586	-0.000261
C52	C	0.574586	0.525586	0.499739
C53	C	0.147409	0.026662	-0.000250
C54	C	0.647409	0.526662	0.499750
C55	C	0.175298	0.090835	-0.000258
C56	C	0.675298	0.590835	0.499742
C57	C	0.829972	-0.034634	-0.000204
C58	C	1.329972	0.465366	0.499796
C59	C	0.828831	-0.112138	-0.000197
C60	C	1.328831	0.387862	0.499803
C61	C	0.891922	-0.157062	-0.000209
C62	C	1.391922	0.342938	0.499791
C63	C	0.890850	-0.229886	-0.000220
C64	C	1.390850	0.270114	0.499780
C65	C	0.826684	-0.257782	-0.000206
C66	C	1.326684	0.242218	0.499794
C67	C	0.763585	-0.212849	-0.000198
C68	C	1.263585	0.287151	0.499802
C69	C	0.764658	-0.140026	-0.000194
C70	C	1.264658	0.359974	0.499806
N71	N	0.777631	-0.365789	0.041244
N72	N	1.277631	0.134211	0.541244
N73	N	0.776615	-0.434968	0.041242
N74	N	1.276615	0.065032	0.541242
C75	C	0.823446	-0.477191	-0.000220
C76	C	1.323446	0.022809	0.499780
N77	N	0.871341	-0.447624	-0.041669
N78	N	1.371341	0.052376	0.458331
N79	N	0.872359	-0.378439	-0.041664
N80	N	1.372359	0.121561	0.458336
C81	C	0.825513	-0.336745	-0.000210
C82	C	1.325513	0.163255	0.499790
C83	C	0.885379	-0.601079	-0.000245
C84	C	1.385379	-0.101079	0.499755
C85	C	0.884305	-0.673904	-0.000261
C86	C	1.384305	-0.173904	0.499739
C87	C	0.757038	-0.656865	-0.000231
C88	C	1.257038	-0.156865	0.499769
C89	C	0.758114	-0.584042	-0.000222
C90	C	1.258114	-0.084042	0.499778
C91	C	0.822287	-0.556154	-0.000226
C92	C	1.322287	-0.056154	0.499774
C93	C	0.952151	0.087546	-0.000252
C94	C	1.452151	0.587546	0.499748
C95	C	1.029656	0.088687	-0.000276
C96	C	1.529656	0.588687	0.499724
C97	C	0.818997	0.220700	-0.000236
C98	C	1.318997	0.720700	0.499764
C99	C	0.820138	0.298204	-0.000247
C100	C	1.320138	0.798204	0.499753
N101	N	0.824461	0.093024	0.189481
N102	N	1.324461	0.593024	0.689481
N103	N	0.824513	0.093037	-0.189919
N104	N	1.324513	0.593037	0.310081
C105	C	0.872088	0.045436	0.227785
C106	C	1.372088	0.545436	0.727785
C107	C	0.872092	0.045433	0.304430
C108	C	1.372092	0.545433	0.804430
C109	C	0.824477	0.093030	0.342768
C110	C	1.324477	0.593030	0.842768
C111	C	0.776841	0.140621	0.304455
C112	C	1.276841	0.640621	0.804455
C113	C	0.776834	0.140618	0.227812
C114	C	1.276834	0.640618	0.727812
N115	N	0.815401	0.154837	0.463094
N116	N	1.315401	0.654837	0.963094
N117	N	0.815413	0.154838	0.535902
N118	N	1.315413	0.654838	1.035902
C119	C	0.824496	0.093040	0.573691
C120	C	1.324496	0.593040	1.073691
N121	N	0.833582	0.031239	0.535920
N122	N	1.333582	0.531239	1.035920
N123	N	0.833574	0.031240	0.463106
N124	N	1.333574	0.531240	0.963106
C125	C	0.824480	0.093038	0.425875
C126	C	1.324480	0.593038	0.925875
C127	C	0.872131	0.045444	0.695101
C128	C	1.372131	0.545444	1.195101
C129	C	0.872130	0.045440	0.771748
C130	C	1.372130	0.545440	1.271748
C131	C	0.776882	0.140634	0.771772
C132	C	1.276882	0.640634	1.271772
C133	C	0.776879	0.140632	0.695127
C134	C	1.276879	0.640632	1.195127
C135	C	0.824507	0.093038	0.656796
C136	C	1.324507	0.593038	1.156796
H137	H	0.051874	-0.026659	-0.000309
H138	H	0.551874	0.473341	0.499691
Br139	Br	0.712192	0.205206	0.175824
Br140	Br	1.212192	0.705206	0.675824
H141	H	0.704792	-0.679578	-0.000222
H142	H	1.204792	-0.179578	0.499778
Br143	Br	0.976479	-0.290866	-0.000240
Br144	Br	1.476479	0.209134	0.499760
H145	H	0.153080	0.206181	-0.000267
H146	H	0.653080	0.706181	0.499733
Br147	Br	0.979013	-0.119216	-0.000234
Br148	Br	1.479013	0.380784	0.499766
H149	H	0.183988	-0.024713	-0.000238
H150	H	0.683988	0.475287	0.499762
H151	H	0.628003	-0.018171	-0.000145
H152	H	1.128003	0.481829	0.499855
Br153	Br	0.712214	0.205212	0.356483
Br154	Br	1.212214	0.705212	0.856483
Br155	Br	0.612235	0.247561	-0.000198
Br156	Br	1.112235	0.747561	0.499802
Br157	Br	0.676502	-0.250706	-0.000187
Br158	Br	1.176502	0.249294	0.499813
Br159	Br	0.679028	-0.079054	-0.000180
Br160	Br	1.179028	0.420946	0.499820
Br161	Br	0.936765	-0.019149	0.643080
Br162	Br	1.436765	0.480851	1.143080
H163	H	0.935683	-0.710481	-0.000274
H164	H	1.435683	-0.210481	0.499726
Br165	Br	0.440585	0.245028	-0.000218
Br166	Br	0.940585	0.745028	0.499782
Br167	Br	0.972468	-0.563226	-0.000242
Br168	Br	1.472468	-0.063226	0.499758
H169	H	0.706738	-0.547464	-0.000208
H170	H	1.206738	-0.047464	0.499792
H171	H	0.910868	0.006681	0.196579
H172	H	1.410868	0.506681	0.696579
H173	H	0.020970	0.204232	-0.000285
H174	H	0.520970	0.704232	0.499715
H175	H	0.910877	0.006680	0.335623
H176	H	1.410877	0.506680	0.835623
Br177	Br	0.936765	-0.019154	0.823736
Br178	Br	1.436765	0.480846	1.323736
Br179	Br	0.712253	0.205223	0.823796
Br180	Br	1.212253	0.705223	1.323796
H181	H	0.738100	0.179386	0.663938
H182	H	1.238100	0.679386	1.163938
Br183	Br	0.480745	-0.054950	-0.000172
Br184	Br	0.980745	0.445050	0.499828
