data_functionalizedCrystal
_audit_creation_method	'MofGen! by Chris Wilmer'
_symmetry_space_group_name_H-M	'P1'
_symmetry_Int_Tables_number	1
_symmetry_cell_setting	triclinic
loop_
_symmetry_equiv_pos_as_xyz
  x,y,z
_cell_length_a	13.897448
_cell_length_b	11.169417
_cell_length_c	11.169409
_cell_angle_alpha	90.020253
_cell_angle_beta	89.964482
_cell_angle_gamma	89.981058
loop_
_atom_site_label
_atom_site_type_symbol
_atom_site_fract_x
_atom_site_fract_y
_atom_site_fract_z
Zn1	Zn	-0.383905	-1.834910	-0.678506
Zn2	Zn	-0.050572	-1.501576	-0.345172
Zn3	Zn	0.282761	-1.168243	-0.011839
Zn4	Zn	-0.545241	-1.834771	-0.477811
Zn5	Zn	-0.211907	-1.501437	-0.144478
Zn6	Zn	0.121426	-1.168104	0.188855
Zn7	Zn	-0.383965	-1.634193	-0.477841
Zn8	Zn	-0.050632	-1.300860	-0.144508
Zn9	Zn	0.282702	-0.967526	0.188825
Zn10	Zn	-0.545163	-1.634177	-0.678457
Zn11	Zn	-0.211830	-1.300844	-0.345124
Zn12	Zn	0.121503	-0.967511	-0.011791
O13	O	-0.464569	-1.734513	-0.578154
O14	O	-0.131235	-1.401179	-0.244821
O15	O	0.202098	-1.067846	0.088513
O16	O	-0.405314	-2.002841	-0.651891
O17	O	-0.071981	-1.669508	-0.318558
O18	O	0.261353	-1.336174	0.014776
O19	O	-0.523904	-1.808112	-0.309865
O20	O	-0.190571	-1.474779	0.023468
O21	O	0.142762	-1.141445	0.356801
O22	O	-0.248975	-1.660883	-0.504493
O23	O	0.084358	-1.327550	-0.171159
O24	O	0.417691	-0.994217	0.162174
O25	O	-0.523847	-2.002739	-0.504442
O26	O	-0.190513	-1.669406	-0.171108
O27	O	0.142820	-1.336072	0.162225
O28	O	-0.248931	-1.808349	-0.651920
O29	O	0.084402	-1.475016	-0.318587
O30	O	0.417735	-1.141682	0.014747
O31	O	-0.405416	-1.660748	-0.309887
O32	O	-0.072082	-1.327415	0.023446
O33	O	0.261251	-0.994082	0.356779
O34	O	-0.405341	-1.466241	-0.504446
O35	O	-0.072007	-1.132908	-0.171112
O36	O	0.261326	-0.799575	0.162221
O37	O	-0.523715	-1.660857	-0.846414
O38	O	-0.190382	-1.327523	-0.513080
O39	O	0.142952	-0.994190	-0.179747
O40	O	-0.523773	-1.466230	-0.651837
O41	O	-0.190439	-1.132896	-0.318504
O42	O	0.142894	-0.799563	0.014829
O43	O	-0.405239	-1.808334	-0.846449
O44	O	-0.071906	-1.475000	-0.513116
O45	O	0.261428	-1.141667	-0.179782
O46	O	-0.680212	-1.808097	-0.504395
O47	O	-0.346879	-1.474764	-0.171061
O48	O	-0.013545	-1.141430	0.162272
O49	O	-0.680155	-1.660722	-0.651808
O50	O	-0.346822	-1.327388	-0.318475
O51	O	-0.013489	-0.994055	0.014858
C52	C	-0.715183	-1.734425	-0.578119
C53	C	-0.381850	-1.401092	-0.244786
C54	C	-0.048516	-1.067758	0.088547
C55	C	-0.822397	-1.734497	-0.578144
C56	C	-0.489063	-1.401164	-0.244811
C57	C	-0.155730	-1.067831	0.088522
C58	C	-0.464556	-1.422688	-0.578140
C59	C	-0.131222	-1.089355	-0.244807
C60	C	0.202111	-0.756021	0.088527
C61	C	-0.464573	-1.289288	-0.578163
C62	C	-0.131240	-0.955955	-0.244829
C63	C	0.202093	-0.622621	0.088504
C64	C	-0.464462	-1.734609	-0.891196
C65	C	-0.131128	-1.401276	-0.557863
C66	C	0.202205	-1.067942	-0.224530
C67	C	-0.464416	-1.734650	-1.024597
C68	C	-0.131083	-1.401317	-0.691263
C69	C	0.202251	-1.067983	-0.357930
C70	C	-1.018692	-1.734623	-0.578220
C71	C	-0.685359	-1.401290	-0.244886
C72	C	-0.352025	-1.067957	0.088447
C73	C	-0.909459	-1.734550	-0.578181
C74	C	-0.576126	-1.401217	-0.244848
C75	C	-0.242793	-1.067883	0.088485
C76	C	-0.212976	-1.734633	-0.578215
C77	C	0.120358	-1.401300	-0.244882
C78	C	0.453691	-1.067967	0.088452
C79	C	-0.105762	-1.734685	-0.578241
C80	C	0.227572	-1.401351	-0.244908
C81	C	0.560905	-1.068018	0.088426
C82	C	-0.464582	-2.047555	-0.578168
C83	C	-0.131249	-1.714222	-0.244835
C84	C	0.202084	-1.380888	0.088498
C85	C	-0.464588	-2.180955	-0.578175
C86	C	-0.131255	-1.847622	-0.244841
C87	C	0.202078	-1.514288	0.088492
C88	C	-0.464605	-1.734486	-0.266329
C89	C	-0.131272	-1.401153	0.067004
C90	C	0.202061	-1.067819	0.400338
C91	C	-0.464379	-1.734678	-0.132930
C92	C	-0.131046	-1.401344	0.200404
C93	C	0.202287	-1.068011	0.533737
