data_functionalizedCrystal
_audit_creation_method	'MofGen! by Chris Wilmer'
_symmetry_space_group_name_H-M	'P1'
_symmetry_Int_Tables_number	1
_symmetry_cell_setting	triclinic
loop_
_symmetry_equiv_pos_as_xyz
  x,y,z
_cell_length_a	10.489741
_cell_length_b	19.188930
_cell_length_c	9.565339
_cell_angle_alpha	89.995116
_cell_angle_beta	89.999100
_cell_angle_gamma	83.841978
loop_
_atom_site_label
_atom_site_type_symbol
_atom_site_fract_x
_atom_site_fract_y
_atom_site_fract_z
O1	O	1.691850	0.098497	-0.116191
O2	O	1.320448	0.107743	-0.116215
O3	O	1.516867	0.001537	-0.116175
O4	O	1.495431	0.204704	-0.116231
O5	O	1.516852	0.001543	0.116345
O6	O	1.320432	0.107750	0.116305
O7	O	1.691835	0.098504	0.116329
Zn8	Zn	1.506131	0.103128	0.153235
Zn9	Zn	1.506152	0.103119	-0.153121
O10	O	1.495416	0.204711	0.116289
C11	C	1.272924	0.107048	0.000043
C12	C	1.131341	0.104959	0.000035
C13	C	1.516165	-0.024476	0.000089
C14	C	1.514081	-0.101994	0.000101
C15	C	1.064712	0.037383	0.000067
C16	C	0.971879	0.069302	-0.114584
C17	C	0.971898	0.069325	0.114663
C18	C	1.040373	0.136906	-0.114710
C19	C	1.040401	0.136919	0.114640
C20	C	0.947595	0.168887	-0.000039
C21	C	1.629334	-0.146146	0.000115
C22	C	1.627376	-0.218983	0.000092
C23	C	1.510159	-0.247665	0.000084
C24	C	1.394892	-0.203503	0.000062
C25	C	1.396853	-0.130668	0.000071
N26	N	1.420556	-0.356268	0.079209
N27	N	1.418701	-0.425459	0.079204
C28	C	1.504244	-0.467113	0.000055
N29	N	1.591732	-0.436964	-0.079071
N30	N	1.593590	-0.367767	-0.079059
C31	C	1.508020	-0.326642	0.000074
C32	C	1.617382	-0.590244	0.000043
C33	C	1.615419	-0.663081	0.000012
C34	C	1.382932	-0.647600	-0.000004
C35	C	1.384898	-0.574764	0.000013
C36	C	1.502126	-0.546090	0.000043
C37	C	1.739359	0.099199	0.000068
C38	C	1.880941	0.101288	0.000067
C39	C	1.496118	0.230723	0.000022
C40	C	1.498202	0.308242	0.000001
N41	N	1.506127	0.103134	0.362314
N42	N	1.506166	0.103108	-0.362200
C43	C	1.415262	0.152234	0.453499
C44	C	1.530443	0.166361	0.546681
C45	C	1.390995	0.089012	0.546688
C46	C	1.621366	0.117292	0.453444
C47	C	1.481842	0.039916	0.453443
C48	C	1.597107	0.054016	0.546583
H49	H	1.115644	-0.018169	-0.000061
H50	H	0.941511	0.040706	-0.211499
C51	C	1.752943	0.133507	0.398358
H52	H	1.752110	0.133443	0.299042
H53	H	1.817531	0.098830	0.430971
H54	H	1.770346	0.178265	0.431059
C55	C	1.454009	-0.032266	0.398058
H56	H	1.372114	-0.042220	0.429926
H57	H	1.517731	-0.067251	0.431313
H58	H	1.454975	-0.031851	0.298751
C59	C	1.701041	-0.002092	0.601466
H60	H	1.782752	0.008047	0.569365
H61	H	1.684471	-0.046873	0.568130
H62	H	1.700035	-0.002052	0.700777
H63	H	1.551011	0.219812	0.587634
H64	H	1.302998	-0.094719	0.000060
H65	H	1.712836	-0.566896	0.000061
H66	H	1.724790	-0.122805	0.000135
H67	H	1.299453	-0.226861	0.000052
C68	C	1.742200	-0.711652	0.000011
H69	H	1.724246	-0.759138	-0.000019
H70	H	1.790279	-0.702906	0.081102
H71	H	1.790284	-0.702885	-0.081078
C72	C	1.081149	0.175495	-0.245808
H73	H	1.007585	0.190291	-0.300482
H74	H	1.139083	0.144792	-0.299393
H75	H	1.121918	0.215217	-0.218419
H76	H	1.287492	-0.670952	-0.000018
H77	H	0.896927	0.224498	-0.000117
C78	C	1.754158	-0.267559	0.000118
H79	H	1.824254	-0.240050	0.000145
H80	H	1.758239	-0.296292	-0.080965
H81	H	1.758204	-0.296295	0.081215
C82	C	1.258119	-0.526195	0.000021
H83	H	1.188026	-0.553706	0.000025
H84	H	1.254052	-0.497452	-0.081057
H85	H	1.254052	-0.497469	0.081123
H86	H	1.070802	0.165492	0.211559
H87	H	1.338490	0.193796	0.412628
H88	H	0.941553	0.040722	0.211592
C89	C	1.259445	0.072882	0.602004
H90	H	1.194976	0.107821	0.570112
H91	H	1.260627	0.072562	0.701304
H92	H	1.241563	0.028317	0.568688
