data_functionalizedCrystal
_audit_creation_method	'MofGen! by Chris Wilmer'
_symmetry_space_group_name_H-M	'P1'
_symmetry_Int_Tables_number	1
_symmetry_cell_setting	triclinic
loop_
_symmetry_equiv_pos_as_xyz
  x,y,z
_cell_length_a	12.759401
_cell_length_b	19.077442
_cell_length_c	19.076919
_cell_angle_alpha	89.933452
_cell_angle_beta	87.717257
_cell_angle_gamma	87.725546
loop_
_atom_site_label
_atom_site_type_symbol
_atom_site_fract_x
_atom_site_fract_y
_atom_site_fract_z
Zn1	Zn	1.600709	-0.295734	0.386050
Zn2	Zn	2.100709	0.204266	0.886050
Zn3	Zn	1.614678	-0.408522	0.263830
Zn4	Zn	2.114678	0.091478	0.763830
Zn5	Zn	1.431790	-0.291033	0.268561
Zn6	Zn	1.931790	0.208967	0.768561
Zn7	Zn	1.432295	-0.413202	0.381301
Zn8	Zn	1.932295	0.086798	0.881301
O9	O	1.519868	-0.352123	0.324935
O10	O	2.019868	0.147877	0.824935
O11	O	1.749583	-0.310705	0.369845
O12	O	2.249583	0.189295	0.869845
O13	O	1.596052	-0.389010	0.166126
O14	O	2.096052	0.110990	0.666126
O15	O	1.448139	-0.193326	0.288114
O16	O	1.948139	0.306674	0.788114
O17	O	1.759846	-0.393569	0.280050
O18	O	2.259846	0.106431	0.780050
O19	O	1.572244	-0.196781	0.374433
O20	O	2.072244	0.303219	0.874433
O21	O	1.461685	-0.302691	0.169602
O22	O	1.961685	0.197309	0.669602
O23	O	1.284836	-0.307230	0.283509
O24	O	1.784836	0.192770	0.783509
O25	O	1.449001	-0.401546	0.480262
O26	O	1.949001	0.098454	0.980262
O27	O	1.285207	-0.396987	0.366338
O28	O	1.785207	0.103013	0.866338
O29	O	1.572734	-0.315243	0.483752
O30	O	2.072734	0.184757	0.983752
O31	O	1.596543	-0.507472	0.275445
O32	O	2.096543	-0.007472	0.775445
O33	O	1.462547	-0.510911	0.361750
O34	O	1.962547	-0.010911	0.861750
C35	C	1.246901	-0.352106	0.324922
C36	C	1.746901	0.147894	0.824922
C37	C	1.130124	-0.352117	0.324932
C38	C	1.630124	0.147883	0.824932
C39	C	0.965299	-0.305341	0.281897
C40	C	1.465299	0.194659	0.781897
C41	C	1.075022	-0.305325	0.281887
C42	C	1.575022	0.194675	0.781887
C43	C	1.075496	-0.398924	0.367995
C44	C	1.575496	0.101076	0.867995
C45	C	0.965774	-0.398937	0.368008
C46	C	1.465774	0.101063	0.868008
C47	C	1.221254	-0.221401	0.260238
C48	C	1.721254	0.278599	0.760238
C49	C	1.275879	-0.174601	0.217169
C50	C	1.775879	0.325399	0.717169
C51	C	1.243493	-0.160973	0.149066
C52	C	1.743493	0.339027	0.649066
C53	C	1.156486	-0.194153	0.124017
C54	C	1.656486	0.305847	0.624017
C55	C	1.101867	-0.240958	0.167082
C56	C	1.601867	0.259042	0.667082
C57	C	1.134250	-0.254573	0.235196
C58	C	1.634250	0.245427	0.735196
C59	C	0.819540	-0.482862	0.389650
C60	C	1.319540	0.017138	0.889650
C61	C	0.764920	-0.529670	0.432712
C62	C	1.264920	-0.029670	0.932712
C63	C	0.797304	-0.543306	0.500816
C64	C	1.297304	-0.043306	1.000816
C65	C	0.884316	-0.510137	0.525862
C66	C	1.384316	-0.010137	1.025862
C67	C	0.938936	-0.463329	0.482800
C68	C	1.438936	0.036671	0.982800
C69	C	0.906545	-0.449692	0.414696
C70	C	1.406545	0.050308	0.914696
C71	C	1.531143	-0.534688	0.317584
C72	C	2.031143	-0.034688	0.817584
C73	C	1.536061	-0.612791	0.314462
C74	C	2.036061	-0.112791	0.814462
C75	C	1.571264	-1.052234	0.292053
C76	C	2.071264	-0.552234	0.792053
C77	C	1.566633	-0.978848	0.294988
C78	C	2.066633	-0.478848	0.794988
C79	C	1.494508	-0.943972	0.341355
C80	C	1.994508	-0.443972	0.841355
C81	C	1.427002	-0.982485	0.384786
C82	C	1.927002	-0.482485	0.884786
C83	C	1.431628	-1.055870	0.381848
C84	C	1.931628	-0.555870	0.881848
C85	C	1.473182	-0.724690	0.354955
C86	C	1.973182	-0.224690	0.854955
C87	C	1.468563	-0.651300	0.357892
C88	C	1.968563	-0.151300	0.857892
C89	C	1.608193	-0.647667	0.268092
C90	C	2.108193	-0.147667	0.768092
C91	C	1.612817	-0.721054	0.265160
C92	C	2.112817	-0.221054	0.765160
C93	C	1.545307	-0.759561	0.308589
C94	C	2.045307	-0.259561	0.808589
N95	N	1.489776	-0.868959	0.344358
N96	N	1.989776	-0.368959	0.844358
N97	N	1.550036	-0.834572	0.305582
N98	N	2.050036	-0.334572	0.805582
C99	C	1.793902	-0.352139	0.324949
C100	C	2.293902	0.147861	0.824949
C101	C	1.910678	-0.352147	0.324955
C102	C	2.410678	0.147853	0.824955
C103	C	1.509366	-0.359441	0.508216
C104	C	2.009366	0.140559	1.008216
C105	C	1.504890	-0.362560	0.586319
C106	C	2.004890	0.137440	1.086319
C107	C	1.508577	-0.168845	0.332331
C108	C	2.008577	0.331155	0.832331
C109	C	1.503765	-0.090743	0.335482
C110	C	2.003765	0.409257	0.835482
C111	C	1.530387	-0.344782	0.142370
C112	C	2.030387	0.155218	0.642370
C113	C	1.535054	-0.341465	0.064275
C114	C	2.035054	0.158535	0.564275
C115	C	1.567205	-0.319094	0.624830
C116	C	2.067205	0.180906	1.124830
C117	C	1.562987	-0.322021	0.698217
C118	C	2.062987	0.177979	1.198217
C119	C	1.496459	-0.368419	0.733091
C120	C	1.996459	0.131581	1.233091
C121	C	1.434137	-0.411887	0.694575
C122	C	1.934137	0.088113	1.194575
C123	C	1.438350	-0.408955	0.621190
C124	C	1.938350	0.091045	1.121190
C125	C	1.476945	-0.382002	0.952374
C126	C	1.976945	0.117998	1.452374
C127	C	1.472739	-0.384931	1.025764
C128	C	1.972739	0.115069	1.525764
C129	C	1.601588	-0.295065	1.029401
C130	C	2.101588	0.204935	1.529401
C131	C	1.605800	-0.292140	0.956014
C132	C	2.105800	0.207860	1.456014
C133	C	1.543474	-0.335605	0.917505
C134	C	2.043474	0.164395	1.417505
N135	N	1.492148	-0.371414	0.808104
N136	N	1.992148	0.128586	1.308104
N137	N	1.547780	-0.332606	0.842493
N138	N	2.047780	0.167394	1.342493
H139	H	1.120368	-0.437020	0.403045
H140	H	1.620368	0.062980	0.903045
F141	F	1.350240	-0.945366	0.434134
F142	F	1.850240	-0.445366	0.934134
F143	F	0.906665	-0.255542	0.236078
F144	F	1.406665	0.244458	0.736078
F145	F	1.629349	-0.275783	0.739199
F146	F	2.129349	0.224217	1.239199
F147	F	1.031544	-0.428028	0.509458
F148	F	1.531544	0.071972	1.009458
F149	F	1.410611	-0.428261	0.911398
F150	F	1.910611	0.071739	1.411398
F151	F	1.372023	-0.455216	0.580204
F152	F	1.872023	0.044784	1.080204
F153	F	0.785067	-0.468351	0.317164
F154	F	1.285067	0.031649	0.817164
F155	F	1.363328	-0.461264	0.731692
F156	F	1.863328	0.038736	1.231692
F157	F	1.255724	-0.235898	0.332724
F158	F	1.755724	0.264102	0.832724
F159	F	1.401922	-0.434314	1.062878
F160	F	1.901922	0.065686	1.562878
F161	F	1.122034	-0.179654	0.051527
F162	F	1.622034	0.320346	0.551527
F163	F	1.359782	-1.096853	0.428068
F164	F	1.859782	-0.596853	0.928068
H165	H	1.409826	-0.622907	0.395653
H166	H	1.909826	-0.122907	0.895653
H167	H	0.910686	-0.521242	0.581317
H168	H	1.410686	-0.021242	1.081317
H169	H	1.031028	-0.267974	0.146687
H170	H	1.531028	0.232026	0.646687
H171	H	1.287977	-0.122867	0.113999
H172	H	1.787977	0.377133	0.613999
F173	F	0.739173	-0.593130	0.546643
F174	F	1.239173	-0.093130	1.046643
H175	H	1.621383	-0.281314	0.596441
H176	H	2.121383	0.218686	1.096441
H177	H	1.652329	-0.259677	1.060763
H178	H	2.152329	0.240323	1.560763
F179	F	0.672326	-0.564982	0.406048
F180	F	1.172326	-0.064982	0.906048
H181	H	1.346721	-0.147586	0.237570
H182	H	1.846721	0.352414	0.737570
H183	H	1.418203	-0.756033	0.390312
H184	H	1.918203	-0.256033	0.890312
H185	H	1.659978	-0.254360	0.927625
H186	H	2.159978	0.245640	1.427625
H187	H	1.630002	-1.080625	0.254299
H188	H	2.130002	-0.580625	0.754299
H189	H	1.671547	-0.749445	0.227401
H190	H	2.171547	-0.249445	0.727401
F191	F	1.638484	-0.937868	0.248770
F192	F	2.138484	-0.437868	0.748770
F193	F	1.680035	-0.606680	0.221874
F194	F	2.180035	-0.106680	0.721874
