data_functionalizedCrystal
_audit_creation_method	'MofGen! by Chris Wilmer'
_symmetry_space_group_name_H-M	'P1'
_symmetry_Int_Tables_number	1
_symmetry_cell_setting	triclinic
loop_
_symmetry_equiv_pos_as_xyz
  x,y,z
_cell_length_a	21.295417
_cell_length_b	12.759401
_cell_length_c	12.759393
_cell_angle_alpha	90.018292
_cell_angle_beta	89.961947
_cell_angle_gamma	89.969332
loop_
_atom_site_label
_atom_site_type_symbol
_atom_site_fract_x
_atom_site_fract_y
_atom_site_fract_z
Zn1	Zn	-0.250576	-1.606138	-0.593926
Zn2	Zn	0.249424	-1.106138	-0.093926
Zn3	Zn	-0.355858	-1.605984	-0.418223
Zn4	Zn	0.144142	-1.105984	0.081777
Zn5	Zn	-0.250607	-1.430440	-0.418265
Zn6	Zn	0.249393	-0.930440	0.081735
Zn7	Zn	-0.355812	-1.430380	-0.593864
Zn8	Zn	0.144188	-0.930380	-0.093864
O9	O	-0.303213	-1.518236	-0.506069
O10	O	0.196787	-1.018236	-0.006069
O11	O	-0.264549	-1.753139	-0.570626
O12	O	0.235451	-1.253139	-0.070626
O13	O	-0.341929	-1.582659	-0.271207
O14	O	0.158071	-1.082659	0.228793
O15	O	-0.162514	-1.453837	-0.441611
O16	O	0.337486	-0.953837	0.058389
O17	O	-0.341899	-1.753026	-0.441538
O18	O	0.158101	-1.253026	0.058462
O19	O	-0.162491	-1.582921	-0.570668
O20	O	0.337509	-1.082921	-0.070668
O21	O	-0.264601	-1.453688	-0.271238
O22	O	0.235399	-0.953688	0.228762
O23	O	-0.264556	-1.283411	-0.441551
O24	O	0.235444	-0.783411	0.058449
O25	O	-0.341820	-1.453734	-0.740893
O26	O	0.158180	-0.953734	-0.240893
O27	O	-0.341850	-1.283367	-0.570562
O28	O	0.158150	-0.783367	-0.070562
O29	O	-0.264504	-1.582862	-0.740939
O30	O	0.235496	-1.082862	-0.240939
O31	O	-0.443942	-1.582601	-0.441478
O32	O	0.056058	-1.082601	0.058522
O33	O	-0.443907	-1.453585	-0.570521
O34	O	0.056093	-0.953585	-0.070521
C35	C	-0.303202	-1.245268	-0.506055
C36	C	0.196798	-0.745268	-0.006055
C37	C	-0.303212	-1.128492	-0.506074
C38	C	0.196788	-0.628492	-0.006074
C39	C	-0.466765	-1.518098	-0.506011
C40	C	0.033235	-1.018098	-0.006011
C41	C	-0.536733	-1.518135	-0.506021
C42	C	-0.036733	-1.018135	-0.006021
C43	C	-0.303153	-1.518308	-0.780103
C44	C	0.196847	-1.018308	-0.280103
C45	C	-0.303127	-1.518339	-0.896880
C46	C	0.196873	-1.018339	-0.396880
C47	C	-0.569597	-1.585373	-0.438898
C48	C	-0.069597	-1.085373	0.061102
C49	C	-0.635339	-1.585423	-0.438921
C50	C	-0.135339	-1.085423	0.061079
C51	C	-0.668216	-1.518215	-0.506058
C52	C	-0.168216	-1.018215	-0.006058
C53	C	-0.635344	-1.450972	-0.573195
C54	C	-0.135344	-0.950972	-0.073195
C55	C	-0.569603	-1.450932	-0.573177
C56	C	-0.069603	-0.950932	-0.073177
N57	N	-0.771481	-1.426308	-0.514062
N58	N	-0.271481	-0.926308	-0.014062
N59	N	-0.833933	-1.426349	-0.514073
N60	N	-0.333933	-0.926349	-0.014073
C61	C	-0.866290	-1.518333	-0.506118
C62	C	-0.366290	-1.018333	-0.006118
N63	N	-0.833838	-1.610276	-0.498130
N64	N	-0.333838	-1.110276	0.001870
N65	N	-0.771380	-1.610234	-0.498114
N66	N	-0.271380	-1.110234	0.001886
C67	C	-0.739501	-1.518251	-0.506085
C68	C	-0.239501	-1.018251	-0.006085
C69	C	-0.970439	-1.585630	-0.439016
C70	C	-0.470439	-1.085630	0.060984
C71	C	-1.036183	-1.585681	-0.439047
C72	C	-0.536183	-1.085681	0.060953
C73	C	-1.036187	-1.451221	-0.573315
C74	C	-0.536187	-0.951221	-0.073315
C75	C	-0.970444	-1.451179	-0.573289
C76	C	-0.470444	-0.951179	-0.073289
C77	C	-0.937575	-1.518382	-0.506134
C78	C	-0.437575	-1.018382	-0.006134
C79	C	-0.139023	-1.518403	-0.506151
C80	C	0.360977	-1.018403	-0.006151
C81	C	-0.069055	-1.518474	-0.506185
C82	C	0.430945	-1.018474	-0.006185
C83	C	-0.303226	-1.792269	-0.506084
C84	C	0.196774	-1.292269	-0.006084
C85	C	-0.303231	-1.909046	-0.506091
C86	C	0.196769	-1.409046	-0.006091
C87	C	-0.343523	-1.073634	-0.573139
C88	C	0.156477	-0.573634	-0.073139
C89	C	-0.343531	-0.963910	-0.573151
C90	C	0.156469	-0.463910	-0.073151
C91	C	-0.262915	-0.963911	-0.439022
C92	C	0.237085	-0.463911	0.060978
C93	C	-0.262904	-1.073633	-0.439017
C94	C	0.237096	-0.573633	0.060983
C95	C	-0.390068	-1.073633	-0.650574
C96	C	0.109932	-0.573633	-0.150574
C97	C	-0.390076	-0.963908	-0.650585
C98	C	0.109924	-0.463908	-0.150585
C99	C	-0.343377	-1.585498	-0.951723
C100	C	0.156623	-1.085498	-0.451723
C101	C	-0.343350	-1.585530	-1.061447
C102	C	0.156650	-1.085530	-0.561447
C103	C	-0.262823	-1.451235	-1.061475
C104	C	0.237177	-0.951235	-0.561475
C105	C	-0.262847	-1.451209	-0.951753
C106	C	0.237153	-0.951209	-0.451753
C107	C	-0.389870	-1.663029	-0.951707
C108	C	0.110130	-1.163029	-0.451707
C109	C	-0.389843	-1.663060	-1.061431
C110	C	0.110157	-1.163060	-0.561431
C111	C	-0.303228	-1.518224	-0.233102
C112	C	0.196772	-1.018224	0.266898
C113	C	-0.303076	-1.518396	-0.116326
C114	C	0.196924	-1.018396	0.383674
H115	H	-0.662102	-1.640180	-0.384261
H116	H	-0.162102	-1.140180	0.115739
H117	H	-0.376825	-1.744406	-0.921945
H118	H	0.123175	-1.244406	-0.421945
C119	C	-0.455097	-0.924344	-0.621252
C120	C	0.044903	-0.424344	-0.121252
C121	C	-0.494861	-1.009837	-0.603298
C122	C	0.005139	-0.509837	-0.103298
C123	C	-0.554757	-0.973432	-0.576263
C124	C	-0.054757	-0.473432	-0.076263
H125	H	-0.471421	-0.883022	-0.676841
H126	H	0.028579	-0.383022	-0.176841
H127	H	-0.452430	-0.882989	-0.559485
H128	H	0.047570	-0.382989	-0.059485
H129	H	-0.497530	-1.051175	-0.665058
H130	H	0.002470	-0.551175	-0.165058
H131	H	-0.478557	-1.051168	-0.547705
H132	H	0.021443	-0.551168	-0.047705
H133	H	-0.552090	-0.932076	-0.514496
H134	H	-0.052090	-0.432076	-0.014496
H135	H	-0.571075	-0.932109	-0.631856
H136	H	-0.071075	-0.432109	-0.131856
H137	H	-0.581743	-1.031432	-0.564068
H138	H	-0.081743	-0.531432	-0.064068
H139	H	-0.943676	-1.640354	-0.384338
H140	H	-0.443676	-1.140354	0.115662
H141	H	-0.377068	-1.103446	-0.731984
H142	H	0.122932	-0.603446	-0.231984
H143	H	-0.943685	-1.396423	-0.627944
H144	H	-0.443685	-0.896423	-0.127944
H145	H	-0.436189	-1.633836	-0.917649
H146	H	0.063811	-1.133836	-0.417649
H147	H	-1.062954	-1.396504	-0.627983
H148	H	-0.562954	-0.896504	-0.127983
C149	C	-0.671149	-1.378042	-0.645971
C150	C	-0.171149	-0.878042	-0.145971
C151	C	-0.735757	-1.392446	-0.631600
C152	C	-0.235757	-0.892446	-0.131600
C153	C	-0.768759	-1.325272	-0.698620
C154	C	-0.268759	-0.825272	-0.198620
H155	H	-0.660409	-1.393307	-0.716615
H156	H	-0.160409	-0.893307	-0.216615
H157	H	-0.660456	-1.307430	-0.630522
H158	H	-0.160456	-0.807430	-0.130522
H159	H	-0.746446	-1.463041	-0.647056
H160	H	-0.246446	-0.963041	-0.147056
H161	H	-0.746516	-1.377172	-0.560970
H162	H	-0.246516	-0.877172	-0.060970
H163	H	-0.758066	-1.254661	-0.683171
H164	H	-0.258066	-0.754661	-0.183171
H165	H	-0.758014	-1.340543	-0.769259
H166	H	-0.258014	-0.840543	-0.269259
H167	H	-0.812599	-1.335029	-0.688871
H168	H	-0.312599	-0.835029	-0.188871
H169	H	-0.542845	-1.396178	-0.627838
H170	H	-0.042845	-0.896178	-0.127838
H171	H	-0.230067	-1.396531	-0.907104
H172	H	0.269933	-0.896531	-0.407104
H173	H	-0.372675	-0.929918	-0.727941
H174	H	0.127325	-0.429918	-0.227941
H175	H	-0.436354	-1.107626	-0.621279
H176	H	0.063646	-0.607626	-0.121279
H177	H	-0.230098	-0.919232	-0.384428
H178	H	0.269902	-0.419232	0.115572
C179	C	-0.219106	-1.133004	-0.366100
C180	C	0.280894	-0.633004	0.133900
C181	C	-0.183822	-1.061474	-0.307361
C182	C	0.316178	-0.561474	0.192639
C183	C	-0.143472	-1.116128	-0.240169
C184	C	0.356528	-0.616128	0.259831
H185	H	-0.191651	-1.175840	-0.406265
H186	H	0.308349	-0.675840	0.093735
H187	H	-0.243130	-1.175755	-0.320183
H188	H	0.256870	-0.675755	0.179817
H189	H	-0.159801	-1.018741	-0.353272
H190	H	0.340199	-0.518741	0.146728
H191	H	-0.211261	-1.018636	-0.267174
H192	H	0.288739	-0.518636	0.232826
H193	H	-0.167495	-1.158879	-0.194253
H194	H	0.332505	-0.658879	0.305747
H195	H	-0.116021	-1.158962	-0.280343
H196	H	0.383979	-0.658962	0.219657
H197	H	-0.119531	-1.067603	-0.200300
H198	H	0.380469	-0.567603	0.299700
H199	H	-0.230028	-1.396581	-1.106166
H200	H	0.269972	-0.896581	-0.606166
H201	H	-0.372380	-1.740386	-1.095476
H202	H	0.127620	-1.240386	-0.595476
H203	H	-0.438589	-1.641221	-1.091185
H204	H	0.061411	-1.141221	-0.591185
H205	H	-0.542836	-1.640097	-0.384219
H206	H	-0.042836	-1.140097	0.115781
H207	H	-1.062939	-1.640441	-0.384389
H208	H	-0.562939	-1.140441	0.115611
