data_functionalizedCrystal
_audit_creation_method	'MofGen! by Chris Wilmer'
_symmetry_space_group_name_H-M	'P1'
_symmetry_Int_Tables_number	1
_symmetry_cell_setting	triclinic
loop_
_symmetry_equiv_pos_as_xyz
  x,y,z
_cell_length_a	9.065215
_cell_length_b	15.072220
_cell_length_c	9.065218
_cell_angle_alpha	89.999165
_cell_angle_beta	94.984675
_cell_angle_gamma	89.988198
loop_
_atom_site_label
_atom_site_type_symbol
_atom_site_fract_x
_atom_site_fract_y
_atom_site_fract_z
O1	O	-1.960422	0.073764	0.216328
O2	O	-1.531137	0.073769	0.234079
O3	O	-1.754652	0.073764	0.010561
O4	O	-1.736906	0.073768	0.439846
O5	O	-1.754597	-0.073801	0.010573
O6	O	-1.531081	-0.073797	0.234091
O7	O	-1.960366	-0.073801	0.216340
Zn8	Zn	-1.745715	-0.097228	0.225217
Zn9	Zn	-1.745788	0.097195	0.225201
O10	O	-1.736850	-0.073797	0.439858
C11	C	-1.476122	-0.000013	0.232380
C12	C	-1.312279	-0.000012	0.227282
N13	N	-1.745675	-0.229917	0.225227
C14	C	-1.745785	-0.589118	0.225196
C15	C	-1.625774	-0.551509	0.344384
C16	C	-1.626058	-0.448683	0.344829
C17	C	-1.745729	-0.410914	0.225211
C18	C	-1.900139	-0.448207	0.260894
C19	C	-1.899469	-0.551065	0.261744
C20	C	-1.712754	-0.551220	0.069985
C21	C	-1.709235	-0.448356	0.070970
C22	C	-1.745707	-0.310201	0.225217
C23	C	-1.745817	-0.689832	0.225193
C24	C	-1.015381	-0.000017	0.218039
C25	C	-1.179224	-0.000011	0.223136
C26	C	-1.752919	-0.000017	-0.044420
C27	C	-1.747819	-0.000012	-0.208263
N28	N	-1.745839	0.229884	0.225180
C29	C	-1.738584	-0.000014	0.494838
C30	C	-1.743683	-0.000012	0.658681
H31	H	-1.511349	-0.423471	0.323265
C32	C	-2.023792	-0.415152	0.146867
C33	C	-2.018480	-0.437415	-0.018377
C34	C	-2.142129	-0.404359	-0.132406
C35	C	-2.271090	-0.349038	-0.081191
C36	C	-2.276406	-0.326772	0.084062
C37	C	-2.152757	-0.359829	0.198091
H38	H	-1.923012	-0.478369	-0.056297
H39	H	-2.138193	-0.420842	-0.254737
H40	H	-2.362622	-0.324568	-0.165602
H41	H	-2.371874	-0.285818	0.121982
H42	H	-2.156693	-0.343346	0.320422
C43	C	-1.470287	-0.584881	0.315614
C44	C	-1.450381	-0.646701	0.183555
C45	C	-1.294880	-0.680041	0.154736
C46	C	-1.159285	-0.651562	0.257975
C47	C	-1.179186	-0.589739	0.390043
C48	C	-1.334687	-0.556399	0.418862
H49	H	-1.550761	-0.667786	0.107123
H50	H	-1.280148	-0.725807	0.056970
H51	H	-1.044173	-0.676243	0.236641
H52	H	-1.078806	-0.568654	0.466475
H53	H	-1.349419	-0.510633	0.516628
C54	C	-2.023884	-0.584680	0.149087
C55	C	-2.123534	-0.517928	0.058643
C56	C	-2.247953	-0.551538	-0.054001
C57	C	-2.272723	-0.651900	-0.076201
C58	C	-2.173070	-0.718658	0.014246
C59	C	-2.048650	-0.685047	0.126890
H60	H	-2.105200	-0.443629	0.075074
H61	H	-2.321723	-0.502119	-0.120956
H62	H	-2.364826	-0.676780	-0.159587
H63	H	-2.191403	-0.792957	-0.002185
H64	H	-1.974881	-0.734466	0.193845
H65	H	-1.595639	-0.423983	0.043939
H66	H	-1.646799	-0.577347	0.458870
C67	C	-1.819445	-0.413643	-0.054686
C68	C	-1.804047	-0.442169	-0.215743
C69	C	-1.914276	-0.407461	-0.341395
C70	C	-2.039903	-0.344227	-0.305990
C71	C	-2.055306	-0.315697	-0.144926
C72	C	-1.945077	-0.350405	-0.019274
H73	H	-1.711046	-0.488981	-0.241958
H74	H	-1.902873	-0.428580	-0.460625
H75	H	-2.121501	-0.318534	-0.399005
H76	H	-2.148307	-0.268884	-0.118711
H77	H	-1.956480	-0.329285	0.099956
H78	H	-1.800249	-0.575540	-0.018735
H79	H	-1.647365	-0.424069	0.459965
H80	H	-1.928262	-0.575046	0.375000
H81	H	-1.602492	-0.577209	0.036183
H82	H	-1.929566	-0.422437	0.372873
