data_functionalizedCrystal
_audit_creation_method	'MofGen! by Chris Wilmer'
_symmetry_space_group_name_H-M	'P1'
_symmetry_Int_Tables_number	1
_symmetry_cell_setting	triclinic
loop_
_symmetry_equiv_pos_as_xyz
  x,y,z
_cell_length_a	15.944551
_cell_length_b	23.532407
_cell_length_c	15.021413
_cell_angle_alpha	89.999348
_cell_angle_beta	89.997174
_cell_angle_gamma	83.173708
loop_
_atom_site_label
_atom_site_type_symbol
_atom_site_fract_x
_atom_site_fract_y
_atom_site_fract_z
O1	O	1.113910	0.073442	-0.073949
O2	O	0.869284	0.082498	-0.073972
O3	O	0.998974	-0.004933	-0.073943
O4	O	0.984220	0.160873	-0.073977
O5	O	0.998953	-0.004921	0.074121
O6	O	0.869263	0.082510	0.074092
O7	O	1.113889	0.073455	0.074116
Zn8	Zn	0.991573	0.077985	0.097612
Zn9	Zn	0.991600	0.077968	-0.097469
O10	O	0.984200	0.160886	0.074087
C11	C	0.837983	0.082128	0.000057
C12	C	0.744746	0.081001	0.000049
C13	C	0.530369	0.024113	0.000078
C14	C	0.469137	0.050524	-0.072931
C15	C	0.574038	0.078962	0.000060
C16	C	0.469138	0.050549	0.073049
C17	C	0.409142	0.076989	0.000075
C18	C	0.514033	0.105388	-0.073009
C19	C	0.514041	0.105405	0.073036
C20	C	0.452826	0.131856	0.000010
C21	C	0.669030	0.080097	0.000051
C22	C	0.314150	0.075858	0.000077
C23	C	0.998588	-0.026144	0.000091
C24	C	0.997458	-0.089366	0.000098
C25	C	1.067121	-0.488199	0.000056
C26	C	1.066072	-0.547603	0.000049
O27	O	1.130650	-0.584098	0.000022
N28	N	0.988971	-0.570528	0.000042
C29	C	0.912915	-0.534045	0.000033
O30	O	0.847239	-0.558999	0.000026
C31	C	0.913965	-0.474642	0.000034
C32	C	0.991071	-0.451721	0.000049
C33	C	1.144220	-0.465277	0.000070
C34	C	1.145269	-0.405877	0.000079
C35	C	1.069219	-0.369399	0.000073
C36	C	0.992120	-0.392320	0.000058
C37	C	0.837910	-0.438160	0.000018
C38	C	0.838967	-0.378754	0.000018
C39	C	0.916072	-0.355832	0.000034
C40	C	0.917118	-0.296442	0.000060
N41	N	0.994219	-0.273517	0.000067
C42	C	1.070269	-0.309995	0.000073
C43	C	0.910716	-0.658796	0.000031
C44	C	0.909664	-0.718198	0.000037
C45	C	1.062821	-0.731752	0.000050
C46	C	1.063872	-0.672349	0.000051
C47	C	0.987816	-0.635871	0.000037
C48	C	1.072466	-0.185250	0.000092
C49	C	1.073508	-0.125844	0.000104
C50	C	0.920352	-0.112295	0.000085
C51	C	0.919309	-0.171696	0.000078
C52	C	0.995373	-0.208173	0.000078
O53	O	0.852574	-0.259913	0.000083
O54	O	1.135935	-0.285033	0.000069
C55	C	1.145190	0.073824	0.000084
C56	C	1.238427	0.074951	0.000087
C57	C	0.984586	0.182097	0.000051
C58	C	0.985715	0.245318	0.000038
N59	N	0.991561	0.077995	0.230750
N60	N	0.991619	0.077953	-0.230606
C61	C	0.931583	0.118404	0.470420
C62	C	1.007390	0.129461	0.529759
C63	C	0.991582	0.077981	0.412357
C64	C	0.915796	0.066938	0.529760
C65	C	0.991596	0.077969	0.587781
C66	C	1.067428	0.089063	0.470389
C67	C	0.975783	0.026518	0.470385
C68	C	1.051645	0.037552	0.529697
C69	C	0.991573	0.077990	0.311300
C70	C	0.991614	0.077960	0.688836
H71	H	1.136300	-0.107185	0.000119
C72	C	1.228959	-0.380962	0.000265
C73	C	1.234051	-0.347267	0.076451
C74	C	1.311142	-0.324317	0.076654
H75	H	1.232642	-0.358032	-0.051308
H76	H	1.274122	-0.411185	0.000312
H77	H	1.188901	-0.317049	0.076396
H78	H	1.230383	-0.370184	0.128037
H79	H	1.356304	-0.354539	0.076701
H80	H	1.314817	-0.301390	0.025077
H81	H	1.314610	-0.301457	0.128349
C82	C	0.830287	0.054447	0.564355
C83	C	0.776826	0.047197	0.492349
C84	C	0.698052	0.035687	0.524180
H85	H	0.806200	0.085511	0.600029
H86	H	0.837204	0.020481	0.599110
H87	H	0.769906	0.081158	0.457608
H88	H	0.800886	0.016131	0.456669
H89	H	0.704969	0.001721	0.558935
H90	H	0.673973	0.066753	0.559853
H91	H	0.661771	0.030761	0.475329
C92	C	1.226888	-0.504782	0.000127
C93	C	1.294622	-0.471981	0.000162
C94	C	1.370793	-0.508348	0.000234
H95	H	1.229802	-0.528252	-0.051489
H96	H	1.229703	-0.528226	0.051784
H97	H	1.291808	-0.448546	-0.051489
H98	H	1.291735	-0.448511	0.051775
H99	H	1.373608	-0.531793	0.051891
H100	H	1.373699	-0.531817	-0.051383
H101	H	1.416760	-0.486098	0.000266
H102	H	1.124746	-0.761464	0.000052
H103	H	1.131539	0.098450	0.444420
C104	C	0.408136	0.192624	-0.000236
C105	C	0.430891	0.221061	-0.076814
C106	C	0.389729	0.277038	-0.077081
H107	H	0.424158	0.212325	0.051067
H108	H	0.348751	0.191601	0.000209
H109	H	0.490263	0.222087	-0.077251
H110	H	0.414868	0.201377	-0.128130
H111	H	0.330344	0.276015	-0.076636
H112	H	0.405754	0.296734	-0.025775
H113	H	0.405156	0.296338	-0.129042
C114	C	0.575189	-0.036620	0.000131
C115	C	0.551431	-0.065493	0.075861
C116	C	0.592693	-0.121442	0.075927
H117	H	0.634555	-0.035561	0.000704
H118	H	0.559914	-0.056050	-0.051766
H119	H	0.566710	-0.046068	0.127745
H120	H	0.492071	-0.066568	0.075304
H121	H	0.577419	-0.140872	0.024030
H122	H	0.652058	-0.120377	0.076497
H123	H	0.576574	-0.141041	0.127304
H124	H	0.880895	0.152617	0.444393
C125	C	1.025252	0.187434	0.564720
C126	C	1.025796	0.186482	0.657916
C127	C	1.042249	0.239875	0.690151
H128	H	0.982605	0.216166	0.544526
H129	H	1.078706	0.195561	0.543573
H130	H	0.972350	0.178362	0.679056
H131	H	1.068443	0.157761	0.678135
H132	H	1.095703	0.248003	0.669004
H133	H	0.999600	0.268604	0.669951
H134	H	1.042628	0.239235	0.753387
C135	C	0.540599	0.136222	0.155434
C136	C	0.518145	0.107316	0.231676
C137	C	0.542610	0.135677	0.307604
H138	H	0.513002	0.174284	0.156077
H139	H	0.600032	0.136997	0.154585
H140	H	0.458723	0.106547	0.232526
H141	H	0.545739	0.069255	0.231063
H142	H	0.602043	0.136452	0.306754
H143	H	0.515011	0.173739	0.308238
H144	H	0.527385	0.116066	0.359343
H145	H	1.102446	0.003360	0.555561
H146	H	0.449230	0.027320	-0.134645
C147	C	0.540601	0.136244	-0.155373
C148	C	0.628288	0.136904	-0.154449
C149	C	0.652795	0.165314	-0.230313
H150	H	0.513434	0.174422	-0.155670
H151	H	0.524922	0.116882	-0.207171
H152	H	0.643958	0.156267	-0.102665
H153	H	0.655475	0.098734	-0.154166
H154	H	0.637116	0.145952	-0.282111
H155	H	0.625623	0.203490	-0.230603
H156	H	0.712293	0.165761	-0.229701
H157	H	0.449239	0.027346	0.134770
C158	C	1.155139	-0.224753	0.000142
C159	C	1.222875	-0.191954	0.000181
C160	C	1.299045	-0.228323	0.000245
H161	H	1.158050	-0.248219	-0.051478
H162	H	1.157955	-0.248201	0.051795
H163	H	1.220061	-0.168515	-0.051467
H164	H	1.219992	-0.168488	0.051798
H165	H	1.301860	-0.251771	0.051898
H166	H	1.301947	-0.251788	-0.051376
H167	H	1.345013	-0.206074	0.000280
C168	C	0.957972	-0.031457	0.435398
C169	C	0.958992	-0.030824	0.342202
C170	C	0.942588	-0.084220	0.309938
H171	H	0.904075	-0.039300	0.455593
H172	H	1.000064	-0.060265	0.456525
H173	H	0.916902	-0.002024	0.321083
H174	H	1.012882	-0.022990	0.321982
H175	H	0.984680	-0.113029	0.331065
H176	H	0.888691	-0.092059	0.330140
H177	H	0.943285	-0.083800	0.246703
C178	C	0.756299	-0.339245	0.000049
C179	C	0.688557	-0.372038	0.000057
C180	C	0.612392	-0.335664	0.000099
H181	H	0.753413	-0.315775	-0.051568
H182	H	0.753465	-0.315799	0.051705
H183	H	0.691389	-0.395474	-0.051594
H184	H	0.691415	-0.395507	0.051670
H185	H	0.609558	-0.312219	0.051755
H186	H	0.609514	-0.312196	-0.051520
H187	H	0.566420	-0.357909	0.000112
H188	H	1.126658	-0.653691	0.000063
H189	H	0.846878	-0.736855	0.000039
C190	C	0.828044	-0.619288	0.000075
C191	C	0.760306	-0.652086	0.000093
C192	C	0.684138	-0.615715	0.000145
H193	H	0.825149	-0.595819	-0.051543
H194	H	0.825215	-0.595843	0.051731
H195	H	0.763134	-0.675521	-0.051557
H196	H	0.763173	-0.675554	0.051707
H197	H	0.681309	-0.592269	0.051801
H198	H	0.681252	-0.592247	-0.051473
H199	H	0.638169	-0.637962	0.000166
H200	H	0.775123	-0.456812	0.000000
C201	C	0.835510	-0.196475	0.000018
C202	C	0.769134	-0.151812	-0.000006
C203	C	0.691925	-0.174612	-0.000085
H204	H	0.831783	-0.219365	0.051628
H205	H	0.831882	-0.219343	-0.051646
H206	H	0.772759	-0.128953	0.051652
H207	H	0.772832	-0.128918	-0.051612
H208	H	0.688298	-0.197480	-0.051749
H209	H	0.688208	-0.197501	0.051526
H210	H	0.646880	-0.144311	-0.000110
C211	C	0.837813	-0.072655	-0.000109
C212	C	0.833960	-0.038166	-0.076296
C213	C	0.757934	-0.001646	-0.076519
H214	H	0.834951	-0.049145	0.051464
H215	H	0.791714	-0.094789	-0.000168
H216	H	0.880047	-0.016034	-0.076229
H217	H	0.836809	-0.061660	-0.127881
H218	H	0.711834	-0.023780	-0.076578
H219	H	0.755078	0.021860	-0.024943
H220	H	0.755306	0.021755	-0.128215
