data_functionalizedCrystal
_audit_creation_method	'MofGen! by Chris Wilmer'
_symmetry_space_group_name_H-M	'P1'
_symmetry_Int_Tables_number	1
_symmetry_cell_setting	triclinic
loop_
_symmetry_equiv_pos_as_xyz
  x,y,z
_cell_length_a	12.759401
_cell_length_b	12.759400
_cell_length_c	12.759393
_cell_angle_alpha	89.969553
_cell_angle_beta	89.981433
_cell_angle_gamma	90.012209
loop_
_atom_site_label
_atom_site_type_symbol
_atom_site_fract_x
_atom_site_fract_y
_atom_site_fract_z
Zn1	Zn	1.606267	-0.418231	-0.593991
Zn2	Zn	1.606166	-0.593950	-0.418315
Zn3	Zn	1.430569	-0.418283	-0.418331
Zn4	Zn	1.430562	-0.593866	-0.593956
O5	O	1.518391	-0.506082	-0.506148
O6	O	1.753274	-0.441554	-0.570696
O7	O	1.582833	-0.570704	-0.271296
O8	O	1.453920	-0.271255	-0.441654
O9	O	1.753200	-0.570654	-0.441627
O10	O	1.583005	-0.271217	-0.570711
O11	O	1.453822	-0.441642	-0.271307
O12	O	1.283547	-0.441560	-0.441620
O13	O	1.453909	-0.570511	-0.740982
O14	O	1.283542	-0.570561	-0.570651
O15	O	1.582998	-0.441473	-0.741008
O16	O	1.582826	-0.740960	-0.441593
O17	O	1.453811	-0.740898	-0.570636
C18	C	1.245423	-0.506058	-0.506134
C19	C	1.128647	-0.506072	-0.506152
C20	C	1.073816	-0.438977	-0.573463
C21	C	0.964092	-0.438997	-0.573469
C22	C	0.964039	-0.573217	-0.438853
C23	C	1.073761	-0.573191	-0.438841
C24	C	1.073846	-0.361489	-0.651186
C25	C	0.964122	-0.361509	-0.651193
C26	C	1.518336	-0.779050	-0.506132
C27	C	1.518408	-0.895826	-0.506160
C28	C	1.585589	-0.950589	-0.573415
C29	C	1.585638	-1.060313	-0.573441
C30	C	1.451322	-1.060502	-0.438947
C31	C	1.451269	-0.950780	-0.438927
C32	C	1.652728	-0.895635	-0.640647
C33	C	1.719915	-0.950398	-0.707907
C34	C	1.719964	-1.060122	-0.707933
C35	C	1.652826	-1.115083	-0.640699
C36	C	1.792424	-0.506108	-0.506164
C37	C	1.909201	-0.506119	-0.506170
C38	C	1.518464	-0.505976	-0.780182
C39	C	1.518496	-0.505931	-0.896959
C40	C	1.518475	-0.232049	-0.506188
C41	C	1.518510	-0.115272	-0.506205
C42	C	1.585722	-0.438735	-0.951836
C43	C	1.585747	-0.438697	-1.061560
C44	C	1.451316	-0.573061	-1.061520
C45	C	1.451287	-0.573093	-0.951798
C46	C	1.663337	-0.361164	-0.951860
C47	C	1.663362	-0.361126	-1.061584
C48	C	1.518378	-0.506112	-0.233181
C49	C	1.518550	-0.505861	-0.116405
H50	H	1.107913	-0.390722	-0.728424
O51	O	1.785271	-0.897131	-0.773169
C52	C	1.890009	-0.923870	-0.750290
H53	H	1.892244	-1.003563	-0.709919
H54	H	1.937077	-0.927540	-0.826157
H55	H	1.925399	-0.862133	-0.696295
H56	H	1.740610	-0.390334	-0.917824
H57	H	1.641566	-0.279799	-0.922102
H58	H	0.930079	-0.284182	-0.622191
O59	O	1.628491	-0.268896	-1.102081
C60	C	1.525044	-0.250464	-1.067868
H61	H	1.510018	-0.296031	-0.992469
H62	H	1.513846	-0.163147	-1.052658
H63	H	1.467620	-0.277308	-1.130810
H64	H	1.744733	-0.382920	-1.091363
H65	H	1.774662	-1.104707	-0.762707
O66	O	1.652587	-0.789051	-0.640797
C67	C	1.625573	-0.752336	-0.741468
H68	H	1.579778	-0.815564	-0.784880
H69	H	1.575166	-0.678969	-0.733892
H70	H	1.699925	-0.732785	-0.787036
H71	H	0.919337	-0.627863	-0.384051
H72	H	1.118399	-0.627817	-0.384021
O73	O	1.386016	-1.113726	-0.373600
C74	C	1.326726	-1.041862	-0.314213
H75	H	1.323023	-0.963620	-0.357229
H76	H	1.243972	-1.073633	-0.302939
H77	H	1.365238	-1.030221	-0.234452
H78	H	0.934378	-0.383404	-0.732529
O79	O	1.109317	-0.264415	-0.625159
C80	C	1.072335	-0.237492	-0.524575
H81	H	1.052815	-0.311896	-0.479074
H82	H	1.135389	-0.191608	-0.480997
H83	H	0.998899	-0.187203	-0.532316
H84	H	1.652859	-1.204428	-0.640737
H85	H	1.396563	-0.906192	-0.384163
H86	H	1.396541	-0.627807	-0.907121
O87	O	1.386138	-0.638270	-1.114955
C88	C	1.400556	-0.623813	-1.223567
H89	H	1.481650	-0.589407	-1.238568
H90	H	1.393415	-0.702495	-1.265250
H91	H	1.338263	-0.567849	-1.254711
