data_functionalizedCrystal
_audit_creation_method	'MofGen! by Chris Wilmer'
_symmetry_space_group_name_H-M	'P1'
_symmetry_Int_Tables_number	1
_symmetry_cell_setting	triclinic
loop_
_symmetry_equiv_pos_as_xyz
  x,y,z
_cell_length_a	12.594517
_cell_length_b	21.295417
_cell_length_c	12.594509
_cell_angle_alpha	90.036245
_cell_angle_beta	90.021327
_cell_angle_gamma	90.030306
loop_
_atom_site_label
_atom_site_type_symbol
_atom_site_fract_x
_atom_site_fract_y
_atom_site_fract_z
Zn1	Zn	1.627160	-0.250594	0.601801
Zn2	Zn	1.627006	-0.355872	0.423797
Zn3	Zn	1.449164	-0.250621	0.423830
Zn4	Zn	1.449101	-0.355829	0.601727
O5	O	1.538108	-0.303229	0.512789
O6	O	1.776085	-0.264566	0.578205
O7	O	1.603377	-0.341940	0.274856
O8	O	1.472866	-0.162528	0.447482
O9	O	1.775972	-0.341914	0.447427
O10	O	1.603639	-0.162508	0.578237
O11	O	1.472717	-0.264612	0.274879
O12	O	1.300210	-0.264570	0.447411
O13	O	1.472759	-0.341839	0.750683
O14	O	1.300164	-0.341865	0.578112
O15	O	1.603578	-0.264524	0.750737
O16	O	1.603316	-0.443956	0.447356
O17	O	1.472610	-0.443924	0.578080
C18	C	1.261567	-0.303216	0.512757
C19	C	1.143261	-0.303226	0.512769
C20	C	1.074002	-0.261127	0.441817
C21	C	1.003167	-0.318547	0.415623
C22	C	1.003298	-0.245834	0.538981
C23	C	1.073984	-0.360676	0.486525
C24	C	1.074121	-0.287924	0.609928
C25	C	1.003318	-0.345384	0.583771
C26	C	1.537968	-0.466780	0.512730
C27	C	1.538006	-0.536748	0.512740
C28	C	1.606125	-0.569611	0.444742
C29	C	1.606175	-0.635353	0.444766
C30	C	1.538087	-0.668231	0.512777
C31	C	1.469963	-0.635361	0.580789
C32	C	1.469923	-0.569619	0.580770
N33	N	1.444976	-0.771496	0.520881
N34	N	1.445018	-0.833948	0.520892
C35	C	1.538206	-0.866306	0.512838
N36	N	1.631353	-0.833853	0.504752
N37	N	1.631311	-0.771396	0.504735
C38	C	1.538123	-0.739516	0.512805
C39	C	1.606385	-0.970454	0.444862
C40	C	1.606436	-1.036197	0.444893
C41	C	1.470215	-1.036203	0.580910
C42	C	1.470173	-0.970461	0.580885
C43	C	1.538256	-0.937590	0.512855
C44	C	1.815729	-0.303242	0.512821
C45	C	1.934034	-0.303247	0.512835
C46	C	1.538179	-0.303174	0.790410
C47	C	1.538209	-0.303150	0.908715
C48	C	1.538277	-0.139038	0.512871
C49	C	1.538349	-0.069070	0.512906
C50	C	1.538098	-0.303238	0.236248
C51	C	1.538274	-0.303084	0.117943
C52	C	1.467079	-0.345178	0.977939
C53	C	1.564193	-0.360559	1.048726
C54	C	1.441171	-0.287731	1.048728
C55	C	1.635374	-0.318561	0.977944
C56	C	1.512287	-0.245707	0.977939
C57	C	1.609468	-0.261066	1.048694
H58	H	0.972192	-0.197296	0.561087
O59	O	0.966025	-0.334089	0.317659
C60	C	0.961192	-0.411739	0.178488
C61	C	1.003397	-0.394220	0.289410
H62	H	0.991372	-0.460362	0.155624
H63	H	0.990199	-0.375841	0.117959
H64	H	0.870686	-0.411999	0.179797
H65	H	1.093901	-0.393968	0.288205
H66	H	0.974308	-0.430123	0.349893
O67	O	0.966645	-0.387873	0.655519
C68	C	0.962650	-0.420321	0.838733
C69	C	1.004276	-0.372165	0.757594
H70	H	0.993039	-0.407631	0.921281
H71	H	0.991882	-0.469218	0.816308
H72	H	0.872139	-0.419741	0.838681
H73	H	1.094784	-0.372688	0.757603
H74	H	0.974963	-0.323290	0.780048
O75	O	1.733403	-0.334053	0.941067
C76	C	1.919391	-0.307614	0.936171
C77	C	1.808436	-0.289987	0.977988
H78	H	1.980089	-0.272004	0.966024
H79	H	1.918628	-0.307506	0.845656
H80	H	1.941608	-0.356417	0.965938
H81	H	1.786151	-0.241181	0.948300
H82	H	1.809258	-0.290138	1.068502
O83	O	1.343322	-0.272126	1.085946
C84	C	1.239733	-0.199343	1.189508
C85	C	1.350610	-0.216945	1.147454
H86	H	1.245584	-0.154721	1.239228
H87	H	1.207681	-0.239229	1.240643
H88	H	1.183830	-0.191027	1.119714
H89	H	1.406593	-0.225251	1.217184
H90	H	1.382575	-0.177049	1.096288
O91	O	1.111041	-0.418563	0.459963
C92	C	1.264813	-0.483504	0.430198
C93	C	1.222988	-0.417917	0.460271
H94	H	1.355326	-0.483007	0.430459
H95	H	1.235031	-0.496656	0.347633
H96	H	1.235032	-0.519419	0.490320
H97	H	1.252751	-0.381958	0.400222
H98	H	1.252761	-0.404818	0.542862
H99	H	1.105311	-0.274950	0.692040
O100	O	1.672470	-0.938586	0.378640
C101	C	1.724177	-0.918500	0.197626
C102	C	1.649289	-0.954639	0.272502
H103	H	1.705448	-0.931455	0.111796
H104	H	1.810020	-0.931379	0.216313
H105	H	1.712457	-0.865871	0.209344
H106	H	1.660916	-1.007276	0.260826
H107	H	1.563474	-0.941708	0.253797
H108	H	1.661914	-1.062953	0.389523
O109	O	1.404187	-1.068103	0.647132
C110	C	1.352391	-1.088125	0.828141
C111	C	1.427248	-1.051968	0.753261
H112	H	1.370994	-1.075084	0.913961
H113	H	1.364124	-1.140766	0.816572
H114	H	1.266575	-1.075262	0.809311
H115	H	1.513093	-1.064779	0.772044
H116	H	1.415423	-0.999336	0.764843
H117	H	1.406974	-0.380775	0.946873
O118	O	1.110860	-0.218688	0.370076
C119	C	1.066344	-0.141219	0.238004
C120	C	1.024459	-0.189267	0.319194
H121	H	0.996510	-0.117409	0.196859
H122	H	1.117298	-0.166289	0.176367
H123	H	1.116243	-0.104355	0.280741
H124	H	0.974515	-0.226143	0.276548
H125	H	0.973562	-0.164153	0.380826
O126	O	1.672436	-0.667320	0.378844
C127	C	1.816099	-0.741534	0.364616
C128	C	1.741160	-0.705358	0.439402
H129	H	1.871667	-0.772306	0.413546
H130	H	1.864832	-0.706784	0.315995
H131	H	1.767217	-0.772327	0.308927
H132	H	1.789960	-0.674563	0.495155
H133	H	1.692424	-0.740142	0.487948
H134	H	1.661565	-0.542849	0.389350
H135	H	1.490297	-0.197170	0.946822
O136	O	1.681190	-0.218555	1.085571
C137	C	1.709896	-0.124822	1.188972
C138	C	1.628556	-0.172911	1.147265
H139	H	1.667376	-0.087915	1.238878
H140	H	1.751033	-0.101072	1.119080
H141	H	1.771521	-0.149910	1.239895
H142	H	1.566868	-0.147872	1.096358
H143	H	1.587501	-0.196660	1.217204
O144	O	1.403969	-0.667364	0.646906
C145	C	1.389621	-0.741501	0.790656
C146	C	1.464475	-0.705309	0.715822
H147	H	1.438511	-0.772178	0.846408
H148	H	1.334027	-0.772373	0.741804
H149	H	1.340900	-0.706706	0.839207
H150	H	1.513264	-0.740058	0.667255
H151	H	1.519999	-0.674427	0.764734
O152	O	1.403645	-0.537791	0.646858
C153	C	1.268590	-0.544734	0.781819
C154	C	1.343578	-0.580859	0.707013
H155	H	1.220022	-0.579539	0.830490
H156	H	1.212869	-0.514028	0.732942
H157	H	1.317425	-0.513884	0.837460
H158	H	1.294829	-0.611743	0.651357
H159	H	1.399301	-0.611526	0.755956
H160	H	1.414699	-0.943702	0.636251
O161	O	1.590219	-0.418515	1.085780
C162	C	1.544695	-0.528376	1.091715
C163	C	1.515095	-0.462773	1.049708
H164	H	1.483986	-0.564178	1.062550
H165	H	1.545181	-0.527710	1.182227
H166	H	1.626887	-0.541812	1.061407
H167	H	1.432897	-0.449296	1.079938
H168	H	1.514682	-0.463474	0.959198
