data_functionalizedCrystal
_audit_creation_method	'MofGen! by Chris Wilmer'
_symmetry_space_group_name_H-M	'P1'
_symmetry_Int_Tables_number	1
_symmetry_cell_setting	triclinic
loop_
_symmetry_equiv_pos_as_xyz
  x,y,z
_cell_length_a	16.120530
_cell_length_b	16.120484
_cell_length_c	13.897441
_cell_angle_alpha	87.134365
_cell_angle_beta	92.919063
_cell_angle_gamma	90.167327
loop_
_atom_site_label
_atom_site_type_symbol
_atom_site_fract_x
_atom_site_fract_y
_atom_site_fract_z
Zn1	Zn	1.254496	-0.395574	0.642097
Zn2	Zn	1.587829	-0.062240	0.975430
Zn3	Zn	1.921162	0.271093	1.308764
Zn4	Zn	1.247333	-0.534641	0.488526
Zn5	Zn	1.580667	-0.201308	0.821860
Zn6	Zn	1.914000	0.132025	1.155193
Zn7	Zn	1.115429	-0.388549	0.472252
Zn8	Zn	1.448763	-0.055216	0.805585
Zn9	Zn	1.782096	0.278117	1.138918
Zn10	Zn	1.108348	-0.527527	0.641215
Zn11	Zn	1.441681	-0.194193	0.974548
Zn12	Zn	1.775014	0.139140	1.307881
O13	O	1.181401	-0.461573	0.561022
O14	O	1.514735	-0.128239	0.894356
O15	O	1.848068	0.205094	1.227689
O16	O	1.369911	-0.419938	0.628906
O17	O	1.703245	-0.086605	0.962239
O18	O	2.036578	0.246728	1.295573
O19	O	1.229802	-0.515300	0.351386
O20	O	1.563136	-0.181966	0.684719
O21	O	1.896469	0.151367	1.018053
O22	O	1.139838	-0.273118	0.488340
O23	O	1.473171	0.060215	0.821674
O24	O	1.806504	0.393548	1.155007
O25	O	1.364649	-0.522111	0.516078
O26	O	1.697983	-0.188777	0.849411
O27	O	2.031316	0.144556	1.182745
O28	O	1.242009	-0.278279	0.613125
O29	O	1.575342	0.055054	0.946458
O30	O	1.908676	0.388388	1.279792
O31	O	1.132893	-0.407967	0.339429
O32	O	1.466226	-0.074633	0.672762
O33	O	1.799560	0.258700	1.006096
O34	O	0.998124	-0.401068	0.487485
O35	O	1.331457	-0.067735	0.820818
O36	O	1.664791	0.265599	1.154151
O37	O	1.127768	-0.509985	0.776313
O38	O	1.461101	-0.176652	1.109646
O39	O	1.794435	0.156682	1.442980
O40	O	0.992921	-0.503174	0.611621
O41	O	1.326255	-0.169841	0.944954
O42	O	1.659588	0.163493	1.278288
O43	O	1.235142	-0.413040	0.776962
O44	O	1.568476	-0.079706	1.110295
O45	O	1.901809	0.253627	1.443628
O46	O	1.222936	-0.650060	0.515222
O47	O	1.556269	-0.316727	0.848556
O48	O	1.889602	0.016606	1.181889
O49	O	1.120823	-0.644833	0.627402
O50	O	1.454157	-0.311500	0.960735
O51	O	1.787490	0.021833	1.294068
C52	C	0.965350	-0.450587	0.547692
C53	C	1.298684	-0.117254	0.881025
C54	C	1.632017	0.216079	1.214358
C55	C	0.872922	-0.445908	0.542013
C56	C	1.206255	-0.112575	0.875346
C57	C	1.539588	0.220759	1.208679
C58	C	0.703694	-0.437345	0.531652
C59	C	1.037028	-0.104011	0.864985
C60	C	1.370361	0.229322	1.198318
C61	C	0.659946	-0.485862	0.590467
C62	C	0.993279	-0.152529	0.923800
C63	C	1.326613	0.180805	1.257134
C64	C	0.565782	-0.481098	0.584702
C65	C	0.899115	-0.147764	0.918036
C66	C	1.232449	0.185569	1.251369
C67	C	0.797867	-0.442108	0.537415
C68	C	1.131200	-0.108775	0.870749
C69	C	1.464533	0.224558	1.204082
C70	C	1.170356	-0.677620	0.573005
C71	C	1.503690	-0.344286	0.906338
C72	C	1.837023	-0.010953	1.239671
C73	C	1.165707	-0.770049	0.578168
C74	C	1.499041	-0.436716	0.911501
C75	C	1.832374	-0.103383	1.244834
C76	C	1.157224	-0.939280	0.587614
C77	C	1.490558	-0.605946	0.920947
C78	C	1.823891	-0.272613	1.254281
C79	C	1.205728	-0.983033	0.534456
C80	C	1.539061	-0.649700	0.867789
C81	C	1.872394	-0.316366	1.201122
C82	C	1.201008	-1.077199	0.539712
C83	C	1.534341	-0.743865	0.873045
C84	C	1.867674	-0.410532	1.206378
C85	C	1.161943	-0.845105	0.582359
C86	C	1.495277	-0.511772	0.915693
C87	C	1.828610	-0.178439	1.249026
C88	C	1.398296	-0.472602	0.574406
C89	C	1.731630	-0.139268	0.907739
C90	C	2.064963	0.194065	1.241073
C91	C	1.490724	-0.477302	0.580109
C92	C	1.824057	-0.143968	0.913442
C93	C	2.157391	0.189365	1.246776
C94	C	1.181464	-0.461502	0.812615
C95	C	1.514798	-0.128169	1.145948
C96	C	1.848131	0.205164	1.479282
C97	C	1.181491	-0.461472	0.919829
C98	C	1.514824	-0.128139	1.253162
C99	C	1.848158	0.205194	1.586496
C100	C	1.192512	-0.244684	0.549016
C101	C	1.525846	0.088650	0.882349
C102	C	1.859179	0.421983	1.215683
C103	C	1.197247	-0.152258	0.543899
C104	C	1.530580	0.181075	0.877233
C105	C	1.863914	0.514408	1.210566
C106	C	1.181390	-0.461585	0.310408
C107	C	1.514723	-0.128252	0.643741
C108	C	1.848057	0.205081	0.977075
C109	C	1.181536	-0.461389	0.203192
C110	C	1.514870	-0.128056	0.536525
C111	C	1.848203	0.205277	0.869858
C112	C	1.181516	-0.461417	1.116122
C113	C	1.514850	-0.128084	1.449456
C114	C	1.848183	0.205249	1.782789
C115	C	1.181500	-0.461450	1.006891
C116	C	1.514833	-0.128117	1.340224
C117	C	1.848166	0.205217	1.673557
H118	H	0.670431	-0.392234	0.476972
H119	H	1.003764	-0.058900	0.810305
H120	H	1.337097	0.274433	1.143639
Cl121	Cl	1.087642	-0.990631	0.663966
Cl122	Cl	1.420975	-0.657298	0.997299
Cl123	Cl	1.754309	-0.323965	1.330633
Cl124	Cl	1.275309	-0.931682	0.458092
Cl125	Cl	1.608642	-0.598349	0.791425
Cl126	Cl	1.941976	-0.265015	1.124758
H127	H	0.693212	-0.530976	0.645152
H128	H	1.026545	-0.197643	0.978485
H129	H	1.359878	0.135690	1.311818
