data_functionalizedCrystal
_audit_creation_method	'MofGen! by Chris Wilmer'
_symmetry_space_group_name_H-M	'P1'
_symmetry_Int_Tables_number	1
_symmetry_cell_setting	triclinic
loop_
_symmetry_equiv_pos_as_xyz
  x,y,z
_cell_length_a	17.019383
_cell_length_b	17.038272
_cell_length_c	9.130313
_cell_angle_alpha	89.995195
_cell_angle_beta	86.120503
_cell_angle_gamma	87.246883
loop_
_atom_site_label
_atom_site_type_symbol
_atom_site_fract_x
_atom_site_fract_y
_atom_site_fract_z
O1	O	1.053352	0.099659	-0.254527
O2	O	0.824541	0.112347	-0.225700
O3	O	0.937587	-0.007811	-0.239931
O4	O	0.940307	0.219817	-0.240296
O5	O	0.937578	-0.007815	0.003669
O6	O	0.824533	0.112344	0.017900
O7	O	1.053343	0.099655	-0.010927
Cu8	Cu	0.938937	0.105999	0.025729
Cu9	Cu	0.938947	0.106003	-0.262356
O10	O	0.940298	0.219814	0.003304
C11	C	0.795116	0.111862	-0.100193
C12	C	0.707450	0.110413	-0.089147
C13	C	0.666261	0.109736	-0.216734
C14	C	0.583889	0.108387	-0.206334
C15	C	0.542706	0.107709	-0.068346
C16	C	0.583900	0.108388	0.059250
C17	C	0.666271	0.109743	0.048848
C18	C	0.294000	0.103624	-0.030298
C19	C	0.211623	0.102266	-0.019906
C20	C	0.211617	0.102266	-0.285491
C21	C	0.293990	0.103616	-0.295880
C22	C	0.335177	0.104300	-0.168284
C23	C	0.458509	0.106327	-0.057712
C24	C	0.419373	0.105687	-0.178919
C25	C	0.935109	-0.036939	-0.117819
C26	C	0.927729	-0.123726	-0.116890
C27	C	0.995488	-0.173895	-0.125425
C28	C	0.988549	-0.255440	-0.124565
C29	C	0.913849	-0.286815	-0.115158
C30	C	0.846085	-0.236640	-0.106627
C31	C	0.853025	-0.155096	-0.107498
C32	C	0.889332	-0.532553	-0.112089
C33	C	0.882397	-0.614103	-0.111215
C34	C	1.024861	-0.632897	-0.129156
C35	C	1.031795	-0.551352	-0.130017
C36	C	0.964030	-0.501184	-0.121493
C37	C	0.906755	-0.370167	-0.114274
C38	C	0.971126	-0.417834	-0.122388
C39	C	1.082769	0.100140	-0.136438
C40	C	1.170435	0.101589	-0.147493
C41	C	0.942776	0.248942	-0.118811
C42	C	0.950156	0.335729	-0.119750
N43	N	0.938936	0.105996	0.228352
N44	N	0.938955	0.106000	-0.464980
C45	C	0.989012	0.052812	0.298700
C46	C	0.989020	0.052812	0.452036
C47	C	0.888873	0.159187	0.464662
C48	C	0.888862	0.159182	0.311330
H49	H	0.550357	0.107835	-0.310228
Br50	Br	1.096871	-0.131324	-0.138170
H51	H	0.424969	0.105773	0.054638
H52	H	1.043726	-0.296285	-0.131512
H53	H	1.092623	-0.525813	-0.137676
H54	H	1.029784	0.009503	0.231143
Br55	Br	0.349875	0.104528	-0.483156
H56	H	0.848105	0.202491	0.532238
Br57	Br	1.116822	-0.700986	-0.140723
H58	H	1.029795	0.009504	0.509308
Br59	Br	0.722144	0.110647	-0.404012
Br60	Br	1.072501	-0.375252	-0.135166
Br61	Br	0.820891	0.231359	0.215847
H62	H	0.178074	0.101711	-0.389372
Br63	Br	0.155734	0.101326	0.167375
H64	H	0.327524	0.104175	0.073600
H65	H	0.550363	0.107841	0.171602
H66	H	0.834153	-0.491716	-0.105148
Br67	Br	0.722170	0.110669	0.222008
Br68	Br	0.781012	-0.656682	-0.098433
H69	H	0.785263	-0.262191	-0.098977
H70	H	0.797848	-0.114249	-0.100547
Br71	Br	0.805379	-0.412753	-0.101523
Br72	Br	0.475264	0.106611	-0.366182
