data_functionalizedCrystal
_audit_creation_method	'MofGen! by Chris Wilmer'
_symmetry_space_group_name_H-M	'P1'
_symmetry_Int_Tables_number	1
_symmetry_cell_setting	triclinic
loop_
_symmetry_equiv_pos_as_xyz
  x,y,z
_cell_length_a	12.759401
_cell_length_b	21.295417
_cell_length_c	12.759393
_cell_angle_alpha	90.037048
_cell_angle_beta	90.019802
_cell_angle_gamma	90.028788
loop_
_atom_site_label
_atom_site_type_symbol
_atom_site_fract_x
_atom_site_fract_y
_atom_site_fract_z
Zn1	Zn	1.606157	-0.250594	0.593940
Zn2	Zn	1.606002	-0.355876	0.418240
Zn3	Zn	1.430456	-0.250623	0.418279
Zn4	Zn	1.430401	-0.355828	0.593881
O5	O	1.518254	-0.303230	0.506085
O6	O	1.753157	-0.264568	0.570642
O7	O	1.582673	-0.341947	0.271224
O8	O	1.453850	-0.162530	0.441622
O9	O	1.753043	-0.341918	0.441556
O10	O	1.582937	-0.162509	0.570680
O11	O	1.453700	-0.264618	0.271253
O12	O	1.283427	-0.264571	0.441564
O13	O	1.453758	-0.341836	0.740910
O14	O	1.283388	-0.341864	0.570578
O15	O	1.582885	-0.264521	0.740954
O16	O	1.582621	-0.443959	0.441499
O17	O	1.453608	-0.443924	0.570541
C18	C	1.245287	-0.303216	0.506070
C19	C	1.128510	-0.303225	0.506088
C20	C	0.963971	-0.263036	0.573414
C21	C	1.073695	-0.263023	0.573407
C22	C	1.073595	-0.343445	0.438779
C23	C	0.963873	-0.343460	0.438792
C24	C	1.223713	-0.240600	0.697364
C25	C	1.278623	-0.200374	0.764661
C26	C	1.243048	-0.138968	0.780984
C27	C	1.152564	-0.117775	0.729996
C28	C	1.097659	-0.157998	0.662691
C29	C	1.133233	-0.219413	0.646388
C30	C	0.813853	-0.365877	0.314834
C31	C	0.758946	-0.406097	0.247523
C32	C	0.794519	-0.467504	0.231189
C33	C	0.885007	-0.488695	0.282159
C34	C	0.939914	-0.448474	0.349470
C35	C	0.904333	-0.387068	0.365806
C36	C	1.518120	-0.466782	0.506032
C37	C	1.518159	-0.536750	0.506044
C38	C	1.585336	-0.569548	0.573293
C39	C	1.585373	-0.635291	0.573319
C40	C	1.518244	-0.668233	0.506078
C41	C	1.451054	-0.635426	0.438824
C42	C	1.451011	-0.569685	0.438808
N43	N	1.510303	-0.771501	0.414131
N44	N	1.510350	-0.833952	0.414150
C45	C	1.518367	-0.866307	0.506125
N46	N	1.526356	-0.833852	0.598083
N47	N	1.526315	-0.771394	0.598063
C48	C	1.518282	-0.739518	0.506088
C49	C	1.585588	-0.970391	0.573407
C50	C	1.585617	-1.036135	0.573435
C51	C	1.451304	-1.036269	0.438931
C52	C	1.451268	-0.970526	0.438913
C53	C	1.518416	-0.937591	0.506149
C54	C	1.792287	-0.303245	0.506101
C55	C	1.909064	-0.303252	0.506108
C56	C	1.518333	-0.303170	0.780119
C57	C	1.518366	-0.303144	0.896895
C58	C	1.518417	-0.139040	0.506162
C59	C	1.518486	-0.069072	0.506194
C60	C	1.518236	-0.303245	0.233118
C61	C	1.518406	-0.303093	0.116342
C62	C	1.585607	-0.262880	0.951782
C63	C	1.585625	-0.262853	1.061506
C64	C	1.451157	-0.343359	1.061448
C65	C	1.451135	-0.343383	0.951726
C66	C	1.623270	-0.188584	1.211498
C67	C	1.690527	-0.148325	1.266388
C68	C	1.793044	-0.138675	1.230796
C69	C	1.828325	-0.169292	1.140316
C70	C	1.761072	-0.209556	1.085432
C71	C	1.658541	-0.219194	1.121022
C72	C	1.413501	-0.417653	0.801732
C73	C	1.346254	-0.457920	0.746846
C74	C	1.243735	-0.467576	0.782435
C75	C	1.208459	-0.436970	0.872918
C76	C	1.275706	-0.396703	0.927805
C77	C	1.378224	-0.387045	0.892208
H78	H	0.784878	-0.315874	0.328132
Br79	Br	1.227832	-0.355164	1.050606
Br80	Br	1.152480	-0.522241	0.707962
H81	H	1.396395	-0.662251	0.384079
H82	H	1.396306	-0.542980	0.384045
H83	H	1.640009	-0.542735	0.628043
H84	H	1.640260	-0.943574	0.628159
H85	H	1.123613	-0.067769	0.743282
Br86	Br	1.552625	-0.404526	0.753398
H87	H	1.287764	-0.106215	0.835779
Br88	Br	1.360092	-0.926011	0.347645
Br89	Br	1.401419	-0.229134	0.833856
Br90	Br	1.676778	-1.080649	0.664725
Br91	Br	1.360192	-1.080968	0.347679
H92	H	0.919348	-0.230295	0.628227
H93	H	1.023893	-0.140776	0.621310
Br94	Br	1.271987	-0.323946	0.675234
Br95	Br	1.884322	-0.084041	1.305295
H96	H	1.789799	-0.234486	1.011768
Br97	Br	1.967471	-0.156205	1.092031
Br98	Br	1.676554	-0.679813	0.664586
H99	H	1.118235	-0.376180	0.383971
Br100	Br	1.676846	-0.208269	0.877372
Br101	Br	1.069324	-0.450077	0.921230
Br102	Br	1.062724	-0.477231	0.418641
Br103	Br	1.642651	-0.106776	1.389179
Br104	Br	1.484126	-0.201667	1.259795
Br105	Br	0.933334	-0.572021	0.259935
Br106	Br	0.720011	-0.522086	0.139823
H107	H	1.396423	-0.376122	1.106104
Br108	Br	1.394135	-0.499467	0.624055
Br109	Br	0.636150	-0.377335	0.178334
