data_functionalizedCrystal
_audit_creation_method	'MofGen! by Chris Wilmer'
_symmetry_space_group_name_H-M	'P1'
_symmetry_Int_Tables_number	1
_symmetry_cell_setting	triclinic
loop_
_symmetry_equiv_pos_as_xyz
  x,y,z
_cell_length_a	23.532407
_cell_length_b	23.532407
_cell_length_c	22.010155
_cell_angle_alpha	89.993714
_cell_angle_beta	89.996412
_cell_angle_gamma	82.848678
loop_
_atom_site_label
_atom_site_type_symbol
_atom_site_fract_x
_atom_site_fract_y
_atom_site_fract_z
O1	O	-0.755259	-0.069122	-0.050455
O2	O	-0.255259	0.430878	0.449545
O3	O	-0.589395	-0.079125	-0.050474
O4	O	-0.089395	0.420875	0.449526
O5	O	-0.677329	0.008808	-0.050453
O6	O	-0.177329	0.508808	0.449547
O7	O	-0.667326	-0.157055	-0.050476
O8	O	-0.167326	0.342945	0.449524
O9	O	-0.677323	0.008785	0.050597
O10	O	-0.177323	0.508785	0.550597
O11	O	-0.589389	-0.079148	0.050576
O12	O	-0.089389	0.420852	0.550576
O13	O	-0.755253	-0.069145	0.050595
O14	O	-0.255253	0.430855	0.550595
Cu15	Cu	-0.672320	-0.074149	0.059812
Cu16	Cu	-0.172320	0.425851	0.559812
Cu17	Cu	-0.672328	-0.074121	-0.059691
Cu18	Cu	-0.172328	0.425879	0.440309
O19	O	-0.667319	-0.157078	0.050574
O20	O	-0.167319	0.342922	0.550574
C21	C	-0.568176	-0.078882	0.000049
C22	C	-0.068176	0.421118	0.500049
C23	C	-0.504959	-0.078116	0.000042
C24	C	-0.004959	0.421884	0.500042
C25	C	-0.677071	0.030013	0.000074
C26	C	-0.177071	0.530013	0.500074
C27	C	-0.676305	0.093230	0.000078
C28	C	-0.176305	0.593230	0.500078
C29	C	-0.776472	-0.069388	0.000071
C30	C	-0.276472	0.430612	0.500071
C31	C	-0.839689	-0.070154	0.000073
C32	C	-0.339689	0.429846	0.500073
C33	C	-0.105856	-0.125350	0.000063
C34	C	0.394144	0.374650	0.500063
C35	C	-0.046456	-0.124638	0.000067
C36	C	0.453544	0.375362	0.500067
O37	O	-0.009711	-0.168424	0.000083
O38	O	0.490289	0.331576	0.500083
N39	N	-0.023830	-0.072362	0.000073
N40	N	0.476170	0.427638	0.500073
C41	C	-0.060607	-0.020794	0.000082
C42	C	0.439393	0.479206	0.500082
O43	O	-0.035908	0.023737	0.000088
O44	O	0.464092	0.523737	0.500088
C45	C	-0.120006	-0.021506	0.000082
C46	C	0.379994	0.478494	0.500082
C47	C	-0.142629	-0.073785	0.000070
C48	C	0.357371	0.426215	0.500070
C49	C	-0.128479	-0.177625	0.000051
C50	C	0.371521	0.322375	0.500051
C51	C	-0.187876	-0.178336	0.000046
C52	C	0.312124	0.321664	0.500046
C53	C	-0.224649	-0.126772	0.000053
C54	C	0.275351	0.373228	0.500053
C55	C	-0.202025	-0.074497	0.000065
C56	C	0.297975	0.425503	0.500065
C57	C	-0.156783	0.030062	0.000096
C58	C	0.343217	0.530062	0.500096
C59	C	-0.216185	0.029345	0.000097
C60	C	0.283815	0.529345	0.500097
C61	C	-0.238808	-0.022934	0.000084
C62	C	0.261192	0.477066	0.500084
C63	C	-0.298194	-0.023643	0.000067
C64	C	0.201806	0.476357	0.500067
N65	N	-0.320820	-0.075920	0.000061
N66	N	0.179180	0.424080	0.500061
C67	C	-0.284048	-0.127484	0.000054
C68	C	0.215952	0.372516	0.500054
C69	C	0.064135	-0.019302	0.000082
C70	C	0.564135	0.480698	0.500082
C71	C	0.123533	-0.018589	0.000077
C72	C	0.623533	0.481411	0.500077
C73	C	0.137680	-0.122434	0.000063
C74	C	0.637680	0.377566	0.500063
C75	C	0.078281	-0.123146	0.000064
C76	C	0.578281	0.376854	0.500064
C77	C	0.041509	-0.071578	0.000076
C78	C	0.541509	0.428422	0.500076
C79	C	-0.408784	-0.128974	0.000043
C80	C	0.091216	0.371026	0.500043
C81	C	-0.468186	-0.129680	0.000035
C82	C	0.031814	0.370320	0.500035
C83	C	-0.482329	-0.025836	0.000052
C84	C	0.017671	0.474164	0.500052
C85	C	-0.422932	-0.025129	0.000057
C86	C	0.077068	0.474871	0.500057
C87	C	-0.386160	-0.076702	0.000054
C88	C	0.113840	0.423298	0.500054
O89	O	-0.334974	0.020119	0.000054
O90	O	0.165026	0.520119	0.500054
O91	O	-0.308755	-0.172007	0.000055
O92	O	0.191245	0.327993	0.500055
C93	C	-0.667577	-0.178283	0.000046
C94	C	-0.167577	0.321717	0.500046
C95	C	-0.668343	-0.241500	0.000037
C96	C	-0.168343	0.258500	0.500037
N97	N	-0.672319	-0.074167	0.143865
N98	N	-0.172319	0.425833	0.643865
C99	C	-0.723539	0.492333	0.000050
C100	C	-0.223539	0.992333	0.500050
C101	C	-0.722827	0.551733	0.000046
C102	C	-0.222827	1.051733	0.500046
O103	O	-0.766613	0.588478	0.000028
O104	O	-0.266613	1.088478	0.500028
N105	N	-0.670551	0.574359	0.000040
N106	N	-0.170551	1.074359	0.500040
C107	C	-0.618983	0.537582	0.000033
C108	C	-0.118983	1.037582	0.500033
O109	O	-0.574452	0.562281	0.000027
O110	O	-0.074452	1.062281	0.500027
C111	C	-0.619695	0.478182	0.000033
C112	C	-0.119695	0.978182	0.500033
C113	C	-0.671974	0.455560	0.000045
C114	C	-0.171974	0.955560	0.500045
C115	C	-0.775814	0.469710	0.000061
C116	C	-0.275814	0.969710	0.500061
C117	C	-0.776525	0.410313	0.000067
C118	C	-0.276525	0.910313	0.500067
C119	C	-0.724961	0.373540	0.000062
C120	C	-0.224961	0.873540	0.500062
C121	C	-0.672685	0.396164	0.000051
C122	C	-0.172685	0.896164	0.500051
C123	C	-0.568127	0.441406	0.000022
C124	C	-0.068127	0.941406	0.500022
C125	C	-0.568844	0.382004	0.000022
C126	C	-0.068844	0.882004	0.500022
C127	C	-0.621123	0.359381	0.000034
C128	C	-0.121123	0.859381	0.500034
C129	C	-0.621832	0.299995	0.000052
C130	C	-0.121832	0.799995	0.500052
N131	N	-0.674109	0.277368	0.000057
N132	N	-0.174109	0.777368	0.500057
C133	C	-0.725673	0.314141	0.000062
C134	C	-0.225673	0.814141	0.500062
C135	C	-0.617491	0.662324	0.000031
C136	C	-0.117491	1.162324	0.500031
C137	C	-0.616778	0.721722	0.000035
C138	C	-0.116778	1.221722	0.500035
C139	C	-0.720623	0.735869	0.000047
C140	C	-0.220623	1.235869	0.500047
C141	C	-0.721335	0.676470	0.000047
C142	C	-0.221335	1.176470	0.500047
C143	C	-0.669767	0.639698	0.000037
C144	C	-0.169767	1.139698	0.500037
C145	C	-0.727163	0.189405	0.000075
C146	C	-0.227163	0.689405	0.500075
C147	C	-0.727869	0.130003	0.000083
C148	C	-0.227869	0.630003	0.500083
C149	C	-0.624025	0.115860	0.000069
C150	C	-0.124025	0.615860	0.500069
C151	C	-0.623318	0.175257	0.000064
C152	C	-0.123318	0.675257	0.500064
C153	C	-0.674891	0.212029	0.000065
C154	C	-0.174891	0.712029	0.500065
O155	O	-0.578070	0.263215	0.000067
O156	O	-0.078070	0.763215	0.500067
O157	O	-0.770196	0.289433	0.000060
O158	O	-0.270196	0.789433	0.500060
N159	N	-0.672333	-0.074098	-0.143744
N160	N	-0.172333	0.425902	0.356256
C161	C	-0.633369	-0.113059	0.436467
C162	C	-0.133369	0.386941	0.936467
C163	C	-0.633368	-0.113064	0.372860
C164	C	-0.133368	0.386936	0.872860
O165	O	-0.600234	-0.146155	0.339960
O166	O	-0.100234	0.353845	0.839960
N167	N	-0.672315	-0.074146	0.341049
N168	N	-0.172315	0.425854	0.841049
C169	C	-0.711262	-0.035216	0.372849
C170	C	-0.211262	0.464784	0.872849
O171	O	-0.744389	-0.002113	0.339951
O172	O	-0.244389	0.497887	0.839951
C173	C	-0.711261	-0.035209	0.436455
C174	C	-0.211261	0.464791	0.936455
C175	C	-0.672315	-0.074133	0.468263
C176	C	-0.172315	0.425867	0.968263
C177	C	-0.594426	-0.151980	0.468275
C178	C	-0.094426	0.348020	0.968275
C179	C	-0.594429	-0.151976	0.531878
C180	C	-0.094429	0.348024	1.031878
C181	C	-0.633374	-0.113050	0.563674
C182	C	-0.133374	0.386950	1.063674
C183	C	-0.672317	-0.074129	0.531866
C184	C	-0.172317	0.425871	1.031866
C185	C	-0.750205	0.003723	0.468254
C186	C	-0.250205	0.503723	0.968254
C187	C	-0.750199	0.003728	0.531865
C188	C	-0.250199	0.503728	1.031865
C189	C	-0.711253	-0.035197	0.563673
C190	C	-0.211253	0.464803	1.063673
C191	C	-0.711265	-0.035198	0.627265
C192	C	-0.211265	0.464802	1.127265
N193	N	-0.672318	-0.074117	0.659076
N194	N	-0.172318	0.425883	1.159076
C195	C	-0.633372	-0.113043	0.627280
C196	C	-0.133372	0.386957	1.127280
C197	C	-0.711262	-0.035234	0.239271
C198	C	-0.211262	0.464766	0.739271
C199	C	-0.711267	-0.035243	0.175666
C200	C	-0.211267	0.464757	0.675666
C201	C	-0.633372	-0.113091	0.175681
C202	C	-0.133372	0.386909	0.675681
C203	C	-0.633370	-0.113084	0.239288
C204	C	-0.133370	0.386916	0.739288
C205	C	-0.672315	-0.074152	0.271082
C206	C	-0.172315	0.425848	0.771082
C207	C	-0.633381	-0.113030	0.760852
C208	C	-0.133381	0.386970	1.260852
C209	C	-0.633388	-0.113024	0.824460
C210	C	-0.133388	0.386976	1.324460
C211	C	-0.711281	-0.035174	0.824440
C212	C	-0.211281	0.464826	1.324440
C213	C	-0.711276	-0.035183	0.760836
C214	C	-0.211276	0.464817	1.260836
C215	C	-0.672321	-0.074113	0.729044
C216	C	-0.172321	0.425887	1.229044
O217	O	-0.744380	-0.002123	0.660205
O218	O	-0.244380	0.497877	1.160205
O219	O	-0.600246	-0.146135	0.660186
O220	O	-0.100246	0.353865	1.160186
H221	H	-0.486602	-0.172255	0.000025
H222	H	0.013398	0.327745	0.500025
H223	H	-0.378851	-0.170970	0.000042
H224	H	0.121149	0.329030	0.500042
C225	C	-0.313522	0.074373	0.000104
C226	C	0.186478	0.574373	0.500104
C227	C	-0.256606	0.086032	0.000108
C228	C	0.243394	0.586032	0.500108
H229	H	-0.338473	0.109369	0.000114
H230	H	0.161527	0.609369	0.500114
H231	H	-0.320345	0.052938	-0.035137
H232	H	0.179655	0.552938	0.464863
H233	H	-0.320348	0.052914	0.035340
H234	H	0.179652	0.552914	0.535340
H235	H	-0.249779	0.107488	-0.035130
H236	H	0.250221	0.607488	0.464870
H237	H	-0.249779	0.107476	0.035354
H238	H	0.250221	0.607476	0.535354
H239	H	-0.601674	-0.144723	0.850356
H240	H	-0.101674	0.355277	1.350356
H241	H	-0.601660	-0.144786	0.149782
H242	H	-0.101660	0.355214	0.649782
C243	C	-0.098205	0.091096	0.052059
C244	C	0.401795	0.591096	0.552059
C245	C	-0.131923	0.087528	0.000112
C246	C	0.368077	0.587528	0.500112
H247	H	-0.082855	0.126574	0.052066
H248	H	0.417145	0.626574	0.552066
H249	H	-0.121085	0.088647	0.087289
H250	H	0.378915	0.588647	0.587289
H251	H	-0.067800	0.060489	0.052046
H252	H	0.432200	0.560489	0.552046
H253	H	-0.162330	0.118133	0.000127
H254	H	0.337670	0.618133	0.500127
H255	H	-0.109041	0.089982	-0.035127
H256	H	0.390959	0.589982	0.464873
C257	C	-0.520909	0.526166	-0.000000
C258	C	-0.020909	1.026166	0.500000
C259	C	-0.510659	0.466263	0.000002
C260	C	-0.010659	0.966263	0.500002
H261	H	-0.485428	0.541509	-0.000011
H262	H	0.014572	1.041509	0.499989
H263	H	-0.542129	0.538808	-0.035230
H264	H	-0.042129	1.038808	0.464770
H265	H	-0.542116	0.538805	0.035247
H266	H	-0.042116	1.038805	0.535247
H267	H	-0.489456	0.453623	-0.035247
H268	H	0.010544	0.953623	0.464753
H269	H	-0.489430	0.453615	0.035236
H270	H	0.010570	0.953615	0.535236
H271	H	-0.580748	0.193677	0.000071
H272	H	-0.080748	0.693677	0.500071
C273	C	-0.620557	-0.190655	0.310831
C274	C	-0.120557	0.309345	0.810831
C275	C	-0.590556	-0.155868	0.274246
C276	C	-0.090556	0.344132	0.774246
H277	H	-0.594122	-0.217071	0.332407
H278	H	-0.094122	0.282929	0.832407
H279	H	-0.643741	-0.167473	0.338874
H280	H	-0.143741	0.332527	0.838874
H281	H	-0.644147	-0.211021	0.286021
H282	H	-0.144147	0.288979	0.786021
H283	H	-0.566970	-0.135498	0.299057
H284	H	-0.066970	0.364502	0.799057
H285	H	-0.567362	-0.179053	0.246200
H286	H	-0.067362	0.320947	0.746200
H287	H	-0.206289	-0.220908	0.000036
H288	H	0.293711	0.279092	0.500036
H289	H	-0.781912	0.035432	0.557749
H290	H	-0.281912	0.535432	1.057749
C291	C	-0.579018	0.018520	0.000061
C292	C	-0.079018	0.518520	0.500061
C293	C	-0.567347	0.075432	0.000059
C294	C	-0.067347	0.575432	0.500059
H295	H	-0.544027	-0.006439	0.000048
H296	H	-0.044027	0.493561	0.500048
H297	H	-0.600459	0.011695	0.035303
H298	H	-0.100459	0.511695	0.535303
H299	H	-0.600477	0.011706	-0.035174
H300	H	-0.100477	0.511706	0.464826
H301	H	-0.545892	0.082247	0.035297
H302	H	-0.045892	0.582247	0.535297
H303	H	-0.545897	0.082260	-0.035186
H304	H	-0.045897	0.582260	0.464814
H305	H	-0.404512	0.017441	0.000058
H306	H	0.095488	0.517441	0.500058
C307	C	-0.569567	0.806488	0.000027
C308	C	-0.069567	1.306488	0.500027
C309	C	-0.559311	0.746585	0.000030
C310	C	-0.059311	1.246585	0.500030
H311	H	-0.534088	0.821835	0.000025
H312	H	-0.034088	1.321835	0.500025
H313	H	-0.590781	0.819129	-0.035207
H314	H	-0.090781	1.319129	0.464793
H315	H	-0.590781	0.819125	0.035270
H316	H	-0.090781	1.319125	0.535270
H317	H	-0.538101	0.733948	-0.035215
H318	H	-0.038101	1.233948	0.464785
H319	H	-0.538088	0.733939	0.035268
H320	H	-0.038088	1.233939	0.535268
C321	C	-0.620572	-0.190615	0.689347
C322	C	-0.120572	0.309385	1.189347
C323	C	-0.590565	-0.155825	0.725910
C324	C	-0.090565	0.344175	1.225910
H325	H	-0.594141	-0.217034	0.667774
H326	H	-0.094141	0.282966	1.167774
H327	H	-0.644159	-0.210973	0.714167
H328	H	-0.144159	0.289027	1.214167
H329	H	-0.643759	-0.167432	0.661296
H330	H	-0.143759	0.332568	1.161296
H331	H	-0.567381	-0.179008	0.753964
H332	H	-0.067381	0.320992	1.253964
H333	H	-0.566968	-0.135466	0.701088
H334	H	-0.066968	0.364534	1.201088
C335	C	-0.837577	0.351737	-0.051875
C336	C	-0.337577	0.851737	0.448125
C337	C	-0.833993	0.385452	0.000070
C338	C	-0.333993	0.885452	0.500070
H339	H	-0.873057	0.336390	-0.051872
H340	H	-0.373057	0.836390	0.448128
H341	H	-0.835138	0.374618	-0.087106
H342	H	-0.335138	0.874618	0.412894
H343	H	-0.806972	0.321330	-0.051869
H344	H	-0.306972	0.821330	0.448131
H345	H	-0.864596	0.415861	0.000062
H346	H	-0.364596	0.915861	0.500062
H347	H	-0.836438	0.362569	0.035311
H348	H	-0.336438	0.862569	0.535311
C349	C	-0.788261	0.041705	0.182056
C350	C	-0.288261	0.541705	0.682056
C351	C	-0.754081	0.007541	0.140707
C352	C	-0.254081	0.507541	0.640707
H353	H	-0.814689	0.068123	0.160474
H354	H	-0.314689	0.568123	0.660474
H355	H	-0.808608	0.018102	0.206868
H356	H	-0.308608	0.518102	0.706868
H357	H	-0.764665	0.062069	0.206861
H358	H	-0.264665	0.562069	0.706861
H359	H	-0.777676	-0.012827	0.115905
H360	H	-0.277676	0.487173	0.615905
H361	H	-0.733732	0.031147	0.115885
H362	H	-0.233732	0.531147	0.615885
C363	C	-0.120478	-0.280338	0.000026
C364	C	0.379522	0.219662	0.500026
C365	C	-0.088064	-0.234311	0.000038
C366	C	0.411936	0.265689	0.500038
H367	H	-0.095529	-0.315336	0.000011
H368	H	0.404471	0.184664	0.500011
H369	H	-0.143937	-0.278463	0.035265
H370	H	0.356063	0.221537	0.535265
H371	H	-0.143944	-0.278434	-0.035212
H372	H	0.356056	0.221566	0.464788
H373	H	-0.064601	-0.236213	0.035279
H374	H	0.435399	0.263787	0.535279
H375	H	-0.064596	-0.236187	-0.035204
H376	H	0.435404	0.263813	0.464796
H377	H	0.167632	-0.164421	0.000060
H378	H	0.667632	0.335579	0.500060
H379	H	-0.770443	0.111587	0.000094
H380	H	-0.270443	0.611587	0.500094
H381	H	-0.575496	0.632386	0.000028
H382	H	-0.075496	1.132386	0.500028
H383	H	-0.526850	0.352066	0.000013
H384	H	-0.026850	0.852066	0.500013
C385	C	-0.864118	0.500048	-0.051868
C386	C	-0.364118	1.000048	0.448132
C387	C	-0.832502	0.510123	0.000070
C388	C	-0.332502	1.010123	0.500070
H389	H	-0.899118	0.524993	-0.051856
H390	H	-0.399118	1.024993	0.448144
H391	H	-0.842676	0.506891	-0.087104
H392	H	-0.342676	1.006891	0.412896
H393	H	-0.872008	0.461429	-0.051862
H394	H	-0.372008	0.961429	0.448138
H395	H	-0.824607	0.548741	0.000061
H396	H	-0.324607	1.048741	0.500061
H397	H	-0.853948	0.503285	0.035315
H398	H	-0.353948	1.003285	0.535315
H399	H	-0.769159	0.219337	0.000073
H400	H	-0.269159	0.719337	0.500073
C401	C	0.019702	-0.184186	-0.051896
C402	C	0.519702	0.315814	0.448104
C403	C	0.053420	-0.180614	0.000051
C404	C	0.553420	0.319386	0.500051
H405	H	0.004360	-0.219668	-0.051904
H406	H	0.504360	0.280332	0.448096
H407	H	-0.010702	-0.153587	-0.051884
H408	H	0.489298	0.346413	0.448116
H409	H	0.042585	-0.181736	-0.087130
H410	H	0.542585	0.318264	0.412870
H411	H	0.030535	-0.183060	0.035286
H412	H	0.530535	0.316940	0.535286
H413	H	0.083828	-0.211222	0.000045
H414	H	0.583828	0.288778	0.500045
C415	C	-0.490361	0.076883	0.000066
C416	C	0.009639	0.576883	0.500066
C417	C	-0.522756	0.030842	0.000058
C418	C	-0.022756	0.530842	0.500058
H419	H	-0.515322	0.111873	0.000068
H420	H	-0.015322	0.611873	0.500068
H421	H	-0.466903	0.074995	0.035304
H422	H	0.033097	0.574995	0.535304
H423	H	-0.466895	0.075009	-0.035174
H424	H	0.033105	0.575009	0.464826
H425	H	-0.546220	0.032714	0.035300
H426	H	-0.046220	0.532714	0.535300
H427	H	-0.546224	0.032731	-0.035183
H428	H	-0.046224	0.532731	0.464817
C429	C	-0.823346	0.743902	0.000056
C430	C	-0.323346	1.243902	0.500056
C431	C	-0.777306	0.776298	0.000048
C432	C	-0.277306	1.276298	0.500048
H433	H	-0.858336	0.768863	0.000061
H434	H	-0.358336	1.268863	0.500061
H435	H	-0.821468	0.720444	-0.035179
H436	H	-0.321468	1.220444	0.464821
H437	H	-0.821462	0.720437	0.035298
H438	H	-0.321462	1.220437	0.535298
H439	H	-0.779187	0.799760	-0.035197
H440	H	-0.279187	1.299760	0.464803
H441	H	-0.779185	0.799767	0.035287
H442	H	-0.279185	1.299767	0.535287
C443	C	-0.782386	0.617890	-0.051892
C444	C	-0.282386	1.117890	0.448108
C445	C	-0.778801	0.651604	0.000054
C446	C	-0.278801	1.151604	0.500054
H447	H	-0.817863	0.602539	-0.051886
H448	H	-0.317863	1.102539	0.448114
H449	H	-0.779952	0.640774	-0.087123
H450	H	-0.279952	1.140774	0.412877
H451	H	-0.751777	0.587487	-0.051890
H452	H	-0.251777	1.087487	0.448110
H453	H	-0.809407	0.682010	0.000049
H454	H	-0.309407	1.182010	0.500049
H455	H	-0.781240	0.628719	0.035294
H456	H	-0.281240	1.128719	0.535294
H457	H	-0.562714	-0.183670	0.557772
H458	H	-0.062714	0.316330	1.057772
C459	C	0.182117	0.042475	-0.051864
C460	C	0.682117	0.542475	0.448136
C461	C	0.148394	0.038879	0.000081
C462	C	0.648394	0.538879	0.500081
H463	H	0.197460	0.077957	-0.051860
H464	H	0.697460	0.577957	0.448140
H465	H	0.212521	0.011875	-0.051861
H466	H	0.712521	0.511875	0.448139
H467	H	0.159236	0.040042	-0.087099
H468	H	0.659236	0.540042	0.412901
H469	H	0.171276	0.041308	0.035317
H470	H	0.671276	0.541308	0.535317
H471	H	0.117986	0.069487	0.000084
H472	H	0.617986	0.569487	0.500084
H473	H	-0.562710	-0.183678	0.442393
H474	H	-0.062710	0.316322	0.942393
H475	H	0.034198	0.022693	0.000086
H476	H	0.534198	0.522693	0.500086
C477	C	-0.810058	-0.001212	0.844036
C478	C	-0.310058	0.498788	1.344036
C479	C	-0.754084	0.007618	0.859395
C480	C	-0.254084	0.507618	1.359395
H481	H	-0.836478	0.025209	0.865619
H482	H	-0.336478	0.525209	1.365619
H483	H	-0.815631	0.004357	0.801608
H484	H	-0.315631	0.504357	1.301608
H485	H	-0.816026	-0.039189	0.854475
H486	H	-0.316026	0.460811	1.354475
H487	H	-0.748114	0.045594	0.848952
H488	H	-0.248114	0.545594	1.348952
H489	H	-0.748509	0.002054	0.901832
H490	H	-0.248509	0.502054	1.401832
C491	C	-0.788929	-0.022540	0.689414
C492	C	-0.288929	0.477460	1.189414
C493	C	-0.754173	0.007557	0.725921
C494	C	-0.254173	0.507557	1.225921
H495	H	-0.815437	0.003837	0.667881
H496	H	-0.315437	0.503837	1.167881
H497	H	-0.765739	-0.045671	0.661334
H498	H	-0.265739	0.454329	1.161334
H499	H	-0.809190	-0.046191	0.714271
H500	H	-0.309190	0.453809	1.214271
H501	H	-0.733909	0.031204	0.701063
H502	H	-0.233909	0.531204	1.201063
H503	H	-0.777366	0.030697	0.754005
H504	H	-0.277366	0.530697	1.254005
C505	C	-0.724078	0.042356	0.310776
C506	C	-0.224078	0.542356	0.810776
C507	C	-0.754080	0.007559	0.274217
C508	C	-0.254080	0.507559	0.774217
H509	H	-0.750512	0.068776	0.332344
H510	H	-0.250512	0.568776	0.832344
H511	H	-0.700891	0.019182	0.338826
H512	H	-0.200891	0.519182	0.838826
H513	H	-0.700491	0.062717	0.285949
H514	H	-0.200491	0.562717	0.785949
H515	H	-0.777664	-0.012806	0.299044
H516	H	-0.277664	0.487194	0.799044
H517	H	-0.777277	0.030736	0.246164
H518	H	-0.277277	0.530736	0.746164
C519	C	-0.827184	0.080683	0.474656
C520	C	-0.327184	0.580683	0.974656
C521	C	-0.793011	0.046516	0.433303
C522	C	-0.293011	0.546516	0.933303
H523	H	-0.853609	0.107106	0.453077
H524	H	-0.353609	0.607106	0.953077
H525	H	-0.847534	0.057082	0.499467
H526	H	-0.347534	0.557082	0.999467
H527	H	-0.803583	0.101041	0.499461
H528	H	-0.303583	0.601041	0.999461
H529	H	-0.816612	0.026155	0.408500
H530	H	-0.316612	0.526155	0.908500
H531	H	-0.772659	0.070121	0.408481
H532	H	-0.272659	0.570121	0.908481
