data_functionalizedCrystal
_audit_creation_method	'MofGen! by Chris Wilmer'
_symmetry_space_group_name_H-M	'P1'
_symmetry_Int_Tables_number	1
_symmetry_cell_setting	triclinic
loop_
_symmetry_equiv_pos_as_xyz
  x,y,z
_cell_length_a	12.827893
_cell_length_b	25.639240
_cell_length_c	12.827885
_cell_angle_alpha	89.956835
_cell_angle_beta	89.980728
_cell_angle_gamma	90.032919
loop_
_atom_site_label
_atom_site_type_symbol
_atom_site_fract_x
_atom_site_fract_y
_atom_site_fract_z
Zn1	Zn	1.597543	-0.208123	-0.590751
Zn2	Zn	1.930877	0.125210	-0.257418
Zn3	Zn	2.264210	0.458543	0.075915
Zn4	Zn	1.597385	-0.295568	-0.415971
Zn5	Zn	1.930718	0.037765	-0.082638
Zn6	Zn	2.264051	0.371098	0.250696
Zn7	Zn	1.422785	-0.208149	-0.416025
Zn8	Zn	1.756118	0.125184	-0.082692
Zn9	Zn	2.089452	0.458518	0.250642
Zn10	Zn	1.422717	-0.295530	-0.590671
Zn11	Zn	1.756051	0.037804	-0.257338
Zn12	Zn	2.089384	0.371137	0.075996
O13	O	1.510108	-0.251843	-0.503355
O14	O	1.843441	0.081491	-0.170021
O15	O	2.176774	0.414824	0.163312
O16	O	1.743758	-0.219728	-0.567578
O17	O	2.077092	0.113605	-0.234244
O18	O	2.410425	0.446938	0.099089
O19	O	1.574185	-0.283999	-0.269742
O20	O	1.907519	0.049334	0.063591
O21	O	2.240852	0.382668	0.396925
O22	O	1.446062	-0.134980	-0.439259
O23	O	1.779395	0.198353	-0.105926
O24	O	2.112728	0.531686	0.227407
O25	O	1.743642	-0.283974	-0.439167
O26	O	2.076975	0.049359	-0.105834
O27	O	2.410308	0.382693	0.227500
O28	O	1.574456	-0.134961	-0.567630
O29	O	1.907790	0.198372	-0.234297
O30	O	2.241123	0.531705	0.099037
O31	O	1.445908	-0.219772	-0.269782
O32	O	1.779241	0.113561	0.063552
O33	O	2.112574	0.446894	0.396885
O34	O	1.276540	-0.219735	-0.439181
O35	O	1.609873	0.113598	-0.105848
O36	O	1.943207	0.446932	0.227485
O37	O	1.445946	-0.283908	-0.736918
O38	O	1.779280	0.049425	-0.403584
O39	O	2.112613	0.382759	-0.070251
O40	O	1.276490	-0.283933	-0.567493
O41	O	1.609823	0.049400	-0.234159
O42	O	1.943157	0.382734	0.099174
O43	O	1.574391	-0.219691	-0.736977
O44	O	1.907724	0.113642	-0.403644
O45	O	2.241057	0.446976	-0.070310
O46	O	1.574120	-0.368728	-0.439089
O47	O	1.907453	-0.035395	-0.105756
O48	O	2.240786	0.297938	0.227578
O49	O	1.445792	-0.368700	-0.567440
O50	O	1.779126	-0.035367	-0.234107
O51	O	2.112459	0.297967	0.099226
C52	C	1.238598	-0.251833	-0.503335
C53	C	1.571931	0.081500	-0.170001
C54	C	1.905264	0.414834	0.163332
C55	C	1.122445	-0.251841	-0.503351
C56	C	1.455778	0.081492	-0.170018
C57	C	1.789111	0.414825	0.163316
C58	C	1.070717	-0.220107	-0.566992
C59	C	1.404051	0.113226	-0.233658
C60	C	1.737384	0.446560	0.099675
C61	C	0.950667	-0.220115	-0.567010
C62	C	1.284000	0.113218	-0.233677
C63	C	1.617334	0.446552	0.099657
C64	C	1.509960	-0.387685	-0.503273
C65	C	1.843293	-0.054352	-0.169939
C66	C	2.176627	0.278981	0.163394
C67	C	1.509992	-0.445799	-0.503273
C68	C	1.843326	-0.112466	-0.169939
C69	C	2.176659	0.220867	0.163394
C70	C	1.576996	-0.806114	-0.570318
C71	C	1.910329	-0.472781	-0.236985
C72	C	2.243662	-0.139447	0.096349
C73	C	1.577027	-0.860718	-0.570339
C74	C	1.910360	-0.527385	-0.237006
C75	C	2.243693	-0.194052	0.096328
O76	O	1.633820	-0.888914	-0.627259
O77	O	1.967153	-0.555581	-0.293926
O78	O	2.300486	-0.222247	0.039408
N79	N	1.510253	-0.888082	-0.503456
N80	N	1.843586	-0.554748	-0.170122
N81	N	2.176919	-0.221415	0.163211
C82	C	1.443436	-0.860838	-0.436554
C83	C	1.776769	-0.527505	-0.103221
C84	C	2.110103	-0.194171	0.230113
O85	O	1.386642	-0.889127	-0.379667
O86	O	1.719975	-0.555793	-0.046334
O87	O	2.053308	-0.222460	0.287000
C88	C	1.443401	-0.806235	-0.436539
C89	C	1.776734	-0.472901	-0.103206
C90	C	2.110067	-0.139568	0.230128
C91	C	1.510186	-0.778874	-0.503419
C92	C	1.843520	-0.445541	-0.170086
C93	C	2.176853	-0.112207	0.163247
C94	C	1.643775	-0.778753	-0.637194
C95	C	1.977109	-0.445420	-0.303860
C96	C	2.310442	-0.112087	0.029473
C97	C	1.643746	-0.724153	-0.637171
C98	C	1.977079	-0.390819	-0.303837
C99	C	2.310412	-0.057486	0.029496
C100	C	1.576936	-0.696913	-0.570272
C101	C	1.910270	-0.363579	-0.236939
C102	C	2.243603	-0.030246	0.096395
C103	C	1.510157	-0.724273	-0.503396
C104	C	1.843490	-0.390940	-0.170063
C105	C	2.176823	-0.057607	0.163270
C106	C	1.376579	-0.778992	-0.369643
C107	C	1.709913	-0.445659	-0.036310
C108	C	2.043246	-0.112325	0.297023
C109	C	1.376549	-0.724385	-0.369634
C110	C	1.709883	-0.391051	-0.036301
C111	C	2.043216	-0.057718	0.297032
C112	C	1.443335	-0.697024	-0.436515
C113	C	1.776668	-0.363691	-0.103182
C114	C	2.110002	-0.030358	0.230152
C115	C	1.443318	-0.642433	-0.436475
C116	C	1.776651	-0.309100	-0.103142
C117	C	2.109984	0.024234	0.230192
N118	N	1.510092	-0.615070	-0.503358
N119	N	1.843425	-0.281736	-0.170025
N120	N	2.176758	0.051597	0.163308
C121	C	1.576901	-0.642310	-0.570257
C122	C	1.910234	-0.308976	-0.236924
C123	C	2.243568	0.024357	0.096410
C124	C	1.443514	-0.975508	-0.436592
C125	C	1.776847	-0.642175	-0.103259
C126	C	2.110181	-0.308842	0.230074
C127	C	1.443554	-1.030111	-0.436601
C128	C	1.776887	-0.696777	-0.103268
C129	C	2.110220	-0.363444	0.230065
C130	C	1.577143	-1.029987	-0.570388
C131	C	1.910477	-0.696654	-0.237055
C132	C	2.243810	-0.363321	0.096279
C133	C	1.577108	-0.975384	-0.570373
C134	C	1.910441	-0.642051	-0.237040
C135	C	2.243775	-0.308717	0.096294
C136	C	1.510288	-0.948145	-0.503476
C137	C	1.843621	-0.614812	-0.170142
C138	C	2.176955	-0.281478	0.163191
C139	C	1.576834	-0.527644	-0.570203
C140	C	1.910168	-0.194311	-0.236870
C141	C	2.243501	0.139022	0.096463
C142	C	1.576802	-0.473039	-0.570171
C143	C	1.910135	-0.139706	-0.236838
C144	C	2.243468	0.193628	0.096495
C145	C	1.443209	-0.473167	-0.436389
C146	C	1.776542	-0.139834	-0.103056
C147	C	2.109875	0.193499	0.230278
C148	C	1.443245	-0.527768	-0.436417
C149	C	1.776578	-0.194435	-0.103083
C150	C	2.109911	0.138899	0.230250
C151	C	1.510061	-0.555005	-0.503332
C152	C	1.843394	-0.221672	-0.169999
C153	C	2.176728	0.111662	0.163335
O154	O	1.386551	-0.614203	-0.379587
O155	O	1.719884	-0.280869	-0.046254
O156	O	2.053217	0.052464	0.287080
O157	O	1.633676	-0.614014	-0.627144
O158	O	1.967009	-0.280681	-0.293811
O159	O	2.300343	0.052652	0.039523
C160	C	1.782678	-0.251853	-0.503375
C161	C	2.116011	0.081481	-0.170042
C162	C	2.449344	0.414814	0.163291
C163	C	1.898831	-0.251857	-0.503384
C164	C	2.232164	0.081476	-0.170051
C165	C	2.565497	0.414810	0.163283
C166	C	1.510179	-0.251792	-0.775925
C167	C	1.843512	0.081541	-0.442592
C168	C	2.176845	0.414874	-0.109258
C169	C	1.510209	-0.251771	-0.892078
C170	C	1.843542	0.081562	-0.558745
C171	C	2.176876	0.414896	-0.225412
C172	C	1.510284	-0.115470	-0.503460
C173	C	1.843618	0.217864	-0.170126
C174	C	2.176951	0.551197	0.163207
C175	C	1.510360	-0.057355	-0.503504
C176	C	1.843693	0.275978	-0.170171
C177	C	2.177026	0.609311	0.163162
C178	C	1.573774	-0.219988	-0.943892
C179	C	1.907107	0.113345	-0.610559
C180	C	2.240441	0.446679	-0.277226
C181	C	1.573807	-0.219965	-1.063943
C182	C	1.907140	0.113368	-0.730609
C183	C	2.240474	0.446701	-0.397276
C184	C	1.510097	-0.251855	-0.231845
C185	C	1.843430	0.081478	0.101489
C186	C	2.176763	0.414812	0.434822
C187	C	1.510269	-0.251729	-0.115692
C188	C	1.843602	0.081604	0.217641
C189	C	2.176936	0.414938	0.550975
H190	H	0.943308	-0.279030	-0.448902
H191	H	1.276642	0.054303	-0.115569
H192	H	1.609975	0.387637	0.217765
H193	H	0.906183	-0.192948	-0.621498
H194	H	1.239516	0.140385	-0.288165
H195	H	1.572849	0.473719	0.045168
H196	H	1.631235	-0.549815	-0.624699
H197	H	1.964568	-0.216481	-0.291366
H198	H	2.297902	0.116852	0.041967
H199	H	1.077853	-0.279015	-0.448877
H200	H	1.411187	0.054318	-0.115544
H201	H	1.744520	0.387651	0.217789
H202	H	1.322195	-0.801260	-0.315182
H203	H	1.655529	-0.467926	0.018152
H204	H	1.988862	-0.134593	0.351485
H205	H	1.698125	-0.701879	-0.691633
H206	H	2.031458	-0.368546	-0.358300
H207	H	2.364792	-0.035212	-0.024967
H208	H	1.322133	-0.702209	-0.315160
H209	H	1.655466	-0.368876	0.018173
H210	H	1.988800	-0.035543	0.351507
H211	H	1.698179	-0.800926	-0.691677
H212	H	2.031513	-0.467593	-0.358343
H213	H	2.364846	-0.134260	-0.025010
H214	H	1.628231	-0.192756	-1.108501
H215	H	1.961564	0.140577	-0.775168
H216	H	2.294898	0.473910	-0.441835
H217	H	1.628166	-0.192793	-0.899375
H218	H	1.961500	0.140541	-0.566042
H219	H	2.294833	0.473874	-0.232709
H220	H	1.389181	-1.052383	-0.382130
H221	H	1.722514	-0.719050	-0.048796
H222	H	2.055848	-0.385717	0.284537
H223	H	1.631490	-0.953110	-0.624833
H224	H	1.964823	-0.619777	-0.291500
H225	H	2.298157	-0.286444	0.041833
H226	H	1.631541	-1.052176	-0.624863
H227	H	1.964875	-0.718843	-0.291529
H228	H	2.298208	-0.385509	0.041804
H229	H	1.631190	-0.450764	-0.624633
H230	H	1.964524	-0.117430	-0.291300
H231	H	2.297857	0.215903	0.042034
H232	H	1.389104	-0.953333	-0.382108
H233	H	1.722437	-0.620000	-0.048775
H234	H	2.055771	-0.286667	0.284559
H235	H	1.115308	-0.192930	-0.621459
H236	H	1.448642	0.140403	-0.288126
H237	H	1.781975	0.473736	0.045207
H238	H	1.388816	-0.450980	-0.381918
H239	H	1.722150	-0.117647	-0.048584
H240	H	2.055483	0.215687	0.284749
H241	H	1.388870	-0.550046	-0.381949
H242	H	1.722204	-0.216713	-0.048616
H243	H	2.055537	0.116621	0.284718
H244	H	1.455850	-0.278943	-1.071140
H245	H	1.789183	0.054390	-0.737807
H246	H	2.122516	0.387724	-0.404473
H247	H	1.455806	-0.278961	-0.936595
H248	H	1.789139	0.054372	-0.603262
H249	H	2.122473	0.387706	-0.269928
