data_functionalizedCrystal
_audit_creation_method	'MofGen! by Chris Wilmer'
_symmetry_space_group_name_H-M	'P1'
_symmetry_Int_Tables_number	1
_symmetry_cell_setting	triclinic
loop_
_symmetry_equiv_pos_as_xyz
  x,y,z
_cell_length_a	15.944551
_cell_length_b	15.944551
_cell_length_c	14.421503
_cell_angle_alpha	89.996660
_cell_angle_beta	89.996859
_cell_angle_gamma	96.501262
loop_
_atom_site_label
_atom_site_type_symbol
_atom_site_fract_x
_atom_site_fract_y
_atom_site_fract_z
O1	O	1.114529	-0.108320	-0.077017
O2	O	0.869980	-0.121677	-0.077040
O3	O	0.998933	0.007276	-0.077020
O4	O	0.985576	-0.237273	-0.077038
O5	O	0.998911	0.007257	0.077204
O6	O	0.869958	-0.121696	0.077183
O7	O	1.114508	-0.108340	0.077206
Cu8	Cu	0.992231	-0.115020	0.091277
Cu9	Cu	0.992256	-0.114997	-0.091110
O10	O	0.985555	-0.237293	0.077186
C11	C	0.838675	-0.121132	0.000069
C12	C	0.745429	-0.119470	0.000060
C13	C	0.530572	-0.035565	0.000084
C14	C	0.469563	-0.074518	-0.075959
C15	C	0.574703	-0.116462	0.000071
C16	C	0.469564	-0.074556	0.076093
C17	C	0.409790	-0.113551	0.000086
C18	C	0.514922	-0.155437	-0.076035
C19	C	0.514929	-0.155464	0.076086
C20	C	0.453937	-0.194476	0.000024
C21	C	0.669705	-0.118137	0.000062
C22	C	0.314789	-0.111883	0.000089
C23	C	0.998367	0.038561	0.000092
C24	C	0.996705	0.131807	0.000093
C25	C	1.145813	-0.108885	0.000096
C26	C	1.239059	-0.110547	0.000098
C27	C	0.986120	-0.268577	0.000072
C28	C	0.987782	-0.361823	0.000066
N29	N	0.992219	-0.115035	0.219558
C30	C	0.912801	0.346663	0.000072
C31	C	0.951753	0.407671	0.076117
C32	C	0.993698	0.302533	0.000085
C33	C	0.951793	0.407674	-0.075935
C34	C	0.990787	0.467445	0.000074
C35	C	1.032672	0.362312	0.076193
C36	C	1.032701	0.362308	-0.075927
C37	C	1.071711	0.423298	0.000136
C38	C	0.995372	0.207530	0.000092
C39	C	0.989119	0.562446	0.000073
N40	N	0.992275	-0.114975	-0.219392
C41	C	0.932581	-0.174636	0.469202
C42	C	1.008481	-0.190943	0.531011
C43	C	0.992240	-0.115015	0.408719
C44	C	0.916359	-0.098727	0.531005
C45	C	0.992253	-0.114997	0.591441
C46	C	1.068178	-0.131360	0.469167
C47	C	0.976007	-0.039111	0.469156
C48	C	1.051961	-0.055386	0.530936
C49	C	0.992231	-0.115027	0.303458
C50	C	0.992270	-0.114985	0.696700
H51	H	0.449469	-0.040333	0.140379
C52	C	0.823252	0.302288	0.000350
C53	C	0.781273	0.325133	0.080152
C54	C	0.698786	0.284262	0.080450
H55	H	0.794130	0.318435	-0.053061
H56	H	0.824898	0.242914	-0.000152
H57	H	0.779622	0.384494	0.080646
H58	H	0.810369	0.308985	0.133576
H59	H	0.700432	0.224887	0.079948
H60	H	0.669672	0.300412	0.027036
H61	H	0.670295	0.299750	0.134598
C62	C	1.161314	0.467537	-0.000013
C63	C	1.173992	0.517475	-0.079743
C64	C	1.256529	0.558220	-0.079922
H65	H	1.169823	0.502254	0.053448
H66	H	1.200198	0.426579	0.000470
H67	H	1.135119	0.558428	-0.080218
H68	H	1.165501	0.482779	-0.133217
H69	H	1.295413	0.517262	-0.079439
H70	H	1.265030	0.592932	-0.026458
H71	H	1.265144	0.592101	-0.134022
H72	H	0.917527	0.427771	0.140401
H73	H	1.066850	0.342314	0.140554
C74	C	1.026943	-0.276517	0.567125
C75	C	1.105815	-0.293967	0.534435
C76	C	1.122839	-0.372795	0.567674
H77	H	1.027391	-0.275815	0.632985
H78	H	0.984544	-0.318860	0.545970
H79	H	1.148203	-0.251635	0.555595
H80	H	1.105387	-0.294687	0.468578
H81	H	1.080440	-0.415138	0.546518
H82	H	1.123283	-0.372085	0.633533
H83	H	1.176351	-0.384648	0.545491
H84	H	0.534918	-0.189620	-0.140394
C85	C	0.865262	-0.241859	0.433175
C86	C	0.786070	-0.225412	0.465867
C87	C	0.724042	-0.287326	0.432707
H88	H	0.865275	-0.241116	0.367314
H89	H	0.876886	-0.295762	0.454383
H90	H	0.774448	-0.171523	0.444654
H91	H	0.786029	-0.226162	0.531725
H92	H	0.735666	-0.341229	0.453915
H93	H	0.724063	-0.286578	0.366847
H94	H	0.670305	-0.276179	0.454890
H95	H	1.132368	-0.145205	0.442119
H96	H	1.102474	-0.004956	0.557872
C97	C	1.078154	0.335495	-0.161756
C98	C	1.035523	0.358195	-0.241167
C99	C	1.077356	0.333495	-0.320256
H100	H	1.134293	0.362772	-0.162427
H101	H	1.079298	0.276055	-0.160873
H102	H	1.034388	0.417623	-0.242049
H103	H	0.979387	0.330921	-0.240526
H104	H	1.078500	0.274056	-0.319373
H105	H	1.133493	0.360774	-0.320917
H106	H	1.048432	0.348887	-0.374145
C107	C	0.906036	0.434335	-0.161628
C108	C	0.822893	0.395142	-0.161277
C109	C	0.780714	0.419669	-0.240203
H110	H	0.905664	0.493866	-0.161391
H111	H	0.934190	0.418011	-0.215647
H112	H	0.794745	0.411471	-0.107272
H113	H	0.823240	0.335612	-0.161527
H114	H	0.808869	0.403345	-0.294222
H115	H	0.780349	0.479200	-0.239960
H116	H	0.724300	0.393074	-0.239980
C117	C	0.957480	0.046402	0.432941
C118	C	0.877910	0.063117	0.464198
C119	C	0.860799	0.141877	0.430843
H120	H	0.999235	0.088953	0.454975
H121	H	0.958078	0.045934	0.367069
H122	H	0.877318	0.063592	0.530056
H123	H	0.836138	0.020587	0.442166
H124	H	0.861397	0.141409	0.364971
H125	H	0.902560	0.184421	0.452880
H126	H	0.806807	0.153225	0.452039
H127	H	0.420779	-0.261683	-0.000023
H128	H	0.563905	0.031573	-0.000005
H129	H	0.449461	-0.040294	-0.140243
C130	C	0.541746	-0.200916	0.161914
C131	C	0.519048	-0.158283	0.241325
C132	C	0.543751	-0.200114	0.320414
H133	H	0.514470	-0.257054	0.162588
H134	H	0.601185	-0.202059	0.161029
H135	H	0.459619	-0.157149	0.242210
H136	H	0.546321	-0.102147	0.240682
H137	H	0.603191	-0.201257	0.319529
H138	H	0.516473	-0.256251	0.321078
H139	H	0.528361	-0.171189	0.374303
H140	H	0.852183	-0.084959	0.558170
