data_functionalizedCrystal
_audit_creation_method	'MofGen! by Chris Wilmer'
_symmetry_space_group_name_H-M	'P1'
_symmetry_Int_Tables_number	1
_symmetry_cell_setting	triclinic
loop_
_symmetry_equiv_pos_as_xyz
  x,y,z
_cell_length_a	10.685980
_cell_length_b	14.908178
_cell_length_c	10.685986
_cell_angle_alpha	82.053409
_cell_angle_beta	90.307287
_cell_angle_gamma	97.409567
loop_
_atom_site_label
_atom_site_type_symbol
_atom_site_fract_x
_atom_site_fract_y
_atom_site_fract_z
Zn1	Zn	1.847913	-0.211881	-0.838217
Zn2	Zn	1.851772	-0.374857	-0.614339
Zn3	Zn	1.652464	-0.235143	-0.610346
Zn4	Zn	1.625896	-0.376545	-0.807808
O5	O	1.744511	-0.299607	-0.717678
O6	O	2.024751	-0.223059	-0.822916
O7	O	1.838067	-0.365352	-0.437477
O8	O	1.687894	-0.104675	-0.651629
O9	O	2.027586	-0.342796	-0.658434
O10	O	1.831490	-0.087584	-0.819045
O11	O	1.691636	-0.262706	-0.434544
O12	O	1.472614	-0.264342	-0.622143
O13	O	1.642614	-0.345673	-0.988174
O14	O	1.453095	-0.368229	-0.767217
O15	O	1.805728	-0.224695	-1.010515
O16	O	1.812305	-0.502464	-0.628948
O17	O	1.646356	-0.503704	-0.771089
C18	C	1.417135	-0.318994	-0.690947
C19	C	1.277078	-0.327308	-0.679540
C20	C	1.726898	-0.536109	-0.697182
C21	C	1.719476	-0.637277	-0.688466
C22	C	1.854919	-0.809434	-0.846579
C23	C	1.847949	-0.904490	-0.838394
C24	C	1.698560	-0.922446	-0.663916
C25	C	1.705530	-0.827390	-0.672102
C26	C	1.783714	-0.770887	-0.763435
C27	C	1.790690	-0.675830	-0.771614
C28	C	1.641294	-0.693788	-0.597143
C29	C	1.634324	-0.788843	-0.588957
C30	C	2.073166	-0.280144	-0.744513
C31	C	2.213219	-0.271851	-0.755948
C32	C	1.720777	-0.282778	-1.046344
C33	C	1.710663	-0.275606	-1.186402
C34	C	1.762225	-0.062177	-0.738283
C35	C	1.769774	0.039001	-0.747064
C36	C	1.768230	-0.316300	-0.390301
C37	C	1.778608	-0.323201	-0.250286
H38	H	1.224597	-0.381152	-0.605386
H39	H	1.918589	-0.763428	-0.920938
H40	H	1.265694	-0.218005	-0.830090
N41	N	1.865922	-0.384434	-1.180815
H42	H	1.860977	-0.381069	-1.087250
H43	H	1.839854	-0.449443	-1.196541
N44	N	1.623343	-0.214371	-1.255878
H45	H	1.649387	-0.149326	-1.240291
H46	H	1.628285	-0.217839	-1.349412
N47	N	1.875016	-0.614884	-0.870114
H48	H	1.919063	-0.653731	-0.921545
H49	H	1.822356	-0.575519	-0.927583
H50	H	1.583317	-0.662393	-0.529437
N51	N	1.924740	-0.946053	-0.928094
H52	H	2.017413	-0.925119	-0.917397
H53	H	1.908364	-1.014837	-0.909023
N54	N	1.614246	-0.983395	-0.565409
H55	H	1.620641	-1.049460	-0.572843
H56	H	1.641666	-0.970233	-0.478474
H57	H	1.570666	-0.834861	-0.514600
