data_functionalizedCrystal
_audit_creation_method	'MofGen! by Chris Wilmer'
_symmetry_space_group_name_H-M	'P1'
_symmetry_Int_Tables_number	1
_symmetry_cell_setting	triclinic
loop_
_symmetry_equiv_pos_as_xyz
  x,y,z
_cell_length_a	29.839131
_cell_length_b	12.827893
_cell_length_c	12.827885
_cell_angle_alpha	90.021189
_cell_angle_beta	89.963179
_cell_angle_gamma	89.960561
loop_
_atom_site_label
_atom_site_type_symbol
_atom_site_fract_x
_atom_site_fract_y
_atom_site_fract_z
Zn1	Zn	-0.178855	-1.597481	-0.590851
Zn2	Zn	-0.253992	-1.597295	-0.416090
Zn3	Zn	-0.178875	-1.422722	-0.416119
Zn4	Zn	-0.253956	-1.422628	-0.590784
O5	O	-0.216420	-1.510031	-0.503461
O6	O	-0.188829	-1.743692	-0.567684
O7	O	-0.244051	-1.574100	-0.269857
O8	O	-0.116005	-1.446021	-0.439338
O9	O	-0.244032	-1.743556	-0.439288
O10	O	-0.115991	-1.574415	-0.567713
O11	O	-0.188862	-1.445841	-0.269879
O12	O	-0.188827	-1.276473	-0.439273
O13	O	-0.243971	-1.445861	-0.737029
O14	O	-0.243990	-1.276404	-0.567598
O15	O	-0.188794	-1.574324	-0.737078
O16	O	-0.316855	-1.574008	-0.439223
O17	O	-0.316828	-1.445681	-0.567570
C18	C	-0.216407	-1.238522	-0.503432
C19	C	-0.216412	-1.122368	-0.503444
C20	C	-0.333142	-1.509843	-0.503409
C21	C	-0.383077	-1.509858	-0.503422
C22	C	-0.692721	-1.576973	-0.436728
C23	C	-0.880394	-1.577102	-0.436769
O24	O	-0.904660	-1.634016	-0.380024
N25	N	-0.903862	-1.510248	-0.503540
C26	C	-0.880408	-1.443362	-0.570310
O27	O	-0.904675	-1.386509	-0.627111
C28	C	-0.692736	-1.443239	-0.570274
C29	C	-0.669271	-1.510090	-0.503491
C30	C	-0.669256	-1.643819	-0.369952
C31	C	-0.622341	-1.643782	-0.369938
C32	C	-0.598890	-1.576899	-0.436701
C33	C	-0.622355	-1.510053	-0.503478
C34	C	-0.669283	-1.376359	-0.637049
C35	C	-0.622362	-1.376336	-0.637036
C36	C	-0.598897	-1.443187	-0.570253
C37	C	-0.551990	-1.443133	-0.570227
N38	N	-0.528522	-1.509987	-0.503456
C39	C	-0.551972	-1.576870	-0.436693
C40	C	-0.978939	-1.443430	-0.570323
C41	C	-1.025857	-1.443459	-0.570331
C42	C	-1.025839	-1.577201	-0.436791
C43	C	-0.978921	-1.577165	-0.436778
C44	C	-0.955471	-1.510284	-0.503552
C45	C	-0.453447	-1.576787	-0.436669
C46	C	-0.406527	-1.576741	-0.436659
C47	C	-0.406548	-1.443003	-0.570202
C48	C	-0.453464	-1.443045	-0.570210
C49	C	-0.476912	-1.509945	-0.503440
O50	O	-0.527695	-1.386257	-0.626951
O51	O	-0.527698	-1.633731	-0.379917
C52	C	-0.739637	-1.577010	-0.436742
C53	C	-0.763102	-1.510164	-0.503518
C54	C	-0.739651	-1.443281	-0.570281
C55	C	-0.810020	-1.510193	-0.503526
C56	C	-0.833470	-1.577076	-0.436763
C57	C	-0.810002	-1.643930	-0.369992
C58	C	-0.763087	-1.643893	-0.369979
C59	C	-0.763119	-1.376427	-0.637052
C60	C	-0.810034	-1.376468	-0.637059
C61	C	-0.833485	-1.443351	-0.570296
C62	C	-0.216377	-1.510103	-0.776031
C63	C	-0.216358	-1.510133	-0.892184
C64	C	-0.099241	-1.510249	-0.503536
C65	C	-0.049307	-1.510342	-0.503568
C66	C	-0.243750	-1.070577	-0.566844
C67	C	-0.243757	-0.950527	-0.566859
C68	C	-0.216429	-0.782602	-0.503482
C69	C	-0.216424	-0.898755	-0.503470
C70	C	-0.243631	-1.446618	-1.063989
C71	C	-0.243650	-1.446585	-0.943939
C72	C	-0.216430	-1.510021	-0.231951
C73	C	-0.216322	-1.510193	-0.115798
H74	H	-0.387423	-1.631178	-0.382273
H75	H	-1.044958	-1.389013	-0.624702
F76	F	-0.694207	-1.715013	-0.298889
F77	F	-0.478438	-1.371876	-0.641267
F78	F	-0.274213	-1.375446	-0.885707
H79	H	-0.472532	-1.631265	-0.382301
H80	H	-0.266994	-1.392211	-1.108510
F81	F	-0.597373	-1.714947	-0.298870
H82	H	-0.959818	-1.631602	-0.382399
F83	F	-0.834968	-1.715109	-0.298935
H84	H	-0.192979	-1.564568	-0.936732
F85	F	-0.953988	-1.372239	-0.641396
H86	H	-0.193019	-0.943287	-0.449184
F87	F	-0.835003	-1.305309	-0.708141
H88	H	-1.044941	-1.631660	-0.382430
F89	F	-0.274339	-1.128784	-0.637777
F90	F	-0.185779	-1.581301	-1.057612
F91	F	-0.694246	-1.305215	-0.708138
F92	F	-0.597408	-1.305151	-0.708110
H93	H	-0.387448	-1.388545	-0.624557
H94	H	-0.193010	-1.077832	-0.449180
F95	F	-0.274352	-0.892314	-0.637803
H96	H	-0.743985	-1.698329	-0.315598
H97	H	-0.744029	-1.321964	-0.691420
