data_functionalizedCrystal
_audit_creation_method	'MofGen! by Chris Wilmer'
_symmetry_space_group_name_H-M	'P1'
_symmetry_Int_Tables_number	1
_symmetry_cell_setting	triclinic
loop_
_symmetry_equiv_pos_as_xyz
  x,y,z
_cell_length_a	15.297475
_cell_length_b	13.897448
_cell_length_c	15.296720
_cell_angle_alpha	99.646091
_cell_angle_beta	91.617114
_cell_angle_gamma	80.320483
loop_
_atom_site_label
_atom_site_type_symbol
_atom_site_fract_x
_atom_site_fract_y
_atom_site_fract_z
Zn1	Zn	1.253455	-0.750725	-0.726608
Zn2	Zn	1.278728	-0.889621	-0.580126
Zn3	Zn	1.132329	-0.696535	-0.554848
Zn4	Zn	1.106953	-0.880140	-0.701254
O5	O	1.192866	-0.804255	-0.640709
O6	O	1.379388	-0.795796	-0.728367
O7	O	1.280504	-0.845298	-0.454198
O8	O	1.148440	-0.568756	-0.577665
O9	O	1.397955	-0.897843	-0.620747
O10	O	1.237431	-0.608569	-0.703856
O11	O	1.172946	-0.703438	-0.435627
O12	O	1.006383	-0.694244	-0.553080
O13	O	1.105191	-0.881683	-0.827192
O14	O	0.987740	-0.829138	-0.660644
O15	O	1.212825	-0.786602	-0.845820
O16	O	1.255899	-1.023331	-0.596162
O17	O	1.129697	-1.016365	-0.685154
C18	C	0.965278	-0.754783	-0.601368
C19	C	0.867911	-0.733644	-0.584559
C20	C	0.554781	-0.955341	-0.760852
C21	C	0.646262	-0.975208	-0.776642
C22	C	0.701679	-0.914818	-0.728623
C23	C	0.665605	-0.834559	-0.664810
C24	C	0.574115	-0.814694	-0.649012
C25	C	0.721013	-0.774172	-0.616784
C26	C	0.684939	-0.693913	-0.552970
C27	C	0.593458	-0.674051	-0.537176
C28	C	0.538042	-0.734441	-0.585196
C29	C	0.812503	-0.794037	-0.632581
C30	C	0.831837	-0.653391	-0.520742
C31	C	0.740356	-0.633523	-0.504951
C32	C	1.192807	-1.054852	-0.640673
C33	C	1.192856	-1.162080	-0.640700
C34	C	1.192939	-1.358403	-0.640771
C35	C	1.192890	-1.249155	-0.640734
C36	C	1.421344	-0.853922	-0.680204
C37	C	1.518707	-0.875087	-0.697035
C38	C	1.153358	-0.839129	-0.869177
C39	C	1.136522	-0.853991	-0.966536
C40	C	1.192947	-0.552688	-0.640769
C41	C	1.192981	-0.445485	-0.640795
C42	C	1.313229	-0.697877	-1.279771
C43	C	1.329053	-0.683917	-1.188298
C44	C	1.280921	-0.726434	-1.132853
C45	C	1.216964	-0.782914	-1.168890
C46	C	1.201143	-0.796882	-1.260373
C47	C	1.168836	-0.825439	-1.113455
C48	C	1.104878	-0.881919	-1.149492
C49	C	1.089060	-0.895883	-1.240966
C50	C	1.137191	-0.853367	-1.296411
C51	C	1.184656	-0.811471	-1.021973
C52	C	1.072570	-0.910475	-1.002574
C53	C	1.056746	-0.924435	-1.094047
C54	C	1.232271	-0.769458	-0.413139
C55	C	1.249277	-0.754362	-0.315809
H56	H	0.776167	-0.930999	-0.741484
H57	H	1.033379	-0.945098	-0.957431
C58	C	0.851836	-0.881148	-0.701798
C59	C	0.943817	-0.885639	-0.705344
C60	C	0.980080	-0.965884	-0.769094
H61	H	0.826772	-0.872956	-0.758140
H62	H	0.839116	-0.940735	-0.686283
H63	H	0.956530	-0.826067	-0.720864
H64	H	0.968905	-0.893846	-0.649019
H65	H	0.967360	-1.025471	-0.753579
H66	H	0.955010	-0.957685	-0.825431
H67	H	1.042494	-0.968948	-0.771503
H68	H	1.236730	-0.765483	-0.992640
C69	C	0.987383	-0.985912	-1.133077
C70	C	1.010259	-1.082083	-1.114082
C71	C	0.946378	-1.138739	-1.150011
H72	H	0.984799	-0.988259	-1.195501
H73	H	0.931113	-0.956765	-1.107895
H74	H	1.066515	-1.111223	-1.139267
H75	H	1.012837	-1.079767	-1.051665
H76	H	0.890107	-1.109592	-1.124829
H77	H	0.943799	-1.141078	-1.212434
H78	H	0.961886	-1.203995	-1.137121
C79	C	0.494464	-1.020756	-0.812918
C80	C	0.406624	-0.986167	-0.785436
C81	C	0.351034	-1.046402	-0.833390
H82	H	0.511563	-1.086848	-0.802617
H83	H	0.499230	-1.018971	-0.874396
H84	H	0.401862	-0.987962	-0.723972
H85	H	0.389498	-0.920084	-0.795738
H86	H	0.355800	-1.044617	-0.894868
H87	H	0.368141	-1.112491	-0.823086
H88	H	0.291428	-1.022936	-0.814756
C89	C	1.120019	-0.868731	-1.395730
C90	C	1.137081	-0.970034	-1.429840
C91	C	1.121264	-0.984223	-1.521327
H92	H	1.157819	-0.835405	-1.423695
H93	H	1.059903	-0.842978	-1.406687
H94	H	1.197187	-0.995775	-1.418891
H95	H	1.099284	-1.003382	-1.401900
H96	H	1.061148	-0.958470	-1.532284
H97	H	1.159066	-0.950892	-1.549284
H98	H	1.132830	-1.052958	-1.544481
H99	H	1.352416	-0.663273	-1.324923
C100	C	0.554449	-0.586979	-0.467753
C101	C	0.591712	-0.599436	-0.384910
C102	C	0.555819	-0.519240	-0.320933
H103	H	0.492035	-0.583700	-0.465084
H104	H	0.567254	-0.527403	-0.483216
H105	H	0.578900	-0.658996	-0.369451
H106	H	0.654123	-0.602703	-0.387551
H107	H	0.568624	-0.459663	-0.336396
H108	H	0.493406	-0.515967	-0.318272
H109	H	0.581102	-0.527676	-0.264719
H110	H	0.675627	-1.040557	-0.828598
C111	C	1.019697	-0.957365	-1.279985
C112	C	1.042580	-1.053531	-1.260978
C113	C	0.978698	-1.110194	-1.296893
H114	H	1.017106	-0.959722	-1.342410
H115	H	0.963428	-0.928217	-1.254799
H116	H	1.098833	-1.082672	-1.286167
H117	H	1.045163	-1.051205	-1.198560
H118	H	0.922429	-1.081046	-1.271707
H119	H	0.976113	-1.112543	-1.359316
H120	H	0.994211	-1.175446	-1.283995
C121	C	0.438732	-0.712679	-0.567952
C122	C	0.418995	-0.629458	-0.501801
C123	C	0.327518	-0.609376	-0.485904
H124	H	0.420552	-0.767989	-0.549082
H125	H	0.408246	-0.700180	-0.620915
H126	H	0.449470	-0.641963	-0.448849
H127	H	0.437153	-0.574130	-0.520653
H128	H	0.297032	-0.596877	-0.538866
H129	H	0.309346	-0.664692	-0.467037
H130	H	0.314114	-0.552904	-0.441025
C131	C	0.701322	-0.546449	-0.435541
C132	C	0.738561	-0.558881	-0.352683
C133	C	0.702633	-0.478683	-0.288725
H134	H	0.638909	-0.543188	-0.432892
H135	H	0.714120	-0.486871	-0.451006
H136	H	0.725756	-0.618444	-0.337222
H137	H	0.800971	-0.562131	-0.355303
H138	H	0.715431	-0.419105	-0.304189
H139	H	0.640221	-0.475429	-0.286084
H140	H	0.727900	-0.487103	-0.232500
H141	H	1.293809	-0.715064	-1.058373
C142	C	0.892136	-0.587903	-0.468725
C143	C	0.979971	-0.622460	-0.496235
C144	C	1.035546	-0.562158	-0.448347
H145	H	0.887424	-0.589630	-0.407240
H146	H	0.874971	-0.521826	-0.479078
H147	H	0.997131	-0.688519	-0.485874
H148	H	0.984711	-0.620730	-0.557712
H149	H	1.018381	-0.496081	-0.458700
H150	H	1.030827	-0.563888	-0.386865
H151	H	1.095148	-0.585590	-0.467011
C152	C	1.398364	-0.622406	-1.149216
C153	C	1.375446	-0.526230	-1.168191
C154	C	1.439269	-0.469525	-1.132198
H155	H	1.454659	-0.651475	-1.174352
H156	H	1.400898	-0.620097	-1.086785
H157	H	1.372921	-0.528543	-1.230610
H158	H	1.319162	-0.497133	-1.143054
H159	H	1.441804	-0.467216	-1.069767
H160	H	1.495560	-0.498603	-1.157337
H161	H	1.423724	-0.404262	-1.145061
