data_functionalizedCrystal
_audit_creation_method	'MofGen! by Chris Wilmer'
_symmetry_space_group_name_H-M	'P1'
_symmetry_Int_Tables_number	1
_symmetry_cell_setting	triclinic
loop_
_symmetry_equiv_pos_as_xyz
  x,y,z
_cell_length_a	14.446369
_cell_length_b	14.560438
_cell_length_c	14.560438
_cell_angle_alpha	60.005846
_cell_angle_beta	89.997298
_cell_angle_gamma	60.000513
loop_
_atom_site_label
_atom_site_type_symbol
_atom_site_fract_x
_atom_site_fract_y
_atom_site_fract_z
Zr1	Zr	0.891765	1.005240	-0.120425
O2	O	0.743974	1.196817	-0.267037
O3	O	0.937065	0.813658	-0.075500
O4	O	0.937077	1.005243	-0.267075
O5	O	0.743960	1.005232	0.075678
O6	O	1.089406	1.005251	-0.267083
O7	O	0.743963	1.005232	-0.075462
O8	O	1.089385	0.662540	0.075609
O9	O	0.743980	1.347943	-0.267015
O10	O	1.070073	0.892467	-0.056323
O11	O	0.956389	0.892460	0.056477
O12	O	0.956403	1.118027	-0.169078
O13	O	0.842720	1.118021	-0.056278
Zr14	Zr	1.134707	1.005253	0.120612
Zr15	Zr	1.134712	1.005253	-0.120438
Zr16	Zr	0.891760	1.005240	0.120625
Zr17	Zr	0.891774	1.246268	-0.120390
Zr18	Zr	1.134697	0.764225	0.120577
O19	O	1.089406	1.196835	0.075688
O20	O	1.089413	1.196836	-0.267055
O21	O	0.743967	1.196817	0.075706
O22	O	1.282497	0.813676	0.267224
O23	O	1.282504	0.813677	-0.075519
O24	O	0.937058	0.813657	0.267242
O25	O	1.282512	1.005261	-0.075490
O26	O	1.089395	1.005250	0.267262
O27	O	0.937066	1.005242	0.267270
O28	O	1.282509	1.005261	0.075649
O29	O	0.937091	1.347953	-0.267025
O30	O	1.089381	0.662540	0.267212
O31	O	1.282491	0.662550	0.267202
O32	O	1.282495	0.662551	0.075599
O33	O	0.743976	1.347942	-0.075412
O34	O	0.937087	1.347953	-0.075422
O35	O	1.070068	0.892466	0.169265
O36	O	1.183752	0.892473	0.056465
O37	O	1.070082	1.118033	-0.056290
O38	O	0.956399	1.118027	0.056510
C39	C	1.013224	0.703758	0.000049
C40	C	1.013219	0.601435	0.000034
C41	C	0.929309	0.636557	-0.083182
C42	C	0.929327	0.540368	-0.083126
C43	C	1.097171	0.373936	0.083374
C44	C	1.097157	0.470124	0.083312
C45	C	0.832402	0.732645	-0.179307
C46	C	0.832420	0.636456	-0.179250
C47	C	0.709346	1.005230	0.000110
C48	C	0.606209	1.005224	0.000115
C49	C	0.531219	0.862978	0.070861
C50	C	0.638548	0.862882	0.071266
C51	C	0.531651	1.075886	0.052016
C52	C	0.424792	1.074983	0.052527
C53	C	0.423222	1.077913	-0.122645
C54	C	0.531894	1.075232	-0.122444
C55	C	1.317125	1.005263	0.000078
C56	C	1.420262	1.005269	0.000072
C57	C	1.013242	1.005247	-0.301424
C58	C	1.013244	1.005247	-0.403756
C59	C	1.013248	1.306735	0.000138
C60	C	1.013252	1.409058	0.000153
C61	C	1.097158	1.005257	-0.451844
C62	C	1.097152	1.005252	-0.547993
C63	C	0.929309	1.005232	-0.547960
C64	C	0.929320	1.005228	-0.451808
C65	C	1.194058	1.005275	-0.451867
C66	C	1.194053	1.005269	-0.548016
C67	C	1.013230	1.005246	0.301611
C68	C	1.013228	1.005246	0.403943
C69	C	1.317113	0.703774	0.000033
C70	C	1.420246	0.601457	0.000013
C71	C	1.013217	0.703757	0.301567
C72	C	1.013211	0.601434	0.403884
C73	C	1.317107	0.703774	0.301551
C74	C	1.420238	0.601457	0.403862
C75	C	0.709365	1.306719	-0.301363
C76	C	0.606234	1.409037	-0.403675
C77	C	0.709358	1.306719	0.000154
C78	C	0.606225	1.409036	0.000174
C79	C	1.013254	1.306736	-0.301379
C80	C	1.013260	1.409059	-0.403697
C81	C	1.409362	0.553382	-0.058867
C82	C	1.506271	0.457252	-0.058890
C83	C	1.624944	0.457277	0.058856
C84	C	1.528036	0.553412	0.058872
C85	C	1.340848	0.553363	-0.126843
C86	C	1.437756	0.457232	-0.126866
C87	C	1.072549	0.553361	0.510827
C88	C	1.072534	0.457223	0.606961
C89	C	0.953842	0.457236	0.489195
C90	C	0.953851	0.553379	0.393064
C91	C	1.141080	0.553349	0.578819
C92	C	1.141065	0.457211	0.674953
C93	C	1.528031	0.553387	0.393051
C94	C	1.624929	0.457255	0.489188
C95	C	1.506229	0.457268	0.606943
C96	C	1.409332	0.553404	0.510808
C97	C	1.596563	0.553375	0.325067
C98	C	1.693461	0.457243	0.421203
H99	H	1.165509	0.267014	0.151176
C100	C	1.089591	0.674940	0.578849
H101	H	1.068398	0.659709	0.644092
H102	H	1.144018	0.693428	0.578854
H103	H	1.024572	0.746696	0.513621
H104	H	1.165494	0.441516	0.151066
H105	H	0.860981	1.005215	-0.587093
C106	C	0.843691	0.817711	-0.290246
H107	H	0.848354	0.787415	-0.335826
H108	H	0.779376	0.905205	-0.328965
H109	H	0.910330	0.812969	-0.274381
H110	H	0.504425	1.180546	0.002944
C111	C	1.449638	0.506016	-0.244459
H112	H	1.516295	0.437830	-0.240462
H113	H	1.385399	0.533183	-0.295076
H114	H	1.454573	0.577119	-0.270375
H115	H	0.755330	0.792314	-0.162507
H116	H	0.849352	0.636424	-0.255708
C117	C	1.305854	0.883169	-0.355581
H118	H	1.351821	0.832946	-0.381227
H119	H	1.344868	0.908277	-0.331894
H120	H	1.289838	0.832940	-0.294224
H121	H	0.749662	0.647266	-0.170937
C122	C	1.743510	0.404417	0.123604
H123	H	1.799668	0.340271	0.115168
H124	H	1.752010	0.473439	0.094540
H125	H	1.752006	0.366902	0.201064
C126	C	1.762802	0.506038	0.433009
H127	H	1.827483	0.437854	0.499140
H128	H	1.786447	0.533222	0.369279
H129	H	1.717249	0.577133	0.437918
C130	C	0.601348	1.009606	0.172850
H131	H	0.555493	1.053077	0.203537
H132	H	0.626431	0.921442	0.217714
H133	H	0.665118	1.013432	0.171838
C134	C	0.711873	0.787982	0.024248
H135	H	0.676186	0.757333	0.004731
H136	H	0.720293	0.844036	-0.040673
H137	H	0.784377	0.716341	0.079696
H138	H	1.177128	1.098539	-0.468668
C139	C	1.259595	0.504559	0.567008
H140	H	1.312367	0.416305	0.628274
H141	H	1.257303	0.511686	0.498412
H142	H	1.282238	0.555579	0.567069
C143	C	0.497407	1.215528	-0.199688
H144	H	0.528009	1.233325	-0.158016
H145	H	0.525827	1.225653	-0.260418
H146	H	0.417094	1.274168	-0.228266
C147	C	0.417546	1.016488	-0.181257
H148	H	0.413333	0.945945	-0.131422
H149	H	0.352255	1.079743	-0.246878
H150	H	0.483533	0.985873	-0.201618
H151	H	1.587767	0.517243	0.274146
C152	C	1.596581	0.674967	0.254567
H153	H	1.662337	0.659741	0.290817
H154	H	1.596589	0.693448	0.182083
H155	H	1.530829	0.746726	0.247328
C156	C	1.437770	0.335615	-0.075766
H157	H	1.372020	0.350828	-0.054725
H158	H	1.437774	0.317110	-0.129757
H159	H	1.503528	0.263878	-0.011266
H160	H	0.905519	0.592530	0.305989
H161	H	1.497363	0.418133	0.694028
H162	H	0.533552	0.807129	0.036226
H163	H	1.271126	0.912009	-0.531223
C164	C	1.271517	0.504561	-0.066239
H165	H	1.206828	0.572747	-0.068282
H166	H	1.247885	0.477358	-0.102775
H167	H	1.317070	0.433478	0.009751
H168	H	1.185696	1.095669	-0.619306
H169	H	0.532248	0.807408	0.160841
C170	C	1.764526	0.335635	0.421195
H171	H	1.727991	0.350852	0.355960
H172	H	1.837588	0.317142	0.421190
H173	H	1.771818	0.263888	0.486431
C174	C	0.837013	1.005227	-0.398914
H175	H	0.849039	1.005223	-0.334764
H176	H	0.764572	1.080548	-0.452323
H177	H	0.840492	0.929892	-0.377004
H178	H	1.095858	0.493336	0.725883
H179	H	0.905512	0.418099	0.480399
C180	C	0.318644	1.216005	-0.012598
H181	H	0.340960	1.273592	-0.039243
H182	H	0.272664	1.234749	-0.074565
H183	H	0.276833	1.226677	0.035859
H184	H	0.345013	1.182735	-0.175635
C185	C	0.711200	0.787519	0.193559
H186	H	0.675152	0.756854	0.243184
H187	H	0.783806	0.715888	0.209921
H188	H	0.719444	0.843337	0.203025
H189	H	0.425058	1.024766	0.142831
C190	C	1.263626	0.335608	0.745444
H191	H	1.314040	0.350832	0.709193
H192	H	1.282263	0.317116	0.817932
H193	H	1.270186	0.263858	0.752676
C194	C	0.601359	1.005652	-0.174836
H195	H	0.675345	0.934237	-0.122250
H196	H	0.565149	0.975176	-0.193866
H197	H	0.606461	1.064620	-0.240711
C198	C	1.540011	0.606299	0.123633
H199	H	1.618086	0.563906	0.158691
H200	H	1.504672	0.697066	0.072824
H201	H	1.504678	0.590529	0.179358
H202	H	1.288243	0.643363	-0.216857
H203	H	1.321565	0.592551	0.519619
