data_functionalizedCrystal
_audit_creation_method	'MofGen! by Chris Wilmer'
_symmetry_space_group_name_H-M	'P1'
_symmetry_Int_Tables_number	1
_symmetry_cell_setting	triclinic
loop_
_symmetry_equiv_pos_as_xyz
  x,y,z
_cell_length_a	20.875641
_cell_length_b	14.560438
_cell_length_c	14.560438
_cell_angle_alpha	60.000905
_cell_angle_beta	89.999936
_cell_angle_gamma	57.589171
loop_
_atom_site_label
_atom_site_type_symbol
_atom_site_fract_x
_atom_site_fract_y
_atom_site_fract_z
Zr1	Zr	0.641476	0.937870	-0.086821
O2	O	0.535150	1.140646	-0.239050
O3	O	0.674070	0.742844	-0.040157
O4	O	0.674067	0.934448	-0.231758
O5	O	0.535156	0.949039	0.103692
O6	O	0.783648	0.922934	-0.226004
O7	O	0.535153	0.949042	-0.047449
O8	O	0.783653	0.580189	0.116735
O9	O	0.535150	1.291784	-0.239047
O10	O	0.769750	0.811598	-0.015958
O11	O	0.687974	0.820189	0.092542
O12	O	0.687970	1.045778	-0.133043
O13	O	0.606193	1.054369	-0.024543
Zr14	Zr	0.816249	0.919501	0.163409
Zr15	Zr	0.816244	0.919506	-0.077643
Zr16	Zr	0.641480	0.937866	0.154231
Zr17	Zr	0.641476	1.178918	-0.086816
Zr18	Zr	0.816248	0.678454	0.163404
O19	O	0.783654	1.114528	0.116745
O20	O	0.783648	1.114534	-0.226000
O21	O	0.535156	1.140640	0.103696
O22	O	0.922575	0.716725	0.315638
O23	O	0.922568	0.716732	-0.027108
O24	O	0.674077	0.742838	0.302588
O25	O	0.922569	0.908333	-0.027104
O26	O	0.783657	0.922924	0.308346
O27	O	0.674077	0.934438	0.302592
O28	O	0.922571	0.908330	0.124037
O29	O	0.674067	1.277187	-0.231752
O30	O	0.783657	0.580185	0.308340
O31	O	0.922574	0.565587	0.315635
O32	O	0.922571	0.565591	0.124030
O33	O	0.535154	1.291781	-0.047442
O34	O	0.674071	1.277183	-0.040147
O35	O	0.769755	0.811594	0.209631
O36	O	0.851531	0.803002	0.101131
O37	O	0.769751	1.037183	-0.015954
O38	O	0.687974	1.045774	0.092546
C39	C	0.728862	0.627172	0.038288
C40	C	0.728862	0.524841	0.038286
C41	C	0.510254	0.951657	0.026814
C42	C	0.436060	0.959454	0.022918
C43	C	0.771547	0.472281	-0.018350
C44	C	0.771550	0.376121	-0.018339
C45	C	0.686177	0.385095	0.094945
C46	C	0.686179	0.481246	0.094941
C47	C	0.443890	0.840880	0.082199
C48	C	0.374174	0.848213	0.078535
C49	C	0.296629	0.974122	0.015584
C50	C	0.288801	1.092705	-0.043699
C51	C	0.358516	1.085370	-0.040028
C52	C	0.083551	1.009166	-0.001942
C53	C	0.013834	1.016492	-0.005611
C54	C	0.099213	0.772000	0.116626
C55	C	0.168925	0.764676	0.120285
C56	C	0.161091	0.883259	0.061007
N57	N	0.225368	0.981621	0.011835
N58	N	0.232352	0.875758	0.064764
C59	C	0.947471	0.905715	0.049774
C60	C	1.021664	0.897918	0.053670
C61	C	0.728857	0.928692	-0.263226
C62	C	0.728855	0.928693	-0.365559
C63	C	0.728863	1.230200	0.038300
C64	C	0.728863	1.332531	0.038302
C65	C	0.686167	1.050931	-0.474752
C66	C	0.686177	1.050924	-0.570900
C67	C	0.771563	0.806431	-0.448648
C68	C	0.771557	0.806439	-0.352502
C69	C	0.728868	0.928680	0.339814
C70	C	0.728870	0.928678	0.442147
C71	C	0.947470	0.604201	0.049768
C72	C	1.021664	0.494073	0.053662
C73	C	0.728867	0.627166	0.339808
C74	C	0.728869	0.524834	0.442139
C75	C	0.947476	0.604195	0.351288
C76	C	1.021671	0.494066	0.457515
C77	C	0.510249	1.253177	-0.274700
C78	C	0.436053	1.363306	-0.380927
C79	C	0.510254	1.253171	0.026820
C80	C	0.436061	1.363298	0.022926
C81	C	0.728857	1.230205	-0.263220
C82	C	0.728855	1.332538	-0.365551
C83	C	1.013817	0.446843	-0.005638
C84	C	1.083523	0.343381	-0.002002
C85	C	1.161075	0.287144	0.060942
C86	C	1.168920	0.334384	0.120244
C87	C	1.099215	0.437851	0.116601
C88	C	1.099208	0.437863	0.450765
C89	C	1.168929	0.334397	0.550568
C90	C	1.161112	0.287130	0.657120
C91	C	1.083567	0.343344	0.663868
C92	C	1.013847	0.446814	0.564066
C93	C	0.358516	1.419521	-0.374177
C94	C	0.288795	1.523016	-0.473980
C95	C	0.296613	1.570288	-0.580532
C96	C	0.374158	1.514068	-0.587280
C97	C	0.443877	1.410582	-0.487478
C98	C	0.443907	1.410539	0.082216
C99	C	0.374201	1.514027	0.078553
C100	C	0.296649	1.570268	0.015606
C101	C	0.288804	1.523023	-0.043692
C102	C	0.358509	1.419543	-0.040035
C103	C	0.771558	0.472269	0.551334
C104	C	0.771550	0.376126	0.647481
C105	C	0.686164	0.385118	0.525224
C106	C	0.686167	0.481266	0.429080
H107	H	0.806309	0.333327	-0.064456
H108	H	0.651417	1.150462	-0.659808
O109	O	0.644680	1.169800	-0.487633
C110	C	0.606990	1.277689	-0.604632
H111	H	0.640477	1.239640	-0.654144
H112	H	0.609284	1.359811	-0.617914
H113	H	0.540732	1.320858	-0.636448
O114	O	0.812965	0.687802	-0.436171
C115	C	0.803786	0.713999	-0.544445
H116	H	0.746112	0.821246	-0.611188
H117	H	0.798905	0.639277	-0.543593
H118	H	0.858918	0.702658	-0.566105
H119	H	0.507009	1.364812	-0.492987
H120	H	0.352135	1.181925	-0.088287
O121	O	0.812943	0.514809	-0.073357
C122	C	0.803810	0.610922	-0.061195
H123	H	0.746155	0.659040	-0.042544
H124	H	0.798923	0.692318	-0.143404
H125	H	0.858967	0.559128	0.012193
H126	H	0.806323	0.706892	-0.263585
O127	O	0.350766	1.373824	-0.270772
C128	C	0.267373	1.445636	-0.286239
H129	H	0.230199	1.546994	-0.373997
H130	H	0.257662	1.463239	-0.217797
H131	H	0.246823	1.384746	-0.279431
O132	O	0.938550	0.501353	-0.066883
C133	C	0.946588	0.437442	-0.118415
H134	H	1.008797	0.391291	-0.126805
H135	H	0.896590	0.514828	-0.206569
H136	H	0.940879	0.354531	-0.063544
O137	O	0.644723	0.342651	0.149869
C138	C	0.653888	0.246493	0.137751
H139	H	0.669606	0.260625	0.059056
H140	H	0.594469	0.260546	0.127888
H141	H	0.704997	0.140553	0.216508
O142	O	1.075994	0.297260	-0.059431
C143	C	1.113749	0.158570	0.018139
H144	H	1.161274	0.112788	0.098117
H145	H	1.144682	0.105508	-0.022964
H146	H	1.065821	0.145262	0.041988
H147	H	1.217827	0.202894	0.063900
H148	H	0.380513	1.552571	-0.674046
O149	O	0.213449	1.577537	-0.104649
C150	C	0.170581	1.558573	-0.031293
H151	H	0.215827	1.469538	0.059780
H152	H	0.132017	1.537176	-0.058825
H153	H	0.129233	1.653668	-0.035517
H154	H	0.651419	0.524040	0.141066
H155	H	1.232072	0.288581	0.171492
H156	H	0.507048	1.364755	0.133482
O157	O	0.519259	0.718648	0.143435
C158	C	0.562129	0.707078	0.228345
H159	H	0.535512	0.812116	0.202202
H160	H	0.629220	0.650181	0.239004
H161	H	0.556324	0.649582	0.312489
H162	H	0.380557	0.751658	0.126810
H163	H	0.651399	0.349631	0.514605
H164	H	0.232062	0.662148	0.171525
H165	H	0.651401	0.524069	0.340162
H166	H	0.105582	0.675456	0.164887
H167	H	-0.049308	1.119028	-0.056879
O168	O	0.813092	0.325156	0.753472
C169	C	0.850761	0.384259	0.744372
H170	H	0.859215	0.422987	0.659018
H171	H	0.912772	0.305607	0.816591
H172	H	0.810759	0.471972	0.750151
H173	H	1.077214	0.304844	0.750636
O174	O	0.938573	0.501409	0.570778
C175	C	0.929633	0.557985	0.629606
H176	H	0.992388	0.507978	0.685947
H177	H	0.892986	0.540719	0.684858
H178	H	0.896295	0.671005	0.565585
O179	O	1.244311	0.279706	0.544202
C180	C	1.304179	0.178235	0.655130
H181	H	1.277022	0.196857	0.717450
H182	H	1.357921	0.180434	0.656864
H183	H	1.326007	0.075364	0.680774
H184	H	1.105615	0.476292	0.164898
O185	O	0.213457	1.577812	-0.467468
C186	C	0.170565	1.717048	-0.521807
H187	H	0.215794	1.738623	-0.523874
H188	H	0.132034	1.748709	-0.472819
H189	H	0.129185	1.776402	-0.612665
O190	O	1.106668	0.483888	0.347177
C191	C	1.028512	0.587293	0.260520
H192	H	0.982305	0.576353	0.295557
H193	H	1.029287	0.579410	0.186412
H194	H	1.010747	0.689729	0.229517
O195	O	0.381978	1.559700	0.136274
C196	C	0.465376	1.487873	0.192602
H197	H	0.502537	1.386517	0.206197
H198	H	0.475101	1.470266	0.278648
H199	H	0.485928	1.548754	0.138514
H200	H	0.077161	1.105725	-0.050230
O201	O	0.229003	1.670901	0.012030
C202	C	0.229135	1.782117	-0.034796
H203	H	0.294237	1.746227	-0.023388
H204	H	0.203507	1.831329	0.010613
H205	H	0.189768	1.858729	-0.129475
O206	O	1.228780	0.186503	0.754145
C207	C	1.228681	0.075253	0.818554
H208	H	1.163584	0.111109	0.794127
H209	H	1.254346	0.026018	0.913171
H210	H	1.268032	-0.001328	0.800448
O211	O	0.228858	1.670648	-0.677441
C212	C	0.182146	1.628565	-0.679683
H213	H	0.223082	1.513560	-0.623175
H214	H	0.153882	1.669315	-0.770858
H215	H	0.131704	1.668790	-0.646832
O216	O	0.350983	1.373412	-0.097450
C217	C	0.388723	1.234728	-0.019871
H218	H	0.436245	1.188946	0.060111
H219	H	0.419657	1.181649	-0.060960
H220	H	0.340785	1.221445	0.003968
H221	H	0.225658	1.195222	-0.094949
H222	H	0.806325	0.507743	0.561974
