data_functionalizedCrystal
_audit_creation_method	'MofGen! by Chris Wilmer'
_symmetry_space_group_name_H-M	'P1'
_symmetry_Int_Tables_number	1
_symmetry_cell_setting	triclinic
loop_
_symmetry_equiv_pos_as_xyz
  x,y,z
_cell_length_a	18.050590
_cell_length_b	21.295416
_cell_length_c	18.050583
_cell_angle_alpha	90.037986
_cell_angle_beta	89.999666
_cell_angle_gamma	89.980502
loop_
_atom_site_label
_atom_site_type_symbol
_atom_site_fract_x
_atom_site_fract_y
_atom_site_fract_z
Zn1	Zn	1.135290	0.250746	-0.419593
Zn2	Zn	1.385290	0.500746	-0.169593
Zn3	Zn	1.635290	0.750746	0.080407
Zn4	Zn	1.885290	1.000746	0.330407
Zn5	Zn	1.135193	0.356033	-0.295399
Zn6	Zn	1.385193	0.606033	-0.045399
Zn7	Zn	1.635193	0.856033	0.204601
Zn8	Zn	1.885193	1.106033	0.454601
Zn9	Zn	1.011106	0.250761	-0.295451
Zn10	Zn	1.261106	0.500761	-0.045451
Zn11	Zn	1.511106	0.750761	0.204549
Zn12	Zn	1.761106	1.000761	0.454549
Zn13	Zn	1.011052	0.355962	-0.419582
Zn14	Zn	1.261052	0.605962	-0.169582
Zn15	Zn	1.511052	0.855962	0.080418
Zn16	Zn	1.761052	1.105962	0.330418
O17	O	1.073160	0.303375	-0.357506
O18	O	1.323160	0.553375	-0.107506
O19	O	1.573160	0.803375	0.142494
O20	O	1.823160	1.053375	0.392494
O21	O	1.239201	0.264736	-0.403101
O22	O	1.489201	0.514736	-0.153101
O23	O	1.739201	0.764736	0.096899
O24	O	1.989201	1.014736	0.346899
O25	O	1.118715	0.342104	-0.191481
O26	O	1.368715	0.592104	0.058519
O27	O	1.618715	0.842104	0.308519
O28	O	1.868715	1.092104	0.558519
O29	O	1.027643	0.162670	-0.311945
O30	O	1.277643	0.412670	-0.061945
O31	O	1.527643	0.662670	0.188055
O32	O	1.777643	0.912670	0.438055
O33	O	1.239131	0.342090	-0.311857
O34	O	1.489131	0.592090	-0.061857
O35	O	1.739131	0.842090	0.188143
O36	O	1.989131	1.092090	0.438143
O37	O	1.118879	0.162659	-0.403151
O38	O	1.368879	0.412659	-0.153151
O39	O	1.618879	0.662659	0.096849
O40	O	1.868879	0.912659	0.346849
O41	O	1.027549	0.264762	-0.191519
O42	O	1.277549	0.514762	0.058481
O43	O	1.527549	0.764762	0.308481
O44	O	1.777549	1.014762	0.558481
O45	O	0.907175	0.264693	-0.311934
O46	O	1.157175	0.514693	-0.061934
O47	O	1.407175	0.764693	0.188066
O48	O	1.657175	1.014693	0.438066
O49	O	1.027550	0.341968	-0.523508
O50	O	1.277550	0.591968	-0.273508
O51	O	1.527550	0.841968	-0.023508
O52	O	1.777550	1.091968	0.226492
O53	O	0.907135	0.341983	-0.403132
O54	O	1.157135	0.591983	-0.153132
O55	O	1.407135	0.841983	0.096868
O56	O	1.657135	1.091983	0.346868
O57	O	1.118827	0.264667	-0.523516
O58	O	1.368827	0.514667	-0.273516
O59	O	1.618827	0.764667	-0.023516
O60	O	1.868827	1.014667	0.226484
O61	O	1.118663	0.444113	-0.311846
O62	O	1.368663	0.694113	-0.061846
O63	O	1.618663	0.944113	0.188154
O64	O	1.868663	1.194113	0.438154
O65	O	1.027457	0.444060	-0.403082
O66	O	1.277457	0.694060	-0.153082
O67	O	1.527457	0.944060	0.096918
O68	O	1.777457	1.194060	0.346918
C69	C	0.880208	0.303332	-0.357538
C70	C	1.130208	0.553332	-0.107538
C71	C	1.380208	0.803332	0.142462
C72	C	1.630208	1.053332	0.392462
C73	C	0.797663	0.303329	-0.357569
C74	C	1.047663	0.553329	-0.107569
C75	C	1.297663	0.803329	0.142431
C76	C	1.547663	1.053329	0.392431
C77	C	0.598212	0.345480	-0.407045
C78	C	0.848212	0.595480	-0.157045
C79	C	1.098212	0.845480	0.092955
C80	C	1.348212	1.095480	0.342955
C81	C	0.548821	0.288079	-0.425322
C82	C	0.798821	0.538079	-0.175322
C83	C	1.048821	0.788079	0.074678
C84	C	1.298821	1.038079	0.324678
C85	C	0.646532	0.303364	-0.357533
C86	C	0.896532	0.553364	-0.107533
C87	C	1.146532	0.803364	0.142467
C88	C	1.396532	1.053364	0.392467
C89	C	0.548841	0.360798	-0.339255
C90	C	0.798841	0.610798	-0.089255
C91	C	1.048841	0.860798	0.160745
C92	C	1.298841	1.110798	0.410745
C93	C	0.500547	0.303403	-0.357499
C94	C	0.750547	0.553403	-0.107499
C95	C	1.000547	0.803403	0.142501
C96	C	1.250547	1.053403	0.392501
C97	C	0.598229	0.245933	-0.375846
C98	C	0.848229	0.495933	-0.125846
C99	C	1.098229	0.745933	0.124154
C100	C	1.348229	0.995933	0.374154
C101	C	0.598253	0.318691	-0.289747
C102	C	0.848253	0.568691	-0.039747
C103	C	1.098253	0.818691	0.210253
C104	C	1.348253	1.068691	0.460253
C105	C	0.548885	0.261250	-0.307998
C106	C	0.798885	0.511250	-0.057998
C107	C	1.048885	0.761250	0.192002
C108	C	1.298885	1.011250	0.442002
C109	C	0.730630	0.303343	-0.357554
C110	C	0.980630	0.553343	-0.107554
C111	C	1.230630	0.803343	0.142446
C112	C	1.480630	1.053343	0.392446
C113	C	0.416450	0.303419	-0.357478
C114	C	0.666450	0.553419	-0.107478
C115	C	0.916450	0.803419	0.142522
C116	C	1.166450	1.053419	0.392522
C117	C	1.073064	0.466927	-0.357473
C118	C	1.323064	0.716927	-0.107473
C119	C	1.573064	0.966927	0.142527
C120	C	1.823064	1.216927	0.392527
C121	C	1.073090	0.536895	-0.357484
C122	C	1.323090	0.786895	-0.107484
C123	C	1.573090	1.036895	0.142516
C124	C	1.823090	1.286895	0.392516
C125	C	1.120623	0.569768	-0.310028
C126	C	1.370623	0.819768	-0.060028
C127	C	1.620623	1.069768	0.189972
C128	C	1.870623	1.319768	0.439972
C129	C	1.120658	0.635511	-0.310048
C130	C	1.370658	0.885511	-0.060048
C131	C	1.620658	1.135511	0.189952
C132	C	1.870658	1.385511	0.439952
C133	C	1.073147	0.668378	-0.357516
C134	C	1.323147	0.918378	-0.107516
C135	C	1.573147	1.168378	0.142484
C136	C	1.823147	1.418378	0.392484
C137	C	1.025610	0.635497	-0.404982
C138	C	1.275610	0.885497	-0.154982
C139	C	1.525610	1.135497	0.095018
C140	C	1.775610	1.385497	0.345018
C141	C	1.025582	0.569756	-0.404966
C142	C	1.275582	0.819756	-0.154966
C143	C	1.525582	1.069756	0.095034
C144	C	1.775582	1.319756	0.345034
N145	N	1.008181	0.771632	-0.363194
N146	N	1.258181	1.021632	-0.113194
N147	N	1.508181	1.271632	0.136806
N148	N	1.758181	1.521632	0.386806
N149	N	1.008210	0.834084	-0.363205
N150	N	1.258210	1.084084	-0.113205
N151	N	1.508210	1.334084	0.136795
N152	N	1.758210	1.584084	0.386795
C153	C	1.073231	0.866452	-0.357569
C154	C	1.323231	1.116452	-0.107569
C155	C	1.573231	1.366452	0.142431
C156	C	1.823231	1.616452	0.392431
N157	N	1.138223	0.834010	-0.351907
N158	N	1.388223	1.084010	-0.101907
N159	N	1.638223	1.334010	0.148093
N160	N	1.888223	1.584010	0.398093
N161	N	1.138194	0.771553	-0.351892
N162	N	1.388194	1.021553	-0.101892
N163	N	1.638194	1.271553	0.148108
N164	N	1.888194	1.521553	0.398108
C165	C	1.073173	0.739663	-0.357540
C166	C	1.323173	0.989663	-0.107540
C167	C	1.573173	1.239663	0.142460
C168	C	1.823173	1.489663	0.392460
C169	C	1.120806	0.970611	-0.310132
C170	C	1.370806	1.220611	-0.060132
C171	C	1.620806	1.470611	0.189868
C172	C	1.870806	1.720611	0.439868
C173	C	1.120842	1.036354	-0.310157
C174	C	1.370842	1.286354	-0.060157
C175	C	1.620842	1.536354	0.189843
C176	C	1.870842	1.786354	0.439843
C177	C	1.025788	1.036339	-0.405088
C178	C	1.275788	1.286339	-0.155088
C179	C	1.525788	1.536339	0.094912
C180	C	1.775788	1.786339	0.344912
C181	C	1.025758	0.970597	-0.405066
C182	C	1.275758	1.220597	-0.155066
C183	C	1.525758	1.470597	0.094934
C184	C	1.775758	1.720597	0.344934
C185	C	1.073266	0.937737	-0.357584
C186	C	1.323266	1.187737	-0.107584
C187	C	1.573266	1.437737	0.142416
C188	C	1.823266	1.687737	0.392416
C189	C	1.266866	0.303419	-0.357474
C190	C	1.516866	0.553419	-0.107474
C191	C	1.766866	0.803419	0.142526
C192	C	2.016866	1.053419	0.392526
C193	C	1.349412	0.303438	-0.357461
C194	C	1.599412	0.553438	-0.107461
C195	C	1.849412	0.803438	0.142539
C196	C	2.099412	1.053438	0.392539
C197	C	1.073279	1.139185	-0.357568
C198	C	1.323279	1.389185	-0.107568
C199	C	1.573279	1.639185	0.142432
C200	C	1.823279	1.889185	0.392432
C201	C	1.073331	1.069217	-0.357627
C202	C	1.323331	1.319217	-0.107627
C203	C	1.573331	1.569217	0.142373
C204	C	1.823331	1.819217	0.392373
C205	C	1.073193	0.303308	-0.551212
C206	C	1.323193	0.553308	-0.301212
C207	C	1.573193	0.803308	-0.051212
C208	C	1.823193	1.053308	0.198788
C209	C	1.073207	0.303280	-0.633758
C210	C	1.323207	0.553280	-0.383758
C211	C	1.573207	0.803280	-0.133758
C212	C	1.823207	1.053280	0.116242
C213	C	1.122893	0.261223	-0.833213
C214	C	1.372893	0.511223	-0.583213
C215	C	1.622893	0.761223	-0.333213
C216	C	1.872893	1.011223	-0.083213
C217	C	1.055160	0.245805	-0.882627
C218	C	1.305160	0.495805	-0.632627
C219	C	1.555160	0.745805	-0.382627
C220	C	1.805160	0.995805	-0.132627
C221	C	1.073237	0.303269	-0.784888
C222	C	1.323237	0.553269	-0.534888
C223	C	1.573237	0.803269	-0.284888
C224	C	1.823237	1.053269	-0.034888
C225	C	1.140997	0.318646	-0.882556
C226	C	1.390997	0.568646	-0.632556
C227	C	1.640997	0.818646	-0.382556
C228	C	1.890997	1.068646	-0.132556
C229	C	1.073272	0.303257	-0.930873
C230	C	1.323272	0.553257	-0.680873
C231	C	1.573272	0.803257	-0.430873
C232	C	1.823272	1.053257	-0.180873
C233	C	1.005468	0.287822	-0.833215
C234	C	1.255468	0.537822	-0.583215
C235	C	1.505468	0.787822	-0.333215
C236	C	1.755468	1.037822	-0.083215
C237	C	1.091351	0.360689	-0.833140
C238	C	1.341351	0.610689	-0.583140
C239	C	1.591351	0.860689	-0.333140
C240	C	1.841351	1.110689	-0.083140
C241	C	1.023571	0.345294	-0.882531
C242	C	1.273571	0.595294	-0.632531
C243	C	1.523571	0.845294	-0.382531
C244	C	1.773571	1.095294	-0.132531
C245	C	1.073218	0.303274	-0.700790
C246	C	1.323218	0.553274	-0.450790
C247	C	1.573218	0.803274	-0.200790
C248	C	1.823218	1.053274	0.049210
C249	C	1.073283	0.303252	-1.014970
C250	C	1.323283	0.553252	-0.764970
C251	C	1.573283	0.803252	-0.514970
C252	C	1.823283	1.053252	-0.264970
C253	C	1.073170	0.303397	-0.164554
C254	C	1.323170	0.553397	0.085446
C255	C	1.573170	0.803397	0.335446
C256	C	1.823170	1.053397	0.585446
C257	C	1.073300	0.303248	-0.082009
C258	C	1.323300	0.553248	0.167991
C259	C	1.573300	0.803248	0.417991
C260	C	1.823300	1.053248	0.667991
H261	H	0.619833	0.197364	-0.391356
H262	H	0.869833	0.447364	-0.141356
H263	H	1.119833	0.697364	0.108644
H264	H	1.369833	0.947364	0.358644
Cl265	Cl	0.916989	0.267654	-0.799896
Cl266	Cl	1.166989	0.517654	-0.549896
Cl267	Cl	1.416989	0.767654	-0.299896
Cl268	Cl	1.666989	1.017654	-0.049896
Cl269	Cl	0.965820	0.528427	-0.464630
Cl270	Cl	1.215820	0.778427	-0.214630
Cl271	Cl	1.465820	1.028427	0.035370
Cl272	Cl	1.715820	1.278427	0.285370
Cl273	Cl	0.631777	0.338700	-0.201274
Cl274	Cl	0.881777	0.588700	0.048726
Cl275	Cl	1.131777	0.838700	0.298726
Cl276	Cl	1.381777	1.088700	0.548726
H277	H	1.159554	1.063118	-0.271514
H278	H	1.409554	1.313118	-0.021514
H279	H	1.659554	1.563118	0.228486
H280	H	1.909554	1.813118	0.478486
H281	H	1.159493	0.943855	-0.271471
H282	H	1.409493	1.193855	-0.021471
H283	H	1.659493	1.443855	0.228529
H284	H	1.909493	1.693855	0.478529
Cl285	Cl	1.187623	0.206295	-0.799775
Cl286	Cl	1.437623	0.456295	-0.549775
Cl287	Cl	1.687623	0.706295	-0.299775
Cl288	Cl	1.937623	0.956295	-0.049775
Cl289	Cl	0.958687	0.400176	-0.915771
Cl290	Cl	1.208687	0.650176	-0.665771
Cl291	Cl	1.458687	0.900176	-0.415771
Cl292	Cl	1.708687	1.150176	-0.165771
H293	H	0.986928	0.662261	-0.443633
H294	H	1.236928	0.912261	-0.193633
H295	H	1.486928	1.162261	0.056367
H296	H	1.736928	1.412261	0.306367
Cl297	Cl	0.966063	1.077652	-0.464768
Cl298	Cl	1.216063	1.327652	-0.214768
Cl299	Cl	1.466063	1.577652	0.035232
Cl300	Cl	1.716063	1.827652	0.285232
H301	H	0.527362	0.225610	-0.266114
H302	H	0.777362	0.475610	-0.016114
H303	H	1.027362	0.725610	0.233886
H304	H	1.277362	0.975610	0.483886
Cl305	Cl	0.515297	0.268083	-0.513805
Cl306	Cl	0.765297	0.518083	-0.263805
Cl307	Cl	1.015297	0.768083	-0.013805
Cl308	Cl	1.265297	1.018083	0.236195
Cl309	Cl	0.965995	0.929269	-0.464726
Cl310	Cl	1.215995	1.179269	-0.214726
Cl311	Cl	1.465995	1.429269	0.035274
Cl312	Cl	1.715995	1.679269	0.285274
H313	H	0.527143	0.409352	-0.323812
H314	H	0.777143	0.659352	-0.073812
H315	H	1.027143	0.909352	0.176188
H316	H	1.277143	1.159352	0.426188
Cl317	Cl	1.031522	0.170828	-0.916191
Cl318	Cl	1.281522	0.420828	-0.666191
Cl319	Cl	1.531522	0.670828	-0.416191
Cl320	Cl	1.781522	0.920828	-0.166191
H321	H	1.106681	0.409240	-0.811388
H322	H	1.356681	0.659240	-0.561388
H323	H	1.606681	0.909240	-0.311388
H324	H	1.856681	1.159240	-0.061388
H325	H	1.198286	0.331657	-0.904233
H326	H	1.448286	0.581657	-0.654233
H327	H	1.698286	0.831657	-0.404233
H328	H	1.948286	1.081657	-0.154233
H329	H	0.619873	0.381033	-0.448963
H330	H	0.869873	0.631033	-0.198963
H331	H	1.119873	0.881033	0.051037
H332	H	1.369873	1.131033	0.301037
H333	H	1.159309	0.543015	-0.271367
H334	H	1.409309	0.793015	-0.021367
H335	H	1.659309	1.043015	0.228633
H336	H	1.909309	1.293015	0.478633
Cl337	Cl	1.180418	0.676845	-0.250382
Cl338	Cl	1.430418	0.926845	-0.000382
Cl339	Cl	1.680418	1.176845	0.249618
Cl340	Cl	1.930418	1.426845	0.499618
