data_functionalizedCrystal
_audit_creation_method	'MofGen! by Chris Wilmer'
_symmetry_space_group_name_H-M	'P1'
_symmetry_Int_Tables_number	1
_symmetry_cell_setting	triclinic
loop_
_symmetry_equiv_pos_as_xyz
  x,y,z
_cell_length_a	10.654550
_cell_length_b	9.065218
_cell_length_c	9.730223
_cell_angle_alpha	89.997438
_cell_angle_beta	89.999957
_cell_angle_gamma	84.750408
loop_
_atom_site_label
_atom_site_type_symbol
_atom_site_fract_x
_atom_site_fract_y
_atom_site_fract_z
O1	O	1.668660	0.207235	-0.114181
O2	O	1.303260	0.226979	-0.114206
O3	O	1.493512	0.002423	-0.114190
O4	O	1.478407	0.431790	-0.114197
O5	O	1.493500	0.002417	0.114390
O6	O	1.303247	0.226972	0.114374
O7	O	1.668647	0.207228	0.114399
Zn8	Zn	1.485945	0.217099	0.150678
Zn9	Zn	1.485962	0.217108	-0.150486
O10	O	1.478395	0.431784	0.114383
C11	C	1.256450	0.225526	0.000081
C12	C	1.116989	0.221188	0.000071
C13	C	1.492055	-0.052559	0.000097
C14	C	1.487714	-0.216378	0.000091
C15	C	1.038027	0.353403	0.000073
C16	C	0.906990	0.349319	0.000097
C17	C	0.933890	0.080794	0.000112
C18	C	1.064924	0.084879	0.000098
C19	C	1.715457	0.208681	0.000109
C20	C	1.854918	0.213019	0.000109
C21	C	1.479852	0.486766	0.000092
C22	C	1.484193	0.650585	0.000090
N23	N	1.485943	0.217093	0.356215
N24	N	1.485973	0.217102	-0.356022
C25	C	1.570217	0.117702	0.428148
C26	C	1.570229	0.117703	0.572031
C27	C	1.401691	0.316498	0.572035
C28	C	1.401674	0.316489	0.428155
H29	H	1.080414	0.464395	0.000062
H30	H	1.333042	0.397426	0.369583
N31	N	1.661143	0.010521	0.649612
H32	H	1.645513	-0.094365	0.624584
H33	H	1.750420	0.028646	0.624514
H34	H	0.842704	0.456982	0.000102
H35	H	0.891482	-0.030185	0.000141
N36	N	1.661101	0.010500	0.350552
H37	H	1.714487	-0.052465	0.417960
H38	H	1.612275	-0.055259	0.290868
N39	N	1.150092	-0.057738	0.000107
H40	H	1.133168	-0.117152	-0.084621
H41	H	1.240968	-0.034348	0.000154
N42	N	1.310804	0.423700	0.649628
H43	H	1.323603	0.408628	0.751691
H44	H	1.326491	0.528530	0.624463
