data_functionalizedCrystal
_audit_creation_method	'MofGen! by Chris Wilmer'
_symmetry_space_group_name_H-M	'P1'
_symmetry_Int_Tables_number	1
_symmetry_cell_setting	triclinic
loop_
_symmetry_equiv_pos_as_xyz
  x,y,z
_cell_length_a	15.944551
_cell_length_b	15.944551
_cell_length_c	14.421503
_cell_angle_alpha	90.003340
_cell_angle_beta	89.996859
_cell_angle_gamma	83.498738
loop_
_atom_site_label
_atom_site_type_symbol
_atom_site_fract_x
_atom_site_fract_y
_atom_site_fract_z
O1	O	1.114529	0.108320	-0.077017
O2	O	1.614529	0.608320	0.422983
O3	O	0.869980	0.121677	-0.077040
O4	O	1.369980	0.621677	0.422960
O5	O	0.998933	-0.007276	-0.077020
O6	O	1.498933	0.492724	0.422980
O7	O	0.985576	0.237273	-0.077038
O8	O	1.485576	0.737273	0.422962
O9	O	0.998911	-0.007257	0.077204
O10	O	1.498911	0.492743	0.577204
O11	O	0.869958	0.121696	0.077183
O12	O	1.369958	0.621696	0.577183
O13	O	1.114508	0.108340	0.077206
O14	O	1.614508	0.608340	0.577206
Cu15	Cu	0.992231	0.115020	0.091277
Cu16	Cu	1.492231	0.615020	0.591277
Cu17	Cu	0.992256	0.114997	-0.091110
Cu18	Cu	1.492256	0.614997	0.408890
O19	O	0.985555	0.237293	0.077186
O20	O	1.485555	0.737293	0.577186
C21	C	0.838675	0.121132	0.000069
C22	C	1.338675	0.621132	0.500069
C23	C	0.745429	0.119470	0.000060
C24	C	1.245429	0.619470	0.500060
C25	C	0.530572	0.035565	0.000084
C26	C	1.030572	0.535565	0.500084
C27	C	0.469563	0.074518	-0.075959
C28	C	0.969563	0.574518	0.424041
C29	C	0.574703	0.116462	0.000071
C30	C	1.074703	0.616462	0.500071
C31	C	0.469564	0.074556	0.076093
C32	C	0.969564	0.574556	0.576093
C33	C	0.409790	0.113551	0.000086
C34	C	0.909790	0.613551	0.500086
C35	C	0.514922	0.155437	-0.076035
C36	C	1.014922	0.655437	0.423965
C37	C	0.514929	0.155464	0.076086
C38	C	1.014929	0.655464	0.576086
C39	C	0.453937	0.194476	0.000024
C40	C	0.953937	0.694476	0.500024
C41	C	0.669705	0.118137	0.000062
C42	C	1.169705	0.618137	0.500062
C43	C	0.314789	0.111883	0.000089
C44	C	0.814789	0.611883	0.500089
C45	C	0.998367	-0.038561	0.000092
C46	C	1.498367	0.461439	0.500092
C47	C	0.996705	-0.131807	0.000093
C48	C	1.496705	0.368193	0.500093
C49	C	0.912801	-0.346663	0.000072
C50	C	1.412801	0.153337	0.500072
C51	C	0.951753	-0.407671	0.076117
C52	C	1.451753	0.092329	0.576117
C53	C	0.993698	-0.302533	0.000085
C54	C	1.493698	0.197467	0.500085
C55	C	0.951793	-0.407674	-0.075935
C56	C	1.451793	0.092326	0.424065
C57	C	0.990787	-0.467445	0.000074
C58	C	1.490787	0.032555	0.500074
C59	C	1.032672	-0.362312	0.076193
C60	C	1.532672	0.137688	0.576193
C61	C	1.032701	-0.362308	-0.075927
C62	C	1.532701	0.137692	0.424073
C63	C	1.071711	-0.423298	0.000136
C64	C	1.571711	0.076702	0.500136
C65	C	0.995372	-0.207530	0.000092
C66	C	1.495372	0.292470	0.500092
C67	C	0.989119	-0.562446	0.000073
C68	C	1.489119	-0.062446	0.500073
C69	C	1.145813	0.108885	0.000096
C70	C	1.645813	0.608885	0.500096
C71	C	1.239059	0.110547	0.000098
C72	C	1.739059	0.610547	0.500098
C73	C	0.986120	0.268577	0.000072
C74	C	1.486120	0.768577	0.500072
C75	C	0.987782	0.361823	0.000066
C76	C	1.487782	0.861823	0.500066
N77	N	0.992219	0.115035	0.219558
N78	N	1.492219	0.615035	0.719558
N79	N	0.992275	0.114975	-0.219392
N80	N	1.492275	0.614975	0.280608
C81	C	0.932581	0.174636	0.469202
C82	C	1.432581	0.674636	0.969202
C83	C	1.008481	0.190943	0.531011
C84	C	1.508481	0.690943	1.031011
C85	C	0.992240	0.115015	0.408719
C86	C	1.492240	0.615015	0.908719
C87	C	0.916359	0.098727	0.531005
C88	C	1.416359	0.598727	1.031005
C89	C	0.992253	0.114997	0.591441
C90	C	1.492253	0.614997	1.091441
C91	C	1.068178	0.131360	0.469167
C92	C	1.568178	0.631360	0.969167
C93	C	0.976007	0.039111	0.469156
C94	C	1.476007	0.539111	0.969156
C95	C	1.051961	0.055386	0.530936
C96	C	1.551961	0.555386	1.030936
C97	C	0.992231	0.115027	0.303458
C98	C	1.492231	0.615027	0.803458
C99	C	0.992270	0.114985	0.696700
C100	C	1.492270	0.614985	1.196700
H101	H	0.449461	0.040294	-0.140243
H102	H	0.949461	0.540294	0.359757
H103	H	0.534918	0.189620	-0.140394
H104	H	1.034918	0.689620	0.359606
C105	C	0.442418	0.028324	0.162943
C106	C	0.942418	0.528324	0.662943
N107	N	0.421975	-0.006504	0.228354
N108	N	0.921975	0.493496	0.728354
H109	H	1.066897	-0.342186	-0.140214
H110	H	1.566897	0.157814	0.359786
H111	H	0.917527	-0.427771	0.140401
H112	H	1.417527	0.072229	0.640401
H113	H	0.420779	0.261683	-0.000023
H114	H	0.920779	0.761683	0.499977
H115	H	0.917575	-0.427758	-0.140230
H116	H	1.417575	0.072242	0.359770
H117	H	1.102474	0.004956	0.557872
H118	H	1.602474	0.504956	1.057872
H119	H	0.535052	0.189660	0.140373
H120	H	1.035052	0.689660	0.640373
H121	H	1.066850	-0.342314	0.140554
H122	H	1.566850	0.157686	0.640554
C123	C	1.162502	-0.468103	0.000205
C124	C	1.662502	0.031897	0.500205
N125	N	1.230884	-0.501853	0.000263
N126	N	1.730884	-0.001853	0.500263
C127	C	0.822090	-0.301659	0.000167
C128	C	1.322090	0.198341	0.500167
N129	N	0.753769	-0.267759	0.000244
N130	N	1.253769	0.232241	0.500244
H131	H	0.882181	0.225096	0.442096
H132	H	1.382181	0.725096	0.942096
H133	H	0.962240	-0.025051	0.441965
H134	H	1.462240	0.474949	0.941965
C135	C	0.575572	-0.055148	-0.000011
C136	C	1.075572	0.444852	0.499989
N137	N	0.609467	-0.123471	-0.000087
N138	N	1.109467	0.376529	0.499913
C139	C	1.027041	0.277649	0.567726
C140	C	1.527041	0.777649	1.067726
N141	N	1.041014	0.342957	0.595379
N142	N	1.541014	0.842957	1.095379
H143	H	1.132368	0.145205	0.442119
H144	H	1.632368	0.645205	0.942119
C145	C	0.829660	0.080122	0.567696
C146	C	1.329660	0.580122	1.067696
N147	N	0.764356	0.066114	0.595328
N148	N	1.264356	0.566114	1.095328
