data_functionalizedCrystal
_audit_creation_method	'MofGen! by Chris Wilmer'
_symmetry_space_group_name_H-M	'P1'
_symmetry_Int_Tables_number	1
_symmetry_cell_setting	triclinic
loop_
_symmetry_equiv_pos_as_xyz
  x,y,z
_cell_length_a	11.792254
_cell_length_b	11.792241
_cell_length_c	10.268362
_cell_angle_alpha	89.994572
_cell_angle_beta	90.004525
_cell_angle_gamma	95.803993
loop_
_atom_site_label
_atom_site_type_symbol
_atom_site_fract_x
_atom_site_fract_y
_atom_site_fract_z
O1	O	-1.506900	0.155637	-0.108300
O2	O	-1.006900	0.655637	0.391700
O3	O	-1.176561	0.171655	-0.108303
O4	O	-0.676561	0.671655	0.391697
O5	O	-1.349747	-0.001524	-0.108292
O6	O	-0.849747	0.498476	0.391708
O7	O	-1.333714	0.328816	-0.108310
O8	O	-0.833714	0.828816	0.391690
O9	O	-1.349732	-0.001531	0.108309
O10	O	-0.849732	0.498469	0.608309
O11	O	-1.176546	0.171648	0.108298
O12	O	-0.676546	0.671648	0.608298
O13	O	-1.506885	0.155630	0.108301
O14	O	-1.006885	0.655630	0.608301
Cu15	Cu	-1.341714	0.163638	0.128077
Cu16	Cu	-0.841714	0.663638	0.628077
Cu17	Cu	-1.341732	0.163647	-0.128079
Cu18	Cu	-0.841732	0.663647	0.371921
O19	O	-1.333699	0.328809	0.108290
O20	O	-0.833699	0.828809	0.608290
C21	C	-1.134263	0.170642	-0.000003
C22	C	-0.634263	0.670642	0.499997
C23	C	-1.008250	0.167622	-0.000003
C24	C	-0.508250	0.667622	0.499997
C25	C	-1.348732	-0.043819	0.000008
C26	C	-0.848732	0.456181	0.500008
C27	C	-1.345718	-0.169832	0.000007
C28	C	-0.845718	0.330168	0.500007
C29	C	-1.340175	-0.400545	-0.000015
C30	C	-0.840175	0.099455	0.499985
C31	C	-1.343255	-0.272160	-0.000003
C32	C	-0.843255	0.227840	0.499997
C33	C	-1.549183	0.156643	-0.000002
C34	C	-1.049183	0.656643	0.499998
C35	C	-1.675196	0.159663	-0.000010
C36	C	-1.175196	0.659663	0.499990
C37	C	-0.905913	0.165168	-0.000009
C38	C	-0.405913	0.665168	0.499991
C39	C	-0.777527	0.162100	-0.000010
C40	C	-0.277527	0.662100	0.499990
C41	C	-1.334714	0.371104	-0.000012
C42	C	-0.834714	0.871104	0.499988
C43	C	-1.337728	0.497118	-0.000020
C44	C	-0.837728	0.997118	0.499980
N45	N	-1.341710	0.163632	0.308243
N46	N	-0.841710	0.663632	0.808243
N47	N	-1.341745	0.163645	-0.308244
N48	N	-0.841745	0.663645	0.191756
C49	C	-1.341726	0.163644	0.573913
C50	C	-0.841726	0.663644	1.073913
C51	C	-1.341713	0.163641	0.426075
C52	C	-0.841713	0.663641	0.926075
