data_functionalizedCrystal
_audit_creation_method	'MofGen! by Chris Wilmer'
_symmetry_space_group_name_H-M	'P1'
_symmetry_Int_Tables_number	1
_symmetry_cell_setting	triclinic
loop_
_symmetry_equiv_pos_as_xyz
  x,y,z
_cell_length_a	16.109301
_cell_length_b	10.654541
_cell_length_c	14.586319
_cell_angle_alpha	89.996435
_cell_angle_beta	89.999213
_cell_angle_gamma	83.972705
loop_
_atom_site_label
_atom_site_type_symbol
_atom_site_fract_x
_atom_site_fract_y
_atom_site_fract_z
O1	O	1.104090	0.161419	-0.076182
O2	O	0.862147	0.181508	-0.076196
O3	O	0.988682	-0.011352	-0.076183
O4	O	0.977554	0.354278	-0.076195
O5	O	0.988673	-0.011354	0.076298
O6	O	0.862138	0.181505	0.076284
O7	O	1.104081	0.161416	0.076299
Cu8	Cu	0.983109	0.171460	0.090214
Cu9	Cu	0.983119	0.171464	-0.090112
O10	O	0.977546	0.354276	0.076286
C11	C	0.831163	0.180692	0.000042
C12	C	0.738853	0.178253	0.000037
C13	C	0.517227	0.287019	0.000044
C14	C	0.430493	0.284717	0.000050
C15	C	0.449008	0.055896	0.000053
C16	C	0.535740	0.058200	0.000054
C17	C	0.569847	0.173765	0.000045
C18	C	0.396381	0.169159	0.000050
C19	C	0.302340	0.166662	0.000056
C20	C	0.663894	0.176262	0.000040
C21	C	0.987861	-0.058140	0.000057
C22	C	0.985418	-0.197550	0.000055
C23	C	1.136725	-0.227574	0.000076
C24	C	1.211227	-0.308079	0.000088
C25	C	1.208926	-0.439066	0.000085
C26	C	1.132115	-0.489549	0.000067
C27	C	1.057613	-0.409044	0.000055
C28	C	1.059922	-0.278056	0.000060
C29	C	0.906308	-0.379021	0.000027
C30	C	0.908607	-0.248034	0.000037
C31	C	0.829496	-0.429504	0.000010
C32	C	0.754992	-0.348998	0.000004
C33	C	0.757296	-0.218004	0.000008
C34	C	0.834104	-0.167529	0.000025
C35	C	1.135065	0.162231	0.000058
C36	C	1.227375	0.164671	0.000058
C37	C	0.978367	0.401064	0.000044
C38	C	0.980810	0.540474	0.000040
N39	N	0.983107	0.171457	0.217046
N40	N	0.983127	0.171457	-0.216944
C41	C	1.039156	0.086088	0.452058
C42	C	1.039158	0.086085	0.548040
C43	C	0.927072	0.256830	0.548037
C44	C	0.927067	0.256826	0.452058
C45	C	0.983113	0.171457	0.404071
C46	C	0.983121	0.171457	0.596032
C47	C	0.983123	0.171455	0.700099
C48	C	0.983110	0.171457	0.299997
H49	H	0.421227	-0.038193	0.000067
H50	H	0.578586	-0.034032	0.000057
O51	O	0.379342	0.394698	0.000205
C52	C	0.328604	0.400203	0.079165
H53	H	0.359994	0.335975	0.134366
H54	H	0.319432	0.501366	0.105666
H55	H	0.265358	0.367720	0.061314
H56	H	1.138606	-0.120919	0.000090
H57	H	0.544993	0.381120	0.000043
O58	O	0.872717	0.339715	0.594796
C59	C	0.884726	0.321397	0.689801
H60	H	0.950553	0.274486	0.702906
H61	H	0.876027	0.416501	0.726270
H62	H	0.837308	0.258394	0.717049
O63	O	1.285767	-0.258830	0.000148
C64	C	1.271828	-0.125955	0.000127
H65	H	1.207120	-0.095167	0.028982
H66	H	1.321013	-0.085766	0.044408
H67	H	1.276081	-0.089487	-0.073024
O68	O	0.872593	0.339881	0.405579
C69	C	0.823117	0.415218	0.468512
H70	H	0.857213	0.416661	0.536928
H71	H	0.811008	0.515501	0.440770
H72	H	0.761125	0.374414	0.478729
H73	H	1.269593	-0.504614	0.000087
O74	O	0.680315	-0.397828	-0.000057
C75	C	0.615049	-0.298690	-0.000036
H76	H	0.638870	-0.209708	-0.028889
H77	H	0.561480	-0.326031	-0.044319
H78	H	0.592020	-0.280166	0.073114
O79	O	1.129987	-0.616810	-0.000067
C80	C	1.170707	-0.668781	-0.079049
H81	H	1.216211	-0.602053	-0.105365
H82	H	1.206357	-0.763795	-0.061292
H83	H	1.122481	-0.682521	-0.134355
O84	O	1.093520	0.003207	0.594796
C85	C	1.081523	0.021529	0.689801
H86	H	1.015696	0.068434	0.702913
H87	H	1.090230	-0.073573	0.726281
H88	H	1.128941	0.084539	0.717032
H89	H	0.827628	-0.536161	0.000001
H90	H	0.696627	-0.152463	-0.000006
H91	H	0.835988	-0.060874	0.000034
H92	H	1.084791	0.016573	0.412990
