data_functionalizedCrystal
_audit_creation_method	'MofGen! by Chris Wilmer'
_symmetry_space_group_name_H-M	'P1'
_symmetry_Int_Tables_number	1
_symmetry_cell_setting	triclinic
loop_
_symmetry_equiv_pos_as_xyz
  x,y,z
_cell_length_a	10.686285
_cell_length_b	11.169417
_cell_length_c	11.169417
_cell_angle_alpha	89.994465
_cell_angle_beta	94.372288
_cell_angle_gamma	94.370078
loop_
_atom_site_label
_atom_site_type_symbol
_atom_site_fract_x
_atom_site_fract_y
_atom_site_fract_z
Zn1	Zn	-0.502628	-1.871482	0.641988
Zn2	Zn	-0.002628	-1.371482	1.141988
Zn3	Zn	-0.713574	-1.886835	0.425940
Zn4	Zn	-0.213574	-1.386835	0.925940
Zn5	Zn	-0.502596	-1.670822	0.441319
Zn6	Zn	-0.002596	-1.170822	0.941319
Zn7	Zn	-0.713561	-1.686181	0.626579
Zn8	Zn	-0.213561	-1.186181	1.126579
O9	O	-0.608090	-1.778830	0.533956
O10	O	-0.108090	-1.278830	1.033956
O11	O	-0.530629	-2.041470	0.613342
O12	O	-0.030629	-1.541470	1.113342
O13	O	-0.685580	-1.858178	0.260031
O14	O	-0.185580	-1.358178	0.760031
O15	O	-0.326029	-1.684587	0.480823
O16	O	0.173971	-1.184587	0.980823
O17	O	-0.685611	-2.052749	0.454612
O18	O	-0.185611	-1.552749	0.954612
O19	O	-0.326052	-1.832011	0.628254
O20	O	0.173948	-1.332011	1.128254
O21	O	-0.530575	-1.699474	0.271329
O22	O	-0.030575	-1.199474	0.771329
O23	O	-0.530562	-1.504908	0.465881
O24	O	-0.030562	-1.004908	0.965881
O25	O	-0.685588	-1.710765	0.796572
O26	O	-0.185588	-1.210765	1.296572
O27	O	-0.685557	-1.516193	0.601991
O28	O	-0.185557	-1.016193	1.101991
O29	O	-0.530616	-1.846904	0.807893
O30	O	-0.030616	-1.346904	1.307893
O31	O	-0.890144	-1.873071	0.439670
O32	O	-0.390144	-1.373071	0.939670
O33	O	-0.890134	-1.725652	0.587079
O34	O	-0.390134	-1.225652	1.087079
C35	C	-0.608055	-1.467003	0.533933
C36	C	-0.108055	-0.967003	1.033933
C37	C	-0.608071	-1.333604	0.533950
C38	C	-0.108071	-0.833604	1.033950
C39	C	-0.935922	-1.802727	0.510059
C40	C	-0.435922	-1.302727	1.010059
C41	C	-1.076170	-1.813059	0.499876
C42	C	-0.576170	-1.313059	0.999876
C43	C	-0.278977	-1.754873	0.557973
C44	C	0.221023	-1.254873	1.057973
C45	C	-0.138729	-1.744664	0.568207
C46	C	0.361271	-1.244664	1.068207
C47	C	-0.608104	-1.778835	0.846998
C48	C	-0.108104	-1.278835	1.346998
C49	C	-0.608110	-1.778837	0.980397
C50	C	-0.108110	-1.278837	1.480397
C51	C	-0.608113	-1.091874	0.533973
C52	C	-0.108113	-0.591874	1.033973
C53	C	-0.608092	-1.225273	0.533962
C54	C	-0.108092	-0.725273	1.033962
C55	C	-0.608108	-1.778823	1.222130
C56	C	-0.108108	-1.278823	1.722130
C57	C	-0.608115	-1.778834	1.088730
C58	C	-0.108115	-1.278834	1.588730
H59	H	-1.084997	-1.678204	0.634501
H60	H	-0.584997	-1.178204	1.134501
H61	H	-1.129911	-1.879516	0.433571
H62	H	-0.629911	-1.379516	0.933571
