data_functionalizedCrystal
_audit_creation_method	'MofGen! by Chris Wilmer'
_symmetry_space_group_name_H-M	'P1'
_symmetry_Int_Tables_number	1
_symmetry_cell_setting	triclinic
loop_
_symmetry_equiv_pos_as_xyz
  x,y,z
_cell_length_a	12.759401
_cell_length_b	19.077114
_cell_length_c	19.076919
_cell_angle_alpha	85.527261
_cell_angle_beta	92.284013
_cell_angle_gamma	87.671308
loop_
_atom_site_label
_atom_site_type_symbol
_atom_site_fract_x
_atom_site_fract_y
_atom_site_fract_z
Zn1	Zn	1.563731	0.296673	-0.409805
Zn2	Zn	1.563597	0.409827	-0.296653
Zn3	Zn	1.395400	0.291959	-0.291940
Zn4	Zn	1.380629	0.414525	-0.414504
O5	O	1.475839	0.353246	-0.353225
O6	O	1.710734	0.311690	-0.394801
O7	O	1.547411	0.390252	-0.197381
O8	O	1.423967	0.193935	-0.303636
O9	O	1.710635	0.394824	-0.311669
O10	O	1.547640	0.197398	-0.390231
O11	O	1.423837	0.303655	-0.193918
O12	O	1.246420	0.308210	-0.308193
O13	O	1.398792	0.402831	-0.512528
O14	O	1.235568	0.398259	-0.398239
O15	O	1.533317	0.316246	-0.509075
O16	O	1.533088	0.509099	-0.316225
O17	O	1.398662	0.512551	-0.402809
C18	C	1.202873	0.353233	-0.353215
C19	C	1.086095	0.353246	-0.353228
C20	C	1.031276	0.310042	-0.396588
C21	C	0.921551	0.310050	-0.396592
C22	C	0.921474	0.396470	-0.309877
C23	C	1.031198	0.396458	-0.309868
C24	C	1.464285	0.536405	-0.360554
C25	C	1.459437	0.614762	-0.363713
C26	C	1.527197	0.649755	-0.320154
C27	C	1.522643	0.723380	-0.323130
C28	C	1.450323	0.762010	-0.369660
C29	C	1.382560	0.727012	-0.413223
C30	C	1.387119	0.653388	-0.410251
C31	C	1.429180	0.982396	-0.383382
C32	C	1.424623	1.056025	-0.386349
C33	C	1.564709	1.052388	-0.296256
C34	C	1.569258	0.978763	-0.293286
C35	C	1.501498	0.943771	-0.336851
N36	N	1.445664	0.837267	-0.372701
N37	N	1.506163	0.868516	-0.333814
C38	C	1.749871	0.353259	-0.353236
C39	C	1.866647	0.353265	-0.353241
C40	C	1.464422	0.360588	-0.537095
C41	C	1.459556	0.363717	-0.615449
C42	C	1.487457	1.169373	-0.345893
C43	C	1.492383	1.091018	-0.342791
C44	C	1.527307	0.320109	-0.650464
C45	C	1.522722	0.323046	-0.724086
C46	C	1.450392	0.369595	-0.762692
C47	C	1.382635	0.413205	-0.727672
C48	C	1.387214	0.410264	-0.654051
C49	C	1.429180	0.383223	-0.983067
C50	C	1.424607	0.386162	-1.056693
C51	C	1.564694	0.296001	-1.053102
C52	C	1.569272	0.293067	-0.979480
C53	C	1.501511	0.336674	-0.944466
N54	N	1.445707	0.372600	-0.837945
N55	N	1.506192	0.333665	-0.869214
C56	C	1.487276	0.345881	-0.170069
C57	C	1.492357	0.342554	-0.091708
H58	H	0.876763	0.431652	-0.274576
N59	N	1.346555	0.436359	-1.098318
H60	H	1.297790	0.408916	-1.127709
H61	H	1.385331	0.470253	-1.130135
H62	H	1.075833	0.431640	-0.274556
N63	N	1.090489	0.263438	-0.443352
H64	H	1.075243	0.212618	-0.430474
H65	H	1.168295	0.270049	-0.436749
N66	N	1.605197	0.608092	-0.269965
H67	H	1.647434	0.641435	-0.242825
H68	H	1.653893	0.578653	-0.297455
N69	N	1.314029	0.615638	-0.457224
H70	H	1.356551	0.586360	-0.488682
H71	H	1.267532	0.651320	-0.487106
H72	H	1.577821	0.751868	-0.287659
N73	N	1.647275	0.937099	-0.243110
H74	H	1.689518	0.970440	-0.215970
H75	H	1.695963	0.907666	-0.270610
N76	N	1.595794	0.276020	-0.761862
H77	H	1.553259	0.244569	-0.791097
H78	H	1.642306	0.246129	-0.726200
H79	H	1.374018	0.418741	-0.954568
N80	N	0.862436	0.263443	-0.443356
H81	H	0.877720	0.276479	-0.494146
H82	H	0.784616	0.270018	-0.436725
N83	N	1.637772	0.248963	-1.090860
H84	H	1.682751	0.278831	-1.122554
H85	H	1.595170	0.217518	-1.120056
H86	H	1.619876	1.080886	-0.260789
N87	N	1.304597	0.463397	-0.769307
H88	H	1.311971	0.458642	-0.821259
H89	H	1.318545	0.513236	-0.758455
N90	N	1.346616	1.097693	-0.436537
H91	H	1.304383	1.064355	-0.463687
H92	H	1.385431	1.129508	-0.470412
N93	N	1.647247	0.242845	-0.937827
H94	H	1.696024	0.270265	-0.908420
H95	H	1.689402	0.215661	-0.971213
H96	H	1.323679	0.758470	-0.451112
N97	N	1.356091	0.944660	-0.430362
H98	H	1.309581	0.980306	-0.460285
H99	H	1.311180	0.913007	-0.400405
H100	H	1.586209	0.282205	-0.619036
N101	N	1.314132	0.457291	-0.616281
H102	H	1.267615	0.487226	-0.651908
H103	H	1.356726	0.488699	-0.587037
