data_functionalizedCrystal
_audit_creation_method	'MofGen! by Chris Wilmer'
_symmetry_space_group_name_H-M	'P1'
_symmetry_Int_Tables_number	1
_symmetry_cell_setting	triclinic
loop_
_symmetry_equiv_pos_as_xyz
  x,y,z
_cell_length_a	10.685980
_cell_length_b	18.050588
_cell_length_c	10.686551
_cell_angle_alpha	94.406696
_cell_angle_beta	98.408259
_cell_angle_gamma	94.396124
loop_
_atom_site_label
_atom_site_type_symbol
_atom_site_fract_x
_atom_site_fract_y
_atom_site_fract_z
Zn1	Zn	1.995715	-0.166461	0.866689
Zn2	Zn	1.979233	-0.301003	0.654413
Zn3	Zn	1.767133	-0.187131	0.638151
Zn4	Zn	1.783357	-0.300931	0.850323
O5	O	1.881359	-0.238881	0.752394
O6	O	2.171166	-0.175688	0.852184
O7	O	1.937410	-0.294578	0.474623
O8	O	1.797563	-0.080458	0.668511
O9	O	2.159057	-0.274535	0.696226
O10	O	1.965501	-0.065272	0.836416
O11	O	1.781581	-0.210917	0.462675
O12	O	1.591647	-0.210847	0.652642
O13	O	1.825214	-0.274412	1.030127
O14	O	1.603567	-0.294455	0.808523
O15	O	1.981232	-0.175618	1.042151
O16	O	1.953141	-0.404925	0.680357
O17	O	1.809232	-0.404872	0.824292
C18	C	1.551548	-0.254887	0.727043
C19	C	1.410456	-0.261751	0.716228
C20	C	1.881195	-0.431843	0.752343
C21	C	1.881245	-0.514385	0.752373
C22	C	1.803120	-0.763203	0.830656
C23	C	1.921262	-0.706594	0.870689
C24	C	1.881514	-0.811490	0.752464
C25	C	1.763250	-0.721022	0.712446
C26	C	1.881376	-0.665513	0.752422
C27	C	1.999722	-0.755962	0.792563
C28	C	1.841628	-0.770401	0.634260
C29	C	1.959846	-0.713812	0.674255
C30	C	1.881592	-0.895583	0.752492
C31	C	1.881311	-0.581420	0.752396
C32	C	2.212458	-0.222814	0.777845
C33	C	2.353553	-0.215967	0.788690
C34	C	1.906871	-0.222701	1.083485
C35	C	1.917743	-0.215806	1.224576
C36	C	1.881560	-0.045163	0.752475
C37	C	1.881646	0.037388	0.752509
C38	C	1.856019	-0.254942	0.422597
C39	C	1.845394	-0.261615	0.281525
H40	H	1.736977	-0.784878	0.896859
H41	H	1.775138	-0.306111	1.222343
C42	C	1.797803	-0.885378	0.500678
C43	C	1.796119	-0.807949	0.499374
H44	H	1.769703	-0.908559	0.417402
H45	H	1.743021	-0.902964	0.556506
H46	H	1.881834	-0.897121	0.528991
H47	H	1.712085	-0.796205	0.471069
H48	H	1.850902	-0.790357	0.443526
H49	H	1.988012	-0.171312	1.283765
C50	C	1.411232	-0.167499	1.006861
C51	C	1.433491	-0.155959	0.883621
H52	H	1.460584	-0.130448	1.065466
H53	H	1.434297	-0.215466	1.026918
H54	H	1.323719	-0.164395	1.011783
H55	H	1.521003	-0.159068	0.878697
H56	H	1.410435	-0.107979	0.863559
C57	C	1.993762	-0.723835	1.089105
C58	C	1.966731	-0.669072	1.005610
H59	H	2.021817	-0.700672	1.172400
H60	H	2.058472	-0.751778	1.062524
H61	H	1.919317	-0.756188	1.089030
H62	H	2.041178	-0.636723	1.005677
H63	H	1.902015	-0.641117	1.032198
H64	H	2.099715	-0.771452	0.826507
C65	C	1.352763	-0.310222	0.498053
C66	C	1.330507	-0.321762	0.621294
H67	H	1.303399	-0.347268	0.439449
H68	H	1.440262	-0.313329	0.493125
H69	H	1.329699	-0.262247	0.477999
H70	H	1.353580	-0.369735	0.641352
H71	H	1.242988	-0.318662	0.626226
H72	H	1.663295	-0.705431	0.678618
C73	C	2.173023	-0.702208	0.627153
C74	C	2.049367	-0.684709	0.584977
H75	H	2.228290	-0.684234	0.572044
H76	H	2.174072	-0.754774	0.627209
H77	H	2.200574	-0.679472	0.710806
H78	H	2.021812	-0.707450	0.501328
H79	H	2.048313	-0.632132	0.584908
