data_functionalizedCrystal
_audit_creation_method	'MofGen! by Chris Wilmer'
_symmetry_space_group_name_H-M	'P1'
_symmetry_Int_Tables_number	1
_symmetry_cell_setting	triclinic
loop_
_symmetry_equiv_pos_as_xyz
  x,y,z
_cell_length_a	12.759401
_cell_length_b	18.101395
_cell_length_c	12.759393
_cell_angle_alpha	89.967630
_cell_angle_beta	89.979062
_cell_angle_gamma	90.032629
loop_
_atom_site_label
_atom_site_type_symbol
_atom_site_fract_x
_atom_site_fract_y
_atom_site_fract_z
Zn1	Zn	1.606147	-0.294764	-0.594006
Zn2	Zn	1.605987	-0.418623	-0.418321
Zn3	Zn	1.430445	-0.294803	-0.418342
Zn4	Zn	1.430387	-0.418571	-0.593958
O5	O	1.518242	-0.356690	-0.506157
O6	O	1.753147	-0.311199	-0.570713
O7	O	1.582659	-0.402236	-0.271302
O8	O	1.453844	-0.191165	-0.441673
O9	O	1.753030	-0.402198	-0.441637
O10	O	1.582931	-0.191136	-0.570733
O11	O	1.453689	-0.311266	-0.271318
O12	O	1.283417	-0.311216	-0.441626
O13	O	1.453744	-0.402110	-0.740986
O14	O	1.283374	-0.402148	-0.570651
O15	O	1.582874	-0.311149	-0.741021
O16	O	1.582603	-0.522249	-0.441590
O17	O	1.453590	-0.522211	-0.570630
C18	C	1.245274	-0.356681	-0.506136
C19	C	1.128498	-0.356695	-0.506152
C20	C	1.073641	-0.404115	-0.573229
C21	C	0.963917	-0.404118	-0.573250
C22	C	0.963916	-0.309278	-0.439107
C23	C	1.073638	-0.309272	-0.439092
C24	C	1.518101	-0.549101	-0.506126
C25	C	1.518137	-0.631415	-0.506148
C26	C	1.518368	-0.930506	-0.506204
C27	C	1.437384	-0.899187	-0.587594
C28	C	1.436999	-0.813570	-0.587340
C29	C	1.518253	-0.782123	-0.506177
C30	C	1.488271	-0.813282	-0.395451
C31	C	1.487748	-0.898927	-0.395938
C32	C	1.629511	-0.898846	-0.534565
C33	C	1.628857	-0.813194	-0.536994
C34	C	1.518190	-0.698264	-0.506155
C35	C	1.518428	-1.014365	-0.506219
C36	C	1.792275	-0.356700	-0.506178
C37	C	1.909051	-0.356704	-0.506187
C38	C	1.518320	-0.356619	-0.780190
C39	C	1.518354	-0.356589	-0.896967
C40	C	1.518411	-0.163528	-0.506211
C41	C	1.518484	-0.081214	-0.506234
C42	C	1.585597	-0.309218	-0.951849
C43	C	1.585614	-0.309186	-1.061573
C44	C	1.451143	-0.403902	-1.061523
C45	C	1.451121	-0.403930	-0.951801
C46	C	1.518224	-0.356708	-0.233189
C47	C	1.518394	-0.356529	-0.116413
H48	H	1.455759	-0.792500	-0.669442
H49	H	1.354618	-0.793149	-0.568554
C50	C	1.563964	-0.926921	-0.311212
N51	N	1.621362	-0.948003	-0.247391
C52	C	1.659590	-0.257076	-1.121939
N53	N	1.715311	-0.217824	-1.167405
C54	C	1.377190	-0.455973	-1.121851
N55	N	1.321486	-0.495194	-1.167289
C56	C	1.133984	-0.257104	-0.365298
N57	N	1.179437	-0.217811	-0.309720
C58	C	1.377142	-0.456042	-0.891427
N59	N	1.321420	-0.495289	-0.845953
H60	H	1.455958	-0.919730	-0.669962
C61	C	1.326762	-0.928343	-0.562528
N62	N	1.243442	-0.950301	-0.543641
H63	H	1.118304	-0.442728	-0.627836
H64	H	1.640339	-0.270668	-0.907206
H65	H	1.407886	-0.791900	-0.370996
H66	H	0.919257	-0.442732	-0.627873
H67	H	0.919236	-0.270670	-0.384508
C68	C	1.565441	-0.785762	-0.311289
N69	N	1.623565	-0.765031	-0.247898
C70	C	1.377988	-0.926010	-0.363489
N71	N	1.295312	-0.946406	-0.339051
C72	C	1.659429	-0.785646	-0.647058
N73	N	1.682461	-0.764883	-0.729953
C74	C	1.666434	-0.927944	-0.641788
N75	N	1.694234	-0.949860	-0.722553
H76	H	1.689846	-0.919098	-0.475286
C77	C	1.714685	-0.784273	-0.462743
N78	N	1.779327	-0.762491	-0.406807
