data_functionalizedCrystal
_audit_creation_method	'MofGen! by Chris Wilmer'
_symmetry_space_group_name_H-M	'P1'
_symmetry_Int_Tables_number	1
_symmetry_cell_setting	triclinic
loop_
_symmetry_equiv_pos_as_xyz
  x,y,z
_cell_length_a	10.686220
_cell_length_b	10.685194
_cell_length_c	11.169409
_cell_angle_alpha	85.594469
_cell_angle_beta	94.348347
_cell_angle_gamma	99.069756
loop_
_atom_site_label
_atom_site_type_symbol
_atom_site_fract_x
_atom_site_fract_y
_atom_site_fract_z
Zn1	Zn	1.901872	-0.356222	-0.514038
Zn2	Zn	1.885488	-0.568559	-0.299053
Zn3	Zn	1.689599	-0.372601	-0.327637
Zn4	Zn	1.673354	-0.584748	-0.513966
O5	O	1.787578	-0.470532	-0.413674
O6	O	2.077314	-0.370759	-0.473588
O7	O	1.859445	-0.542645	-0.134894
O8	O	1.731412	-0.192780	-0.364356
O9	O	2.065277	-0.526762	-0.315640
O10	O	1.887368	-0.180746	-0.501304
O11	O	1.715526	-0.398675	-0.155894
O12	O	1.509828	-0.414373	-0.364286
O13	O	1.703726	-0.554354	-0.681927
O14	O	1.497894	-0.570236	-0.501181
O15	O	1.871616	-0.386457	-0.681980
O16	O	1.843693	-0.748355	-0.315570
O17	O	1.687840	-0.760249	-0.473465
C18	C	1.457807	-0.495840	-0.435828
C19	C	1.316727	-0.506697	-0.445332
C20	C	1.762260	-0.800362	-0.391432
C21	C	1.751546	-0.941455	-0.381949
C22	C	2.118637	-0.445128	-0.391433
C23	C	2.259715	-0.434301	-0.381956
C24	C	1.787686	-0.470384	-0.726719
C25	C	1.787733	-0.470321	-0.860121
C26	C	1.813029	-0.139413	-0.436027
C27	C	1.823875	0.001691	-0.445552
C28	C	1.787550	-0.470583	-0.101847
C29	C	1.787778	-0.470270	0.031546
H30	H	1.893999	-0.939045	-0.507266
H31	H	1.681407	-1.000728	-0.320242
H32	H	1.318834	-0.364016	-0.320425
H33	H	1.257601	-0.576995	-0.506859
