data_functionalizedCrystal
_audit_creation_method	'MofGen! by Chris Wilmer'
_symmetry_space_group_name_H-M	'P1'
_symmetry_Int_Tables_number	1
_symmetry_cell_setting	triclinic
loop_
_symmetry_equiv_pos_as_xyz
  x,y,z
_cell_length_a	18.215407
_cell_length_b	13.897448
_cell_length_c	18.215399
_cell_angle_alpha	89.976259
_cell_angle_beta	90.019833
_cell_angle_gamma	89.979983
loop_
_atom_site_label
_atom_site_type_symbol
_atom_site_fract_x
_atom_site_fract_y
_atom_site_fract_z
Zn1	Zn	1.125099	0.384013	0.416137
Zn2	Zn	1.625099	0.884013	0.916137
Zn3	Zn	1.125019	0.545323	0.293080
Zn4	Zn	1.625019	1.045323	0.793080
Zn5	Zn	1.002032	0.384045	0.293085
Zn6	Zn	1.502032	0.884045	0.793085
Zn7	Zn	1.002009	0.545269	0.416105
Zn8	Zn	1.502009	1.045269	0.916105
O9	O	1.063540	0.464663	0.354602
O10	O	1.563540	0.964663	0.854602
O11	O	1.228073	0.405421	0.399825
O12	O	1.728073	0.905421	0.899825
O13	O	1.108680	0.523965	0.190096
O14	O	1.608680	1.023965	0.690096
O15	O	1.018400	0.249059	0.309423
O16	O	1.518400	0.749059	0.809423
O17	O	1.228014	0.523934	0.309416
O18	O	1.728014	1.023934	0.809416
O19	O	1.108817	0.249036	0.399830
O20	O	1.608817	0.749036	0.899830
O21	O	1.018322	0.405474	0.190100
O22	O	1.518322	0.905474	0.690100
O23	O	0.899044	0.405422	0.309392
O24	O	1.399044	0.905422	0.809392
O25	O	1.018361	0.523843	0.519094
O26	O	1.518361	1.023843	1.019094
O27	O	0.899028	0.523873	0.399775
O28	O	1.399028	1.023873	0.899775
O29	O	1.108795	0.405369	0.519117
O30	O	1.608795	0.905369	1.019117
O31	O	1.108658	0.680297	0.309384
O32	O	1.608658	1.180297	0.809384
O33	O	1.018283	0.680258	0.399770
O34	O	1.518283	1.180258	0.899770
C35	C	0.872333	0.464646	0.354581
C36	C	1.372333	0.964646	0.854581
C37	C	0.790535	0.464662	0.354589
C38	C	1.290535	0.964662	0.854589
C39	C	1.063480	0.715277	0.354589
C40	C	1.563480	1.215277	0.854589
C41	C	1.063521	0.822491	0.354608
C42	C	1.563521	1.322491	0.854608
C43	C	0.602351	0.526437	0.401592
C44	C	1.102351	1.026437	0.901592
C45	C	0.525492	0.526440	0.401601
C46	C	1.025492	1.026440	0.901601
C47	C	0.525480	0.402906	0.307628
C48	C	1.025480	0.902906	0.807628
C49	C	0.602338	0.402899	0.307623
C50	C	1.102338	0.902899	0.807623
C51	C	0.640771	0.464670	0.354604
C52	C	1.140771	0.964670	0.854604
C53	C	0.487055	0.464680	0.354618
C54	C	0.987055	0.964680	0.854618
C55	C	0.403721	0.464683	0.354628
C56	C	0.903721	0.964683	0.854628
C57	C	0.724110	0.464666	0.354595
C58	C	1.224110	0.964666	0.854595
C59	C	1.063594	1.018786	0.354661
C60	C	1.563594	1.518786	0.854661
C61	C	1.063551	0.909553	0.354634
C62	C	1.563551	1.409553	0.854634
C63	C	1.255493	0.464680	0.354623
C64	C	1.755493	0.964680	0.854623
C65	C	1.337291	0.464687	0.354633
C66	C	1.837291	0.964687	0.854633
C67	C	1.063585	0.464596	0.546555
C68	C	1.563585	0.964596	1.046555
C69	C	1.063604	0.464568	0.628354
C70	C	1.563604	0.964568	1.128354
C71	C	1.063614	1.213070	0.354639
C72	C	1.563614	1.713070	0.854639
C73	C	1.063629	1.105856	0.354677
C74	C	1.563629	1.605856	0.854677
C75	C	1.063537	0.464659	0.163396
C76	C	1.563537	0.964659	0.663396
C77	C	1.063661	0.464416	0.081597
C78	C	1.563661	0.964416	0.581597
C79	C	1.110709	0.402821	0.816561
C80	C	1.610709	0.902821	1.316561
C81	C	1.110718	0.402792	0.893420
C82	C	1.610718	0.902792	1.393420
C83	C	1.016550	0.526166	0.893384
C84	C	1.516550	1.026166	1.393384
C85	C	1.016538	0.526188	0.816527
C86	C	1.516538	1.026188	1.316527
C87	C	1.063622	0.464517	0.778117
C88	C	1.563622	0.964517	1.278117
C89	C	1.063643	0.464466	0.931834
C90	C	1.563643	0.964466	1.431834
C91	C	1.063652	0.464436	1.015167
C92	C	1.563652	0.964436	1.515167
C93	C	1.063612	0.464546	0.694778
C94	C	1.563612	0.964546	1.194778
H95	H	0.633641	0.576732	0.439849
H96	H	1.133641	1.076732	0.939849
H97	H	0.494214	0.576735	0.439865
H98	H	0.994214	1.076735	0.939865
Br99	Br	0.473316	0.319079	0.243870
Br100	Br	0.973316	0.819079	0.743870
Br101	Br	1.174631	0.319065	0.945592
Br102	Br	1.674631	0.819065	1.445592
H103	H	0.978188	0.576428	0.785225
H104	H	1.478188	1.076428	1.285225
H105	H	0.633620	0.352595	0.269359
H106	H	1.133620	0.852595	0.769359
H107	H	1.149046	0.352601	0.785291
H108	H	1.649046	0.852601	1.285291
H109	H	0.978217	0.576378	0.924666
H110	H	1.478217	1.076378	1.424666
