data_functionalizedCrystal
_audit_creation_method	'MofGen! by Chris Wilmer'
_symmetry_space_group_name_H-M	'P1'
_symmetry_Int_Tables_number	1
_symmetry_cell_setting	triclinic
loop_
_symmetry_equiv_pos_as_xyz
  x,y,z
_cell_length_a	16.625546
_cell_length_b	21.295420
_cell_length_c	16.625539
_cell_angle_alpha	89.978382
_cell_angle_beta	90.030397
_cell_angle_gamma	89.980117
loop_
_atom_site_label
_atom_site_type_symbol
_atom_site_fract_x
_atom_site_fract_y
_atom_site_fract_z
Zn1	Zn	-0.321056	-0.962366	0.455920
Zn2	Zn	-0.455899	-0.962290	0.321082
Zn3	Zn	-0.321078	-0.857096	0.321098
Zn4	Zn	-0.455844	-0.857073	0.455870
O5	O	-0.388469	-0.909707	0.388493
O6	O	-0.338957	-1.050445	0.438048
O7	O	-0.438047	-0.948314	0.208252
O8	O	-0.208243	-0.871102	0.339010
O9	O	-0.438025	-1.050390	0.338983
O10	O	-0.208226	-0.948443	0.438063
O11	O	-0.338994	-0.871029	0.208264
O12	O	-0.338941	-0.769004	0.338962
O13	O	-0.437932	-0.871063	0.568709
O14	O	-0.437953	-0.768987	0.437978
O15	O	-0.338904	-0.948421	0.568746
O16	O	-0.568724	-0.948292	0.338935
O17	O	-0.568684	-0.870989	0.437962
C18	C	-0.597960	-0.909647	0.388459
C19	C	-0.687581	-0.909679	0.388471
C20	C	-0.388444	-0.746155	0.388466
C21	C	-0.388453	-0.676187	0.388474
C22	C	-1.015757	-0.909789	0.388555
C23	C	-0.924448	-0.909756	0.388534
C24	C	-0.851672	-0.909733	0.388513
C25	C	-0.760358	-0.909702	0.388493
C26	C	-0.440106	-0.176737	0.439986
C27	C	-0.440107	-0.242479	0.439979
C28	C	-0.388476	-0.275347	0.388506
C29	C	-0.336853	-0.242468	0.337021
C30	C	-0.336859	-0.176727	0.337024
N31	N	-0.317880	-0.378581	0.382442
N32	N	-0.317877	-0.441032	0.382444
C33	C	-0.388457	-0.473422	0.388492
N34	N	-0.459041	-0.441001	0.394554
N35	N	-0.459044	-0.378544	0.394557
C36	C	-0.388464	-0.346633	0.388496
C37	C	-0.440082	-0.577579	0.439962
C38	C	-0.440085	-0.643323	0.439949
C39	C	-0.336823	-0.643311	0.336995
C40	C	-0.336827	-0.577568	0.337004
C41	C	-0.388455	-0.544706	0.388491
C42	C	-0.178160	-0.909783	0.388544
C43	C	-0.088539	-0.909816	0.388566
C44	C	-0.388409	-0.909747	0.598802
C45	C	-0.388383	-0.909765	0.688423
C46	C	-0.388490	-0.073897	0.388515
C47	C	-0.388487	-0.143865	0.388511
C48	C	-0.388471	-0.909702	0.179002
C49	C	-0.388269	-0.909807	0.089381
C50	C	-0.388293	-0.909794	1.016599
C51	C	-0.388321	-0.909784	0.925290
C52	C	-0.388339	-0.909780	0.852514
C53	C	-0.388365	-0.909769	0.761199
H54	H	-0.482149	-0.149985	0.481908
H55	H	-0.294822	-0.149963	0.295107
C56	C	-0.280029	-0.679462	0.280372
N57	N	-0.237252	-0.706694	0.237720
C58	C	-0.496889	-0.278645	0.496613
N59	N	-0.539655	-0.305884	0.539272
C60	C	-0.280053	-0.278624	0.280405
N61	N	-0.237269	-0.305857	0.237761
C62	C	-0.496879	-0.541429	0.496593
N63	N	-0.539660	-0.514203	0.539247
C64	C	-0.496877	-0.679482	0.496574
N65	N	-0.539654	-0.706717	0.539225
H66	H	-0.294790	-0.550804	0.295091
