data_functionalizedCrystal
_audit_creation_method	'MofGen! by Chris Wilmer'
_symmetry_space_group_name_H-M	'P1'
_symmetry_Int_Tables_number	1
_symmetry_cell_setting	triclinic
loop_
_symmetry_equiv_pos_as_xyz
  x,y,z
_cell_length_a	13.635800
_cell_length_b	11.102308
_cell_length_c	11.102193
_cell_angle_alpha	88.051382
_cell_angle_beta	71.395941
_cell_angle_gamma	108.606174
loop_
_atom_site_label
_atom_site_type_symbol
_atom_site_fract_x
_atom_site_fract_y
_atom_site_fract_z
V1	V	-2.055758	-0.175848	0.396257
O2	O	-2.035274	0.008441	0.388714
O3	O	-2.044148	-0.348669	0.393546
O4	O	-2.044145	-0.173148	0.569078
O5	O	-2.035276	-0.168295	0.211967
V6	V	-2.294310	-0.153805	0.374214
O7	O	-2.193429	-0.224203	0.444609
O8	O	-2.381738	-0.105450	0.325862
O9	O	-2.194317	0.019016	0.376925
O10	O	-2.373493	-0.338094	0.381757
O11	O	-2.373491	-0.161358	0.558504
O12	O	-2.194320	-0.156506	0.201393
C13	C	-1.969304	-0.390798	0.387295
C14	C	-2.000538	-0.532081	0.386230
V15	V	-1.555758	-0.175848	0.396257
O16	O	-1.535274	0.008441	0.388714
O17	O	-1.544148	-0.348669	0.393546
O18	O	-1.544145	-0.173148	0.569078
O19	O	-1.535276	-0.168295	0.211967
V20	V	-1.794310	-0.153805	0.374214
O21	O	-1.693429	-0.224203	0.444609
O22	O	-1.881738	-0.105450	0.325862
O23	O	-1.694317	0.019016	0.376925
O24	O	-1.873493	-0.338094	0.381757
O25	O	-1.873491	-0.161358	0.558504
O26	O	-1.694320	-0.156506	0.201393
C27	C	-2.184557	-0.545047	0.398900
C28	C	-2.291235	-0.617902	0.404731
C29	C	-2.320577	-0.750649	0.403732
C30	C	-2.243232	-0.810544	0.396906
C31	C	-2.136554	-0.737688	0.391075
C32	C	-2.107221	-0.604938	0.392070
C33	C	-1.952540	-0.724724	0.378415
C34	C	-1.923194	-0.591976	0.379404
C35	C	-1.875195	-0.784619	0.371589
C36	C	-1.768513	-0.711762	0.365749
C37	C	-1.739173	-0.579007	0.366746
C38	C	-1.816516	-0.519120	0.373573
C39	C	-1.969300	-0.166902	0.611202
C40	C	-2.000530	-0.165837	0.752485
C41	C	-2.100833	0.061139	0.383173
C42	C	-2.059218	0.202420	0.384246
C43	C	-2.100836	-0.162755	0.159262
C44	C	-2.059225	-0.163813	0.017979
C45	C	-1.469304	-0.390798	0.387295
C46	C	-1.500538	-0.532081	0.386230
C47	C	-1.469300	-0.166902	0.611202
C48	C	-1.500530	-0.165837	0.752485
C49	C	-2.060696	-0.398616	0.788811
C50	C	-2.105446	-0.514499	0.873346
C51	C	-2.134789	-0.513492	1.006092
C52	C	-2.119382	-0.396588	1.054304
C53	C	-2.074632	-0.280704	0.969768
C54	C	-2.045289	-0.281725	0.837021
C55	C	-2.014474	-0.047930	0.933443
C56	C	-1.985123	-0.048934	0.800696
C57	C	-1.999067	0.068974	0.981655
C58	C	-1.954309	0.184861	0.897118
C59	C	-1.924964	0.183849	0.764365
C60	C	-1.940373	0.066950	0.716161
C61	C	-1.600833	0.061139	0.383173
C62	C	-1.559218	0.202420	0.384246
C63	C	-1.600836	-0.162755	0.159262
C64	C	-1.559225	-0.163813	0.017979
C65	C	-1.684557	-0.178539	0.765454
C66	C	-1.791239	-0.184393	0.838313
C67	C	-1.820576	-0.183391	0.971059
C68	C	-1.743220	-0.176530	1.030949
C69	C	-1.636538	-0.170676	0.958090
C70	C	-1.607212	-0.171682	0.825342
C71	C	-1.452511	-0.157966	0.945119
C72	C	-1.423175	-0.158977	0.812374
C73	C	-1.375156	-0.151105	1.005008
C74	C	-1.268474	-0.145260	0.932151
C75	C	-1.239140	-0.146264	0.799397
C76	C	-1.316493	-0.153123	0.739515
C77	C	-1.440364	-0.495798	0.153451
C78	C	-1.424949	-0.544031	0.036565
C79	C	-1.454300	-0.676779	0.035572
C80	C	-1.499074	-0.761300	0.151477
C81	C	-1.514489	-0.713068	0.268362
C82	C	-1.485130	-0.580314	0.269343
C83	C	-1.574670	-0.749351	0.501140
C84	C	-1.545312	-0.616602	0.502135
C85	C	-1.619443	-0.833872	0.617045
C86	C	-1.634851	-0.785639	0.733932
C87	C	-1.605496	-0.652881	0.734921
C88	C	-1.560727	-0.568369	0.619021
H89	H	-2.354205	-0.569122	0.410292
N90	N	-1.906830	-0.927794	0.370512
H91	H	-1.970487	-0.974663	0.451903
H92	H	-1.929495	-0.949859	0.293550
N93	N	-1.784880	-0.375947	0.374665
H94	H	-1.705567	-0.338878	0.369940
H95	H	-1.793541	-0.334271	0.298242
N96	N	-1.874665	-0.191776	0.773718
H97	H	-1.839898	-0.191522	0.678568
H98	H	-1.940432	-0.273524	0.812096
H99	H	-1.660683	-0.179371	0.657369
N100	N	-1.935634	-0.189690	1.049649
H101	H	-1.980187	-0.194184	0.991572
H102	H	-1.972268	-0.268701	1.117356
H103	H	-1.522983	-0.869390	0.150658
H104	H	-1.767112	-0.175699	1.139036
H105	H	-2.143291	-0.395779	1.162395
N106	N	-1.624113	-0.500441	0.360468
H107	H	-1.568528	-0.508372	0.278381
H108	H	-1.617354	-0.407292	0.362190
H109	H	-2.036791	-0.399447	0.680723
N110	N	-1.651114	-0.977051	0.615982
H111	H	-1.634554	-0.994784	0.524351
H112	H	-1.607425	-1.011662	0.657200
N113	N	-1.908736	0.065852	0.572988
H114	H	-1.878052	0.157000	0.526747
H115	H	-1.850942	0.024176	0.543849
N116	N	-1.683165	-0.876796	0.858934
H117	H	-1.699433	-0.968210	0.840569
H118	H	-1.628617	-0.857140	0.905643
N119	N	-2.435602	-0.829311	0.409969
H120	H	-2.491244	-0.821459	0.492047
H121	H	-2.450151	-0.796686	0.333686
H122	H	-2.117990	-0.609680	0.834078
H123	H	-1.399048	-0.150281	1.113097
H124	H	-1.388495	-0.475200	-0.057802
N125	N	-1.185046	-0.137848	0.996740
H126	H	-1.219817	-0.138091	1.091888
H127	H	-1.160195	-0.214403	0.983063
N128	N	-1.876678	0.308833	0.673177
H129	H	-1.925725	0.309288	0.621681
H130	H	-1.871363	0.382974	0.723944
H131	H	-2.022970	0.069786	1.089745
N132	N	-1.937684	0.310941	0.949108
H133	H	-1.981992	0.357334	0.922463
H134	H	-1.963051	0.293896	1.046020
N135	N	-1.622131	-0.600863	0.860993
H136	H	-1.654949	-0.674552	0.934259
H137	H	-1.548695	-0.542180	0.862175
H138	H	-1.152262	-0.141467	0.740078
H139	H	-2.171230	-0.607855	1.074923
H140	H	-1.292619	-0.153948	0.631429
H141	H	-1.416431	-0.387704	0.154246
H142	H	-1.536805	-0.460275	0.619813
N143	N	-1.685097	-0.776357	0.358375
H144	H	-1.719873	-0.871506	0.358629
H145	H	-1.619335	-0.737981	0.276622
H146	H	-2.267136	-0.918636	0.396109
N147	N	-2.152904	-0.401867	0.399954
H148	H	-2.218083	-0.374978	0.405158
H149	H	-2.130153	-0.379778	0.476856
N150	N	-1.437687	-0.728813	-0.090492
H151	H	-1.404874	-0.655132	-0.163767
H152	H	-1.385987	-0.778704	-0.100275
