data_functionalizedCrystal
_audit_creation_method	'MofGen! by Chris Wilmer'
_symmetry_space_group_name_H-M	'P1'
_symmetry_Int_Tables_number	1
_symmetry_cell_setting	triclinic
loop_
_symmetry_equiv_pos_as_xyz
  x,y,z
_cell_length_a	17.077404
_cell_length_b	25.639240
_cell_length_c	17.077396
_cell_angle_alpha	90.026744
_cell_angle_beta	89.981638
_cell_angle_gamma	89.964608
loop_
_atom_site_label
_atom_site_type_symbol
_atom_site_fract_x
_atom_site_fract_y
_atom_site_fract_z
Zn1	Zn	1.199975	0.208179	-0.443828
Zn2	Zn	1.533309	0.541512	-0.110495
Zn3	Zn	1.866642	0.874846	0.222838
Zn4	Zn	1.199849	0.295617	-0.312566
Zn5	Zn	1.533182	0.628950	0.020767
Zn6	Zn	1.866516	0.962283	0.354100
Zn7	Zn	1.068707	0.208194	-0.312579
Zn8	Zn	1.402040	0.541527	0.020754
Zn9	Zn	1.735374	0.874861	0.354088
Zn10	Zn	1.068642	0.295582	-0.443792
Zn11	Zn	1.401975	0.628916	-0.110459
Zn12	Zn	1.735308	0.962249	0.222874
O13	O	1.134293	0.251893	-0.378191
O14	O	1.467627	0.585226	-0.044858
O15	O	1.800960	0.918560	0.288475
O16	O	1.309805	0.219786	-0.426426
O17	O	1.643139	0.553119	-0.093092
O18	O	1.976472	0.886453	0.240241
O19	O	1.182427	0.284041	-0.202721
O20	O	1.515761	0.617374	0.130612
O21	O	1.849094	0.950707	0.463946
O22	O	1.086200	0.135027	-0.330010
O23	O	1.419534	0.468360	0.003324
O24	O	1.752867	0.801693	0.336657
O25	O	1.309713	0.284026	-0.329988
O26	O	1.643046	0.617359	0.003345
O27	O	1.976379	0.950693	0.336678
O28	O	1.182642	0.135016	-0.426438
O29	O	1.515976	0.468349	-0.093105
O30	O	1.849309	0.801683	0.240229
O31	O	1.086078	0.219811	-0.202730
O32	O	1.419411	0.553145	0.130603
O33	O	1.752745	0.886478	0.463936
O34	O	0.958852	0.219778	-0.329975
O35	O	1.292185	0.553111	0.003358
O36	O	1.625518	0.886445	0.336692
O37	O	1.086089	0.283967	-0.553644
O38	O	1.419422	0.617301	-0.220311
O39	O	1.752756	0.950634	0.113022
O40	O	0.958804	0.283982	-0.426377
O41	O	1.292137	0.617315	-0.093044
O42	O	1.625470	0.950648	0.240290
O43	O	1.182579	0.219753	-0.553671
O44	O	1.515912	0.553086	-0.220337
O45	O	1.849246	0.886419	0.112996
O46	O	1.182364	0.368777	-0.329953
O47	O	1.515697	0.702111	0.003380
O48	O	1.849031	1.035444	0.336713
O49	O	1.085967	0.368752	-0.426365
O50	O	1.419300	0.702085	-0.093031
O51	O	1.752633	1.035419	0.240302
C52	C	0.930345	0.251878	-0.378174
C53	C	1.263679	0.585212	-0.044841
C54	C	1.597012	0.918545	0.288493
C55	C	0.843096	0.251884	-0.378185
C56	C	1.176429	0.585218	-0.044852
C57	C	1.509762	0.918551	0.288482
C58	C	1.134166	0.387736	-0.378171
C59	C	1.467499	0.721069	-0.044838
C60	C	1.800832	1.054402	0.288496
C61	C	1.134183	0.445850	-0.378188
C62	C	1.467516	0.779183	-0.044855
C63	C	1.800850	1.112516	0.288478
C64	C	1.184444	0.696986	-0.428445
C65	C	1.517777	1.030319	-0.095112
C66	C	1.851110	1.363653	0.238222
C67	C	1.184428	0.642382	-0.428440
C68	C	1.517761	0.975715	-0.095107
C69	C	1.851094	1.309048	0.238227
O70	O	1.227105	0.614097	-0.471148
O71	O	1.560438	0.947430	-0.137815
O72	O	1.893772	1.280763	0.195518
N73	N	1.134245	0.615123	-0.378195
N74	N	1.467579	0.948457	-0.044862
N75	N	1.800912	1.281790	0.288472
C76	C	1.084081	0.642472	-0.327946
C77	C	1.417414	0.975806	0.005387
C78	C	1.750747	1.309139	0.338720
O79	O	1.041396	0.614273	-0.285208
O80	O	1.374729	0.947606	0.048125
O81	O	1.708062	1.280940	0.381459
C82	C	1.084101	0.697076	-0.327948
C83	C	1.417435	1.030409	0.005385
C84	C	1.750768	1.363742	0.338719
C85	C	1.134282	0.724331	-0.378202
C86	C	1.467615	1.057664	-0.044868
C87	C	1.800948	1.390998	0.288465
C88	C	1.234621	0.724242	-0.478694
C89	C	1.567954	1.057575	-0.145361
C90	C	1.901287	1.390908	0.187973
C91	C	1.234635	0.778842	-0.478700
C92	C	1.567969	1.112175	-0.145367
C93	C	1.901302	1.445509	0.187967
C94	C	1.184473	0.806187	-0.428457
C95	C	1.517806	1.139521	-0.095123
C96	C	1.851140	1.472854	0.238210
C97	C	1.134296	0.778932	-0.378207
C98	C	1.467630	1.112265	-0.044874
C99	C	1.800963	1.445598	0.288459
C100	C	1.033941	0.724424	-0.277696
C101	C	1.367275	1.057757	0.055638
C102	C	1.700608	1.391090	0.388971
C103	C	1.033967	0.779031	-0.277701
C104	C	1.367300	1.112364	0.055632
C105	C	1.700633	1.445697	0.388966
C106	C	1.084147	0.806286	-0.327955
C107	C	1.417480	1.139619	0.005378
C108	C	1.750814	1.472953	0.338712
C109	C	1.084149	0.860877	-0.327970
C110	C	1.417482	1.194211	0.005363
C111	C	1.750815	1.527544	0.338697
N112	N	1.134331	0.888136	-0.378215
N113	N	1.467665	1.221469	-0.044882
N114	N	1.800998	1.554802	0.288452
C115	C	1.184494	0.860790	-0.428458
C116	C	1.517827	1.194124	-0.095125
C117	C	1.851160	1.527457	0.238209
C118	C	1.084043	0.527802	-0.327946
C119	C	1.417376	0.861135	0.005387
C120	C	1.750709	1.194468	0.338721
C121	C	1.084018	0.473199	-0.327948
C122	C	1.417351	0.806533	0.005386
C123	C	1.750684	1.139866	0.338719
C124	C	1.184366	0.473113	-0.428441
C125	C	1.517699	0.806446	-0.095107
C126	C	1.851033	1.139779	0.238226
C127	C	1.184386	0.527716	-0.428442
C128	C	1.517720	0.861049	-0.095109
C129	C	1.851053	1.194383	0.238225
C130	C	1.134225	0.555060	-0.378191
C131	C	1.467559	0.888393	-0.044857
C132	C	1.800892	1.221727	0.288476
C133	C	1.184520	0.975456	-0.428467
C134	C	1.517853	1.308789	-0.095134
C135	C	1.851187	1.642122	0.238200
C136	C	1.184528	1.030061	-0.428471
C137	C	1.517861	1.363394	-0.095137
C138	C	1.851195	1.696728	0.238196
C139	C	1.084183	1.030143	-0.327975
C140	C	1.417516	1.363476	0.005358
C141	C	1.750850	1.696810	0.338692
C142	C	1.084172	0.975542	-0.327974
C143	C	1.417505	1.308876	0.005359
C144	C	1.750839	1.642209	0.338693
C145	C	1.134347	0.948200	-0.378223
C146	C	1.467680	1.281533	-0.044889
C147	C	1.801013	1.614867	0.288444
O148	O	1.041496	0.889197	-0.285281
O149	O	1.374829	1.222530	0.048052
O150	O	1.708162	1.555864	0.381385
O151	O	1.227179	0.888996	-0.471182
O152	O	1.560512	1.222330	-0.137849
O153	O	1.893846	1.555663	0.195485
C154	C	0.802155	0.218494	-0.428477
C155	C	1.135488	0.551827	-0.095143
C156	C	1.468821	0.885161	0.238190
C157	C	0.720174	0.218497	-0.428480
C158	C	1.053507	0.551831	-0.095147
C159	C	1.386841	0.885164	0.238186
C160	C	0.679136	0.251894	-0.378196
C161	C	1.012470	0.585228	-0.044862
C162	C	1.345803	0.918561	0.288471
C163	C	0.720083	0.285286	-0.327898
C164	C	1.053416	0.618619	0.005435
C165	C	1.386750	0.951953	0.338768
C166	C	0.802062	0.285280	-0.327891
C167	C	1.135395	0.618613	0.005442
C168	C	1.468729	0.951946	0.338775
C169	C	0.549213	0.285298	-0.327918
C170	C	0.882546	0.618631	0.005416
C171	C	1.215880	0.951965	0.338749
C172	C	0.467228	0.285305	-0.327926
C173	C	0.800562	0.618638	0.005408
C174	C	1.133895	0.951972	0.338741
C175	C	0.467325	0.218516	-0.428507
C176	C	0.800658	0.551849	-0.095173
C177	C	1.133992	0.885182	0.238160
C178	C	0.549304	0.218509	-0.428500
C179	C	0.882637	0.551843	-0.095166
C180	C	1.215971	0.885176	0.238167
C181	C	0.590245	0.251902	-0.378203
C182	C	0.923579	0.585235	-0.044870
C183	C	1.256912	0.918569	0.288463
C184	C	1.339038	0.251908	-0.378210
C185	C	1.672371	0.585242	-0.044876
C186	C	2.005704	0.918575	0.288457
C187	C	1.426287	0.251915	-0.378217
C188	C	1.759621	0.585248	-0.044884
C189	C	2.092954	0.918581	0.288449
C190	C	1.134341	0.251854	-0.582936
C191	C	1.467674	0.585188	-0.249602
C192	C	1.801008	0.918521	0.083731
C193	C	1.134361	0.251838	-0.670186
C194	C	1.467694	0.585171	-0.336852
C195	C	1.801028	0.918505	-0.003519
C196	C	1.134407	1.115520	-0.378225
C197	C	1.467741	1.448853	-0.044891
C198	C	1.801074	1.782187	0.288442
C199	C	1.134366	1.057406	-0.378227
C200	C	1.467699	1.390739	-0.044894
C201	C	1.801033	1.724073	0.288439
C202	C	1.184605	0.218399	-0.711191
C203	C	1.517939	0.551732	-0.377857
C204	C	1.851272	0.885065	-0.044524
C205	C	1.184615	0.218381	-0.793171
C206	C	1.517948	0.551715	-0.459838
C207	C	1.851281	0.885048	-0.126505
C208	C	1.134383	0.251806	-0.834145
C209	C	1.467717	0.585140	-0.500812
C210	C	1.801050	0.918473	-0.167479
C211	C	1.084134	0.285247	-0.793134
C212	C	1.417467	0.618580	-0.459801
C213	C	1.750800	0.951914	-0.126468
C214	C	1.084121	0.285262	-0.711155
C215	C	1.417454	0.618595	-0.377822
C216	C	1.750787	0.951928	-0.044489
C217	C	1.084165	0.285216	-0.964004
C218	C	1.417499	0.618549	-0.630671
C219	C	1.750832	0.951882	-0.297338
C220	C	1.084179	0.285202	-1.045989
C221	C	1.417512	0.618535	-0.712656
C222	C	1.750846	0.951869	-0.379322
C223	C	1.184659	0.218335	-1.046020
C224	C	1.517993	0.551669	-0.712687
C225	C	1.851326	0.885002	-0.379354
C226	C	1.184646	0.218350	-0.964041
C227	C	1.517980	0.551683	-0.630708
C228	C	1.851313	0.885017	-0.297375
C229	C	1.134397	0.251792	-0.923036
C230	C	1.467731	0.585125	-0.589703
C231	C	1.801064	0.918458	-0.256370
C232	C	1.134291	0.251894	-0.174244
C233	C	1.467625	0.585227	0.159090
C234	C	1.800958	0.918560	0.492423
C235	C	1.134423	0.251763	-0.086994
C236	C	1.467756	0.585096	0.246339
C237	C	1.801090	0.918429	0.579672
H238	H	1.225390	1.052250	-0.469398
H239	H	1.558723	1.385583	-0.136065
H240	H	1.892056	1.718917	0.197269
H241	H	0.686843	0.191309	-0.469434
H242	H	1.020177	0.524642	-0.136101
H243	H	1.353510	0.857975	0.197232
H244	H	0.582715	0.191318	-0.469451
H245	H	0.916048	0.524651	-0.136117
H246	H	1.249382	0.857985	0.197216
H247	H	0.993119	0.801291	-0.236779
H248	H	1.326453	1.134625	0.096555
H249	H	1.659786	1.467958	0.429888
Cl250	Cl	1.247597	0.941091	-0.491638
Cl251	Cl	1.580930	1.274424	-0.158305
Cl252	Cl	1.914264	1.607757	0.175028
H253	H	1.225554	0.191135	-0.930683
H254	H	1.558887	0.524469	-0.597349
H255	H	1.892220	0.857802	-0.264016
Cl256	Cl	0.415857	0.176535	-0.491735
Cl257	Cl	0.749190	0.509868	-0.158401
Cl258	Cl	1.082523	0.843202	0.174932
H259	H	1.225572	0.191105	-1.079411
H260	H	1.558906	0.524438	-0.746077
H261	H	1.892239	0.857772	-0.412744
H262	H	1.225512	0.191182	-0.677836
H263	H	1.558845	0.524515	-0.344502
H264	H	1.892179	0.857848	-0.011169
Cl265	Cl	1.021120	1.064530	-0.264821
Cl266	Cl	1.354453	1.397863	0.068512
Cl267	Cl	1.687787	1.731196	0.401846
H268	H	1.043303	0.953351	-0.287061
H269	H	1.376636	1.286684	0.046272
H270	H	1.709969	1.620017	0.379606
Cl271	Cl	1.021021	0.327217	-1.097498
Cl272	Cl	1.354355	0.660550	-0.764165
Cl273	Cl	1.687688	0.993884	-0.430832
H274	H	1.043235	0.312439	-0.930621
H275	H	1.376568	0.645773	-0.597287
H276	H	1.709902	0.979106	-0.263954
H277	H	1.043231	0.312460	-0.826502
H278	H	1.376565	0.645794	-0.493168
H279	H	1.709898	0.979127	-0.159835
Cl280	Cl	0.853737	0.176509	-0.491699
Cl281	Cl	1.187070	0.509843	-0.158366
Cl282	Cl	1.520404	0.843176	0.174967
Cl283	Cl	0.415639	0.327302	-0.264728
Cl284	Cl	0.748972	0.660636	0.068605
Cl285	Cl	1.082306	0.993969	0.401939
Cl286	Cl	0.600681	0.327281	-0.264692
Cl287	Cl	0.934014	0.660615	0.068641
Cl288	Cl	1.267347	0.993948	0.401975
H289	H	1.043188	0.550062	-0.287027
H290	H	1.376522	0.883395	0.046306
H291	H	1.709855	1.216729	0.379639
H292	H	1.275503	0.801029	-0.519616
H293	H	1.608836	1.134362	-0.186283
H294	H	1.942170	1.467695	0.147051
Cl295	Cl	1.297690	0.689875	-0.541867
Cl296	Cl	1.631023	1.023208	-0.208533
Cl297	Cl	1.964356	1.356541	0.124800
Cl298	Cl	1.247817	0.176364	-0.844717
Cl299	Cl	1.581150	0.509698	-0.511384
Cl300	Cl	1.914483	0.843031	-0.178051
H301	H	1.043199	0.312486	-0.677770
H302	H	1.376532	0.645819	-0.344437
H303	H	1.709865	0.979153	-0.011103
Cl304	Cl	0.853531	0.327258	-0.264665
Cl305	Cl	1.186865	0.660592	0.068668
Cl306	Cl	1.520198	0.993925	0.402001
Cl307	Cl	1.247475	0.561974	-0.491618
Cl308	Cl	1.580808	0.895308	-0.158285
Cl309	Cl	1.914141	1.228641	0.175049
H310	H	1.225212	0.450838	-0.469350
H311	H	1.558545	0.784172	-0.136017
H312	H	1.891878	1.117505	0.197316
H313	H	1.043148	0.451012	-0.287035
H314	H	1.376481	0.784345	0.046298
H315	H	1.709814	1.117678	0.379632
Cl316	Cl	0.668493	0.327268	-0.264678
Cl317	Cl	1.001826	0.660601	0.068655
Cl318	Cl	1.335159	0.993935	0.401988
H319	H	0.993081	0.702240	-0.236774
H320	H	1.326414	1.035573	0.096559
H321	H	1.659747	1.368906	0.429892
