data_functionalizedCrystal
_audit_creation_method	'MofGen! by Chris Wilmer'
_symmetry_space_group_name_H-M	'P1'
_symmetry_Int_Tables_number	1
_symmetry_cell_setting	triclinic
loop_
_symmetry_equiv_pos_as_xyz
  x,y,z
_cell_length_a	14.044191
_cell_length_b	14.044190
_cell_length_c	10.268362
_cell_angle_alpha	89.989939
_cell_angle_beta	89.997935
_cell_angle_gamma	93.191777
loop_
_atom_site_label
_atom_site_type_symbol
_atom_site_fract_x
_atom_site_fract_y
_atom_site_fract_z
O1	O	1.277178	0.230201	-0.108264
O2	O	1.000506	0.221889	-0.108280
O3	O	1.134686	0.087709	-0.108247
O4	O	1.142998	0.364381	-0.108297
O5	O	1.134672	0.087702	0.108354
O6	O	1.000493	0.221882	0.108321
O7	O	1.277165	0.230194	0.108336
Cu8	Cu	1.138828	0.226037	0.128106
Cu9	Cu	1.138843	0.226046	-0.128049
O10	O	1.142985	0.364374	0.108303
C11	C	0.964877	0.218249	0.000019
C12	C	0.858734	0.207401	0.000014
C13	C	1.131043	0.052083	0.000057
C14	C	1.120195	-0.054060	0.000068
C15	C	0.613277	0.264502	0.000017
C16	C	0.664400	0.187585	0.000028
C17	C	0.772537	0.198614	0.000020
C18	C	0.505130	0.253475	0.000025
C19	C	1.177296	-0.299517	0.000020
C20	C	1.100379	-0.248394	0.000025
C21	C	1.111408	-0.140257	0.000049
C22	C	1.166269	-0.407664	-0.000004
C23	C	1.312794	0.233834	0.000035
C24	C	1.418937	0.244682	0.000031
C25	C	1.146628	0.400000	-0.000004
C26	C	1.157476	0.506143	-0.000023
N27	N	1.138824	0.226031	0.308272
N28	N	1.138854	0.226045	-0.308215
C29	C	1.138838	0.226043	0.573942
C30	C	1.138827	0.226039	0.426104
H31	H	0.626955	0.113453	-0.000050
C32	C	0.663855	0.364647	-0.000029
C33	C	0.773563	0.375675	-0.000054
C34	C	0.824155	0.475818	-0.000111
C35	C	0.765038	0.564933	-0.000142
C36	C	0.655323	0.553907	-0.000116
C37	C	0.604731	0.453764	-0.000060
H38	H	0.817331	0.309705	-0.000031
H39	H	0.905374	0.483980	-0.000130
H40	H	0.802489	0.639065	-0.000184
H41	H	0.611555	0.619878	-0.000139
H42	H	0.523512	0.445603	-0.000041
C43	C	1.277440	-0.248939	0.000051
C44	C	1.288469	-0.139230	0.000084
C45	C	1.388612	-0.088639	0.000121
C46	C	1.477727	-0.147756	0.000125
C47	C	1.466701	-0.257471	0.000091
C48	C	1.366558	-0.308063	0.000055
H49	H	1.222498	-0.095463	0.000082
H50	H	1.396774	-0.007420	0.000146
H51	H	1.551859	-0.110305	0.000152
H52	H	1.532672	-0.301239	0.000094
H53	H	1.358397	-0.389281	0.000030
H54	H	1.026247	-0.285839	0.000013
