data_functionalizedCrystal
_audit_creation_method	'MofGen! by Chris Wilmer'
_symmetry_space_group_name_H-M	'P1'
_symmetry_Int_Tables_number	1
_symmetry_cell_setting	triclinic
loop_
_symmetry_equiv_pos_as_xyz
  x,y,z
_cell_length_a	27.732048
_cell_length_b	19.188930
_cell_length_c	17.666332
_cell_angle_alpha	89.988397
_cell_angle_beta	89.996139
_cell_angle_gamma	82.893719
loop_
_atom_site_label
_atom_site_type_symbol
_atom_site_fract_x
_atom_site_fract_y
_atom_site_fract_z
O1	O	-0.641184	-0.083079	0.062859
O2	O	-0.391184	0.166921	0.312859
O3	O	-0.141184	0.416921	0.562859
O4	O	0.108816	0.666921	0.812859
O5	O	-0.500430	-0.095711	0.062883
O6	O	-0.250430	0.154289	0.312883
O7	O	-0.000430	0.404289	0.562883
O8	O	0.249570	0.654289	0.812883
O9	O	-0.574869	0.012286	0.062856
O10	O	-0.324869	0.262286	0.312856
O11	O	-0.074869	0.512286	0.562856
O12	O	0.175131	0.762286	0.812856
O13	O	-0.566745	-0.191077	0.062887
O14	O	-0.316745	0.058923	0.312887
O15	O	-0.066745	0.308923	0.562887
O16	O	0.183255	0.558923	0.812887
O17	O	-0.574856	0.012292	-0.063041
O18	O	-0.324856	0.262292	0.186959
O19	O	-0.074856	0.512292	0.436959
O20	O	0.175144	0.762292	0.686959
O21	O	-0.500417	-0.095706	-0.063014
O22	O	-0.250417	0.154294	0.186986
O23	O	-0.000417	0.404294	0.436986
O24	O	0.249583	0.654294	0.686986
O25	O	-0.641171	-0.083074	-0.063038
O26	O	-0.391171	0.166926	0.186962
O27	O	-0.141171	0.416926	0.436962
O28	O	0.108829	0.666926	0.686962
Cu29	Cu	-0.570793	-0.089389	-0.074521
Cu30	Cu	-0.320793	0.160611	0.175479
Cu31	Cu	-0.070793	0.410611	0.425479
Cu32	Cu	0.179207	0.660611	0.675479
Cu33	Cu	-0.570808	-0.089396	0.074367
Cu34	Cu	-0.320808	0.160604	0.324367
Cu35	Cu	-0.070808	0.410604	0.574367
Cu36	Cu	0.179192	0.660604	0.824367
O37	O	-0.566732	-0.191071	-0.063010
O38	O	-0.316732	0.058929	0.186990
O39	O	-0.066732	0.308929	0.436990
O40	O	0.183268	0.558929	0.686990
C41	C	-0.482415	-0.095443	-0.000062
C42	C	-0.232415	0.154557	0.249938
C43	C	0.017585	0.404557	0.499938
C44	C	0.267585	0.654557	0.749938
C45	C	-0.428758	-0.094645	-0.000054
C46	C	-0.178758	0.155355	0.249946
C47	C	0.071242	0.405355	0.499946
C48	C	0.321242	0.655355	0.749946
C49	C	-0.574599	0.038299	-0.000095
C50	C	-0.324599	0.288299	0.249905
C51	C	-0.074599	0.538299	0.499905
C52	C	0.175401	0.788299	0.749905
C53	C	-0.573810	0.115798	-0.000101
C54	C	-0.323810	0.365798	0.249899
C55	C	-0.073810	0.615798	0.499899
C56	C	0.176190	0.865798	0.749899
C57	C	-0.659186	-0.083341	-0.000090
C58	C	-0.409186	0.166659	0.249910
C59	C	-0.159186	0.416659	0.499910
C60	C	0.090814	0.666659	0.749910
C61	C	-0.712843	-0.084140	-0.000094
C62	C	-0.462843	0.165860	0.249906
C63	C	-0.212843	0.415860	0.499906
C64	C	0.037157	0.665860	0.749906
C65	C	-0.090123	-0.153438	-0.000078
C66	C	0.159877	0.096562	0.249922
C67	C	0.409877	0.346562	0.499922
C68	C	0.659877	0.596562	0.749922
C69	C	0.111546	-0.150475	-0.000085
C70	C	0.361546	0.099525	0.249915
C71	C	0.611546	0.349525	0.499915
C72	C	0.861546	0.599525	0.749915
O73	O	0.142637	-0.204237	-0.000109
O74	O	0.392637	0.045763	0.249891
O75	O	0.642637	0.295763	0.499891
O76	O	0.892637	0.545763	0.749891
N77	N	0.130866	-0.086437	-0.000093
N78	N	0.380866	0.163563	0.249907
N79	N	0.630866	0.413563	0.499907
N80	N	0.880866	0.663563	0.749907
C81	C	0.099764	-0.023135	-0.000105
C82	C	0.349764	0.226865	0.249895
C83	C	0.599764	0.476865	0.499895
C84	C	0.849764	0.726865	0.749895
O85	O	0.120824	0.031401	-0.000120
O86	O	0.370824	0.281401	0.249880
O87	O	0.620824	0.531401	0.499880
O88	O	0.870824	0.781401	0.749880
C89	C	-0.101903	-0.026098	-0.000103
C90	C	0.148097	0.223902	0.249897
C91	C	0.398097	0.473902	0.499897
C92	C	0.648097	0.723902	0.749897
C93	C	-0.121220	-0.090140	-0.000087
C94	C	0.128780	0.159860	0.249913
C95	C	0.378780	0.409860	0.499913
C96	C	0.628780	0.659860	0.749913
C97	C	-0.109440	-0.217475	-0.000062
C98	C	0.140560	0.032525	0.249938
C99	C	0.390560	0.282525	0.499938
C100	C	0.640560	0.532525	0.749938
C101	C	-0.159854	-0.218215	-0.000056
C102	C	0.090146	0.031785	0.249944
C103	C	0.340146	0.281785	0.499944
C104	C	0.590146	0.531785	0.749944
C105	C	-0.190951	-0.154917	-0.000066
C106	C	0.059049	0.095083	0.249934
C107	C	0.309049	0.345083	0.499934
C108	C	0.559049	0.595083	0.749934
C109	C	-0.171634	-0.090880	-0.000081
C110	C	0.078366	0.159120	0.249919
C111	C	0.328366	0.409120	0.499919
C112	C	0.578366	0.659120	0.749919
C113	C	-0.133003	0.037203	-0.000120
C114	C	0.116997	0.287203	0.249880
C115	C	0.366997	0.537203	0.499880
C116	C	0.616997	0.787203	0.749880
C117	C	-0.183423	0.036457	-0.000121
C118	C	0.066577	0.286457	0.249879
C119	C	0.316577	0.536457	0.499879
C120	C	0.566577	0.786457	0.749879
C121	C	-0.202740	-0.027586	-0.000105
C122	C	0.047260	0.222414	0.249895
C123	C	0.297260	0.472414	0.499895
C124	C	0.547260	0.722414	0.749895
C125	C	-0.253145	-0.028323	-0.000084
C126	C	-0.003145	0.221677	0.249916
C127	C	0.246855	0.471677	0.499916
C128	C	0.496855	0.721677	0.749916
N129	N	-0.272465	-0.092361	-0.000076
N130	N	-0.022465	0.157639	0.249924
N131	N	0.227535	0.407639	0.499924
N132	N	0.477535	0.657639	0.749924
C133	C	-0.241368	-0.155658	-0.000067
C134	C	0.008632	0.094342	0.249933
C135	C	0.258632	0.344342	0.499933
C136	C	0.508632	0.594342	0.749933
C137	C	0.205643	-0.021584	-0.000104
C138	C	0.455643	0.228416	0.249896
C139	C	0.705643	0.478416	0.499896
C140	C	0.955643	0.728416	0.749896
C141	C	0.256060	-0.020843	-0.000103
C142	C	0.506060	0.229157	0.249897
C143	C	0.756060	0.479157	0.499897
C144	C	1.006060	0.729157	0.749897
C145	C	0.267838	-0.148183	-0.000085
C146	C	0.517838	0.101817	0.249915
C147	C	0.767838	0.351817	0.499915
C148	C	1.017838	0.601817	0.749915
C149	C	0.217420	-0.148923	-0.000080
C150	C	0.467420	0.101077	0.249920
C151	C	0.717420	0.351077	0.499920
C152	C	0.967420	0.601077	0.749920
C153	C	0.186324	-0.085622	-0.000096
C154	C	0.436324	0.164378	0.249904
C155	C	0.686324	0.414378	0.499904
C156	C	0.936324	0.664378	0.749904
C157	C	-0.347242	-0.157208	-0.000054
C158	C	-0.097242	0.092792	0.249946
C159	C	0.152758	0.342792	0.499946
C160	C	0.402758	0.592792	0.749946
C161	C	-0.397661	-0.157942	-0.000044
C162	C	-0.147661	0.092058	0.249956
C163	C	0.102339	0.342058	0.499956
C164	C	0.352339	0.592058	0.749956
C165	C	-0.409435	-0.030602	-0.000067
C166	C	-0.159435	0.219398	0.249933
C167	C	0.090565	0.469398	0.499933
C168	C	0.340565	0.719398	0.749933
C169	C	-0.359020	-0.029867	-0.000072
C170	C	-0.109020	0.220133	0.249928
C171	C	0.140980	0.470133	0.499928
C172	C	0.390980	0.720133	0.749928
C173	C	-0.327924	-0.093176	-0.000068
C174	C	-0.077924	0.156824	0.249932
C175	C	0.172076	0.406824	0.499932
C176	C	0.422076	0.656824	0.749932
O177	O	-0.284265	0.025410	-0.000068
O178	O	-0.034265	0.275410	0.249932
O179	O	0.215735	0.525410	0.499932
O180	O	0.465735	0.775410	0.749932
O181	O	-0.262437	-0.210187	-0.000068
O182	O	-0.012437	0.039813	0.249932
O183	O	0.237563	0.289813	0.499932
O184	O	0.487563	0.539813	0.749932
C185	C	-0.039708	-0.152698	-0.000084
C186	C	0.210292	0.097302	0.249916
C187	C	0.460292	0.347302	0.499916
C188	C	0.710292	0.597302	0.749916
C189	C	-0.020391	-0.088661	-0.000099
C190	C	0.229609	0.161339	0.249901
C191	C	0.479609	0.411339	0.499901
C192	C	0.729609	0.661339	0.749901
C193	C	-0.051489	-0.025363	-0.000108
C194	C	0.198511	0.224637	0.249892
C195	C	0.448511	0.474637	0.499892
C196	C	0.698511	0.724637	0.749892
C197	C	0.030025	-0.087920	-0.000098
C198	C	0.280025	0.162080	0.249902
C199	C	0.530025	0.412080	0.499902
C200	C	0.780025	0.662080	0.749902
C201	C	0.061122	-0.151217	-0.000089
C202	C	0.311122	0.098783	0.249911
C203	C	0.561122	0.348783	0.499911
C204	C	0.811122	0.598783	0.749911
C205	C	0.041803	-0.215255	-0.000080
C206	C	0.291803	0.034745	0.249920
C207	C	0.541803	0.284745	0.499920
C208	C	0.791803	0.534745	0.749920
C209	C	-0.008611	-0.215995	-0.000074
C210	C	0.241389	0.034005	0.249926
C211	C	0.491389	0.284005	0.499926
C212	C	0.741389	0.534005	0.749926
C213	C	-0.032169	0.038675	-0.000116
C214	C	0.217831	0.288675	0.249884
C215	C	0.467831	0.538675	0.499884
C216	C	0.717831	0.788675	0.749884
C217	C	0.018246	0.039409	-0.000122
C218	C	0.268246	0.289409	0.249878
C219	C	0.518246	0.539409	0.499878
C220	C	0.768246	0.789409	0.749878
C221	C	0.049343	-0.023888	-0.000112
C222	C	0.299343	0.226112	0.249888
C223	C	0.549343	0.476112	0.499888
C224	C	0.799343	0.726112	0.749888
C225	C	-0.567002	-0.217083	-0.000058
C226	C	-0.317002	0.032917	0.249942
C227	C	-0.067002	0.282917	0.499942
C228	C	0.182998	0.532917	0.749942
C229	C	-0.567791	-0.294583	-0.000047
C230	C	-0.317791	-0.044583	0.249953
C231	C	-0.067791	0.205417	0.499953
C232	C	0.182209	0.455417	0.749953
N233	N	-0.570786	-0.089384	-0.179240
N234	N	-0.320786	0.160616	0.070760
N235	N	-0.070786	0.410616	0.320760
N236	N	0.179214	0.660616	0.570760
C237	C	-0.617488	0.161001	-0.000112
C238	C	-0.367488	0.411001	0.249888
C239	C	-0.117488	0.661001	0.499888
C240	C	0.132512	0.911001	0.749888
C241	C	-0.616746	0.233820	-0.000100
C242	C	-0.366746	0.483820	0.249900
C243	C	-0.116746	0.733820	0.499900
C244	C	0.133254	0.983820	0.749900
C245	C	-0.572323	0.261433	-0.000092
C246	C	-0.322323	0.511433	0.249908
C247	C	-0.072323	0.761433	0.499908
C248	C	0.177677	1.011433	0.749908
C249	C	-0.528639	0.216220	-0.000077
C250	C	-0.278639	0.466220	0.249923
C251	C	-0.028639	0.716220	0.499923
C252	C	0.221361	0.966220	0.749923
C253	C	-0.529382	0.143403	-0.000081
C254	C	-0.279382	0.393403	0.249919
C255	C	-0.029382	0.643403	0.499919
C256	C	0.220618	0.893403	0.749919
N257	N	-0.538363	0.369223	-0.042931
N258	N	-0.288363	0.619223	0.207069
N259	N	-0.038363	0.869223	0.457069
N260	N	0.211637	1.119223	0.707069
N261	N	-0.537660	0.438397	-0.042928
N262	N	-0.287660	0.688397	0.207072
N263	N	-0.037660	0.938397	0.457072
N264	N	0.212340	1.188397	0.707072
C265	C	-0.570081	0.480827	-0.000076
C266	C	-0.320081	0.730827	0.249924
C267	C	-0.070081	0.980827	0.499924
C268	C	0.179919	1.230827	0.749924
N269	N	-0.603240	0.451471	0.042764
N270	N	-0.353240	0.701471	0.292764
N271	N	-0.103240	0.951471	0.542764
N272	N	0.146760	1.201471	0.792764
N273	N	-0.603944	0.382291	0.042757
N274	N	-0.353944	0.632291	0.292757
N275	N	-0.103944	0.882291	0.542757
N276	N	0.146056	1.132291	0.792757
C277	C	-0.571512	0.340390	-0.000086
C278	C	-0.321512	0.590390	0.249914
C279	C	-0.071512	0.840390	0.499914
C280	C	0.178488	1.090390	0.749914
C281	C	-0.612959	0.604989	-0.000073
C282	C	-0.362959	0.854989	0.249927
C283	C	-0.112959	1.104989	0.499927
C284	C	0.137041	1.354989	0.749927
C285	C	-0.612215	0.677809	-0.000056
C286	C	-0.362215	0.927809	0.249944
C287	C	-0.112215	1.177809	0.499944
C288	C	0.137785	1.427809	0.749944
C289	C	-0.524106	0.660208	-0.000040
C290	C	-0.274106	0.910208	0.249960
C291	C	-0.024106	1.160208	0.499960
C292	C	0.225894	1.410208	0.749960
C293	C	-0.524851	0.587390	-0.000049
C294	C	-0.274851	0.837390	0.249951
C295	C	-0.024851	1.087390	0.499951
C296	C	0.225149	1.337390	0.749951
C297	C	-0.569279	0.559785	-0.000069
C298	C	-0.319279	0.809785	0.249931
C299	C	-0.069279	1.059785	0.499931
C300	C	0.180721	1.309785	0.749931
C301	C	-0.603758	-0.041586	-0.218862
C302	C	-0.353758	0.208414	0.031138
C303	C	-0.103758	0.458414	0.281138
C304	C	0.146242	0.708414	0.531138
C305	C	-0.603761	-0.041582	-0.298110
C306	C	-0.353761	0.208418	-0.048110
C307	C	-0.103761	0.458418	0.201890
C308	C	0.146239	0.708418	0.451890
C309	C	-0.570796	-0.089389	-0.337733
C310	C	-0.320796	0.160611	-0.087733
C311	C	-0.070796	0.410611	0.162267
C312	C	0.179204	0.660611	0.412267
C313	C	-0.537817	-0.137191	-0.298101
C314	C	-0.287817	0.112809	-0.048101
C315	C	-0.037817	0.362809	0.201899
C316	C	0.212183	0.612809	0.451899
C317	C	-0.537812	-0.137188	-0.218855
C318	C	-0.287812	0.112812	0.031145
C319	C	-0.037812	0.362812	0.281145
C320	C	0.212188	0.612812	0.531145
N321	N	-0.564512	-0.151237	-0.462141
N322	N	-0.314512	0.098763	-0.212141
N323	N	-0.064512	0.348763	0.037859
N324	N	0.185488	0.598763	0.287859
N325	N	-0.564520	-0.151237	-0.537422
N326	N	-0.314520	0.098763	-0.287422
N327	N	-0.064520	0.348763	-0.037422
N328	N	0.185480	0.598763	0.212578
C329	C	-0.570808	-0.089399	-0.576497
C330	C	-0.320808	0.160601	-0.326497
C331	C	-0.070808	0.410601	-0.076497
C332	C	0.179192	0.660601	0.173503
N333	N	-0.577098	-0.027558	-0.537447
N334	N	-0.327098	0.222442	-0.287447
N335	N	-0.077098	0.472442	-0.037447
N336	N	0.172902	0.722442	0.212553
N337	N	-0.577093	-0.027559	-0.462160
N338	N	-0.327093	0.222441	-0.212160
N339	N	-0.077093	0.472441	0.037840
N340	N	0.172907	0.722441	0.287840
C341	C	-0.570797	-0.089397	-0.423662
C342	C	-0.320797	0.160603	-0.173662
C343	C	-0.070797	0.410603	0.076338
C344	C	0.179203	0.660603	0.326338
C345	C	-0.603786	-0.041593	-0.702048
C346	C	-0.353786	0.208407	-0.452048
C347	C	-0.103786	0.458407	-0.202048
C348	C	0.146214	0.708407	0.047952
C349	C	-0.603785	-0.041589	-0.781297
C350	C	-0.353785	0.208411	-0.531297
C351	C	-0.103785	0.458411	-0.281297
C352	C	0.146215	0.708411	-0.031297
C353	C	-0.537844	-0.137203	-0.781286
C354	C	-0.287844	0.112797	-0.531286
C355	C	-0.037844	0.362797	-0.281286
C356	C	0.212156	0.612797	-0.031286
C357	C	-0.537842	-0.137202	-0.702039
C358	C	-0.287842	0.112798	-0.452039
C359	C	-0.037842	0.362798	-0.202039
C360	C	0.212158	0.612798	0.047961
C361	C	-0.570816	-0.089397	-0.662424
C362	C	-0.320816	0.160603	-0.412424
C363	C	-0.070816	0.410603	-0.162424
C364	C	0.179184	0.660603	0.087576
N365	N	-0.570819	-0.089395	0.179086
N366	N	-0.320819	0.160605	0.429086
N367	N	-0.070819	0.410605	0.679086
N368	N	0.179181	0.660605	0.929086
H369	H	-0.413385	-0.210095	-0.000031
H370	H	-0.163385	0.039905	0.249969
H371	H	0.086615	0.289905	0.499969
H372	H	0.336615	0.539905	0.749969
Cl373	Cl	-0.673340	0.126301	-0.000116
Cl374	Cl	-0.423340	0.376301	0.249884
Cl375	Cl	-0.173340	0.626301	0.499884
Cl376	Cl	0.076660	0.876301	0.749884
Cl377	Cl	-0.667130	0.734637	-0.000065
Cl378	Cl	-0.417130	0.984637	0.249935
Cl379	Cl	-0.167130	1.234637	0.499935
Cl380	Cl	0.082870	1.484637	0.749935
H381	H	-0.321929	-0.208759	-0.000053
H382	H	-0.071929	0.041241	0.249947
H383	H	0.178071	0.291241	0.499947
H384	H	0.428071	0.541241	0.749947
H385	H	-0.487936	0.682690	-0.000030
H386	H	-0.237936	0.932690	0.249970
H387	H	0.012064	1.182690	0.499970
H388	H	0.262064	1.432690	0.749970
Cl389	Cl	-0.469938	0.530561	-0.000039
Cl390	Cl	-0.219938	0.780561	0.249961
Cl391	Cl	0.030062	1.030561	0.499961
Cl392	Cl	0.280062	1.280561	0.749961
Cl393	Cl	-0.496399	-0.197298	-0.831092
Cl394	Cl	-0.246399	0.052702	-0.581092
Cl395	Cl	0.003601	0.302702	-0.331092
Cl396	Cl	0.253601	0.552702	-0.081092
H397	H	-0.652316	0.270631	-0.000106
H398	H	-0.402316	0.520631	0.249894
H399	H	-0.152316	0.770631	0.499894
H400	H	0.097684	1.020631	0.749894
H401	H	-0.493813	0.106598	-0.000072
H402	H	-0.243813	0.356598	0.249928
H403	H	0.006187	0.606598	0.499928
H404	H	0.256187	0.856598	0.749928
Cl405	Cl	0.166557	0.058004	-0.000122
Cl406	Cl	0.416557	0.308004	0.249878
Cl407	Cl	0.666557	0.558004	0.499878
Cl408	Cl	0.916557	0.808004	0.749878
H409	H	-0.510961	-0.176112	-0.186594
H410	H	-0.260961	0.073888	0.063406
H411	H	-0.010961	0.323888	0.313406
H412	H	0.239039	0.573888	0.563406
Cl413	Cl	-0.645207	0.018513	-0.169062
Cl414	Cl	-0.395207	0.268513	0.080938
Cl415	Cl	-0.145207	0.518513	0.330938
Cl416	Cl	0.104793	0.768513	0.580938
H417	H	-0.208740	0.088006	-0.000135
H418	H	0.041260	0.338006	0.249865
H419	H	0.291260	0.588006	0.499865
H420	H	0.541260	0.838006	0.749865
Cl421	Cl	-0.668809	0.570282	-0.000102
Cl422	Cl	-0.418809	0.820282	0.249898
Cl423	Cl	-0.168809	1.070282	0.499898
Cl424	Cl	0.081191	1.320282	0.749898
Cl425	Cl	-0.645237	0.018510	-0.831110
Cl426	Cl	-0.395237	0.268510	-0.581110
Cl427	Cl	-0.145237	0.518510	-0.331110
Cl428	Cl	0.104763	0.768510	-0.081110
H429	H	-0.630633	-0.002665	-0.669792
H430	H	-0.380633	0.247335	-0.419792
H431	H	-0.130633	0.497335	-0.169792
H432	H	0.119367	0.747335	0.080208
Cl433	Cl	0.280337	0.059671	-0.000105
Cl434	Cl	0.530337	0.309671	0.249895
Cl435	Cl	0.780337	0.559671	0.499895
Cl436	Cl	1.030337	0.809671	0.749895
Cl437	Cl	-0.472793	0.250933	-0.000060
Cl438	Cl	-0.222793	0.500933	0.249940
Cl439	Cl	0.027207	0.750933	0.499940
Cl440	Cl	0.277207	1.000933	0.749940
H441	H	-0.630612	-0.002658	-0.330376
H442	H	-0.380612	0.247342	-0.080376
H443	H	-0.130612	0.497342	0.169624
H444	H	0.119388	0.747342	0.419624
Cl445	Cl	-0.184130	-0.298729	-0.000042
Cl446	Cl	0.065870	-0.048729	0.249958
Cl447	Cl	0.315870	0.201271	0.499958
Cl448	Cl	0.565870	0.451271	0.749958
H449	H	-0.510995	-0.176126	-0.669777
H450	H	-0.260995	0.073874	-0.419777
H451	H	-0.010995	0.323874	-0.169777
H452	H	0.239005	0.573874	0.080223
Cl453	Cl	-0.070354	-0.297060	-0.000049
Cl454	Cl	0.179646	-0.047060	0.249951
Cl455	Cl	0.429646	0.202940	0.499951
Cl456	Cl	0.679646	0.452940	0.749951
Cl457	Cl	-0.496373	-0.197289	-0.347910
Cl458	Cl	-0.246373	0.052711	-0.097910
Cl459	Cl	0.003627	0.302711	0.152090
Cl460	Cl	0.253627	0.552711	0.402090
Cl461	Cl	-0.108733	0.117719	-0.000128
Cl462	Cl	0.141267	0.367719	0.249872
Cl463	Cl	0.391267	0.617719	0.499872
Cl464	Cl	0.641267	0.867719	0.749872
H465	H	0.201697	-0.201072	-0.000071
H466	H	0.451697	0.048928	0.249929
H467	H	0.701697	0.298928	0.499929
H468	H	0.951697	0.548928	0.749929
H469	H	-0.343292	0.022281	-0.000074
H470	H	-0.093292	0.272281	0.249926
H471	H	0.156708	0.522281	0.499926
H472	H	0.406708	0.772281	0.749926
Cl473	Cl	0.042522	0.119928	-0.000132
Cl474	Cl	0.292522	0.369928	0.249868
Cl475	Cl	0.542522	0.619928	0.499868
Cl476	Cl	0.792522	0.869928	0.749868
Cl477	Cl	-0.448537	0.048967	-0.000082
Cl478	Cl	-0.198537	0.298967	0.249918
Cl479	Cl	0.051463	0.548967	0.499918
Cl480	Cl	0.301463	0.798967	0.749918
H481	H	0.293166	-0.199722	-0.000077
H482	H	0.543166	0.050278	0.249923
H483	H	0.793166	0.300278	0.499923
H484	H	1.043166	0.550278	0.749923
H485	H	0.067131	-0.266794	-0.000070
H486	H	0.317131	-0.016794	0.249930
H487	H	0.567131	0.233206	0.499930
H488	H	0.817131	0.483206	0.749930
Cl489	Cl	-0.032887	-0.296509	-0.000055
Cl490	Cl	0.217113	-0.046509	0.249945
Cl491	Cl	0.467113	0.203491	0.499945
Cl492	Cl	0.717113	0.453491	0.749945
H493	H	-0.057484	0.090220	-0.000126
H494	H	0.192516	0.340220	0.249874
H495	H	0.442516	0.590220	0.499874
H496	H	0.692516	0.840220	0.749874
