data_functionalizedCrystal
_audit_creation_method	'MofGen! by Chris Wilmer'
_symmetry_space_group_name_H-M	'P1'
_symmetry_Int_Tables_number	1
_symmetry_cell_setting	triclinic
loop_
_symmetry_equiv_pos_as_xyz
  x,y,z
_cell_length_a	23.532407
_cell_length_b	23.532407
_cell_length_c	22.010155
_cell_angle_alpha	89.999577
_cell_angle_beta	89.996931
_cell_angle_gamma	82.848678
loop_
_atom_site_label
_atom_site_type_symbol
_atom_site_fract_x
_atom_site_fract_y
_atom_site_fract_z
O1	O	0.755264	0.069127	-0.050455
O2	O	1.255264	0.569127	0.449545
O3	O	0.589400	0.079130	-0.050474
O4	O	1.089400	0.579130	0.449526
O5	O	0.677334	-0.008803	-0.050453
O6	O	1.177334	0.491197	0.449547
O7	O	0.667330	0.157060	-0.050476
O8	O	1.167330	0.657060	0.449524
O9	O	0.677318	-0.008790	0.050597
O10	O	1.177318	0.491210	0.550597
O11	O	0.589384	0.079143	0.050576
O12	O	1.089384	0.579143	0.550576
O13	O	0.755248	0.069140	0.050595
O14	O	1.255248	0.569140	0.550595
Cu15	Cu	0.672315	0.074143	0.059812
Cu16	Cu	1.172315	0.574143	0.559812
Cu17	Cu	0.672333	0.074127	-0.059691
Cu18	Cu	1.172333	0.574127	0.440309
O19	O	0.667314	0.157073	0.050574
O20	O	1.167314	0.657073	0.550574
C21	C	0.568176	0.078882	0.000049
C22	C	1.068176	0.578882	0.500049
C23	C	0.504959	0.078116	0.000042
C24	C	1.004959	0.578116	0.500042
C25	C	0.105856	0.125350	0.000063
C26	C	0.605856	0.625350	0.500063
C27	C	0.046456	0.124638	0.000067
C28	C	0.546456	0.624638	0.500067
O29	O	0.009711	0.168424	0.000083
O30	O	0.509711	0.668424	0.500083
N31	N	0.023830	0.072362	0.000073
N32	N	0.523830	0.572362	0.500073
C33	C	0.060607	0.020794	0.000082
C34	C	0.560607	0.520794	0.500082
O35	O	0.035908	-0.023737	0.000088
O36	O	0.535908	0.476263	0.500088
C37	C	0.120006	0.021506	0.000082
C38	C	0.620006	0.521506	0.500082
C39	C	0.142629	0.073785	0.000070
C40	C	0.642629	0.573785	0.500070
C41	C	0.128479	0.177625	0.000051
C42	C	0.628479	0.677625	0.500051
C43	C	0.187876	0.178336	0.000046
C44	C	0.687876	0.678336	0.500046
C45	C	0.224649	0.126772	0.000053
C46	C	0.724649	0.626772	0.500053
C47	C	0.202025	0.074497	0.000065
C48	C	0.702025	0.574497	0.500065
C49	C	0.156783	-0.030062	0.000096
C50	C	0.656783	0.469938	0.500096
C51	C	0.216185	-0.029345	0.000097
C52	C	0.716185	0.470655	0.500097
C53	C	0.238808	0.022934	0.000084
C54	C	0.738808	0.522934	0.500084
C55	C	0.298194	0.023643	0.000067
C56	C	0.798194	0.523643	0.500067
N57	N	0.320820	0.075920	0.000061
N58	N	0.820820	0.575920	0.500061
C59	C	0.284048	0.127484	0.000054
C60	C	0.784048	0.627484	0.500054
C61	C	-0.064135	0.019302	0.000082
C62	C	0.435865	0.519302	0.500082
C63	C	-0.123533	0.018589	0.000077
C64	C	0.376467	0.518589	0.500077
C65	C	-0.137680	0.122434	0.000063
C66	C	0.362320	0.622434	0.500063
C67	C	-0.078281	0.123146	0.000064
C68	C	0.421719	0.623146	0.500064
C69	C	-0.041509	0.071578	0.000076
C70	C	0.458491	0.571578	0.500076
C71	C	0.408784	0.128974	0.000043
C72	C	0.908784	0.628974	0.500043
C73	C	0.468186	0.129680	0.000035
C74	C	0.968186	0.629680	0.500035
C75	C	0.482329	0.025836	0.000052
C76	C	0.982329	0.525836	0.500052
C77	C	0.422932	0.025129	0.000057
C78	C	0.922932	0.525129	0.500057
C79	C	0.386160	0.076702	0.000054
C80	C	0.886160	0.576702	0.500054
O81	O	0.334974	-0.020119	0.000054
O82	O	0.834974	0.479881	0.500054
O83	O	0.308755	0.172007	0.000055
O84	O	0.808755	0.672007	0.500055
C85	C	0.677071	-0.030013	0.000074
C86	C	1.177071	0.469987	0.500074
C87	C	0.676305	-0.093230	0.000078
C88	C	1.176305	0.406770	0.500078
C89	C	0.723539	-0.492333	0.000050
C90	C	1.223539	0.007667	0.500050
C91	C	0.722827	-0.551733	0.000046
C92	C	1.222827	-0.051733	0.500046
O93	O	0.766613	-0.588478	0.000028
O94	O	1.266613	-0.088478	0.500028
N95	N	0.670551	-0.574359	0.000040
N96	N	1.170551	-0.074359	0.500040
C97	C	0.618983	-0.537582	0.000033
C98	C	1.118983	-0.037582	0.500033
O99	O	0.574452	-0.562281	0.000027
O100	O	1.074452	-0.062281	0.500027
C101	C	0.619695	-0.478182	0.000033
C102	C	1.119695	0.021818	0.500033
C103	C	0.671974	-0.455560	0.000045
C104	C	1.171974	0.044440	0.500045
C105	C	0.775814	-0.469710	0.000061
C106	C	1.275814	0.030290	0.500061
C107	C	0.776525	-0.410313	0.000067
C108	C	1.276525	0.089687	0.500067
C109	C	0.724961	-0.373540	0.000062
C110	C	1.224961	0.126460	0.500062
C111	C	0.672685	-0.396164	0.000051
C112	C	1.172685	0.103836	0.500051
C113	C	0.568127	-0.441406	0.000022
C114	C	1.068127	0.058594	0.500022
C115	C	0.568844	-0.382004	0.000022
C116	C	1.068844	0.117996	0.500022
C117	C	0.621123	-0.359381	0.000034
C118	C	1.121123	0.140619	0.500034
C119	C	0.621832	-0.299995	0.000052
C120	C	1.121832	0.200005	0.500052
N121	N	0.674109	-0.277368	0.000057
N122	N	1.174109	0.222632	0.500057
C123	C	0.725673	-0.314141	0.000062
C124	C	1.225673	0.185859	0.500062
C125	C	0.617491	-0.662324	0.000031
C126	C	1.117491	-0.162324	0.500031
C127	C	0.616778	-0.721722	0.000035
C128	C	1.116778	-0.221722	0.500035
C129	C	0.720623	-0.735869	0.000047
C130	C	1.220623	-0.235869	0.500047
C131	C	0.721335	-0.676470	0.000047
C132	C	1.221335	-0.176470	0.500047
C133	C	0.669767	-0.639698	0.000037
C134	C	1.169767	-0.139698	0.500037
C135	C	0.727163	-0.189405	0.000075
C136	C	1.227163	0.310595	0.500075
C137	C	0.727869	-0.130003	0.000083
C138	C	1.227869	0.369997	0.500083
C139	C	0.624025	-0.115860	0.000069
C140	C	1.124025	0.384140	0.500069
C141	C	0.623318	-0.175257	0.000064
C142	C	1.123318	0.324743	0.500064
C143	C	0.674891	-0.212029	0.000065
C144	C	1.174891	0.287971	0.500065
O145	O	0.578070	-0.263215	0.000067
O146	O	1.078070	0.236785	0.500067
O147	O	0.770196	-0.289433	0.000060
O148	O	1.270196	0.210567	0.500060
C149	C	0.776472	0.069388	0.000071
C150	C	1.276472	0.569388	0.500071
C151	C	0.839689	0.070154	0.000073
C152	C	1.339689	0.570154	0.500073
C153	C	0.667577	0.178283	0.000046
C154	C	1.167577	0.678283	0.500046
C155	C	0.668343	0.241500	0.000037
C156	C	1.168343	0.741500	0.500037
N157	N	0.672305	0.074153	0.143865
N158	N	1.172305	0.574153	0.643865
N159	N	0.672347	0.074112	-0.143744
N160	N	1.172347	0.574112	0.356256
C161	C	0.711273	0.035196	0.563653
C162	C	1.211273	0.535196	1.063653
C163	C	0.711275	0.035192	0.627261
C164	C	1.211275	0.535192	1.127261
O165	O	0.744384	0.002076	0.660160
O166	O	1.244384	0.502076	1.160160
N167	N	0.672333	0.074115	0.659072
N168	N	1.172333	0.574115	1.159072
C169	C	0.633382	0.113041	0.627272
C170	C	1.133382	0.613041	1.127272
O171	O	0.600259	0.146148	0.660170
O172	O	1.100259	0.646148	1.160170
C173	C	0.633377	0.113042	0.563665
C174	C	1.133377	0.613042	1.063665
C175	C	0.672326	0.074120	0.531858
C176	C	1.172326	0.574120	1.031858
C177	C	0.750217	-0.003723	0.531846
C178	C	1.250217	0.496277	1.031846
C179	C	0.750215	-0.003719	0.468243
C180	C	1.250215	0.496281	0.968243
C181	C	0.711268	0.035205	0.436447
C182	C	1.211268	0.535205	0.936447
C183	C	0.672324	0.074125	0.468255
C184	C	1.172324	0.574125	0.968255
C185	C	0.594424	0.151965	0.531866
C186	C	1.094424	0.651965	1.031866
C187	C	0.594422	0.151962	0.468256
C188	C	1.094422	0.651962	0.968256
C189	C	0.633370	0.113040	0.436448
C190	C	1.133370	0.613040	0.936448
C191	C	0.633374	0.113054	0.372856
C192	C	1.133374	0.613054	0.872856
N193	N	0.672317	0.074130	0.341045
N194	N	1.172317	0.574130	0.841045
C195	C	0.711263	0.035206	0.372841
C196	C	1.211263	0.535206	0.872841
C197	C	0.633395	0.113036	0.760850
C198	C	1.133395	0.613036	1.260850
C199	C	0.633402	0.113039	0.824455
C200	C	1.133402	0.613039	1.324455
C201	C	0.711294	0.035188	0.824440
C202	C	1.211294	0.535188	1.324440
C203	C	0.711290	0.035189	0.760833
C204	C	1.211290	0.535189	1.260833
C205	C	0.672337	0.074113	0.729039
C206	C	1.172337	0.574113	1.229039
C207	C	0.711256	0.035220	0.239269
C208	C	1.211256	0.535220	0.739269
C209	C	0.711252	0.035229	0.175660
C210	C	1.211252	0.535229	0.675660
C211	C	0.633358	0.113077	0.175681
C212	C	1.133358	0.613077	0.675681
C213	C	0.633364	0.113070	0.239284
C214	C	1.133364	0.613070	0.739284
C215	C	0.672315	0.074136	0.271077
C216	C	1.172315	0.574136	0.771077
O217	O	0.600282	0.146151	0.339916
O218	O	1.100282	0.646151	0.839916
O219	O	0.744376	0.002100	0.339935
O220	O	1.244376	0.502100	0.839935
H221	H	0.512280	-0.016146	0.000056
H222	H	1.012280	0.483854	0.500056
H223	H	-0.167632	0.164421	0.000060
H224	H	0.332368	0.664421	0.500060
C225	C	0.555795	0.125814	0.310826
C226	C	1.055795	0.625814	0.810826
C227	C	0.590557	0.155854	0.274256
C228	C	1.090557	0.655854	0.774256
H229	H	0.529368	0.152225	0.332415
H230	H	1.029368	0.652225	0.832415
H231	H	0.535447	0.102220	0.286008
H232	H	1.035447	0.602220	0.786008
H233	H	0.578996	0.102630	0.338862
H234	H	1.078996	0.602630	0.838862
H235	H	0.567355	0.179034	0.246216
H236	H	1.067355	0.679034	0.746216
H237	H	0.610906	0.179457	0.299076
H238	H	1.110906	0.679457	0.799076
C239	C	-0.182121	-0.042454	0.052029
C240	C	0.317879	0.457546	0.552029
C241	C	-0.148398	-0.038877	0.000082
C242	C	0.351602	0.461123	0.500082
H243	H	-0.197472	-0.077931	0.052031
H244	H	0.302528	0.422069	0.552031
H245	H	-0.159243	-0.040015	0.087259
H246	H	0.340757	0.459985	0.587259
H247	H	-0.212524	-0.011846	0.052020
H248	H	0.287476	0.488154	0.552020
H249	H	-0.117992	-0.069483	0.000093
H250	H	0.382008	0.430517	0.500093
H251	H	-0.171277	-0.041321	-0.035158
H252	H	0.328723	0.458679	0.464842
H253	H	0.138375	-0.072634	0.000106
H254	H	0.638375	0.427366	0.500106
H255	H	0.781929	-0.035414	0.442349
H256	H	1.281929	0.464586	0.942349
H257	H	0.246123	-0.071339	0.000107
H258	H	0.746123	0.428661	0.500107
C259	C	-0.019697	0.184191	-0.051896
C260	C	0.480303	0.684191	0.448104
C261	C	-0.053420	0.180614	0.000051
C262	C	0.446580	0.680614	0.500051
H263	H	-0.004355	0.219673	-0.051904
H264	H	0.495645	0.719673	0.448096
H265	H	0.010707	0.153592	-0.051884
H266	H	0.510707	0.653592	0.448116
H267	H	-0.042577	0.181744	-0.087130
H268	H	0.457423	0.681744	0.412870
H269	H	-0.030538	0.183057	0.035286
H270	H	0.469462	0.683057	0.535286
H271	H	-0.083828	0.211222	0.000045
H272	H	0.416172	0.711222	0.500045
C273	C	0.535719	-0.085499	0.051998
C274	C	1.035719	0.414501	0.551998
C275	C	0.567347	-0.075433	0.000060
C276	C	1.067347	0.424567	0.500060
H277	H	0.500730	-0.060536	0.051989
H278	H	1.000730	0.439464	0.551989
H279	H	0.527811	-0.124106	0.051991
H280	H	1.027811	0.375894	0.551991
H281	H	0.557166	-0.078670	0.087238
H282	H	1.057166	0.421330	0.587238
H283	H	0.545901	-0.082265	-0.035181
H284	H	1.045901	0.417735	0.464819
H285	H	0.575254	-0.036816	0.000061
H286	H	1.075254	0.463184	0.500061
H287	H	0.575496	-0.632386	0.000028
H288	H	1.075496	-0.132386	0.500028
H289	H	0.404512	-0.017441	0.000058
H290	H	0.904512	0.482559	0.500058
H291	H	0.378851	0.170970	0.000042
H292	H	0.878851	0.670970	0.500042
C293	C	0.827214	-0.080665	0.525425
C294	C	1.327214	0.419335	1.025425
C295	C	0.793036	-0.046511	0.566788
C296	C	1.293036	0.453489	1.066788
H297	H	0.853654	-0.107076	0.546995
H298	H	1.353654	0.392924	1.046995
H299	H	0.803621	-0.101030	0.500624
H300	H	1.303621	0.398970	1.000624
H301	H	0.847551	-0.057049	0.500610
H302	H	1.347551	0.442951	1.000610
H303	H	0.772695	-0.070126	0.591601
H304	H	1.272695	0.429874	1.091601
H305	H	0.816632	-0.026144	0.591600
H306	H	1.316632	0.473856	1.091600
H307	H	0.770443	-0.111587	0.000094
H308	H	1.270443	0.388413	0.500094
H309	H	0.769159	-0.219337	0.000073
H310	H	1.269159	0.280663	0.500073
H311	H	0.601676	0.144737	0.734966
H312	H	1.101676	0.644737	1.234966
H313	H	-0.034198	-0.022693	0.000086
H314	H	0.465802	0.477307	0.500086
C315	C	0.517423	0.228903	0.525465
C316	C	1.017423	0.728903	1.025465
C317	C	0.551607	0.194748	0.566818
C318	C	1.051607	0.694748	1.066818
H319	H	0.490986	0.255314	0.547043
H320	H	0.990986	0.755314	1.047043
H321	H	0.541011	0.249270	0.500657
H322	H	1.041011	0.749270	1.000657
H323	H	0.497081	0.205288	0.500656
H324	H	0.997081	0.705288	1.000656
H325	H	0.571952	0.218362	0.591624
H326	H	1.071952	0.718362	1.091624
H327	H	0.528016	0.174380	0.591636
H328	H	1.028016	0.674380	1.091636
H329	H	0.819097	-0.391900	0.000074
H330	H	1.319097	0.108100	0.500074
H331	H	0.817806	-0.499645	0.000063
H332	H	1.317806	0.000355	0.500063
H333	H	0.743004	0.003495	0.734939
H334	H	1.243004	0.503495	1.234939
H335	H	0.206289	0.220908	0.000036
H336	H	0.706289	0.720908	0.500036
H337	H	0.743006	0.003493	0.850339
H338	H	1.243006	0.503493	1.350339
H339	H	0.763906	-0.658056	0.000056
H340	H	1.263906	-0.158056	0.500056
H341	H	0.762610	-0.765821	0.000048
H342	H	1.262610	-0.265821	0.500048
C343	C	0.562258	-0.233851	0.051998
C344	C	1.062258	0.266149	0.551998
C345	C	0.565851	-0.200125	0.000057
C346	C	1.065851	0.299875	0.500057
H347	H	0.526777	-0.249196	0.051990
H348	H	1.026777	0.250804	0.551990
H349	H	0.592859	-0.264253	0.051992
H350	H	1.092859	0.235747	0.551992
H351	H	0.564690	-0.210972	0.087236
H352	H	1.064690	0.289028	0.587236
H353	H	0.563422	-0.223005	-0.035182
H354	H	1.063422	0.276995	0.464818
H355	H	0.535241	-0.169718	0.000057
H356	H	1.035241	0.330282	0.500057
H357	H	0.601692	0.144738	0.850348
H358	H	1.101692	0.644738	1.350348
C359	C	0.581608	0.229541	0.396732
C360	C	1.081608	0.729541	0.896732
C361	C	0.551605	0.194750	0.433306
C362	C	1.051605	0.694750	0.933306
H363	H	0.555175	0.255954	0.375155
H364	H	1.055175	0.755954	0.875155
H365	H	0.605192	0.249905	0.421545
H366	H	1.105192	0.749905	0.921545
H367	H	0.604799	0.206357	0.368685
H368	H	1.104799	0.706357	0.868685
H369	H	0.528417	0.217934	0.461356
H370	H	1.028417	0.717934	0.961356
H371	H	0.528012	0.174385	0.408491
H372	H	1.028012	0.674385	0.908491
C373	C	0.514206	-0.701757	0.000023
C374	C	1.014206	-0.201757	0.500023
C375	C	0.559311	-0.746585	0.000028
C376	C	1.059311	-0.246585	0.500028
H377	H	0.478727	-0.717106	0.000012
H378	H	0.978727	-0.217106	0.500012
H379	H	0.516640	-0.678888	0.035262
H380	H	1.016640	-0.178888	0.535262
H381	H	0.516657	-0.678881	-0.035215
H382	H	1.016657	-0.178881	0.464785
H383	H	0.556862	-0.769458	0.035268
H384	H	1.056862	-0.269458	0.535268
H385	H	0.556876	-0.769463	-0.035215
H386	H	1.056876	-0.269463	0.464785
H387	H	0.525555	-0.459814	0.000009
H388	H	1.025555	0.040186	0.500009
C389	C	0.466125	-0.373990	0.000004
C390	C	0.966125	0.126010	0.500004
C391	C	0.512157	-0.341584	0.000013
C392	C	1.012157	0.158416	0.500013
H393	H	0.431130	-0.349037	0.000003
H394	H	0.931130	0.150963	0.500003
H395	H	0.468016	-0.397449	-0.035234
H396	H	0.968016	0.102551	0.464766
H397	H	0.468005	-0.397456	0.035244
H398	H	0.968005	0.102544	0.535244
H399	H	0.510278	-0.318121	-0.035229
H400	H	1.010278	0.181879	0.464771
H401	H	0.510264	-0.318115	0.035255
H402	H	1.010264	0.181885	0.535255
C403	C	0.474399	0.218410	-0.051926
C404	C	0.974399	0.718410	0.448074
C405	C	0.493048	0.187152	0.000023
C406	C	0.993048	0.687152	0.500023
H407	H	0.489743	0.253891	-0.051930
H408	H	0.989743	0.753891	0.448070
H409	H	0.487047	0.197190	-0.087155
H410	H	0.987047	0.697190	0.412845
H411	H	0.433760	0.225355	-0.051917
H412	H	0.933760	0.725355	0.448083
H413	H	0.533687	0.180203	0.000011
H414	H	1.033687	0.680203	0.500011
H415	H	0.480404	0.208377	0.035261
H416	H	0.980404	0.708377	0.535261
C417	C	0.788246	-0.041727	0.182044
C418	C	1.288246	0.458273	0.682044
C419	C	0.754065	-0.007560	0.140699
C420	C	1.254065	0.492440	0.640699
H421	H	0.814672	-0.068144	0.160461
H422	H	1.314672	0.431856	0.660461
H423	H	0.808595	-0.018125	0.206851
H424	H	1.308595	0.481875	0.706851
H425	H	0.764650	-0.062091	0.206855
H426	H	1.264650	0.437909	0.706855
H427	H	0.777660	0.012808	0.115890
H428	H	1.277660	0.512808	0.615890
H429	H	0.733714	-0.031165	0.115882
H430	H	1.233714	0.468835	0.615882
H431	H	0.742973	0.003516	0.265148
H432	H	1.242973	0.503516	0.765148
H433	H	0.601650	0.144771	0.149783
H434	H	1.101650	0.644771	0.649783
C435	C	0.120478	0.280338	0.000026
C436	C	0.620478	0.780338	0.500026
C437	C	0.088064	0.234311	0.000038
C438	C	0.588064	0.734311	0.500038
H439	H	0.095529	0.315336	0.000011
H440	H	0.595529	0.815336	0.500011
H441	H	0.143933	0.278460	0.035265
H442	H	0.643933	0.778460	0.535265
H443	H	0.143948	0.278438	-0.035212
H444	H	0.643948	0.778438	0.464788
H445	H	0.064598	0.236210	0.035279
H446	H	0.564598	0.736210	0.535279
H447	H	0.064599	0.236191	-0.035204
H448	H	0.564599	0.736191	0.464796
