data_functionalizedCrystal
_audit_creation_method	'MofGen! by Chris Wilmer'
_symmetry_space_group_name_H-M	'P1'
_symmetry_Int_Tables_number	1
_symmetry_cell_setting	triclinic
loop_
_symmetry_equiv_pos_as_xyz
  x,y,z
_cell_length_a	12.759401
_cell_length_b	19.076808
_cell_length_c	12.759393
_cell_angle_alpha	92.335254
_cell_angle_beta	90.018567
_cell_angle_gamma	92.322593
loop_
_atom_site_label
_atom_site_type_symbol
_atom_site_fract_x
_atom_site_fract_y
_atom_site_fract_z
Zn1	Zn	1.589373	-0.280194	0.577139
Zn2	Zn	1.582174	-0.397917	0.394381
Zn3	Zn	1.413673	-0.280229	0.401476
Zn4	Zn	1.406574	-0.397861	0.570026
O5	O	1.497949	-0.339050	0.485755
O6	O	1.735439	-0.295820	0.552903
O7	O	1.559780	-0.382344	0.248299
O8	O	1.442964	-0.181727	0.430723
O9	O	1.730150	-0.382310	0.418632
O10	O	1.572050	-0.181702	0.559782
O11	O	1.435983	-0.295879	0.253511
O12	O	1.265711	-0.295824	0.423827
O13	O	1.430864	-0.382214	0.717993
O14	O	1.260495	-0.382248	0.547660
O15	O	1.565166	-0.295765	0.723218
O16	O	1.552897	-0.496407	0.411735
O17	O	1.423884	-0.496365	0.540781
C18	C	1.224982	-0.339034	0.485742
C19	C	1.108205	-0.339044	0.485760
C20	C	1.056085	-0.294093	0.555774
C21	C	0.946360	-0.294107	0.555780
C22	C	0.940885	-0.384027	0.415754
C23	C	1.050608	-0.384010	0.415744
C24	C	1.059245	-0.242180	0.636619
C25	C	0.949520	-0.242194	0.636625
C26	C	1.486868	-0.521925	0.474739
C27	C	1.482223	-0.600160	0.470062
C28	C	1.547199	-0.636841	0.535113
C29	C	1.542831	-0.710351	0.530719
C30	C	1.473491	-0.747178	0.461269
C31	C	1.408508	-0.710492	0.396216
C32	C	1.412872	-0.636983	0.400615
C33	C	1.453235	-0.967032	0.440906
C34	C	1.448878	-1.040546	0.436509
C35	C	1.583200	-1.040400	0.571015
C36	C	1.587562	-0.966890	0.575403
C37	C	1.522575	-0.930210	0.510354
N38	N	1.469027	-0.822317	0.456775
N39	N	1.527035	-0.855073	0.514854
C40	C	1.771981	-0.339067	0.485770
C41	C	1.888757	-0.339075	0.485776
C42	C	1.498026	-0.338979	0.759793
C43	C	1.498060	-0.338949	0.876572
C44	C	1.509101	-0.155462	0.496837
C45	C	1.513854	-0.077227	0.501560
C46	C	1.497935	-0.339070	0.212787
C47	C	1.498117	-0.338902	0.096021
C48	C	1.568000	-0.293931	0.934157
C49	C	1.568026	-0.293905	1.043882
C50	C	1.428169	-0.383923	1.038428
C51	C	1.428138	-0.383944	0.928705
C52	C	1.648749	-0.241962	0.937306
C53	C	1.648775	-0.241937	1.047032
H54	H	0.893976	-0.420637	0.358750
H55	H	1.400322	-0.937173	0.387938
H56	H	1.595749	-0.740213	0.583683
C57	C	1.351258	-0.433413	1.095785
N58	N	1.293327	-0.470691	1.138985
H59	H	1.622782	-0.190143	1.084194
H60	H	1.093040	-0.420606	0.358723
C61	C	1.103902	-0.168507	0.611791
N62	N	1.137538	-0.113017	0.593088
C63	C	1.663860	-0.926385	0.651785
N64	N	1.721339	-0.895877	0.709307
H65	H	1.352046	-0.740482	0.339672
H66	H	1.092130	-0.261764	0.712680
C67	C	1.351183	-0.433457	0.865365
N68	N	1.293215	-0.470751	0.817659
C69	C	1.654674	-1.080753	0.642571
N70	N	1.708507	-1.111148	0.696475
C71	C	1.341394	-0.596635	0.329053
N72	N	1.287552	-0.566245	0.275152
C73	C	1.623769	-0.168324	0.901529
N74	N	1.604952	-0.112862	0.874582
C75	C	1.372592	-1.081054	0.360109
N76	N	1.315136	-1.111566	0.302568
C77	C	1.757509	-0.261669	1.086080
N78	N	1.839403	-0.276533	1.115490
H79	H	1.724843	-0.261505	0.902096
H80	H	1.603667	-0.606861	0.591662
H81	H	0.918600	-0.190388	0.610740
H82	H	0.918891	-0.256862	0.717079
