data_functionalizedCrystal
_audit_creation_method	'MofGen! by Chris Wilmer'
_symmetry_space_group_name_H-M	'P1'
_symmetry_Int_Tables_number	1
_symmetry_cell_setting	triclinic
loop_
_symmetry_equiv_pos_as_xyz
  x,y,z
_cell_length_a	25.639242
_cell_length_b	25.639240
_cell_length_c	17.077404
_cell_angle_alpha	90.020723
_cell_angle_beta	90.017180
_cell_angle_gamma	90.028283
loop_
_atom_site_label
_atom_site_type_symbol
_atom_site_fract_x
_atom_site_fract_y
_atom_site_fract_z
Zn1	Zn	0.799221	-0.208304	0.443975
Zn2	Zn	1.299221	0.291696	0.943975
Zn3	Zn	0.799161	-0.295714	0.312686
Zn4	Zn	1.299161	0.204286	0.812686
Zn5	Zn	0.711805	-0.208288	0.312702
Zn6	Zn	1.211805	0.291712	0.812702
Zn7	Zn	0.711751	-0.295703	0.443890
Zn8	Zn	1.211751	0.204297	0.943890
O9	O	0.755484	-0.252002	0.378313
O10	O	1.255484	0.247998	0.878313
O11	O	0.872378	-0.219910	0.426588
O12	O	1.372378	0.280090	0.926588
O13	O	0.787570	-0.284115	0.202842
O14	O	1.287570	0.215885	0.702842
O15	O	0.723448	-0.135125	0.330158
O16	O	1.223448	0.364875	0.830158
O17	O	0.872334	-0.284131	0.330131
O18	O	1.372334	0.215869	0.830131
O19	O	0.787672	-0.135136	0.426603
O20	O	1.287672	0.364864	0.926603
O21	O	0.723390	-0.219884	0.202853
O22	O	1.223390	0.280116	0.702853
O23	O	0.638632	-0.219873	0.330076
O24	O	1.138632	0.280127	0.830076
O25	O	0.723357	-0.284111	0.553748
O26	O	1.223357	0.215889	1.053748
O27	O	0.638593	-0.284096	0.426458
O28	O	1.138593	0.215904	0.926458
O29	O	0.787621	-0.219899	0.553810
O30	O	1.287621	0.280101	1.053810
O31	O	0.787518	-0.368878	0.330048
O32	O	1.287518	0.131122	0.830048
O33	O	0.723299	-0.368870	0.426443
O34	O	1.223299	0.131130	0.926443
C35	C	0.619642	-0.251982	0.378260
C36	C	1.119642	0.248018	0.878260
C37	C	0.561528	-0.251985	0.378256
C38	C	1.061528	0.248015	0.878256
C39	C	0.201153	-0.285499	0.428452
C40	C	0.701153	0.214501	0.928452
C41	C	0.146549	-0.285503	0.428464
C42	C	0.646549	0.214497	0.928464
O43	O	0.118302	-0.313972	0.471098
O44	O	0.618302	0.186028	0.971098
N45	N	0.119245	-0.252017	0.378364
N46	N	0.619245	0.247983	0.878364
C47	C	0.146549	-0.218522	0.328254
C48	C	0.646549	0.281478	0.828254
O49	O	0.118311	-0.190039	0.285642
O50	O	0.618311	0.309961	0.785642
C51	C	0.201152	-0.218516	0.328247
C52	C	0.701152	0.281484	0.828247
C53	C	0.228453	-0.252008	0.378344
C54	C	0.728453	0.247992	0.878344
C55	C	0.228454	-0.318988	0.478546
C56	C	0.728454	0.181012	0.978546
C57	C	0.283055	-0.318985	0.478533
C58	C	0.783055	0.181015	0.978533
C59	C	0.310354	-0.285494	0.428425
C60	C	0.810354	0.214506	0.928425
C61	C	0.283054	-0.252005	0.378331
C62	C	0.783054	0.247995	0.878331
C63	C	0.228455	-0.185019	0.278141
C64	C	0.728455	0.314981	0.778141
C65	C	0.283062	-0.185016	0.278138
C66	C	0.783062	0.314984	0.778138
C67	C	0.310363	-0.218508	0.328236
C68	C	0.810363	0.281492	0.828236
C69	C	0.364954	-0.218512	0.328209
C70	C	0.864954	0.281488	0.828209
N71	N	0.392257	-0.251997	0.378309
N72	N	0.892257	0.248003	0.878309
C73	C	0.364958	-0.285489	0.428417
C74	C	0.864958	0.214511	0.928417
C75	C	0.031878	-0.218535	0.328276
C76	C	0.531878	0.281465	0.828276
C77	C	-0.022724	-0.218543	0.328279
C78	C	0.477276	0.281457	0.828279
C79	C	-0.022720	-0.285523	0.428490
C80	C	0.477280	0.214477	0.928490
C81	C	0.031883	-0.285518	0.428482
C82	C	0.531883	0.214482	0.928482
C83	C	0.059182	-0.252021	0.378376
C84	C	0.559182	0.247979	0.878376
C85	C	0.479623	-0.285481	0.428384
C86	C	0.979623	0.214519	0.928384
C87	C	0.534228	-0.285477	0.428364
C88	C	1.034228	0.214523	0.928364
C89	C	0.534220	-0.218495	0.328156
C90	C	1.034220	0.281505	0.828156
C91	C	0.479619	-0.218501	0.328173
C92	C	0.979619	0.281499	0.828173
C93	C	0.452322	-0.251995	0.378293
C94	C	0.952322	0.248005	0.878293
O95	O	0.393235	-0.190056	0.285600
O96	O	0.893235	0.309944	0.785600
O97	O	0.393202	-0.313961	0.471029
O98	O	0.893202	0.186039	0.971029
C99	C	0.755411	-0.387845	0.378252
C100	C	1.255411	0.112155	0.878252
C101	C	0.755427	-0.445959	0.378252
C102	C	1.255427	0.054041	0.878252
C103	C	0.788943	-0.806289	0.428623
C104	C	1.288943	-0.306289	0.928623
C105	C	0.788958	-0.860894	0.428639
C106	C	1.288958	-0.360894	0.928639
O107	O	0.817366	-0.889103	0.471403
O108	O	1.317366	-0.389103	0.971403
N109	N	0.755557	-0.888241	0.378389
N110	N	1.255557	-0.388241	0.878389
C111	C	0.722135	-0.860982	0.328126
C112	C	1.222135	-0.360982	0.828126
O113	O	0.693726	-0.889257	0.285387
O114	O	1.193726	-0.389257	0.785387
C115	C	0.722117	-0.806379	0.328114
C116	C	1.222117	-0.306379	0.828114
C117	C	0.755524	-0.779034	0.378362
C118	C	1.255524	-0.279034	0.878362
C119	C	0.822346	-0.778945	0.478867
C120	C	1.322346	-0.278945	0.978867
C121	C	0.822332	-0.724344	0.478849
C122	C	1.322332	-0.224344	0.978849
C123	C	0.788913	-0.697088	0.428588
C124	C	1.288913	-0.197088	0.928588
C125	C	0.755509	-0.724433	0.378345
C126	C	1.255509	-0.224433	0.878345
C127	C	0.688692	-0.779120	0.277856
C128	C	1.188692	-0.279120	0.777856
C129	C	0.688677	-0.724513	0.277849
C130	C	1.188677	-0.224513	0.777849
C131	C	0.722084	-0.697168	0.328096
C132	C	1.222084	-0.197168	0.828096
C133	C	0.722076	-0.642577	0.328066
C134	C	1.222076	-0.142577	0.828066
N135	N	0.755477	-0.615229	0.378316
N136	N	1.255477	-0.115229	0.878316
C137	C	0.788895	-0.642485	0.428577
C138	C	1.288895	-0.142485	0.928577
C139	C	0.722174	-0.975652	0.328155
C140	C	1.222174	-0.475652	0.828155
C141	C	0.722194	-1.030255	0.328161
C142	C	1.222194	-0.530255	0.828161
C143	C	0.789016	-1.030163	0.428676
C144	C	1.289016	-0.530163	0.928676
C145	C	0.788999	-0.975560	0.428664
C146	C	1.288999	-0.475560	0.928664
C147	C	0.755575	-0.948305	0.378404
C148	C	1.255575	-0.448305	0.878404
C149	C	0.788862	-0.527820	0.428537
C150	C	1.288862	-0.027820	0.928537
C151	C	0.788846	-0.473215	0.428513
C152	C	1.288846	0.026785	0.928513
C153	C	0.722021	-0.473311	0.328002
C154	C	1.222021	0.026689	0.828002
C155	C	0.722039	-0.527912	0.328022
C156	C	1.222039	-0.027912	0.828022
C157	C	0.755461	-0.555165	0.378296
C158	C	1.255461	-0.055165	0.878296
O159	O	0.693680	-0.614333	0.285326
O160	O	1.193680	-0.114333	0.785326
O161	O	0.817295	-0.614203	0.471316
O162	O	1.317295	-0.114203	0.971316
C163	C	0.891857	-0.252023	0.378367
C164	C	1.391857	0.247977	0.878367
C165	C	0.949971	-0.252032	0.378390
C166	C	1.449971	0.247968	0.878390
C167	C	0.755489	-0.252006	0.583057
C168	C	1.255489	0.247994	1.083057
C169	C	0.755492	-0.252007	0.670307
C170	C	1.255492	0.247993	1.170307
C171	C	0.755573	-0.115629	0.378392
C172	C	1.255573	0.384371	0.878392
C173	C	0.755611	-0.057515	0.378426
C174	C	1.255611	0.442485	0.878426
C175	C	0.788949	-0.218577	0.711331
C176	C	1.288949	0.281423	1.211331
C177	C	0.788945	-0.218577	0.793312
C178	C	1.288945	0.281423	1.293312
C179	C	0.755485	-0.252009	0.834267
C180	C	1.255485	0.247991	1.334267
C181	C	0.722024	-0.285440	0.793237
C182	C	1.222024	0.214560	1.293237
C183	C	0.722026	-0.285437	0.711258
C184	C	1.222026	0.214563	1.211258
C185	C	0.722022	-0.285443	0.964107
C186	C	1.222022	0.214557	1.464107
C187	C	0.722021	-0.285446	1.046092
C188	C	1.222021	0.214554	1.546092
C189	C	0.788942	-0.218582	1.046161
C190	C	1.288942	0.281418	1.546161
C191	C	0.788944	-0.218580	0.964182
C192	C	1.288944	0.281420	1.464182
C193	C	0.755483	-0.252012	0.923158
C194	C	1.255483	0.247988	1.423158
C195	C	0.755477	-0.252013	1.174365
C196	C	1.255477	0.247987	1.674365
C197	C	0.755479	-0.252017	1.087116
C198	C	1.255479	0.247983	1.587116
H199	H	0.556454	-0.312752	0.469160
H200	H	1.056454	0.187248	0.969160
H201	H	0.694813	-0.451111	0.287077
H202	H	1.194813	0.048889	0.787077
Br203	Br	0.676709	-0.565024	0.259817
Br204	Br	1.176709	-0.065024	0.759817
Br205	Br	0.320097	-0.364439	0.546530
Br206	Br	0.820097	0.135561	1.046530
Br207	Br	0.834371	-1.067163	0.496887
Br208	Br	1.334371	-0.567163	0.996887
Br209	Br	0.676863	-1.067359	0.259953
Br210	Br	1.176863	-0.567359	0.759953
Br211	Br	0.867704	-0.815924	0.547092
Br212	Br	1.367704	-0.315924	1.047092
H213	H	0.694767	-0.312659	0.930708
H214	H	1.194767	0.187341	1.430708
Br215	Br	0.676811	-0.938669	0.259934
Br216	Br	1.176811	-0.438669	0.759934
Br217	Br	0.571280	-0.173045	0.260155
Br218	Br	1.071280	0.326955	0.760155
Br219	Br	0.320107	-0.139552	0.210134
Br220	Br	0.820107	0.360448	0.710134
H221	H	0.206232	-0.346261	0.519354
H222	H	0.706232	0.153739	1.019354
H223	H	0.457390	-0.191230	0.287378
H224	H	0.957390	0.308770	0.787378
Br225	Br	0.676605	-0.330813	1.101674
Br226	Br	1.176605	0.169187	1.601674
H227	H	0.694778	-0.312659	0.826589
H228	H	1.194778	0.187341	1.326589
Br229	Br	0.643350	-0.816217	0.209660
Br230	Br	1.143350	-0.316217	0.709660
H231	H	0.816198	-0.191355	0.677992
H232	H	1.316198	0.308645	1.177992
Br233	Br	0.834379	-0.173230	0.848984
Br234	Br	1.334379	0.326770	1.348984
Br235	Br	0.834359	-0.173212	0.908600
Br236	Br	1.334359	0.326788	1.408600
H237	H	0.661458	-0.702325	0.236922
H238	H	1.161458	-0.202325	0.736922
Br239	Br	0.834355	-0.173213	1.101835
Br240	Br	1.334355	0.326787	1.601835
Br241	Br	-0.059768	-0.173096	0.260274
Br242	Br	0.440232	0.326904	0.760274
H243	H	0.694776	-0.312654	0.677857
H244	H	1.194776	0.187346	1.177857
Br245	Br	0.834189	-0.436107	0.496707
Br246	Br	1.334189	0.063893	0.996707
Br247	Br	0.191418	-0.139560	0.210151
Br248	Br	0.691418	0.360440	0.710151
H249	H	0.054108	-0.312789	0.469278
H250	H	0.554108	0.187211	0.969278
Br251	Br	-0.059780	-0.330972	0.496501
Br252	Br	0.440220	0.169028	0.996501
Br253	Br	0.442585	-0.330938	0.496406
Br254	Br	0.942585	0.169062	0.996406
Br255	Br	0.068921	-0.173074	0.260262
Br256	Br	0.568921	0.326926	0.760262
H257	H	0.816074	-0.550003	0.469480
H258	H	1.316074	-0.050003	0.969480
H259	H	0.816201	-0.953299	0.469580
H260	H	1.316201	-0.453299	0.969580
Br261	Br	0.867669	-0.687242	0.547051
Br262	Br	1.367669	-0.187242	1.047051
