data_functionalizedCrystal
_audit_creation_method	'MofGen! by Chris Wilmer'
_symmetry_space_group_name_H-M	'P1'
_symmetry_Int_Tables_number	1
_symmetry_cell_setting	triclinic
loop_
_symmetry_equiv_pos_as_xyz
  x,y,z
_cell_length_a	16.992694
_cell_length_b	10.723023
_cell_length_c	16.053802
_cell_angle_alpha	92.591082
_cell_angle_beta	87.249047
_cell_angle_gamma	87.567885
loop_
_atom_site_label
_atom_site_type_symbol
_atom_site_fract_x
_atom_site_fract_y
_atom_site_fract_z
O1	O	1.045091	0.259813	-0.069321
O2	O	1.545091	0.759813	0.430679
O3	O	0.816791	0.256907	-0.069346
O4	O	1.316791	0.756907	0.430654
O5	O	0.936207	0.077238	-0.069330
O6	O	1.436207	0.577238	0.430670
O7	O	0.925675	0.439483	-0.069338
O8	O	1.425675	0.939483	0.430662
O9	O	0.929634	0.087084	0.069528
O10	O	1.429634	0.587084	0.569528
O11	O	0.810218	0.266753	0.069512
O12	O	1.310218	0.766753	0.569512
O13	O	1.038518	0.269659	0.069537
O14	O	1.538518	0.769659	0.569537
Zn15	Zn	0.923324	0.269769	0.091571
Zn16	Zn	1.423324	0.769769	0.591571
Zn17	Zn	0.931985	0.256797	-0.091380
Zn18	Zn	1.431985	0.756797	0.408620
O19	O	0.919102	0.449329	0.069520
O20	O	1.419102	0.949329	0.569520
C21	C	0.784272	0.258094	0.000080
C22	C	1.284272	0.758094	0.500080
C23	C	0.697169	0.246945	0.000070
C24	C	1.197169	0.746945	0.500070
C25	C	0.932155	0.035595	0.000098
C26	C	1.432155	0.535595	0.500098
C27	C	0.929862	-0.103157	0.000095
C28	C	1.429862	0.396843	0.500095
C29	C	0.647507	0.354505	0.000069
C30	C	1.147507	0.854505	0.500069
C31	C	0.565663	0.344024	0.000080
C32	C	1.065663	0.844024	0.500080
C33	C	0.533483	0.225982	0.000088
C34	C	1.033483	0.725982	0.500088
C35	C	0.583152	0.118414	0.000092
C36	C	1.083152	0.618414	0.500092
C37	C	0.664993	0.128896	0.000086
C38	C	1.164993	0.628896	0.500086
C39	C	0.289651	0.182535	0.000111
C40	C	0.789651	0.682535	0.500111
C41	C	0.207803	0.172060	0.000115
C42	C	0.707803	0.672060	0.500115
C43	C	0.190320	0.397672	0.000104
C44	C	0.690320	0.897672	0.500104
C45	C	0.272164	0.408144	0.000094
C46	C	0.772164	0.908144	0.500094
C47	C	0.321825	0.300577	0.000102
C48	C	0.821825	0.800577	0.500102
N49	N	0.449827	0.215265	0.000097
N50	N	0.949827	0.715265	0.500097
N51	N	0.405480	0.311294	0.000099
N52	N	0.905480	0.811294	0.500099
C53	C	0.932245	-0.170111	-0.071838
C54	C	1.432245	0.329889	0.428162
C55	C	0.929875	-0.313519	-0.071843
C56	C	1.429875	0.186481	0.428157
C57	C	1.071037	0.268472	0.000109
C58	C	1.571037	0.768472	0.500109
C59	C	1.158141	0.279620	0.000113
C60	C	1.658141	0.779620	0.500113
C61	C	0.923155	0.490971	0.000090
C62	C	1.423155	0.990971	0.500090
C63	C	0.925448	0.629723	0.000088
C64	C	1.425448	1.129723	0.500088
N65	N	0.917420	0.278623	0.216430
N66	N	1.417420	0.778623	0.716430
N67	N	0.937896	0.247934	-0.216240
N68	N	1.437896	0.747934	0.283760
C69	C	0.968250	0.202204	0.260131
C70	C	1.468250	0.702204	0.760131
C71	C	0.964127	0.208409	0.347538
C72	C	1.464127	0.708409	0.847538
C73	C	0.909176	0.291041	0.391241
C74	C	1.409176	0.791041	0.891241
C75	C	0.858341	0.367463	0.347534
C76	C	1.358341	0.867463	0.847534
C77	C	0.862460	0.361250	0.260130
C78	C	1.362460	0.861250	0.760130
C79	C	0.891180	0.318143	0.652648
C80	C	1.391180	0.818143	1.152648
C81	C	0.887065	0.324353	0.740059
C82	C	1.387065	0.824353	1.240059
C83	C	0.992851	0.165297	0.740056
C84	C	1.492851	0.665297	1.240056
C85	C	0.996970	0.159097	0.652650
C86	C	1.496970	0.659097	1.152650
C87	C	0.946131	0.235514	0.608951
C88	C	1.446131	0.735514	1.108951
N89	N	0.904962	0.297389	0.480584
N90	N	1.404962	0.797389	0.980584
N91	N	0.950342	0.229159	0.519609
N92	N	1.450342	0.729159	1.019609
H93	H	0.673700	0.450628	0.000062
H94	H	1.173700	0.950628	0.500062
F95	F	0.342494	0.068050	0.000120
F96	F	0.842494	0.568050	0.500120
F97	F	0.548901	-0.007217	0.000106
F98	F	1.048901	0.492783	0.500106
F99	F	0.306406	0.533781	0.000081
F100	F	0.806406	1.033781	0.500081
F101	F	0.137462	0.512145	0.000097
F102	F	0.637462	1.012145	0.500097
F103	F	1.055454	0.071154	0.606139
F104	F	1.555454	0.571154	1.106139
F105	F	0.937218	-0.106274	-0.152333
F106	F	1.437218	0.393726	0.347667
F107	F	0.828577	0.412309	0.786567
F108	F	1.328577	0.912309	1.286567
F109	F	1.018226	0.127075	0.394048
F110	F	1.518226	0.627075	0.894048
F111	F	1.026740	0.114261	0.213627
F112	F	1.526740	0.614261	0.713627
H113	H	0.926062	-0.152003	0.061677
H114	H	1.426062	0.347997	0.561677
H115	H	1.034241	0.103081	0.775644
H116	H	1.534241	0.603081	1.275644
F117	F	0.837076	0.399475	0.606147
F118	F	1.337076	0.899475	1.106147
F119	F	0.799853	0.455400	0.394048
F120	F	1.299853	0.955400	0.894048
H121	H	0.821068	0.423477	0.224549
H122	H	1.321068	0.923477	0.724549
F123	F	0.922791	-0.295056	0.080591
F124	F	1.422791	0.204944	0.580591
F125	F	0.512812	0.458505	0.000075
F126	F	1.012812	0.958505	0.500075
H127	H	0.181606	0.075931	0.000120
H128	H	0.681606	0.575931	0.500120
F129	F	0.932543	-0.388750	-0.152343
F130	F	1.432543	0.111250	0.347657
F131	F	0.717847	0.014416	0.000091
F132	F	1.217847	0.514416	0.500091
