data_functionalizedCrystal
_audit_creation_method	'MofGen! by Chris Wilmer'
_symmetry_space_group_name_H-M	'P1'
_symmetry_Int_Tables_number	1
_symmetry_cell_setting	triclinic
loop_
_symmetry_equiv_pos_as_xyz
  x,y,z
_cell_length_a	11.026607
_cell_length_b	9.565339
_cell_length_c	10.489763
_cell_angle_alpha	89.995484
_cell_angle_beta	83.432811
_cell_angle_gamma	90.003896
loop_
_atom_site_label
_atom_site_type_symbol
_atom_site_fract_x
_atom_site_fract_y
_atom_site_fract_z
O1	O	1.614881	0.116318	-0.535181
O2	O	1.261037	0.116313	-0.474239
O3	O	1.445996	0.116290	-0.320882
O4	O	1.429922	0.116342	-0.688538
O5	O	1.445982	-0.116230	-0.320891
O6	O	1.261023	-0.116207	-0.474248
O7	O	1.614866	-0.116202	-0.535190
Zn8	Zn	1.437942	-0.153122	-0.504720
Zn9	Zn	1.437961	0.153233	-0.504709
O10	O	1.429907	-0.116178	-0.688547
C11	C	1.215720	0.000052	-0.463001
C12	C	1.080710	0.000049	-0.429486
N13	N	1.437938	-0.362201	-0.504729
C14	C	1.007721	0.000063	-0.522026
C15	C	0.868181	0.000060	-0.487389
C16	C	1.352374	-0.453393	-0.575616
C17	C	1.462474	-0.546567	-0.625645
C18	C	1.327885	-0.546583	-0.454721
C19	C	1.548094	-0.453323	-0.554828
C20	C	1.413432	-0.453331	-0.383838
C21	C	1.523611	-0.546462	-0.433836
C22	C	1.660183	0.000062	-0.546428
C23	C	1.795193	0.000074	-0.579943
C24	C	1.444769	0.000026	-0.273087
C25	C	1.441119	0.000015	-0.130656
N26	N	1.437975	0.362313	-0.504691
C27	C	1.323421	0.000016	-0.036626
C28	C	1.379004	-0.114636	0.043263
C29	C	1.379046	0.114610	0.043240
C30	C	1.496751	-0.114732	-0.052643
C31	C	1.496777	0.114617	-0.052671
C32	C	1.552445	-0.000063	0.027171
C33	C	1.431115	0.000064	0.263660
C34	C	1.434707	0.000013	0.121234
H35	H	1.048537	0.000070	-0.626896
H36	H	0.827371	0.000081	-0.382512
H37	H	1.329196	-0.211564	0.085225
H38	H	1.234800	-0.587552	-0.412444
H39	H	1.280082	-0.412529	-0.635648
H40	H	1.649296	-0.000130	0.055291
H41	H	0.836001	0.000080	-0.684820
H42	H	1.641200	-0.412530	-0.597228
H43	H	1.039894	0.000070	-0.324616
H44	H	1.596065	-0.587070	-0.373887
H45	H	1.483227	-0.587520	-0.727866
H46	H	1.392645	-0.412346	-0.281640
H47	H	1.226658	-0.000096	-0.064992
H48	H	1.546503	-0.211760	-0.094423
H49	H	1.546542	0.211550	-0.094658
H50	H	1.329236	0.211539	0.085165
