data_functionalizedCrystal
_audit_creation_method	'MofGen! by Chris Wilmer'
_symmetry_space_group_name_H-M	'P1'
_symmetry_Int_Tables_number	1
_symmetry_cell_setting	triclinic
loop_
_symmetry_equiv_pos_as_xyz
  x,y,z
_cell_length_a	19.805407
_cell_length_b	19.121063
_cell_length_c	19.805399
_cell_angle_alpha	92.411105
_cell_angle_beta	89.980427
_cell_angle_gamma	92.469032
loop_
_atom_site_label
_atom_site_type_symbol
_atom_site_fract_x
_atom_site_fract_y
_atom_site_fract_z
Zn1	Zn	1.023234	-0.279631	-0.394203
Zn2	Zn	1.018317	-0.397083	-0.285838
Zn3	Zn	0.910048	-0.279650	-0.281028
Zn4	Zn	0.905182	-0.397046	-0.398983
O5	O	0.964195	-0.338352	-0.340013
O6	O	1.117298	-0.295218	-0.379840
O7	O	1.003934	-0.381529	-0.190484
O8	O	0.929156	-0.181363	-0.292028
O9	O	1.113686	-0.381510	-0.300225
O10	O	1.012313	-0.181348	-0.375177
O11	O	0.924388	-0.295251	-0.186951
O12	O	0.814686	-0.295215	-0.296663
O13	O	0.920863	-0.381447	-0.493065
O14	O	0.811111	-0.381465	-0.383324
O15	O	1.007595	-0.295182	-0.489553
O16	O	0.999216	-0.495363	-0.304860
O17	O	0.916096	-0.495335	-0.387987
C18	C	0.788340	-0.338339	-0.339991
C19	C	0.713107	-0.338350	-0.339998
C20	C	0.675917	-0.383328	-0.385055
C21	C	0.605228	-0.383329	-0.385064
C22	C	0.571732	-0.338356	-0.340013
C23	C	0.608927	-0.293373	-0.294954
C24	C	0.679614	-0.293368	-0.294948
C25	C	0.323853	-0.293388	-0.294977
C26	C	0.253161	-0.293397	-0.294985
C27	C	0.249467	-0.383349	-0.385093
C28	C	0.320154	-0.383345	-0.385087
C29	C	0.357344	-0.338360	-0.340031
C30	C	0.433992	-0.338358	-0.340022
C31	C	0.495084	-0.338360	-0.340018
C32	C	0.956613	-0.520833	-0.347479
C33	C	0.953431	-0.598899	-0.350696
C34	C	0.995246	-0.635566	-0.308963
C35	C	0.992258	-0.708917	-0.311992
C36	C	0.947451	-0.745601	-0.356752
C37	C	0.905634	-0.708929	-0.398489
C38	C	0.908626	-0.635579	-0.395463
C39	C	0.936252	-0.967071	-0.368056
C40	C	0.933262	-1.040426	-0.371078
C41	C	1.019887	-1.040409	-0.284581
C42	C	1.022872	-0.967058	-0.281556
C43	C	0.981058	-0.930393	-0.323296
C44	C	0.944394	-0.820578	-0.359848
C45	C	0.984119	-0.855417	-0.320203
C46	C	1.140737	-0.338366	-0.340036
C47	C	1.215969	-0.338372	-0.340046
C48	C	0.964235	-0.338308	-0.516554
C49	C	0.964252	-0.338289	-0.591785
C50	C	0.971825	-0.155159	-0.332532
C51	C	0.975077	-0.077093	-0.329345
C52	C	1.009414	-0.293369	-0.625302
C53	C	1.009422	-0.293349	-0.695989
C54	C	0.964270	-0.338253	-0.733159
C55	C	0.919103	-0.383175	-0.699638
C56	C	0.919093	-0.383191	-0.628952
C57	C	0.919144	-0.383109	-0.984709
C58	C	0.919159	-0.383091	-1.055400
C59	C	1.009474	-0.293267	-1.051747
C60	C	1.009463	-0.293283	-0.981060
C61	C	0.964294	-0.338202	-0.947545
C62	C	0.964285	-0.338223	-0.870897
C63	C	0.964282	-0.338236	-0.809806
C64	C	0.964197	-0.338346	-0.164157
C65	C	0.964319	-0.338167	-0.088918
H66	H	0.703185	-0.419953	-0.421739
C67	C	0.869482	-0.432486	-1.096286
N68	N	0.832066	-0.469688	-1.127081
H69	H	1.046232	-0.256720	-0.950800
C70	C	1.033405	-0.815063	-0.270968
N71	N	1.070524	-0.784662	-0.233881
H72	H	1.026308	-0.738768	-0.278008
H73	H	1.046199	-0.256772	-0.723275
C74	C	1.065882	-1.080747	-0.238673
N75	N	1.100528	-1.111130	-0.204094
H76	H	0.882310	-0.419762	-0.601663
H77	H	0.882337	-0.419734	-0.729907
H78	H	0.225890	-0.256770	-0.258298
H79	H	1.059358	-0.937192	-0.245110
H80	H	0.896783	-1.070292	-0.407538
C81	C	0.890290	-0.926749	-0.414006
N82	N	0.855681	-0.896375	-0.448631
C83	C	1.059085	-0.243970	-0.584421
N84	N	1.096497	-0.206758	-0.553631
H85	H	0.574951	-0.419956	-0.421754
C86	C	0.869454	-0.432519	-0.947851
N87	N	0.832025	-0.469736	-0.920088
H88	H	1.046250	-0.256689	-1.079043
H89	H	0.874577	-0.605726	-0.429447
C90	C	0.356997	-0.432820	-0.434646
N91	N	0.384746	-0.470085	-0.471977
C92	C	0.208553	-0.432829	-0.434662
N93	N	0.177737	-0.470096	-0.471996
C94	C	0.572078	-0.243899	-0.245399
N95	N	0.544324	-0.206636	-0.208071
C96	C	0.364752	-0.243907	-0.245409
N97	N	0.395560	-0.206637	-0.208072
C98	C	1.044537	-0.595221	-0.259722
N99	N	1.081665	-0.564835	-0.222634
C100	C	0.720524	-0.243890	-0.245380
N101	N	0.751336	-0.206621	-0.208046
C102	C	0.856343	-0.749284	-0.447722
N103	N	0.819214	-0.779678	-0.484803
H104	H	0.907910	-0.850454	-0.396289
