data_functionalizedCrystal
_audit_creation_method	'MofGen! by Chris Wilmer'
_symmetry_space_group_name_H-M	'P1'
_symmetry_Int_Tables_number	1
_symmetry_cell_setting	triclinic
loop_
_symmetry_equiv_pos_as_xyz
  x,y,z
_cell_length_a	12.837943
_cell_length_b	12.837942
_cell_length_c	15.186229
_cell_angle_alpha	90.011056
_cell_angle_beta	90.006023
_cell_angle_gamma	94.828940
loop_
_atom_site_label
_atom_site_type_symbol
_atom_site_fract_x
_atom_site_fract_y
_atom_site_fract_z
O1	O	1.402341	0.272151	0.073212
O2	O	1.099207	0.258708	0.073217
O3	O	1.244052	0.113863	0.073209
O4	O	1.257496	0.416996	0.073220
O5	O	1.244028	0.113835	-0.073248
O6	O	1.099183	0.258680	-0.073240
O7	O	1.402316	0.272123	-0.073245
Zn8	Zn	1.250746	0.265397	-0.096496
Zn9	Zn	1.250778	0.265434	0.096468
O10	O	1.257471	0.416968	-0.073237
C11	C	1.060126	0.254153	-0.000011
C12	C	0.943711	0.240608	-0.000009
C13	C	0.718837	0.403437	-0.000016
C14	C	0.609454	0.390716	-0.000015
C15	C	0.615562	0.202445	-0.000012
C16	C	0.724944	0.215166	-0.000013
C17	C	0.776578	0.315666	-0.000014
C18	C	0.885962	0.328386	-0.000008
C19	C	0.892067	0.140116	-0.000012
C20	C	0.782685	0.127395	-0.000011
C21	C	1.239499	0.074780	-0.000019
C22	C	1.225954	-0.041635	-0.000017
C23	C	1.388784	-0.266510	-0.000001
C24	C	1.376062	-0.375892	0.000000
C25	C	1.187791	-0.369785	-0.000006
C26	C	1.200513	-0.260402	-0.000007
C27	C	1.301012	-0.208769	-0.000007
C28	C	1.313732	-0.099384	-0.000015
C29	C	1.125462	-0.093279	-0.000014
C30	C	1.112741	-0.202661	-0.000012
C31	C	1.441398	0.276679	-0.000015
C32	C	1.557813	0.290223	-0.000011
C33	C	1.262025	0.456051	-0.000007
C34	C	1.275569	0.572467	-0.000003
N35	N	1.250731	0.265372	-0.228189
C36	C	1.181008	0.195624	-0.546142
C37	C	1.180998	0.195608	-0.453952
C38	C	1.320530	0.335203	-0.453893
C39	C	1.320545	0.335213	-0.546080
C40	C	1.250778	0.265425	-0.592203
C41	C	1.250753	0.265399	-0.407825
C42	C	1.250742	0.265382	-0.307869
C43	C	1.250790	0.265440	-0.692165
N44	N	1.250800	0.265452	0.228161
H45	H	0.562446	0.462189	-0.000019
H46	H	0.740630	0.045571	-0.000020
H47	H	1.447536	-0.422901	0.000007
C48	C	0.955584	0.043563	-0.000008
H49	H	1.028124	0.065530	-0.000012
H50	H	0.938916	0.002815	0.051065
H51	H	0.938909	0.002787	-0.051087
C52	C	0.775637	0.513978	-0.000009
H53	H	0.725581	0.564432	-0.000011
H54	H	0.818189	0.522861	0.051064
H55	H	0.818171	0.522845	-0.051088
C56	C	1.424275	-0.042588	-0.000011
H57	H	1.474726	-0.092647	0.000002
H58	H	1.433152	-0.000057	-0.051083
H59	H	1.433153	-0.000033	0.051069
C60	C	1.499325	-0.209709	-0.000007
H61	H	1.549778	-0.259765	-0.000002
H62	H	1.508189	-0.167179	-0.051081
H63	H	1.508210	-0.167154	0.051071
H64	H	1.377366	0.392055	-0.583584
H65	H	1.053992	-0.046254	-0.000025
H66	H	0.573502	0.120623	-0.000084
C67	C	1.077254	-0.426594	-0.000006
H68	H	1.082254	-0.500007	-0.000008
H69	H	1.040662	-0.407400	0.051063
H70	H	1.040658	-0.407433	-0.051089
C71	C	1.002201	-0.259464	-0.000019
H72	H	1.007194	-0.332879	-0.000023
H73	H	0.965606	-0.240269	0.051049
H74	H	0.965611	-0.240297	-0.051104
C75	C	1.104268	0.118860	-0.596874
H76	H	1.062719	0.077284	-0.556234
H77	H	1.060335	0.156983	-0.632833
H78	H	1.142413	0.074939	-0.632841
C79	C	0.942758	0.438929	-0.000011
H80	H	0.892700	0.489379	-0.000021
H81	H	0.985310	0.447824	0.051060
H82	H	0.985292	0.447788	-0.051092
C83	C	1.104246	0.118831	-0.403289
H84	H	1.062696	0.077278	-0.443964
H85	H	1.142375	0.074904	-0.367329
H86	H	1.060299	0.156950	-0.367327
H87	H	1.377331	0.392024	-0.416329
