data_functionalizedCrystal
_audit_creation_method	'MofGen! by Chris Wilmer'
_symmetry_space_group_name_H-M	'P1'
_symmetry_Int_Tables_number	1
_symmetry_cell_setting	triclinic
loop_
_symmetry_equiv_pos_as_xyz
  x,y,z
_cell_length_a	6.817900
_cell_length_b	11.102188
_cell_length_c	14.125465
_cell_angle_alpha	94.635462
_cell_angle_beta	100.398878
_cell_angle_gamma	108.603875
loop_
_atom_site_label
_atom_site_type_symbol
_atom_site_fract_x
_atom_site_fract_y
_atom_site_fract_z
V1	V	-4.017258	-0.174747	-0.299976
V2	V	-3.517258	0.325253	0.200024
O3	O	-3.978095	0.009521	-0.294266
O4	O	-3.478095	0.509521	0.205734
O5	O	-3.994670	-0.347575	-0.297925
O6	O	-3.494670	0.152425	0.202075
O7	O	-3.952928	-0.171566	-0.430807
O8	O	-3.452928	0.328434	0.069193
O9	O	-4.020126	-0.167706	-0.160465
O10	O	-3.520126	0.332294	0.339535
V11	V	-4.499605	-0.152765	-0.283290
V12	V	-3.999605	0.347235	0.216710
O13	O	-4.281095	-0.222967	-0.336580
O14	O	-3.781095	0.277033	0.163420
O15	O	-4.685966	-0.104545	-0.246686
O16	O	-4.185966	0.395455	0.253314
O17	O	-4.298986	0.020063	-0.285341
O18	O	-3.798986	0.520063	0.214659
O19	O	-4.656165	-0.337033	-0.289000
O20	O	-4.156165	0.162967	0.211000
O21	O	-4.614134	-0.159806	-0.422802
O22	O	-4.114134	0.340194	0.077198
O23	O	-4.340729	-0.155946	-0.152460
O24	O	-3.840729	0.344054	0.347540
C25	C	-3.846466	-0.389722	-0.293193
C26	C	-3.346466	0.110278	0.206807
C27	C	-3.909178	-0.531007	-0.292387
C28	C	-3.409178	-0.031007	0.207613
C29	C	-3.906158	-0.579555	-0.203903
C30	C	-3.406158	-0.079555	0.296097
C31	C	-3.965106	-0.712309	-0.203150
C32	C	-3.465106	-0.212309	0.296850
C33	C	-4.030084	-0.747957	-0.379374
C34	C	-3.530084	-0.247957	0.120626
C35	C	-3.971151	-0.615206	-0.380126
C36	C	-3.471151	-0.115206	0.119874
C37	C	-3.793218	-0.165204	-0.462695
C38	C	-3.293218	0.334796	0.037305
C39	C	-3.822076	-0.163747	-0.569649
C40	C	-3.322076	0.336253	-0.069649
C41	C	-3.874969	-0.161074	-0.765472
C42	C	-3.374969	0.338926	-0.265472
C43	C	-4.061262	-0.166435	-0.817794
C44	C	-3.561262	0.333565	-0.317794
C45	C	-4.090695	-0.164948	-0.926756
C46	C	-3.590695	0.335052	-0.426756
C47	C	-3.845529	-0.162561	-0.656500
C48	C	-3.345529	0.337439	-0.156500
C49	C	-4.110534	0.062203	-0.290071
C50	C	-3.610534	0.562203	0.209929
C51	C	-4.027059	0.203487	-0.290882
C52	C	-3.527059	0.703487	0.209118
C53	C	-4.163782	-0.162312	-0.120566
C54	C	-3.663782	0.337688	0.379434
C55	C	-4.114162	-0.163763	-0.013611
C56	C	-3.614162	0.336237	0.486389
H57	H	-3.962644	-0.751829	-0.131097
H58	H	-3.462644	-0.251829	0.368903
O59	O	-4.096917	-0.838779	-0.473999
O60	O	-3.596917	-0.338779	0.026001
H61	H	-4.089137	-0.782714	-0.535655
H62	H	-3.589137	-0.282714	-0.035655
O63	O	-3.974391	-0.562829	-0.475566
O64	O	-3.474391	-0.062829	0.024434
H65	H	-4.027350	-0.643676	-0.536449
H66	H	-3.527350	-0.143676	-0.036449
H67	H	-4.198655	-0.172154	-0.780755
H68	H	-3.698655	0.327846	-0.280755
O69	O	-3.692914	-0.153611	-0.814454
O70	O	-3.192914	0.346389	-0.314454
H71	H	-3.654734	-0.065731	-0.849767
H72	H	-3.154734	0.434269	-0.349767
O73	O	-3.839323	-0.488735	-0.109277
O74	O	-3.339323	0.011265	0.390723
H75	H	-3.847143	-0.544803	-0.047623
H76	H	-3.347143	-0.044803	0.452377
