data_functionalizedCrystal
_audit_creation_method	'MofGen! by Chris Wilmer'
_symmetry_space_group_name_H-M	'P1'
_symmetry_Int_Tables_number	1
_symmetry_cell_setting	triclinic
loop_
_symmetry_equiv_pos_as_xyz
  x,y,z
_cell_length_a	14.853567
_cell_length_b	13.330367
_cell_length_c	14.853569
_cell_angle_alpha	89.994190
_cell_angle_beta	96.364752
_cell_angle_gamma	90.004582
loop_
_atom_site_label
_atom_site_type_symbol
_atom_site_fract_x
_atom_site_fract_y
_atom_site_fract_z
O1	O	-1.196369	-0.083357	0.117704
O2	O	-0.696369	0.416643	0.617704
O3	O	-0.933910	-0.083375	0.131725
O4	O	-0.433910	0.416625	0.631725
O5	O	-1.072150	-0.083356	-0.006515
O6	O	-0.572150	0.416644	0.493485
O7	O	-1.058130	-0.083376	0.255944
O8	O	-0.558130	0.416624	0.755944
O9	O	-1.072130	0.083491	-0.006519
O10	O	-0.572130	0.583491	0.493481
O11	O	-0.933890	0.083473	0.131722
O12	O	-0.433890	0.583473	0.631722
O13	O	-1.196349	0.083490	0.117700
O14	O	-0.696349	0.583490	0.617700
Cu15	Cu	-1.065118	0.098716	0.124711
Cu16	Cu	-0.565118	0.598716	0.624711
Cu17	Cu	-1.065142	-0.098600	0.124714
Cu18	Cu	-0.565142	0.401400	0.624714
O19	O	-1.058110	0.083471	0.255941
O20	O	-0.558110	0.583471	0.755941
C21	C	-1.071504	0.000068	-0.040106
C22	C	-0.571504	0.500068	0.459894
C23	C	-1.069600	0.000069	-0.140189
C24	C	-0.569600	0.500069	0.359811
C25	C	-0.900311	0.000047	0.131088
C26	C	-0.400311	0.500047	0.631088
C27	C	-0.800228	0.000041	0.129184
C28	C	-0.300228	0.500041	0.629184
N29	N	-1.065108	0.237497	0.124708
N30	N	-0.565108	0.737497	0.624708
C31	C	-1.229948	0.000066	0.118337
C32	C	-0.729948	0.500066	0.618337
C33	C	-1.330032	0.000066	0.120241
C34	C	-0.830032	0.500066	0.620241
C35	C	-0.387693	0.000070	0.039019
C36	C	0.112307	0.500070	0.539019
C37	C	-0.366413	0.000056	0.203251
C38	C	0.133587	0.500056	0.703251
C39	C	-0.460447	0.000053	0.205041
C40	C	0.039553	0.500053	0.705041
C41	C	-0.518108	0.000057	0.123819
C42	C	-0.018108	0.500057	0.623819
C43	C	-0.481736	0.000064	0.040806
C44	C	0.018264	0.500064	0.540806
C45	C	-0.496826	0.000036	0.288053
C46	C	0.003174	0.500036	0.788053
C47	C	-0.590866	0.000031	0.289846
C48	C	-0.090866	0.500031	0.789846
C49	C	-0.648529	0.000042	0.208622
C50	C	-0.148529	0.500042	0.708622
C51	C	-0.612151	0.000050	0.125606
C52	C	-0.112151	0.500050	0.625606
C53	C	-0.669813	0.000054	0.044384
C54	C	-0.169813	0.500054	0.544384
C55	C	-0.633437	0.000069	-0.038633
C56	C	-0.133437	0.500069	0.461367
C57	C	-0.539399	0.000074	-0.040417
C58	C	-0.039399	0.500074	0.459583
C59	C	-0.742566	0.000037	0.210407
C60	C	-0.242566	0.500037	0.710407
C61	C	-0.763855	0.000047	0.046172
C62	C	-0.263855	0.500047	0.546172
N63	N	-1.065159	-0.237382	0.124710
N64	N	-0.565159	0.262618	0.624710
C65	C	-1.003926	0.710112	0.185903
C66	C	-0.503926	1.210112	0.685903
C67	C	-1.126381	0.710097	0.063519
C68	C	-0.626381	1.210097	0.563519
C69	C	-1.126371	0.605078	0.063516
C70	C	-0.626371	1.105078	0.563516
C71	C	-1.065138	0.552572	0.124709
C72	C	-0.565138	1.052572	0.624709
C73	C	-1.003916	0.605084	0.185904
C74	C	-0.503916	1.105084	0.685904
C75	C	-1.187598	0.552558	0.002328
C76	C	-0.687598	1.052558	0.502328
C77	C	-1.187591	0.447534	0.002323
C78	C	-0.687591	0.947534	0.502323
C79	C	-1.126354	0.395025	0.063512
C80	C	-0.626354	0.895025	0.563512
C81	C	-1.065128	0.447544	0.124710
C82	C	-0.565128	0.947544	0.624710
C83	C	-1.003896	0.395037	0.185902
C84	C	-0.503896	0.895037	0.685902
C85	C	-0.942665	0.447554	0.247096
C86	C	-0.442665	0.947554	0.747096
C87	C	-0.942679	0.552576	0.247093
C88	C	-0.442679	1.052576	0.747093
C89	C	-1.126340	0.290004	0.063515
C90	C	-0.626340	0.790004	0.563515
C91	C	-1.003885	0.290009	0.185903
C92	C	-0.503885	0.790009	0.685903
C93	C	-0.986589	0.000065	-0.176566
C94	C	-0.486589	0.500065	0.323434
C95	C	-1.150822	0.000065	-0.197855
C96	C	-0.650822	0.500065	0.302145
C97	C	-1.149035	0.000061	-0.291889
C98	C	-0.649035	0.500061	0.208111
C99	C	-1.066024	0.000057	-0.328266
C100	C	-0.566024	0.500057	0.171734
C101	C	-0.984800	0.000058	-0.270608
C102	C	-0.484800	0.500058	0.229392
C103	C	-1.230258	0.000050	-0.349554
C104	C	-0.730258	0.500050	0.150446
C105	C	-1.228475	0.000044	-0.443594
C106	C	-0.728475	0.500044	0.056406
C107	C	-1.145463	0.000048	-0.479972
C108	C	-0.645463	0.500048	0.020028
C109	C	-1.064235	0.000050	-0.422309
C110	C	-0.564235	0.500050	0.077691
C111	C	-0.981224	0.000046	-0.458685
C112	C	-0.481224	0.500046	0.041315
C113	C	-0.899996	0.000055	-0.401023
C114	C	-0.399996	0.500055	0.098977
C115	C	-0.901788	0.000061	-0.306987
C116	C	-0.401788	0.500061	0.193013
C117	C	-1.143670	0.000042	-0.574009
C118	C	-0.643670	0.500042	-0.074009
C119	C	-0.979435	0.000038	-0.552728
C120	C	-0.479435	0.500038	-0.052728
C121	C	-1.058755	0.000045	0.289531
C122	C	-0.558755	0.500045	0.789531
C123	C	-1.060660	0.000038	0.389615
C124	C	-0.560660	0.500038	0.889615
H125	H	-0.810798	0.000054	-0.019971
H126	H	-0.310798	0.500054	0.480029
Br127	Br	-1.263474	0.000055	-0.148486
Br128	Br	-0.763474	0.500055	0.351514
H129	H	-1.237447	0.404781	-0.047504
H130	H	-0.737447	0.904781	0.452496
H131	H	-1.297841	0.000115	-0.319929
H132	H	-0.797841	0.500115	0.180071
H133	H	-0.319460	0.000045	0.269379
H134	H	0.180540	0.500045	0.769379
H135	H	-0.772179	0.000026	0.277998
H136	H	-0.272179	0.500026	0.777998
H137	H	-1.237456	0.595312	-0.047489
H138	H	-0.737456	1.095312	0.452511
H139	H	-1.209806	0.000024	-0.620953
H140	H	-0.709806	0.500024	-0.120953
Br141	Br	-1.209488	0.781351	-0.019518
Br142	Br	-0.709488	1.281351	0.480482
Br143	Br	-0.920825	0.781377	0.268943
Br144	Br	-0.420825	1.281377	0.768943
Br145	Br	-1.209440	0.218738	-0.019519
Br146	Br	-0.709440	0.718738	0.480481
Br147	Br	-0.866771	0.000045	-0.602088
Br148	Br	-0.366771	0.500045	-0.102088
Br149	Br	-0.787342	0.000033	-0.450403
Br150	Br	-0.287342	0.500033	0.049597
Br151	Br	-0.791560	0.000067	-0.228728
Br152	Br	-0.291560	0.500067	0.271272
Br153	Br	-0.876355	0.000084	-0.098315
Br154	Br	-0.376355	0.500084	0.401685
Br155	Br	-1.338711	0.000037	-0.521842
Br156	Br	-0.838711	0.500037	-0.021842
Br157	Br	-0.418570	0.000009	0.398276
Br158	Br	0.081430	0.500009	0.898276
H159	H	-0.620474	0.000019	0.357443
H160	H	-0.120474	0.500019	0.857443
H161	H	-0.509773	0.000111	-0.108005
H162	H	-0.009773	0.500111	0.391995
Br163	Br	-0.338330	0.000099	-0.073642
Br164	Br	0.161670	0.500099	0.426358
Br165	Br	-0.711702	0.000062	-0.148859
Br166	Br	-0.211702	0.500062	0.351141
H167	H	-0.954019	0.247265	0.235731
H168	H	-0.454019	0.747265	0.735731
H169	H	-0.892813	0.404791	0.296924
H170	H	-0.392813	0.904791	0.796924
H171	H	-0.892828	0.595341	0.296916
H172	H	-0.392828	1.095341	0.796916
