data_functionalizedCrystal
_audit_creation_method	'MofGen! by Chris Wilmer'
_symmetry_space_group_name_H-M	'P1'
_symmetry_Int_Tables_number	1
_symmetry_cell_setting	triclinic
loop_
_symmetry_equiv_pos_as_xyz
  x,y,z
_cell_length_a	17.077404
_cell_length_b	25.639240
_cell_length_c	17.077396
_cell_angle_alpha	89.961743
_cell_angle_beta	89.981638
_cell_angle_gamma	90.030728
loop_
_atom_site_label
_atom_site_type_symbol
_atom_site_fract_x
_atom_site_fract_y
_atom_site_fract_z
Zn1	Zn	1.200001	-0.208179	-0.443765
Zn2	Zn	1.199885	-0.295617	-0.312477
Zn3	Zn	1.068733	-0.208194	-0.312516
Zn4	Zn	1.068678	-0.295582	-0.443703
O5	O	1.134324	-0.251893	-0.378115
O6	O	1.309832	-0.219786	-0.426360
O7	O	1.182462	-0.284041	-0.202635
O8	O	1.086217	-0.135027	-0.329969
O9	O	1.309747	-0.284026	-0.329902
O10	O	1.182659	-0.135016	-0.426397
O11	O	1.086105	-0.219811	-0.202664
O12	O	0.958878	-0.219778	-0.329909
O13	O	1.086124	-0.283967	-0.553559
O14	O	0.958838	-0.283982	-0.426291
O15	O	1.182606	-0.219753	-0.553604
O16	O	1.182409	-0.368777	-0.329842
O17	O	1.086012	-0.368752	-0.426254
C18	C	0.930376	-0.251878	-0.378098
C19	C	0.843126	-0.251884	-0.378109
C20	C	1.134213	-0.387736	-0.378054
C21	C	1.134238	-0.445850	-0.378054
C22	C	0.802181	-0.218494	-0.428411
C23	C	0.720201	-0.218498	-0.428414
C24	C	0.679167	-0.251894	-0.378120
C25	C	0.720118	-0.285286	-0.327812
C26	C	0.802097	-0.285280	-0.327805
C27	C	0.549248	-0.285298	-0.327832
C28	C	0.467263	-0.285305	-0.327840
C29	C	0.467352	-0.218516	-0.428441
C30	C	0.549331	-0.218509	-0.428434
C31	C	0.590276	-0.251902	-0.378127
C32	C	1.184566	-0.806168	-0.428416
C33	C	1.184590	-0.860773	-0.428432
O34	O	1.227249	-0.888972	-0.471189
N35	N	1.134433	-0.888132	-0.378191
C36	C	1.084244	-0.860884	-0.327937
O37	O	1.041584	-0.889169	-0.285205
C38	C	1.084218	-0.806281	-0.327925
C39	C	1.134383	-0.778924	-0.378164
C40	C	1.234727	-0.778812	-0.478651
C41	C	1.234705	-0.724211	-0.478634
C42	C	1.184522	-0.696967	-0.428382
C43	C	1.134361	-0.724324	-0.378147
C44	C	1.034026	-0.779034	-0.277675
C45	C	1.034003	-0.724427	-0.277669
C46	C	1.084169	-0.697071	-0.327907
C47	C	1.084156	-0.642479	-0.327877
N48	N	1.134312	-0.615120	-0.378118
C49	C	1.184495	-0.642364	-0.428371
C50	C	1.084303	-0.975555	-0.327966
C51	C	1.084333	-1.030157	-0.327972
C52	C	1.184677	-1.030042	-0.428469
C53	C	1.184651	-0.975439	-0.428458
C54	C	1.134460	-0.948196	-0.378206
C55	C	1.184445	-0.527699	-0.428330
C56	C	1.184421	-0.473094	-0.428306
C57	C	1.084074	-0.473214	-0.327813
C58	C	1.084101	-0.527814	-0.327833
C59	C	1.134289	-0.555056	-0.378099
O60	O	1.041516	-0.614245	-0.285145
O61	O	1.227141	-0.614072	-0.471102
C62	C	1.339068	-0.251908	-0.378134
C63	C	1.426318	-0.251915	-0.378141
C64	C	1.134372	-0.251855	-0.582860
C65	C	1.134392	-0.251838	-0.670110
C66	C	1.134457	-0.115520	-0.378194
C67	C	1.134513	-0.057406	-0.378228
C68	C	1.184632	-0.218399	-0.711125
C69	C	1.184641	-0.218381	-0.793105
C70	C	1.134414	-0.251806	-0.834069
C71	C	1.084168	-0.285247	-0.793048
C72	C	1.084156	-0.285262	-0.711069
C73	C	1.084200	-0.285216	-0.963918
C74	C	1.084214	-0.285202	-1.045903
C75	C	1.184686	-0.218335	-1.045955
C76	C	1.184673	-0.218350	-0.963976
C77	C	1.134428	-0.251792	-0.922960
C78	C	1.134322	-0.251894	-0.174168
C79	C	1.134454	-0.251763	-0.086918
H80	H	0.835585	-0.191300	-0.469369
O81	O	0.423000	-0.321317	-0.273585
H82	H	0.438713	-0.362365	-0.286909
H83	H	0.582583	-0.312488	-0.286865
H84	H	1.225577	-0.191135	-0.930625
H85	H	1.043491	-1.052426	-0.287055
H86	H	1.275552	-0.701941	-0.519545
H87	H	0.686702	-0.312476	-0.286858
H88	H	1.043434	-0.953376	-0.287038
O89	O	0.676035	-0.182484	-0.482667
H90	H	0.718341	-0.159264	-0.517645
H91	H	0.993176	-0.801298	-0.236765
O92	O	0.593594	-0.182486	-0.482672
H93	H	0.551351	-0.159262	-0.517647
H94	H	1.225308	-0.549873	-0.469266
H95	H	1.043237	-0.312486	-0.677676
O96	O	1.238801	-1.059433	-0.482676
H97	H	1.225298	-1.048923	-0.544268
H98	H	1.275592	-0.800988	-0.519578
O99	O	0.423197	-0.182494	-0.482697
H100	H	0.359298	-0.188102	-0.474246
O101	O	0.979870	-0.695047	-0.223459
H102	H	0.939895	-0.670174	-0.258546
O103	O	0.846266	-0.321294	-0.273553
H104	H	0.803961	-0.344521	-0.238585
H105	H	1.043258	-0.550089	-0.286919
O106	O	1.030025	-0.321244	-1.090084
H107	H	1.038480	-0.315616	-1.153979
O108	O	1.238538	-0.443586	-0.482485
H109	H	1.273434	-0.471708	-0.517432
H110	H	1.225535	-0.191182	-0.677778
H111	H	1.043270	-0.312460	-0.826407
O112	O	1.029946	-0.443825	-0.273615
H113	H	1.038357	-0.401261	-0.282055
H114	H	1.225554	-0.191153	-0.826496
H115	H	1.225499	-0.953168	-0.469367
H116	H	1.225596	-0.191105	-1.079353
O117	O	1.030004	-0.321280	-0.919676
H118	H	0.995083	-0.344524	-0.961931
