data_functionalizedCrystal
_audit_creation_method	'MofGen! by Chris Wilmer'
_symmetry_space_group_name_H-M	'P1'
_symmetry_Int_Tables_number	1
_symmetry_cell_setting	triclinic
loop_
_symmetry_equiv_pos_as_xyz
  x,y,z
_cell_length_a	10.489741
_cell_length_b	11.026607
_cell_length_c	10.065875
_cell_angle_alpha	79.268236
_cell_angle_beta	98.834861
_cell_angle_gamma	96.562595
loop_
_atom_site_label
_atom_site_type_symbol
_atom_site_fract_x
_atom_site_fract_y
_atom_site_fract_z
O1	O	-1.746374	-0.153857	-0.113403
O2	O	-1.378724	-0.169957	-0.113423
O3	O	-1.532078	0.015012	-0.113410
O4	O	-1.593020	-0.338826	-0.113416
O5	O	-1.502868	-0.020402	0.113576
O6	O	-1.349514	-0.205370	0.113563
O7	O	-1.717165	-0.189271	0.113584
Zn8	Zn	-1.528702	-0.202943	0.149612
Zn9	Zn	-1.567187	-0.156284	-0.149452
O10	O	-1.563810	-0.374239	0.113570
C11	C	-1.506231	0.042615	0.000081
C12	C	-1.472717	0.177623	0.000074
C13	C	-1.316320	-0.186447	0.000067
C14	C	-1.173891	-0.182807	0.000059
C15	C	-1.779569	-0.172780	0.000090
C16	C	-1.921999	-0.176419	0.000089
C17	C	-1.079860	-0.065118	0.000074
C18	C	-1.014365	-0.103253	-0.111840
C19	C	-0.985606	-0.138197	0.111950
C20	C	-1.110283	-0.220977	-0.111948
C21	C	-1.081518	-0.255919	0.111944
C22	C	-1.016072	-0.294136	0.000002
C23	C	-1.589658	-0.401842	0.000076
C24	C	-1.623173	-0.536848	0.000074
N25	N	-1.502446	-0.234786	0.353715
C26	C	-1.565256	0.250619	0.000078
C27	C	-1.530620	0.390157	0.000071
N28	N	-1.593451	-0.124431	-0.353555
C29	C	-1.558042	-0.167355	0.421499
C30	C	-1.537846	-0.191872	0.578665
H31	H	-1.108286	0.031654	-0.000064
H32	H	-0.987961	-0.390979	-0.000061
Cl33	Cl	-1.368701	0.453148	0.000048
H34	H	-1.670123	0.209809	0.000092
H35	H	-1.475288	-0.267754	0.636980
H36	H	-1.620585	-0.091470	0.363180
H37	H	-1.728062	0.422366	-0.000023
Cl38	Cl	-1.310805	0.240619	0.000051
H39	H	-1.439891	-0.310663	0.412036
H40	H	-1.655998	-0.048541	0.588130
H41	H	-0.984572	-0.038694	-0.206455
H42	H	-1.164246	-0.255957	-0.206669
H43	H	-1.111333	-0.320439	0.206563
H44	H	-0.931494	-0.103139	0.206565
