data_functionalizedCrystal
_audit_creation_method	'MofGen! by Chris Wilmer'
_symmetry_space_group_name_H-M	'P1'
_symmetry_Int_Tables_number	1
_symmetry_cell_setting	triclinic
loop_
_symmetry_equiv_pos_as_xyz
  x,y,z
_cell_length_a	14.519731
_cell_length_b	13.596369
_cell_length_c	16.109301
_cell_angle_alpha	89.998185
_cell_angle_beta	96.424833
_cell_angle_gamma	90.006024
loop_
_atom_site_label
_atom_site_type_symbol
_atom_site_fract_x
_atom_site_fract_y
_atom_site_fract_z
O1	O	1.223626	0.081797	-0.109064
O2	O	1.473626	0.331797	0.140936
O3	O	1.723626	0.581797	0.390936
O4	O	1.973626	0.831797	0.640936
O5	O	0.955124	0.081799	-0.121880
O6	O	1.205124	0.331799	0.128120
O7	O	1.455124	0.581799	0.378120
O8	O	1.705124	0.831799	0.628120
O9	O	1.096751	0.081788	0.005545
O10	O	1.346751	0.331788	0.255545
O11	O	1.596751	0.581788	0.505545
O12	O	1.846751	0.831788	0.755545
O13	O	1.081999	0.081808	-0.236490
O14	O	1.331999	0.331808	0.013510
O15	O	1.581999	0.581808	0.263510
O16	O	1.831999	0.831808	0.513510
O17	O	1.096733	-0.081795	0.005538
O18	O	1.346733	0.168205	0.255538
O19	O	1.596733	0.418205	0.505538
O20	O	1.846733	0.668205	0.755538
O21	O	0.955107	-0.081784	-0.121887
O22	O	1.205107	0.168216	0.128113
O23	O	1.455107	0.418216	0.378113
O24	O	1.705107	0.668216	0.628113
O25	O	1.223608	-0.081786	-0.109071
O26	O	1.473608	0.168214	0.140929
O27	O	1.723608	0.418214	0.390929
O28	O	1.973608	0.668214	0.640929
Zn29	Zn	1.089355	-0.107758	-0.115480
Zn30	Zn	1.339355	0.142242	0.134520
Zn31	Zn	1.589355	0.392242	0.384520
Zn32	Zn	1.839355	0.642242	0.634520
Zn33	Zn	1.089378	0.107770	-0.115471
Zn34	Zn	1.339378	0.357770	0.134529
Zn35	Zn	1.589378	0.607770	0.384529
Zn36	Zn	1.839378	0.857770	0.634529
O37	O	1.081981	-0.081775	-0.236497
O38	O	1.331981	0.168225	0.013503
O39	O	1.581981	0.418225	0.263503
O40	O	1.831981	0.668225	0.513503
C41	C	0.920757	0.000007	-0.121283
C42	C	1.170757	0.250007	0.128717
C43	C	1.420757	0.500007	0.378717
C44	C	1.670757	0.750007	0.628717
C45	C	0.818381	0.000008	-0.119484
C46	C	1.068381	0.250008	0.130516
C47	C	1.318381	0.500008	0.380516
C48	C	1.568381	0.750008	0.630516
C49	C	0.735240	0.000012	-0.118022
C50	C	0.985240	0.250012	0.131978
C51	C	1.235240	0.500012	0.381978
C52	C	1.485240	0.750012	0.631978
C53	C	0.630935	0.000012	-0.116195
C54	C	0.880935	0.250012	0.133805
C55	C	1.130935	0.500012	0.383805
C56	C	1.380935	0.750012	0.633805
C57	C	0.547799	0.000012	-0.114745
C58	C	0.797799	0.250012	0.135255
C59	C	1.047799	0.500012	0.385255
C60	C	1.297799	0.750012	0.635255
C61	C	0.443487	0.000014	-0.112918
C62	C	0.693487	0.250014	0.137082
C63	C	0.943487	0.500014	0.387082
C64	C	1.193487	0.750014	0.637082
N65	N	1.089346	-0.254849	-0.115486
N66	N	1.339346	-0.004849	0.134514
N67	N	1.589346	0.245151	0.384514
N68	N	1.839346	0.495151	0.634514
C69	C	1.089350	-0.343847	-0.115488
C70	C	1.339350	-0.093847	0.134512
C71	C	1.589350	0.156153	0.384512
C72	C	1.839350	0.406153	0.634512
C73	C	1.089359	-0.455499	-0.115482
C74	C	1.339359	-0.205499	0.134518
C75	C	1.589359	0.044501	0.384518
C76	C	1.839359	0.294501	0.634518
C77	C	1.089371	-0.544489	-0.115473
C78	C	1.339371	-0.294489	0.134527
C79	C	1.589371	-0.044489	0.384527
C80	C	1.839371	0.205511	0.634527
C81	C	1.089382	-0.656148	-0.115468
C82	C	1.339382	-0.406148	0.134532
C83	C	1.589382	-0.156148	0.384532
C84	C	1.839382	0.093852	0.634532
C85	C	1.257975	0.000007	-0.109668
C86	C	1.507975	0.250007	0.140332
C87	C	1.757975	0.500007	0.390332
C88	C	2.007975	0.750007	0.640332
C89	C	1.360352	0.000013	-0.111468
C90	C	1.610352	0.250013	0.138532
C91	C	1.860352	0.500013	0.388532
C92	C	2.110352	0.750013	0.638532
C93	C	1.096145	-0.000004	0.036518
C94	C	1.346145	0.249996	0.286518
C95	C	1.596145	0.499996	0.536518
C96	C	1.846145	0.749996	0.786518
C97	C	1.094353	-0.000006	0.128816
C98	C	1.344353	0.249994	0.378816
C99	C	1.594353	0.499994	0.628816
C100	C	1.844353	0.749994	0.878816
N101	N	1.089394	0.254862	-0.115459
N102	N	1.339394	0.504862	0.134541
N103	N	1.589394	0.754862	0.384541
N104	N	1.839394	1.004862	0.634541
C105	C	1.082588	0.000019	-0.267469
C106	C	1.332588	0.250019	-0.017469
C107	C	1.582588	0.500019	0.232531
C108	C	1.832588	0.750019	0.482531
C109	C	1.084379	0.000027	-0.359768
C110	C	1.334379	0.250027	-0.109768
C111	C	1.584379	0.500027	0.140232
C112	C	1.834379	0.750027	0.390232
C113	C	1.174226	0.000009	0.350945
C114	C	1.424226	0.250009	0.600945
C115	C	1.674226	0.500009	0.850945
C116	C	1.924226	0.750009	1.100945
C117	C	1.172535	0.000017	0.437668
C118	C	1.422535	0.250017	0.687668
C119	C	1.672535	0.500017	0.937668
C120	C	1.922535	0.750017	1.187668
C121	C	1.004500	0.000015	0.418097
C122	C	1.254500	0.250015	0.668097
C123	C	1.504500	0.500015	0.918097
C124	C	1.754500	0.750015	1.168097
C125	C	1.006192	0.000014	0.331375
C126	C	1.256192	0.250014	0.581375
C127	C	1.506192	0.500014	0.831375
C128	C	1.756192	0.750014	1.081375
C129	C	1.091057	0.000006	0.297802
C130	C	1.341057	0.250006	0.547802
C131	C	1.591057	0.500006	0.797802
C132	C	1.841057	0.750006	1.047802
C133	C	1.087675	0.000015	0.471247
C134	C	1.337675	0.250015	0.721247
C135	C	1.587675	0.500015	0.971247
C136	C	1.837675	0.750015	1.221247
C137	C	1.085842	0.000024	0.565276
C138	C	1.335842	0.250024	0.815276
C139	C	1.585842	0.500024	1.065276
C140	C	1.835842	0.750024	1.315276
C141	C	1.092891	-0.000001	0.203766
C142	C	1.342891	0.249999	0.453766
C143	C	1.592891	0.499999	0.703766
C144	C	1.842891	0.749999	0.953766
H145	H	1.243329	0.000005	0.323613
H146	H	1.493329	0.250005	0.573613
H147	H	1.743329	0.500005	0.823613
H148	H	1.993329	0.750005	1.073613
H149	H	1.240260	0.000022	0.480935
H150	H	1.490260	0.250022	0.730935
H151	H	1.740260	0.500022	0.980935
H152	H	1.990260	0.750022	1.230935
H153	H	0.935405	0.000019	0.445443
H154	H	1.185405	0.250019	0.695443
H155	H	1.435405	0.500019	0.945443
H156	H	1.685405	0.750019	1.195443
H157	H	0.938461	0.000014	0.288103
H158	H	1.188461	0.250014	0.538103
H159	H	1.438461	0.500014	0.788103
H160	H	1.688461	0.750014	1.038103
