data_functionalizedCrystal
_audit_creation_method	'MofGen! by Chris Wilmer'
_symmetry_space_group_name_H-M	'P1'
_symmetry_Int_Tables_number	1
_symmetry_cell_setting	triclinic
loop_
_symmetry_equiv_pos_as_xyz
  x,y,z
_cell_length_a	11.792241
_cell_length_b	14.853567
_cell_length_c	13.330367
_cell_angle_alpha	90.004582
_cell_angle_beta	89.995231
_cell_angle_gamma	96.085827
loop_
_atom_site_label
_atom_site_type_symbol
_atom_site_fract_x
_atom_site_fract_y
_atom_site_fract_z
O1	O	0.148181	-1.196946	-0.083355
O2	O	0.165833	-0.934555	-0.083372
O3	O	-0.008203	-1.072118	-0.083356
O4	O	0.322217	-1.059383	-0.083371
O5	O	-0.008206	-1.072098	0.083491
O6	O	0.165829	-0.934535	0.083475
O7	O	0.148177	-1.196926	0.083492
Cu8	Cu	0.157003	-1.065728	0.098718
Cu9	Cu	0.157008	-1.065752	-0.098598
O10	O	0.322213	-1.059363	0.083476
C11	C	0.165032	-0.900953	0.000049
C12	C	0.162635	-0.800860	0.000043
C13	C	-0.050491	-1.071308	0.000067
C14	C	-0.176489	-1.068913	0.000066
C15	C	0.148979	-1.230527	0.000069
C16	C	0.151376	-1.330621	0.000069
C17	C	-0.407174	-1.064511	0.000049
C18	C	-0.278804	-1.066957	0.000058
C19	C	0.364501	-1.060173	0.000051
C20	C	0.490500	-1.062567	0.000046
N21	N	0.156999	-1.065718	0.237500
C22	C	0.049122	-0.387884	0.000071
C23	C	0.255880	-0.367408	0.000060
C24	C	0.258134	-0.461451	0.000057
C25	C	0.155880	-0.518715	0.000059
C26	C	0.051372	-0.481936	0.000064
C27	C	0.362640	-0.498237	0.000042
C28	C	0.364898	-0.592285	0.000037
C29	C	0.262642	-0.649550	0.000046
C30	C	0.158131	-0.612766	0.000053
C31	C	0.055877	-0.670030	0.000055
C32	C	-0.048637	-0.633248	0.000068
C33	C	-0.050883	-0.539201	0.000073
C34	C	0.264889	-0.743596	0.000041
C35	C	0.058127	-0.764081	0.000048
N36	N	0.157003	-1.065769	-0.237379
C37	C	0.234040	-1.004837	0.710116
C38	C	0.079966	-1.126692	0.710098
C39	C	0.079962	-1.126682	0.605079
C40	C	0.157000	-1.065749	0.552574
C41	C	0.234042	-1.004826	0.605087
C42	C	0.002930	-1.187610	0.552558
C43	C	0.002925	-1.187602	0.447534
C44	C	0.079958	-1.126665	0.395027
C45	C	0.157001	-1.065739	0.447546
C46	C	0.234039	-1.004806	0.395041
C47	C	0.311078	-0.943875	0.447559
C48	C	0.311075	-0.943888	0.552580
C49	C	0.079961	-1.126651	0.290005
C50	C	0.234040	-1.004796	0.290013
H51	H	-0.131891	-0.679884	0.000063
H52	H	0.373798	-0.894281	0.595347
H53	H	-0.035970	-0.357932	0.000086
O54	O	-0.152300	-0.503322	0.000036
C55	C	-0.247391	-0.367509	0.000100
C56	C	-0.132461	-0.408027	0.000123
H57	H	-0.231392	-0.290459	0.000192
H58	H	-0.297944	-0.390987	-0.069740
H59	H	-0.297931	-0.391097	0.069911
H60	H	-0.081829	-0.384458	-0.069640
H61	H	-0.081994	-0.384554	0.070009
H62	H	-0.059786	-1.237224	0.595311
O63	O	-0.072023	-1.246816	0.396678
C64	C	-0.224804	-1.367715	0.407753
C65	C	-0.140003	-1.300694	0.465473
H66	H	-0.279772	-1.411307	0.463349
H67	H	-0.281675	-1.328557	0.358630
H68	H	-0.175680	-1.412943	0.358538
H69	H	-0.189034	-1.255451	0.514742
H70	H	-0.083133	-1.339909	0.514533
O71	O	0.355128	-0.311693	-0.000076
C72	C	0.472610	-0.193664	-0.086546
C73	C	0.360155	-0.256700	-0.086506
H74	H	0.476723	-0.149200	-0.156427
H75	H	0.476733	-0.149056	-0.016767
H76	H	0.547674	-0.236124	-0.086500
H77	H	0.285028	-0.214311	-0.086588
H78	H	0.356132	-0.301312	-0.156279
O79	O	0.461857	-0.442485	0.000086
C80	C	0.550013	-0.288521	0.000047
C81	C	0.437561	-0.351562	0.000015
H82	H	0.530409	-0.214997	-0.000032
H83	H	0.601448	-0.301896	0.069884
H84	H	0.601440	-0.302009	-0.069767
H85	H	0.386043	-0.338110	0.069781
H86	H	0.386213	-0.338174	-0.069868
H87	H	-0.025142	-0.810700	0.000054
H88	H	0.449998	-0.622224	0.000026
H89	H	0.349982	-0.773540	0.000032
O90	O	0.308987	-0.945570	0.239169
C91	C	0.461759	-0.824666	0.250270
C92	C	0.376963	-0.891702	0.307975
H93	H	0.516723	-0.781083	0.305875
H94	H	0.518633	-0.863810	0.201121
H95	H	0.412631	-0.779431	0.201083
H96	H	0.425998	-0.936953	0.357217
H97	H	0.320089	-0.852501	0.357061
O98	O	0.386069	-0.884778	0.396596
C99	C	0.583299	-0.832870	0.364491
C100	C	0.498501	-0.899859	0.422256
H101	H	0.674218	-0.845027	0.385232
H102	H	0.570164	-0.843338	0.280398
H103	H	0.568281	-0.760601	0.385132
H104	H	0.513467	-0.972155	0.401698
H105	H	0.511656	-0.889313	0.506335
H106	H	0.296762	-0.955225	0.752878
O107	O	0.004976	-1.185833	0.760992
C108	C	-0.192262	-1.237639	0.793195
C109	C	-0.107453	-1.170629	0.735469
H110	H	-0.283179	-1.225357	0.772597
H111	H	-0.177418	-1.309938	0.772519
H112	H	-0.178965	-1.227187	0.877271
H113	H	-0.120700	-1.180998	0.651380
H114	H	-0.122318	-1.098354	0.756229
O115	O	0.005028	-1.185866	0.239145
C116	C	-0.147737	-1.306779	0.250216
C117	C	-0.062948	-1.239750	0.307938
H118	H	-0.202702	-1.350374	0.305810
H119	H	-0.204613	-1.267627	0.201090
H120	H	-0.098604	-1.352001	0.201004
H121	H	-0.111989	-1.194511	0.357205
H122	H	-0.006074	-1.278957	0.357001
