data_functionalizedCrystal
_audit_creation_method	'MofGen! by Chris Wilmer'
_symmetry_space_group_name_H-M	'P1'
_symmetry_Int_Tables_number	1
_symmetry_cell_setting	triclinic
loop_
_symmetry_equiv_pos_as_xyz
  x,y,z
_cell_length_a	19.121379
_cell_length_b	15.298530
_cell_length_c	15.296720
_cell_angle_alpha	91.639580
_cell_angle_beta	101.632443
_cell_angle_gamma	77.506871
loop_
_atom_site_label
_atom_site_type_symbol
_atom_site_fract_x
_atom_site_fract_y
_atom_site_fract_z
Zn1	Zn	-0.970533	-0.373901	0.392378
Zn2	Zn	-0.470533	0.126099	0.892378
Zn3	Zn	-0.977416	-0.494620	0.220274
Zn4	Zn	-0.477416	0.005380	0.720274
Zn5	Zn	-0.874865	-0.354557	0.250115
Zn6	Zn	-0.374865	0.145443	0.750115
Zn7	Zn	-0.834841	-0.528794	0.372956
Zn8	Zn	-0.334841	-0.028794	0.872956
O9	O	-0.914414	-0.437968	0.308931
O10	O	-0.414414	0.062032	0.808931
O11	O	-1.071151	-0.383709	0.365187
O12	O	-0.571151	0.116291	0.865187
O13	O	-0.983444	-0.453643	0.100797
O14	O	-0.483444	0.046357	0.600797
O15	O	-0.901425	-0.233683	0.289603
O16	O	-0.401425	0.266317	0.789603
O17	O	-1.076209	-0.472400	0.238744
O18	O	-0.576209	0.027600	0.738744
O19	O	-0.971712	-0.247895	0.394123
O20	O	-0.471712	0.252105	0.894123
O21	O	-0.908100	-0.350739	0.122721
O22	O	-0.408100	0.149261	0.622721
O23	O	-0.769850	-0.383876	0.270771
O24	O	-0.269850	0.116124	0.770771
O25	O	-0.833210	-0.530645	0.498968
O26	O	-0.333210	-0.030645	0.998968
O27	O	-0.740445	-0.511887	0.361021
O28	O	-0.240445	-0.011887	0.861021
O29	O	-0.932902	-0.416846	0.513237
O30	O	-0.432902	0.083154	1.013237
O31	O	-0.944634	-0.622593	0.219911
O32	O	-0.444634	-0.122593	0.719911
O33	O	-0.839884	-0.647700	0.332086
O34	O	-0.339884	-0.147700	0.832086
C35	C	-0.729295	-0.449491	0.317027
C36	C	-0.229295	0.050509	0.817027
C37	C	-0.650094	-0.454446	0.320508
C38	C	-0.150094	0.045554	0.820508
C39	C	-0.628170	-0.390057	0.275262
C40	C	-0.128170	0.109943	0.775262
C41	C	-0.553752	-0.394720	0.278531
C42	C	-0.053752	0.105280	0.778531
C43	C	-0.501259	-0.463769	0.327052
C44	C	-0.001259	0.036231	0.827052
C45	C	-0.523188	-0.528164	0.372300
C46	C	-0.023188	-0.028164	0.872300
C47	C	-0.597605	-0.523504	0.369025
C48	C	-0.097605	-0.023504	0.869025
C49	C	-0.275803	-0.481181	0.339281
C50	C	0.224197	0.018819	0.839281
C51	C	-0.201382	-0.485834	0.342555
C52	C	0.298618	0.014166	0.842555
C53	C	-0.231951	-0.352390	0.248784
C54	C	0.268049	0.147610	0.748784
C55	C	-0.306368	-0.347733	0.245518
C56	C	0.193632	0.152267	0.745518
C57	C	-0.328291	-0.412131	0.290762
C58	C	0.171709	0.087869	0.790762
C59	C	-0.425192	-0.468535	0.330398
C60	C	0.074808	0.031465	0.830398
C61	C	-0.404357	-0.407368	0.287411
C62	C	0.095643	0.092632	0.787411
C63	C	-0.100257	-0.426394	0.300795
C64	C	0.399743	0.073606	0.800795
C65	C	-0.179458	-0.421445	0.297309
C66	C	0.320542	0.078555	0.797309
C67	C	-0.888679	-0.667156	0.270671
C68	C	-0.388679	-0.167156	0.770671
C69	C	-0.877730	-0.765205	0.254330
C70	C	-0.377730	-0.265205	0.754330
C71	C	-0.940265	-0.207888	0.347358
C72	C	-0.440265	0.292112	0.847358
C73	C	-0.951281	-0.109841	0.363734
C74	C	-0.451281	0.390159	0.863734
C75	C	-0.877823	-0.479715	0.539003
C76	C	-0.377823	0.020285	1.039003
C77	C	-0.862231	-0.497505	0.637045
C78	C	-0.362231	0.002495	1.137045
C79	C	-0.835961	0.196136	0.192216
C80	C	-0.335961	0.696136	0.692216
C81	C	-0.825614	0.104018	0.176824
C82	C	-0.325614	0.604018	0.676824
C83	C	-0.857029	0.050549	0.223550
C84	C	-0.357029	0.550549	0.723550
C85	C	-0.898795	0.089207	0.285671
C86	C	-0.398795	0.589207	0.785671
C87	C	-0.909149	0.181335	0.301059
C88	C	-0.409149	0.681335	0.801059
C89	C	-0.930217	0.035748	0.332393
C90	C	-0.430217	0.535748	0.832393
C91	C	-0.971983	0.074406	0.394514
C92	C	-0.471983	0.574406	0.894514
C93	C	-0.982334	0.166526	0.409899
C94	C	-0.482334	0.666526	0.909899
C95	C	-0.950918	0.219995	0.363173
C96	C	-0.450918	0.719995	0.863173
C97	C	-0.919863	-0.056381	0.317005
C98	C	-0.419863	0.443619	0.817005
C99	C	-0.993051	-0.071182	0.425848
C100	C	-0.493051	0.428818	0.925848
C101	C	-1.003398	0.020937	0.441240
C102	C	-0.503398	0.520937	0.941240
C103	C	-0.950910	-0.396317	0.079763
C104	C	-0.450910	0.103683	0.579763
C105	C	-0.966668	-0.378270	-0.018244
C106	C	-0.466668	0.121730	0.481756
C107	C	-1.025901	-0.310663	0.943127
C108	C	-0.525901	0.189337	1.443127
C109	C	-1.040555	-0.293950	0.851011
C110	C	-0.540555	0.206050	1.351011
C111	C	-0.995975	-0.344837	0.797515
C112	C	-0.495975	0.155163	1.297515
C113	C	-0.936739	-0.412441	0.836145
C114	C	-0.436739	0.087559	1.336145
C115	C	-0.922086	-0.429161	0.928269
C116	C	-0.422086	0.070839	1.428269
C117	C	-0.892161	-0.463334	0.782657
C118	C	-0.392161	0.036666	1.282657
C119	C	-0.832924	-0.530938	0.821287
C120	C	-0.332924	-0.030938	1.321287
C121	C	-0.818274	-0.547655	0.913402
C122	C	-0.318274	-0.047655	1.413402
C123	C	-0.862854	-0.496768	0.966898
C124	C	-0.362854	0.003232	1.466898
C125	C	-0.906813	-0.446614	0.690532
C126	C	-0.406813	0.053386	1.190532
C127	C	-0.802999	-0.565112	0.675674
C128	C	-0.302999	-0.065112	1.175674
C129	C	-0.788344	-0.581826	0.767791
C130	C	-0.288344	-0.081826	1.267791
H131	H	-0.535906	-0.342292	0.241680
H132	H	-0.035906	0.157708	0.741680
F133	F	-0.802537	0.253047	0.142488
F134	F	-0.302537	0.753047	0.642488
F135	F	-1.011572	-0.327046	0.699476
F136	F	-0.511572	0.172954	1.199476
F137	F	-0.460225	-0.333885	0.235769
F138	F	0.039775	0.166115	0.735769
F139	F	-0.846088	-0.047475	0.207090
F140	F	-0.346088	0.452525	0.707090
H141	H	-0.791610	0.072549	0.126244
H142	H	-0.291610	0.572549	0.626244
F143	F	-1.026793	0.207668	0.476005
F144	F	-0.526793	0.707668	0.976005
F145	F	-0.969855	-0.374667	0.649430
F146	F	-0.469855	0.125333	1.149430
F147	F	-0.362230	-0.274236	0.193882
F148	F	0.137770	0.225764	0.693882
F149	F	-1.103597	-0.222004	0.809904
F150	F	-0.603597	0.277996	1.309904
H151	H	-0.959335	0.295005	0.375707
H152	H	-0.459335	0.795005	0.875707
F153	F	-1.047846	0.062091	0.507353
F154	F	-0.547846	0.562091	1.007353
H155	H	-0.214094	-0.299962	0.211948
H156	H	0.285906	0.200038	0.711948
F157	F	-0.620938	-0.592038	0.417180
F158	F	-0.120938	-0.092038	0.917180
F159	F	-1.026491	-0.128082	0.475577
F160	F	-0.526491	0.371918	0.975577
F161	F	-1.073343	-0.256520	1.000064
F162	F	-0.573343	0.243480	1.500064
H163	H	-0.158642	-0.542063	0.382073
H164	H	0.341358	-0.042063	0.882073
H165	H	-0.850926	-0.510372	1.041908
H166	H	-0.350926	-0.010372	1.541908
H167	H	-0.770045	-0.602709	0.944850
H168	H	-0.270045	-0.102709	1.444850
H169	H	-0.766699	-0.606550	0.632118
H170	H	-0.266699	-0.106550	1.132118
F171	F	-0.684031	-0.316561	0.223623
F172	F	-0.184031	0.183439	0.723623
F173	F	-0.299125	-0.549718	0.387436
F174	F	0.200875	-0.049718	0.887436
H175	H	-0.382444	-0.524755	0.369905
H176	H	0.117556	-0.024755	0.869905
H177	H	-0.480443	-0.584389	0.411803
H178	H	0.019557	-0.084389	0.911803
F179	F	-0.875414	-0.097513	0.250894
F180	F	-0.375414	0.402487	0.750894
F181	F	-0.725303	-0.653774	0.808914
F182	F	-0.225303	-0.153774	1.308914
