data_functionalizedCrystal
_audit_creation_method	'MofGen! by Chris Wilmer'
_symmetry_space_group_name_H-M	'P1'
_symmetry_Int_Tables_number	1
_symmetry_cell_setting	triclinic
loop_
_symmetry_equiv_pos_as_xyz
  x,y,z
_cell_length_a	14.519731
_cell_length_b	27.731996
_cell_length_c	13.596369
_cell_angle_alpha	89.988048
_cell_angle_beta	89.994584
_cell_angle_gamma	83.155120
loop_
_atom_site_label
_atom_site_type_symbol
_atom_site_fract_x
_atom_site_fract_y
_atom_site_fract_z
O1	O	1.222730	0.063413	-0.081807
O2	O	0.954124	0.070864	-0.081810
O3	O	1.096795	-0.003220	-0.081787
O4	O	1.080060	0.137496	-0.081830
O5	O	1.096781	-0.003224	0.081796
O6	O	0.954110	0.070860	0.081773
O7	O	1.222716	0.063409	0.081776
Zn8	Zn	1.088411	0.067134	0.107747
Zn9	Zn	1.088429	0.067139	-0.107781
O10	O	1.080046	0.137492	0.081753
C11	C	0.919764	0.070513	-0.000019
C12	C	0.817402	0.069466	-0.000019
C13	C	0.734273	0.068616	-0.000023
C14	C	0.629983	0.067554	-0.000023
C15	C	0.546859	0.066711	-0.000022
C16	C	0.442562	0.065649	-0.000024
C17	C	1.096444	-0.021231	0.000008
C18	C	1.095408	-0.074892	0.000018
C19	C	1.088901	-0.407638	-0.089199
C20	C	1.084969	-0.609315	-0.089217
O21	O	1.084428	-0.635386	-0.165052
N22	N	1.084473	-0.634537	-0.000049
C23	C	1.084954	-0.609335	0.089130
O24	O	1.084433	-0.635415	0.164973
C25	C	1.088880	-0.407659	0.089147
C26	C	1.089385	-0.382440	-0.000027
C27	C	1.089406	-0.382419	-0.178366
C28	C	1.090394	-0.332003	-0.178361
C29	C	1.090877	-0.306806	-0.089189
C30	C	1.090373	-0.332024	-0.000022
C31	C	1.089354	-0.382458	0.178324
C32	C	1.090333	-0.332036	0.178321
C33	C	1.090838	-0.306817	0.089147
C34	C	1.091845	-0.256411	0.089155
N35	N	1.092341	-0.231189	-0.000013
C36	C	1.091857	-0.256387	-0.089185
C37	C	1.082895	-0.715219	0.089115
C38	C	1.081916	-0.765638	0.089112
C39	C	1.081929	-0.765614	-0.089236
C40	C	1.082915	-0.715194	-0.089231
C41	C	1.083391	-0.689997	-0.000053
C42	C	1.093933	-0.150510	-0.089167
C43	C	1.094925	-0.100090	-0.089154
C44	C	1.094906	-0.100118	0.089193
C45	C	1.093919	-0.150534	0.089180
C46	C	1.093429	-0.175728	-0.000008
O47	O	1.092376	-0.230308	0.164951
O48	O	1.092358	-0.230297	-0.165016
C49	C	1.087913	-0.458054	-0.089205
C50	C	1.087409	-0.483272	-0.000038
C51	C	1.087893	-0.458075	0.089134
C52	C	1.086429	-0.533691	-0.000042
C53	C	1.085946	-0.558889	-0.089214
C54	C	1.086442	-0.533667	-0.178382
C55	C	1.087430	-0.483251	-0.178377
C56	C	1.087397	-0.483296	0.178302
C57	C	1.086410	-0.533712	0.178290
C58	C	1.085926	-0.558910	0.089118
C59	C	1.257077	0.063760	-0.000018
C60	C	1.359438	0.064806	-0.000024
C61	C	1.080397	0.155503	-0.000044
C62	C	1.081432	0.209165	-0.000060
N63	N	1.088405	0.067130	0.254839
N64	N	1.088443	0.067139	-0.254873
C65	C	1.088428	0.067139	0.656130
C66	C	1.088419	0.067138	0.544478
C67	C	1.088417	0.067135	0.455488
C68	C	1.088407	0.067133	0.343829
H69	H	1.095338	-0.079559	-0.161774
C70	C	1.088880	-0.410130	-0.276467
C71	C	1.169139	-0.408598	-0.350017
C72	C	1.168622	-0.436305	-0.448125
C73	C	1.087847	-0.465544	-0.472684
C74	C	1.007583	-0.467078	-0.399133
C75	C	1.008099	-0.439371	-0.301024
H76	H	1.228939	-0.386953	-0.331838
H77	H	1.228040	-0.435170	-0.502573
H78	H	1.087465	-0.486055	-0.545310
H79	H	0.947783	-0.488723	-0.417311
H80	H	0.948681	-0.440506	-0.246577
C81	C	1.083463	-0.687456	-0.187323
C82	C	1.163444	-0.699802	-0.260887
C83	C	1.163989	-0.672066	-0.358983
C84	C	1.084554	-0.631984	-0.383515
C85	C	1.004567	-0.619636	-0.309949
C86	C	1.004022	-0.647372	-0.211853
H87	H	1.222252	-0.729474	-0.242728
H88	H	1.223201	-0.681207	-0.413441
H89	H	1.084957	-0.611453	-0.456132
H90	H	0.945759	-0.589964	-0.328108
H91	H	0.944810	-0.638231	-0.157395
C92	C	1.093401	-0.178220	-0.187273
C93	C	1.173659	-0.176695	-0.260826
C94	C	1.173134	-0.204405	-0.358930
C95	C	1.092352	-0.233641	-0.383481
C96	C	1.012088	-0.235167	-0.309926
C97	C	1.012612	-0.207456	-0.211822
H98	H	1.233464	-0.155052	-0.242654
H99	H	1.232551	-0.203275	-0.413380
H100	H	1.091964	-0.254153	-0.456103
H101	H	0.952283	-0.256809	-0.328098
H102	H	0.953195	-0.208586	-0.157372
C103	C	1.095434	-0.072393	0.187277
C104	C	1.015992	-0.032313	0.211781
C105	C	1.016511	-0.004585	0.309865
C106	C	1.096471	-0.016937	0.383445
C107	C	1.175918	-0.057019	0.358943
C108	C	1.175400	-0.084747	0.260859
H109	H	0.956796	-0.023167	0.157310
H110	H	0.957698	0.025086	0.328002
H111	H	1.096855	0.003588	0.456053
H112	H	1.235115	-0.066165	0.413414
H113	H	1.234212	-0.114418	0.242722
H114	H	1.090802	-0.311475	-0.250976
C115	C	1.081392	-0.793336	-0.187328
C116	C	1.160824	-0.833417	-0.211856
C117	C	1.160280	-0.861141	-0.309943
C118	C	1.080305	-0.848783	-0.383502
C119	C	1.000867	-0.808700	-0.358977
C120	C	1.001411	-0.780976	-0.260890
H121	H	1.220032	-0.842567	-0.157401
H122	H	1.219086	-0.890813	-0.328098
H123	H	1.079902	-0.869306	-0.456112
H124	H	0.941659	-0.799550	-0.413431
H125	H	0.942606	-0.751304	-0.242735
H126	H	1.081518	-0.786167	0.161726
C127	C	1.087939	-0.455586	0.276400
C128	C	1.007698	-0.457110	0.349974
C129	C	1.008249	-0.429403	0.448080
C130	C	1.089042	-0.400172	0.472613
C131	C	1.169289	-0.398647	0.399037
C132	C	1.168738	-0.426354	0.300931
H133	H	0.947885	-0.478750	0.331816
H134	H	0.948844	-0.430533	0.502546
H135	H	1.089450	-0.379662	0.545237
H136	H	1.229102	-0.377007	0.417196
H137	H	1.228143	-0.425224	0.246465
C138	C	1.093339	-0.178284	0.187260
C139	C	1.013335	-0.165932	0.260794
C140	C	1.012730	-0.193680	0.358870
C141	C	1.092129	-0.233780	0.383414
C142	C	1.172139	-0.246134	0.309878
C143	C	1.172744	-0.218386	0.211802
H144	H	0.954554	-0.136246	0.242627
H145	H	0.953501	-0.184535	0.413306
H146	H	1.091680	-0.254321	0.456016
H147	H	1.230920	-0.275820	0.328045
H148	H	1.231973	-0.227531	0.157366
H149	H	1.083287	-0.694708	0.161739
H150	H	1.088944	-0.402982	0.250940
H151	H	1.087841	-0.462723	-0.250991
H152	H	1.090707	-0.311522	0.250942
H153	H	1.086052	-0.554192	-0.250989
H154	H	1.086006	-0.554241	0.250912
