data_functionalizedCrystal
_audit_creation_method	'MofGen! by Chris Wilmer'
_symmetry_space_group_name_H-M	'P1'
_symmetry_Int_Tables_number	1
_symmetry_cell_setting	triclinic
loop_
_symmetry_equiv_pos_as_xyz
  x,y,z
_cell_length_a	17.699083
_cell_length_b	19.188930
_cell_length_c	16.776229
_cell_angle_alpha	89.988225
_cell_angle_beta	89.998886
_cell_angle_gamma	83.213899
loop_
_atom_site_label
_atom_site_type_symbol
_atom_site_fract_x
_atom_site_fract_y
_atom_site_fract_z
O1	O	1.003962	0.088294	-0.066185
O2	O	1.503962	0.588294	0.433815
O3	O	0.783569	0.099782	-0.066213
O4	O	1.283569	0.599782	0.433787
O5	O	0.900126	-0.007611	-0.066183
O6	O	1.400126	0.492389	0.433817
O7	O	0.887405	0.195686	-0.066215
O8	O	1.387405	0.695686	0.433785
O9	O	0.900110	-0.007617	0.066394
O10	O	1.400110	0.492383	0.566394
O11	O	0.783553	0.099775	0.066364
O12	O	1.283553	0.599775	0.566364
O13	O	1.003947	0.088288	0.066391
O14	O	1.503947	0.588288	0.566391
Zn15	Zn	0.893748	0.094030	0.087427
Zn16	Zn	1.393748	0.594030	0.587427
Zn17	Zn	0.893768	0.094039	-0.087249
Zn18	Zn	1.393768	0.594039	0.412751
O19	O	0.887390	0.195680	0.066361
O20	O	1.387390	0.695680	0.566361
C21	C	0.755365	0.099367	0.000072
C22	C	1.255365	0.599367	0.500072
C23	C	0.671348	0.098132	0.000062
C24	C	1.171348	0.598132	0.500062
C25	C	0.899706	-0.033625	0.000108
C26	C	1.399706	0.466375	0.500108
C27	C	0.898469	-0.111131	0.000114
C28	C	1.398469	0.388869	0.500114
C29	C	0.622644	0.161169	0.000053
C30	C	1.122644	0.661169	0.500053
C31	C	0.543702	0.160004	0.000063
C32	C	1.043702	0.660004	0.500063
C33	C	0.513466	0.095802	0.000078
C34	C	1.013466	0.595802	0.500078
C35	C	0.562176	0.032761	0.000090
C36	C	1.062176	0.532761	0.500090
C37	C	0.641117	0.033926	0.000085
C38	C	1.141117	0.533926	0.500085
C39	C	0.243819	0.028060	0.000111
C40	C	0.743819	0.528060	0.500111
C41	C	0.164873	0.026900	0.000113
C42	C	0.664873	0.526900	0.500113
C43	C	0.146405	0.154139	0.000088
C44	C	0.646405	0.654139	0.500088
C45	C	0.225345	0.155304	0.000084
C46	C	0.725345	0.655304	0.500084
C47	C	0.274049	0.092263	0.000100
C48	C	0.774049	0.592263	0.500100
C49	C	0.359646	0.093526	0.000090
C50	C	0.859646	0.593526	0.500090
C51	C	0.427870	0.094538	0.000082
C52	C	0.927870	0.594538	0.500082
C53	C	0.966861	-0.155978	0.000127
C54	C	1.466861	0.344022	0.500127
C55	C	0.965699	-0.228804	0.000114
C56	C	1.465699	0.271196	0.500114
C57	C	0.896142	-0.256778	0.000105
C58	C	1.396142	0.243222	0.500105
C59	C	0.827741	-0.211921	0.000088
C60	C	1.327741	0.288079	0.500088
C61	C	0.828905	-0.139098	0.000093
C62	C	1.328905	0.360902	0.500093
N63	N	0.842969	-0.364845	0.045216
N64	N	1.342969	0.135155	0.545216
N65	N	0.841868	-0.434025	0.045213
N66	N	1.341868	0.065975	0.545213
C67	C	0.892632	-0.476191	0.000088
C68	C	1.392632	0.023809	0.500088
N69	N	0.944550	-0.446565	-0.045024
N70	N	1.444550	0.053435	0.454976
N71	N	0.945653	-0.377379	-0.045018
N72	N	1.445653	0.122621	0.454982
C73	C	0.894873	-0.335742	0.000099
C74	C	1.394873	0.164258	0.500099
C75	C	0.959769	-0.600004	0.000085
C76	C	1.459769	-0.100004	0.500085
C77	C	0.958604	-0.672830	0.000067
C78	C	1.458604	-0.172830	0.500067
C79	C	0.820644	-0.655946	0.000049
C80	C	1.320644	-0.155946	0.500049
C81	C	0.821811	-0.583121	0.000059
C82	C	1.321811	-0.083121	0.500059
C83	C	0.891375	-0.555155	0.000081
C84	C	1.391375	-0.055155	0.500081
C85	C	1.032151	0.088703	0.000104
C86	C	1.532151	0.588703	0.500104
C87	C	1.116167	0.089938	0.000109
C88	C	1.616167	0.589938	0.500109
C89	C	0.887810	0.221695	0.000069
C90	C	1.387810	0.721695	0.500069
C91	C	0.889046	0.299201	0.000057
C92	C	1.389046	0.799201	0.500057
N93	N	0.893739	0.094024	0.206638
N94	N	1.393739	0.594024	0.706638
N95	N	0.893782	0.094040	-0.206460
N96	N	1.393782	0.594040	0.293540
C97	C	0.945366	0.046490	0.248368
C98	C	1.445366	0.546490	0.748368
C99	C	0.945370	0.046490	0.331821
C100	C	1.445370	0.546490	0.831821
C101	C	0.893751	0.094027	0.373541
C102	C	1.393751	0.594027	0.873541
C103	C	0.842118	0.141563	0.331805
C104	C	1.342118	0.641563	0.831805
C105	C	0.842111	0.141559	0.248354
C106	C	1.342111	0.641559	0.748354
C107	C	0.842146	0.141576	0.668352
C108	C	1.342146	0.641576	1.168352
C109	C	0.842158	0.141578	0.751808
C110	C	1.342158	0.641578	1.251808
C111	C	0.945405	0.046507	0.751818
C112	C	1.445405	0.546507	1.251818
C113	C	0.945398	0.046503	0.668368
C114	C	1.445398	0.546503	1.168368
C115	C	0.893763	0.094037	0.626639
C116	C	1.393763	0.594037	1.126639
C117	C	0.893758	0.094036	0.536150
C118	C	1.393758	0.594036	1.036150
C119	C	0.893759	0.094031	0.464028
C120	C	1.393759	0.594031	0.964028
H121	H	0.647256	0.213450	0.000040
H122	H	1.147256	0.713450	0.500040
O123	O	0.496499	0.221303	0.000017
O124	O	0.996499	0.721303	0.500017
C125	C	0.540114	0.278219	0.000018
C126	C	1.040114	0.778219	0.500018
H127	H	0.599091	0.260397	-0.025084
H128	H	1.099091	0.760397	0.474916
H129	H	0.510843	0.322379	-0.038479
H130	H	1.010843	0.822379	0.461521
H131	H	0.545676	0.297903	0.063617
H132	H	1.045676	0.797903	0.563617
H133	H	0.283465	-0.023272	0.000125
H134	H	0.783465	0.476728	0.500125
O135	O	1.034388	-0.128732	0.000032
O136	O	1.534388	0.371268	0.500032
C137	C	1.039208	-0.087116	-0.068640
C138	C	1.539208	0.412884	0.431360
H139	H	0.979497	-0.068870	-0.091539
H140	H	1.479497	0.431130	0.408461
H141	H	1.069222	-0.039485	-0.053193
H142	H	1.569222	0.460515	0.446807
H143	H	1.072801	-0.119341	-0.116716
H144	H	1.572801	0.380659	0.383284
H145	H	0.987434	0.007797	0.634402
H146	H	1.487434	0.507797	1.134402
O147	O	0.792002	0.187835	0.372239
O148	O	1.292002	0.687835	0.872239
C149	C	0.804078	0.256938	0.351838
C150	C	1.304078	0.756938	0.851838
H151	H	0.833248	0.256816	0.291245
H152	H	1.333248	0.756816	0.791245
H153	H	0.747071	0.291385	0.348977
H154	H	1.247071	0.791385	0.848977
H155	H	0.841678	0.278492	0.398795
H156	H	1.341678	0.778492	0.898795
O157	O	0.755444	-0.539453	0.000020
O158	O	1.255444	-0.039453	0.500020
C159	C	0.771385	-0.469179	0.000047
C160	C	1.271385	0.030821	0.500047
H161	H	0.830828	-0.466482	-0.025043
H162	H	1.330828	0.033518	0.474957
H163	H	0.727781	-0.436103	-0.038448
H164	H	1.227781	0.063897	0.461552
H165	H	0.768438	-0.448127	0.063651
H166	H	1.268438	0.051873	0.563651
H167	H	0.987404	0.007783	0.214405
H168	H	1.487404	0.507783	0.714405
O169	O	0.254590	0.217731	0.000105
O170	O	0.754590	0.717731	0.500105
C171	C	0.194674	0.273121	0.000080
C172	C	0.694674	0.773121	0.500080
H173	H	0.141110	0.253639	0.025185
H174	H	0.641110	0.753639	0.525185
H175	H	0.211025	0.317950	0.038564
H176	H	0.711025	0.817950	0.538564
H177	H	0.183437	0.292564	-0.063526
H178	H	0.683437	0.792564	0.436474
O179	O	0.995525	0.000229	0.792269
O180	O	1.495525	0.500229	1.292269
C181	C	0.983440	-0.068874	0.771909
C182	C	1.483440	0.431126	1.271909
H183	H	0.954264	-0.068753	0.711321
H184	H	1.454264	0.431247	1.211321
H185	H	1.040444	-0.103325	0.769058
H186	H	1.540444	0.396675	1.269058
H187	H	0.945843	-0.090422	0.818884
H188	H	1.445843	0.409578	1.318884
O189	O	0.688538	-0.027244	0.000127
O190	O	1.188538	0.472756	0.500127
C191	C	0.764696	-0.012450	0.000101
C192	C	1.264696	0.487550	0.500101
H193	H	0.767539	0.042386	0.025190
H194	H	1.267539	0.542386	0.525190
H195	H	0.800597	-0.052639	0.038598
H196	H	1.300597	0.447361	0.538598
H197	H	0.787534	-0.015133	-0.063503
H198	H	1.287534	0.484867	0.436497
O199	O	0.532845	-0.029624	0.000244
O200	O	1.032845	0.470376	0.500244
C201	C	0.557770	-0.068056	0.068902
C202	C	1.057770	0.431944	0.568902
H203	H	0.574064	-0.030513	0.116888
H204	H	1.074064	0.469487	0.616888
H205	H	0.510046	-0.097684	0.091953
H206	H	1.010046	0.402316	0.591953
H207	H	0.609352	-0.107046	0.053383
H208	H	1.109352	0.392954	0.553383
O209	O	0.995554	0.000415	0.372449
O210	O	1.495554	0.500415	0.872449
C211	C	1.042127	0.037762	0.420690
C212	C	1.542127	0.537762	0.920690
H213	H	1.011795	0.092432	0.433176
H214	H	1.511795	0.592432	0.933176
H215	H	1.054203	0.008611	0.479382
H216	H	1.554203	0.508611	0.979382
H217	H	1.098044	0.042445	0.388524
H218	H	1.598044	0.542445	0.888524
O219	O	0.791934	0.187780	0.792213
O220	O	1.291934	0.687780	1.292213
C221	C	0.746368	0.229744	0.737489
C222	C	1.246368	0.729744	1.237489
H223	H	0.745604	0.201118	0.678009
H224	H	1.245604	0.701118	1.178009
H225	H	0.685895	0.240458	0.761610
H226	H	1.185895	0.740458	1.261610
H227	H	0.770757	0.281587	0.728596
H228	H	1.270757	0.781587	1.228596
H229	H	0.106741	0.205470	0.000079
H230	H	0.606741	0.705470	0.500079
H231	H	1.021394	-0.265325	0.000121
H232	H	1.521394	0.234675	0.500121
O233	O	0.760221	-0.239175	-0.000026
O234	O	1.260221	0.260825	0.499974
C235	C	0.755422	-0.280767	-0.068700
C236	C	1.255422	0.219233	0.431300
H237	H	0.815140	-0.299001	-0.091582
H238	H	1.315140	0.200999	0.408418
H239	H	0.725409	-0.328408	-0.053264
H240	H	1.225409	0.171592	0.446736
H241	H	0.721838	-0.248528	-0.116785
H242	H	1.221838	0.251472	0.383215
O243	O	0.792066	0.187764	0.207726
O244	O	1.292066	0.687764	0.707726
C245	C	0.832446	0.230803	0.159451
C246	C	1.332446	0.730803	0.659451
H247	H	0.891761	0.202926	0.146950
H248	H	1.391761	0.702926	0.646950
H249	H	0.800814	0.241880	0.100769
H250	H	1.300814	0.741880	0.600769
H251	H	0.837415	0.282402	0.191595
H252	H	1.337415	0.782402	0.691595
O253	O	0.762416	-0.095600	-0.000021
O254	O	1.262416	0.404400	0.499979
C255	C	0.720186	-0.108229	-0.068702
C256	C	1.220186	0.391771	0.431298
H257	H	0.738956	-0.163497	-0.091598
H258	H	1.238956	0.336503	0.408402
H259	H	0.657042	-0.103001	-0.053269
H260	H	1.157042	0.396999	0.446731
H261	H	0.730411	-0.068400	-0.116775
H262	H	1.230411	0.431600	0.383225
H263	H	0.140258	-0.025384	0.000126
H264	H	0.640258	0.474616	0.500126
H265	H	0.800104	0.180281	0.634383
H266	H	1.300104	0.680281	1.134383
H267	H	1.016412	-0.577233	0.000099
H268	H	1.516412	-0.077233	0.500099
O269	O	1.025025	-0.716425	-0.000065
O270	O	1.525025	-0.216425	0.499935
C271	C	1.028485	-0.759047	-0.068724
C272	C	1.528485	-0.259047	0.431276
H273	H	0.989701	-0.732299	-0.116719
H274	H	1.489701	-0.232299	0.383281
H275	H	1.089483	-0.767330	-0.091759
H276	H	1.589483	-0.267330	0.408241
H277	H	1.009071	-0.811976	-0.053213
H278	H	1.509071	-0.311976	0.446787
H279	H	0.764009	-0.678722	0.000038
H280	H	1.264009	-0.178722	0.500038
