data_functionalizedCrystal
_audit_creation_method	'MofGen! by Chris Wilmer'
_symmetry_space_group_name_H-M	'P1'
_symmetry_Int_Tables_number	1
_symmetry_cell_setting	triclinic
loop_
_symmetry_equiv_pos_as_xyz
  x,y,z
_cell_length_a	14.971486
_cell_length_b	13.101039
_cell_length_c	14.044220
_cell_angle_alpha	86.332523
_cell_angle_beta	88.401503
_cell_angle_gamma	93.356744
loop_
_atom_site_label
_atom_site_type_symbol
_atom_site_fract_x
_atom_site_fract_y
_atom_site_fract_z
O1	O	1.201174	0.085098	0.118316
O2	O	1.451174	0.335098	0.368316
O3	O	1.701174	0.585098	0.618316
O4	O	1.951174	0.835098	0.868316
O5	O	0.941941	0.085126	0.133109
O6	O	1.191941	0.335126	0.383109
O7	O	1.441941	0.585126	0.633109
O8	O	1.691941	0.835126	0.883109
O9	O	1.067666	0.085103	-0.012276
O10	O	1.317666	0.335103	0.237724
O11	O	1.567666	0.585103	0.487724
O12	O	1.817666	0.835103	0.737724
O13	O	1.075449	0.085122	0.263701
O14	O	1.325449	0.335122	0.513701
O15	O	1.575449	0.585122	0.763701
O16	O	1.825449	0.835122	1.013701
O17	O	1.058646	-0.085326	-0.001827
O18	O	1.308646	0.164674	0.248173
O19	O	1.558646	0.414674	0.498173
O20	O	1.808646	0.664674	0.748173
O21	O	0.932922	-0.085302	0.143557
O22	O	1.182922	0.164698	0.393557
O23	O	1.432922	0.414698	0.643557
O24	O	1.682922	0.664698	0.893557
O25	O	1.192155	-0.085330	0.128765
O26	O	1.442155	0.164670	0.378765
O27	O	1.692155	0.414670	0.628765
O28	O	1.942155	0.664670	0.878765
Zn29	Zn	1.061106	-0.112375	0.137820
Zn30	Zn	1.311106	0.137625	0.387820
Zn31	Zn	1.561106	0.387625	0.637820
Zn32	Zn	1.811106	0.637625	0.887820
Zn33	Zn	1.072989	0.112171	0.124054
Zn34	Zn	1.322989	0.362171	0.374054
Zn35	Zn	1.572989	0.612171	0.624054
Zn36	Zn	1.822989	0.862171	0.874054
O37	O	1.066430	-0.085306	0.274149
O38	O	1.316430	0.164694	0.524149
O39	O	1.566430	0.414694	0.774149
O40	O	1.816430	0.664694	1.024149
C41	C	0.904054	-0.000084	0.137671
C42	C	1.154054	0.249916	0.387671
C43	C	1.404054	0.499916	0.637671
C44	C	1.654054	0.749916	0.887671
C45	C	0.804602	-0.000074	0.135688
C46	C	1.054602	0.249926	0.385688
C47	C	1.304602	0.499926	0.635688
C48	C	1.554602	0.749926	0.885688
N49	N	1.053003	-0.265622	0.147214
N50	N	1.303003	-0.015622	0.397214
N51	N	1.553003	0.234378	0.647214
N52	N	1.803003	0.484378	0.897214
C53	C	0.754105	-0.000069	0.221098
C54	C	1.004105	0.249931	0.471098
C55	C	1.254105	0.499931	0.721098
C56	C	1.504105	0.749931	0.971098
C57	C	0.660658	-0.000085	0.219230
C58	C	0.910658	0.249915	0.469230
C59	C	1.160658	0.499915	0.719230
C60	C	1.410658	0.749915	0.969230
C61	C	0.617709	-0.000097	0.131951
C62	C	0.867709	0.249903	0.381951
C63	C	1.117709	0.499903	0.631951
C64	C	1.367709	0.749903	0.881951
C65	C	0.668212	-0.000105	0.046535
C66	C	0.918212	0.249895	0.296535
C67	C	1.168212	0.499895	0.546535
C68	C	1.418212	0.749895	0.796535
C69	C	0.761658	-0.000097	0.048404
C70	C	1.011658	0.249903	0.298404
C71	C	1.261658	0.499903	0.548404
C72	C	1.511658	0.749903	0.798404
C73	C	0.473442	-0.000119	0.042645
C74	C	0.723442	0.249881	0.292645
C75	C	0.973442	0.499881	0.542645
C76	C	1.223442	0.749881	0.792645
C77	C	0.379991	-0.000125	0.040775
C78	C	0.629991	0.249875	0.290775
C79	C	0.879991	0.499875	0.540775
C80	C	1.129991	0.749875	0.790775
C81	C	0.372443	-0.000107	0.213471
C82	C	0.622443	0.249893	0.463471
C83	C	0.872443	0.499893	0.713471
C84	C	1.122443	0.749893	0.963471
C85	C	0.465888	-0.000099	0.215340
C86	C	0.715888	0.249901	0.465340
C87	C	0.965888	0.499901	0.715340
C88	C	1.215888	0.749901	0.965340
C89	C	0.516385	-0.000105	0.129923
C90	C	0.766385	0.249895	0.379923
C91	C	1.016385	0.499895	0.629923
C92	C	1.266385	0.749895	0.879923
C93	C	1.041978	-0.474663	0.160005
C94	C	1.291978	-0.224663	0.410005
C95	C	1.541978	0.025337	0.660005
C96	C	1.791978	0.275337	0.910005
C97	C	1.092121	-0.525548	0.101864
C98	C	1.342121	-0.275548	0.351864
C99	C	1.592121	-0.025548	0.601864
C100	C	1.842121	0.224452	0.851864
C101	C	1.085987	-0.641865	0.108981
C102	C	1.335987	-0.391865	0.358981
C103	C	1.585987	-0.141865	0.608981
C104	C	1.835987	0.108135	0.858981
C105	C	1.048111	-0.358335	0.152889
C106	C	1.298111	-0.108335	0.402889
C107	C	1.548111	0.141665	0.652889
C108	C	1.798111	0.391665	0.902889
C109	C	1.230041	-0.000117	0.124202
C110	C	1.480041	0.249883	0.374202
C111	C	1.730041	0.499883	0.624202
C112	C	1.980041	0.749883	0.874202
C113	C	1.329494	-0.000121	0.126185
C114	C	1.579494	0.249879	0.376185
C115	C	1.829494	0.499879	0.626185
C116	C	2.079494	0.749879	0.876185
C117	C	1.059750	-0.000112	-0.042370
C118	C	1.309750	0.249888	0.207630
C119	C	1.559750	0.499888	0.457630
C120	C	1.809750	0.749888	0.707630
C121	C	1.049588	-0.000112	-0.147607
C122	C	1.299588	0.249888	0.102393
C123	C	1.549588	0.499888	0.352393
C124	C	1.799588	0.749888	0.602393
N125	N	1.081099	0.265418	0.114652
N126	N	1.331099	0.515418	0.364652
N127	N	1.581099	0.765418	0.614652
N128	N	1.831099	1.015418	0.864652
C129	C	1.031013	-0.000095	-0.340291
C130	C	1.281013	0.249905	-0.090291
C131	C	1.531013	0.499905	0.159709
C132	C	1.781013	0.749905	0.409709
C133	C	1.103079	-0.000100	-0.397842
C134	C	1.353079	0.249900	-0.147842
C135	C	1.603079	0.499900	0.102158
C136	C	1.853079	0.749900	0.352158
C137	C	1.092743	-0.000090	-0.505058
C138	C	1.342743	0.249910	-0.255058
C139	C	1.592743	0.499910	-0.005058
C140	C	1.842743	0.749910	0.244942
C141	C	1.041347	-0.000104	-0.233065
C142	C	1.291347	0.249896	0.016935
C143	C	1.541347	0.499896	0.266935
C144	C	1.791347	0.749896	0.516935
C145	C	1.074346	-0.000090	0.304243
C146	C	1.324346	0.249910	0.554243
C147	C	1.574346	0.499910	0.804243
C148	C	1.824346	0.749910	1.054243
C149	C	1.084508	-0.000083	0.409480
C150	C	1.334508	0.249917	0.659480
C151	C	1.584508	0.499917	0.909480
C152	C	1.834508	0.749917	1.159480
H153	H	0.789067	-0.000058	0.292170
H154	H	1.039067	0.249942	0.542170
H155	H	1.289067	0.499942	0.792170
H156	H	1.539067	0.749942	1.042170
H157	H	0.331323	-0.000107	0.283021
H158	H	0.581323	0.249893	0.533021
H159	H	0.831323	0.499893	0.783021
H160	H	1.081323	0.749893	1.033021
F161	F	0.334282	-0.000165	-0.052115
F162	F	0.584282	0.249835	0.197885
F163	F	0.834282	0.499835	0.447885
F164	F	1.084282	0.749835	0.697885
F165	F	0.511596	-0.000075	0.308232
F166	F	0.761596	0.249925	0.558232
F167	F	1.011596	0.499925	0.808232
F168	F	1.261596	0.749925	1.058232
H169	H	1.139657	-0.481754	0.046745
H170	H	1.389657	-0.231754	0.296745
H171	H	1.639657	0.018246	0.546745
H172	H	1.889657	0.268246	0.796745
H173	H	1.172544	-0.000038	-0.366596
H174	H	1.422544	0.249962	-0.116596
H175	H	1.672544	0.499962	0.133404
H176	H	1.922544	0.749962	0.383404
F177	F	0.979851	-0.531898	0.232049
F178	F	1.229851	-0.281898	0.482049
F179	F	1.479851	-0.031898	0.732049
F180	F	1.729851	0.218102	0.982049
H181	H	0.619547	-0.000080	0.288780
H182	H	0.869547	0.249920	0.538780
H183	H	1.119547	0.499920	0.788780
H184	H	1.369547	0.749920	1.038780
F185	F	0.940228	-0.000080	-0.381135
F186	F	1.190228	0.249920	-0.131135
F187	F	1.440228	0.499920	0.118865
F188	F	1.690228	0.749920	0.368865
F189	F	0.527183	-0.000129	-0.048266
F190	F	0.777183	0.249871	0.201734
F191	F	1.027183	0.499871	0.451734
F192	F	1.277183	0.749871	0.701734
F193	F	0.622500	-0.000125	-0.046354
F194	F	0.872500	0.249875	0.203646
F195	F	1.122500	0.499875	0.453646
F196	F	1.372500	0.749875	0.703646
H197	H	0.802771	-0.000100	-0.021146
H198	H	1.052771	0.249900	0.228854
H199	H	1.302771	0.499900	0.478854
H200	H	1.552771	0.749900	0.728854
