data_functionalizedCrystal
_audit_creation_method	'MofGen! by Chris Wilmer'
_symmetry_space_group_name_H-M	'P1'
_symmetry_Int_Tables_number	1
_symmetry_cell_setting	triclinic
loop_
_symmetry_equiv_pos_as_xyz
  x,y,z
_cell_length_a	14.971486
_cell_length_b	19.288865
_cell_length_c	13.448316
_cell_angle_alpha	89.988163
_cell_angle_beta	89.998199
_cell_angle_gamma	83.375189
loop_
_atom_site_label
_atom_site_type_symbol
_atom_site_fract_x
_atom_site_fract_y
_atom_site_fract_z
O1	O	1.186458	0.090517	-0.082589
O2	O	1.686458	0.590517	0.417411
O3	O	0.925999	0.101357	-0.082618
O4	O	1.425999	0.601357	0.417382
O5	O	1.063755	-0.005169	-0.082583
O6	O	1.563755	0.494831	0.417417
O7	O	1.048703	0.197043	-0.082624
O8	O	1.548703	0.697043	0.417376
O9	O	1.063737	-0.005175	0.082801
O10	O	1.563737	0.494825	0.582801
O11	O	0.925982	0.101350	0.082766
O12	O	1.425982	0.601350	0.582766
O13	O	1.186441	0.090511	0.082794
O14	O	1.686441	0.590511	0.582794
Cu15	Cu	1.056210	0.095930	0.097881
Cu16	Cu	1.556210	0.595930	0.597881
Cu17	Cu	1.056230	0.095938	-0.097704
Cu18	Cu	1.556230	0.595938	0.402296
O19	O	1.048685	0.197036	0.082760
O20	O	1.548685	0.697036	0.582760
C21	C	0.892669	0.100869	0.000071
C22	C	1.392669	0.600869	0.500071
C23	C	0.793379	0.099416	0.000061
C24	C	1.293379	0.599416	0.500061
C25	C	0.735816	0.161997	0.000049
C26	C	1.235816	0.661997	0.500049
C27	C	0.642524	0.160628	0.000065
C28	C	1.142524	0.660628	0.500065
C29	C	0.606797	0.096677	0.000084
C30	C	1.106797	0.596677	0.500084
C31	C	0.664368	0.034092	0.000098
C32	C	1.164368	0.534092	0.500098
C33	C	0.757658	0.035461	0.000090
C34	C	1.257658	0.535461	0.500090
C35	C	0.469921	0.031241	0.000112
C36	C	0.969921	0.531241	0.500112
C37	C	0.376624	0.029871	0.000118
C38	C	0.876624	0.529871	0.500118
C39	C	0.354786	0.156407	0.000087
C40	C	0.854786	0.656407	0.500087
C41	C	0.448077	0.157777	0.000079
C42	C	0.948077	0.657777	0.500079
C43	C	0.505641	0.095191	0.000091
C44	C	1.005641	0.595191	0.500091
C45	C	1.063262	-0.031050	0.000112
C46	C	1.563262	0.468950	0.500112
C47	C	1.061808	-0.108158	0.000120
C48	C	1.561808	0.391842	0.500120
C49	C	1.142636	-0.152591	0.000134
C50	C	1.642636	0.347409	0.500134
C51	C	1.141271	-0.225043	0.000118
C52	C	1.641271	0.274957	0.500118
C53	C	1.059071	-0.253058	0.000109
C54	C	1.559071	0.246942	0.500109
C55	C	0.978232	-0.208615	0.000089
C56	C	1.478232	0.291385	0.500089
C57	C	0.979600	-0.136166	0.000095
C58	C	1.479600	0.363834	0.500095
C59	C	0.994447	-0.361558	0.058032
C60	C	1.494447	0.138442	0.558032
C61	C	0.993083	-0.434007	0.058032
C62	C	1.493083	0.065993	0.558032
C63	C	1.054848	-0.476517	0.000086
C64	C	1.554848	0.023483	0.500086
C65	C	1.117994	-0.446571	-0.057848
C66	C	1.617994	0.053429	0.442152
C67	C	1.119362	-0.374121	-0.057842
C68	C	1.619362	0.125879	0.442158
C69	C	1.057579	-0.331617	0.000101
C70	C	1.557579	0.168383	0.500101
C71	C	1.134201	-0.599511	0.000081
C72	C	1.634201	-0.099511	0.500081
C73	C	1.132832	-0.671963	0.000059
C74	C	1.632832	-0.171963	0.500059
C75	C	0.969791	-0.655535	0.000040
C76	C	1.469791	-0.155535	0.500040
C77	C	0.971163	-0.583084	0.000052
C78	C	1.471163	-0.083084	0.500052
C79	C	1.053370	-0.555077	0.000077
C80	C	1.553370	-0.055077	0.500077
C81	C	1.219771	0.090999	0.000104
C82	C	1.719771	0.590999	0.500104
C83	C	1.319061	0.092452	0.000107
C84	C	1.819061	0.592452	0.500107
C85	C	1.049178	0.222918	0.000063
C86	C	1.549178	0.722918	0.500063
C87	C	1.050632	0.300026	0.000048
C88	C	1.550632	0.800026	0.500048
N89	N	1.056202	0.095924	0.235445
N90	N	1.556202	0.595924	0.735445
N91	N	1.056245	0.095938	-0.235269
N92	N	1.556245	0.595938	0.264731
C93	C	1.117219	0.048774	0.287501
C94	C	1.617219	0.548774	0.787501
C95	C	1.117224	0.048773	0.391604
C96	C	1.617224	0.548773	0.891604
C97	C	1.056217	0.095927	0.443650
C98	C	1.556217	0.595927	0.943650
C99	C	0.995193	0.143079	0.391587
C100	C	1.495193	0.643079	0.891587
C101	C	0.995184	0.143076	0.287486
C102	C	1.495184	0.643076	0.787486
C103	C	0.995218	0.143084	0.608567
C104	C	1.495218	0.643084	1.108567
C105	C	0.995228	0.143088	0.712675
C106	C	1.495228	0.643088	1.212675
C107	C	1.117258	0.048781	0.712686
C108	C	1.617258	0.548781	1.212686
C109	C	1.117249	0.048778	0.608584
C110	C	1.617249	0.548778	1.108584
C111	C	1.056227	0.095932	0.556529
C112	C	1.556227	0.595932	1.056529
H113	H	0.804527	-0.015498	0.000099
H114	H	1.304527	0.484502	0.500099
Cl115	Cl	0.918500	0.202363	0.543129
Cl116	Cl	1.418500	0.702363	1.043129
Cl117	Cl	0.866454	-0.690747	0.000022
Cl118	Cl	1.366454	-0.190747	0.500022
H119	H	1.166908	0.010380	0.433988
H120	H	1.666908	0.510380	0.933988
Cl121	Cl	1.193972	-0.010495	0.778131
Cl122	Cl	1.693972	0.489505	1.278131
Cl123	Cl	0.877979	-0.080304	0.000078
Cl124	Cl	1.377979	0.419696	0.500078
H125	H	1.209576	-0.129793	0.000151
H126	H	1.709576	0.370207	0.500151
H127	H	0.911305	-0.231430	0.000079
H128	H	1.411305	0.268570	0.500079
H129	H	0.941662	-0.458383	0.105199
H130	H	1.441662	0.041617	0.605199
Cl131	Cl	0.918527	0.202368	0.778096
Cl132	Cl	1.418527	0.702368	1.278096
Cl133	Cl	0.918470	0.202351	0.222045
Cl134	Cl	1.418470	0.702351	0.722045
H135	H	0.945515	0.181470	0.433968
H136	H	1.445515	0.681470	0.933968
H137	H	1.166902	0.010379	0.245132
H138	H	1.666902	0.510379	0.745132
H139	H	0.595658	0.211588	0.000054
H140	H	1.095658	0.711588	0.500054
Cl141	Cl	0.780719	0.242397	0.000019
Cl142	Cl	1.280719	0.742397	0.500019
H143	H	1.207093	-0.261227	0.000125
H144	H	1.707093	0.238773	0.500125
Cl145	Cl	1.193950	-0.010496	0.543154
Cl146	Cl	1.693950	0.489504	1.043154
H147	H	1.170776	-0.349742	-0.105015
H148	H	1.670776	0.150258	0.394985
Cl149	Cl	0.282420	0.235087	0.000073
Cl150	Cl	0.782420	0.735087	0.500073
Cl151	Cl	0.492989	0.238174	0.000044
Cl152	Cl	0.992989	0.738174	0.500044
H153	H	0.347539	-0.022204	0.000136
H154	H	0.847539	0.477796	0.500136
H155	H	1.201139	-0.576706	0.000097
H156	H	1.701139	-0.076706	0.500097
Cl157	Cl	0.542287	-0.047440	0.000130
Cl158	Cl	1.042287	0.452560	0.500130
H159	H	1.168289	-0.481182	-0.105034
H160	H	1.668289	0.018818	0.394966
Cl161	Cl	0.619455	-0.046304	0.000129
Cl162	Cl	1.119455	0.453696	0.500129
H163	H	1.198655	-0.708141	0.000065
H164	H	1.698655	-0.208141	0.500065
H165	H	0.905343	-0.546906	0.000046
H166	H	1.405343	-0.046906	0.500046
H167	H	0.944148	-0.326952	0.105224
H168	H	1.444148	0.173048	0.605224
