data_functionalizedCrystal
_audit_creation_method	'MofGen! by Chris Wilmer'
_symmetry_space_group_name_H-M	'P1'
_symmetry_Int_Tables_number	1
_symmetry_cell_setting	triclinic
loop_
_symmetry_equiv_pos_as_xyz
  x,y,z
_cell_length_a	19.805407
_cell_length_b	19.805405
_cell_length_c	19.805399
_cell_angle_alpha	89.969291
_cell_angle_beta	89.983114
_cell_angle_gamma	90.026410
loop_
_atom_site_label
_atom_site_type_symbol
_atom_site_fract_x
_atom_site_fract_y
_atom_site_fract_z
Zn1	Zn	1.034718	-0.269469	-0.382712
Zn2	Zn	1.284718	-0.019469	-0.132712
Zn3	Zn	1.534718	0.230531	0.117288
Zn4	Zn	1.784718	0.480531	0.367288
Zn5	Zn	1.034638	-0.382661	-0.269520
Zn6	Zn	1.284638	-0.132661	-0.019520
Zn7	Zn	1.534638	0.117339	0.230480
Zn8	Zn	1.784638	0.367339	0.480480
Zn9	Zn	0.921538	-0.269491	-0.269536
Zn10	Zn	1.171538	-0.019491	-0.019536
Zn11	Zn	1.421538	0.230509	0.230464
Zn12	Zn	1.671538	0.480509	0.480464
Zn13	Zn	0.921496	-0.382622	-0.382667
Zn14	Zn	1.171496	-0.132622	-0.132667
Zn15	Zn	1.421496	0.117378	0.117333
Zn16	Zn	1.671496	0.367378	0.367333
O17	O	0.978097	-0.326061	-0.326109
O18	O	1.228097	-0.076061	-0.076109
O19	O	1.478097	0.173939	0.173891
O20	O	1.728097	0.423939	0.423891
O21	O	1.129424	-0.284492	-0.367708
O22	O	1.379424	-0.034492	-0.117708
O23	O	1.629424	0.215508	0.132292
O24	O	1.879424	0.465508	0.382292
O25	O	1.019619	-0.367674	-0.174805
O26	O	1.269619	-0.117674	0.075195
O27	O	1.519619	0.132326	0.325195
O28	O	1.769619	0.382326	0.575195
O29	O	0.936602	-0.174771	-0.284575
O30	O	1.186602	0.075229	-0.034575
O31	O	1.436602	0.325229	0.215425
O32	O	1.686602	0.575229	0.465425
O33	O	1.129365	-0.367653	-0.284547
O34	O	1.379365	-0.117653	-0.034547
O35	O	1.629365	0.132347	0.215453
O36	O	1.879365	0.382347	0.465453
O37	O	1.019755	-0.174756	-0.367724
O38	O	1.269755	0.075244	-0.117724
O39	O	1.519755	0.325244	0.132276
O40	O	1.769755	0.575244	0.382276
O41	O	0.936525	-0.284528	-0.174817
O42	O	1.186525	-0.034528	0.075183
O43	O	1.436525	0.215472	0.325183
O44	O	1.686525	0.465472	0.575183
O45	O	0.826816	-0.284491	-0.284531
O46	O	1.076816	-0.034491	-0.034531
O47	O	1.326816	0.215509	0.215469
O48	O	1.576816	0.465509	0.465469
O49	O	0.936531	-0.367587	-0.477389
O50	O	1.186531	-0.117587	-0.227389
O51	O	1.436531	0.132413	0.022611
O52	O	1.686531	0.382413	0.272611
O53	O	0.826785	-0.367608	-0.367648
O54	O	1.076785	-0.117608	-0.117648
O55	O	1.326785	0.132392	0.132352
O56	O	1.576785	0.382392	0.382352
O57	O	1.019715	-0.284454	-0.477422
O58	O	1.269715	-0.034454	-0.227422
O59	O	1.519715	0.215546	0.022578
O60	O	1.769715	0.465546	0.272578
O61	O	1.019578	-0.477372	-0.284503
O62	O	1.269578	-0.227372	-0.034503
O63	O	1.519578	0.022628	0.215497
O64	O	1.769578	0.272628	0.465497
O65	O	0.936454	-0.477344	-0.367632
O66	O	1.186454	-0.227344	-0.117632
O67	O	1.436454	0.022656	0.132368
O68	O	1.686454	0.272656	0.382368
C69	C	0.802241	-0.326048	-0.326087
C70	C	1.052241	-0.076048	-0.076087
C71	C	1.302241	0.173952	0.173913
C72	C	1.552241	0.423952	0.423913
C73	C	0.727009	-0.326059	-0.326093
C74	C	0.977009	-0.076059	-0.076093
C75	C	1.227009	0.173941	0.173907
C76	C	1.477009	0.423941	0.423907
C77	C	0.691667	-0.369403	-0.369302
C78	C	0.941667	-0.119403	-0.119302
C79	C	1.191667	0.130597	0.130698
C80	C	1.441667	0.380597	0.380698
C81	C	0.620978	-0.369404	-0.369312
C82	C	0.870978	-0.119404	-0.119312
C83	C	1.120978	0.130596	0.130688
C84	C	1.370978	0.380596	0.380688
C85	C	0.585634	-0.326064	-0.326109
C86	C	0.835634	-0.076064	-0.076109
C87	C	1.085634	0.173936	0.173891
C88	C	1.335634	0.423936	0.423891
C89	C	0.620981	-0.282715	-0.282898
C90	C	0.870981	-0.032715	-0.032898
C91	C	1.120981	0.217285	0.217102
C92	C	1.370981	0.467285	0.467102
C93	C	0.691668	-0.282711	-0.282892
C94	C	0.941668	-0.032711	-0.032892
C95	C	1.191668	0.217289	0.217108
C96	C	1.441668	0.467289	0.467108
C97	C	0.335908	-0.282730	-0.282920
C98	C	0.585908	-0.032730	-0.032920
C99	C	0.835908	0.217270	0.217080
C100	C	1.085908	0.467270	0.467080
C101	C	0.265216	-0.282739	-0.282928
C102	C	0.515216	-0.032739	-0.032928
C103	C	0.765216	0.217261	0.217072
C104	C	1.015216	0.467261	0.467072
C105	C	0.265218	-0.369423	-0.369340
C106	C	0.515218	-0.119423	-0.119340
C107	C	0.765218	0.130577	0.130660
C108	C	1.015218	0.380577	0.380660
C109	C	0.335905	-0.369419	-0.369334
C110	C	0.585905	-0.119419	-0.119334
C111	C	0.835905	0.130581	0.130666
C112	C	1.085905	0.380581	0.380666
C113	C	0.371246	-0.326068	-0.326126
C114	C	0.621246	-0.076068	-0.076126
C115	C	0.871246	0.173932	0.173874
C116	C	1.121246	0.423932	0.423874
C117	C	0.447895	-0.326066	-0.326117
C118	C	0.697895	-0.076066	-0.076117
C119	C	0.947895	0.173934	0.173883
C120	C	1.197895	0.423934	0.423883
C121	C	0.508987	-0.326068	-0.326114
C122	C	0.758987	-0.076068	-0.076114
C123	C	1.008987	0.173932	0.173886
C124	C	1.258987	0.423932	0.423886
C125	C	0.978021	-0.501917	-0.326076
C126	C	1.228021	-0.251917	-0.076076
C127	C	1.478021	-0.001917	0.173924
C128	C	1.728021	0.248083	0.423924
C129	C	0.978050	-0.577149	-0.326084
C130	C	1.228050	-0.327149	-0.076084
C131	C	1.478050	-0.077149	0.173916
C132	C	1.728050	0.172851	0.423916
C133	C	1.021376	-0.612485	-0.282845
C134	C	1.271376	-0.362485	-0.032845
C135	C	1.521376	-0.112485	0.217155
C136	C	1.771376	0.137515	0.467155
C137	C	1.021404	-0.683174	-0.282860
C138	C	1.271404	-0.433174	-0.032860
C139	C	1.521404	-0.183174	0.217140
C140	C	1.771404	0.066826	0.467140
C141	C	0.978104	-0.718524	-0.326111
C142	C	1.228104	-0.468524	-0.076111
C143	C	1.478104	-0.218524	0.173889
C144	C	1.728104	0.031476	0.423889
C145	C	0.934777	-0.683183	-0.369356
C146	C	1.184777	-0.433183	-0.119356
C147	C	1.434777	-0.183183	0.130644
C148	C	1.684777	0.066817	0.380644
C149	C	0.934752	-0.612496	-0.369344
C150	C	1.184752	-0.362496	-0.119344
C151	C	1.434752	-0.112496	0.130656
C152	C	1.684752	0.137504	0.380656
C153	C	0.934877	-0.968256	-0.369406
C154	C	1.184877	-0.718256	-0.119406
C155	C	1.434877	-0.468256	0.130594
C156	C	1.684877	-0.218256	0.380594
C157	C	0.934904	-1.038948	-0.369413
C158	C	1.184904	-0.788948	-0.119413
C159	C	1.434904	-0.538948	0.130587
C160	C	1.684904	-0.288948	0.380587
C161	C	1.021529	-1.038934	-0.282922
C162	C	1.271529	-0.788934	-0.032922
C163	C	1.521529	-0.538934	0.217078
C164	C	1.771529	-0.288934	0.467078
C165	C	1.021504	-0.968247	-0.282910
C166	C	1.271504	-0.718247	-0.032910
C167	C	1.521504	-0.468247	0.217090
C168	C	1.771504	-0.218247	0.467090
C169	C	0.978180	-0.932912	-0.326157
C170	C	1.228180	-0.682912	-0.076157
C171	C	1.478180	-0.432912	0.173843
C172	C	1.728180	-0.182912	0.423843
C173	C	0.978150	-0.856263	-0.326141
C174	C	1.228150	-0.606263	-0.076141
C175	C	1.478150	-0.356263	0.173859
C176	C	1.728150	-0.106263	0.423859
C177	C	0.978130	-0.795171	-0.326124
C178	C	1.228130	-0.545171	-0.076124
C179	C	1.478130	-0.295171	0.173876
C180	C	1.728130	-0.045171	0.423876
C181	C	1.154640	-0.326074	-0.326131
C182	C	1.404640	-0.076074	-0.076131
C183	C	1.654640	0.173926	0.173869
C184	C	1.904640	0.423926	0.423869
C185	C	1.229872	-0.326080	-0.326140
C186	C	1.479872	-0.076080	-0.076140
C187	C	1.729872	0.173920	0.173860
C188	C	1.979872	0.423920	0.423860
C189	C	0.978127	-0.326014	-0.502651
C190	C	1.228127	-0.076014	-0.252651
C191	C	1.478127	0.173986	-0.002651
C192	C	1.728127	0.423986	0.247349
C193	C	0.978140	-0.325994	-0.577883
C194	C	1.228140	-0.075994	-0.327883
C195	C	1.478140	0.174006	-0.077883
C196	C	1.728140	0.424006	0.172117
C197	C	0.978192	-0.149518	-0.326156
C198	C	1.228192	0.100482	-0.076156
C199	C	1.478192	0.350482	0.173844
C200	C	1.728192	0.600482	0.423844
C201	C	0.978233	-0.074286	-0.326177
C202	C	1.228233	0.175714	-0.076177
C203	C	1.478233	0.425714	0.173823
C204	C	1.728233	0.675714	0.423823
C205	C	0.934885	-0.282696	-0.613233
C206	C	1.184885	-0.032696	-0.363233
C207	C	1.434885	0.217304	-0.113233
C208	C	1.684885	0.467304	0.136767
C209	C	0.934894	-0.282683	-0.683922
C210	C	1.184894	-0.032683	-0.433922
C211	C	1.434894	0.217317	-0.183922
C212	C	1.684894	0.467317	0.066078
C213	C	0.978162	-0.325964	-0.719259
C214	C	1.228162	-0.075964	-0.469259
C215	C	1.478162	0.174036	-0.219259
C216	C	1.728162	0.424036	0.030741
C217	C	1.021419	-0.369267	-0.683904
C218	C	1.271419	-0.119267	-0.433904
C219	C	1.521419	0.130733	-0.183904
C220	C	1.771419	0.380733	0.066096
C221	C	1.021406	-0.369283	-0.613217
C222	C	1.271406	-0.119283	-0.363217
C223	C	1.521406	0.130717	-0.113217
C224	C	1.771406	0.380717	0.136783
C225	C	1.021473	-0.369204	-0.968978
C226	C	1.271473	-0.119204	-0.718978
C227	C	1.521473	0.130796	-0.468978
C228	C	1.771473	0.380796	-0.218978
C229	C	1.021484	-0.369183	-1.039670
C230	C	1.271484	-0.119183	-0.789670
C231	C	1.521484	0.130817	-0.539670
C232	C	1.771484	0.380817	-0.289670
C233	C	0.934961	-0.282603	-1.039682
C234	C	1.184961	-0.032603	-0.789682
C235	C	1.434961	0.217397	-0.539682
C236	C	1.684961	0.467397	-0.289682
C237	C	0.934948	-0.282619	-0.968995
C238	C	1.184948	-0.032619	-0.718995
C239	C	1.434948	0.217381	-0.468995
C240	C	1.684948	0.467381	-0.218995
C241	C	0.978202	-0.325924	-0.933647
C242	C	1.228202	-0.075924	-0.683647
C243	C	1.478202	0.174076	-0.433647
C244	C	1.728202	0.424076	-0.183647
C245	C	0.978190	-0.325939	-0.856998
C246	C	1.228190	-0.075939	-0.606998
C247	C	1.478190	0.174061	-0.356998
C248	C	1.728190	0.424061	-0.106998
C249	C	0.978178	-0.325947	-0.795906
C250	C	1.228178	-0.075947	-0.545906
C251	C	1.478178	0.174053	-0.295906
C252	C	1.728178	0.424053	-0.045906
C253	C	0.978107	-0.326059	-0.150253
C254	C	1.228107	-0.076059	0.099747
C255	C	1.478107	0.173941	0.349747
C256	C	1.728107	0.423941	0.599747
C257	C	0.978225	-0.325888	-0.075021
C258	C	1.228225	-0.075888	0.174979
C259	C	1.478225	0.174112	0.424979
C260	C	1.728225	0.424112	0.674979
H261	H	0.720443	-0.247412	-0.247711
H262	H	0.970443	0.002588	0.002289
H263	H	1.220443	0.252588	0.252289
H264	H	1.470443	0.502588	0.502289
Cl265	Cl	0.880286	-0.568072	-0.423707
Cl266	Cl	1.130286	-0.318072	-0.173707
Cl267	Cl	1.380286	-0.068072	0.076293
Cl268	Cl	1.630286	0.181928	0.326293
H269	H	1.056684	-0.711942	-0.247649
H270	H	1.306684	-0.461942	0.002351
H271	H	1.556684	-0.211942	0.252351
H272	H	1.806684	0.038058	0.502351
H273	H	0.592206	-0.404700	-0.404496
H274	H	0.842206	-0.154700	-0.154496
H275	H	1.092206	0.095300	0.095504
H276	H	1.342206	0.345300	0.345504
H277	H	0.364679	-0.404713	-0.404512
H278	H	0.614679	-0.154713	-0.154512
H279	H	0.864679	0.095287	0.095488
H280	H	1.114679	0.345287	0.345488
H281	H	1.056808	-1.067713	-0.247711
H282	H	1.306808	-0.817713	0.002289
H283	H	1.556808	-0.567713	0.252289
H284	H	1.806808	-0.317713	0.502289
H285	H	0.592198	-0.247424	-0.247724
H286	H	0.842198	0.002576	0.002276
H287	H	1.092198	0.252576	0.252276
H288	H	1.342198	0.502576	0.502276
Cl289	Cl	1.075809	-0.423683	-0.728328
Cl290	Cl	1.325809	-0.173683	-0.478328
Cl291	Cl	1.575809	0.076317	-0.228328
Cl292	Cl	1.825809	0.326317	0.021672
H293	H	0.720439	-0.404697	-0.404481
H294	H	0.970439	-0.154697	-0.154481
H295	H	1.220439	0.095303	0.095519
H296	H	1.470439	0.345303	0.345519
H297	H	0.899740	-0.247344	-1.068472
H298	H	1.149740	0.002656	-0.818472
H299	H	1.399740	0.252656	-0.568472
H300	H	1.649740	0.502656	-0.318472
Cl301	Cl	0.880411	-0.923844	-0.423772
Cl302	Cl	1.130411	-0.673844	-0.173772
Cl303	Cl	1.380411	-0.423844	0.076228
Cl304	Cl	1.630411	-0.173844	0.326228
H305	H	0.364674	-0.247436	-0.247733
H306	H	0.614674	0.002564	0.002267
H307	H	0.864674	0.252564	0.252267
H308	H	1.114674	0.502564	0.502267
H309	H	0.236435	-0.404719	-0.404524
H310	H	0.486435	-0.154719	-0.154524
H311	H	0.736435	0.095281	0.095476
H312	H	0.986435	0.345281	0.345476
H313	H	1.056633	-0.583707	-0.247621
H314	H	1.306633	-0.333707	0.002379
H315	H	1.556633	-0.083707	0.252379
H316	H	1.806633	0.166293	0.502379
Cl317	Cl	1.075783	-0.423720	-0.568777
Cl318	Cl	1.325783	-0.173720	-0.318777
Cl319	Cl	1.575783	0.076280	-0.068777
Cl320	Cl	1.825783	0.326280	0.181223
H321	H	0.236440	-0.247442	-0.247747
H322	H	0.486440	0.002558	0.002253
H323	H	0.736440	0.252558	0.252253
H324	H	0.986440	0.502558	0.502253
Cl325	Cl	1.075941	-0.923810	-0.228535
Cl326	Cl	1.325941	-0.673810	0.021465
Cl327	Cl	1.575941	-0.423810	0.271465
Cl328	Cl	1.825941	-0.173810	0.521465
Cl329	Cl	0.880466	-1.083388	-0.423793
Cl330	Cl	1.130466	-0.833388	-0.173793
Cl331	Cl	1.380466	-0.583388	0.076207
Cl332	Cl	1.630466	-0.333388	0.326207
H333	H	0.899655	-0.247447	-0.584467
H334	H	1.149655	0.002553	-0.334467
H335	H	1.399655	0.252553	-0.084467
H336	H	1.649655	0.502553	0.165533
Cl337	Cl	0.880346	-0.727624	-0.423734
Cl338	Cl	1.130346	-0.477624	-0.173734
Cl339	Cl	1.380346	-0.227624	0.076266
Cl340	Cl	1.630346	0.022376	0.326266
Cl341	Cl	0.880482	-0.228280	-0.728359
Cl342	Cl	1.130482	0.021720	-0.478359
Cl343	Cl	1.380482	0.271720	-0.228359
Cl344	Cl	1.630482	0.521720	0.021641
H345	H	0.899717	-0.247373	-0.940227
H346	H	1.149717	0.002627	-0.690227
H347	H	1.399717	0.252627	-0.440227
H348	H	1.649717	0.502627	-0.190227
Cl349	Cl	1.075881	-0.423600	-1.084093
Cl350	Cl	1.325881	-0.173600	-0.834093
Cl351	Cl	1.575881	0.076400	-0.584093
Cl352	Cl	1.825881	0.326400	-0.334093
Cl353	Cl	1.075854	-0.423639	-0.924549
Cl354	Cl	1.325854	-0.173639	-0.674549
Cl355	Cl	1.575854	0.076361	-0.424549
Cl356	Cl	1.825854	0.326361	-0.174549
