data_functionalizedCrystal
_audit_creation_method	'MofGen! by Chris Wilmer'
_symmetry_space_group_name_H-M	'P1'
_symmetry_Int_Tables_number	1
_symmetry_cell_setting	triclinic
loop_
_symmetry_equiv_pos_as_xyz
  x,y,z
_cell_length_a	19.188930
_cell_length_b	19.188924
_cell_length_c	17.766277
_cell_angle_alpha	89.991559
_cell_angle_beta	89.976758
_cell_angle_gamma	83.143372
loop_
_atom_site_label
_atom_site_type_symbol
_atom_site_fract_x
_atom_site_fract_y
_atom_site_fract_z
O1	O	0.926147	0.087169	-0.062840
O2	O	0.722836	0.098903	-0.062788
O3	O	0.830361	-0.008620	-0.062807
O4	O	0.818622	0.194692	-0.062821
O5	O	0.830342	-0.008625	0.062382
O6	O	0.722817	0.098898	0.062400
O7	O	0.926129	0.087164	0.062349
Cu8	Cu	0.824471	0.093030	0.073805
Cu9	Cu	0.824493	0.093037	-0.074245
O10	O	0.818603	0.194687	0.062367
C11	C	0.696815	0.098521	-0.000188
C12	C	0.619311	0.097380	-0.000168
C13	C	0.574386	0.160471	-0.000184
C14	C	0.501562	0.159399	-0.000192
C15	C	0.473667	0.095233	-0.000199
C16	C	0.518602	0.032134	-0.000179
C17	C	0.591424	0.033207	-0.000163
N18	N	0.365694	0.046188	-0.042833
N19	N	0.296516	0.045172	-0.042850
C20	C	0.254258	0.091995	-0.000245
N21	N	0.283791	0.139882	0.042367
N22	N	0.352976	0.140899	0.042381
C23	C	0.394704	0.094062	-0.000216
C24	C	0.130368	0.153928	-0.000269
C25	C	0.057543	0.152854	-0.000273
C26	C	0.074585	0.025586	-0.000267
C27	C	0.147409	0.026663	-0.000255
C28	C	0.175295	0.090835	-0.000260
C29	C	0.829973	-0.034634	-0.000212
C30	C	0.828834	-0.112138	-0.000209
C31	C	0.828313	-0.148534	-0.068450
C32	C	0.827233	-0.221357	-0.068455
C33	C	0.826688	-0.257783	-0.000216
C34	C	0.827205	-0.221378	0.068033
C35	C	0.828278	-0.148555	0.068037
N36	N	0.864728	-0.377448	0.050563
N37	N	0.863710	-0.446627	0.050555
C38	C	0.823454	-0.477192	-0.000223
N39	N	0.784262	-0.435967	-0.051003
N40	N	0.785283	-0.366783	-0.050997
C41	C	0.825524	-0.336746	-0.000212
C42	C	0.821761	-0.592551	-0.068474
C43	C	0.820676	-0.665374	-0.068476
C44	C	0.820656	-0.665394	0.068014
C45	C	0.821734	-0.592571	0.068014
C46	C	0.822289	-0.556154	-0.000231
C47	C	0.952149	0.087546	-0.000254
C48	C	1.029654	0.088687	-0.000278
C49	C	0.818992	0.220700	-0.000230
C50	C	0.820131	0.298205	-0.000237
N51	N	0.824461	0.093025	0.177936
N52	N	0.824510	0.093036	-0.178375
C53	C	0.872088	0.045437	0.217314
C54	C	0.872092	0.045434	0.296116
C55	C	0.824475	0.093031	0.335536
C56	C	0.776839	0.140622	0.296148
C57	C	0.776831	0.140620	0.217347
C58	C	0.815131	0.156647	0.460371
C59	C	0.815144	0.156651	0.539170
C60	C	0.824494	0.093039	0.578582
C61	C	0.833847	0.029421	0.539187
C62	C	0.833840	0.029418	0.460386
C63	C	0.824478	0.093039	0.420982
C64	C	0.872129	0.045444	0.703407
C65	C	0.872128	0.045440	0.782211
C66	C	0.776878	0.140634	0.782241
C67	C	0.776875	0.140632	0.703439
C68	C	0.824504	0.093038	0.664027
H69	H	0.051874	-0.026659	-0.000319
C70	C	0.452135	0.228807	-0.000219
N71	N	0.414908	0.281085	-0.000243
H72	H	0.183988	-0.024713	-0.000246
C73	C	0.828856	-0.108519	0.143110
N74	N	0.829293	-0.078363	0.199656
C75	C	0.724531	0.193034	0.660120
N76	N	0.685118	0.232521	0.627493
H77	H	0.820207	-0.695051	0.123575
H78	H	0.841453	-0.022381	0.428314
H79	H	0.910878	0.006681	0.328184
C80	C	0.820138	-0.705414	-0.143550
N81	N	0.819747	-0.735575	-0.200097
H82	H	0.495885	-0.020111	-0.000194
C83	C	0.828917	-0.108479	-0.143522
N84	N	0.829371	-0.078308	-0.200068
C85	C	0.822314	-0.552535	0.143085
N86	N	0.822751	-0.522380	0.199632
H87	H	0.910869	0.006682	0.185228
H88	H	0.807532	0.208452	0.571240
C89	C	0.724499	0.192992	0.825598
N90	N	0.685045	0.232429	0.858258
C91	C	0.640845	-0.036201	-0.000150
N92	N	0.678069	-0.088481	-0.000142
H93	H	0.807505	0.208451	0.428288
C94	C	0.161046	0.224519	-0.000265
N95	N	0.184151	0.277688	-0.000261
C96	C	0.008124	0.222263	-0.000280
N97	N	-0.029099	0.274543	-0.000283
C98	C	0.724457	0.192976	0.339511
N99	N	0.684999	0.232408	0.372173
C100	C	0.822361	-0.552488	-0.143545
N101	N	0.822812	-0.522315	-0.200089
C102	C	0.826655	-0.261400	-0.143528
N103	N	0.826219	-0.291558	-0.200073
H104	H	0.826760	-0.251040	0.123593
C105	C	0.844131	-0.040557	0.582535
N106	N	0.851878	-0.093263	0.615188
H107	H	0.910909	0.006687	0.671317
C108	C	0.924513	-0.006926	0.825527
N109	N	0.963967	-0.046371	0.858154
H110	H	0.738046	0.179372	0.185284
H111	H	0.597086	0.212725	-0.000189
