data_functionalizedCrystal
_audit_creation_method	'MofGen! by Chris Wilmer'
_symmetry_space_group_name_H-M	'P1'
_symmetry_Int_Tables_number	1
_symmetry_cell_setting	triclinic
loop_
_symmetry_equiv_pos_as_xyz
  x,y,z
_cell_length_a	6.817900
_cell_length_b	9.514072
_cell_length_c	14.858572
_cell_angle_alpha	90.776379
_cell_angle_beta	104.524003
_cell_angle_gamma	118.843421
loop_
_atom_site_label
_atom_site_type_symbol
_atom_site_fract_x
_atom_site_fract_y
_atom_site_fract_z
V1	V	-4.123443	-0.223218	-0.290692
V2	V	-3.873443	0.026782	-0.040692
V3	V	-3.623443	0.276782	0.209308
V4	V	-3.373443	0.526782	0.459308
O5	O	-4.021919	0.009686	-0.284409
O6	O	-3.771919	0.259686	-0.034409
O7	O	-3.521919	0.509686	0.215591
O8	O	-3.271919	0.759686	0.465591
O9	O	-4.158163	-0.441603	-0.289425
O10	O	-3.908163	-0.191603	-0.039425
O11	O	-3.658163	0.058397	0.210575
O12	O	-3.408163	0.308397	0.460575
O13	O	-4.078948	-0.220240	-0.417144
O14	O	-3.828948	0.029760	-0.167144
O15	O	-3.578948	0.279760	0.082856
O16	O	-3.328948	0.529760	0.332856
O17	O	-4.101682	-0.213208	-0.155806
O18	O	-3.851682	0.036792	0.094194
O19	O	-3.601682	0.286792	0.344194
O20	O	-3.351682	0.536792	0.594194
V21	V	-4.595795	-0.195306	-0.274471
V22	V	-4.345795	0.054694	-0.024471
V23	V	-4.095795	0.304694	0.225529
V24	V	-3.845795	0.554694	0.475529
O25	O	-4.409207	-0.284445	-0.326274
O26	O	-4.159207	-0.034445	-0.076274
O27	O	-3.909207	0.215555	0.173726
O28	O	-3.659207	0.465555	0.423726
O29	O	-4.760229	-0.134079	-0.238889
O30	O	-4.510229	0.115921	0.011111
O31	O	-4.260229	0.365921	0.261111
O32	O	-4.010229	0.615921	0.511111
O33	O	-4.337869	0.023079	-0.275738
O34	O	-4.087869	0.273079	-0.025738
O35	O	-3.837869	0.523079	0.224262
O36	O	-3.587869	0.773079	0.474262
O37	O	-4.814717	-0.428210	-0.280754
O38	O	-4.564717	-0.178210	-0.030754
O39	O	-4.314717	0.071790	0.219246
O40	O	-4.064717	0.321790	0.469246
O41	O	-4.734954	-0.205315	-0.409357
O42	O	-4.484954	0.044685	-0.159357
O43	O	-4.234954	0.294685	0.090643
O44	O	-3.984954	0.544685	0.340643
O45	O	-4.417084	-0.198283	-0.148019
O46	O	-4.167084	0.051717	0.101981
O47	O	-3.917084	0.301717	0.351981
O48	O	-3.667084	0.551717	0.601981
C49	C	-4.023258	-0.494826	-0.285025
C50	C	-3.773258	-0.244826	-0.035025
C51	C	-3.523258	0.005174	0.214975
C52	C	-3.273258	0.255174	0.464975
C53	C	-4.132958	-0.673362	-0.284832
C54	C	-3.882958	-0.423362	-0.034832
C55	C	-3.632958	-0.173362	0.215168
C56	C	-3.382958	0.076638	0.465168
C57	C	-3.922210	-0.212454	-0.447942
C58	C	-3.672210	0.037546	-0.197942
C59	C	-3.422210	0.287546	0.052058
C60	C	-3.172210	0.537546	0.302058
C61	C	-3.967663	-0.211465	-0.551322
C62	C	-3.717663	0.038535	-0.301322
C63	C	-3.467663	0.288535	-0.051322
C64	C	-3.217663	0.538535	0.198678
C65	C	-4.134027	-0.207850	-0.929878
C66	C	-3.884027	0.042150	-0.679878
C67	C	-3.634027	0.292150	-0.429878
C68	C	-3.384027	0.542150	-0.179878
C69	C	-4.087731	-0.208856	-0.824552
C70	C	-3.837731	0.041144	-0.574552
C71	C	-3.587731	0.291144	-0.324552
C72	C	-3.337731	0.541144	-0.074552
C73	C	-4.050847	-0.209659	-0.740604
C74	C	-3.800847	0.040341	-0.490604
C75	C	-3.550847	0.290341	-0.240604
C76	C	-3.300847	0.540341	0.009396
C77	C	-4.004547	-0.210662	-0.635271
C78	C	-3.754547	0.039338	-0.385271
C79	C	-3.504547	0.289338	-0.135271
C80	C	-3.254547	0.539338	0.114729
C81	C	-4.136119	0.076294	-0.280135
C82	C	-3.886119	0.326294	-0.030135
C83	C	-3.636119	0.576294	0.219865
C84	C	-3.386119	0.826294	0.469865
C85	C	-4.005658	0.254828	-0.280334
C86	C	-3.755658	0.504828	-0.030334
C87	C	-3.505658	0.754828	0.219666
C88	C	-3.255658	1.004828	0.469666
C89	C	-4.237166	-0.206074	-0.117216
C90	C	-3.987166	0.043926	0.132784
C91	C	-3.737166	0.293926	0.382784
C92	C	-3.487166	0.543926	0.632784
C93	C	-4.170948	-0.207055	-0.013835
C94	C	-3.920948	0.042945	0.236165
C95	C	-3.670948	0.292945	0.486165
C96	C	-3.420948	0.542945	0.736165
H97	H	-4.325902	-0.748484	-0.288568
H98	H	-4.075902	-0.498484	-0.038568
H99	H	-3.825902	-0.248484	0.211432
H100	H	-3.575902	0.001516	0.461432
H101	H	-3.812720	-0.670054	-0.276585
H102	H	-3.562720	-0.420054	-0.026585
H103	H	-3.312720	-0.170054	0.223415
H104	H	-3.062720	0.079946	0.473415
