data_functionalizedCrystal
_audit_creation_method	'MofGen! by Chris Wilmer'
_symmetry_space_group_name_H-M	'P1'
_symmetry_Int_Tables_number	1
_symmetry_cell_setting	triclinic
loop_
_symmetry_equiv_pos_as_xyz
  x,y,z
_cell_length_a	23.532355
_cell_length_b	23.532407
_cell_length_c	15.500227
_cell_angle_alpha	92.805592
_cell_angle_beta	87.179784
_cell_angle_gamma	82.838088
loop_
_atom_site_label
_atom_site_type_symbol
_atom_site_fract_x
_atom_site_fract_y
_atom_site_fract_z
O1	O	0.757939	0.066339	-0.071834
O2	O	0.592072	0.076372	-0.071863
O3	O	0.680007	-0.011577	-0.071832
O4	O	0.670004	0.154287	-0.071865
O5	O	0.674671	-0.006261	0.072055
O6	O	0.586736	0.081688	0.072024
O7	O	0.752603	0.071655	0.072052
Cu8	Cu	0.669182	0.077157	0.085176
Cu9	Cu	0.675493	0.070870	-0.084987
O10	O	0.664669	0.159603	0.072021
C11	C	0.568188	0.078779	0.000077
C12	C	0.504970	0.078024	0.000067
C13	C	0.677084	-0.030135	0.000114
C14	C	0.676318	-0.093351	0.000120
C15	C	0.110046	0.076186	0.078536
C16	C	0.050646	0.075468	0.078540
O17	O	0.017454	0.077542	0.145243
N18	N	0.023846	0.072215	0.000108
C19	C	0.056450	0.069672	-0.078333
O20	O	0.028201	0.066839	-0.145046
C21	C	0.115849	0.070386	-0.078336
C22	C	0.142645	0.073645	0.000101
C23	C	0.136842	0.079444	0.156967
C24	C	0.196237	0.080162	0.156964
C25	C	0.228836	0.077622	0.078529
C26	C	0.202040	0.074364	0.000098
C27	C	0.148452	0.067839	-0.156776
C28	C	0.207855	0.068553	-0.156772
C29	C	0.234651	0.071812	-0.078334
C30	C	0.294035	0.072542	-0.078341
N31	N	0.320835	0.075795	0.000091
C32	C	0.288235	0.078335	0.078526
C33	C	-0.068292	0.068174	-0.078322
C34	C	-0.127690	0.067465	-0.078320
C35	C	-0.133490	0.073259	0.078553
C36	C	-0.074091	0.073973	0.078551
C37	C	-0.041492	0.071427	0.000110
C38	C	0.412970	0.079844	0.078512
C39	C	0.472371	0.080565	0.078501
C40	C	0.478165	0.074767	-0.078372
C41	C	0.418770	0.074050	-0.078361
C42	C	0.386173	0.076587	0.000088
O43	O	0.327264	0.070467	-0.145010
O44	O	0.316494	0.081161	0.145227
C45	C	0.723554	-0.492465	0.000081
C46	C	0.722843	-0.551865	0.000074
O47	O	0.766631	-0.588619	0.000050
N48	N	0.670565	-0.574482	0.000066
C49	C	0.618996	-0.537695	0.000055
O50	O	0.574465	-0.562387	0.000047
C51	C	0.619708	-0.478296	0.000056
C52	C	0.671989	-0.455682	0.000073
C53	C	0.775830	-0.469850	0.000097
C54	C	0.776541	-0.410454	0.000105
C55	C	0.724976	-0.373672	0.000097
C56	C	0.672700	-0.396286	0.000081
C57	C	0.568140	-0.441510	0.000039
C58	C	0.568857	-0.382108	0.000039
C59	C	0.621137	-0.359495	0.000056
C60	C	0.621845	-0.300107	0.000082
N61	N	0.674123	-0.277491	0.000090
C62	C	0.725688	-0.314273	0.000098
C63	C	0.617505	-0.662437	0.000053
C64	C	0.616792	-0.721835	0.000058
C65	C	0.720639	-0.736001	0.000076
C66	C	0.721351	-0.676602	0.000076
C67	C	0.669782	-0.639820	0.000061
C68	C	0.727177	-0.189536	0.000116
C69	C	0.727883	-0.130133	0.000128
C70	C	0.624037	-0.115973	0.000106
C71	C	0.623330	-0.175370	0.000099
C72	C	0.674905	-0.212151	0.000101
O73	O	0.578080	-0.263319	0.000102
O74	O	0.770212	-0.289573	0.000095
C75	C	0.776487	0.069248	0.000111
C76	C	0.839706	0.070002	0.000115
C77	C	0.667591	0.178161	0.000074
C78	C	0.668358	0.241378	0.000062
N79	N	0.664748	0.081578	0.204859
N80	N	0.679932	0.066444	-0.204670
C81	C	0.702022	0.044325	0.250149
C82	C	0.698674	0.047674	0.340721
C83	C	0.658054	0.088280	0.386001
C84	C	0.620776	0.125535	0.340705
C85	C	0.624122	0.122182	0.250135
C86	C	0.646000	0.100346	0.659464
C87	C	0.642658	0.103697	0.750040
C88	C	0.720555	0.025835	0.750050
C89	C	0.723900	0.022489	0.659478
C90	C	0.686620	0.059742	0.614190
C91	C	0.654632	0.091705	0.478580
C92	C	0.690040	0.056313	0.521613
H93	H	0.494184	0.083221	0.142377
O94	O	0.573970	-0.080218	-0.000057
C95	C	0.574056	-0.048173	-0.074567
H96	H	0.605239	-0.072018	-0.126642
H97	H	0.529072	-0.042147	-0.099598
H98	H	0.587927	-0.004441	-0.057712
O99	O	0.587998	0.158391	0.206042
C100	C	0.620230	0.191438	0.153648
H101	H	0.665426	0.168019	0.140081
H102	H	0.598761	0.198213	0.089960
H103	H	0.622569	0.234802	0.188535
H104	H	-0.041754	0.066106	-0.142202
O105	O	0.770782	-0.771655	0.000114
C106	C	0.817083	-0.738965	0.000100
H107	H	0.801365	-0.693542	0.027345
H108	H	0.851642	-0.759550	0.041875
H109	H	0.835681	-0.737369	-0.068928
H110	H	0.750906	-0.004495	0.786932
H111	H	0.609579	0.136765	0.786903
O112	O	0.827306	-0.388458	0.000263
C113	C	0.828067	-0.351765	0.074771
H114	H	0.796458	-0.363720	0.126857
H115	H	0.873072	-0.356442	0.099785
H116	H	0.815286	-0.305465	0.057921
O117	O	0.609742	0.136459	0.615435
C118	C	0.576723	0.104211	0.563043
H119	H	0.575001	0.060312	0.590352
H120	H	0.531366	0.127654	0.562012
H121	H	0.597102	0.098590	0.494401
H122	H	0.587700	0.158595	0.377577
H123	H	0.769174	-0.219477	0.000114
H124	H	0.723111	0.023250	0.484743
O125	O	0.734948	0.011466	0.384581
C126	C	0.771513	-0.025096	0.325194
H127	H	0.774400	-0.004139	0.260623
H128	H	0.816078	-0.033044	0.351354
H129	H	0.753628	-0.067669	0.315585
O130	O	0.509890	0.072378	-0.154503
C131	C	0.537678	0.121954	-0.159217
H132	H	0.541803	0.141029	-0.091121
H133	H	0.582194	0.110134	-0.192399
H134	H	0.511509	0.154789	-0.197943
H135	H	0.735101	0.011262	0.213288
O136	O	0.778723	-0.108264	0.000103
C137	C	0.824080	-0.153471	0.000126
H138	H	0.809358	-0.194737	-0.027122
H139	H	0.862150	-0.142803	-0.041640
H140	H	0.837410	-0.159426	0.069158
O141	O	0.825976	-0.505493	0.000146
C142	C	0.872262	-0.472784	0.000137
H143	H	0.856526	-0.427363	0.027370
H144	H	0.906822	-0.493352	0.041925
H145	H	0.890866	-0.471189	-0.068888
O146	O	0.381382	0.082238	0.154771
C147	C	0.400862	0.034841	0.202490
H148	H	0.447058	0.018088	0.180178
H149	H	0.398734	0.048615	0.274240
H150	H	0.372548	-0.000507	0.191640
O151	O	0.222176	0.083300	0.233236
C152	C	0.180654	0.085400	0.302455
H153	H	0.141627	0.066010	0.279454
H154	H	0.199555	0.059977	0.357320
H155	H	0.167206	0.131911	0.326566
O156	O	0.615201	0.131225	0.522468
C157	C	0.624963	0.186738	0.500338
H158	H	0.649345	0.184122	0.434575
H159	H	0.582109	0.214895	0.497239
H160	H	0.651327	0.206085	0.551303
O161	O	0.772104	-0.654574	-0.000030
C162	C	0.778396	-0.623401	-0.074563
H163	H	0.734344	-0.609264	-0.099416
H164	H	0.800255	-0.584015	-0.057802
H165	H	0.805677	-0.651717	-0.126739
H166	H	-0.052278	0.076627	0.142422
O167	O	0.105171	0.081809	0.233145
C168	C	0.077359	0.032248	0.237859
H169	H	0.101603	-0.003663	0.193350
H170	H	0.076390	0.018246	0.307236
H171	H	0.031595	0.042082	0.216804
O172	O	0.122394	0.064771	-0.232951
C173	C	0.081465	0.113504	-0.237669
H174	H	0.093001	0.149849	-0.193169
H175	H	0.081109	0.127483	-0.307049
H176	H	0.037188	0.102586	-0.216607
O177	O	0.239432	0.066106	-0.233049
C178	C	0.203040	0.063062	-0.302271
H179	H	0.157387	0.081431	-0.279273
H180	H	0.218452	0.088897	-0.357136
H181	H	0.203855	0.016399	-0.326377
H182	H	0.574220	-0.740240	0.000059
O183	O	0.517345	-0.463445	-0.000137
C184	C	0.488700	-0.447344	-0.074657
H185	H	0.521216	-0.437086	-0.126728
H186	H	0.465600	-0.484107	-0.099686
H187	H	0.456121	-0.407821	-0.057817
O188	O	0.567353	-0.626788	0.000088
C189	C	0.521065	-0.659495	0.000060
H190	H	0.534777	-0.702909	0.027300
H191	H	0.483406	-0.635844	0.041831
H192	H	0.507583	-0.666179	-0.068972
O193	O	-0.165080	0.075751	0.154825
C194	C	-0.128695	0.078762	0.224060
H195	H	-0.087964	0.096458	0.201071
H196	H	-0.151667	0.108232	0.278912
H197	H	-0.117032	0.034032	0.248182
O198	O	-0.153623	0.064278	-0.154592
C199	C	-0.112108	0.062207	-0.223815
H200	H	-0.068157	0.045535	-0.200812
H201	H	-0.123460	0.032320	-0.278669
H202	H	-0.111136	0.107088	-0.247939
H203	H	0.396950	0.071405	-0.142232
H204	H	0.526862	-0.352163	0.000025
H205	H	0.580758	-0.193781	0.000109
H206	H	0.756975	-0.010575	0.622613
