data_functionalizedCrystal
_audit_creation_method	'MofGen! by Chris Wilmer'
_symmetry_space_group_name_H-M	'P1'
_symmetry_Int_Tables_number	1
_symmetry_cell_setting	triclinic
loop_
_symmetry_equiv_pos_as_xyz
  x,y,z
_cell_length_a	18.050582
_cell_length_b	14.908571
_cell_length_c	14.908520
_cell_angle_alpha	89.794039
_cell_angle_beta	93.273823
_cell_angle_gamma	93.308132
loop_
_atom_site_label
_atom_site_type_symbol
_atom_site_fract_x
_atom_site_fract_y
_atom_site_fract_z
Zn1	Zn	-0.504883	-1.353918	-0.437469
Zn2	Zn	-0.387417	-1.345145	-0.587819
Zn3	Zn	-0.373166	-1.203565	-0.428794
Zn4	Zn	-0.504024	-1.194845	-0.579093
O5	O	-0.442372	-1.274368	-0.508294
O6	O	-0.495624	-1.478578	-0.464695
O7	O	-0.281601	-1.326342	-0.566746
O8	O	-0.385034	-1.230830	-0.304122
O9	O	-0.409322	-1.472133	-0.575157
O10	O	-0.481805	-1.341293	-0.310495
O11	O	-0.271132	-1.222323	-0.449911
O12	O	-0.384201	-1.076584	-0.441449
O13	O	-0.608063	-1.215969	-0.560284
O14	O	-0.480342	-1.070178	-0.551873
O15	O	-0.608693	-1.332838	-0.456234
O16	O	-0.408490	-1.317887	-0.712484
O17	O	-0.494161	-1.207463	-0.706073
C18	C	-0.452796	-1.260801	-0.741904
C19	C	-0.457284	-1.255080	-0.841848
C20	C	-0.430633	-1.040756	-0.494774
C21	C	-0.425629	-0.940814	-0.489011
C22	C	-0.636078	-1.274410	-0.508253
C23	C	-0.718624	-1.274427	-0.508236
C24	C	-0.967105	-1.210935	-0.564724
C25	C	-0.912945	-1.193697	-0.481441
C26	C	-1.015742	-1.274511	-0.508108
C27	C	-0.922819	-1.291666	-0.591446
C28	C	-0.869758	-1.274467	-0.508175
C29	C	-0.962665	-1.257233	-0.424779
C30	C	-0.972548	-1.355236	-0.534842
C31	C	-0.918410	-1.338033	-0.451505
C32	C	-1.099840	-1.274534	-0.508070
C33	C	-0.785662	-1.274445	-0.508203
C34	C	-0.249420	-1.274383	-0.508272
C35	C	-0.166872	-1.274554	-0.508046
C36	C	-0.454158	-1.508893	-0.521867
C37	C	-0.459181	-1.608833	-0.527651
C38	C	-0.516219	-0.746381	-0.593346
C39	C	-0.511520	-0.652477	-0.587934
C40	C	-0.411537	-0.659100	-0.472773
C41	C	-0.416236	-0.753004	-0.478185
C42	C	-0.468578	-0.796641	-0.538474
C43	C	-0.473272	-0.890547	-0.543889
C44	C	-0.373293	-0.897169	-0.428724
C45	C	-0.368595	-0.803265	-0.423313
C46	C	-0.376591	-1.359432	-1.036276
C47	C	-0.380806	-1.354059	-1.130183
C48	C	-0.469932	-1.238966	-1.123570
C49	C	-0.465717	-1.244339	-1.029664
C50	C	-0.419044	-1.304573	-0.986020
C51	C	-0.414826	-1.309941	-0.892111
C52	C	-0.503956	-1.194853	-0.885501
C53	C	-0.508170	-1.189480	-0.979408
C54	C	-0.431926	-1.288012	-0.273772
C55	C	-0.427474	-1.293827	-0.173833
H56	H	-0.988492	-1.157155	-0.612507
O57	O	-0.369390	-1.368399	-0.849808
C58	C	-0.295404	-1.347484	-0.871673
H59	H	-0.295165	-1.309018	-0.937889
H60	H	-0.265557	-1.412225	-0.878602
H61	H	-0.265664	-1.304299	-0.816208
H62	H	-0.325982	-0.767723	-0.374225
H63	H	-0.507936	-1.189932	-1.159122
H64	H	-0.334499	-0.938101	-0.384045
H65	H	-0.980232	-1.242627	-0.354304
O66	O	-0.524216	-0.932904	-0.602351
C67	C	-0.596239	-0.911108	-0.581504
H68	H	-0.595580	-0.889457	-0.508191
H69	H	-0.636359	-0.972429	-0.592865
H70	H	-0.615016	-0.853815	-0.626599
H71	H	-0.905158	-1.306195	-0.661897
O72	O	-0.553614	-1.131070	-1.021774
C73	C	-0.627595	-1.151955	-0.999874
H74	H	-0.633847	-1.225263	-0.978142
H75	H	-0.666660	-1.140646	-1.061164
H76	H	-0.642102	-1.106846	-0.942609
O77	O	-0.892946	-1.402045	-0.394293
C78	C	-0.843893	-1.361297	-0.327439
H79	H	-0.820147	-1.294177	-0.353239
H80	H	-0.796629	-1.407082	-0.310383
H81	H	-0.875236	-1.349684	-0.264635
O82	O	-0.339551	-1.407230	-1.179110
C83	C	-0.291406	-1.352992	-1.230556
H84	H	-0.314734	-1.284007	-1.240712
H85	H	-0.286320	-1.385852	-1.298689
H86	H	-0.234234	-1.345260	-1.193869
H87	H	-0.558834	-0.781911	-0.642441
H88	H	-0.338582	-1.408470	-1.000740
H89	H	-0.538522	-1.150181	-0.844571
O90	O	-0.360742	-0.616561	-0.414259
C91	C	-0.366843	-0.522904	-0.421217
H92	H	-0.393500	-0.506062	-0.489922
H93	H	-0.309171	-0.487525	-0.412919
H94	H	-0.402789	-0.499391	-0.366437
H95	H	-0.550316	-0.611558	-0.632615
O96	O	-0.881939	-1.112173	-0.454642
C97	C	-0.906760	-1.045357	-0.514464
H98	H	-0.925349	-1.077313	-0.581993
H99	H	-0.859521	-0.992712	-0.524094
H100	H	-0.955479	-1.012015	-0.485678
H101	H	-0.998578	-1.423501	-0.557453
