data_functionalizedCrystal
_audit_creation_method	'MofGen! by Chris Wilmer'
_symmetry_space_group_name_H-M	'P1'
_symmetry_Int_Tables_number	1
_symmetry_cell_setting	triclinic
loop_
_symmetry_equiv_pos_as_xyz
  x,y,z
_cell_length_a	17.699077
_cell_length_b	10.654550
_cell_length_c	9.130313
_cell_angle_alpha	89.999890
_cell_angle_beta	90.000329
_cell_angle_gamma	83.882740
loop_
_atom_site_label
_atom_site_type_symbol
_atom_site_fract_x
_atom_site_fract_y
_atom_site_fract_z
O1	O	1.005084	0.158764	-0.121776
O2	O	1.505084	0.658764	0.378224
O3	O	0.784836	0.179434	-0.121783
O4	O	1.284836	0.679434	0.378217
O5	O	0.900024	-0.013729	-0.121774
O6	O	1.400024	0.486271	0.378226
O7	O	0.889896	0.351927	-0.121785
O8	O	1.389896	0.851927	0.378215
O9	O	0.900022	-0.013724	0.121825
O10	O	1.400022	0.486276	0.621825
O11	O	0.784835	0.179439	0.121816
O12	O	1.284835	0.679439	0.621816
O13	O	1.005082	0.158770	0.121823
O14	O	1.505082	0.658770	0.621823
Cu15	Cu	0.894958	0.169105	0.144062
Cu16	Cu	1.394958	0.669105	0.644062
Cu17	Cu	0.894960	0.169099	-0.144022
Cu18	Cu	1.394960	0.669099	0.355978
O19	O	0.889895	0.351932	0.121814
O20	O	1.389895	0.851932	0.621814
C21	C	0.756634	0.178697	0.000016
C22	C	1.256634	0.678697	0.500016
C23	C	0.672601	0.176479	0.000013
C24	C	1.172601	0.676479	0.500013
C25	C	0.899279	-0.060511	0.000024
C26	C	1.399279	0.439489	0.500024
C27	C	0.897055	-0.199916	0.000018
C28	C	1.397055	0.300084	0.500018
C29	C	0.964875	-0.280591	0.000025
C30	C	1.464875	0.219409	0.500025
C31	C	0.962780	-0.411575	0.000015
C32	C	1.462780	0.088425	0.500015
C33	C	0.825038	-0.381196	-0.000002
C34	C	1.325038	0.118804	0.499998
C35	C	0.827134	-0.250214	-0.000003
C36	C	1.327134	0.249786	0.499997
C37	C	1.044400	-0.298131	0.000041
C38	C	1.544400	0.201869	0.500041
C39	C	1.042305	-0.429115	0.000031
C40	C	1.542305	0.070885	0.500031
C41	C	0.633126	0.175437	0.132800
C42	C	1.133126	0.675437	0.632800
C43	C	0.554170	0.173332	0.132802
C44	C	1.054170	0.673332	0.632802
C45	C	0.514690	0.172280	0.000015
C46	C	1.014690	0.672280	0.500015
C47	C	0.554171	0.173318	-0.132783
C48	C	1.054171	0.673318	0.367217
C49	C	0.633126	0.175413	-0.132783
C50	C	1.133126	0.675413	0.367217
C51	C	0.235754	0.164867	-0.132785
C52	C	0.735754	0.664867	0.367215
C53	C	0.156793	0.162776	-0.132775
C54	C	0.656793	0.662776	0.367225
C55	C	0.156798	0.162786	0.132800
C56	C	0.656798	0.662786	0.632800
C57	C	0.235753	0.164881	0.132799
C58	C	0.735753	0.664881	0.632799
C59	C	0.275228	0.165913	0.000003
C60	C	0.775228	0.665913	0.500003
C61	C	0.360841	0.168192	0.000003
C62	C	0.860841	0.668192	0.500003
C63	C	0.429078	0.170009	0.000013
C64	C	0.929078	0.670009	0.500013
C65	C	1.033285	0.159506	0.000021
C66	C	1.533285	0.659506	0.500021
C67	C	1.117317	0.161724	0.000014
C68	C	1.617317	0.661724	0.500014
C69	C	0.890639	0.398715	0.000013
C70	C	1.390639	0.898715	0.500013
C71	C	0.892864	0.538119	0.000008
C72	C	1.392864	1.038119	0.500008
N73	N	0.894963	0.169108	0.346684
N74	N	1.394963	0.669108	0.846684
N75	N	0.894962	0.169085	-0.346645
N76	N	1.394962	0.669085	0.153355
C77	C	0.945981	0.083605	0.423340
C78	C	1.445981	0.583605	0.923340
C79	C	0.945979	0.083590	0.576677
C80	C	1.445979	0.583590	1.076677
C81	C	0.843938	0.254593	0.576689
C82	C	1.343938	0.754593	1.076689
C83	C	0.843937	0.254601	0.423355
C84	C	1.343937	0.754601	0.923355
C85	C	1.004896	-0.015119	0.423335
C86	C	1.504896	0.484881	0.923335
C87	C	1.004894	-0.015134	0.576672
C88	C	1.504894	0.484866	1.076672
H89	H	0.771907	-0.184532	-0.000028
H90	H	1.271907	0.315468	0.499972
H91	H	0.768110	-0.422165	-0.000021
H92	H	1.268110	0.077835	0.499979
F93	F	0.789629	0.345589	0.341772
F94	F	1.289629	0.845589	0.841772
F95	F	0.512161	0.172240	0.274133
F96	F	1.012161	0.672240	0.774133
F97	F	1.077488	-0.252133	0.137528
F98	F	1.577488	0.247867	0.637528
H99	H	0.267894	0.165745	0.240929
H100	H	0.767894	0.665745	0.740929
H101	H	0.991974	-0.111425	0.381717
H102	H	1.491974	0.388575	0.881717
H103	H	0.665265	0.176304	0.240931
H104	H	1.165265	0.676304	0.740931
H105	H	1.066339	-0.475182	-0.105148
H106	H	1.566339	0.024818	0.394852
F107	F	1.081466	-0.484388	0.133277
F108	F	1.581466	0.015612	0.633277
H109	H	1.075505	-0.269321	-0.101896
H110	H	1.575505	0.230679	0.398104
H111	H	0.124649	0.161940	0.240929
H112	H	0.624649	0.661940	0.740929
H113	H	0.124650	0.161917	-0.240913
H114	H	0.624650	0.661917	0.259087
F115	F	0.277755	0.165967	-0.274120
F116	F	0.777755	0.665967	0.225880
H117	H	0.522020	0.172452	-0.240901
H118	H	1.022020	0.672452	0.259099
H119	H	1.059846	0.014505	0.375777
H120	H	1.559846	0.514505	0.875777
H121	H	1.063054	0.005364	0.618289
H122	H	1.563054	0.505364	1.118289
F123	F	0.789635	0.345575	0.658298
F124	F	1.289635	0.845575	1.158298
F125	F	0.675138	0.176518	-0.274113
F126	F	1.175138	0.676518	0.225887
F127	F	0.980854	-0.133940	0.638830
F128	F	1.480854	0.366060	1.138830
