data_functionalizedCrystal
_audit_creation_method	'MofGen! by Chris Wilmer'
_symmetry_space_group_name_H-M	'P1'
_symmetry_Int_Tables_number	1
_symmetry_cell_setting	triclinic
loop_
_symmetry_equiv_pos_as_xyz
  x,y,z
_cell_length_a	14.853567
_cell_length_b	15.944551
_cell_length_c	13.330367
_cell_angle_alpha	89.994404
_cell_angle_beta	89.995418
_cell_angle_gamma	83.566834
loop_
_atom_site_label
_atom_site_type_symbol
_atom_site_fract_x
_atom_site_fract_y
_atom_site_fract_z
O1	O	1.196228	0.109665	-0.083357
O2	O	1.696228	0.609665	0.416643
O3	O	0.933752	0.122728	-0.083374
O4	O	1.433752	0.622728	0.416626
O5	O	1.072158	-0.006070	-0.083356
O6	O	1.572158	0.493930	0.416644
O7	O	1.057822	0.238463	-0.083375
O8	O	1.557822	0.738463	0.416625
O9	O	1.072137	-0.006073	0.083491
O10	O	1.572137	0.493927	0.583491
O11	O	0.933732	0.122725	0.083473
O12	O	1.433732	0.622725	0.583473
O13	O	1.196208	0.109662	0.083491
O14	O	1.696208	0.609662	0.583491
Cu15	Cu	1.064968	0.116193	0.098716
Cu16	Cu	1.564968	0.616193	0.598716
Cu17	Cu	1.064992	0.116197	-0.098600
Cu18	Cu	1.564992	0.616197	0.401400
O19	O	1.057802	0.238460	0.083472
O20	O	1.557802	0.738460	0.583472
C21	C	0.900154	0.122135	0.000047
C22	C	1.400154	0.622135	0.500047
C23	C	0.800072	0.120361	0.000041
C24	C	1.300072	0.620361	0.500041
C25	C	0.387646	0.036354	0.000070
C26	C	0.887646	0.536354	0.500070
C27	C	0.366169	0.189369	0.000057
C28	C	0.866169	0.689369	0.500057
C29	C	0.460201	0.191037	0.000054
C30	C	0.960201	0.691037	0.500054
C31	C	0.517960	0.115362	0.000057
C32	C	1.017960	0.615362	0.500057
C33	C	0.481687	0.038019	0.000064
C34	C	0.981687	0.538019	0.500064
C35	C	0.496480	0.268379	0.000037
C36	C	0.996480	0.768379	0.500037
C37	C	0.590517	0.270050	0.000033
C38	C	1.090517	0.770050	0.500033
C39	C	0.648278	0.194374	0.000043
C40	C	1.148278	0.694374	0.500043
C41	C	0.612000	0.117028	0.000051
C42	C	1.112000	0.617028	0.500051
C43	C	0.669759	0.041353	0.000054
C44	C	1.169759	0.541353	0.500054
C45	C	0.633483	-0.035994	0.000069
C46	C	1.133483	0.464006	0.500069
C47	C	0.539448	-0.037657	0.000074
C48	C	1.039448	0.462343	0.500074
C49	C	0.742313	0.196036	0.000038
C50	C	1.242313	0.696036	0.500038
C51	C	0.763800	0.043018	0.000048
C52	C	1.263800	0.543018	0.500048
C53	C	1.071552	-0.037367	0.000068
C54	C	1.571552	0.462633	0.500068
C55	C	1.069768	-0.130615	0.000068
C56	C	1.569768	0.369385	0.500068
C57	C	0.979713	-0.345572	0.000049
C58	C	1.479713	0.154428	0.500049
C59	C	1.021522	-0.406544	0.082317
C60	C	1.521522	0.093456	0.582317
C61	C	1.066541	-0.301344	0.000060
C62	C	1.566541	0.198656	0.500060
C63	C	1.021562	-0.406524	-0.082181
C64	C	1.521562	0.093476	0.417819
C65	C	1.063416	-0.466260	0.000048
C66	C	1.563416	0.033740	0.500048
C67	C	1.108373	-0.361088	0.082397
C68	C	1.608373	0.138912	0.582397
C69	C	1.108401	-0.361062	-0.082175
C70	C	1.608401	0.138938	0.417825
C71	C	1.150273	-0.422017	0.000113
C72	C	1.650273	0.077983	0.500113
C73	C	1.068338	-0.206340	0.000068
C74	C	1.568338	0.293660	0.500068
C75	C	1.061626	-0.561263	0.000048
C76	C	1.561626	-0.061263	0.500048
C77	C	1.229806	0.110255	0.000067
C78	C	1.729806	0.610255	0.500067
C79	C	1.329887	0.112029	0.000067
C80	C	1.829887	0.612029	0.500067
C81	C	1.058407	0.269756	0.000046
C82	C	1.558407	0.769756	0.500046
C83	C	1.060191	0.363004	0.000039
C84	C	1.560191	0.863004	0.500039
N85	N	1.064958	0.116190	0.237498
N86	N	1.564958	0.616190	0.737498
N87	N	1.065009	0.116193	-0.237381
N88	N	1.565009	0.616193	0.262619
C89	C	1.003703	0.173206	0.710113
C90	C	1.503703	0.673206	1.210113
C91	C	1.126305	0.059180	0.710097
C92	C	1.626305	0.559180	1.210097
C93	C	1.126295	0.059178	0.605078
C94	C	1.626295	0.559178	1.105078
C95	C	1.064989	0.116191	0.552572
C96	C	1.564989	0.616191	1.052572
C97	C	1.003693	0.173207	0.605085
C98	C	1.503693	0.673207	1.105085
C99	C	1.187595	0.002169	0.552558
C100	C	1.687595	0.502169	1.052558
C101	C	1.187588	0.002164	0.447534
C102	C	1.687588	0.502164	0.947534
C103	C	1.126277	0.059174	0.395026
C104	C	1.626277	0.559174	0.895026
C105	C	1.064978	0.116192	0.447544
C106	C	1.564978	0.616192	0.947544
C107	C	1.003672	0.173205	0.395038
C108	C	1.503672	0.673205	0.895038
C109	C	0.942368	0.230220	0.447555
C110	C	1.442368	0.730220	0.947555
C111	C	0.942382	0.230217	0.552577
C112	C	1.442382	0.730217	1.052577
C113	C	1.126264	0.059177	0.290004
C114	C	1.626264	0.559177	0.790004
C115	C	1.003662	0.173206	0.290010
C116	C	1.503662	0.673206	0.790010
H117	H	0.358106	-0.026620	0.000086
H118	H	0.858106	0.473380	0.500086
F119	F	0.435006	0.348912	0.000019
F120	F	0.935006	0.848912	0.500019
H121	H	1.176181	0.012761	0.247250
H122	H	1.676181	0.512761	0.747250
H123	H	0.620045	0.333030	0.000020
H124	H	1.120045	0.833030	0.500020
H125	H	0.319136	0.250981	0.000046
H126	H	0.819136	0.750981	0.500046
H127	H	1.237513	-0.044246	0.595312
H128	H	1.737513	0.455754	1.095312
F129	F	0.780918	0.278348	0.000015
F130	F	1.280918	0.778348	0.500015
H131	H	0.907643	-0.312344	0.000126
H132	H	1.407643	0.187656	0.500126
F133	F	1.252830	-0.058515	0.391649
F134	F	1.752830	0.441485	0.891649
F135	F	0.694965	-0.116530	0.000065
F136	F	1.194965	0.383470	0.500065
H137	H	0.984835	-0.426641	-0.151738
H138	H	1.484835	0.073359	0.348262
F139	F	0.877144	0.290893	0.608472
F140	F	1.377144	0.790893	1.108472
F141	F	0.973512	-0.432882	0.173220
F142	F	1.473512	0.067118	0.673220
F143	F	0.500833	-0.119968	0.000086
F144	F	1.000833	0.380032	0.500086
F145	F	0.825265	-0.037528	0.000058
F146	F	1.325265	0.462472	0.500058
F147	F	1.156326	-0.334911	0.173405
F148	F	1.656326	0.165089	0.673405
H149	H	1.222407	-0.455095	0.000165
H150	H	1.722407	0.044905	0.500165
H151	H	1.145102	-0.340890	-0.151725
H152	H	1.645102	0.159110	0.348275
F153	F	0.938458	0.233879	0.766002
F154	F	1.438458	0.733879	1.266002
F155	F	0.938406	0.233885	0.234137
F156	F	1.438406	0.733885	0.734137
F157	F	0.877129	0.290901	0.391663
F158	F	1.377129	0.790901	0.891663
H159	H	1.176223	0.012766	0.752851
H160	H	1.676223	0.512766	1.252851
