data_functionalizedCrystal
_audit_creation_method	'MofGen! by Chris Wilmer'
_symmetry_space_group_name_H-M	'P1'
_symmetry_Int_Tables_number	1
_symmetry_cell_setting	triclinic
loop_
_symmetry_equiv_pos_as_xyz
  x,y,z
_cell_length_a	10.723023
_cell_length_b	9.065218
_cell_length_c	7.540329
_cell_angle_alpha	90.001757
_cell_angle_beta	89.997180
_cell_angle_gamma	95.258283
loop_
_atom_site_label
_atom_site_type_symbol
_atom_site_fract_x
_atom_site_fract_y
_atom_site_fract_z
O1	O	1.658027	-0.206934	-0.147470
O2	O	2.158027	0.293066	0.352530
O3	O	1.294955	-0.226744	-0.147474
O4	O	1.794955	0.273256	0.352526
O5	O	1.483996	-0.002154	-0.147468
O6	O	1.983996	0.497846	0.352532
O7	O	1.468986	-0.431524	-0.147475
O8	O	1.968986	0.068476	0.352525
O9	O	1.483984	-0.002151	0.147497
O10	O	1.983984	0.497849	0.647497
O11	O	1.294944	-0.226741	0.147491
O12	O	1.794944	0.273259	0.647491
O13	O	1.658016	-0.206931	0.147495
O14	O	2.158016	0.293069	0.647495
Cu15	Cu	1.476479	-0.216836	0.174426
Cu16	Cu	1.976479	0.283164	0.674426
Cu17	Cu	1.476492	-0.216839	-0.174404
Cu18	Cu	1.976492	0.283161	0.325596
O19	O	1.468975	-0.431521	0.147490
O20	O	1.968975	0.068479	0.647490
C21	C	1.248444	-0.225301	0.000008
C22	C	1.748444	0.274699	0.500008
C23	C	1.109872	-0.220989	0.000007
C24	C	1.609872	0.279011	0.500007
C25	C	0.904872	-0.214608	0.152801
C26	C	1.404872	0.285392	0.652801
C27	C	1.048093	-0.219065	0.152806
C28	C	1.548093	0.280935	0.652806
C29	C	1.482547	0.052826	0.000012
C30	C	1.982547	0.552826	0.500012
C31	C	1.478234	0.216644	0.000003
C32	C	1.978234	0.716644	0.500003
C33	C	1.704527	-0.208374	0.000009
C34	C	2.204527	0.291626	0.500009
C35	C	1.843099	-0.212687	-0.000001
C36	C	2.343099	0.287313	0.499999
C37	C	1.470423	-0.486501	0.000006
C38	C	1.970423	0.013499	0.500006
C39	C	1.474736	-0.650319	0.000003
C40	C	1.974736	-0.150319	0.500003
N41	N	1.476478	-0.216833	0.419774
N42	N	1.976478	0.283167	0.919774
N43	N	1.476502	-0.216831	-0.419753
N44	N	1.976502	0.283169	0.080247
H45	H	1.101218	-0.220710	0.283625
H46	H	1.601218	0.279290	0.783625
H47	H	0.896242	-0.214350	-0.130815
H48	H	1.396242	0.285650	0.369185
C49	C	0.833083	-0.212374	0.329533
C50	C	1.333083	0.287626	0.829533
N51	N	0.779012	-0.210690	0.462653
N52	N	1.279012	0.289310	0.962653
H53	H	1.056757	-0.219333	-0.130819
H54	H	1.556757	0.280667	0.369181
