data_functionalizedCrystal
_audit_creation_method	'MofGen! by Chris Wilmer'
_symmetry_space_group_name_H-M	'P1'
_symmetry_Int_Tables_number	1
_symmetry_cell_setting	triclinic
loop_
_symmetry_equiv_pos_as_xyz
  x,y,z
_cell_length_a	14.044191
_cell_length_b	14.044190
_cell_length_c	17.766277
_cell_angle_alpha	89.989261
_cell_angle_beta	89.993222
_cell_angle_gamma	93.191777
loop_
_atom_site_label
_atom_site_type_symbol
_atom_site_fract_x
_atom_site_fract_y
_atom_site_fract_z
O1	O	1.277185	0.230203	-0.062573
O2	O	1.777185	0.730203	0.437427
O3	O	1.000512	0.221890	-0.062582
O4	O	1.500512	0.721890	0.437418
O5	O	1.134692	0.087710	-0.062563
O6	O	1.634692	0.587710	0.437437
O7	O	1.143005	0.364383	-0.062593
O8	O	1.643005	0.864383	0.437407
O9	O	1.134666	0.087700	0.062625
O10	O	1.634666	0.587700	0.562625
O11	O	1.000486	0.221880	0.062606
O12	O	1.500486	0.721880	0.562606
O13	O	1.277159	0.230193	0.062615
O14	O	1.777159	0.730193	0.562615
Cu15	Cu	1.138820	0.226036	0.074041
Cu16	Cu	1.638820	0.726036	0.574041
Cu17	Cu	1.138851	0.226047	-0.074009
Cu18	Cu	1.638851	0.726047	0.425991
O19	O	1.142979	0.364373	0.062596
O20	O	1.642979	0.864373	0.562596
C21	C	0.964877	0.218249	0.000011
C22	C	1.464877	0.718249	0.500011
C23	C	0.858734	0.207401	0.000008
C24	C	1.358734	0.707401	0.500008
C25	C	0.613277	0.264502	0.000010
C26	C	1.113277	0.764502	0.500010
C27	C	0.664400	0.187585	0.000016
C28	C	1.164400	0.687585	0.500016
C29	C	0.772537	0.198614	0.000012
C30	C	1.272537	0.698614	0.500012
C31	C	0.505130	0.253475	0.000014
C32	C	1.005130	0.753475	0.500014
C33	C	1.131043	0.052083	0.000033
C34	C	1.631043	0.552083	0.500033
C35	C	1.120195	-0.054060	0.000039
C36	C	1.620195	0.445940	0.500039
C37	C	1.177296	-0.299517	0.000012
C38	C	1.677296	0.200483	0.500012
C39	C	1.100379	-0.248394	0.000014
C40	C	1.600379	0.251606	0.500014
C41	C	1.111408	-0.140257	0.000028
C42	C	1.611408	0.359743	0.500028
C43	C	1.166269	-0.407664	-0.000002
C44	C	1.666269	0.092336	0.499998
C45	C	1.312794	0.233834	0.000020
C46	C	1.812794	0.733834	0.500020
C47	C	1.418937	0.244682	0.000018
C48	C	1.918937	0.744682	0.500018
C49	C	1.146628	0.400000	-0.000002
C50	C	1.646628	0.900000	0.499998
C51	C	1.157476	0.506143	-0.000013
C52	C	1.657476	1.006143	0.499987
N53	N	1.138805	0.226028	0.178172
N54	N	1.638805	0.726028	0.678172
N55	N	1.138873	0.226048	-0.178139
N56	N	1.638873	0.726048	0.321861
C57	C	1.198243	0.166647	0.217567
C58	C	1.698243	0.666647	0.717567
C59	C	1.198249	0.166643	0.296369
C60	C	1.698249	0.666643	0.796369
C61	C	1.138826	0.226037	0.335772
C62	C	1.638826	0.726037	0.835772
C63	C	1.079375	0.285422	0.296367
C64	C	1.579375	0.785422	0.796367
C65	C	1.079365	0.285418	0.217567
C66	C	1.579365	0.785418	0.717567
C67	C	1.133671	0.311928	0.460601
C68	C	1.633671	0.811928	0.960601
C69	C	1.133688	0.311935	0.539400
C70	C	1.633688	0.811935	1.039400
C71	C	1.138852	0.226051	0.578819
C72	C	1.638852	0.726051	1.078819
C73	C	1.144019	0.140158	0.539429
C74	C	1.644019	0.640158	1.039429
C75	C	1.144009	0.140154	0.460629
C76	C	1.644009	0.640154	0.960629
C77	C	1.138830	0.226048	0.421218
C78	C	1.638830	0.726048	0.921218
C79	C	1.198299	0.166660	0.703660
C80	C	1.698299	0.666660	1.203660
C81	C	1.198298	0.166654	0.782463
C82	C	1.698298	0.666654	1.282463
C83	C	1.079430	0.285443	0.782460
C84	C	1.579430	0.785443	1.282460
C85	C	1.079426	0.285440	0.703658
C86	C	1.579426	0.785440	1.203658
C87	C	1.138866	0.226050	0.664263
C88	C	1.638866	0.726050	1.164263
H89	H	0.626955	0.113453	-0.000029
H90	H	1.126955	0.613453	0.499971
Cl91	Cl	0.671086	0.378951	-0.000012
Cl92	Cl	1.171086	0.878951	0.499988
Cl93	Cl	0.985923	-0.306202	0.000010
Cl94	Cl	1.485923	0.193798	0.500010
Cl95	Cl	1.291745	-0.241708	0.000027
Cl96	Cl	1.791745	0.258292	0.500027
H97	H	1.246640	0.118285	0.185494
H98	H	1.746640	0.618285	0.685494
H99	H	1.246652	0.118285	0.328450
H100	H	1.746652	0.618285	0.828450
Cl101	Cl	1.150494	0.032179	0.411113
Cl102	Cl	1.650494	0.532179	0.911113
Cl103	Cl	1.150519	0.032183	0.588975
Cl104	Cl	1.650519	0.532183	1.088975
Cl105	Cl	1.273018	0.091994	0.654133
Cl106	Cl	1.773018	0.591994	1.154133
H107	H	1.246697	0.118294	0.814539
H108	H	1.746697	0.618294	1.314539
H109	H	1.031042	0.333799	0.814542
H110	H	1.531042	0.833799	1.314542
Cl111	Cl	1.004705	0.360100	0.654128
Cl112	Cl	1.504705	0.860100	1.154128
Cl113	Cl	1.127199	0.419913	0.588910
Cl114	Cl	1.627199	0.919913	1.088910
Cl115	Cl	1.127267	0.419918	0.411054
Cl116	Cl	1.627267	0.919918	0.911054
Cl117	Cl	1.004667	0.360086	0.345901
Cl118	Cl	1.504667	0.860086	0.845901
H119	H	1.030962	0.333774	0.185491
H120	H	1.530962	0.833774	0.685491
