data_functionalizedCrystal
_audit_creation_method	'MofGen! by Chris Wilmer'
_symmetry_space_group_name_H-M	'P1'
_symmetry_Int_Tables_number	1
_symmetry_cell_setting	triclinic
loop_
_symmetry_equiv_pos_as_xyz
  x,y,z
_cell_length_a	18.426585
_cell_length_b	14.560438
_cell_length_c	14.560438
_cell_angle_alpha	90.001148
_cell_angle_beta	60.002944
_cell_angle_gamma	59.998786
loop_
_atom_site_label
_atom_site_type_symbol
_atom_site_fract_x
_atom_site_fract_y
_atom_site_fract_z
Zr1	Zr	0.794337	0.884762	-0.120473
O2	O	0.945736	0.738112	-0.267115
O3	O	0.642937	0.929719	-0.075525
O4	O	0.794334	0.929717	-0.267119
O5	O	0.794341	0.738114	0.075618
O6	O	0.794332	1.080858	-0.267117
O7	O	0.794339	0.738113	-0.075521
O8	O	0.523511	1.080861	0.075610
O9	O	1.065162	0.738111	-0.267109
O10	O	0.705208	1.061686	-0.056347
O11	O	0.705211	0.948892	0.056444
O12	O	0.883462	0.948890	-0.169133
O13	O	0.883465	0.836096	-0.056342
Zr14	Zr	0.794337	1.125815	0.120578
Zr15	Zr	0.794333	1.125814	-0.120470
Zr16	Zr	0.794340	0.884763	0.120575
Zr17	Zr	0.984808	0.884761	-0.120464
Zr18	Zr	0.603865	1.125817	0.120569
O19	O	0.945736	1.080858	0.075630
O20	O	0.945731	1.080857	-0.267110
O21	O	0.945741	0.738113	0.075625
O22	O	0.642937	1.272466	0.267219
O23	O	0.642933	1.272464	-0.075520
O24	O	0.642942	0.929721	0.267214
O25	O	0.794332	1.272463	-0.075513
O26	O	0.794339	1.080860	0.267224
O27	O	0.794341	0.929720	0.267221
O28	O	0.794334	1.272464	0.075625
O29	O	1.065160	0.929715	-0.267106
O30	O	0.523513	1.080862	0.267211
O31	O	0.523511	1.272466	0.267214
O32	O	0.523508	1.272465	0.075613
O33	O	1.065165	0.738112	-0.075508
O34	O	1.065162	0.929716	-0.075505
O35	O	0.705211	1.061687	0.169238
O36	O	0.705208	1.174481	0.056447
O37	O	0.883462	1.061685	-0.056339
O38	O	0.883465	0.948891	0.056452
C39	C	0.556086	1.005290	0.000041
C40	C	0.475226	1.005291	0.000037
C41	C	0.794341	1.005290	0.301567
C42	C	0.794342	1.005291	0.403898
C43	C	0.794333	1.306808	0.000057
C44	C	0.794331	1.409141	0.000058
C45	C	0.179116	1.005284	0.000070
C46	C	0.261503	1.005283	0.000063
C47	C	0.327169	1.005287	0.000053
C48	C	0.409560	1.005287	0.000048
C49	C	1.032587	1.005287	0.000064
C50	C	1.113447	1.005287	0.000067
C51	C	0.794341	0.703769	0.000048
C52	C	0.794342	0.601436	0.000046
C53	C	0.701287	1.516096	0.058932
C54	C	0.701291	1.612245	0.058924
C55	C	0.887394	1.494470	-0.058835
C56	C	0.887388	1.398324	-0.058832
C57	C	0.794333	1.005287	-0.301462
C58	C	0.794331	1.005286	-0.403793
C59	C	0.887387	0.946414	0.393103
C60	C	0.887382	0.946408	0.489258
C61	C	0.701279	1.064165	0.606999
C62	C	0.701285	1.064164	0.510845
C63	C	0.556082	1.306810	0.000046
C64	C	0.475220	1.409143	0.000043
C65	C	0.556090	1.005292	0.301555
C66	C	0.475231	1.005293	0.403883
C67	C	0.556086	1.306811	0.301560
C68	C	0.475226	1.409145	0.403889
C69	C	1.032587	0.703766	-0.301455
C70	C	1.113447	0.601432	-0.403784
C71	C	1.032591	0.703768	0.000059
C72	C	1.113453	0.601434	0.000061
C73	C	1.032583	1.005285	-0.301451
C74	C	1.113442	1.005284	-0.403778
C75	C	0.437247	1.398322	-0.058845
C76	C	0.361279	1.494466	-0.058870
C77	C	0.323282	1.601430	0.000001
C78	C	0.361263	1.612249	0.058892
C79	C	0.437234	1.516106	0.058909
C80	C	0.437259	1.064171	0.510825
C81	C	0.361294	1.064168	0.606981
C82	C	0.323298	1.005292	0.596194
C83	C	0.361277	0.946406	0.489241
C84	C	0.437246	0.946404	0.393087
C85	C	0.437251	1.516090	0.393068
C86	C	0.361285	1.612253	0.489207
C87	C	0.323290	1.601468	0.596167
C88	C	0.361272	1.494513	0.606986
C89	C	0.437241	1.398352	0.510847
C90	C	1.151431	0.494487	-0.392963
C91	C	1.227421	0.398325	-0.489103
C92	C	1.265420	0.409109	-0.596062
C93	C	1.227434	0.516065	-0.606881
C94	C	1.151450	0.612225	-0.510743
C95	C	1.151434	0.612255	0.058940
C96	C	1.227423	0.516111	0.058938
C97	C	1.265423	0.409147	0.000064
C98	C	1.227439	0.398328	-0.058822
C99	C	1.151457	0.494471	-0.058826
C100	C	1.151414	1.064172	-0.392955
C101	C	1.227380	1.064193	-0.489093
C102	C	1.265377	1.005319	-0.596054
C103	C	1.227397	0.946430	-0.606875
C104	C	1.151428	0.946416	-0.510738
H105	H	0.625514	1.524910	0.106882
C106	C	1.269209	0.881664	-0.724534
H107	H	1.319900	0.890101	-0.780231
H108	H	1.214681	0.910723	-0.732995
H109	H	1.298866	0.804195	-0.732972
C110	C	0.479054	1.128923	0.522713
H111	H	0.445562	1.163969	0.600181
H112	H	0.466605	1.184647	0.487662
H113	H	0.550788	1.078082	0.487650
H114	H	0.330365	1.485635	-0.106826
H115	H	0.468153	0.898462	0.306013
H116	H	1.258295	1.112145	-0.480260
H117	H	0.963148	0.898463	0.480459
C118	C	0.478985	1.528023	0.123706
H119	H	0.445461	1.605499	0.158771
H120	H	0.550714	1.492967	0.072910
H121	H	0.466513	1.492975	0.179435
H122	H	0.963159	0.898473	0.306026
H123	H	1.120525	0.699302	-0.519567
H124	H	0.261430	1.679778	0.674440
C125	C	1.348986	0.303326	-0.701805
H126	H	1.366150	0.238092	-0.680031
H127	H	1.408274	0.303299	-0.745313
H128	H	1.324071	0.303315	-0.745295
C129	C	0.989747	1.482579	-0.123628
H130	H	0.976427	1.555158	-0.115199
H131	H	1.027958	1.442631	-0.201082
H132	H	1.027999	1.442624	-0.094565
C133	C	1.109678	0.881621	-0.522657
H134	H	1.143201	0.846554	-0.600130
H135	H	1.037948	0.932421	-0.487606
H136	H	1.122152	0.825890	-0.487609
C137	C	1.269190	0.280686	-0.477188
H138	H	1.319895	0.224953	-0.549758
H139	H	1.214644	0.272258	-0.437246
H140	H	1.298819	0.272268	-0.437221
C141	C	0.598942	1.729891	0.123692
H142	H	0.543525	1.722557	0.158769
H143	H	0.595067	1.769851	0.072876
H144	H	0.595083	1.769841	0.179409
C145	C	0.598926	1.128937	0.724639
H146	H	0.612246	1.120518	0.780360
H147	H	0.560689	1.099867	0.733075
H148	H	0.560701	1.206402	0.733063
H149	H	1.120534	0.485645	-0.106769
H150	H	0.625513	1.112108	0.519643
C151	C	0.319509	1.729889	0.477287
H152	H	0.353009	1.722531	0.399815
H153	H	0.331966	1.769856	0.512330
H154	H	0.247775	1.769846	0.512346
C155	C	0.479001	1.280717	0.522758
H156	H	0.529693	1.224982	0.450189
H157	H	0.424448	1.272303	0.562716
H158	H	0.508644	1.272287	0.562711
C159	C	0.239728	1.005311	0.701970
H160	H	0.222553	1.048822	0.767202
H161	H	0.264621	0.930302	0.701990
H162	H	0.180438	1.036849	0.701984
C163	C	0.319450	1.729912	0.123655
H164	H	0.268757	1.785612	0.115215
H165	H	0.373977	1.738369	0.094600
H166	H	0.289793	1.738351	0.201122
H167	H	1.258337	0.524942	0.106894
C168	C	1.348948	1.005333	-0.701794
H169	H	1.366124	1.048830	-0.680019
H170	H	1.324057	1.036856	-0.745302
H171	H	1.408237	0.930315	-0.745286
H172	H	1.120489	1.112114	-0.305871
C173	C	0.319522	1.128949	0.724617
H174	H	0.268845	1.120514	0.780346
H175	H	0.289880	1.206409	0.733043
H176	H	0.374078	1.099870	0.733038
H177	H	0.468184	1.311235	-0.106799
C178	C	1.269232	0.527913	-0.724540
H179	H	1.319914	0.455321	-0.780238
H180	H	1.298873	0.567863	-0.732994
H181	H	1.214687	0.567848	-0.732983
H182	H	0.261420	1.679706	-0.000021
H183	H	1.120496	0.485685	-0.305880
H184	H	0.468176	1.524892	0.305984
H185	H	1.327292	0.330871	0.000076
C186	C	0.319463	0.881663	0.477389
H187	H	0.268772	0.890118	0.549977
H188	H	0.373989	0.804197	0.437442
H189	H	0.289805	0.910759	0.437453
H190	H	0.330324	1.485749	0.694085
H191	H	1.258390	0.311226	-0.106756
C192	C	0.989742	1.280667	-0.123593
H193	H	1.045164	1.287993	-0.158653
H194	H	0.993605	1.240712	-0.179305
H195	H	0.993605	1.240716	-0.072762
C196	C	1.109646	0.729903	0.123708
H197	H	1.143165	0.722562	0.158761
H198	H	1.037919	0.769860	0.179427
H199	H	1.122100	0.769860	0.072884
