data_functionalizedCrystal
_audit_creation_method	'MofGen! by Chris Wilmer'
_symmetry_space_group_name_H-M	'P1'
_symmetry_Int_Tables_number	1
_symmetry_cell_setting	triclinic
loop_
_symmetry_equiv_pos_as_xyz
  x,y,z
_cell_length_a	19.288864
_cell_length_b	13.339070
_cell_length_c	17.766277
_cell_angle_alpha	89.997794
_cell_angle_beta	89.976791
_cell_angle_gamma	99.382770
loop_
_atom_site_label
_atom_site_type_symbol
_atom_site_fract_x
_atom_site_fract_y
_atom_site_fract_z
O1	O	0.945924	0.126087	-0.062840
O2	O	1.445924	0.626087	0.437160
O3	O	0.746977	0.143096	-0.062789
O4	O	1.246977	0.643096	0.437211
O5	O	0.823618	-0.012568	-0.062806
O6	O	1.323618	0.487432	0.437194
O7	O	0.869283	0.281751	-0.062822
O8	O	1.369283	0.781751	0.437178
O9	O	0.823598	-0.012576	0.062383
O10	O	1.323598	0.487424	0.562383
O11	O	0.746957	0.143088	0.062400
O12	O	1.246957	0.643088	0.562400
O13	O	0.945903	0.126079	0.062349
O14	O	1.445903	0.626079	0.562349
Cu15	Cu	0.846428	0.134583	0.073805
Cu16	Cu	1.346428	0.634583	0.573805
Cu17	Cu	0.846452	0.134592	-0.074245
Cu18	Cu	1.346452	0.634592	0.425755
O19	O	0.869263	0.281743	0.062366
O20	O	1.369263	0.781743	0.562366
C21	C	0.720984	0.142544	-0.000188
C22	C	1.220984	0.642544	0.499812
C23	C	0.643560	0.140901	-0.000168
C24	C	1.143560	0.640901	0.499832
C25	C	0.616663	0.232238	-0.000185
C26	C	1.116663	0.732238	0.499815
C27	C	0.543915	0.230694	-0.000193
C28	C	1.043915	0.730694	0.499807
C29	C	0.498067	0.137809	-0.000200
C30	C	0.998067	0.637809	0.499800
C31	C	0.524972	0.046461	-0.000178
C32	C	1.024972	0.546461	0.499822
C33	C	0.597719	0.048007	-0.000163
C34	C	1.097719	0.548007	0.499837
C35	C	0.375583	0.064794	-0.044080
C36	C	0.875583	0.564794	0.455920
C37	C	0.302838	0.063252	-0.044100
C38	C	0.802838	0.563252	0.455900
C39	C	0.273691	0.133037	-0.000245
C40	C	0.773691	0.633037	0.499755
C41	C	0.317301	0.204382	0.043621
C42	C	0.817301	0.704382	0.543621
C43	C	0.390047	0.205928	0.043637
C44	C	0.890047	0.705928	0.543637
C45	C	0.419184	0.136123	-0.000216
C46	C	0.919184	0.636123	0.499784
C47	C	0.167913	0.222706	-0.000270
C48	C	0.667913	0.722706	0.499730
C49	C	0.095163	0.221159	-0.000273
C50	C	0.595163	0.721159	0.499727
C51	C	0.076222	0.036923	-0.000266
C52	C	0.576222	0.536923	0.499734
C53	C	0.148970	0.038473	-0.000255
C54	C	0.648970	0.538473	0.499745
C55	C	0.194812	0.131367	-0.000260
C56	C	0.694812	0.631367	0.499740
C57	C	0.815894	-0.050226	-0.000211
C58	C	1.315894	0.449774	0.499789
C59	C	0.792901	-0.162423	-0.000208
C60	C	1.292901	0.337577	0.499792
C61	C	0.971681	-0.528031	-0.000253
C62	C	1.471681	-0.028031	0.499747
C63	C	0.993286	-0.422617	-0.000252
C64	C	1.493286	0.077383	0.499748
C65	C	0.943192	-0.357563	-0.000241
C66	C	1.443192	0.142437	0.499759
C67	C	0.871489	-0.397934	-0.000231
C68	C	1.371489	0.102066	0.499769
C69	C	0.849881	-0.503359	-0.000227
C70	C	1.349881	-0.003359	0.499773
C71	C	0.821392	-0.332891	-0.000215
C72	C	1.321392	0.167109	0.499785
C73	C	0.749689	-0.373262	-0.000205
C74	C	1.249689	0.126738	0.499795
C75	C	0.728085	-0.478677	-0.000201
C76	C	1.228085	0.021323	0.499799
C77	C	0.778180	-0.543730	-0.000212
C78	C	1.278180	-0.043730	0.499788
C79	C	0.842999	-0.227467	-0.000219
C80	C	1.342999	0.272533	0.499781
C81	C	0.721199	-0.202795	-0.000193
C82	C	1.221199	0.297205	0.499807
C83	C	0.699594	-0.308209	-0.000195
C84	C	1.199594	0.191791	0.499805
C85	C	0.971897	0.126630	-0.000254
C86	C	1.471897	0.626630	0.499746
C87	C	1.049320	0.128273	-0.000278
C88	C	1.549320	0.628273	0.499722
C89	C	0.876987	0.319401	-0.000231
C90	C	1.376987	0.819401	0.499769
C91	C	0.899980	0.431598	-0.000238
C92	C	1.399980	0.931598	0.499762
N93	N	0.846416	0.134575	0.177935
N94	N	1.346416	0.634575	0.677935
N95	N	0.846468	0.134591	-0.178375
N96	N	1.346468	0.634591	0.321625
C97	C	0.880375	0.065681	0.217315
C98	C	1.380375	0.565681	0.717315
C99	C	0.880378	0.065676	0.296116
C100	C	1.380378	0.565676	0.796116
C101	C	0.846433	0.134583	0.335536
C102	C	1.346433	0.634583	0.835536
C103	C	0.812467	0.203483	0.296147
C104	C	1.312467	0.703483	0.796147
C105	C	0.812459	0.203479	0.217347
C106	C	1.312459	0.703479	0.717347
C107	C	0.855080	0.226676	0.460370
C108	C	1.355080	0.726676	0.960370
C109	C	0.855093	0.226682	0.539169
C110	C	1.355093	0.726682	1.039169
C111	C	0.846454	0.134595	0.578582
C112	C	1.346454	0.634595	1.078582
C113	C	0.837815	0.042500	0.539187
C114	C	1.337815	0.542500	1.039187
C115	C	0.837807	0.042496	0.460387
C116	C	1.337807	0.542496	0.960387
C117	C	0.846437	0.134595	0.420982
C118	C	1.346437	0.634595	0.920982
C119	C	0.880417	0.065690	0.703408
C120	C	1.380417	0.565690	1.203408
C121	C	0.880415	0.065684	0.782211
C122	C	1.380415	0.565684	1.282211
C123	C	0.812509	0.203500	0.782240
C124	C	1.312509	0.703500	1.282240
C125	C	0.812506	0.203497	0.703438
C126	C	1.312506	0.703497	1.203438
C127	C	0.846463	0.134593	0.664027
C128	C	1.346463	0.634593	1.164027
H129	H	0.170869	-0.035904	-0.000245
H130	H	0.670869	0.464096	0.499755
Cl131	Cl	0.248024	-0.026428	-0.099253
Cl132	Cl	0.748024	0.473572	0.400747
Cl133	Cl	0.637944	-0.529426	-0.000178
Cl134	Cl	1.137944	-0.029426	0.499822
H135	H	0.073266	0.295539	-0.000282
H136	H	0.573266	0.795539	0.499718
H137	H	0.960787	-0.271731	-0.000240
H138	H	1.460787	0.228269	0.499760
Cl139	Cl	0.609456	-0.358974	-0.000184
Cl140	Cl	1.109456	0.141026	0.499816
H141	H	0.680408	-0.149828	-0.000180
H142	H	1.180408	0.350172	0.499820
Cl143	Cl	0.444867	0.295609	0.098784
Cl144	Cl	0.944867	0.795609	0.598784
H145	H	0.908023	0.009573	0.185228
H146	H	1.408023	0.509573	0.685228
Cl147	Cl	0.923073	-0.020941	0.345630
Cl148	Cl	1.423073	0.479059	0.845630
Cl149	Cl	0.923102	-0.020936	0.653860
Cl150	Cl	1.423102	0.479064	1.153860
Cl151	Cl	1.083423	-0.371872	-0.000281
Cl152	Cl	1.583423	0.128128	0.499719
H153	H	0.862132	0.301671	0.571239
H154	H	1.362132	0.801671	1.071239
Cl155	Cl	0.826958	-0.073274	0.588726
Cl156	Cl	1.326958	0.426726	1.088726
Cl157	Cl	0.467336	-0.070309	-0.000182
Cl158	Cl	0.967336	0.429691	0.499818
H159	H	0.205239	0.298346	-0.000263
H160	H	0.705239	0.798346	0.499737
H161	H	0.653984	0.307880	-0.000191
H162	H	1.153984	0.807880	0.499809
Cl163	Cl	0.510092	0.345526	-0.000212
Cl164	Cl	1.010092	0.845526	0.499788
H165	H	0.830771	-0.032491	0.428314
H166	H	1.330771	0.467509	0.928314
Cl167	Cl	0.769789	0.290105	0.345701
Cl168	Cl	1.269789	0.790105	0.845701
Cl169	Cl	0.923103	-0.020939	0.831719
Cl170	Cl	1.423103	0.479061	1.331719
Cl171	Cl	0.769828	0.290118	0.831791
Cl172	Cl	1.269828	0.790118	1.331791
Cl173	Cl	0.769818	0.290116	0.653928
Cl174	Cl	1.269818	0.790116	1.153928
H175	H	0.862104	0.301669	0.428287
H176	H	1.362104	0.801669	0.928287
H177	H	0.293572	0.261207	0.079333
H178	H	0.793572	0.761207	0.579333
Cl179	Cl	0.412216	-0.022945	-0.099218
Cl180	Cl	0.912216	0.477055	0.400782
Cl181	Cl	0.018591	-0.079849	-0.000265
Cl182	Cl	0.518591	0.420151	0.499735
Cl183	Cl	0.631534	-0.066826	-0.000142
Cl184	Cl	1.131534	0.433174	0.499858
H185	H	0.784805	0.259582	0.185284
H186	H	1.284805	0.759582	0.685284
H187	H	0.901380	-0.194607	-0.000227
H188	H	1.401380	0.305393	0.499773
H189	H	0.760592	-0.629568	-0.000216
H190	H	1.260592	-0.129568	0.499784
Cl191	Cl	1.034648	-0.609815	-0.000253
Cl192	Cl	1.534648	-0.109815	0.499747
