data_functionalizedCrystal
_audit_creation_method	'MofGen! by Chris Wilmer'
_symmetry_space_group_name_H-M	'P1'
_symmetry_Int_Tables_number	1
_symmetry_cell_setting	triclinic
loop_
_symmetry_equiv_pos_as_xyz
  x,y,z
_cell_length_a	16.625547
_cell_length_b	25.639239
_cell_length_c	16.625539
_cell_angle_alpha	90.031255
_cell_angle_beta	90.024822
_cell_angle_gamma	90.038623
loop_
_atom_site_label
_atom_site_type_symbol
_atom_site_fract_x
_atom_site_fract_y
_atom_site_fract_z
Zn1	Zn	1.232590	-0.208151	0.455984
Zn2	Zn	1.232455	-0.295589	0.321145
Zn3	Zn	1.097751	-0.208169	0.321155
Zn4	Zn	1.097684	-0.295557	0.455924
O5	O	1.165120	-0.251866	0.388552
O6	O	1.345404	-0.219755	0.438118
O7	O	1.214558	-0.284013	0.208313
O8	O	1.115723	-0.135001	0.339070
O9	O	1.345305	-0.283995	0.339052
O10	O	1.214788	-0.134988	0.438128
O11	O	1.115592	-0.219786	0.208321
O12	O	0.984910	-0.219755	0.339012
O13	O	1.115607	-0.283941	0.568765
O14	O	0.984860	-0.283959	0.438026
O15	O	1.214722	-0.219724	0.568809
O16	O	1.214492	-0.368750	0.338994
O17	O	1.115477	-0.368726	0.438016
C18	C	0.955629	-0.251856	0.388514
C19	C	0.866008	-0.251864	0.388517
C20	C	0.793225	-0.251865	0.388527
C21	C	0.701917	-0.251868	0.388547
C22	C	0.629141	-0.251873	0.388567
C23	C	0.537826	-0.251877	0.388587
C24	C	1.164984	-0.387709	0.388515
C25	C	1.165000	-0.445823	0.388526
C26	C	1.216812	-0.806185	0.337079
C27	C	1.216843	-0.860790	0.337090
O28	O	1.260755	-0.889026	0.293307
N29	N	1.165262	-0.888105	0.388605
C30	C	1.113651	-0.860814	0.440119
O31	O	1.069781	-0.889062	0.483939
C32	C	1.113625	-0.806210	0.440112
C33	C	1.165204	-0.778898	0.388587
C34	C	1.268387	-0.778873	0.285559
C35	C	1.268355	-0.724272	0.285547
C36	C	1.216747	-0.696984	0.337056
C37	C	1.165171	-0.724297	0.388576
C38	C	1.062019	-0.778920	0.491630
C39	C	1.061997	-0.724313	0.491618
C40	C	1.113576	-0.697000	0.440093
C41	C	1.113531	-0.642409	0.440072
N42	N	1.165112	-0.615093	0.388557
C43	C	1.216720	-0.642381	0.337048
C44	C	1.113712	-0.975484	0.440132
C45	C	1.113734	-1.030087	0.440136
C46	C	1.216927	-1.030059	0.337107
C47	C	1.216900	-0.975456	0.337100
C48	C	1.165293	-0.948169	0.388616
C49	C	1.216648	-0.527716	0.337027
C50	C	1.216608	-0.473111	0.337018
C51	C	1.113418	-0.473143	0.440049
C52	C	1.113454	-0.527744	0.440056
C53	C	1.165076	-0.555029	0.388542
O54	O	1.069644	-0.614138	0.483835
O55	O	1.260591	-0.614126	0.293244
C56	C	1.375429	-0.251877	0.388591
C57	C	1.465050	-0.251881	0.388607
C58	C	1.165172	-0.251827	0.598861
C59	C	1.165195	-0.251811	0.688482
C60	C	1.165278	-0.115493	0.388607
C61	C	1.165345	-0.057379	0.388630
C62	C	1.165114	-0.251867	0.179061
C63	C	1.165248	-0.251737	0.089441
C64	C	1.165232	-0.251752	1.016658
C65	C	1.165219	-0.251770	0.925350
C66	C	1.165214	-0.251782	0.852573
C67	C	1.165200	-0.251799	0.761259
H68	H	1.258684	-0.549925	0.295082
H69	H	1.071397	-0.450917	0.481984
H70	H	1.310357	-0.702037	0.243594
H71	H	1.258610	-0.450874	0.295057
O72	O	1.267047	-0.948869	0.287165
C73	C	1.319104	-0.917244	0.333115
H74	H	1.290630	-0.909052	0.394190
H75	H	1.378858	-0.938250	0.342038
C76	C	1.368683	-0.875449	0.213740
C77	C	1.333708	-0.865384	0.288751
H78	H	1.377696	-0.843461	0.186374
H79	H	1.333614	-0.896757	0.182782
H80	H	1.418475	-0.892956	0.221187
H81	H	1.283913	-0.847885	0.281303
H82	H	1.368769	-0.844072	0.319707
H83	H	1.258952	-1.052287	0.295169
O84	O	1.318656	-0.805300	0.235559
C85	C	1.398986	-0.791880	0.253297
H86	H	1.400575	-0.752230	0.284319
H87	H	1.426159	-0.822579	0.294764
C88	C	1.445931	-0.838011	0.136648
C89	C	1.447883	-0.789310	0.174745
H90	H	1.476094	-0.836428	0.088195
H91	H	1.391812	-0.847054	0.124699
H92	H	1.468573	-0.863588	0.171212
H93	H	1.425232	-0.763735	0.140185
H94	H	1.501999	-0.780262	0.186687
H95	H	1.071725	-1.052320	0.482085
O96	O	1.063494	-0.949061	0.490197
C97	C	1.017992	-0.984884	0.535676
H98	H	1.015247	-1.023821	0.502647
H99	H	1.047487	-0.990649	0.596944
C100	C	0.935528	-0.915809	0.587777
C101	C	0.932150	-0.963630	0.547206
H102	H	0.882578	-0.902698	0.594893
H103	H	0.966185	-0.891673	0.557139
H104	H	0.960110	-0.920619	0.638829
H105	H	0.907578	-0.958818	0.496151
H106	H	0.901487	-0.987765	0.577836
H107	H	1.020014	-0.801148	0.533583
H108	H	1.019973	-0.702098	0.533572
H109	H	1.071457	-0.549983	0.482014
