data_functionalizedCrystal
_audit_creation_method	'MofGen! by Chris Wilmer'
_symmetry_space_group_name_H-M	'P1'
_symmetry_Int_Tables_number	1
_symmetry_cell_setting	triclinic
loop_
_symmetry_equiv_pos_as_xyz
  x,y,z
_cell_length_a	18.050589
_cell_length_b	18.215407
_cell_length_c	18.215399
_cell_angle_alpha	89.982187
_cell_angle_beta	89.976397
_cell_angle_gamma	90.022734
loop_
_atom_site_label
_atom_site_type_symbol
_atom_site_fract_x
_atom_site_fract_y
_atom_site_fract_z
Zn1	Zn	-0.295776	1.125055	-0.416098
Zn2	Zn	-0.045776	1.375055	-0.166098
Zn3	Zn	0.204224	1.625055	0.083902
Zn4	Zn	0.454224	1.875055	0.333902
Zn5	Zn	-0.419971	1.124956	-0.293041
Zn6	Zn	-0.169971	1.374956	-0.043041
Zn7	Zn	0.080029	1.624956	0.206959
Zn8	Zn	0.330029	1.874956	0.456959
Zn9	Zn	-0.295787	1.001987	-0.293050
Zn10	Zn	-0.045787	1.251987	-0.043050
Zn11	Zn	0.204213	1.501987	0.206950
Zn12	Zn	0.454213	1.751987	0.456950
Zn13	Zn	-0.419917	1.001946	-0.416071
Zn14	Zn	-0.169917	1.251946	-0.166071
Zn15	Zn	0.080083	1.501946	0.083929
Zn16	Zn	0.330083	1.751946	0.333929
O17	O	-0.357863	1.063486	-0.354565
O18	O	-0.107863	1.313486	-0.104565
O19	O	0.142137	1.563486	0.145435
O20	O	0.392137	1.813486	0.395435
O21	O	-0.312268	1.228026	-0.399783
O22	O	-0.062268	1.478026	-0.149783
O23	O	0.187732	1.728026	0.100217
O24	O	0.437732	1.978026	0.350217
O25	O	-0.403525	1.108620	-0.190058
O26	O	-0.153525	1.358620	0.059942
O27	O	0.096475	1.608620	0.309942
O28	O	0.346475	1.858620	0.559942
O29	O	-0.191861	1.018371	-0.309388
O30	O	0.058139	1.268371	-0.059388
O31	O	0.308139	1.518371	0.190612
O32	O	0.558139	1.768371	0.440612
O33	O	-0.403514	1.227953	-0.309373
O34	O	-0.153514	1.477953	-0.059373
O35	O	0.096486	1.727953	0.190627
O36	O	0.346486	1.977953	0.440627
O37	O	-0.191853	1.108788	-0.399791
O38	O	0.058147	1.358788	-0.149791
O39	O	0.308147	1.608788	0.100209
O40	O	0.558147	1.858788	0.350209
O41	O	-0.312288	1.018275	-0.190065
O42	O	-0.062288	1.268275	0.059935
O43	O	0.187712	1.518275	0.309935
O44	O	0.437712	1.768275	0.559935
O45	O	-0.312235	0.898998	-0.309361
O46	O	-0.062235	1.148998	-0.059361
O47	O	0.187765	1.398998	0.190639
O48	O	0.437765	1.648998	0.440639
O49	O	-0.403422	1.018301	-0.519059
O50	O	-0.153422	1.268301	-0.269059
O51	O	0.096578	1.518301	-0.019059
O52	O	0.346578	1.768301	0.230941
O53	O	-0.403433	0.898967	-0.399744
O54	O	-0.153433	1.148967	-0.149744
O55	O	0.096567	1.398967	0.100256
O56	O	0.346567	1.648967	0.350256
O57	O	-0.312216	1.108748	-0.519079
O58	O	-0.062216	1.358748	-0.269079
O59	O	0.187784	1.608748	-0.019079
O60	O	0.437784	1.858748	0.230921
O61	O	-0.523888	1.108580	-0.309346
O62	O	-0.273888	1.358580	-0.059346
O63	O	-0.023888	1.608580	0.190654
O64	O	0.226112	1.858580	0.440654
O65	O	-0.523848	1.018205	-0.399735
O66	O	-0.273848	1.268205	-0.149735
O67	O	-0.023848	1.518205	0.100265
O68	O	0.226152	1.768205	0.350265
C69	C	-0.357830	0.872280	-0.354551
C70	C	-0.107830	1.122280	-0.104551
C71	C	0.142170	1.372280	0.145449
C72	C	0.392170	1.622280	0.395449
C73	C	-0.357834	0.790481	-0.354562
C74	C	-0.107834	1.040481	-0.104562
C75	C	0.142166	1.290481	0.145438
C76	C	0.392166	1.540481	0.395438
C77	C	-0.310443	0.525456	-0.401716
C78	C	-0.060443	0.775456	-0.151716
C79	C	0.189557	1.025456	0.098284
C80	C	0.439557	1.275456	0.348284
C81	C	-0.310431	0.602314	-0.401714
C82	C	-0.060431	0.852314	-0.151714
C83	C	0.189569	1.102314	0.098286
C84	C	0.439569	1.352314	0.348286
C85	C	-0.405307	0.602258	-0.307430
C86	C	-0.155307	0.852258	-0.057430
C87	C	0.094693	1.102258	0.192570
C88	C	0.344693	1.352258	0.442570
C89	C	-0.405322	0.525401	-0.307437
C90	C	-0.155322	0.775401	-0.057437
C91	C	0.094678	1.025401	0.192563
C92	C	0.344678	1.275401	0.442563
C93	C	-0.357886	0.487001	-0.354579
C94	C	-0.107886	0.737001	-0.104579
C95	C	0.142114	0.987001	0.145421
C96	C	0.392114	1.237001	0.395421
C97	C	-0.357858	0.640717	-0.354570
C98	C	-0.107858	0.890717	-0.104570
C99	C	0.142142	1.140717	0.145430
C100	C	0.392142	1.390717	0.395430
C101	C	-0.357846	0.724051	-0.354567
C102	C	-0.107846	0.974051	-0.104567
C103	C	0.142154	1.224051	0.145433
C104	C	0.392154	1.474051	0.395433
C105	C	-0.357899	0.403662	-0.354583
C106	C	-0.107899	0.653662	-0.104583
C107	C	0.142101	0.903662	0.145417
C108	C	0.392101	1.153662	0.395417
C109	C	-0.550815	1.063397	-0.354553
C110	C	-0.300815	1.313397	-0.104553
C111	C	-0.050815	1.563397	0.145447
C112	C	0.199185	1.813397	0.395447
C113	C	-0.633361	1.063427	-0.354572
C114	C	-0.383361	1.313427	-0.104572
C115	C	-0.133361	1.563427	0.145428
C116	C	0.116639	1.813427	0.395428
C117	C	-0.832816	1.014329	-0.403709
C118	C	-0.582816	1.264329	-0.153709
C119	C	-0.332816	1.514329	0.096291
C120	C	-0.082816	1.764329	0.346291
C121	C	-0.882255	0.996389	-0.336555
C122	C	-0.632255	1.246389	-0.086555
C123	C	-0.382255	1.496389	0.163445
C124	C	-0.132255	1.746389	0.413445
C125	C	-0.784491	1.063499	-0.354582
C126	C	-0.534491	1.313499	-0.104582
C127	C	-0.284491	1.563499	0.145418
C128	C	-0.034491	1.813499	0.395418
C129	C	-0.882134	1.081475	-0.421743
C130	C	-0.632134	1.331475	-0.171743
C131	C	-0.382134	1.581475	0.078257
C132	C	-0.132134	1.831475	0.328257
C133	C	-0.930476	1.063567	-0.354597
C134	C	-0.680476	1.313567	-0.104597
C135	C	-0.430476	1.563567	0.145403
C136	C	-0.180476	1.813567	0.395403
C137	C	-0.832842	1.045524	-0.287393
C138	C	-0.582842	1.295524	-0.037393
C139	C	-0.332842	1.545524	0.212607
C140	C	-0.082842	1.795524	0.462607
C141	C	-0.832717	1.130641	-0.372626
C142	C	-0.582717	1.380641	-0.122626
C143	C	-0.332717	1.630641	0.127374
C144	C	-0.082717	1.880641	0.377374
C145	C	-0.882133	1.112726	-0.305426
C146	C	-0.632133	1.362726	-0.055426
C147	C	-0.382133	1.612726	0.194574
C148	C	-0.132133	1.862726	0.444574
C149	C	-0.700393	1.063458	-0.354574
C150	C	-0.450393	1.313458	-0.104574
C151	C	-0.200393	1.563458	0.145426
C152	C	0.049607	1.813458	0.395426
C153	C	-1.014572	1.063609	-0.354597
C154	C	-0.764572	1.313609	-0.104597
C155	C	-0.514572	1.563609	0.145403
C156	C	-0.264572	1.813609	0.395403
C157	C	-0.164157	1.063595	-0.354594
C158	C	0.085843	1.313595	-0.104594
C159	C	0.335843	1.563595	0.145406
C160	C	0.585843	1.813595	0.395406
C161	C	-0.081611	1.063642	-0.354606
C162	C	0.168389	1.313642	-0.104606
C163	C	0.418389	1.563642	0.145394
C164	C	0.668389	1.813642	0.395394
C165	C	-0.357811	1.063531	-0.546518
C166	C	-0.107811	1.313531	-0.296518
C167	C	0.142189	1.563531	-0.046518
C168	C	0.392189	1.813531	0.203482
C169	C	-0.357790	1.063550	-0.628317
C170	C	-0.107790	1.313550	-0.378317
C171	C	0.142210	1.563550	-0.128317
C172	C	0.392210	1.813550	0.121683
C173	C	-0.357896	1.255439	-0.354580
C174	C	-0.107896	1.505439	-0.104580
C175	C	0.142104	1.755439	0.145420
C176	C	0.392104	2.005439	0.395420
C177	C	-0.357910	1.337238	-0.354586
C178	C	-0.107910	1.587238	-0.104586
C179	C	0.142090	1.837238	0.145414
C180	C	0.392090	2.087238	0.395414
C181	C	-0.310254	1.110663	-0.816523
C182	C	-0.060254	1.360663	-0.566523
C183	C	0.189746	1.610663	-0.316523
C184	C	0.439746	1.860663	-0.066523
C185	C	-0.310233	1.110672	-0.893382
C186	C	-0.060233	1.360672	-0.643382
C187	C	0.189767	1.610672	-0.393382
C188	C	0.439767	1.860672	-0.143382
C189	C	-0.405210	1.016489	-0.893349
C190	C	-0.155210	1.266489	-0.643349
C191	C	0.094790	1.516489	-0.393349
C192	C	0.344790	1.766489	-0.143349
C193	C	-0.405227	1.016477	-0.816492
C194	C	-0.155227	1.266477	-0.566492
C195	C	0.094773	1.516477	-0.316492
C196	C	0.344773	1.766477	-0.066492
C197	C	-0.357751	1.063568	-0.778081
C198	C	-0.107751	1.313568	-0.528081
C199	C	0.142249	1.563568	-0.278081
C200	C	0.392249	1.813568	-0.028081
C201	C	-0.357712	1.063589	-0.931797
C202	C	-0.107712	1.313589	-0.681797
C203	C	0.142288	1.563589	-0.431797
C204	C	0.392288	1.813589	-0.181797
C205	C	-0.357689	1.063598	-1.015131
C206	C	-0.107689	1.313598	-0.765131
C207	C	0.142311	1.563598	-0.515131
C208	C	0.392311	1.813598	-0.265131
C209	C	-0.357773	1.063558	-0.694742
C210	C	-0.107773	1.313558	-0.444742
C211	C	0.142227	1.563558	-0.194742
C212	C	0.392227	1.813558	0.055258
C213	C	-0.357860	1.063484	-0.163359
C214	C	-0.107860	1.313484	0.086641
C215	C	0.142140	1.563484	0.336641
C216	C	0.392140	1.813484	0.586641
C217	C	-0.357673	1.063607	-0.081560
C218	C	-0.107673	1.313607	0.168440
C219	C	0.142327	1.563607	0.418440
C220	C	0.392327	1.813607	0.668440
H221	H	-0.811162	0.972687	-0.445195
H222	H	-0.561162	1.222687	-0.195195
H223	H	-0.311162	1.472687	0.054805
H224	H	-0.061162	1.722687	0.304805
H225	H	-0.271817	0.494193	-0.440102
H226	H	-0.021817	0.744193	-0.190102
H227	H	0.228183	0.994193	0.059898
H228	H	0.478183	1.244193	0.309898
H229	H	-0.810943	1.187375	-0.387906
H230	H	-0.560943	1.437375	-0.137906
H231	H	-0.310943	1.687375	0.112094
H232	H	-0.060943	1.937375	0.362094
Cl233	Cl	-0.464896	0.957296	-0.941643
Cl234	Cl	-0.214896	1.207296	-0.691643
Cl235	Cl	0.035104	1.457296	-0.441643
Cl236	Cl	0.285104	1.707296	-0.191643
Cl237	Cl	-0.464938	0.957263	-0.768161
Cl238	Cl	-0.214938	1.207263	-0.518161
Cl239	Cl	0.035062	1.457263	-0.268161
Cl240	Cl	0.285062	1.707263	-0.018161
Cl241	Cl	-0.250787	0.650653	-0.460978
Cl242	Cl	-0.000787	0.900653	-0.210978
Cl243	Cl	0.249213	1.150653	0.039022
Cl244	Cl	0.499213	1.400653	0.289022
H245	H	-0.443960	0.494090	-0.269051
H246	H	-0.193960	0.744090	-0.019051
H247	H	0.056040	0.994090	0.230949
H248	H	0.306040	1.244090	0.480949
Cl249	Cl	-0.464934	0.650536	-0.248166
Cl250	Cl	-0.214934	0.900536	0.001834
Cl251	Cl	0.035066	1.150536	0.251834
Cl252	Cl	0.285066	1.400536	0.501834
H253	H	-0.811280	1.030281	-0.230586
H254	H	-0.561280	1.280281	0.019414
H255	H	-0.311280	1.530281	0.269414
H256	H	-0.061280	1.780281	0.519414
Cl257	Cl	-0.915357	1.176972	-0.241224
Cl258	Cl	-0.665357	1.426972	0.008776
Cl259	Cl	-0.415357	1.676972	0.258776
Cl260	Cl	-0.165357	1.926972	0.508776
Cl261	Cl	-0.915849	0.908772	-0.312993
Cl262	Cl	-0.665849	1.158772	-0.062993
Cl263	Cl	-0.415849	1.408772	0.187007
Cl264	Cl	-0.165849	1.658772	0.437007
Cl265	Cl	-0.915566	1.104906	-0.509423
Cl266	Cl	-0.665566	1.354906	-0.259423
Cl267	Cl	-0.415566	1.604906	-0.009423
Cl268	Cl	-0.165566	1.854906	0.240577
Cl269	Cl	-0.250567	1.169860	-0.768237
Cl270	Cl	-0.000567	1.419860	-0.518237
Cl271	Cl	0.249433	1.669860	-0.268237
Cl272	Cl	0.499433	1.919860	-0.018237
H273	H	-0.271555	1.149020	-0.924678
H274	H	-0.021555	1.399020	-0.674678
H275	H	0.228445	1.649020	-0.424678
H276	H	0.478445	1.899020	-0.174678
