data_functionalizedCrystal
_audit_creation_method	'MofGen! by Chris Wilmer'
_symmetry_space_group_name_H-M	'P1'
_symmetry_Int_Tables_number	1
_symmetry_cell_setting	triclinic
loop_
_symmetry_equiv_pos_as_xyz
  x,y,z
_cell_length_a	12.759395
_cell_length_b	13.897448
_cell_length_c	12.759387
_cell_angle_alpha	89.967543
_cell_angle_beta	89.982772
_cell_angle_gamma	90.019229
loop_
_atom_site_label
_atom_site_type_symbol
_atom_site_fract_x
_atom_site_fract_y
_atom_site_fract_z
Zn1	Zn	1.606213	-0.383927	-0.593991
Zn2	Zn	1.606104	-0.545254	-0.418306
Zn3	Zn	1.430521	-0.383979	-0.418328
Zn4	Zn	1.430494	-0.545186	-0.593945
O5	O	1.518333	-0.464586	-0.506142
O6	O	1.753220	-0.405334	-0.570696
O7	O	1.582779	-0.523910	-0.271287
O8	O	1.453884	-0.248990	-0.441659
O9	O	1.753140	-0.523860	-0.441621
O10	O	1.582964	-0.248952	-0.570718
O11	O	1.453778	-0.405422	-0.271304
O12	O	1.283496	-0.405357	-0.441614
O13	O	1.453838	-0.523744	-0.740972
O14	O	1.283477	-0.523795	-0.570639
O15	O	1.582938	-0.405268	-0.741006
O16	O	1.582753	-0.680226	-0.441576
O17	O	1.453733	-0.680177	-0.570617
C18	C	1.245366	-0.464575	-0.506124
C19	C	1.128589	-0.464593	-0.506142
C20	C	1.128607	-0.588122	-0.640278
C21	C	1.073755	-0.649894	-0.707349
C22	C	0.964034	-0.649906	-0.707362
C23	C	0.909161	-0.588137	-0.640299
C24	C	0.964013	-0.526365	-0.573227
C25	C	1.073737	-0.526362	-0.573220
C26	C	0.963995	-0.402832	-0.439098
C27	C	1.073717	-0.402824	-0.439078
C28	C	0.909123	-0.341063	-0.372035
C29	C	0.963974	-0.279294	-0.304957
C30	C	1.073703	-0.279286	-0.304946
C31	C	1.128568	-0.341051	-0.372007
C32	C	1.518256	-0.715201	-0.506112
C33	C	1.518320	-0.822415	-0.506134
C34	C	1.518430	-1.018710	-0.506200
C35	C	1.518366	-0.909477	-0.506167
C36	C	1.792366	-0.464599	-0.506161
C37	C	1.909143	-0.464604	-0.506169
C38	C	1.518397	-0.464493	-0.780176
C39	C	1.518424	-0.464453	-0.896953
C40	C	1.518439	-0.212993	-0.506196
C41	C	1.518484	-0.105779	-0.506219
C42	C	1.652826	-0.587768	-1.116361
C43	C	1.719970	-0.649478	-1.061481
C44	C	1.719935	-0.649515	-0.951759
C45	C	1.652747	-0.587837	-0.896915
C46	C	1.585603	-0.526127	-0.951795
C47	C	1.585647	-0.526095	-1.061519
C48	C	1.451280	-0.402743	-0.951833
C49	C	1.451318	-0.402700	-1.061554
C50	C	1.384092	-0.341065	-0.896988
C51	C	1.316951	-0.279348	-0.951868
C52	C	1.316990	-0.279313	-1.061596
C53	C	1.384174	-0.340989	-1.116434
C54	C	1.518330	-0.464610	-0.233175
C55	C	1.518507	-0.464378	-0.116399
H56	H	1.217909	-0.341053	-0.372002
F57	F	1.384225	-0.340953	-1.233210
H58	H	1.774670	-0.699698	-1.106148
H59	H	0.919373	-0.700201	-0.761982
H60	H	1.262248	-0.229139	-0.907205
H61	H	1.652871	-0.587735	-1.205702
H62	H	0.819820	-0.588144	-0.640324
F63	F	1.245383	-0.588126	-0.640257
F64	F	1.132161	-0.715635	-0.778714
F65	F	0.792347	-0.341071	-0.372056
F66	F	1.245522	-0.213633	-1.119995
H67	H	1.652715	-0.587881	-0.807574
H68	H	0.919289	-0.229002	-0.250364
F69	F	1.132072	-0.213533	-0.233563
H70	H	1.384064	-0.341103	-0.807647
H71	H	1.774615	-0.699760	-0.907077
