data_functionalizedCrystal
_audit_creation_method	'MofGen! by Chris Wilmer'
_symmetry_space_group_name_H-M	'P1'
_symmetry_Int_Tables_number	1
_symmetry_cell_setting	triclinic
loop_
_symmetry_equiv_pos_as_xyz
  x,y,z
_cell_length_a	10.908925
_cell_length_b	14.853567
_cell_length_c	10.065875
_cell_angle_alpha	98.805381
_cell_angle_beta	96.560609
_cell_angle_gamma	108.139206
loop_
_atom_site_label
_atom_site_type_symbol
_atom_site_fract_x
_atom_site_fract_y
_atom_site_fract_z
O1	O	-1.722369	-0.155267	-0.113614
O2	O	-1.348630	-0.084885	-0.113587
O3	O	-1.545483	-0.252812	-0.113606
O4	O	-1.525516	0.012660	-0.113596
O5	O	-1.507946	-0.220685	0.113387
O6	O	-1.311093	-0.052758	0.113405
O7	O	-1.684832	-0.123140	0.113378
Zn8	Zn	-1.492002	-0.082848	0.149431
Zn9	Zn	-1.541459	-0.125177	-0.149641
O10	O	-1.487978	0.044787	0.113396
C11	C	-1.282031	-0.062244	-0.000088
C12	C	-1.139513	-0.042656	-0.000078
C13	C	-1.525811	-0.270201	-0.000113
C14	C	-1.523102	-0.369878	-0.000125
C15	C	-0.943083	-0.093896	-0.000097
C16	C	-1.090380	-0.114140	-0.000086
C17	C	-1.394702	-0.763045	-0.000090
C18	C	-1.628568	-0.819594	-0.000107
C19	C	-1.631118	-0.725946	-0.000115
C20	C	-1.515459	-0.650842	-0.000109
C21	C	-1.397249	-0.669387	-0.000094
C22	C	-1.749324	-0.707391	-0.000116
C23	C	-1.751879	-0.613738	-0.000123
C24	C	-1.636220	-0.538634	-0.000126
C25	C	-1.518005	-0.557184	-0.000113
C26	C	-1.402345	-0.482081	-0.000106
C27	C	-1.284131	-0.500630	-0.000103
C28	C	-1.281589	-0.594283	-0.000097
C29	C	-1.638761	-0.444981	-0.000132
C30	C	-1.404891	-0.388422	-0.000110
C31	C	-0.751430	-0.145781	-0.000115
C32	C	-0.893945	-0.165370	-0.000105
C33	C	-1.507652	0.062176	-0.000099
C34	C	-1.510362	0.161851	-0.000096
N35	N	-1.458259	-0.053961	0.353540
N36	N	-1.575213	-0.154072	-0.353749
C37	C	-1.529711	-0.115131	0.421312
C38	C	-1.503751	-0.092894	0.578482
H39	H	-0.876106	-0.017718	-0.000105
H40	H	-1.655605	-0.222912	0.587922
H41	H	-1.735008	-0.429881	-0.000125
Cl42	Cl	-1.334130	0.052310	0.443593
Cl43	Cl	-1.259483	-0.294014	-0.000113
Cl44	Cl	-1.036121	0.074968	-0.000086
Cl45	Cl	-0.997347	-0.282990	-0.000114
H46	H	-1.722731	-0.880746	-0.000101
H47	H	-1.157356	-0.190325	-0.000094
H48	H	-1.848137	-0.598646	-0.000127
Cl49	Cl	-1.138735	-0.406203	-0.000083
Cl50	Cl	-1.132992	-0.617611	-0.000097
H51	H	-1.298456	-0.778154	-0.000092
H52	H	-1.843486	-0.768544	-0.000109
Cl53	Cl	-1.653543	-0.221564	0.331260
Cl54	Cl	-1.379617	0.013383	0.668530
