data_functionalizedCrystal
_audit_creation_method	'MofGen! by Chris Wilmer'
_symmetry_space_group_name_H-M	'P1'
_symmetry_Int_Tables_number	1
_symmetry_cell_setting	triclinic
loop_
_symmetry_equiv_pos_as_xyz
  x,y,z
_cell_length_a	27.354012
_cell_length_b	27.353283
_cell_length_c	27.349551
_cell_angle_alpha	60.005606
_cell_angle_beta	60.011434
_cell_angle_gamma	59.993282
loop_
_atom_site_label
_atom_site_type_symbol
_atom_site_fract_x
_atom_site_fract_y
_atom_site_fract_z
O1	O	0.067635	-0.714267	0.597330
O2	O	0.567635	-0.214267	1.097330
O3	O	0.025429	-0.556105	0.481282
O4	O	0.525429	-0.056105	0.981282
O5	O	0.125575	-0.656186	0.481214
O6	O	0.625575	-0.156186	0.981214
O7	O	-0.032512	-0.614186	0.597397
O8	O	0.467488	-0.114186	1.097397
O9	O	0.158797	-0.622968	0.514367
O10	O	0.658797	-0.122968	1.014367
O11	O	0.058650	-0.522887	0.514434
O12	O	0.558650	-0.022887	1.014434
O13	O	0.100856	-0.681048	0.630482
O14	O	0.600856	-0.181048	1.130482
Zn15	Zn	0.085028	-0.596693	0.577722
Zn16	Zn	0.585028	-0.096693	1.077722
Zn17	Zn	0.041257	-0.640460	0.534042
Zn18	Zn	0.541257	-0.140460	1.034042
O19	O	0.000709	-0.580967	0.630549
O20	O	0.500709	-0.080967	1.130549
N21	N	0.114901	-0.566828	0.607534
N22	N	0.614901	-0.066828	1.107534
N23	N	0.011389	-0.670331	0.504229
N24	N	0.511389	-0.170331	1.004229
C25	C	0.179404	-0.338196	0.672015
C26	C	0.679404	0.161804	1.172015
C27	C	0.179501	-0.502386	0.836160
C28	C	0.679501	-0.002386	1.336160
C29	C	0.179415	-0.502363	0.671996
C30	C	0.679415	-0.002363	1.171996
C31	C	0.343611	-0.502373	0.671960
C32	C	0.843611	-0.002373	1.171960
C33	C	0.197478	-0.392371	0.690061
C34	C	0.697478	0.107629	1.190061
C35	C	0.197534	-0.484321	0.781984
C36	C	0.697534	0.015679	1.281984
C37	C	0.289434	-0.484312	0.690032
C38	C	0.789434	0.015688	1.190032
C39	C	0.197486	-0.484308	0.690051
C40	C	0.697486	0.015692	1.190051
C41	C	0.156398	-0.269238	0.649045
C42	C	0.656398	0.230762	1.149045
C43	C	0.156418	-0.525342	0.649015
C44	C	0.656418	-0.025342	1.149015
C45	C	0.220484	-0.461329	0.713032
C46	C	0.720484	0.038671	1.213032
C47	C	0.443889	-0.485097	0.619172
C48	C	0.943889	0.014903	1.119172
C49	C	0.506571	-0.505993	0.598266
C50	C	1.006571	-0.005993	1.098266
C51	C	0.506589	-0.607412	0.636940
C52	C	1.006589	-0.107412	1.136940
C53	C	0.443909	-0.586515	0.657848
C54	C	0.943909	-0.086515	1.157848
C55	C	0.171510	-0.237888	0.587422
C56	C	0.671510	0.262112	1.087422
C57	C	0.150593	-0.175201	0.566543
C58	C	0.650593	0.324799	1.066543
C59	C	0.099458	-0.175218	0.668913
C60	C	0.599458	0.324782	1.168913
C61	C	0.120375	-0.237905	0.689792
C62	C	0.620375	0.262095	1.189792
C63	C	0.094789	-0.510201	0.664176
C64	C	0.594789	-0.010201	1.164176
C65	C	0.073888	-0.531091	0.643278
C66	C	0.573888	-0.031091	1.143278
C67	C	0.176239	-0.582263	0.592072
C68	C	0.676239	-0.082263	1.092072
C69	C	0.197142	-0.561373	0.612963
C70	C	0.697142	-0.061373	1.112963
C71	C	0.094933	-0.510244	0.936476
C72	C	0.594933	-0.010244	1.436476
C73	C	0.074073	-0.531151	0.999161
C74	C	0.574073	-0.031151	1.499161
C75	C	0.176453	-0.582335	0.999126
C76	C	0.676453	-0.082335	1.499126
C77	C	0.197312	-0.561429	0.936439
C78	C	0.697312	-0.061429	1.436439
C79	C	0.156551	-0.525382	0.905116
C80	C	0.656551	-0.025382	1.405116
C81	C	0.412561	-0.525357	0.648961
C82	C	0.912561	-0.025357	1.148961
C83	C	-0.098513	-0.688235	0.485867
C84	C	0.401487	-0.188235	0.985867
C85	C	-0.006461	-0.688368	0.394066
C86	C	0.493539	-0.188368	0.894066
C87	C	-0.006645	-0.780264	0.486040
C88	C	0.493355	-0.280264	0.986040
C89	C	-0.006630	-0.688361	0.486097
C90	C	0.493370	-0.188361	0.986097
C91	C	-0.029562	-0.711308	0.463018
C92	C	0.470438	-0.211308	0.963018
N93	N	0.537030	-0.566846	0.607436
N94	N	1.037030	-0.066846	1.107436
O95	O	0.741877	-0.576849	0.459995
O96	O	1.241877	-0.076849	0.959995
O97	O	0.742050	-0.693241	0.618010
O98	O	1.242050	-0.193241	1.118010
O99	O	0.741986	-0.692977	0.517791
O100	O	1.241986	-0.192977	1.017791
O101	O	0.741941	-0.577114	0.560214
O102	O	1.241941	-0.077114	1.060214
O103	O	0.642405	-0.659839	0.551046
O104	O	1.142405	-0.159839	1.051046
O105	O	0.642469	-0.660104	0.651265
O106	O	1.142469	-0.160104	1.151265
O107	O	0.642296	-0.543712	0.493251
O108	O	1.142296	-0.043712	0.993251
Zn109	Zn	0.626572	-0.596646	0.577538
Zn110	Zn	1.126572	-0.096646	1.077538
Zn111	Zn	0.757774	-0.640307	0.533723
Zn112	Zn	1.257774	-0.140307	1.033723
O113	O	0.642360	-0.543976	0.593469
O114	O	1.142360	-0.043976	1.093469
N115	N	0.847316	-0.670107	0.503818
N116	N	1.347316	-0.170107	1.003818
N117	N	0.114877	-0.144758	0.607577
N118	N	0.614877	0.355242	1.107577
O119	O	-0.032498	0.060193	0.597441
O120	O	0.467502	0.560193	1.097441
O121	O	0.125523	0.060193	0.481067
O122	O	0.625523	0.560193	0.981067
O123	O	0.025289	0.060179	0.481345
O124	O	0.525289	0.560179	0.981345
O125	O	0.067736	0.060207	0.597163
O126	O	0.567736	0.560207	1.097163
O127	O	0.058511	-0.039410	0.514543
O128	O	0.558511	0.460590	1.014543
O129	O	0.158745	-0.039397	0.514265
O130	O	0.658745	0.460603	1.014265
O131	O	0.000724	-0.039396	0.630638
O132	O	0.500724	0.460604	1.130638
Zn133	Zn	0.085009	-0.055208	0.577722
Zn134	Zn	0.585009	0.444792	1.077722
Zn135	Zn	0.041238	0.076005	0.533983
Zn136	Zn	0.541238	0.576005	1.033983
O137	O	0.100958	-0.039382	0.630360
O138	O	0.600958	0.460618	1.130360
N139	N	0.011362	0.165555	0.504130
N140	N	0.511362	0.665555	1.004130
N141	N	0.115121	-0.566884	1.029592
N142	N	0.615121	-0.066884	1.529592
O143	O	0.104990	-0.714248	1.234528
O144	O	0.604990	-0.214248	1.734528
O145	O	-0.011371	-0.556177	1.234539
O146	O	0.488629	-0.056177	1.734539
O147	O	-0.011103	-0.656395	1.234497
O148	O	0.488897	-0.156395	1.734497
O149	O	0.104722	-0.614030	1.234569
O150	O	0.604722	-0.114030	1.734569
O151	O	0.022090	-0.623190	1.134913
O152	O	0.522090	-0.123190	1.634913
O153	O	0.021822	-0.522972	1.134954
O154	O	0.521822	-0.022972	1.634954
O155	O	0.138182	-0.681044	1.134943
O156	O	0.638182	-0.181044	1.634943
Zn157	Zn	0.085272	-0.596736	1.119137
Zn158	Zn	0.585272	-0.096736	1.619137
Zn159	Zn	0.041539	-0.640484	1.250344
Zn160	Zn	0.541539	-0.140484	1.750344
O161	O	0.137914	-0.580826	1.134984
O162	O	0.637914	-0.080826	1.634984
N163	N	0.011689	-0.670343	1.339890
N164	N	0.511689	-0.170343	1.839890
C165	C	0.038085	-0.519567	0.481870
C166	C	0.538085	-0.019567	0.981870
C167	C	0.162104	-0.643505	0.481786
C168	C	0.662104	-0.143505	0.981786
C169	C	0.088200	-0.717587	0.629893
C170	C	0.588200	-0.217587	1.129893
C171	C	-0.035819	-0.593649	0.629977
C172	C	0.464181	-0.093649	1.129977
C173	C	0.692280	-0.692701	0.654545
C174	C	1.192280	-0.192701	1.154545
C175	C	0.692203	-0.692374	0.530435
C176	C	1.192203	-0.192374	1.030435
C177	C	0.692063	-0.544251	0.456717
C178	C	1.192063	-0.044251	0.956717
C179	C	0.692144	-0.544580	0.580825
C180	C	1.192144	-0.044580	1.080825
C181	C	0.162000	0.010521	0.481600
C182	C	0.662000	0.510521	0.981600
C183	C	0.037914	0.010381	0.481984
C184	C	0.537914	0.510381	0.981984
C185	C	-0.035795	0.010399	0.630065
C186	C	0.464205	0.510399	1.130065
C187	C	0.088333	0.010415	0.629722
C188	C	0.588333	0.510415	1.129722
C189	C	-0.010799	-0.519660	1.184747
C190	C	0.489201	-0.019660	1.684747
C191	C	-0.010461	-0.643761	1.184677
C192	C	0.489539	-0.143761	1.684677
C193	C	0.137610	-0.717561	1.184734
C194	C	0.637610	-0.217561	1.684734
C195	C	0.137280	-0.593452	1.184783
C196	C	0.637280	-0.093452	1.684783
H197	H	0.061737	-0.480889	0.910978
H198	H	0.561737	0.019111	1.410978
H199	H	0.028825	0.010378	0.445599
H200	H	0.528825	0.510378	0.945599
H201	H	0.174144	-0.762957	1.184724
H202	H	0.674144	-0.262957	1.684724
O203	O	-0.053929	-0.654459	1.184627
O204	O	0.446071	-0.154459	1.684627
C205	C	-0.105587	-0.603018	1.184591
C206	C	0.394413	-0.103018	1.684591
H207	H	-0.105103	-0.574441	1.203491
H208	H	0.394897	-0.074441	1.703491
H209	H	-0.106270	-0.575979	1.136802
H210	H	0.393730	-0.075979	1.636802
C211	C	-0.162343	-0.657052	1.200361
C212	C	0.337657	-0.157052	1.700361
C213	C	-0.161751	-0.621957	1.223579
C214	C	0.338249	-0.121957	1.723579
H215	H	-0.196988	-0.668734	1.224408
H216	H	0.303012	-0.168734	1.724408
H217	H	-0.127540	-0.691709	1.200383
H218	H	0.372460	-0.191709	1.700383
H219	H	-0.162910	-0.634515	1.160537
H220	H	0.337090	-0.134515	1.660537
H221	H	-0.161176	-0.644497	1.263399
H222	H	0.338824	-0.144497	1.763399
H223	H	-0.196555	-0.587304	1.223565
H224	H	0.303445	-0.087304	1.723565
H225	H	0.207290	0.010797	0.444973
H226	H	0.707290	0.510797	0.944973
H227	H	0.029071	-0.474132	0.445424
H228	H	0.529071	0.025868	0.945424
H229	H	0.097215	-0.763020	0.666340
H230	H	0.597215	-0.263020	1.166340
H231	H	0.207509	-0.652460	0.445301
H232	H	0.707509	-0.152460	0.945301
O233	O	0.180636	-0.582537	1.184773
O234	O	0.680636	-0.082537	1.684773
C235	C	0.158823	-0.523679	1.184801
C236	C	0.658823	-0.023679	1.684801
H237	H	0.120387	-0.495339	1.165941
H238	H	0.620387	0.004661	1.665941
H239	H	0.142124	-0.524561	1.232582
H240	H	0.642124	-0.024561	1.732582
C241	C	0.256685	-0.531284	1.168928
C242	C	0.756685	-0.031284	1.668928
C243	C	0.209479	-0.496475	1.145759
C244	C	0.709479	0.003525	1.645759
H245	H	0.287932	-0.514503	1.144847
H246	H	0.787932	-0.014503	1.644847
H247	H	0.271380	-0.570938	1.168911
H248	H	0.771380	-0.070938	1.668911
H249	H	0.242761	-0.532016	1.208744
H250	H	0.742761	-0.032016	1.708744
H251	H	0.223402	-0.495750	1.105946
H252	H	0.723402	0.004250	1.605946
H253	H	0.194787	-0.456820	1.145768
H254	H	0.694787	0.043180	1.645768
O255	O	-0.089980	0.010438	0.673576
O256	O	0.410020	0.510438	1.173576
C257	C	-0.127251	0.010418	0.652033
C258	C	0.372749	0.510418	1.152033
H259	H	-0.111044	0.029256	0.601028
H260	H	0.388956	0.529256	1.101028
H261	H	-0.125636	-0.037360	0.667268
H262	H	0.374364	0.462640	1.167268
C263	C	-0.211944	0.026351	0.739463
C264	C	0.288056	0.526351	1.239463
C265	C	-0.192041	0.049493	0.676818
C266	C	0.307959	0.549493	1.176818
H267	H	-0.251910	0.050452	0.754754
H268	H	0.248090	0.550452	1.254754
H269	H	-0.186834	0.026362	0.753979
H270	H	0.313166	0.526362	1.253979
H271	H	-0.210593	-0.013464	0.752151
H272	H	0.289407	0.486536	1.252151
H273	H	-0.193385	0.089304	0.664132
H274	H	0.306615	0.589304	1.164132
H275	H	-0.217153	0.049490	0.662301
H276	H	0.282847	0.549490	1.162301
O277	O	-0.090011	-0.582864	0.673449
O278	O	0.409989	-0.082864	1.173449
C279	C	-0.127220	-0.524030	0.651793
C280	C	0.372780	-0.024030	1.151793
H281	H	-0.098383	-0.495600	0.613340
H282	H	0.401617	0.004400	1.113340
H283	H	-0.157459	-0.524938	0.635160
H284	H	0.342541	-0.024938	1.135160
C285	C	-0.201389	-0.531861	0.749776
C286	C	0.298611	-0.031861	1.249776
C287	C	-0.165971	-0.496940	0.702551
C288	C	0.334029	0.003060	1.202551
H289	H	-0.225295	-0.515151	0.781086
H290	H	0.274705	-0.015151	1.281086
H291	H	-0.176322	-0.571499	0.764367
H292	H	0.323678	-0.071499	1.264367
H293	H	-0.226583	-0.532614	0.735908
H294	H	0.273417	-0.032614	1.235908
H295	H	-0.140773	-0.496193	0.716417
H296	H	0.359227	0.003807	1.216417
H297	H	-0.191035	-0.457301	0.687964
H298	H	0.308965	0.042699	1.187964
O299	O	0.692362	-0.736238	0.708708
O300	O	1.192362	-0.236238	1.208708
C301	C	0.692354	-0.714673	0.745980
C302	C	1.192354	-0.214673	1.245980
H303	H	0.711167	-0.676217	0.717193
H304	H	1.211167	-0.176217	1.217193
H305	H	0.644587	-0.698069	0.776239
H306	H	1.144587	-0.198069	1.276239
C307	C	0.708350	-0.812725	0.820061
C308	C	1.208350	-0.312725	1.320061
C309	C	0.731461	-0.765496	0.784705
C310	C	1.231461	-0.265496	1.284705
H311	H	0.732470	-0.844075	0.843951
H312	H	1.232470	-0.344075	1.343951
H313	H	0.708353	-0.827254	0.794952
H314	H	1.208353	-0.327254	1.294952
H315	H	0.668544	-0.798881	0.845272
H316	H	1.168544	-0.298881	1.345272
H317	H	0.771263	-0.779339	0.759490
H318	H	1.271263	-0.279339	1.259490
H319	H	0.731466	-0.750970	0.809811
H320	H	1.231466	-0.250970	1.309811
O321	O	0.692247	-0.735873	0.519700
O322	O	1.192247	-0.235873	1.019700
C323	C	0.692295	-0.787551	0.571110
C324	C	1.192295	-0.287551	1.071110
H325	H	0.711166	-0.787033	0.599692
H326	H	1.211166	-0.287033	1.099692
H327	H	0.644537	-0.788295	0.598155
H328	H	1.144537	-0.288295	1.098155
C329	C	0.708189	-0.844334	0.517016
C330	C	1.208189	-0.344334	1.017016
C331	C	0.731372	-0.843700	0.552120
C332	C	1.231372	-0.343700	1.052120
H333	H	0.732291	-0.878969	0.505303
H334	H	1.232291	-0.378969	1.005303
H335	H	0.708154	-0.809517	0.482381
H336	H	1.208154	-0.309517	0.982381
H337	H	0.668391	-0.844951	0.539560
H338	H	1.168391	-0.344951	1.039560
H339	H	0.771166	-0.843075	0.529574
H340	H	1.271166	-0.343075	1.029574
H341	H	0.731414	-0.878518	0.586751
H342	H	1.231414	-0.378518	1.086751
O343	O	0.692022	-0.500727	0.402539
O344	O	1.192022	-0.000727	0.902539
C345	C	0.691993	-0.522280	0.365280
C346	C	1.191993	-0.022280	0.865280
H347	H	0.710891	-0.573286	0.381473
H348	H	1.210891	-0.073286	0.881473
H349	H	0.644208	-0.507088	0.366931
H350	H	1.144208	-0.007088	0.866931
C351	C	0.707770	-0.434801	0.280588
C352	C	1.207770	0.065199	0.780588
C353	C	0.730986	-0.497447	0.300473
C354	C	1.230986	0.002553	0.800473
H355	H	0.731820	-0.419481	0.240611
H356	H	1.231820	0.080519	0.740611
H357	H	0.707787	-0.420279	0.305690
H358	H	1.207787	0.079721	0.805690
H359	H	0.667950	-0.422149	0.281969
H360	H	1.167950	0.077851	0.781969
H361	H	0.770802	-0.510098	0.299099
H362	H	1.270802	-0.010098	0.799099
H363	H	0.730976	-0.511970	0.275369
H364	H	1.230976	-0.011970	0.775369
O365	O	0.099280	0.010386	0.673077
O366	O	0.599280	0.510386	1.173077
C367	C	0.158134	0.010401	0.651260
C368	C	0.658134	0.510401	1.151260
H369	H	0.186449	-0.008448	0.612820
H370	H	0.686449	0.491552	1.112820
H371	H	0.157247	0.058179	0.634562
H372	H	0.657247	0.558179	1.134562
C373	C	0.150594	-0.005509	0.749125
C374	C	0.650594	0.494491	1.249125
C375	C	0.185373	-0.028665	0.701914
C376	C	0.685373	0.471335	1.201914
H377	H	0.167397	-0.029604	0.780370
H378	H	0.667397	0.470396	1.280370
H379	H	0.110943	-0.005517	0.763823
H380	H	0.610943	0.494483	1.263823
H381	H	0.149858	0.034305	0.735202
H382	H	0.649858	0.534305	1.235202
H383	H	0.186103	-0.068475	0.715836
H384	H	0.686103	0.431525	1.215836
H385	H	0.225026	-0.028665	0.687219
H386	H	0.725026	0.471335	1.187219
H387	H	0.692134	-0.508185	0.589902
H388	H	1.192134	-0.008185	1.089902
O389	O	-0.054326	-0.465477	1.184776
O390	O	0.445674	0.034523	1.684776
C391	C	-0.032770	-0.428217	1.184785
C392	C	0.467230	0.071783	1.684785
H393	H	0.005665	-0.457017	1.203649
H394	H	0.505665	0.042983	1.703649
H395	H	-0.016144	-0.397979	1.137015
H396	H	0.483856	0.102021	1.637015
C397	C	-0.130806	-0.354086	1.200672
C398	C	0.369194	0.145914	1.700672
C399	C	-0.083603	-0.389459	1.223847
C400	C	0.416397	0.110541	1.723847
H401	H	-0.162162	-0.330176	1.224765
H402	H	0.337838	0.169824	1.724765
H403	H	-0.145329	-0.379188	1.200664
H404	H	0.354671	0.120812	1.700664
H405	H	-0.116943	-0.328893	1.160864
H406	H	0.383057	0.171107	1.660864
H407	H	-0.097464	-0.414657	1.263651
H408	H	0.402536	0.085343	1.763651
H409	H	-0.069083	-0.364361	1.223863
H410	H	0.430917	0.135639	1.723863
H411	H	0.023897	-0.518815	1.024687
H412	H	0.523897	-0.018815	1.524687
H413	H	0.209648	-0.611676	1.024626
H414	H	0.709648	-0.111676	1.524626
H415	H	0.061625	-0.480862	0.693528
H416	H	0.561625	0.019138	1.193528
O417	O	0.257185	-0.576240	0.906044
O418	O	0.757185	-0.076240	1.406044
C419	C	0.283232	-0.639026	0.921335
C420	C	0.783232	-0.139026	1.421335
H421	H	0.253531	-0.660968	0.966850
H422	H	0.753531	-0.160968	1.466850
H423	H	0.287882	-0.653202	0.886054
H424	H	0.787882	-0.153202	1.386054
C425	C	0.382002	-0.631873	0.868313
C426	C	0.882002	-0.131873	1.368313
C427	C	0.345525	-0.658822	0.924217
C428	C	0.845525	-0.158822	1.424217
H429	H	0.420428	-0.644084	0.870088
H430	H	0.920428	-0.144084	1.370088
H431	H	0.364454	-0.589572	0.858009
H432	H	0.864454	-0.089572	1.358009
H433	H	0.385870	-0.643688	0.838917
H434	H	0.885870	-0.143688	1.338917
H435	H	0.341651	-0.647001	0.953610
H436	H	0.841651	-0.147001	1.453610
H437	H	0.363073	-0.701122	0.934527
H438	H	0.863073	-0.201122	1.434527
O439	O	0.215884	-0.617241	0.557038
O440	O	0.715884	-0.117241	1.057038
C441	C	0.274760	-0.626139	0.548156
C442	C	0.774760	-0.126139	1.048156
H443	H	0.274650	-0.588351	0.555164
H444	H	0.774650	-0.088351	1.055164
H445	H	0.292739	-0.670800	0.581510
H446	H	0.792739	-0.170800	1.081510
C447	C	0.315071	-0.672989	0.475323
C448	C	0.815071	-0.172989	0.975323
C449	C	0.314936	-0.626574	0.483926
C450	C	0.814936	-0.126574	0.983926
H451	H	0.339854	-0.673260	0.435704
H452	H	0.839854	-0.173260	0.935704
H453	H	0.275405	-0.666997	0.481309
H454	H	0.775405	-0.166997	0.981309
H455	H	0.330052	-0.710201	0.503122
H456	H	0.830052	-0.210201	1.003122
H457	H	0.299948	-0.589362	0.456133
H458	H	0.799948	-0.089362	0.956133
H459	H	0.354600	-0.632560	0.477935
H460	H	0.854600	-0.132560	0.977935
O461	O	0.014027	-0.516315	0.657901
O462	O	0.514027	-0.016315	1.157901
C463	C	-0.001153	-0.484757	0.605244
C464	C	0.498847	0.015243	1.105244
H465	H	0.034167	-0.463539	0.567583
H466	H	0.534167	0.036461	1.067583
H467	H	-0.003241	-0.516982	0.592045
H468	H	0.496759	-0.016982	1.092045
C469	C	-0.106009	-0.461475	0.662683
C470	C	0.393991	0.038525	1.162683
C471	C	-0.062630	-0.435410	0.616429
C472	C	0.437370	0.064590	1.116429
H473	H	-0.143932	-0.431037	0.669582
H474	H	0.356068	0.068963	1.169582
H475	H	-0.095782	-0.482738	0.698159
H476	H	0.404218	0.017262	1.198159
H477	H	-0.107741	-0.488329	0.651678
H478	H	0.392259	0.011671	1.151678
H479	H	-0.060893	-0.408563	0.627438
H480	H	0.439107	0.091437	1.127438
H481	H	-0.072858	-0.414142	0.580955
H482	H	0.427142	0.085858	1.080955
H483	H	0.418403	-0.619300	0.682106
H484	H	0.918403	-0.119300	1.182106
O485	O	0.257002	-0.575973	0.598169
O486	O	0.757002	-0.075973	1.098169
C487	C	0.272121	-0.523297	0.566635
C488	C	0.772121	-0.023297	1.066635
H489	H	0.236763	-0.485638	0.545439
H490	H	0.736763	0.014362	1.045439
H491	H	0.274214	-0.510111	0.598871
H492	H	0.774214	-0.010111	1.098871
C493	C	0.377001	-0.580693	0.543310
C494	C	0.877001	-0.080693	1.043310
C495	C	0.333576	-0.534441	0.517272
C496	C	0.833576	-0.034441	1.017272
H497	H	0.414911	-0.587568	0.512861
H498	H	0.914911	-0.087568	1.012861
H499	H	0.366816	-0.616182	0.564556
H500	H	0.866816	-0.116182	1.064556
H501	H	0.378738	-0.569699	0.570172
H502	H	0.878738	-0.069699	1.070172
H503	H	0.331835	-0.545439	0.490416
H504	H	0.831835	-0.045439	0.990416
H505	H	0.343763	-0.498954	0.496019
H506	H	0.843763	0.001046	0.996019
H507	H	0.532080	-0.473208	0.574011
H508	H	1.032080	0.026792	1.074011
O509	O	0.537107	-0.666816	0.645602
O510	O	1.037107	-0.166816	1.145602
C511	C	0.573377	-0.688544	0.679696
C512	C	1.073377	-0.188544	1.179696
H513	H	0.582764	-0.649848	0.674786
H514	H	1.082764	-0.149848	1.174786
H515	H	0.549241	-0.710139	0.728819
H516	H	1.049241	-0.210139	1.228819
C517	C	0.621388	-0.782905	0.663245
C518	C	1.121388	-0.282905	1.163245
C519	C	0.632922	-0.735379	0.657210
C520	C	1.132922	-0.235379	1.157210
H521	H	0.658117	-0.811797	0.649377
H522	H	1.158117	-0.311797	1.149377
H523	H	0.596951	-0.768268	0.640277
H524	H	1.096951	-0.268268	1.140277
H525	H	0.601273	-0.800894	0.704182
H526	H	1.101273	-0.300894	1.204182
H527	H	0.653029	-0.717386	0.616273
H528	H	1.153029	-0.217386	1.116273
H529	H	0.657363	-0.750014	0.680171
H530	H	1.157363	-0.250014	1.180171
O531	O	0.413502	-0.425663	0.610438
O532	O	0.913502	0.074337	1.110438
C533	C	0.428783	-0.393322	0.548546
C534	C	0.928783	0.106678	1.048546
H535	H	0.474289	-0.420714	0.523858
H536	H	0.974289	0.079286	1.023858
H537	H	0.393492	-0.383967	0.531468
H538	H	0.893492	0.116033	1.031468
C539	C	0.375783	-0.299986	0.567682
C540	C	0.875783	0.200014	1.067682
C541	C	0.431678	-0.333628	0.537360
C542	C	0.931678	0.166372	1.037360
H543	H	0.377567	-0.263162	0.560781
H544	H	0.877567	0.236838	1.060781
H545	H	0.365486	-0.321774	0.609380
H546	H	0.865486	0.178226	1.109380
H547	H	0.346380	-0.292196	0.553447
H548	H	0.846380	0.207804	1.053447
H549	H	0.461078	-0.341423	0.551601
H550	H	0.961078	0.158577	1.051601
H551	H	0.441980	-0.311839	0.495664
H552	H	0.941980	0.188161	0.995664
O553	O	0.206473	-0.268230	0.547758
O554	O	0.706473	0.231770	1.047758
C555	C	0.215332	-0.227116	0.488889
C556	C	0.715332	0.272884	0.988889
H557	H	0.177533	-0.182434	0.489015
H558	H	0.677533	0.317566	0.989015
H559	H	0.259982	-0.220445	0.470917
H560	H	0.759982	0.279555	0.970917
C561	C	0.262182	-0.306455	0.448535
C562	C	0.762182	0.193545	0.948535
C563	C	0.215753	-0.251576	0.448689
C564	C	0.715753	0.248424	0.948689
H565	H	0.262445	-0.321543	0.423736
H566	H	0.762445	0.178457	0.923736
H567	H	0.256216	-0.334155	0.488196
H568	H	0.756216	0.165845	0.988196
H569	H	0.299385	-0.300888	0.433560
H570	H	0.799385	0.199112	0.933560
H571	H	0.178551	-0.257145	0.463671
H572	H	0.678551	0.242855	0.963671
H573	H	0.221714	-0.223878	0.409029
H574	H	0.721714	0.276122	0.909029
H575	H	0.162897	-0.149674	0.516363
H576	H	0.662897	0.350326	1.016363
H577	H	0.108067	-0.263426	0.739970
H578	H	0.608067	0.236574	1.239970
O579	O	0.064454	-0.144871	0.708574
O580	O	0.564454	0.355129	1.208574
C581	C	0.055623	-0.185986	0.767443
C582	C	0.555623	0.314014	1.267443
H583	H	0.062631	-0.230670	0.767329
H584	H	0.562631	0.269330	1.267329
H585	H	0.089003	-0.192652	0.785386
H586	H	0.589003	0.307348	1.285386
C587	C	-0.017188	-0.106649	0.807808
C588	C	0.482812	0.393351	1.307808
C589	C	-0.008586	-0.161529	0.807667
C590	C	0.491414	0.338471	1.307667
H591	H	-0.056794	-0.091563	0.832621
H592	H	0.443206	0.408437	1.332621
H593	H	-0.011237	-0.078949	0.768147
H594	H	0.488763	0.421051	1.268147
H595	H	0.010633	-0.112212	0.822758
H596	H	0.510633	0.387788	1.322758
H597	H	-0.036402	-0.155964	0.792709
H598	H	0.463598	0.344036	1.292709
H599	H	-0.014544	-0.189228	0.847327
H600	H	0.485456	0.310772	1.347327
