data_functionalizedCrystal
_audit_creation_method	'MofGen! by Chris Wilmer'
_symmetry_space_group_name_H-M	'P1'
_symmetry_Int_Tables_number	1
_symmetry_cell_setting	triclinic
loop_
_symmetry_equiv_pos_as_xyz
  x,y,z
_cell_length_a	14.519709
_cell_length_b	11.792241
_cell_length_c	13.596369
_cell_angle_alpha	89.999475
_cell_angle_beta	89.999684
_cell_angle_gamma	83.936780
loop_
_atom_site_label
_atom_site_type_symbol
_atom_site_fract_x
_atom_site_fract_y
_atom_site_fract_z
O1	O	-1.224415	-0.148773	0.081664
O2	O	-0.891081	0.184561	0.414997
O3	O	-0.557748	0.517894	0.748330
O4	O	-0.956002	-0.166294	0.081694
O5	O	-0.622668	0.167040	0.415027
O6	O	-0.289335	0.500373	0.748360
O7	O	-1.096722	0.007673	0.081671
O8	O	-0.763388	0.341007	0.415004
O9	O	-0.430055	0.674340	0.748338
O10	O	-1.083695	-0.322740	0.081686
O11	O	-0.750361	0.010594	0.415020
O12	O	-0.417028	0.343927	0.748353
O13	O	-1.096704	0.007664	-0.081912
O14	O	-0.763371	0.340997	0.251421
O15	O	-0.430038	0.674331	0.584755
O16	O	-0.955984	-0.166303	-0.081889
O17	O	-0.622651	0.167030	0.251444
O18	O	-0.289318	0.500363	0.584778
O19	O	-1.224397	-0.148782	-0.081919
O20	O	-0.891064	0.184551	0.251414
O21	O	-0.557731	0.517884	0.584747
Zn22	Zn	-1.090188	-0.157544	-0.107877
Zn23	Zn	-0.756855	0.175789	0.225457
Zn24	Zn	-0.423521	0.509122	0.558790
Zn25	Zn	-1.090211	-0.157532	0.107651
Zn26	Zn	-0.756878	0.175802	0.440984
Zn27	Zn	-0.423544	0.509135	0.774318
O28	O	-1.083677	-0.322749	-0.081897
O29	O	-0.750344	0.010584	0.251437
O30	O	-0.417011	0.343917	0.584770
C31	C	-0.921630	-0.165482	-0.000094
C32	C	-0.588297	0.167852	0.333239
C33	C	-0.254964	0.501185	0.666573
C34	C	-0.819240	-0.163035	-0.000083
C35	C	-0.485907	0.170298	0.333251
C36	C	-0.152573	0.503632	0.666584
N37	N	-1.090179	-0.157552	-0.254968
N38	N	-0.756846	0.175781	0.078365
N39	N	-0.423512	0.509114	0.411698
C40	C	-1.258769	-0.149594	-0.000129
C41	C	-0.925435	0.183739	0.333204
C42	C	-0.592102	0.517073	0.666537
C43	C	-1.361159	-0.152041	-0.000134
C44	C	-1.027826	0.181292	0.333199
C45	C	-0.694492	0.514626	0.666532
C46	C	-0.444311	-0.154027	-0.000128
C47	C	-0.110978	0.179306	0.333206
C48	C	0.222355	0.512640	0.666539
C49	C	-0.548628	-0.156528	-0.000115
C50	C	-0.215295	0.176805	0.333218
C51	C	0.118038	0.510138	0.666552
C52	C	-0.631772	-0.158531	-0.000104
C53	C	-0.298439	0.174803	0.333229
C54	C	0.034894	0.508136	0.666562
C55	C	-0.736096	-0.161033	-0.000093
C56	C	-0.402763	0.172301	0.333240
C57	C	-0.069429	0.505634	0.666573
C58	C	-1.095895	0.049955	-0.000120
C59	C	-0.762562	0.383288	0.333213
C60	C	-0.429228	0.716622	0.666547
C61	C	-1.093446	0.175955	-0.000119
C62	C	-0.760112	0.509289	0.333215
C63	C	-0.426779	0.842622	0.666548
C64	C	-1.084504	-0.365031	-0.000103
C65	C	-0.751171	-0.031698	0.333230
C66	C	-0.417837	0.301636	0.666563
C67	C	-1.086953	-0.491031	-0.000098
C68	C	-0.753620	-0.157698	0.333235
C69	C	-0.420287	0.175636	0.666569
C70	C	-1.088942	0.406642	-0.000102
C71	C	-0.755608	0.739976	0.333232
C72	C	-0.422275	1.073309	0.666565
C73	C	-1.091444	0.278271	-0.000111
C74	C	-0.758111	0.611604	0.333222
C75	C	-0.424777	0.944938	0.666556
C76	C	-1.090184	-0.157555	-0.343966
C77	C	-0.756850	0.175778	-0.010633
C78	C	-0.423517	0.509112	0.322700
C79	C	-1.090193	-0.157547	-0.455618
C80	C	-0.756859	0.175786	-0.122284
C81	C	-0.423526	0.509120	0.211049
C82	C	-1.090205	-0.157534	-0.544608
C83	C	-0.756871	0.175799	-0.211275
C84	C	-0.423538	0.509132	0.122059
C85	C	-1.090215	-0.157527	-0.656267
C86	C	-0.756882	0.175806	-0.322933
C87	C	-0.423548	0.509139	0.010400
N88	N	-1.090227	-0.157515	0.254743
N89	N	-0.756894	0.175819	0.588076
N90	N	-0.423560	0.509152	0.921410
