data_functionalizedCrystal
_audit_creation_method	'MofGen! by Chris Wilmer'
_symmetry_space_group_name_H-M	'P1'
_symmetry_Int_Tables_number	1
_symmetry_cell_setting	triclinic
loop_
_symmetry_equiv_pos_as_xyz
  x,y,z
_cell_length_a	10.654550
_cell_length_b	9.730223
_cell_length_c	10.654550
_cell_angle_alpha	89.999807
_cell_angle_beta	95.515097
_cell_angle_gamma	90.003749
loop_
_atom_site_label
_atom_site_type_symbol
_atom_site_fract_x
_atom_site_fract_y
_atom_site_fract_z
O1	O	1.667834	0.114399	-0.176393
O2	O	1.302355	0.114377	-0.193199
O3	O	1.493498	0.114383	-0.002057
O4	O	1.476692	0.114393	-0.367535
O5	O	1.493496	-0.114197	-0.002062
O6	O	1.302353	-0.114203	-0.193204
O7	O	1.667832	-0.114181	-0.176398
Zn8	Zn	1.485092	-0.150484	-0.184802
Zn9	Zn	1.485095	0.150680	-0.184795
O10	O	1.476689	-0.114187	-0.367540
C11	C	1.255556	0.000084	-0.191968
C12	C	1.116113	0.000075	-0.188276
N13	N	1.485099	-0.356020	-0.184805
C14	C	1.036627	0.000098	-0.300817
C15	C	0.905607	0.000122	-0.297341
C16	C	0.933570	0.000106	-0.068771
C17	C	1.064588	0.000072	-0.072249
C18	C	1.020482	0.000114	-0.432780
C19	C	0.889461	0.000137	-0.429304
C20	C	1.569759	-0.427943	-0.100197
C21	C	1.569756	-0.571826	-0.100181
C22	C	1.400429	-0.571850	-0.269395
C23	C	1.400427	-0.427970	-0.269403
C24	C	1.654431	-0.355994	-0.015599
C25	C	1.739099	-0.427917	0.069016
C26	C	1.739096	-0.571800	0.069031
C27	C	1.654425	-0.643760	-0.015568
C28	C	1.714631	0.000115	-0.177630
C29	C	1.854074	0.000133	-0.181321
C30	C	1.492263	0.000095	0.044739
C31	C	1.488571	0.000100	0.184182
N32	N	1.485098	0.356216	-0.184782
C33	C	1.477925	0.000104	-0.414336
C34	C	1.481616	0.000109	-0.553779
C35	C	1.601112	0.000102	0.263668
C36	C	1.597636	0.000112	0.394688
C37	C	1.369066	0.000110	0.366725
C38	C	1.372544	0.000110	0.235707
C39	C	1.733075	0.000097	0.279813
C40	C	1.729599	0.000107	0.410834
H41	H	1.129302	0.000034	0.019393
H42	H	1.049812	-0.095551	-0.484393
H43	H	1.654421	-0.760919	-0.015540
H44	H	1.280902	0.000127	0.170993
H45	H	0.891602	0.000124	0.025694
H46	H	1.779319	-0.095548	0.452592
H47	H	1.056138	0.098802	-0.474797
H48	H	0.843789	-0.098546	-0.469187
H49	H	0.847729	0.095806	-0.479023
H50	H	1.654444	-0.238837	-0.015606
H51	H	1.808028	-0.369320	0.137901
H52	H	1.274601	0.000120	0.408693
H53	H	1.808027	-0.630358	0.137936
H54	H	1.331494	-0.630449	-0.338274
H55	H	1.331488	-0.369410	-0.338298
H56	H	1.784692	0.095754	0.250457
H57	H	1.775096	-0.098596	0.244184
H58	H	1.769481	0.098804	0.456479
