data_functionalizedCrystal
_audit_creation_method	'MofGen! by Chris Wilmer'
_symmetry_space_group_name_H-M	'P1'
_symmetry_Int_Tables_number	1
_symmetry_cell_setting	triclinic
loop_
_symmetry_equiv_pos_as_xyz
  x,y,z
_cell_length_a	29.839134
_cell_length_b	18.050589
_cell_length_c	18.050582
_cell_angle_alpha	89.981795
_cell_angle_beta	90.024639
_cell_angle_gamma	89.976917
loop_
_atom_site_label
_atom_site_type_symbol
_atom_site_fract_x
_atom_site_fract_y
_atom_site_fract_z
Zn1	Zn	0.686773	0.295808	0.420128
Zn2	Zn	1.186773	0.795808	0.920128
Zn3	Zn	0.686719	0.419992	0.295947
Zn4	Zn	1.186719	0.919992	0.795947
Zn5	Zn	0.611652	0.295809	0.295931
Zn6	Zn	1.111652	0.795809	0.795931
Zn7	Zn	0.611620	0.419950	0.420074
Zn8	Zn	1.111620	0.919950	0.920074
O9	O	0.649191	0.357890	0.358020
O10	O	1.149191	0.857890	0.858020
O11	O	0.749633	0.312299	0.403684
O12	O	1.249633	0.812299	0.903684
O13	O	0.676751	0.403536	0.192020
O14	O	1.176751	0.903536	0.692020
O15	O	0.621653	0.191884	0.312421
O16	O	1.121653	0.691884	0.812421
O17	O	0.749593	0.403536	0.312449
O18	O	1.249593	0.903536	0.812449
O19	O	0.676843	0.191884	0.403668
O20	O	1.176843	0.691884	0.903668
O21	O	0.621600	0.312300	0.192008
O22	O	1.121600	0.812300	0.692008
O23	O	0.548781	0.312259	0.312369
O24	O	1.048781	0.812259	0.812369
O25	O	0.621599	0.403465	0.524006
O26	O	1.121599	0.903465	1.024006
O27	O	0.548758	0.403465	0.403577
O28	O	1.048758	0.903465	0.903577
O29	O	0.676813	0.312258	0.524045
O30	O	1.176813	0.812258	1.024045
O31	O	0.676721	0.523911	0.312397
O32	O	1.176721	1.023911	0.812397
O33	O	0.621547	0.523880	0.403593
O34	O	1.121547	1.023880	0.903593
C35	C	0.649137	0.550842	0.358008
C36	C	1.149137	1.050842	0.858008
C37	C	0.649155	0.633388	0.358027
C38	C	1.149155	1.133388	0.858027
C39	C	0.532468	0.357858	0.357966
C40	C	1.032468	0.857858	0.857966
C41	C	0.482534	0.357863	0.357961
C42	C	0.982534	0.857863	0.857961
C43	C	0.649209	0.357857	0.551726
C44	C	1.149209	0.857857	1.051726
C45	C	0.649216	0.357843	0.634271
C46	C	1.149216	0.857843	1.134271
C47	C	0.172888	0.405451	0.405454
C48	C	0.672888	0.905451	0.905454
C49	C	-0.014785	0.405472	0.405487
C50	C	0.485215	0.905472	0.905487
O51	O	-0.039052	0.445898	0.445835
O52	O	0.460948	0.945898	0.945835
N53	N	-0.038251	0.357917	0.358076
N54	N	0.461749	0.857917	0.858076
C55	C	-0.014796	0.310350	0.310657
C56	C	0.485204	0.810350	0.810657
O57	O	-0.039062	0.269897	0.270337
O58	O	0.460938	0.769897	0.770337
C59	C	0.172876	0.310326	0.310628
C60	C	0.672876	0.810326	0.810628
C61	C	0.196340	0.357889	0.358037
C62	C	0.696340	0.857889	0.858037
C63	C	0.196352	0.453010	0.452859
C64	C	0.696352	0.953010	0.952859
C65	C	0.243267	0.453007	0.452848
C66	C	0.743267	0.953007	0.952848
C67	C	0.266719	0.405445	0.405431
C68	C	0.766719	0.905445	0.905431
C69	C	0.243255	0.357886	0.358025
C70	C	0.743255	0.857886	0.858025
C71	C	0.196330	0.262756	0.263213
C72	C	0.696330	0.762756	0.763213
C73	C	0.243251	0.262753	0.263212
C74	C	0.743251	0.762753	0.763212
C75	C	0.266715	0.310316	0.310620
C76	C	0.766715	0.810316	0.810620
C77	C	0.313622	0.310322	0.310597
C78	C	0.813622	0.810322	0.810597
N79	N	0.337088	0.357877	0.358007
N80	N	0.837088	0.857877	0.858007
C81	C	0.313637	0.405438	0.405424
C82	C	0.813637	0.905438	0.905424
C83	C	-0.113327	0.310367	0.310674
C84	C	0.386673	0.810367	0.810674
C85	C	-0.160245	0.310374	0.310680
C86	C	0.339755	0.810374	0.810680
C87	C	-0.160230	0.405495	0.405511
C88	C	0.339770	0.905495	0.905511
C89	C	-0.113312	0.405491	0.405501
C90	C	0.386688	0.905491	0.905501
C91	C	-0.089861	0.357922	0.358085
C92	C	0.410139	0.857922	0.858085
C93	C	0.412163	0.405429	0.405396
C94	C	0.912163	0.905429	0.905396
C95	C	0.459082	0.405424	0.405378
C96	C	0.959082	0.905424	0.905378
C97	C	0.459064	0.310301	0.310550
C98	C	0.959064	0.810301	0.810550
C99	C	0.412148	0.310308	0.310565
C100	C	0.912148	0.810308	0.810565
C101	C	0.388699	0.357875	0.357994
C102	C	0.888699	0.857875	0.857994
O103	O	0.337918	0.269911	0.270275
O104	O	0.837918	0.769911	0.770275
O105	O	0.337910	0.445874	0.445750
O106	O	0.837910	0.945874	0.945750
C107	C	0.125973	0.405454	0.405465
C108	C	0.625973	0.905454	0.905465
C109	C	0.102509	0.357895	0.358060
C110	C	0.602509	0.857895	0.858060
C111	C	0.125961	0.310333	0.310643
C112	C	0.625961	0.810333	0.810643
C113	C	0.055591	0.357902	0.358066
C114	C	0.555591	0.857902	0.858066
C115	C	0.032139	0.405463	0.405483
C116	C	0.532139	0.905463	0.905483
C117	C	0.055605	0.453018	0.452894
C118	C	0.555605	0.953018	0.952894
C119	C	0.102521	0.453015	0.452882
C120	C	0.602521	0.953015	0.952882
C121	C	0.102495	0.262778	0.263232
C122	C	0.602495	0.762778	0.763232
C123	C	0.055579	0.262786	0.263247
C124	C	0.555579	0.762786	0.763247
C125	C	0.032127	0.310347	0.310664
C126	C	0.532127	0.810347	0.810664
C127	C	0.766369	0.357922	0.358074
C128	C	1.266369	0.857922	0.858074
C129	C	0.816304	0.357936	0.358097
C130	C	1.316304	0.857936	0.858097
C131	C	0.649258	0.164184	0.358049
C132	C	1.149258	0.664184	0.858049
C133	C	0.649286	0.081638	0.358061
C134	C	1.149286	0.581638	0.858061
C135	C	0.619180	0.832849	0.407602
C136	C	1.119180	1.332849	0.907602
C137	C	0.608232	0.882281	0.339832
C138	C	1.108232	1.382281	0.839832
C139	C	0.649199	0.784518	0.358037
C140	C	1.149199	1.284518	0.858037
C141	C	0.660169	0.882167	0.425815
C142	C	1.160169	1.382167	0.925815
C143	C	0.649241	0.930503	0.358052
C144	C	1.149241	1.430503	0.858052
C145	C	0.638229	0.832863	0.290231
C146	C	1.138229	1.332863	0.790231
C147	C	0.690185	0.832745	0.376260
C148	C	1.190185	1.332745	0.876260
C149	C	0.679252	0.882155	0.308442
C150	C	1.179252	1.382155	0.808442
C151	C	0.649173	0.700420	0.358029
C152	C	1.149173	1.200420	0.858029
C153	C	0.649266	1.014600	0.358052
C154	C	1.149266	1.514600	0.858052
C155	C	0.649199	0.357869	0.165068
C156	C	1.149199	0.857869	0.665068
C157	C	0.649279	0.357674	0.082522
C158	C	1.149279	0.857674	0.582522
C159	C	0.619214	0.407373	0.833701
C160	C	1.119214	0.907373	1.333701
C161	C	0.660201	0.425533	0.883105
C162	C	1.160201	0.925533	1.383105
C163	C	0.649238	0.357786	0.785402
C164	C	1.149238	0.857786	1.285402
C165	C	0.608274	0.339606	0.883079
C166	C	1.108274	0.839606	1.383079
C167	C	0.649256	0.357733	0.931387
C168	C	1.149256	0.857733	1.431387
C169	C	0.690247	0.375981	0.833719
C170	C	1.190247	0.875981	1.333719
C171	C	0.638292	0.290023	0.833689
C172	C	1.138292	0.790023	1.333689
C173	C	0.679307	0.308157	0.883071
C174	C	1.179307	0.808157	1.383071
C175	C	0.649227	0.357819	0.701304
C176	C	1.149227	0.857819	1.201304
C177	C	0.649271	0.357700	1.015484
C178	C	1.149271	0.857700	1.515484
H179	H	0.478184	0.444159	0.443984
H180	H	0.978184	0.944159	0.943984
H181	H	0.669431	0.903825	0.483128
H182	H	1.169431	1.403825	0.983128
H183	H	0.573591	0.904056	0.324433
H184	H	1.073591	1.404056	0.824433
C185	C	0.737071	0.396820	0.804552
C186	C	1.237071	0.896820	1.304552
N187	N	0.772338	0.412519	0.782582
N188	N	1.272338	0.912519	1.282582
C189	C	0.672722	0.502918	0.912433
C190	C	1.172722	1.002918	1.412433
N191	N	0.682150	0.561206	0.934521
N192	N	1.182150	1.061206	1.434521
H193	H	0.121584	0.224047	0.224619
H194	H	0.621584	0.724047	0.724619
H195	H	0.628927	0.811295	0.232902
H196	H	1.128927	1.311295	0.732902
C197	C	-0.087537	0.258038	0.258505
C198	C	0.412463	0.758038	0.758505
N199	N	-0.068114	0.218627	0.219207
N200	N	0.431886	0.718627	0.719207
C201	C	0.386375	0.457760	0.457565
C202	C	0.886375	0.957760	0.957565
N203	N	0.366952	0.497181	0.496854
N204	N	0.866952	0.997181	0.996854
H205	H	0.593847	0.449362	0.812025
H206	H	1.093847	0.949362	1.312025
C207	C	0.713658	0.251475	0.912173
C208	C	1.213658	0.751475	1.412173
N209	N	0.739532	0.208784	0.934094
N210	N	1.239532	0.708784	1.434094
C211	C	0.625752	0.212660	0.804337
C212	C	1.125752	0.712660	1.304337
N213	N	0.616302	0.154390	0.782227
N214	N	1.116302	0.654390	1.282227
H215	H	0.724818	0.810972	0.391691
H216	H	1.224818	1.310972	0.891691
H217	H	0.704656	0.903669	0.266485
H218	H	1.204656	1.403669	0.766485
H219	H	0.573623	0.324251	0.904763
H220	H	1.073623	0.824251	1.404763
H221	H	0.262343	0.224011	0.224603
H222	H	0.762343	0.724011	0.724603
C223	C	0.170562	0.505344	0.505018
C224	C	0.670562	1.005344	1.005018
N225	N	0.151140	0.544772	0.544301
N226	N	0.651140	1.044772	1.044301
C227	C	0.269071	0.505327	0.505005
C228	C	0.769071	1.005327	1.005005
N229	N	0.288504	0.544736	0.544294
N230	N	0.788504	1.044736	1.044294
H231	H	-0.179345	0.271651	0.272068
H232	H	0.320655	0.771651	0.772068
H233	H	-0.094211	0.444220	0.444106
H234	H	0.405789	0.944220	0.944106
C235	C	-0.186036	0.457809	0.457675
C236	C	0.313964	0.957809	0.957675
N237	N	-0.205475	0.497205	0.496966
N238	N	0.294525	0.997205	0.996966
H239	H	0.177234	0.224027	0.224606
H240	H	0.677234	0.724027	0.724606
H241	H	0.393043	0.271580	0.271959
H242	H	0.893043	0.771580	0.771959
H243	H	0.121621	0.491746	0.491488
H244	H	0.621621	0.991746	0.991488
C245	C	0.484870	0.257977	0.258403
C246	C	0.984870	0.757977	0.758403
N247	N	0.504308	0.218559	0.219131
N248	N	1.004308	0.718559	0.719131
C249	C	0.029774	0.210457	0.211092
C250	C	0.529774	0.710457	0.711092
N251	N	0.010340	0.171038	0.171815
N252	N	0.510340	0.671038	0.671815
C253	C	0.029799	0.505335	0.505054
C254	C	0.529799	1.005335	1.005054
N255	N	0.010360	0.544734	0.544342
N256	N	0.510360	1.044734	1.044342
H257	H	0.593757	0.811198	0.449459
H258	H	1.093757	1.311198	0.949459
