data_functionalizedCrystal
_audit_creation_method	'MofGen! by Chris Wilmer'
_symmetry_space_group_name_H-M	'P1'
_symmetry_Int_Tables_number	1
_symmetry_cell_setting	triclinic
loop_
_symmetry_equiv_pos_as_xyz
  x,y,z
_cell_length_a	27.731994
_cell_length_b	19.188930
_cell_length_c	18.266242
_cell_angle_alpha	89.990385
_cell_angle_beta	89.999533
_cell_angle_gamma	97.117342
loop_
_atom_site_label
_atom_site_type_symbol
_atom_site_fract_x
_atom_site_fract_y
_atom_site_fract_z
O1	O	0.641199	-0.082897	0.060785
O2	O	0.500440	-0.095569	0.060810
O3	O	0.574881	0.012450	0.060782
O4	O	0.566757	-0.190916	0.060812
O5	O	0.574873	0.012452	-0.060980
O6	O	0.500432	-0.095566	-0.060952
O7	O	0.641191	-0.082895	-0.060977
Zn8	Zn	0.570810	-0.089230	-0.080297
Zn9	Zn	0.570821	-0.089233	0.080130
O10	O	0.566749	-0.190913	-0.060950
C11	C	0.482428	-0.095308	-0.000068
C12	C	0.428769	-0.094524	-0.000059
C13	C	0.096031	-0.089589	-0.066460
C14	C	-0.105636	-0.086611	-0.066469
O15	O	-0.131714	-0.086195	-0.122916
N16	N	-0.130848	-0.086243	-0.000097
C17	C	-0.105639	-0.086614	0.066283
O18	O	-0.131709	-0.086225	0.122736
C19	C	0.096028	-0.089587	0.066291
C20	C	0.121236	-0.089963	-0.000086
C21	C	0.121240	-0.089964	-0.132831
C22	C	0.171653	-0.090712	-0.132829
C23	C	0.196858	-0.091086	-0.066454
C24	C	0.171650	-0.090711	-0.000083
C25	C	0.121236	-0.089953	0.132669
C26	C	0.171656	-0.090695	0.132665
C27	C	0.196865	-0.091070	0.066289
C28	C	0.247268	-0.091833	0.066294
N29	N	0.272480	-0.092201	-0.000079
C30	C	0.247275	-0.091828	-0.066453
C31	C	-0.211517	-0.085055	0.066274
C32	C	-0.261933	-0.084313	0.066272
C33	C	-0.261927	-0.084309	-0.066480
C34	C	-0.211510	-0.085056	-0.066477
C35	C	-0.186305	-0.085423	-0.000099
C36	C	0.353147	-0.093400	-0.066442
C37	C	0.403564	-0.094151	-0.066433
C38	C	0.403554	-0.094151	0.066319
C39	C	0.353140	-0.093404	0.066310
C40	C	0.327938	-0.093026	-0.000076
O41	O	0.273378	-0.092241	0.122711
O42	O	0.273356	-0.092201	-0.122898
C43	C	0.045618	-0.088841	-0.066463
C44	C	0.020409	-0.088466	-0.000092
C45	C	0.045614	-0.088840	0.066282
C46	C	-0.030007	-0.087724	-0.000094
C47	C	-0.055212	-0.087351	-0.066468
C48	C	-0.030001	-0.087719	-0.132840
C49	C	0.020413	-0.088467	-0.132837
C50	C	0.020403	-0.088471	0.132655
C51	C	-0.030011	-0.087724	0.132646
C52	C	-0.055216	-0.087350	0.066272
C53	C	0.574614	0.038460	-0.000101
C54	C	0.573825	0.115959	-0.000107
C55	C	0.659203	-0.083156	-0.000098
C56	C	0.712862	-0.083939	-0.000102
C57	C	0.567016	-0.216924	-0.000065
C58	C	0.567806	-0.294423	-0.000054
N59	N	0.570806	-0.089228	-0.189784
C60	C	0.617504	0.161174	-0.000118
C61	C	0.616762	0.233993	-0.000106
C62	C	0.572338	0.261594	-0.000098
C63	C	0.528653	0.216369	-0.000082
C64	C	0.529396	0.143552	-0.000087
N65	N	0.538378	0.369373	-0.041530
N66	N	0.537675	0.438547	-0.041527
C67	C	0.570096	0.480987	-0.000083
N68	N	0.603254	0.451642	0.041350
N69	N	0.603959	0.382462	0.041344
C70	C	0.571527	0.340551	-0.000092
C71	C	0.612974	0.605161	-0.000080
C72	C	0.612231	0.677981	-0.000064
C73	C	0.524120	0.660356	-0.000047
C74	C	0.524865	0.587537	-0.000056
C75	C	0.569294	0.559945	-0.000076
C76	C	0.603791	-0.041413	-0.772073
C77	C	0.603792	-0.041415	-0.695429
C78	C	0.570821	-0.089227	-0.657096
C79	C	0.537855	-0.137054	-0.695416
C80	C	0.537859	-0.137055	-0.772059
N81	N	0.528027	-0.098560	-0.536761
N82	N	0.528025	-0.098554	-0.463953
C83	C	0.570809	-0.089226	-0.426174
N84	N	0.613597	-0.079890	-0.463953
N85	N	0.613598	-0.079892	-0.536768
C86	C	0.570814	-0.089231	-0.573990
C87	C	0.603776	-0.041407	-0.304757
C88	C	0.603777	-0.041414	-0.228111
C89	C	0.537836	-0.137050	-0.228099
C90	C	0.537839	-0.137046	-0.304744
C91	C	0.570808	-0.089222	-0.343068
N92	N	0.570828	-0.089231	0.189617
H93	H	-0.050532	-0.087424	0.186702
H94	H	0.649151	0.582695	-0.000093
C95	C	0.660281	0.727723	-0.000077
C96	C	0.671896	0.780191	0.063153
C97	C	0.719946	0.829934	0.063139
C98	C	0.756383	0.827210	-0.000105
C99	C	0.744770	0.774739	-0.063339
C100	C	0.696719	0.724996	-0.063325
H101	H	0.644922	0.782210	0.109974
H102	H	0.728543	0.868776	0.109949
H103	H	0.791953	0.864033	-0.000115
H104	H	0.771743	0.772720	-0.110160
H105	H	0.688122	0.686154	-0.110136
C106	C	-0.183782	-0.085465	-0.139491
C107	C	-0.196336	-0.146014	-0.194238
C108	C	-0.168611	-0.146422	-0.267255
C109	C	-0.128331	-0.086281	-0.285526
C110	C	-0.115775	-0.025726	-0.230777
C111	C	-0.143501	-0.025318	-0.157760
H112	H	-0.226155	-0.190539	-0.180715
H113	H	-0.177906	-0.191249	-0.307784
H114	H	-0.107807	-0.086583	-0.339577
H115	H	-0.085956	0.018798	-0.244301
H116	H	-0.134206	0.019508	-0.117232
C117	C	-0.289657	-0.083892	-0.139494
C118	C	-0.329941	-0.144027	-0.157744
C119	C	-0.357673	-0.143605	-0.230753
C120	C	-0.345121	-0.083047	-0.285513
C121	C	-0.304835	-0.022907	-0.267265
C122	C	-0.277103	-0.023330	-0.194255
H123	H	-0.339235	-0.188860	-0.117206
H124	H	-0.387495	-0.188124	-0.244262
H125	H	-0.365650	-0.082734	-0.339559
H126	H	-0.295542	0.021926	-0.307802
H127	H	-0.247281	0.021190	-0.180746
H128	H	0.487949	0.682827	-0.000036
H129	H	0.510992	-0.175982	-0.196890
H130	H	0.489296	0.550722	-0.000051
C131	C	0.199373	-0.091093	-0.205852
C132	C	0.186818	-0.151620	-0.260625
C133	C	0.214532	-0.151986	-0.333656
C134	C	0.254802	-0.091826	-0.351912
C135	C	0.267359	-0.031295	-0.297137
C136	C	0.239645	-0.030929	-0.224107
H137	H	0.157007	-0.196158	-0.247112
H138	H	0.205236	-0.196796	-0.374204
H139	H	0.275317	-0.092098	-0.405974
H140	H	0.297170	0.013243	-0.310650
H141	H	0.248941	0.013881	-0.183558
H142	H	0.492482	0.238846	-0.000074
H143	H	0.630622	-0.002477	-0.196918
C144	C	0.431284	-0.094560	0.139329
C145	C	0.418734	-0.155105	0.194104
C146	C	0.446466	-0.155507	0.267116
C147	C	0.486747	-0.095364	0.285352
C148	C	0.499298	-0.034814	0.230576
C149	C	0.471567	-0.034412	0.157564
H150	H	0.388914	-0.199631	0.180606
H151	H	0.437174	-0.200331	0.307665
H152	H	0.507275	-0.095662	0.339400
H153	H	0.529119	0.009711	0.244074
H154	H	0.480859	0.010411	0.117015
H155	H	0.424086	-0.094459	-0.120487
C156	C	0.093520	-0.089556	-0.205852
C157	C	0.094843	-0.150313	-0.260592
C158	C	0.067127	-0.149911	-0.333618
C159	C	0.038090	-0.088752	-0.351903
C160	C	0.036766	-0.027990	-0.297161
C161	C	0.064481	-0.028392	-0.224136
H162	H	0.116339	-0.195591	-0.247057
H163	H	0.068107	-0.194892	-0.374141
H164	H	0.017573	-0.088454	-0.405961
H165	H	0.015270	0.017288	-0.310696
H166	H	0.063501	0.016589	-0.183612
H167	H	0.630638	-0.002473	-0.803275
C168	C	0.640052	0.011192	-0.653277
C169	C	0.676315	0.063795	-0.695434
C170	C	0.712574	0.116403	-0.653287
C171	C	0.712570	0.116407	-0.568982
C172	C	0.676305	0.063802	-0.526820
C173	C	0.640046	0.011194	-0.568968
H174	H	0.676320	0.063794	-0.757846
H175	H	0.739420	0.155344	-0.684498
H176	H	0.739411	0.155350	-0.537782
H177	H	0.676300	0.063803	-0.464408
H178	H	0.613200	-0.027747	-0.537756
C179	C	0.501586	-0.189648	-0.653255
C180	C	0.501577	-0.189646	-0.568950
C181	C	0.465308	-0.242245	-0.526790
C182	C	0.429047	-0.294845	-0.568935
C183	C	0.429054	-0.294849	-0.653245
C184	C	0.465323	-0.242250	-0.695405
H185	H	0.528421	-0.150706	-0.537747
H186	H	0.465303	-0.242242	-0.464379
H187	H	0.402198	-0.333782	-0.537726
H188	H	0.402210	-0.333789	-0.684447
H189	H	0.465328	-0.242253	-0.757816
H190	H	0.511016	-0.175995	-0.803252
C191	C	0.501574	-0.189640	-0.346892
C192	C	0.446534	-0.189033	-0.336362
C193	C	0.410268	-0.241630	-0.378510
C194	C	0.429043	-0.294836	-0.431188
C195	C	0.484087	-0.295445	-0.441721
C196	C	0.520352	-0.242848	-0.399572
H197	H	0.432633	-0.149645	-0.297364
H198	H	0.369521	-0.241179	-0.370713
H199	H	0.402198	-0.333772	-0.462389
H200	H	0.497988	-0.334833	-0.480718
H201	H	0.561099	-0.243299	-0.407369
H202	H	0.332632	-0.093098	-0.120499
H203	H	0.100720	-0.089647	0.186720
C204	C	0.048122	-0.088886	0.205673
C205	C	0.046805	-0.028137	0.260426
C206	C	0.074520	-0.028557	0.333450
C207	C	0.103552	-0.089726	0.351722
C208	C	0.104871	-0.150479	0.296968
C209	C	0.077155	-0.150059	0.223944
H210	H	0.025312	0.017147	0.246901
H211	H	0.073544	0.016417	0.373982
H212	H	0.124069	-0.090037	0.405779
H213	H	0.126363	-0.195764	0.310493
H214	H	0.078131	-0.195033	0.183411
H215	H	0.653681	0.138714	-0.000132
C216	C	0.199381	-0.091103	0.205685
C217	C	0.198068	-0.030348	0.260431
C218	C	0.225792	-0.030758	0.333449
C219	C	0.254828	-0.091922	0.351721
C220	C	0.256142	-0.152682	0.296973
C221	C	0.228418	-0.152272	0.223955
H222	H	0.176573	0.014934	0.246907
H223	H	0.224819	0.014221	0.373977
H224	H	0.275351	-0.092226	0.405773
H225	H	0.277637	-0.197963	0.310497
H226	H	0.229391	-0.197250	0.183427
H227	H	-0.282455	-0.084018	0.120323
H228	H	-0.191000	-0.085354	0.120330
H229	H	0.332613	-0.093109	0.120360
C230	C	0.664812	0.283741	-0.000126
C231	C	0.713681	0.253391	-0.000150
C232	C	0.761731	0.303137	-0.000173
C233	C	0.760912	0.383233	-0.000172
C234	C	0.712042	0.413587	-0.000148
C235	C	0.663992	0.363841	-0.000125
H236	H	0.714289	0.194096	-0.000151
H237	H	0.797908	0.280666	-0.000190
H238	H	0.796481	0.420057	-0.000188
H239	H	0.711434	0.472882	-0.000147
H240	H	0.627815	0.386312	-0.000108
H241	H	0.040933	-0.088773	-0.186888
H242	H	-0.050532	-0.087419	-0.186884
H243	H	0.493825	0.106737	-0.000078
H244	H	0.630623	-0.002467	-0.335962
