data_functionalizedCrystal
_audit_creation_method	'MofGen! by Chris Wilmer'
_symmetry_space_group_name_H-M	'P1'
_symmetry_Int_Tables_number	1
_symmetry_cell_setting	triclinic
loop_
_symmetry_equiv_pos_as_xyz
  x,y,z
_cell_length_a	10.686285
_cell_length_b	11.169417
_cell_length_c	11.169417
_cell_angle_alpha	89.997314
_cell_angle_beta	94.374231
_cell_angle_gamma	94.370078
loop_
_atom_site_label
_atom_site_type_symbol
_atom_site_fract_x
_atom_site_fract_y
_atom_site_fract_z
Zn1	Zn	-0.502602	-1.871448	0.641990
Zn2	Zn	-0.002602	-1.371448	1.141990
Zn3	Zn	-0.713557	-1.886813	0.425941
Zn4	Zn	-0.213557	-1.386813	0.925941
Zn5	Zn	-0.502578	-1.670799	0.441320
Zn6	Zn	-0.002578	-1.170799	0.941320
Zn7	Zn	-0.713536	-1.686149	0.626581
Zn8	Zn	-0.213536	-1.186149	1.126581
O9	O	-0.608069	-1.778802	0.533958
O10	O	-0.108069	-1.278802	1.033958
O11	O	-0.530605	-2.041437	0.613343
O12	O	-0.030605	-1.541437	1.113343
O13	O	-0.685570	-1.858164	0.260031
O14	O	-0.185570	-1.358164	0.760031
O15	O	-0.326010	-1.684562	0.480824
O16	O	0.173990	-1.184562	0.980824
O17	O	-0.685593	-2.052725	0.454613
O18	O	-0.185593	-1.552725	0.954613
O19	O	-0.326027	-1.831978	0.628256
O20	O	0.173973	-1.331978	1.128256
O21	O	-0.530564	-1.699460	0.271330
O22	O	-0.030564	-1.199460	0.771330
O23	O	-0.530543	-1.504884	0.465883
O24	O	-0.030543	-1.004884	0.965883
O25	O	-0.685556	-1.710723	0.796574
O26	O	-0.185556	-1.210723	1.296574
O27	O	-0.685533	-1.516161	0.601993
O28	O	-0.185533	-1.016161	1.101993
O29	O	-0.530584	-1.846862	0.807896
O30	O	-0.030584	-1.346862	1.307896
O31	O	-0.890126	-1.873048	0.439671
O32	O	-0.390126	-1.373048	0.939671
O33	O	-0.890111	-1.725621	0.587080
O34	O	-0.390111	-1.225621	1.087080
C35	C	-0.608034	-1.466975	0.533935
C36	C	-0.108034	-0.966975	1.033935
C37	C	-0.608050	-1.333576	0.533951
C38	C	-0.108050	-0.833576	1.033951
C39	C	-0.935902	-1.802700	0.510061
C40	C	-0.435902	-1.302700	1.010061
C41	C	-1.076150	-1.813033	0.499878
C42	C	-0.576150	-1.313033	0.999878
C43	C	-0.278955	-1.754844	0.557974
C44	C	0.221045	-1.254844	1.057974
C45	C	-0.138707	-1.744634	0.568209
C46	C	0.361293	-1.244634	1.068209
C47	C	-0.608071	-1.778791	0.847000
C48	C	-0.108071	-1.278791	1.347000
C49	C	-0.608071	-1.778786	0.980400
C50	C	-0.108071	-1.278786	1.480400
C51	C	-0.608092	-1.091846	0.533974
C52	C	-0.108092	-0.591846	1.033974
C53	C	-0.608070	-1.225244	0.533963
C54	C	-0.108070	-0.725244	1.033963
C55	C	-0.608090	-1.778801	1.222132
C56	C	-0.108090	-1.278801	1.722132
C57	C	-0.608073	-1.778789	1.088733
C58	C	-0.108073	-1.278789	1.588733
H59	H	-1.129893	-1.879493	0.433572
H60	H	-0.629893	-1.379493	0.933572
H61	H	-1.084971	-1.678170	0.634503
H62	H	-0.584971	-1.178170	1.134503
