data_functionalizedCrystal
_audit_creation_method	'MofGen! by Chris Wilmer'
_symmetry_space_group_name_H-M	'P1'
_symmetry_Int_Tables_number	1
_symmetry_cell_setting	triclinic
loop_
_symmetry_equiv_pos_as_xyz
  x,y,z
_cell_length_a	8.634740
_cell_length_b	10.540539
_cell_length_c	9.016244
_cell_angle_alpha	90.004647
_cell_angle_beta	90.001358
_cell_angle_gamma	92.547899
loop_
_atom_site_label
_atom_site_type_symbol
_atom_site_fract_x
_atom_site_fract_y
_atom_site_fract_z
O1	O	2.050619	0.414420	0.123321
O2	O	1.601285	0.379669	0.123326
O3	O	1.836203	0.213515	0.123322
O4	O	1.815701	0.580574	0.123326
O5	O	1.836193	0.213500	-0.123359
O6	O	1.601275	0.379654	-0.123355
O7	O	2.050609	0.414404	-0.123359
Cu8	Cu	1.825941	0.397028	-0.145881
Cu9	Cu	1.825953	0.397046	0.145848
O10	O	1.815691	0.580558	-0.123355
C11	C	1.543743	0.371789	-0.000014
C12	C	1.372301	0.348317	-0.000012
C13	C	1.834661	0.166028	-0.000016
C14	C	1.830061	0.024552	-0.000008
C15	C	1.653791	-0.179120	0.000548
C16	C	1.658454	-0.031966	-0.000008
C17	C	1.912640	-0.027630	-0.140876
C18	C	1.906783	-0.174847	-0.140994
C19	C	1.910285	-0.174947	0.139528
C20	C	1.911865	-0.027783	0.141390
C21	C	2.108151	0.422284	-0.000017
C22	C	2.279593	0.445756	-0.000009
C23	C	1.817233	0.628046	-0.000014
C24	C	1.821833	0.769522	-0.000012
N25	N	1.825944	0.397015	-0.351067
C26	C	1.952080	0.308544	-0.586056
C27	C	1.951739	0.308112	-0.414165
C28	C	1.664529	0.348345	-0.413491
C29	C	1.665278	0.347709	-0.585436
C30	C	1.859810	0.534353	-0.585570
C31	C	1.863453	0.533899	-0.413614
N32	N	1.825962	0.397050	0.351034
H33	H	1.593477	0.003180	0.100972
Cl34	Cl	2.136911	0.357373	-0.348994
Cl35	Cl	1.359547	0.602291	-0.000021
H36	H	1.635668	0.246973	-0.625557
Cl37	Cl	1.549127	-0.235284	0.156514
H38	H	1.586274	-0.217088	-0.099904
H39	H	1.593013	0.002268	-0.101154
Cl40	Cl	1.812536	-0.229224	-0.303564
H41	H	2.030200	-0.208642	-0.147386
Cl42	Cl	1.292352	0.191790	-0.000023
H43	H	2.038662	0.009198	-0.146114
H44	H	1.851443	0.006142	0.245600
Cl45	Cl	1.824064	0.027950	-0.302727
Cl46	Cl	1.824526	-0.233481	0.304372
Cl47	Cl	2.105033	0.031803	0.154533
H48	H	2.034235	-0.207937	0.140474
Cl49	Cl	2.137887	0.357441	-0.649870
Cl50	Cl	1.918933	0.152777	-0.652781
Cl51	Cl	1.918089	0.151423	-0.350671
H52	H	1.568536	0.408697	-0.627053
H53	H	1.568356	0.410262	-0.372621
Cl54	Cl	1.617741	0.194386	-0.347037
H55	H	1.975079	0.576257	-0.628924
H56	H	1.982204	0.570374	-0.372815
H57	H	1.777658	0.604365	-0.370659
Cl58	Cl	1.717848	0.636402	-0.648391
