data_functionalizedCrystal
_audit_creation_method	'MofGen! by Chris Wilmer'
_symmetry_space_group_name_H-M	'P1'
_symmetry_Int_Tables_number	1
_symmetry_cell_setting	triclinic
loop_
_symmetry_equiv_pos_as_xyz
  x,y,z
_cell_length_a	14.519709
_cell_length_b	23.532407
_cell_length_c	12.996460
_cell_angle_alpha	89.989202
_cell_angle_beta	90.000034
_cell_angle_gamma	83.264412
loop_
_atom_site_label
_atom_site_type_symbol
_atom_site_fract_x
_atom_site_fract_y
_atom_site_fract_z
O1	O	1.222985	0.074654	-0.085444
O2	O	0.954405	0.083445	-0.085477
O3	O	1.096794	-0.003845	-0.085440
O4	O	1.080596	0.161945	-0.085480
O5	O	1.096779	-0.003850	0.085693
O6	O	0.954390	0.083441	0.085657
O7	O	1.222971	0.074649	0.085690
Cu8	Cu	1.088679	0.079044	0.101299
Cu9	Cu	1.088696	0.079050	-0.101086
O10	O	1.080581	0.161940	0.085654
C11	C	0.920042	0.083033	0.000086
C12	C	0.817676	0.081805	0.000075
C13	C	0.442833	0.077286	0.000123
C14	C	0.547126	0.078541	0.000109
C15	C	0.630251	0.079545	0.000098
C16	C	0.734551	0.080801	0.000086
C17	C	1.096374	-0.025066	0.000129
C18	C	1.095134	-0.088288	0.000137
C19	C	1.171619	-0.487046	0.000090
C20	C	1.170467	-0.546452	0.000082
O21	O	1.241369	-0.582876	0.000052
N22	N	1.085816	-0.569460	0.000072
C23	C	1.002312	-0.533059	0.000060
O24	O	0.930205	-0.558084	0.000050
C25	C	1.003465	-0.473655	0.000061
C26	C	1.088121	-0.450650	0.000081
C27	C	1.256268	-0.464041	0.000109
C28	C	1.257420	-0.404640	0.000119
C29	C	1.173922	-0.368244	0.000110
C30	C	1.089273	-0.391249	0.000091
C31	C	0.919962	-0.437255	0.000041
C32	C	0.921123	-0.377847	0.000041
C33	C	1.005779	-0.354843	0.000061
C34	C	1.006927	-0.295451	0.000091
N35	N	1.091578	-0.272443	0.000101
C36	C	1.175075	-0.308839	0.000110
C37	C	0.999897	-0.657813	0.000057
C38	C	0.998743	-0.717216	0.000064
C39	C	1.166898	-0.730604	0.000084
C40	C	1.168051	-0.671200	0.000084
C41	C	1.084548	-0.634804	0.000067
C42	C	1.177487	-0.184092	0.000132
C43	C	1.178632	-0.124685	0.000146
C44	C	1.010477	-0.111301	0.000121
C45	C	1.009332	-0.170703	0.000112
C46	C	1.092845	-0.207098	0.000114
O47	O	0.936062	-0.258992	0.000117
O48	O	1.247171	-0.283806	0.000106
C49	C	1.257333	0.075061	0.000125
C50	C	1.359700	0.076289	0.000130
C51	C	1.081001	0.183160	0.000082
C52	C	1.082241	0.246383	0.000067
N53	N	1.088673	0.079040	0.243647
N54	N	1.088709	0.079050	-0.243433
C55	C	1.088695	0.079051	0.663461
C56	C	1.088686	0.079050	0.546656
C57	C	1.088685	0.079046	0.453557
C58	C	1.088675	0.079044	0.336745
H59	H	1.247572	-0.105958	0.000165
H60	H	1.234886	-0.760249	0.000087
H61	H	1.324266	-0.493670	0.000112
H62	H	1.236985	-0.652474	0.000100
C63	C	0.917491	-0.195764	-0.000061
C64	C	0.911937	-0.229471	-0.088104
C65	C	0.827351	-0.252568	-0.088302
H66	H	0.867847	-0.165638	-0.000114
H67	H	0.913532	-0.218703	0.059579
H68	H	0.915886	-0.206533	-0.147728
H69	H	0.961561	-0.259606	-0.088070
H70	H	0.823393	-0.275507	-0.028662
H71	H	0.777714	-0.222439	-0.088351
H72	H	0.823575	-0.275446	-0.148032
H73	H	0.851027	-0.455975	0.000019
C74	C	0.906735	-0.742078	0.000002
C75	C	0.833865	-0.697482	-0.000029
C76	C	0.749092	-0.720360	-0.000107
H77	H	0.902648	-0.764973	0.059659
H78	H	0.902741	-0.764947	-0.059705
H79	H	0.837857	-0.674622	0.059671
H80	H	0.837921	-0.674583	-0.059682
H81	H	0.745098	-0.743230	-0.059814
H82	H	0.745014	-0.743255	0.059551
H83	H	0.699639	-0.690106	-0.000137
H84	H	0.931894	-0.628182	0.000052
C85	C	0.830359	-0.338428	0.000075
C86	C	0.755983	-0.371295	0.000082
C87	C	0.672360	-0.335003	0.000128
H88	H	0.827188	-0.314955	-0.059585
H89	H	0.827251	-0.314992	0.059779
H90	H	0.759090	-0.394721	-0.059617
H91	H	0.759124	-0.394766	0.059737
H92	H	0.669252	-0.311567	0.059833
H93	H	0.669198	-0.311532	-0.059532
H94	H	0.621886	-0.357297	0.000142
C95	C	0.919856	-0.071750	-0.000106
C96	C	0.915622	-0.037256	-0.088164
C97	C	0.832151	-0.000818	-0.088423
H98	H	0.916716	-0.048250	0.059502
H99	H	0.869242	-0.093934	-0.000175
H100	H	0.966222	-0.015074	-0.088086
H101	H	0.918746	-0.060741	-0.147786
H102	H	0.781536	-0.023002	-0.088492
H103	H	0.829017	0.022678	-0.028812
H104	H	0.829262	0.022586	-0.148174
H105	H	1.326355	-0.385915	0.000131
C106	C	1.268256	-0.223505	0.000192
C107	C	1.342625	-0.190633	0.000238
C108	C	1.426254	-0.226920	0.000314
H109	H	1.271450	-0.246963	-0.059472
H110	H	1.271350	-0.246956	0.059892
H111	H	1.339533	-0.167192	-0.059456
H112	H	1.339462	-0.167177	0.059897
H113	H	1.429348	-0.250371	0.060015
H114	H	1.429438	-0.250376	-0.059350
H115	H	1.476723	-0.204622	0.000355
