data_functionalizedCrystal
_audit_creation_method	'MofGen! by Chris Wilmer'
_symmetry_space_group_name_H-M	'P1'
_symmetry_Int_Tables_number	1
_symmetry_cell_setting	triclinic
loop_
_symmetry_equiv_pos_as_xyz
  x,y,z
_cell_length_a	15.944551
_cell_length_b	19.188930
_cell_length_c	15.021413
_cell_angle_alpha	89.998889
_cell_angle_beta	89.997174
_cell_angle_gamma	83.321760
loop_
_atom_site_label
_atom_site_type_symbol
_atom_site_fract_x
_atom_site_fract_y
_atom_site_fract_z
O1	O	1.114192	0.090039	-0.073949
O2	O	0.869601	0.101141	-0.073973
O3	O	0.998955	-0.006048	-0.073943
O4	O	0.984838	0.197227	-0.073979
O5	O	0.998934	-0.006033	0.074121
O6	O	0.869580	0.101156	0.074091
O7	O	1.114171	0.090054	0.074115
Zn8	Zn	0.991873	0.095607	0.097611
Zn9	Zn	0.991900	0.095587	-0.097470
O10	O	0.984817	0.197242	0.074085
C11	C	0.838298	0.100687	0.000056
C12	C	0.745057	0.099306	0.000048
C13	C	0.530462	0.029563	0.000078
C14	C	0.469331	0.061941	-0.072931
C15	C	0.574341	0.096806	0.000059
C16	C	0.469332	0.061972	0.073048
C17	C	0.409437	0.094386	0.000074
C18	C	0.514438	0.129203	-0.073010
C19	C	0.514446	0.129225	0.073035
C20	C	0.453332	0.161652	0.000008
C21	C	0.669338	0.098198	0.000050
C22	C	0.314441	0.093000	0.000076
C23	C	0.998487	-0.032052	0.000091
C24	C	0.997115	-0.109560	0.000099
C25	C	1.073016	-0.154288	0.000111
C26	C	1.071726	-0.227115	0.000096
C27	C	0.994532	-0.255211	0.000088
C28	C	0.918622	-0.210474	0.000072
C29	C	0.919913	-0.137648	0.000077
N30	N	0.935519	-0.363364	0.050472
N31	N	0.934298	-0.432546	0.050468
C32	C	0.990637	-0.474630	0.000070
N33	N	1.048256	-0.444921	-0.050314
N34	N	1.049480	-0.375733	-0.050307
C35	C	0.993123	-0.334178	0.000082
C36	C	1.065145	-0.598326	0.000064
C37	C	1.063852	-0.671154	0.000044
C38	C	0.910745	-0.654511	0.000029
C39	C	0.912040	-0.581685	0.000040
C40	C	0.989242	-0.553597	0.000062
C41	C	1.145474	0.090507	0.000083
C42	C	1.238715	0.091889	0.000086
C43	C	0.985285	0.223247	0.000048
C44	C	0.986657	0.300755	0.000035
N45	N	0.991860	0.095621	0.230749
N46	N	0.991919	0.095568	-0.230607
C47	C	0.932038	0.145161	0.470418
C48	C	1.007887	0.158716	0.529757
C49	C	0.991882	0.095603	0.412356
C50	C	0.916053	0.082064	0.529759
C51	C	0.991896	0.095588	0.587780
C52	C	1.067770	0.109189	0.470388
C53	C	0.975885	0.032510	0.470384
C54	C	1.051789	0.046038	0.529697
C55	C	0.991872	0.095614	0.311299
C56	C	0.991914	0.095577	0.688835
H57	H	0.534328	0.157617	-0.134801
O58	O	0.570421	-0.037032	-0.000154
C59	C	0.547565	-0.072238	-0.077256
H60	H	0.525423	-0.032163	-0.130791
H61	H	0.604491	-0.108148	-0.102732
H62	H	0.494303	-0.104873	-0.060593
O63	O	1.147956	-0.126924	0.000002
C64	C	1.153307	-0.085311	-0.076692
H65	H	1.087041	-0.067173	-0.102264
H66	H	1.186617	-0.037624	-0.059441
H67	H	1.190591	-0.117485	-0.130385
O68	O	0.445345	0.028036	0.146620
C69	C	0.356956	0.027778	0.146029
H70	H	0.332554	0.034695	0.074871
H71	H	0.340454	-0.024248	0.173692
H72	H	0.326386	0.072675	0.189047
O73	O	0.871624	0.195156	0.439464
C74	C	0.791886	0.181427	0.470991
H75	H	0.800300	0.148119	0.533901
H76	H	0.751821	0.233095	0.486720
H77	H	0.759061	0.151965	0.417847
O78	O	0.413555	0.228307	-0.000206
C79	C	0.436563	0.263486	-0.077272
H80	H	0.458623	0.223396	-0.130820
H81	H	0.379741	0.299510	-0.102757
H82	H	0.489928	0.295996	-0.060558
O83	O	0.538314	0.163032	0.146751
C84	C	0.515585	0.127414	0.223580
H85	H	0.509033	0.070489	0.206100
H86	H	0.566501	0.129124	0.276555
H87	H	0.452844	0.153825	0.250214
H88	H	0.449335	0.033494	-0.134646
O89	O	1.145537	-0.270475	0.000150
C90	C	1.213953	-0.230067	0.000144
H91	H	1.192429	-0.175714	0.028173
H92	H	1.267107	-0.256931	0.043141
H93	H	1.237645	-0.224880	-0.070885
H94	H	1.021431	0.212066	0.555837
H95	H	0.855769	-0.233354	0.000063
O96	O	0.835706	-0.681713	0.000138
C97	C	0.789447	-0.658877	0.076829
H98	H	0.812146	-0.608368	0.102405
H99	H	0.719464	-0.648773	0.059574
H100	H	0.799324	-0.701021	0.130522
O101	O	0.846102	-0.094296	0.000110
C102	C	0.777688	-0.134706	0.000072
H103	H	0.799203	-0.189061	0.028099
H104	H	0.724516	-0.107848	0.043055
H105	H	0.754025	-0.139886	-0.070966
H106	H	1.131917	0.120698	0.444419
O107	O	1.140208	-0.571152	0.000030
C108	C	1.206926	-0.626251	0.000047
H109	H	1.183565	-0.675723	-0.027989
H110	H	1.260840	-0.611026	-0.042939
H111	H	1.230325	-0.636559	0.071080
H112	H	0.850233	-0.545266	0.000035
H113	H	1.125662	-0.707571	0.000049
O114	O	1.112342	-0.003897	0.560519
C115	C	1.192139	0.010627	0.530085
H116	H	1.189522	0.068816	0.513521
H117	H	1.241300	-0.003430	0.584231
H118	H	1.210121	-0.021759	0.467894
H119	H	0.962318	-0.020823	0.444285
H120	H	0.851919	0.070620	0.555840
