data_functionalizedCrystal
_audit_creation_method	'MofGen! by Chris Wilmer'
_symmetry_space_group_name_H-M	'P1'
_symmetry_Int_Tables_number	1
_symmetry_cell_setting	triclinic
loop_
_symmetry_equiv_pos_as_xyz
  x,y,z
_cell_length_a	21.295418
_cell_length_b	21.295418
_cell_length_c	12.759393
_cell_angle_alpha	90.037482
_cell_angle_beta	90.040879
_cell_angle_gamma	90.043213
loop_
_atom_site_label
_atom_site_type_symbol
_atom_site_fract_x
_atom_site_fract_y
_atom_site_fract_z
Zn1	Zn	0.962352	-0.250306	0.594566
Zn2	Zn	0.962265	-0.355590	0.418868
Zn3	Zn	0.857080	-0.250368	0.418837
Zn4	Zn	0.857050	-0.355571	0.594441
O5	O	0.909687	-0.302959	0.506678
O6	O	1.050430	-0.264255	0.571325
O7	O	0.948288	-0.341666	0.271843
O8	O	0.871093	-0.162270	0.442187
O9	O	1.050366	-0.341607	0.442240
O10	O	0.948436	-0.162225	0.571294
O11	O	0.871009	-0.264360	0.271820
O12	O	0.768987	-0.264341	0.442065
O13	O	0.871042	-0.341573	0.741478
O14	O	0.768965	-0.341633	0.571081
O15	O	0.948407	-0.264236	0.741570
O16	O	0.948259	-0.443677	0.442119
O17	O	0.870958	-0.443663	0.571111
C18	C	0.909613	-0.466510	0.506628
C19	C	0.909639	-0.536479	0.506641
C20	C	0.746135	-0.302992	0.506557
C21	C	0.676167	-0.303021	0.506530
C22	C	0.950088	-1.035923	0.439681
C23	C	0.950065	-0.970180	0.439656
C24	C	0.909775	-0.937318	0.506751
C25	C	0.869496	-0.970203	0.573858
C26	C	0.869516	-1.035944	0.573873
N27	N	0.904884	-0.834059	0.598682
N28	N	0.904868	-0.771608	0.598664
C29	C	0.909710	-0.739243	0.506707
N30	N	0.914581	-0.771689	0.414766
N31	N	0.914600	-0.834146	0.414785
C32	C	0.909748	-0.866033	0.506742
C33	C	0.949958	-0.635080	0.439573
C34	C	0.949929	-0.569337	0.439546
C35	C	0.869364	-0.569361	0.573757
C36	C	0.869389	-0.635103	0.573775
C37	C	0.909689	-0.667959	0.506684
C38	C	0.643305	-0.343320	0.573608
C39	C	0.577563	-0.343305	0.573655
C40	C	0.544684	-0.302997	0.506606
C41	C	0.577554	-0.262690	0.439523
C42	C	0.643295	-0.262702	0.439485
N43	N	0.441411	-0.298087	0.414714
N44	N	0.378959	-0.298079	0.414753
C45	C	0.346610	-0.302957	0.506717
N46	N	0.379071	-0.307855	0.598643
N47	N	0.441528	-0.307866	0.598602
C48	C	0.473399	-0.302979	0.506640
C49	C	0.242463	-0.343241	0.573852
C50	C	0.176719	-0.343221	0.573901
C51	C	0.176711	-0.262609	0.439759
C52	C	0.242454	-0.262626	0.439720
C53	C	0.275326	-0.302945	0.506764
C54	C	1.073877	-0.302926	0.506800
C55	C	1.143845	-0.302912	0.506852
C56	C	0.909731	-0.302895	0.780711
C57	C	0.909750	-0.302868	0.897488
C58	C	0.909778	-0.138768	0.506751
C59	C	0.909817	-0.068800	0.506782
C60	C	0.909679	-0.302977	0.233710
C61	C	0.909782	-0.302826	0.116934
C62	C	0.950039	-0.262595	0.952400
C63	C	0.950054	-0.262572	1.062124
C64	C	0.869488	-0.343101	1.062015
C65	C	0.869471	-0.343121	0.952293
C66	C	0.990318	-0.222342	0.897595
C67	C	1.030611	-0.182066	0.952507
C68	C	1.030626	-0.182044	1.062231
C69	C	0.990348	-0.222297	1.117043
H70	H	0.982902	-1.062670	0.385047
H71	H	0.982772	-0.661833	0.384942
Br72	Br	0.814737	-0.679726	0.664856
H73	H	0.990356	-0.222268	1.206388
H74	H	0.982722	-0.542567	0.384898
H75	H	0.836696	-0.375874	1.106652
Br76	Br	0.814858	-1.080567	0.664948
H77	H	0.836557	-0.542604	0.628384
Br78	Br	0.687914	-0.398037	0.664599
Br79	Br	0.287078	-0.397956	0.664843
H80	H	0.670051	-0.229884	0.384862
Br81	Br	0.532955	-0.397999	0.664698
Br82	Br	0.814789	-0.397775	0.877763
H83	H	0.149964	-0.376037	0.628530
Br84	Br	1.004718	-0.925551	0.348575
H85	H	0.550780	-0.229869	0.384933
H86	H	0.990311	-0.222358	0.808252
H87	H	0.149943	-0.229787	0.385171
Br88	Br	0.287055	-0.207931	0.348680
Br89	Br	1.085259	-0.127427	0.878122
H90	H	0.836690	-0.943443	0.628486
Br91	Br	1.085309	-0.127385	1.136752
