data_functionalizedCrystal
_audit_creation_method	'MofGen! by Chris Wilmer'
_symmetry_space_group_name_H-M	'P1'
_symmetry_Int_Tables_number	1
_symmetry_cell_setting	triclinic
loop_
_symmetry_equiv_pos_as_xyz
  x,y,z
_cell_length_a	6.394989
_cell_length_b	9.065215
_cell_length_c	7.540329
_cell_angle_alpha	90.000101
_cell_angle_beta	89.997344
_cell_angle_gamma	85.756204
loop_
_atom_site_label
_atom_site_type_symbol
_atom_site_fract_x
_atom_site_fract_y
_atom_site_fract_z
O1	O	-0.306352	-1.963200	0.147449
O2	O	0.193648	-1.463200	0.647449
O3	O	-0.331488	-1.534145	0.147456
O4	O	0.168512	-1.034145	0.647456
O5	O	-0.014971	-1.754763	0.147454
O6	O	0.485029	-1.254763	0.647454
O7	O	-0.622869	-1.742583	0.147451
O8	O	-0.122869	-1.242583	0.647451
O9	O	-0.014953	-1.754761	-0.147511
O10	O	0.485047	-1.254761	0.352489
O11	O	-0.331470	-1.534143	-0.147509
O12	O	0.168530	-1.034143	0.352491
O13	O	-0.306334	-1.963198	-0.147516
O14	O	0.193666	-1.463198	0.352484
Cu15	Cu	-0.318901	-1.748670	-0.174445
Cu16	Cu	0.181099	-1.248670	0.325555
Cu17	Cu	-0.318921	-1.748673	0.174385
Cu18	Cu	0.181079	-1.248673	0.674385
O19	O	-0.622851	-1.742581	-0.147514
O20	O	-0.122851	-1.242581	0.352486
C21	C	-0.329065	-1.479135	-0.000026
C22	C	0.170935	-0.979135	0.499974
C23	C	-0.321846	-1.315226	-0.000022
C24	C	0.178154	-0.815226	0.499978
N25	N	-0.318921	-1.748675	0.419734
N26	N	0.181079	-1.248675	0.919734
C27	C	-0.308757	-2.018208	-0.000031
C28	C	0.191243	-1.518208	0.499969
C29	C	-0.315976	-2.182117	-0.000022
C30	C	0.184024	-1.682117	0.499978
C31	C	0.062905	-1.752354	-0.000022
C32	C	0.562905	-1.252354	0.499978
C33	C	0.299279	-1.744993	-0.000020
C34	C	0.799279	-1.244993	0.499980
N35	N	-0.318885	-1.748679	-0.419794
N36	N	0.181115	-1.248679	0.080206
