data_functionalizedCrystal
_audit_creation_method	'MofGen! by Chris Wilmer'
_symmetry_space_group_name_H-M	'P1'
_symmetry_Int_Tables_number	1
_symmetry_cell_setting	triclinic
loop_
_symmetry_equiv_pos_as_xyz
  x,y,z
_cell_length_a	14.750779
_cell_length_b	10.654550
_cell_length_c	10.654550
_cell_angle_alpha	84.484931
_cell_angle_beta	102.766773
_cell_angle_gamma	77.230523
loop_
_atom_site_label
_atom_site_type_symbol
_atom_site_fract_x
_atom_site_fract_y
_atom_site_fract_z
O1	O	-0.079755	-1.640840	-0.203386
O2	O	-0.079773	-1.275355	-0.220198
O3	O	-0.079758	-1.466503	-0.029051
O4	O	-0.079771	-1.449692	-0.394534
O5	O	0.079897	-1.520538	0.024978
O6	O	0.079882	-1.329390	-0.166169
O7	O	0.079899	-1.694875	-0.149357
Zn8	Zn	0.105239	-1.520712	-0.149185
Zn9	Zn	-0.105113	-1.449518	-0.220371
O10	O	0.079884	-1.503727	-0.340504
C11	C	0.000052	-1.255574	-0.191950
C12	C	0.000046	-1.116129	-0.188261
N13	N	0.248799	-1.569309	-0.100602
N14	N	-0.248672	-1.400931	-0.268944
C15	C	0.600593	-1.265206	-0.404574
C16	C	0.701094	-1.299269	-0.370538
C17	C	0.701071	-1.468566	-0.201340
C18	C	0.600567	-1.434513	-0.235357
C19	C	0.550336	-1.332833	-0.336976
C20	C	0.550310	-1.502140	-0.167760
C21	C	0.449815	-1.468094	-0.201779
C22	C	0.399577	-1.366421	-0.303396
C23	C	0.449841	-1.298787	-0.370995
C24	C	0.600543	-1.603826	-0.066148
C25	C	0.550286	-1.671453	0.001450
C26	C	0.449789	-1.637401	-0.032563
C27	C	0.399551	-1.535728	-0.134180
C28	C	0.399525	-1.705034	0.035036
C29	C	0.299030	-1.670988	0.001017
C30	C	0.299056	-1.501682	-0.168199
C31	C	0.000069	-1.492286	0.044762
C32	C	0.000067	-1.488594	0.184204
C33	C	0.000072	-1.714655	-0.177606
C34	C	0.000072	-1.854099	-0.181297
C35	C	0.000044	-1.036643	-0.300803
C36	C	0.000061	-0.905627	-0.297320
C37	C	0.000076	-0.933596	-0.068746
C38	C	0.000066	-1.064611	-0.072227
C39	C	0.000055	-1.477943	-0.414318
C40	C	0.000051	-1.481634	-0.553762
C41	C	0.000072	-1.601137	0.263692
C42	C	0.000061	-1.597656	0.394708
C43	C	0.000043	-1.369081	0.366739
C44	C	0.000048	-1.372560	0.235723
H45	H	0.258156	-1.418875	-0.250938
Br46	Br	0.000028	-1.219807	0.127832
Br47	Br	0.263188	-1.320222	-0.349576
Br48	Br	0.381665	-1.160773	-0.508892
Br49	Br	0.467705	-1.843041	0.172926
H50	H	0.000062	-0.840915	-0.388963
Br51	Br	0.769247	-1.606562	-0.063439
Br52	Br	0.000101	-0.863669	0.088720
Br53	Br	0.000100	-1.758609	0.193777
H54	H	0.000028	-1.274611	0.408702
H55	H	0.559693	-1.182400	-0.487313
Br56	Br	0.000062	-1.750399	0.502579
H57	H	0.682372	-1.631546	-0.038458
Br58	Br	0.769294	-1.207480	-0.462300
Br59	Br	0.230821	-1.762778	0.092752
Br60	Br	0.000019	-1.106558	-0.458274
H61	H	0.591195	-1.754245	0.084186
H62	H	0.000070	-1.129333	0.019425
