data_functionalizedCrystal
_audit_creation_method	'MofGen! by Chris Wilmer'
_symmetry_space_group_name_H-M	'P1'
_symmetry_Int_Tables_number	1
_symmetry_cell_setting	triclinic
loop_
_symmetry_equiv_pos_as_xyz
  x,y,z
_cell_length_a	10.654562
_cell_length_b	10.654550
_cell_length_c	9.130313
_cell_angle_alpha	89.999890
_cell_angle_beta	89.996930
_cell_angle_gamma	84.487503
loop_
_atom_site_label
_atom_site_type_symbol
_atom_site_fract_x
_atom_site_fract_y
_atom_site_fract_z
O1	O	1.667825	0.176469	-0.121892
O2	O	1.302348	0.193259	-0.121873
O3	O	1.493490	0.002125	-0.121877
O4	O	1.476683	0.367603	-0.121887
O5	O	1.493487	0.002130	0.121721
O6	O	1.302346	0.193264	0.121726
O7	O	1.667822	0.176474	0.121707
Cu8	Cu	1.485084	0.184869	0.143959
Cu9	Cu	1.485087	0.184863	-0.144125
O10	O	1.476681	0.367608	0.121711
C11	C	1.255549	0.192025	-0.000071
C12	C	1.116107	0.188327	-0.000064
C13	C	1.050575	0.186605	0.132710
C14	C	0.919553	0.183140	0.132686
C15	C	0.919605	0.183125	-0.132899
C16	C	1.050626	0.186580	-0.132873
C17	C	1.050543	0.186619	0.286044
C18	C	0.919521	0.183154	0.286019
C19	C	1.492254	-0.044671	-0.000080
C20	C	1.488563	-0.184114	-0.000085
C21	C	1.601103	-0.263595	-0.000086
C22	C	1.597627	-0.394615	-0.000096
C23	C	1.369059	-0.366662	-0.000097
C24	C	1.372537	-0.235644	-0.000098
C25	C	1.717129	-0.212064	-0.000073
C26	C	1.829680	-0.291546	-0.000072
C27	C	1.826203	-0.422567	-0.000083
C28	C	1.710176	-0.474106	-0.000093
C29	C	1.714621	0.177708	-0.000098
C30	C	1.854064	0.181406	-0.000115
C31	C	1.477916	0.414403	-0.000090
C32	C	1.481608	0.553847	-0.000094
N33	N	1.485091	0.184873	0.346582
N34	N	1.485089	0.184850	-0.346748
C35	C	1.569750	0.100268	0.423232
C36	C	1.569747	0.100253	0.576568
C37	C	1.400421	0.269459	0.576592
C38	C	1.400419	0.269467	0.423258
C39	C	1.667513	0.002582	0.423219
C40	C	1.667510	0.002567	0.576556
H41	H	1.080117	0.278215	0.333618
H42	H	1.758697	0.033174	0.375655
O43	O	0.864233	0.286766	0.356058
C44	C	0.894980	0.396421	0.283233
H45	H	0.921374	0.372416	0.164818
H46	H	0.978148	0.435106	0.340602
C47	C	0.748146	0.525852	0.431585
C48	C	0.780553	0.496371	0.286141
H49	H	0.677566	0.587509	0.433384
H50	H	0.727435	0.451976	0.480653
H51	H	0.817463	0.558083	0.479376
H52	H	0.711243	0.464126	0.238359
H53	H	0.801251	0.570244	0.237065
O54	O	1.642135	-0.112614	0.373478
C55	C	1.743891	-0.165378	0.287679
H56	H	1.833136	-0.120845	0.319348
H57	H	1.722415	-0.146522	0.166914
C58	C	1.653890	-0.363335	0.275417
C59	C	1.763504	-0.308647	0.314322
H60	H	1.665986	-0.451711	0.291845
H61	H	1.585332	-0.327787	0.333217
H62	H	1.636005	-0.347610	0.174781
H63	H	1.781378	-0.324360	0.414960
H64	H	1.832065	-0.344202	0.256540
O65	O	1.105941	0.083175	0.356293
C66	C	1.237871	0.086840	0.356156
H67	H	1.260990	0.188395	0.341906
H68	H	1.280893	0.026948	0.262027
C69	C	1.264241	-0.090164	0.519909
C70	C	1.292637	0.034569	0.502420
H71	H	1.298026	-0.122412	0.610128
H72	H	1.175358	-0.092637	0.519998
H73	H	1.300094	-0.140059	0.441460
H74	H	1.256770	0.084464	0.580859
H75	H	1.381515	0.037049	0.502348
O76	O	1.256466	-0.416932	-0.000031
C77	C	1.277530	-0.549616	-0.000065
H78	H	1.375271	-0.579518	0.046049
H79	H	1.271129	-0.586137	-0.116931
C80	C	1.057108	-0.568101	0.038834
C81	C	1.177151	-0.604827	0.095484
H82	H	0.995187	-0.602159	0.097766
H83	H	1.042914	-0.478709	0.038851
H84	H	1.051791	-0.598537	-0.058553
H85	H	1.182471	-0.574378	0.192861
H86	H	1.191343	-0.694215	0.095485
H87	H	0.866275	0.181703	-0.241027
H88	H	1.719973	-0.105382	-0.000060
O89	O	1.942274	-0.241279	-0.000004
C90	C	1.921214	-0.108595	-0.000032
H91	H	1.823473	-0.078691	0.046091
H92	H	1.927621	-0.072071	-0.116896
C93	C	2.141637	-0.090120	0.038852
C94	C	2.021593	-0.053390	0.095512
H95	H	2.203557	-0.056065	0.097781
H96	H	2.155827	-0.179511	0.038864
H97	H	2.146958	-0.059681	-0.058535
H98	H	2.016268	-0.083843	0.192889
H99	H	2.007404	0.035998	0.095518
O100	O	1.318004	0.351504	0.651014
C101	C	1.193513	0.329942	0.613518
H102	H	1.192036	0.229386	0.571352
H103	H	1.157226	0.399218	0.524525
C104	C	1.110350	0.472147	0.801523
C105	C	1.108535	0.348638	0.749745
H106	H	1.057929	0.483685	0.885551
H107	H	1.194222	0.486679	0.826782
H108	H	1.080114	0.529863	0.727349
H109	H	1.138786	0.290925	0.823912
H110	H	1.024666	0.334098	0.724502
H111	H	1.707355	-0.580794	-0.000117
H112	H	1.636997	-0.088657	0.624107
O113	O	1.782743	0.028085	0.626041
C114	C	1.875401	-0.064792	0.574459
H115	H	1.839354	-0.110668	0.471888
H116	H	1.896700	-0.139555	0.662653
C117	C	2.040812	0.053061	0.663514
C118	C	1.996542	-0.003277	0.537527
H119	H	2.115540	0.091004	0.640739
H120	H	1.978387	0.115632	0.698271
H121	H	2.058551	-0.009251	0.736997
H122	H	1.978789	0.059038	0.464054
H123	H	2.058967	-0.065836	0.502757
H124	H	1.280896	-0.170928	-0.000095
H125	H	1.103980	0.187963	-0.240991
H126	H	1.917847	-0.487279	-0.000097
H127	H	0.889932	0.091561	0.333601
H128	H	1.331472	0.338348	0.360850
