data_functionalizedCrystal
_audit_creation_method	'MofGen! by Chris Wilmer'
_symmetry_space_group_name_H-M	'P1'
_symmetry_Int_Tables_number	1
_symmetry_cell_setting	triclinic
loop_
_symmetry_equiv_pos_as_xyz
  x,y,z
_cell_length_a	14.044220
_cell_length_b	11.026607
_cell_length_c	10.065875
_cell_angle_alpha	79.268236
_cell_angle_beta	80.445026
_cell_angle_gamma	79.112553
loop_
_atom_site_label
_atom_site_type_symbol
_atom_site_fract_x
_atom_site_fract_y
_atom_site_fract_z
O1	O	1.319595	-0.281426	-0.113483
O2	O	1.569595	-0.031426	0.136517
O3	O	1.819595	0.218574	0.386517
O4	O	2.069595	0.468574	0.636517
O5	O	1.041790	-0.270669	-0.113487
O6	O	1.291790	-0.020669	0.136513
O7	O	1.541790	0.229331	0.386513
O8	O	1.791790	0.479331	0.636513
O9	O	1.157668	-0.096903	-0.113480
O10	O	1.407668	0.153097	0.136520
O11	O	1.657668	0.403097	0.386520
O12	O	1.907668	0.653097	0.636520
O13	O	1.203717	-0.455192	-0.113490
O14	O	1.453717	-0.205192	0.136510
O15	O	1.703717	0.044808	0.386510
O16	O	1.953717	0.294808	0.636510
O17	O	1.135596	-0.130183	0.113507
O18	O	1.385596	0.119817	0.363507
O19	O	1.635596	0.369817	0.613507
O20	O	1.885596	0.619817	0.863507
O21	O	1.019719	-0.303950	0.113501
O22	O	1.269719	-0.053950	0.363501
O23	O	1.519719	0.196050	0.613501
O24	O	1.769719	0.446050	0.863501
O25	O	1.297523	-0.314706	0.113504
O26	O	1.547523	-0.064706	0.363504
O27	O	1.797523	0.185294	0.613504
O28	O	2.047523	0.435294	0.863504
Zn29	Zn	1.155117	-0.314612	0.149542
Zn30	Zn	1.405117	-0.064612	0.399542
Zn31	Zn	1.655117	0.185388	0.649542
Zn32	Zn	1.905117	0.435388	0.899542
Zn33	Zn	1.184197	-0.270764	-0.149524
Zn34	Zn	1.434197	-0.020764	0.100476
Zn35	Zn	1.684197	0.229236	0.350476
Zn36	Zn	1.934197	0.479236	0.600476
O37	O	1.181646	-0.488472	0.113498
O38	O	1.431646	-0.238472	0.363498
O39	O	1.681646	0.011528	0.613498
O40	O	1.931646	0.261528	0.863498
C41	C	1.138137	-0.067412	0.000012
C42	C	1.388137	0.182588	0.250012
C43	C	1.638137	0.432588	0.500012
C44	C	1.888137	0.682588	0.750012
C45	C	1.112813	0.070044	0.000006
C46	C	1.362813	0.320044	0.250006
C47	C	1.612813	0.570044	0.500006
C48	C	1.862813	0.820044	0.750006
C49	C	0.994637	-0.282601	0.000006
C50	C	1.244637	-0.032601	0.250006
C51	C	1.494637	0.217399	0.500006
C52	C	1.744637	0.467399	0.750006
C53	C	0.887015	-0.268557	0.000005
C54	C	1.137015	-0.018557	0.250005
C55	C	1.387015	0.231443	0.500005
C56	C	1.637015	0.481443	0.750005
C57	C	1.344677	-0.302774	0.000008
C58	C	1.594677	-0.052774	0.250008
C59	C	1.844677	0.197226	0.500008
C60	C	2.094677	0.447226	0.750008
C61	C	1.452300	-0.316816	0.000000
C62	C	1.702300	-0.066816	0.250000
C63	C	1.952300	0.183184	0.500000
C64	C	2.202300	0.433184	0.750000
C65	C	1.649342	-0.342491	0.000001
C66	C	1.899342	-0.092491	0.250001
C67	C	2.149342	0.157509	0.500001
C68	C	2.399342	0.407509	0.750001
C69	C	1.689979	-0.242888	0.000004
C70	C	1.939979	0.007112	0.250004
C71	C	2.189979	0.257112	0.500004
C72	C	2.439979	0.507112	0.750004
C73	C	1.799620	-0.257174	0.000005
C74	C	2.049620	-0.007174	0.250005
C75	C	2.299620	0.242826	0.500005
C76	C	2.549620	0.492826	0.750005
C77	C	1.539691	-0.328207	0.000001
C78	C	1.789691	-0.078207	0.250001
C79	C	2.039691	0.171793	0.500001
C80	C	2.289691	0.421793	0.750001
C81	C	1.201177	-0.517963	0.000003
C82	C	1.451177	-0.267963	0.250003
C83	C	1.701177	-0.017963	0.500003
C84	C	1.951177	0.232037	0.750003
C85	C	1.226501	-0.655417	-0.000001
C86	C	1.476501	-0.405417	0.249999
C87	C	1.726501	-0.155417	0.499999
C88	C	1.976501	0.094583	0.749999
N89	N	1.135277	-0.344537	0.353646
N90	N	1.385277	-0.094537	0.603646
N91	N	1.635277	0.155463	0.853646
N92	N	1.885277	0.405463	1.103646
C93	C	1.182738	0.136280	0.000005
C94	C	1.432738	0.386280	0.250005
C95	C	1.682738	0.636280	0.500005
C96	C	1.932738	0.886280	0.750005
C97	C	1.156566	0.278349	-0.000000
C98	C	1.406566	0.528349	0.250000
C99	C	1.656566	0.778349	0.500000
C100	C	1.906566	1.028349	0.750000
N101	N	1.204042	-0.240830	-0.353629
N102	N	1.454042	0.009170	-0.103629
N103	N	1.704042	0.259170	0.146371
N104	N	1.954042	0.509170	0.396371
C105	C	1.177287	-0.281167	0.421427
C106	C	1.427287	-0.031167	0.671427
C107	C	1.677287	0.218833	0.921427
C108	C	1.927287	0.468833	1.171427
C109	C	1.162027	-0.304209	0.578594
C110	C	1.412027	-0.054209	0.828594
C111	C	1.662027	0.195791	1.078594
C112	C	1.912027	0.445791	1.328594
H113	H	1.642436	-0.146870	-0.000092
H114	H	1.892436	0.103130	0.249908
H115	H	2.142436	0.353130	0.499908
H116	H	2.392436	0.603130	0.749908
F117	F	1.711493	-0.467965	-0.000010
F118	F	1.961493	-0.217965	0.249990
F119	F	2.211493	0.032035	0.499990
F120	F	2.461493	0.282035	0.749990
F121	F	1.238855	-0.187719	0.345200
F122	F	1.488855	0.062281	0.595200
F123	F	1.738855	0.312281	0.845200
F124	F	1.988855	0.562281	1.095200
H125	H	1.261978	0.087810	0.000015
H126	H	1.511978	0.337810	0.250015
H127	H	1.761978	0.587810	0.500015
H128	H	2.011978	0.837810	0.750015
F129	F	1.052987	0.341691	-0.000014
F130	F	1.302987	0.591691	0.249986
F131	F	1.552987	0.841691	0.499986
F132	F	1.802987	1.091691	0.749986
F133	F	1.330083	0.281245	-0.000006
F134	F	1.580083	0.531245	0.249994
F135	F	1.830083	0.781245	0.499994
F136	F	2.080083	1.031245	0.749994
F137	F	1.266020	-0.147836	0.570152
F138	F	1.516020	0.102164	0.820152
F139	F	1.766020	0.352164	1.070152
F140	F	2.016020	0.602164	1.320152
H141	H	1.033574	0.118514	-0.000004
H142	H	1.283574	0.368514	0.249996
H143	H	1.533574	0.618514	0.499996
H144	H	1.783574	0.868514	0.749996
F145	F	1.100240	-0.397418	0.654816
F146	F	1.350240	-0.147418	0.904816
F147	F	1.600240	0.102582	1.154816
F148	F	1.850240	0.352582	1.404816
H149	H	1.088010	-0.415844	0.411969
H150	H	1.338010	-0.165844	0.661969
H151	H	1.588010	0.084156	0.911969
H152	H	1.838010	0.334156	1.161969
