data_functionalizedCrystal
_audit_creation_method	'MofGen! by Chris Wilmer'
_symmetry_space_group_name_H-M	'P1'
_symmetry_Int_Tables_number	1
_symmetry_cell_setting	triclinic
loop_
_symmetry_equiv_pos_as_xyz
  x,y,z
_cell_length_a	18.215407
_cell_length_b	18.215405
_cell_length_c	18.215399
_cell_angle_alpha	90.029420
_cell_angle_beta	90.017813
_cell_angle_gamma	90.018333
loop_
_atom_site_label
_atom_site_type_symbol
_atom_site_fract_x
_atom_site_fract_y
_atom_site_fract_z
Zn1	Zn	1.125077	-0.293100	0.416069
Zn2	Zn	1.124988	-0.416171	0.292999
Zn3	Zn	1.002010	-0.293111	0.293020
Zn4	Zn	1.001978	-0.416117	0.416028
O5	O	1.063513	-0.354625	0.354529
O6	O	1.228050	-0.309443	0.399751
O7	O	1.108651	-0.399874	0.190018
O8	O	1.018386	-0.190125	0.309369
O9	O	1.227984	-0.399863	0.309333
O10	O	1.108803	-0.190117	0.399772
O11	O	1.018299	-0.309462	0.190033
O12	O	0.899021	-0.309410	0.309330
O13	O	1.018332	-0.399771	0.519018
O14	O	0.898998	-0.399782	0.399703
O15	O	1.108772	-0.309391	0.519048
O16	O	1.108620	-0.519148	0.309294
O17	O	1.018245	-0.519109	0.399683
C18	C	0.872307	-0.354592	0.354515
C19	C	0.790508	-0.354596	0.354526
C20	C	0.525479	-0.307634	0.401685
C21	C	0.602338	-0.307622	0.401683
C22	C	0.602289	-0.401639	0.307389
C23	C	0.525431	-0.401654	0.307396
C24	C	0.487029	-0.354647	0.354543
C25	C	0.640745	-0.354620	0.354534
C26	C	0.724078	-0.354608	0.354531
C27	C	0.403690	-0.354661	0.354547
C28	C	1.063439	-0.545831	0.354498
C29	C	1.063475	-0.627630	0.354509
C30	C	1.110671	-0.892683	0.307542
C31	C	1.110640	-0.815825	0.307526
C32	C	1.016447	-0.815825	0.401566
C33	C	1.016474	-0.892682	0.401578
C34	C	1.063590	-0.931109	0.354568
C35	C	1.063533	-0.777393	0.354538
C36	C	1.063500	-0.694060	0.354520
C37	C	1.063623	-1.014448	0.354584
C38	C	1.255466	-0.354658	0.354544
C39	C	1.337265	-0.354672	0.354550
C40	C	1.063558	-0.354574	0.546482
C41	C	1.063577	-0.354552	0.628281
C42	C	1.063608	-0.162672	0.354577
C43	C	1.063648	-0.080873	0.354597
C44	C	1.063511	-0.354622	0.163323
C45	C	1.063635	-0.354436	0.081524
C46	C	1.110687	-0.307447	0.816492
C47	C	1.110695	-0.307426	0.893350
C48	C	1.016520	-0.401544	0.893308
C49	C	1.016508	-0.401561	0.816451
C50	C	1.063596	-0.354514	0.778045
C51	C	1.063616	-0.354475	0.931761
C52	C	1.063625	-0.354452	1.015095
C53	C	1.063586	-0.354535	0.694706
H54	H	0.494124	-0.439943	0.269006
H55	H	0.633641	-0.269339	0.440072
H56	H	1.149035	-0.923969	0.269263
C57	C	0.644539	-0.453336	0.255522
N58	N	0.676361	-0.492271	0.216450
C59	C	0.483239	-0.255931	0.453554
N60	N	0.451425	-0.216989	0.492626
H61	H	0.978087	-0.784529	0.439842
H62	H	1.149026	-0.269136	0.785223
H63	H	0.978185	-0.439849	0.924588
C64	C	1.162428	-0.773560	0.255789
N65	N	1.201435	-0.741726	0.216816
C66	C	0.964699	-0.453338	0.774157
N67	N	0.925677	-0.492333	0.742301
C68	C	0.964678	-0.934953	0.453312
N69	N	0.925666	-0.966791	0.492275
H70	H	1.149040	-0.269098	0.924651
