data_functionalizedCrystal
_audit_creation_method	'MofGen! by Chris Wilmer'
_symmetry_space_group_name_H-M	'P1'
_symmetry_Int_Tables_number	1
_symmetry_cell_setting	triclinic
loop_
_symmetry_equiv_pos_as_xyz
  x,y,z
_cell_length_a	10.686220
_cell_length_b	12.645330
_cell_length_c	10.686551
_cell_angle_alpha	85.595904
_cell_angle_beta	90.308082
_cell_angle_gamma	94.399208
loop_
_atom_site_label
_atom_site_type_symbol
_atom_site_fract_x
_atom_site_fract_y
_atom_site_fract_z
Zn1	Zn	1.972274	-0.258449	-0.562395
Zn2	Zn	1.956034	-0.450325	-0.352642
Zn3	Zn	1.746391	-0.285568	-0.368713
Zn4	Zn	1.762464	-0.448176	-0.578420
O5	O	1.859291	-0.360629	-0.465542
O6	O	2.145662	-0.273452	-0.521138
O7	O	1.914701	-0.440718	-0.179229
O8	O	1.776424	-0.133617	-0.394424
O9	O	2.133731	-0.414422	-0.367034
O10	O	1.942379	-0.113693	-0.536721
O11	O	1.760677	-0.319671	-0.191036
O12	O	1.572980	-0.317588	-0.409963
O13	O	1.803819	-0.410760	-0.751839
O14	O	1.584790	-0.437056	-0.564034
O15	O	1.957965	-0.271369	-0.740065
O16	O	1.930287	-0.598393	-0.382573
O17	O	1.788072	-0.596814	-0.548451
C18	C	1.533369	-0.380032	-0.490482
C19	C	1.393940	-0.388356	-0.501181
C20	C	1.859198	-0.636066	-0.465532
C21	C	1.859276	-0.753889	-0.465560
C22	C	1.770231	-0.920460	-0.570182
C23	C	1.769713	-0.797951	-0.569908
C24	C	1.813339	-0.809805	-0.336095
C25	C	1.812795	-0.932397	-0.336731
C26	C	1.994766	-0.910703	-0.489286
C27	C	1.994173	-0.787944	-0.492239
C28	C	2.186485	-0.341151	-0.440506
C29	C	2.325916	-0.332851	-0.429837
C30	C	1.884497	-0.337800	-0.792742
C31	C	1.895238	-0.328071	-0.932175
C32	C	1.859420	-0.084114	-0.465578
C33	C	1.859475	0.033721	-0.465593
C34	C	1.834255	-0.383289	-0.139610
C35	C	1.823757	-0.392705	-0.000159
H36	H	1.374344	-0.278963	-0.360569
H37	H	1.345505	-0.442255	-0.570445
F38	F	1.640239	-0.970491	-0.551048
H39	H	2.028631	-0.750422	-0.587469
H40	H	1.964663	-0.265293	-0.980646
H41	H	1.799630	-0.759649	-0.666223
F42	F	1.809092	-0.948242	-0.696518
H43	H	1.669620	-0.776137	-0.555012
H44	H	2.064979	-0.757335	-0.420802
H45	H	1.713595	-0.968862	-0.315479
F46	F	1.895018	-0.773141	-0.232035
F47	F	1.893339	-0.972720	-0.232109
H48	H	1.715110	-0.786943	-0.314247
F49	F	2.046946	-0.939865	-0.609884
H50	H	2.061379	-0.940317	-0.412986
H51	H	1.754345	-0.455486	-0.951693
