data_functionalizedCrystal
_audit_creation_method	'MofGen! by Chris Wilmer'
_symmetry_space_group_name_H-M	'P1'
_symmetry_Int_Tables_number	1
_symmetry_cell_setting	triclinic
loop_
_symmetry_equiv_pos_as_xyz
  x,y,z
_cell_length_a	6.817900
_cell_length_b	10.943574
_cell_length_c	16.255661
_cell_angle_alpha	93.783815
_cell_angle_beta	103.488922
_cell_angle_gamma	108.837846
loop_
_atom_site_label
_atom_site_type_symbol
_atom_site_fract_x
_atom_site_fract_y
_atom_site_fract_z
V1	V	-4.054160	-0.179673	-0.263853
O2	O	-4.013035	0.007561	-0.258849
O3	O	-4.032530	-0.355229	-0.262031
O4	O	-4.005371	-0.177380	-0.378936
O5	O	-4.040382	-0.171520	-0.141134
V6	V	-4.534369	-0.157222	-0.249177
O7	O	-4.322687	-0.228921	-0.296046
O8	O	-4.716039	-0.107974	-0.216984
O9	O	-4.332792	0.018334	-0.250999
O10	O	-4.692890	-0.344456	-0.254181
O11	O	-4.665543	-0.165376	-0.371896
O12	O	-4.359951	-0.159515	-0.134093
C13	C	-3.884056	-0.398012	-0.257864
C14	C	-3.947655	-0.541534	-0.257141
C15	C	-3.831706	-0.704517	-0.251892
C16	C	-3.928177	-0.639005	-0.324624
C17	C	-3.850308	-0.605145	-0.184450
C18	C	-4.157590	-0.731762	-0.328673
C19	C	-4.079663	-0.697893	-0.188435
C20	C	-4.176300	-0.632430	-0.261188
C21	C	-3.849411	-0.171146	-0.406988
C22	C	-3.890982	-0.170433	-0.501069
C23	C	-3.800237	-0.161915	-0.723888
C24	C	-3.973446	-0.271843	-0.793353
C25	C	-3.967162	-0.169096	-0.673318
C26	C	-3.868051	-0.057910	-0.771490
C27	C	-4.040732	-0.167798	-0.839701
C28	C	-4.139868	-0.279121	-0.741553
C29	C	-4.034396	-0.065091	-0.719674
C30	C	-4.207746	-0.175050	-0.789119
C31	C	-3.924775	-0.169844	-0.577468
C32	C	-4.083137	-0.167060	-0.935550
C33	C	-4.144609	0.061110	-0.255164
C34	C	-4.060248	0.204631	-0.255892
C35	C	-4.179254	-0.165754	-0.106038
C36	C	-4.116920	-0.166460	-0.011956
H37	H	-4.321571	-0.600800	-0.265146
H38	H	-3.719740	-0.550186	-0.123517
H39	H	-4.059637	0.022324	-0.687574
N40	N	-4.424438	-0.182082	-0.824689
N41	N	-4.550008	-0.274918	-0.881445
H42	H	-4.703051	-0.279896	-0.906568
H43	H	-3.948127	-0.359254	-0.825430
N44	N	-3.583742	-0.155136	-0.688165
N45	N	-3.520963	-0.242909	-0.712907
H46	H	-3.368068	-0.238128	-0.687678
N47	N	-4.283527	-0.396519	-0.724640
N48	N	-4.274500	-0.416052	-0.649170
H49	H	-4.375953	-0.498963	-0.637223
H50	H	-3.753539	0.035554	-0.785109
N51	N	-4.160701	-0.730923	-0.116190
N52	N	-4.167802	-0.643348	-0.064778
H53	H	-4.225021	-0.666673	-0.013747
N54	N	-3.649836	-0.744525	-0.247069
N55	N	-3.555000	-0.727371	-0.304813
H56	H	-3.426558	-0.755627	-0.301411
N57	N	-3.847089	-0.606016	-0.396869
N58	N	-3.684822	-0.630036	-0.405042
H59	H	-3.627545	-0.606744	-0.456063
H60	H	-4.287991	-0.786558	-0.389686
