data_functionalizedCrystal
_audit_creation_method	'MofGen! by Chris Wilmer'
_symmetry_space_group_name_H-M	'P1'
_symmetry_Int_Tables_number	1
_symmetry_cell_setting	triclinic
loop_
_symmetry_equiv_pos_as_xyz
  x,y,z
_cell_length_a	17.077404
_cell_length_b	12.759400
_cell_length_c	17.077396
_cell_angle_alpha	89.974414
_cell_angle_beta	89.980499
_cell_angle_gamma	90.014910
loop_
_atom_site_label
_atom_site_type_symbol
_atom_site_fract_x
_atom_site_fract_y
_atom_site_fract_z
Zn1	Zn	1.200099	-0.418260	-0.443859
Zn2	Zn	1.200025	-0.593961	-0.312599
Zn3	Zn	1.068831	-0.418297	-0.312606
Zn4	Zn	1.068818	-0.593898	-0.443823
O5	O	1.134443	-0.506104	-0.378222
O6	O	1.309936	-0.441578	-0.426459
O7	O	1.182597	-0.570700	-0.202753
O8	O	1.086281	-0.271271	-0.330035
O9	O	1.309882	-0.570664	-0.330023
O10	O	1.182723	-0.271244	-0.426466
O11	O	1.086209	-0.441641	-0.202759
O12	O	0.958983	-0.441580	-0.330001
O13	O	1.086258	-0.570558	-0.553674
O14	O	0.958973	-0.570594	-0.426405
O15	O	1.182710	-0.441517	-0.553701
O16	O	1.182584	-0.740973	-0.329988
O17	O	1.086186	-0.740927	-0.426398
C18	C	0.930496	-0.506085	-0.378200
C19	C	0.843246	-0.506102	-0.378209
C20	C	0.802271	-0.573381	-0.428326
C21	C	0.720291	-0.573383	-0.428339
C22	C	0.679286	-0.506111	-0.378230
C23	C	0.720267	-0.438825	-0.328111
C24	C	0.802246	-0.438818	-0.328103
C25	C	0.549397	-0.438846	-0.328130
C26	C	0.467412	-0.438854	-0.328136
C27	C	0.467442	-0.573410	-0.428366
C28	C	0.549421	-0.573404	-0.428358
C29	C	0.590395	-0.506119	-0.378237
C30	C	1.134397	-0.779071	-0.378205
C31	C	1.134449	-0.895848	-0.378225
C32	C	1.184699	-0.950699	-0.328080
C33	C	1.184747	-1.060423	-0.328104
C34	C	1.084289	-1.060435	-0.428420
C35	C	1.084245	-0.950713	-0.428399
C36	C	1.234902	-0.895833	-0.277905
C37	C	1.285156	-0.950685	-0.227755
C38	C	1.285204	-1.060409	-0.227780
C39	C	1.234999	-1.115282	-0.277954
C40	C	1.339188	-0.506124	-0.378244
C41	C	1.426437	-0.506132	-0.378253
C42	C	1.134491	-0.506026	-0.582966
C43	C	1.134511	-0.505993	-0.670216
C44	C	1.134512	-0.232071	-0.378255
C45	C	1.134541	-0.115294	-0.378270
C46	C	1.184735	-0.438796	-0.711221
C47	C	1.184745	-0.438761	-0.793202
C48	C	1.134533	-0.505930	-0.834175
C49	C	1.084304	-0.573130	-0.793165
C50	C	1.084291	-0.573159	-0.711186
C51	C	1.084335	-0.573066	-0.964035
C52	C	1.084349	-0.573039	-1.046019
C53	C	1.184789	-0.438669	-1.046051
C54	C	1.184777	-0.438698	-0.964072
C55	C	1.134547	-0.505900	-0.923066
C56	C	1.134441	-0.506105	-0.174274
C57	C	1.134573	-0.505842	-0.087025
H58	H	0.582804	-0.628188	-0.469157
O59	O	1.334039	-1.113855	-0.179189
C60	C	1.378704	-1.282879	-0.134833
C61	C	1.323345	-1.222486	-0.189890
H62	H	1.370066	-1.370718	-0.143454
H63	H	1.441979	-1.261254	-0.148730
H64	H	1.365013	-1.261364	-0.071508
H65	H	1.336965	-1.243968	-0.253233
H66	H	1.260087	-1.244116	-0.175926
H67	H	1.225626	-0.384103	-0.677866
H68	H	0.686875	-0.384046	-0.287314
H69	H	0.835651	-0.628165	-0.469129
O70	O	1.035628	-1.113852	-0.477190
C71	C	1.025058	-1.237600	-0.583212
C72	C	1.080257	-1.177193	-0.528019
H73	H	1.061119	-1.288809	-0.624332
H74	H	0.984067	-1.289116	-0.547186
H75	H	0.989116	-1.179529	-0.619013
H76	H	1.116249	-1.235188	-0.492206
H77	H	1.121196	-1.125661	-0.564090
O78	O	0.841930	-0.373436	-0.279340
C79	C	0.833254	-0.239940	-0.179954
C80	C	0.788216	-0.313952	-0.235124
H81	H	0.789846	-0.191811	-0.144203
H82	H	0.871587	-0.288055	-0.138792
H83	H	0.871681	-0.185106	-0.216070
H84	H	0.749747	-0.368800	-0.199071
H85	H	0.749932	-0.265772	-0.276289
H86	H	1.043328	-0.906053	-0.469233
O87	O	1.035488	-0.638546	-0.671472
C88	C	0.935852	-0.771801	-0.680087
C89	C	0.991093	-0.697815	-0.725159
H90	H	0.899933	-0.819723	-0.723474
H91	H	0.971843	-0.826818	-0.641733
H92	H	0.894843	-0.723570	-0.641680
H93	H	1.032113	-0.745961	-0.763609
H94	H	0.955053	-0.642795	-0.763464
H95	H	1.234867	-0.806491	-0.277878
H96	H	1.326036	-0.906001	-0.186910
O97	O	1.233435	-0.373383	-0.924190
C98	C	1.243981	-0.231501	-0.831710
C99	C	1.188795	-0.305436	-0.876808
H100	H	1.207912	-0.176533	-0.793404
H101	H	1.285004	-0.279672	-0.793269
H102	H	1.279889	-0.183513	-0.875122
H103	H	1.152836	-0.353440	-0.833453
H104	H	1.147824	-0.257205	-0.915261
H105	H	0.686933	-0.628169	-0.469149
O106	O	1.233564	-0.373629	-0.833126
C107	C	1.339578	-0.359459	-0.925685
C108	C	1.284332	-0.433347	-0.880531
H109	H	1.380648	-0.407712	-0.964011
H110	H	1.303591	-0.304526	-0.964112
H111	H	1.375431	-0.311429	-0.882310
H112	H	1.248467	-0.481445	-0.923850
H113	H	1.320364	-0.488211	-0.842092
O114	O	0.427522	-0.638669	-0.477033
C115	C	0.301242	-0.698357	-0.521439
C116	C	0.346356	-0.624381	-0.466304
H117	H	0.235611	-0.686847	-0.512772
H118	H	0.317336	-0.680016	-0.584774
H119	H	0.317387	-0.783036	-0.507548
H120	H	0.330236	-0.539677	-0.480123
H121	H	0.330258	-0.642812	-0.402985
H122	H	0.434029	-0.384062	-0.287342
H123	H	1.043421	-0.627773	-0.930651
O124	O	0.589079	-0.373459	-0.279364
C125	C	0.580403	-0.239977	-0.179966
C126	C	0.535366	-0.313978	-0.235145
H127	H	0.536996	-0.191851	-0.144213
H128	H	0.618733	-0.288100	-0.138807
H129	H	0.618834	-0.185141	-0.216077
H130	H	0.496893	-0.368829	-0.199098
H131	H	0.497086	-0.265789	-0.276307
H132	H	1.235048	-1.204626	-0.277975
O133	O	1.035497	-0.638314	-1.085702
C134	C	0.935897	-0.771627	-1.077024
C135	C	0.991168	-0.697740	-1.031987
H136	H	0.900055	-0.819708	-1.033616
H137	H	0.894825	-0.723417	-1.115385
H138	H	0.971940	-0.826511	-1.115424
H139	H	0.955188	-0.642842	-0.993545
H140	H	1.032243	-0.746015	-0.993676
H141	H	1.225686	-0.383950	-1.079441
H142	H	1.043418	-0.627815	-0.826532
