data_functionalizedCrystal
_audit_creation_method	'MofGen! by Chris Wilmer'
_symmetry_space_group_name_H-M	'P1'
_symmetry_Int_Tables_number	1
_symmetry_cell_setting	triclinic
loop_
_symmetry_equiv_pos_as_xyz
  x,y,z
_cell_length_a	13.897449
_cell_length_b	13.897448
_cell_length_c	13.897449
_cell_angle_alpha	90.009266
_cell_angle_beta	90.006536
_cell_angle_gamma	90.018519
loop_
_atom_site_label
_atom_site_type_symbol
_atom_site_fract_x
_atom_site_fract_y
_atom_site_fract_z
Zn1	Zn	1.474542	-0.384166	0.545449
Zn2	Zn	1.724542	-0.134166	0.795449
Zn3	Zn	1.974542	0.115834	1.045449
Zn4	Zn	2.224542	0.365834	1.295449
Zn5	Zn	1.474484	-0.545428	0.384151
Zn6	Zn	1.724484	-0.295428	0.634151
Zn7	Zn	1.974484	-0.045428	0.884151
Zn8	Zn	2.224484	0.204572	1.134151
Zn9	Zn	1.313279	-0.384151	0.384160
Zn10	Zn	1.563279	-0.134151	0.634160
Zn11	Zn	1.813279	0.115849	0.884160
Zn12	Zn	2.063279	0.365849	1.134160
Zn13	Zn	1.313213	-0.545423	0.545396
Zn14	Zn	1.563213	-0.295423	0.795396
Zn15	Zn	1.813213	-0.045423	1.045396
Zn16	Zn	2.063213	0.204577	1.295396
O17	O	1.393879	-0.464792	0.464789
O18	O	1.643879	-0.214792	0.714789
O19	O	1.893879	0.035208	0.964789
O20	O	2.143879	0.285208	1.214789
O21	O	1.609516	-0.405566	0.524071
O22	O	1.859516	-0.155566	0.774071
O23	O	2.109516	0.094434	1.024071
O24	O	2.359516	0.344434	1.274071
O25	O	1.453102	-0.524029	0.249170
O26	O	1.703102	-0.274029	0.499170
O27	O	1.953102	-0.024029	0.749170
O28	O	2.203102	0.225971	0.999170
O29	O	1.334723	-0.249171	0.405582
O30	O	1.584723	0.000829	0.655582
O31	O	1.834723	0.250829	0.905582
O32	O	2.084723	0.500829	1.155582
O33	O	1.609473	-0.524044	0.405566
O34	O	1.859473	-0.274044	0.655566
O35	O	2.109473	-0.024044	0.905566
O36	O	2.359473	0.225956	1.155566
O37	O	1.453202	-0.249182	0.524080
O38	O	1.703202	0.000818	0.774080
O39	O	1.953202	0.250818	1.024080
O40	O	2.203202	0.500818	1.274080
O41	O	1.334666	-0.405540	0.249177
O42	O	1.584666	-0.155540	0.499177
O43	O	1.834666	0.094460	0.749177
O44	O	2.084666	0.344460	0.999177
O45	O	1.178288	-0.405535	0.405530
O46	O	1.428288	-0.155535	0.655530
O47	O	1.678288	0.094465	0.905530
O48	O	1.928288	0.344465	1.155530
O49	O	1.334611	-0.524036	0.680384
O50	O	1.584611	-0.274036	0.930384
O51	O	1.834611	-0.024036	1.180384
O52	O	2.084611	0.225964	1.430384
O53	O	1.178240	-0.524021	0.523989
O54	O	1.428240	-0.274021	0.773989
O55	O	1.678240	-0.024021	1.023989
O56	O	1.928240	0.225979	1.273989
O57	O	1.453138	-0.405562	0.680424
O58	O	1.703138	-0.155562	0.930424
O59	O	1.953138	0.094438	1.180424
O60	O	2.203138	0.344438	1.430424
O61	O	1.453039	-0.680409	0.405514
O62	O	1.703039	-0.430409	0.655514
O63	O	1.953039	-0.180409	0.905514
O64	O	2.203039	0.069591	1.155514
O65	O	1.334554	-0.680405	0.523980
O66	O	1.584554	-0.430405	0.773980
O67	O	1.834554	-0.180405	1.023980
O68	O	2.084554	0.069595	1.273980
C69	C	1.143265	-0.464777	0.464755
C70	C	1.393265	-0.214777	0.714755
C71	C	1.643265	0.035223	0.964755
C72	C	1.893265	0.285223	1.214755
C73	C	1.036051	-0.464794	0.464764
C74	C	1.286051	-0.214794	0.714764
C75	C	1.536051	0.035206	0.964764
C76	C	1.786051	0.285206	1.214764
C77	C	1.393809	-0.715406	0.464761
C78	C	1.643809	-0.465406	0.714761
C79	C	1.893809	-0.215406	0.964761
C80	C	2.143809	0.034594	1.214761
C81	C	1.393867	-0.822620	0.464781
C82	C	1.643867	-0.572620	0.714781
C83	C	1.893867	-0.322620	0.964781
C84	C	2.143867	-0.072620	1.214781
C85	C	0.948981	-0.464797	0.464780
C86	C	1.198981	-0.214797	0.714780
C87	C	1.448981	0.035203	0.964780
C88	C	1.698981	0.285203	1.214780
C89	C	0.839749	-0.464804	0.464809
C90	C	1.089749	-0.214804	0.714809
C91	C	1.339749	0.035196	0.964809
C92	C	1.589749	0.285196	1.214809
C93	C	1.393968	-1.018915	0.464842
C94	C	1.643968	-0.768915	0.714842
C95	C	1.893968	-0.518915	0.964842
C96	C	2.143968	-0.268915	1.214842
C97	C	1.393909	-0.909683	0.464811
C98	C	1.643909	-0.659683	0.714811
C99	C	1.893909	-0.409683	0.964811
C100	C	2.143909	-0.159683	1.214811
C101	C	1.645472	-0.464807	0.464823
C102	C	1.895472	-0.214807	0.714823
C103	C	2.145472	0.035193	0.964823
C104	C	2.395472	0.285193	1.214823
C105	C	1.752686	-0.464814	0.464838
C106	C	2.002686	-0.214814	0.714838
C107	C	2.252686	0.035186	0.964838
C108	C	2.502686	0.285186	1.214838
C109	C	1.393874	-0.464800	0.716382
C110	C	1.643874	-0.214800	0.966382
C111	C	1.893874	0.035200	1.216382
C112	C	2.143874	0.285200	1.466382
C113	C	1.393871	-0.464804	0.823596
C114	C	1.643871	-0.214804	1.073596
C115	C	1.893871	0.035196	1.323596
C116	C	2.143871	0.285196	1.573596
C117	C	1.393976	-0.213199	0.464838
C118	C	1.643976	0.036801	0.714838
C119	C	1.893976	0.286801	0.964838
C120	C	2.143976	0.536801	1.214838
C121	C	1.394018	-0.105985	0.464859
C122	C	1.644018	0.144015	0.714859
C123	C	1.894018	0.394015	0.964859
C124	C	2.144018	0.644015	1.214859
C125	C	1.393869	-0.464807	0.910666
C126	C	1.643869	-0.214807	1.160666
C127	C	1.893869	0.035193	1.410666
C128	C	2.143869	0.285193	1.660666
C129	C	1.393868	-0.464803	1.019898
C130	C	1.643868	-0.214803	1.269898
C131	C	1.893868	0.035197	1.519898
C132	C	2.143868	0.285197	1.769898
C133	C	1.393876	-0.464803	1.214175
C134	C	1.643876	-0.214803	1.464175
C135	C	1.893876	0.035197	1.714175
C136	C	2.143876	0.285197	1.964175
C137	C	1.393873	-0.464794	1.106961
C138	C	1.643873	-0.214794	1.356961
C139	C	1.893873	0.035206	1.606961
C140	C	2.143873	0.285206	1.856961
