data_functionalizedCrystal
_audit_creation_method	'MofGen! by Chris Wilmer'
_symmetry_space_group_name_H-M	'P1'
_symmetry_Int_Tables_number	1
_symmetry_cell_setting	triclinic
loop_
_symmetry_equiv_pos_as_xyz
  x,y,z
_cell_length_a	19.121102
_cell_length_b	18.215405
_cell_length_c	18.215399
_cell_angle_alpha	90.030551
_cell_angle_beta	87.541604
_cell_angle_gamma	92.420928
loop_
_atom_site_label
_atom_site_type_symbol
_atom_site_fract_x
_atom_site_fract_y
_atom_site_fract_z
Zn1	Zn	1.073728	0.341065	-0.464034
Zn2	Zn	1.573728	0.841065	0.035966
Zn3	Zn	1.073640	0.464132	-0.340958
Zn4	Zn	1.573640	0.964132	0.159042
Zn5	Zn	0.956277	0.335830	-0.335738
Zn6	Zn	1.456277	0.835830	0.164262
Zn7	Zn	0.956244	0.458834	-0.458742
Zn8	Zn	1.456244	0.958834	0.041258
O9	O	1.014972	0.399965	-0.399868
O10	O	1.514972	0.899965	0.100132
O11	O	1.172001	0.361798	-0.452107
O12	O	1.672001	0.861798	0.047893
O13	O	1.058049	0.447139	-0.237280
O14	O	1.558049	0.947139	0.262720
O15	O	0.971907	0.233542	-0.352787
O16	O	1.471907	0.733542	0.147213
O17	O	1.171936	0.452215	-0.361683
O18	O	1.671936	0.952215	0.138317
O19	O	1.058198	0.237388	-0.447045
O20	O	1.558198	0.737388	0.052955
O21	O	0.971822	0.352875	-0.233445
O22	O	1.471822	0.852875	0.266555
O23	O	0.857988	0.347738	-0.347656
O24	O	1.357988	0.847738	0.152344
O25	O	0.971852	0.443186	-0.562430
O26	O	1.471852	0.943186	-0.062430
O27	O	0.857964	0.438109	-0.438027
O28	O	1.357964	0.938109	0.061973
O29	O	1.058166	0.356661	-0.566317
O30	O	1.558166	0.856661	-0.066317
O31	O	1.058017	0.566412	-0.356553
O32	O	1.558017	1.066412	0.143447
O33	O	0.971767	0.562519	-0.443088
O34	O	1.471767	1.062519	0.056912
C35	C	0.832492	0.391781	-0.391701
C36	C	1.332492	0.891781	0.108299
C37	C	0.754426	0.388298	-0.388225
C38	C	1.254426	0.888298	0.111775
C39	C	1.014898	0.591168	-0.399829
C40	C	1.514898	1.091168	0.100171
C41	C	1.014931	0.672969	-0.399840
C42	C	1.514931	1.172969	0.100160
C43	C	1.015015	0.399916	-0.591823
C44	C	1.515015	0.899916	-0.091823
C45	C	1.015033	0.399896	-0.673623
C46	C	1.515033	0.899896	-0.173623
C47	C	0.717756	0.433783	-0.433569
C48	C	1.217756	0.933783	0.066431
C49	C	0.644405	0.430501	-0.430306
C50	C	1.144405	0.930501	0.069694
C51	C	0.607725	0.381735	-0.381695
C52	C	1.107725	0.881735	0.118305
C53	C	0.644400	0.336244	-0.336349
C54	C	1.144400	0.836244	0.163651
C55	C	0.717750	0.339524	-0.339616
C56	C	1.217750	0.839524	0.160384
C57	C	0.386256	0.369472	-0.369483
C58	C	0.886256	0.869472	0.130517
C59	C	0.312901	0.366197	-0.366218
C60	C	0.812901	0.866197	0.133782
C61	C	0.312911	0.460453	-0.460176
C62	C	0.812911	0.960453	0.039824
C63	C	0.386262	0.463731	-0.463436
C64	C	0.886262	0.963731	0.036564
C65	C	0.422931	0.418238	-0.418093
C66	C	0.922931	0.918238	0.081907
C67	C	0.532748	0.378380	-0.378356
C68	C	1.032748	0.878380	0.121644
C69	C	0.497906	0.421590	-0.421435
C70	C	0.997906	0.921590	0.078565
C71	C	1.198165	0.408182	-0.408068
C72	C	1.698165	0.908182	0.091932
C73	C	1.276231	0.411683	-0.411562
C74	C	1.776231	0.911683	0.088438
C75	C	1.015066	0.208016	-0.399924
C76	C	1.515066	0.708016	0.100076
C77	C	1.015106	0.126219	-0.399948
C78	C	1.515106	0.626219	0.100052
C79	C	1.059947	0.863170	-0.354873
C80	C	1.559947	1.363170	0.145127
C81	C	1.059978	0.940030	-0.354892
C82	C	1.559978	1.440030	0.145108
C83	C	0.970088	0.936013	-0.444921
C84	C	1.470088	1.436013	0.055079
C85	C	0.970060	0.859154	-0.444905
C86	C	1.470060	1.359154	0.055095
C87	C	1.014989	0.822735	-0.399877
C88	C	1.514989	1.322735	0.100123
C89	C	1.015048	0.976453	-0.399912
C90	C	1.515048	1.476453	0.100088
C91	C	1.015081	1.059788	-0.399933
C92	C	1.515081	1.559788	0.100067
C93	C	1.014956	0.739394	-0.399856
C94	C	1.514956	1.239394	0.100144
C95	C	1.059993	0.354799	-0.863843
C96	C	1.559993	0.854799	-0.363843
C97	C	1.060002	0.354778	-0.940702
C98	C	1.560002	0.854778	-0.440702
C99	C	0.970123	0.444881	-0.936643
C100	C	1.470123	0.944881	-0.436643
C101	C	0.970111	0.444897	-0.859785
C102	C	1.470111	0.944897	-0.359785
C103	C	1.015051	0.399858	-0.823387
C104	C	1.515051	0.899858	-0.323387
C105	C	1.015070	0.399820	-0.977104
C106	C	1.515070	0.899820	-0.477104
C107	C	1.015079	0.399798	-1.060438
C108	C	1.515079	0.899798	-0.560438
C109	C	1.015041	0.399879	-0.740048
C110	C	1.515041	0.899879	-0.240048
C111	C	1.014970	0.399963	-0.208662
C112	C	1.514970	0.899963	0.291338
C113	C	1.015088	0.399782	-0.126869
C114	C	1.515088	0.899782	0.373131
H115	H	0.747616	0.473496	-0.473151
H116	H	1.247616	0.973496	0.026849
N117	N	0.924210	0.490936	-0.818454
N118	N	1.424210	0.990936	-0.318454
N119	N	0.948893	0.538946	-0.776657
N120	N	1.448893	1.038946	-0.276657
H121	H	0.916475	0.571457	-0.747466
H122	H	1.416475	1.071457	-0.247466
H123	H	0.416122	0.503443	-0.503018
H124	H	0.916122	1.003443	-0.003018
N125	N	0.606959	0.476964	-0.476633
N126	N	1.106959	0.976964	0.023367
N127	N	0.639717	0.520503	-0.520031
N128	N	1.139717	1.020503	-0.020031
H129	H	0.613272	0.553319	-0.552754
H130	H	1.113272	1.053319	-0.052754
H131	H	0.933507	0.965675	-0.481580
H132	H	1.433507	1.465675	0.018420
N133	N	1.105900	0.308789	-0.826675
N134	N	1.605900	0.808789	-0.326675
N135	N	1.146023	0.268560	-0.862809
N136	N	1.646023	0.768560	-0.362809
H137	H	1.178445	0.236063	-0.836561
H138	H	1.678445	0.736063	-0.336561
H139	H	0.933536	0.481552	-0.966287
H140	H	1.433536	0.981552	-0.466287
N141	N	0.275444	0.506916	-0.506484
N142	N	0.775444	1.006916	-0.006484
N143	N	0.209954	0.503986	-0.503562
N144	N	0.709954	1.003986	-0.003562
H145	H	0.183492	0.536801	-0.536269
H146	H	0.683492	1.036801	-0.036269
N147	N	0.275440	0.316369	-0.316566
N148	N	0.775440	0.816369	0.183434
N149	N	0.283654	0.248835	-0.321945
N150	N	0.783654	0.748835	0.178055
H151	H	0.257197	0.213645	-0.286880
H152	H	0.757197	0.713645	0.213120
N153	N	0.423694	0.323003	-0.323158
N154	N	0.923694	0.823003	0.176842
N155	N	0.390933	0.279471	-0.279756
N156	N	0.890933	0.779471	0.220244
H157	H	0.417376	0.246651	-0.247034
H158	H	0.917376	0.746651	0.252966
N159	N	1.105901	0.308742	-0.982026
N160	N	1.605901	0.808742	-0.482026
N161	N	1.101272	0.240629	-0.973253
N162	N	1.601272	0.740629	-0.473253
H163	H	1.133689	0.208112	-1.002438
H164	H	1.633689	0.708112	-0.502438
N165	N	0.606923	0.286430	-0.286703
N166	N	1.106923	0.786430	0.213297
N167	N	0.541433	0.283508	-0.283791
N168	N	1.041433	0.783508	0.216209
H169	H	0.514965	0.248326	-0.248727
H170	H	1.014965	0.748326	0.251273
H171	H	0.527774	0.461291	-0.461017
H172	H	1.027774	0.961291	0.038983
N173	N	0.755198	0.293049	-0.293300
N174	N	1.255198	0.793049	0.206700
N175	N	0.722442	0.249508	-0.249903
N176	N	1.222442	0.749508	0.250097
H177	H	0.748889	0.216679	-0.217194
H178	H	1.248889	0.716679	0.282806
N179	N	0.495278	0.328563	-0.328709
N180	N	0.995278	0.828563	0.171291
N181	N	0.454376	0.279873	-0.352870
N182	N	0.954376	0.779873	0.147130
H183	H	0.427910	0.244688	-0.317808
H184	H	0.927910	0.744688	0.182192
H185	H	1.096531	0.833519	-0.318209
H186	H	1.596531	1.333519	0.181791
N187	N	1.105889	0.981331	-0.308907
N188	N	1.605889	1.481331	0.191093
N189	N	1.081219	1.023168	-0.260893
N190	N	1.581219	1.523168	0.239107
H191	H	1.113645	1.052337	-0.228414
H192	H	1.613645	1.552337	0.271586
H193	H	0.933450	0.826230	-0.481556
H194	H	1.433450	1.326230	0.018444
