data_functionalizedCrystal
_audit_creation_method	'MofGen! by Chris Wilmer'
_symmetry_space_group_name_H-M	'P1'
_symmetry_Int_Tables_number	1
_symmetry_cell_setting	triclinic
loop_
_symmetry_equiv_pos_as_xyz
  x,y,z
_cell_length_a	12.759400
_cell_length_b	12.759401
_cell_length_c	18.215399
_cell_angle_alpha	90.017882
_cell_angle_beta	90.024508
_cell_angle_gamma	90.016097
loop_
_atom_site_label
_atom_site_type_symbol
_atom_site_fract_x
_atom_site_fract_y
_atom_site_fract_z
Zn1	Zn	-0.418234	1.606236	0.416095
Zn2	Zn	-0.593932	1.606136	0.293036
Zn3	Zn	-0.418272	1.430544	0.293047
Zn4	Zn	-0.593877	1.430527	0.416065
O5	O	-0.506079	1.518361	0.354561
O6	O	-0.441548	1.753243	0.399779
O7	O	-0.570669	1.582809	0.190053
O8	O	-0.271246	1.453898	0.309386
O9	O	-0.570632	1.753171	0.309368
O10	O	-0.271218	1.582978	0.399789
O11	O	-0.441613	1.453802	0.190061
O12	O	-0.441559	1.283520	0.309357
O13	O	-0.570538	1.453869	0.519054
O14	O	-0.570575	1.283508	0.399739
O15	O	-0.441495	1.582962	0.519076
O16	O	-0.740945	1.582793	0.309340
O17	O	-0.740905	1.453773	0.399728
C18	C	-0.506066	1.245393	0.354546
C19	C	-0.506086	1.128617	0.354558
C20	C	-0.573366	1.073776	0.401545
C21	C	-0.573370	0.964052	0.401560
C22	C	-0.438810	0.964019	0.307593
C23	C	-0.438801	1.073741	0.307583
C24	C	-0.611082	0.814149	0.488320
C25	C	-0.678379	0.759304	0.535301
C26	C	-0.780911	0.794901	0.546473
C27	C	-0.816168	0.885342	0.510652
C28	C	-0.748876	0.940181	0.463665
C29	C	-0.646329	0.904585	0.452508
C30	C	-0.401101	1.223646	0.220821
C31	C	-0.333814	1.278487	0.173830
C32	C	-0.231280	1.242892	0.162651
C33	C	-0.196027	1.152448	0.198459
C34	C	-0.263314	1.097607	0.245450
C35	C	-0.365847	1.133210	0.256629
C36	C	-0.779046	1.518299	0.354546
C37	C	-0.895823	1.518368	0.354564
C38	C	-1.060402	1.585688	0.307574
C39	C	-0.950678	1.585625	0.307551
C40	C	-0.950697	1.451163	0.401598
C41	C	-1.060419	1.451222	0.401617
C42	C	-0.800780	1.623153	0.220756
C43	C	-0.745910	1.690367	0.173730
C44	C	-0.781448	1.792910	0.162501
C45	C	-0.871855	1.828259	0.198307
C46	C	-0.926720	1.761050	0.245338
C47	C	-0.891183	1.658493	0.256554
C48	C	-1.210319	1.413704	0.488413
C49	C	-1.265185	1.346500	0.535448
C50	C	-1.229649	1.243956	0.546685
C51	C	-1.139239	1.208610	0.510891
C52	C	-1.084372	1.275815	0.463856
C53	C	-1.119916	1.378358	0.452618
C54	C	-0.232045	1.518451	0.354592
C55	C	-0.115269	1.518490	0.354606
C56	C	-0.506092	1.792394	0.354576
C57	C	-0.506098	1.909170	0.354582
C58	C	-0.506006	1.518425	0.546514
C59	C	-0.505975	1.518452	0.628313
C60	C	-0.506075	1.518357	0.163355
C61	C	-0.505810	1.518534	0.081556
C62	C	-0.438720	1.585695	0.816519
C63	C	-0.438689	1.585707	0.893378
C64	C	-0.573069	1.451283	0.893344
C65	C	-0.573093	1.451266	0.816487
C66	C	-0.505920	1.518478	0.778076
C67	C	-0.505865	1.518507	0.931793
C68	C	-0.505832	1.518521	1.015126
C69	C	-0.505951	1.518464	0.694737
H70	H	-0.362526	1.352130	0.144673
C71	C	-0.646133	1.378496	0.935089
C72	C	-0.713477	1.437977	0.979193
C73	C	-0.780810	1.370963	1.017650
H74	H	-0.606056	1.332718	0.965133
H75	H	-0.686219	1.338478	0.901207
H76	H	-0.673394	1.477978	1.013071
H77	H	-0.753577	1.483753	0.949168
H78	H	-0.820897	1.330945	0.983769
H79	H	-0.740724	1.325188	1.047690
H80	H	-0.826517	1.411311	1.047574
H81	H	-0.736764	1.847637	0.124212
C82	C	-1.100655	1.097308	0.523249
C83	C	-1.078508	1.082843	0.597850
C84	C	-1.042968	0.980325	0.609270
H85	H	-1.038921	1.085776	0.495265
H86	H	-1.153319	1.049106	0.508384
H87	H	-1.025849	1.131031	0.612706
H88	H	-1.140227	1.094353	0.625849
H89	H	-1.095631	0.932122	0.594405
H90	H	-0.981236	0.968802	0.581282
H91	H	-1.027946	0.970494	0.659887
H92	H	-0.484590	1.252643	0.229925
C93	C	-0.224917	0.999540	0.284430
C94	C	-0.138891	1.024822	0.328779
C95	C	-0.103503	0.934514	0.364706
H96	H	-0.204553	0.948702	0.249105
H97	H	-0.279633	0.971977	0.314056
H98	H	-0.084186	1.052369	0.299155
H99	H	-0.159229	1.075645	0.364117
H100	H	-0.158219	0.906951	0.394332
H101	H	-0.083145	0.883682	0.329376
H102	H	-0.045137	0.951657	0.394805
C103	C	-0.647636	1.652113	0.134947
C104	C	-0.562452	1.714767	0.155559
C105	C	-0.471902	1.679558	0.119856
H106	H	-0.657356	1.656414	0.083331
H107	H	-0.634264	1.581425	0.148374
H108	H	-0.575822	1.785437	0.142126
H109	H	-0.552699	1.710474	0.207168
H110	H	-0.458531	1.608870	0.133283
H111	H	-0.481633	1.683860	0.068242
H112	H	-0.414093	1.722056	0.133841
H113	H	-1.239264	1.497203	0.479264
H114	H	-0.176499	1.287548	0.124381
H115	H	-0.771844	1.539651	0.229886
C116	C	-0.365878	0.904248	0.256620
C117	C	-0.380303	0.796419	0.266671
C118	C	-0.313145	0.741329	0.219720
H119	H	-0.295265	0.922125	0.267431
H120	H	-0.381167	0.922134	0.207136
H121	H	-0.365007	0.778541	0.316144
H122	H	-0.450903	0.778511	0.255855
H123	H	-0.328434	0.759214	0.170236
H124	H	-0.242536	0.759214	0.230535
H125	H	-0.322930	0.668162	0.226528
H126	H	-0.384020	1.640420	0.785248
H127	H	-1.105057	1.640461	0.269294
H128	H	-0.899664	0.914311	0.519745
H129	H	-0.627815	1.396523	0.785186
C130	C	-1.289207	1.170830	0.597649
C131	C	-1.323023	1.082883	0.558214
C132	C	-1.377874	1.015491	0.605137
H133	H	-1.348195	1.206423	0.617385
H134	H	-1.244476	1.149164	0.636491
H135	H	-1.367752	1.104549	0.519386
H136	H	-1.264056	1.047261	0.538480
H137	H	-1.333143	0.993825	0.643979
H138	H	-1.436857	1.051094	0.624871
H139	H	-1.400816	0.955807	0.578390
H140	H	-0.628151	1.118452	0.439797
C141	C	-0.986277	1.237222	0.425015
C142	C	-0.966914	1.133021	0.444902
C143	C	-0.876574	1.097429	0.409124
H144	H	-0.928270	1.279523	0.438863
H145	H	-0.996149	1.241443	0.373401
H146	H	-0.957035	1.128807	0.496504
H147	H	-1.024897	1.090694	0.431052
H148	H	-0.886445	1.101650	0.357510
H149	H	-0.818574	1.139737	0.422975
H150	H	-0.863429	1.026722	0.422606
H151	H	-0.777581	1.013815	0.434501
C152	C	-0.910295	1.939620	0.185996
C153	C	-0.842912	1.990904	0.137131
C154	C	-0.878302	2.093487	0.125764
H155	H	-0.911268	1.976126	0.231446
H156	H	-0.979037	1.937909	0.165968
H157	H	-0.774188	1.992621	0.157162
H158	H	-0.841931	1.954429	0.091673
H159	H	-0.947044	2.091776	0.105735
H160	H	-0.879274	2.129983	0.171217
H161	H	-0.832594	2.128293	0.092603
C162	C	-0.853802	0.735245	0.597540
C163	C	-0.800976	0.648440	0.626529
C164	C	-0.868077	0.593467	0.673585
H165	H	-0.913542	0.712144	0.570931
H166	H	-0.875399	0.779939	0.636415
H167	H	-0.779394	0.603753	0.587659
H168	H	-0.741241	0.671512	0.653150
H169	H	-0.889675	0.638161	0.712460
H170	H	-0.927814	0.570373	0.646971
H171	H	-0.832242	0.534569	0.693265
H172	H	-0.649663	0.685668	0.564467
H173	H	-0.906028	1.396396	0.439874
C174	C	-0.365557	1.658629	0.935020
C175	C	-0.261616	1.635798	0.916316
C176	C	-0.194214	1.702963	0.954653
H177	H	-0.375011	1.649083	0.986307
H178	H	-0.380879	1.729229	0.922414
H179	H	-0.246300	1.565215	0.928927
H180	H	-0.252129	1.645350	0.865036
H181	H	-0.209535	1.773563	0.942047
H182	H	-0.203677	1.693412	1.005937
H183	H	-0.123683	1.687488	0.941962
C184	C	-1.363454	1.384688	0.574270
C185	C	-1.448615	1.321981	0.553693
C186	C	-1.539152	1.357119	0.589445
H187	H	-1.376912	1.455356	0.560871
H188	H	-1.353647	1.380372	0.625886
H189	H	-1.458422	1.326306	0.502088
H190	H	-1.435191	1.251310	0.567093
H191	H	-1.529345	1.352803	0.641061
H192	H	-1.552600	1.427788	0.576043
H193	H	-1.596943	1.314572	0.575494
H194	H	-0.112542	1.123454	0.189346
H195	H	-0.527588	0.785164	0.479237
H196	H	-1.000325	1.789832	0.274493
