data_functionalizedCrystal
_audit_creation_method	'MofGen! by Chris Wilmer'
_symmetry_space_group_name_H-M	'P1'
_symmetry_Int_Tables_number	1
_symmetry_cell_setting	triclinic
loop_
_symmetry_equiv_pos_as_xyz
  x,y,z
_cell_length_a	15.944551
_cell_length_b	17.019294
_cell_length_c	14.421503
_cell_angle_alpha	86.125318
_cell_angle_beta	89.996859
_cell_angle_gamma	83.446674
loop_
_atom_site_label
_atom_site_type_symbol
_atom_site_fract_x
_atom_site_fract_y
_atom_site_fract_z
O1	O	1.114402	0.101726	-0.085136
O2	O	1.614402	0.601726	0.414864
O3	O	0.869837	0.114269	-0.086161
O4	O	1.369837	0.614269	0.413839
O5	O	0.998941	-0.006833	-0.076474
O6	O	1.498941	0.493167	0.423526
O7	O	0.985297	0.222829	-0.094823
O8	O	1.485297	0.722829	0.405177
O9	O	0.998920	-0.006815	0.077748
O10	O	1.498920	0.493185	0.577748
O11	O	0.869815	0.114287	0.068061
O12	O	1.369815	0.614287	0.568061
O13	O	1.114381	0.101744	0.069086
O14	O	1.614381	0.601744	0.569086
Cu15	Cu	0.992096	0.108018	0.082655
Cu16	Cu	1.492096	0.608018	0.582655
Cu17	Cu	0.992121	0.107996	-0.099730
Cu18	Cu	1.492121	0.607996	0.400270
O19	O	0.985276	0.222847	0.059399
O20	O	1.485276	0.722847	0.559399
C21	C	0.838533	0.113758	-0.009011
C22	C	1.338533	0.613758	0.490989
C23	C	0.745288	0.112197	-0.008895
C24	C	1.245288	0.612197	0.491105
C25	C	0.530530	0.033400	-0.002582
C26	C	1.030530	0.533400	0.497418
C27	C	0.469475	0.069982	-0.081545
C28	C	0.969475	0.569982	0.418455
C29	C	0.574566	0.109372	-0.008659
C30	C	1.074566	0.609372	0.491341
C31	C	0.469476	0.070017	0.070505
C32	C	0.969476	0.570017	0.570505
C33	C	0.409657	0.106639	-0.008425
C34	C	0.909657	0.606639	0.491575
C35	C	0.514739	0.145975	-0.087686
C36	C	1.014739	0.645975	0.412314
C37	C	0.514746	0.146000	0.064433
C38	C	1.014746	0.646000	0.564433
C39	C	0.453709	0.182637	-0.014553
C40	C	0.953709	0.682637	0.485447
C41	C	0.669566	0.110945	-0.008793
C42	C	1.169566	0.610945	0.491207
C43	C	0.314658	0.105072	-0.008298
C44	C	0.814658	0.605072	0.491702
C45	C	0.998413	-0.036213	0.002983
C46	C	1.498413	0.463787	0.502983
C47	C	0.996860	-0.123783	0.009972
C48	C	1.496860	0.376217	0.509972
C49	C	0.996144	-0.164928	-0.070810
C50	C	1.496144	0.335072	0.429190
C51	C	0.994680	-0.247209	-0.064239
C52	C	1.494680	0.252791	0.435761
C53	C	0.993938	-0.288342	0.023114
C54	C	1.493938	0.211658	0.523114
C55	C	0.994651	-0.247191	0.103902
C56	C	1.494651	0.252809	0.603902
C57	C	0.996109	-0.164911	0.097331
C58	C	1.496109	0.335089	0.597331
C59	C	0.989529	-0.536772	0.047161
C60	C	1.489529	-0.036772	0.547161
C61	C	0.988073	-0.619058	0.053727
C62	C	1.488073	-0.119058	0.553727
C63	C	0.988100	-0.619070	-0.114416
C64	C	1.488100	-0.119070	0.385584
C65	C	0.989564	-0.536790	-0.120979
C66	C	1.489564	-0.036790	0.379021
C67	C	0.990272	-0.495644	-0.040191
C68	C	1.490272	0.004356	0.459809
C69	C	0.992444	-0.372446	0.029832
C70	C	1.492444	0.127554	0.529832
C71	C	0.991760	-0.411541	-0.046910
C72	C	1.491760	0.088459	0.453090
C73	C	1.145685	0.102256	-0.008066
C74	C	1.645685	0.602256	0.491934
C75	C	1.238929	0.103817	-0.008188
C76	C	1.738929	0.603817	0.491812
C77	C	0.985804	0.252227	-0.020060
C78	C	1.485804	0.752227	0.479940
C79	C	0.987357	0.339796	-0.027055
C80	C	1.487357	0.839796	0.472945
N81	N	0.992084	0.108032	0.210935
N82	N	1.492084	0.608032	0.710935
N83	N	0.992140	0.107975	-0.228010
N84	N	1.492140	0.607975	0.271990
C85	C	0.932376	0.164005	0.456112
C86	C	1.432376	0.664005	0.956112
C87	C	1.008257	0.179319	0.516698
C88	C	1.508257	0.679319	1.016698
C89	C	0.992105	0.108013	0.400098
C90	C	1.492105	0.608013	0.900098
C91	C	0.916243	0.092717	0.523604
C92	C	1.416243	0.592717	1.023604
C93	C	0.992118	0.107997	0.582821
C94	C	1.492118	0.607997	1.082821
C95	C	1.068024	0.123363	0.459321
C96	C	1.568024	0.623363	0.959321
C97	C	0.975961	0.036730	0.466224
C98	C	1.475961	0.536730	0.966224
C99	C	1.051896	0.052014	0.526785
C100	C	1.551896	0.552014	1.026785
C101	C	0.992096	0.108025	0.294836
C102	C	1.492096	0.608025	0.794836
C103	C	0.992135	0.107985	0.688081
C104	C	1.492135	0.607985	1.188081
H105	H	0.534829	0.178114	0.126157
H106	H	1.034829	0.678114	0.626157
Br107	Br	0.993630	-0.303012	0.222455
Br108	Br	1.493630	0.196988	0.722455
Br109	Br	0.436049	0.016452	0.181929
Br110	Br	0.936049	0.516452	0.681929
Br111	Br	0.809308	0.071164	0.570603
Br112	Br	1.309308	0.571164	1.070603
Br113	Br	0.848273	0.242983	0.404624
Br114	Br	1.348273	0.742983	0.904624
H115	H	0.996753	-0.131444	-0.141942
H116	H	1.496753	0.368556	0.358058
Br117	Br	0.436041	0.016417	-0.184418
Br118	Br	0.936041	0.516417	0.315582
H119	H	0.534695	0.178076	-0.154607
H120	H	1.034695	0.678076	0.345393
H121	H	0.563942	-0.029651	0.002362
H122	H	1.063942	0.470349	0.502362
Br123	Br	0.990473	-0.480941	0.156803
Br124	Br	1.490473	0.019059	0.656803
H125	H	0.996680	-0.131410	0.163112
H126	H	1.496680	0.368590	0.663112
Br127	Br	0.993707	-0.303046	-0.173877
Br128	Br	1.493707	0.196954	0.326123
H129	H	0.987522	-0.652579	-0.180188
H130	H	1.487522	-0.152579	0.319812
Br131	Br	1.174988	0.145030	0.412516
Br132	Br	1.674988	0.645030	0.912516
H133	H	0.992359	-0.378046	-0.118033
H134	H	1.492359	0.121954	0.381967
H135	H	0.420471	0.245753	-0.019638
H136	H	0.920471	0.745753	0.480362
H137	H	0.990169	-0.503304	-0.192112
H138	H	1.490169	-0.003304	0.307888
Br139	Br	1.031040	0.279781	0.553964
Br140	Br	1.531040	0.779781	1.053964
H141	H	0.987464	-0.652546	0.124864
H142	H	1.487464	-0.152546	0.624864
Br143	Br	1.136181	-0.026923	0.577988
Br144	Br	1.636181	0.473077	1.077988
Br145	Br	0.953143	-0.063703	0.428917
Br146	Br	1.453143	0.436297	0.928917
H147	H	0.991842	-0.405947	0.100956
H148	H	1.491842	0.094053	0.600956
