data_functionalizedCrystal
_audit_creation_method	'MofGen! by Chris Wilmer'
_symmetry_space_group_name_H-M	'P1'
_symmetry_Int_Tables_number	1
_symmetry_cell_setting	triclinic
loop_
_symmetry_equiv_pos_as_xyz
  x,y,z
_cell_length_a	8.597366
_cell_length_b	7.088929
_cell_length_c	19.288865
_cell_angle_alpha	83.792764
_cell_angle_beta	95.757447
_cell_angle_gamma	76.045470
loop_
_atom_site_label
_atom_site_type_symbol
_atom_site_fract_x
_atom_site_fract_y
_atom_site_fract_z
O1	O	2.100673	-0.187027	-0.095387
O2	O	1.635909	-0.110461	-0.106728
O3	O	1.881724	-0.150995	0.000065
O4	O	1.854858	-0.146493	-0.202179
O5	O	1.914575	-0.474387	0.014368
O6	O	1.668760	-0.433853	-0.092424
O7	O	2.133523	-0.510420	-0.081083
Cu8	Cu	1.904141	-0.501665	-0.085447
Cu9	Cu	1.865291	-0.119216	-0.102363
O10	O	1.887708	-0.469886	-0.187875
C11	C	1.592875	-0.262362	-0.099155
C12	C	1.415703	-0.233176	-0.097893
N13	N	1.931478	-0.770660	-0.073549
C14	C	2.176557	-0.358514	-0.088656
C15	C	2.353728	-0.387688	-0.089919
C16	C	1.897286	-0.312555	0.033094
C17	C	1.894694	-0.312144	0.110200
N18	N	1.837967	0.149778	-0.114256
C19	C	1.872146	-0.308322	-0.220905
C20	C	1.874737	-0.308719	-0.298012
C21	C	2.038925	-0.335915	0.154789
C22	C	2.036485	-0.335483	0.227236
C23	C	1.889808	-0.311318	0.255094
C24	C	1.745557	-0.287533	0.210495
C25	C	1.747999	-0.287946	0.138048
C26	C	1.786011	-0.405599	0.368478
C27	C	1.783575	-0.405199	0.440924
C28	C	1.882268	-0.310033	0.478543
C29	C	1.983425	-0.215296	0.443709
C30	C	1.985868	-0.215710	0.371262
C31	C	1.887144	-0.310865	0.333649
C32	C	2.023863	-0.333333	0.601688
C33	C	2.021415	-0.332888	0.674136
C34	C	1.730485	-0.284957	0.657394
C35	C	1.732935	-0.285384	0.584947
C36	C	1.879629	-0.309582	0.557099
H37	H	1.741054	-0.752596	-0.156441
H38	H	1.333221	-0.078553	-0.103750
H39	H	1.436220	-0.542322	-0.084056
F40	F	2.058175	-0.898277	-0.018414
F41	F	1.594481	-0.262645	0.090591
H42	H	1.611057	-0.265272	0.680074
F43	F	1.579422	-0.260091	0.537490
F44	F	2.195047	-0.361627	0.125153
H45	H	1.626131	-0.267853	0.233181
H46	H	2.153939	-0.354832	0.263547
H47	H	2.068230	-0.138568	0.342903
H48	H	2.063790	-0.137802	0.474337
F49	F	1.675923	-0.506033	0.477991
F50	F	2.179987	-0.359096	0.572048
F51	F	2.174934	-0.358176	0.721591
H52	H	1.705640	-0.483105	0.337855
