data_functionalizedCrystal
_audit_creation_method	'MofGen! by Chris Wilmer'
_symmetry_space_group_name_H-M	'P1'
_symmetry_Int_Tables_number	1
_symmetry_cell_setting	triclinic
loop_
_symmetry_equiv_pos_as_xyz
  x,y,z
_cell_length_a	19.077105
_cell_length_b	25.639239
_cell_length_c	19.076919
_cell_angle_alpha	92.268407
_cell_angle_beta	90.076224
_cell_angle_gamma	87.734929
loop_
_atom_site_label
_atom_site_type_symbol
_atom_site_fract_x
_atom_site_fract_y
_atom_site_fract_z
Zn1	Zn	1.058187	-0.252939	-0.440398
Zn2	Zn	1.062799	-0.337004	-0.322884
Zn3	Zn	0.945407	-0.245935	-0.318192
Zn4	Zn	0.940620	-0.336689	-0.435637
O5	O	1.001753	-0.293142	-0.379278
O6	O	1.157129	-0.267153	-0.428766
O7	O	1.051160	-0.322124	-0.223931
O8	O	0.960440	-0.173702	-0.334431
O9	O	1.160518	-0.328916	-0.342429
O10	O	1.043299	-0.178848	-0.424215
O11	O	0.964912	-0.255216	-0.220483
O12	O	0.846441	-0.254910	-0.329815
O13	O	0.952283	-0.328378	-0.534600
O14	O	0.842925	-0.321587	-0.416101
O15	O	1.038658	-0.266848	-0.538097
O16	O	1.046519	-0.410124	-0.337813
O17	O	0.956755	-0.409893	-0.420652
C18	C	0.819187	-0.287455	-0.371933
C19	C	0.741083	-0.285035	-0.368807
C20	C	0.702581	-0.318661	-0.412193
C21	C	0.629194	-0.316381	-0.409259
C22	C	0.594312	-0.280476	-0.362936
C23	C	0.632820	-0.246846	-0.319549
C24	C	0.706205	-0.249125	-0.322486
C25	C	0.375028	-0.269932	-0.349344
C26	C	0.301638	-0.267658	-0.346409
C27	C	0.298017	-0.337192	-0.436121
C28	C	0.371404	-0.339469	-0.439051
C29	C	0.409905	-0.305837	-0.395666
N30	N	0.519299	-0.278146	-0.359935
N31	N	0.484917	-0.308166	-0.398671
C32	C	1.001636	-0.428980	-0.379241
C33	C	1.001650	-0.487094	-0.379251
C34	C	1.048607	-0.847575	-0.336225
C35	C	1.048634	-0.902180	-0.336235
O36	O	1.088438	-0.930513	-0.299613
N37	N	1.001875	-0.929386	-0.379329
C38	C	0.955090	-0.901983	-0.422421
O39	O	0.915321	-0.930137	-0.459077
C40	C	0.955067	-0.847379	-0.422413
C41	C	1.001825	-0.820176	-0.379311
C42	C	1.095362	-0.820372	-0.293127
C43	C	1.095334	-0.765771	-0.293116
C44	C	1.048551	-0.738372	-0.336202
C45	C	1.001797	-0.765574	-0.379300
C46	C	0.908287	-0.819977	-0.465508
C47	C	0.908268	-0.765369	-0.465497
C48	C	0.955026	-0.738167	-0.422395
C49	C	0.954987	-0.683574	-0.422375
N50	N	1.001746	-0.656368	-0.379282
C51	C	1.048528	-0.683767	-0.336195
C52	C	0.955143	-1.016656	-0.422434
C53	C	0.955162	-1.071259	-0.422438
C54	C	1.048707	-1.071452	-0.336253
C55	C	1.048684	-1.016848	-0.336246
C56	C	1.001902	-0.989450	-0.379340
C57	C	1.048466	-0.569100	-0.336174
C58	C	1.048432	-0.514493	-0.336164
C59	C	0.954890	-0.514304	-0.422351
C60	C	0.954921	-0.568906	-0.422359
C61	C	1.001715	-0.596303	-0.379268
O62	O	0.915205	-0.655207	-0.458982
O63	O	1.088298	-0.655607	-0.299552
C64	C	1.185032	-0.298851	-0.386652
C65	C	1.263135	-0.301284	-0.389794
C66	C	0.994422	-0.298359	-0.562557
C67	C	0.991298	-0.300582	-0.640660
C68	C	1.001889	-0.156774	-0.379331
C69	C	1.001947	-0.098662	-0.379354
C70	C	1.034799	-0.269593	-0.679175
C71	C	1.031855	-0.271680	-0.752561
C72	C	0.985413	-0.304759	-0.787430
C73	C	0.941907	-0.335750	-0.748910
C74	C	0.944848	-0.333660	-0.675526
C75	C	0.971792	-0.314442	-1.006711
C76	C	0.968856	-0.316531	-1.080100
C77	C	1.058803	-0.252460	-1.083746
C78	C	1.061742	-0.250375	-1.010361
C79	C	1.018234	-0.281364	-0.971846
N80	N	0.982404	-0.306894	-0.862442
N81	N	1.021240	-0.279226	-0.896836
C82	C	1.009096	-0.287908	-0.196713
C83	C	1.012356	-0.285541	-0.118616
H84	H	0.406367	-0.242551	-0.314012
H85	H	0.870208	-0.842116	-0.500603
H86	H	0.604413	-0.217610	-0.281834
O87	O	1.093943	-0.595626	-0.294248
C88	C	1.135210	-0.559898	-0.256224
H89	H	1.106503	-0.520035	-0.252611
H90	H	1.144971	-0.574337	-0.201169
H91	H	1.187523	-0.556433	-0.284142
O92	O	1.079987	-0.237534	-0.645277
C93	C	1.127034	-0.267500	-0.604630
H94	H	1.130452	-0.309443	-0.626901
H95	H	1.181160	-0.250248	-0.605983
H96	H	1.107533	-0.267041	-0.548137
O97	O	0.743503	-0.216441	-0.280266
C98	C	0.696980	-0.184254	-0.238760
H99	H	0.644749	-0.203971	-0.234182
H100	H	0.720390	-0.177697	-0.184258
H101	H	0.688182	-0.145068	-0.264276
H102	H	1.067280	-0.246446	-0.783917
H103	H	1.099562	-0.223440	-0.981975
O104	O	0.896694	-0.367824	-0.782744
C105	C	0.827391	-0.353714	-0.761981
H106	H	0.824693	-0.311261	-0.741685
H107	H	0.790738	-0.358512	-0.808841
H108	H	0.810703	-0.379957	-0.718631
H109	H	0.917081	-1.093402	-0.457529
O110	O	1.140829	-0.739432	-0.251234
C111	C	1.182110	-0.775333	-0.213202
H112	H	1.183373	-0.815140	-0.242092
H113	H	1.237775	-0.761034	-0.207983
H114	H	1.158566	-0.778856	-0.158779
O115	O	0.267679	-0.232739	-0.301514
C116	C	0.223685	-0.198839	-0.339924
H117	H	0.210553	-0.218528	-0.392680
H118	H	0.173226	-0.189367	-0.309258
H119	H	0.251697	-0.161211	-0.348894
O120	O	1.140919	-0.846996	-0.251395
C121	C	1.184677	-0.881075	-0.293290
H122	H	1.186689	-0.866318	-0.348813
H123	H	1.239808	-0.882582	-0.270138
H124	H	1.162920	-0.921882	-0.294794
O125	O	0.405175	-0.374362	-0.484112
C126	C	0.355455	-0.403563	-0.521764
H127	H	0.303062	-0.380598	-0.522160
H128	H	0.374453	-0.411441	-0.577962
H129	H	0.348644	-0.442262	-0.495619
H130	H	1.086507	-0.492346	-0.301063
H131	H	1.094224	-0.227230	-1.115112
O132	O	0.923676	-0.348677	-1.113862
C133	C	0.885917	-0.375590	-1.064134
H134	H	0.885597	-0.352610	-1.011734
H135	H	0.829700	-0.380045	-1.083110
H136	H	0.911918	-0.415878	-1.057348
H137	H	0.730976	-0.347900	-0.449912
H138	H	0.266661	-0.364572	-0.471443
O139	O	1.094173	-0.990508	-0.294360
C140	C	1.135451	-1.026406	-0.256319
H141	H	1.136721	-1.066214	-0.285208
H142	H	1.191113	-1.012104	-0.251091
H143	H	1.111897	-1.029928	-0.201900
O144	O	0.929629	-0.344574	-0.969238
C145	C	0.971290	-0.378394	-0.928398
H146	H	1.025000	-0.361303	-0.919543
H147	H	0.944717	-0.383043	-0.875645
H148	H	0.977843	-0.418182	-0.956981
O149	O	0.902674	-0.363846	-0.638140
C150	C	0.917254	-0.416941	-0.656682
H151	H	0.972576	-0.421900	-0.679124
H152	H	0.913120	-0.441207	-0.608165
H153	H	0.877858	-0.430651	-0.697749
H154	H	0.597848	-0.343764	-0.444588
O155	O	0.862758	-0.738836	-0.507382
C156	C	0.821513	-0.774560	-0.545437
H157	H	0.820271	-0.812598	-0.516560
H158	H	0.765838	-0.757316	-0.550667
H159	H	0.845076	-0.782654	-0.599856
O160	O	1.094272	-1.098085	-0.294532
C161	C	1.138014	-1.132158	-0.336452
H162	H	1.140015	-1.117387	-0.391969
H163	H	1.193151	-1.133677	-0.313315
H164	H	1.116250	-1.172964	-0.337970
H165	H	0.916849	-0.591056	-0.457458
H166	H	0.916798	-0.491988	-0.457430
O167	O	0.909622	-0.990122	-0.464311
C168	C	0.868373	-1.025849	-0.502357
H169	H	0.867139	-1.063886	-0.473477
H170	H	0.812696	-1.008607	-0.507578
H171	H	0.891928	-1.033944	-0.556780
