data_functionalizedCrystal
_audit_creation_method	'MofGen! by Chris Wilmer'
_symmetry_space_group_name_H-M	'P1'
_symmetry_Int_Tables_number	1
_symmetry_cell_setting	triclinic
loop_
_symmetry_equiv_pos_as_xyz
  x,y,z
_cell_length_a	11.169417
_cell_length_b	11.169416
_cell_length_c	12.759401
_cell_angle_alpha	90.005089
_cell_angle_beta	90.000661
_cell_angle_gamma	90.011398
loop_
_atom_site_label
_atom_site_type_symbol
_atom_site_fract_x
_atom_site_fract_y
_atom_site_fract_z
Zn1	Zn	1.834741	-0.477981	0.593985
Zn2	Zn	2.334741	0.022019	1.093985
Zn3	Zn	1.834697	-0.678630	0.418313
Zn4	Zn	2.334697	-0.178630	0.918313
Zn5	Zn	1.634093	-0.477964	0.418326
Zn6	Zn	2.134093	0.022036	0.918326
Zn7	Zn	1.634035	-0.678625	0.593956
Zn8	Zn	2.134035	-0.178625	1.093956
O9	O	1.734391	-0.578300	0.506145
O10	O	2.234391	-0.078300	1.006145
O11	O	2.002684	-0.504607	0.570689
O12	O	2.502684	-0.004607	1.070689
O13	O	1.808092	-0.652005	0.271294
O14	O	2.308092	-0.152005	0.771294
O15	O	1.660752	-0.310016	0.441646
O16	O	2.160752	0.189984	0.941646
O17	O	2.002652	-0.652022	0.441623
O18	O	2.502652	-0.152022	0.941623
O19	O	1.808167	-0.310029	0.570702
O20	O	2.308167	0.189971	1.070702
O21	O	1.660709	-0.504577	0.271304
O22	O	2.160709	-0.004577	0.771304
O23	O	1.466135	-0.504573	0.441617
O24	O	1.966135	-0.004573	0.941617
O25	O	1.660653	-0.652015	0.740981
O26	O	2.160653	-0.152015	1.240981
O27	O	1.466093	-0.651998	0.570652
O28	O	1.966093	-0.151998	1.070652
O29	O	1.808111	-0.504603	0.741003
O30	O	2.308111	-0.004603	1.241003
O31	O	1.808036	-0.846579	0.441595
O32	O	2.308036	-0.346579	0.941595
O33	O	1.660610	-0.846576	0.570639
O34	O	2.160610	-0.346576	1.070639
C35	C	1.422566	-0.578284	0.506133
C36	C	1.922566	-0.078284	1.006133
C37	C	1.289166	-0.578306	0.506153
C38	C	1.789166	-0.078306	1.006153
C39	C	1.734345	-0.890125	0.506135
C40	C	2.234345	-0.390125	1.006135
C41	C	1.734434	-1.023525	0.506166
C42	C	2.234434	-0.523525	1.006166
C43	C	2.047433	-0.578317	0.506158
C44	C	2.547433	-0.078317	1.006158
C45	C	2.180833	-0.578324	0.506163
C46	C	2.680833	-0.078324	1.006163
C47	C	1.734380	-0.578310	0.780179
C48	C	2.234380	-0.078310	1.280179
C49	C	1.734376	-0.578315	0.896955
C50	C	2.234376	-0.078315	1.396955
C51	C	1.734470	-0.265258	0.506179
C52	C	2.234470	0.234742	1.006179
C53	C	1.734504	-0.131858	0.506193
C54	C	2.234504	0.368142	1.006193
C55	C	1.811123	-0.655074	1.061533
C56	C	2.311123	-0.155074	1.561533
C57	C	1.811113	-0.655074	0.951809
C58	C	2.311113	-0.155074	1.451809
C59	C	1.657635	-0.501558	0.951831
C60	C	2.157635	-0.001558	1.451831
C61	C	1.657639	-0.501564	1.061553
C62	C	2.157639	-0.001564	1.561553
C63	C	1.899736	-0.743701	1.061519
C64	C	2.399736	-0.243701	1.561519
C65	C	1.899726	-0.743702	0.951795
C66	C	2.399726	-0.243702	1.451795
C67	C	1.734391	-0.578319	1.233178
C68	C	2.234391	-0.078319	1.733178
C69	C	1.734390	-0.578320	1.116401
C70	C	2.234390	-0.078320	1.616401
H71	H	1.595144	-0.439077	1.106223
H72	H	2.095144	0.060923	1.606223
Cl73	Cl	2.036081	-0.692337	1.114075
Cl74	Cl	2.536081	-0.192337	1.614075
H75	H	1.595147	-0.439066	0.907161
H76	H	2.095147	0.060934	1.407161
Cl77	Cl	1.861272	-0.887211	1.107483
Cl78	Cl	2.361272	-0.387211	1.607483
Cl79	Cl	2.043239	-0.705267	0.905811
Cl80	Cl	2.543239	-0.205267	1.405811
H81	H	1.866437	-0.832011	0.917756
H82	H	2.366437	-0.332011	1.417756
