data_functionalizedCrystal
_audit_creation_method	'MofGen! by Chris Wilmer'
_symmetry_space_group_name_H-M	'P1'
_symmetry_Int_Tables_number	1
_symmetry_cell_setting	triclinic
loop_
_symmetry_equiv_pos_as_xyz
  x,y,z
_cell_length_a	19.077078
_cell_length_b	16.959455
_cell_length_c	19.076919
_cell_angle_alpha	87.727026
_cell_angle_beta	94.468470
_cell_angle_gamma	87.676074
loop_
_atom_site_label
_atom_site_type_symbol
_atom_site_fract_x
_atom_site_fract_y
_atom_site_fract_z
Zn1	Zn	-0.296780	-1.176455	-0.409993
Zn2	Zn	0.203220	-0.676455	0.090007
Zn3	Zn	-0.409933	-1.176354	-0.296833
Zn4	Zn	0.090067	-0.676354	0.203167
Zn5	Zn	-0.292054	-1.049812	-0.292106
Zn6	Zn	0.207946	-0.549812	0.207894
Zn7	Zn	-0.414618	-1.038700	-0.414658
Zn8	Zn	0.085382	-0.538700	0.085342
O9	O	-0.353346	-1.110330	-0.353398
O10	O	0.146654	-0.610330	0.146602
O11	O	-0.311807	-1.287050	-0.395007
O12	O	0.188193	-0.787050	0.104993
O13	O	-0.390357	-1.164176	-0.197560
O14	O	0.109643	-0.664176	0.302440
O15	O	-0.194032	-1.071305	-0.303813
O16	O	0.305968	-0.571305	0.196187
O17	O	-0.394940	-1.286976	-0.311869
O18	O	0.105060	-0.786976	0.188131
O19	O	-0.197504	-1.164348	-0.390424
O20	O	0.302496	-0.664348	0.109576
O21	O	-0.303752	-1.071207	-0.194087
O22	O	0.196248	-0.571207	0.305913
O23	O	-0.308295	-0.937729	-0.308337
O24	O	0.191705	-0.437729	0.191663
O25	O	-0.402925	-1.052365	-0.512686
O26	O	0.097075	-0.552365	-0.012686
O27	O	-0.398343	-0.929565	-0.398376
O28	O	0.101657	-0.429565	0.101624
O29	O	-0.316350	-1.153573	-0.509258
O30	O	0.183650	-0.653573	-0.009258
O31	O	-0.509203	-1.153400	-0.316393
O32	O	-0.009203	-0.653400	0.183607
O33	O	-0.512645	-1.052267	-0.402959
O34	O	-0.012645	-0.552267	0.097041
C35	C	-0.353315	-0.904967	-0.353350
C36	C	0.146685	-0.404967	0.146650
C37	C	-0.353319	-0.817111	-0.353348
C38	C	0.146681	-0.317111	0.146652
C39	C	-0.396566	-0.445588	-0.310048
C40	C	0.103434	0.054412	0.189952
C41	C	-0.310144	-0.445673	-0.396766
C42	C	0.189856	0.054327	0.103234
C43	C	-0.310134	-0.528220	-0.396752
C44	C	0.189866	-0.028220	0.103248
C45	C	-0.353342	-0.569455	-0.353387
C46	C	0.146658	-0.069455	0.146613
C47	C	-0.396559	-0.528142	-0.310035
C48	C	0.103441	-0.028142	0.189965
C49	C	-0.266924	-0.569539	-0.440109
C50	C	0.233076	-0.069539	0.059891
C51	C	-0.266913	-0.652090	-0.440098
C52	C	0.233087	-0.152090	0.059902
C53	C	-0.310117	-0.693327	-0.396728
C54	C	0.189883	-0.193327	0.103272
C55	C	-0.353335	-0.652009	-0.353374
C56	C	0.146665	-0.152009	0.146626
C57	C	-0.396543	-0.693244	-0.310009
C58	C	0.103457	-0.193244	0.189991
C59	C	-0.439758	-0.651928	-0.266650
C60	C	0.060242	-0.151928	0.233350
C61	C	-0.439763	-0.569379	-0.266665
C62	C	0.060237	-0.069379	0.233335
C63	C	-0.310112	-0.775876	-0.396713
C64	C	0.189888	-0.275876	0.103287
C65	C	-0.396536	-0.775798	-0.309996
C66	C	0.103464	-0.275798	0.190004
C67	C	-0.536503	-1.101637	-0.360711
C68	C	-0.036503	-0.601637	0.139289
C69	C	-0.614860	-1.097990	-0.363863
C70	C	-0.114860	-0.597990	0.136137
C71	C	-1.056120	-1.071824	-0.386498
C72	C	-0.556120	-0.571824	0.113502
C73	C	-0.982496	-1.075252	-0.383528
C74	C	-0.482496	-0.575252	0.116472
C75	C	-0.943871	-1.129657	-0.337006
C76	C	-0.443871	-0.629657	0.162994
C77	C	-0.978876	-1.180643	-0.293455
C78	C	-0.478876	-0.680643	0.206545
C79	C	-1.052499	-1.177219	-0.296429
C80	C	-0.552499	-0.677219	0.203571
C81	C	-0.723487	-1.145552	-0.323286
C82	C	-0.223487	-0.645552	0.176714
C83	C	-0.649859	-1.148971	-0.320314
C84	C	-0.149859	-0.648971	0.179686
C85	C	-0.653484	-1.043580	-0.410389
C86	C	-0.153484	-0.543580	0.089611
C87	C	-0.727108	-1.040157	-0.413355
C88	C	-0.227108	-0.540157	0.086645
C89	C	-0.762106	-1.091146	-0.369807
C90	C	-0.262106	-0.591146	0.130193
N91	N	-0.868615	-1.133160	-0.333967
N92	N	-0.368615	-0.633160	0.166033
N93	N	-0.837361	-1.087646	-0.372850
N94	N	-0.337361	-0.587646	0.127150
C95	C	-0.169474	-1.119077	-0.346071
C96	C	0.330526	-0.619077	0.153929
C97	C	-0.091119	-1.122805	-0.342949
C98	C	0.408881	-0.622805	0.157051
C99	C	-0.360688	-1.101740	-0.537265
C100	C	0.139312	-0.601740	-0.037265
C101	C	-0.363816	-1.098080	-0.615618
C102	C	0.136184	-0.598080	-0.115618
C103	C	-0.353370	-0.316496	-0.353432
C104	C	0.146630	0.183504	0.146568
C105	C	-0.353358	-0.404354	-0.353413
C106	C	0.146642	0.095646	0.146587
C107	C	-0.320213	-1.149051	-0.650645
C108	C	0.179787	-0.649051	-0.150645
C109	C	-0.323150	-1.145602	-0.724266
C110	C	0.176850	-0.645602	-0.224266
C111	C	-0.369694	-1.091185	-0.762859
C112	C	0.130306	-0.591185	-0.262859
C113	C	-0.413299	-1.040209	-0.727827
C114	C	0.086701	-0.540209	-0.227827
C115	C	-0.410358	-1.043654	-0.654207
C116	C	0.089642	-0.543654	-0.154207
C117	C	-0.383319	-1.075226	-0.983231
C118	C	0.116681	-0.575226	-0.483231
C119	C	-0.386259	-1.071786	-1.056856
C120	C	0.113741	-0.571786	-0.556856
C121	C	-0.296108	-1.177179	-1.053290
C122	C	0.203892	-0.677179	-0.553290
C123	C	-0.293174	-1.180623	-0.979669
C124	C	0.206826	-0.680623	-0.479669
C125	C	-0.336777	-1.129644	-0.944643
C126	C	0.163223	-0.629644	-0.444643
N127	N	-0.372698	-1.087660	-0.838112
N128	N	0.127302	-0.587660	-0.338112
N129	N	-0.333768	-1.133165	-0.869391
N130	N	0.166232	-0.633165	-0.369391
C131	C	-0.345982	-1.118934	-0.170244
C132	C	0.154018	-0.618934	0.329756
C133	C	-0.342655	-1.122757	-0.091883
C134	C	0.157345	-0.622757	0.408117
H135	H	-0.274971	-0.412095	-0.432076
H136	H	0.225029	0.087905	0.067924
Br137	Br	-0.498407	-0.513304	-0.207828
Br138	Br	0.001593	-0.013304	0.292172
Br139	Br	-0.779522	-0.966329	-0.476505
Br140	Br	-0.279522	-0.466329	0.023495
Br141	Br	-0.455207	-0.389521	-0.251202
Br142	Br	0.044793	0.110479	0.248798
Br143	Br	-0.597440	-1.222798	-0.257160
Br144	Br	-0.097440	-0.722798	0.242840
Br145	Br	-0.208301	-0.513574	-0.498971
Br146	Br	0.291699	-0.013574	0.001029
Br147	Br	-0.257048	-1.222912	-0.598276
Br148	Br	0.242952	-0.722912	-0.098276
H149	H	-0.255275	-1.224937	-0.948251
H150	H	0.244725	-0.724937	-0.448251
H151	H	-0.451194	-0.995898	-0.759255
H152	H	0.048806	-0.495898	-0.259255
H153	H	-0.231724	-0.685723	-0.475403
H154	H	0.268276	-0.185723	0.024597
Br155	Br	-0.498401	-0.707898	-0.207806
Br156	Br	0.001599	-0.207898	0.292194
H157	H	-0.947424	-1.224945	-0.255578
H158	H	-0.447424	-0.724945	0.244422
H159	H	-0.274928	-0.809512	-0.432016
H160	H	0.225072	-0.309512	0.067984
Br161	Br	-1.108531	-0.997978	-0.449633
Br162	Br	-0.608531	-0.497978	0.050367
Br163	Br	-0.442493	-1.006038	-0.935705
Br164	Br	0.057507	-0.506038	-0.435705
Br165	Br	-0.469532	-0.974471	-0.606669
Br166	Br	0.030468	-0.474471	-0.106669
Br167	Br	-0.934999	-1.006065	-0.442638
Br168	Br	-0.434999	-0.506065	0.057362
H169	H	-1.080994	-1.218735	-0.260968
H170	H	-0.580994	-0.718735	0.239032
Br171	Br	-0.605983	-0.974388	-0.469490
Br172	Br	-0.105983	-0.474388	0.030510
H173	H	-0.751973	-1.187068	-0.287824
H174	H	-0.251973	-0.687068	0.212176
H175	H	-0.287645	-1.187110	-0.752782
H176	H	0.212355	-0.687110	-0.252782
Br177	Br	-0.236935	-1.246360	-1.100828
Br178	Br	0.263065	-0.746360	-0.600828
H179	H	-0.424162	-1.027471	-1.088276
H180	H	0.075838	-0.527471	-0.588276
H181	H	-0.431719	-0.809366	-0.274679
H182	H	0.068281	-0.309366	0.225321
