data_functionalizedCrystal
_audit_creation_method	'MofGen! by Chris Wilmer'
_symmetry_space_group_name_H-M	'P1'
_symmetry_Int_Tables_number	1
_symmetry_cell_setting	triclinic
loop_
_symmetry_equiv_pos_as_xyz
  x,y,z
_cell_length_a	12.759401
_cell_length_b	18.101397
_cell_length_c	12.759393
_cell_angle_alpha	89.962298
_cell_angle_beta	89.981425
_cell_angle_gamma	90.020892
loop_
_atom_site_label
_atom_site_type_symbol
_atom_site_fract_x
_atom_site_fract_y
_atom_site_fract_z
Zn1	Zn	1.606213	-0.294777	-0.593940
Zn2	Zn	1.606090	-0.418639	-0.418242
Zn3	Zn	1.430515	-0.294817	-0.418279
Zn4	Zn	1.430486	-0.418582	-0.593883
O5	O	1.518326	-0.356704	-0.506086
O6	O	1.753218	-0.311215	-0.570642
O7	O	1.582760	-0.402254	-0.271226
O8	O	1.453885	-0.191178	-0.441621
O9	O	1.753127	-0.402215	-0.441557
O10	O	1.582970	-0.191149	-0.570678
O11	O	1.453766	-0.311282	-0.271253
O12	O	1.283490	-0.311227	-0.441565
O13	O	1.453836	-0.402119	-0.740912
O14	O	1.283469	-0.402157	-0.570580
O15	O	1.582942	-0.311160	-0.740954
O16	O	1.582732	-0.522264	-0.441501
O17	O	1.453716	-0.522223	-0.570544
C18	C	1.245358	-0.356691	-0.506071
C19	C	1.128582	-0.356703	-0.506090
C20	C	1.073768	-0.309405	-0.573408
C21	C	0.964044	-0.309412	-0.573415
C22	C	0.963958	-0.404023	-0.438783
C23	C	1.073680	-0.404011	-0.438771
C24	C	0.814136	-0.222121	-0.611196
C25	C	0.759318	-0.174829	-0.678531
C26	C	0.794976	-0.163540	-0.781071
C27	C	0.885450	-0.199555	-0.816298
C28	C	0.940263	-0.246852	-0.748969
C29	C	0.904606	-0.258126	-0.646414
C30	C	1.223589	-0.491304	-0.401000
C31	C	1.278404	-0.538606	-0.333676
C32	C	1.242748	-0.549902	-0.231134
C33	C	1.152270	-0.513901	-0.195911
C34	C	1.097455	-0.466599	-0.263236
C35	C	1.133119	-0.455302	-0.365777
C36	C	1.518236	-0.549114	-0.506035
C37	C	1.518294	-0.631428	-0.506049
C38	C	1.518428	-0.930519	-0.506144
C39	C	1.599374	-0.899189	-0.424737
C40	C	1.599655	-0.813571	-0.424948
C41	C	1.518361	-0.782137	-0.506096
C42	C	1.548380	-0.813134	-0.616837
C43	C	1.549006	-0.898779	-0.616393
C44	C	1.407247	-0.899031	-0.477770
C45	C	1.407796	-0.813382	-0.475298
C46	C	1.518322	-0.698277	-0.506075
C47	C	1.518470	-1.014379	-0.506172
C48	C	1.792359	-0.356717	-0.506102
C49	C	1.909136	-0.356723	-0.506108
C50	C	1.518399	-0.356629	-0.780120
C51	C	1.518430	-0.356597	-0.896896
C52	C	1.518445	-0.163542	-0.506160
C53	C	1.518495	-0.081228	-0.506192
C54	C	1.451287	-0.309219	-0.951772
C55	C	1.451312	-0.309197	-1.061496
C56	C	1.585631	-0.403931	-1.061459
C57	C	1.585601	-0.403957	-0.951737
C58	C	1.327465	-0.282693	-1.211453
C59	C	1.260331	-0.235304	-1.266333
C60	C	1.244238	-0.163051	-1.230754
C61	C	1.295293	-0.138172	-1.140298
C62	C	1.362434	-0.185557	-1.085424
C63	C	1.378508	-0.257821	-1.121001
C64	C	1.709449	-0.430452	-0.801778
C65	C	1.776597	-0.477834	-0.746902
C66	C	1.792701	-0.550089	-0.782479
C67	C	1.741665	-0.574965	-0.872939
C68	C	1.674517	-0.527583	-0.927815
C69	C	1.658411	-0.455329	-0.892231
C70	C	1.518313	-0.356725	-0.233119
C71	C	1.518485	-0.356548	-0.116343
H72	H	1.118466	-0.270881	-0.628220
H73	H	1.385161	-0.793131	-0.393801
Cl74	Cl	1.570591	-0.781216	-0.298187
H75	H	1.346935	-0.919292	-0.537062
H76	H	1.580820	-0.919840	-0.342378
H77	H	1.632962	-0.547843	-1.001474
Cl78	Cl	1.761915	-0.665801	-0.917673
Cl79	Cl	1.674478	-0.929532	-0.653500
Cl80	Cl	1.725835	-0.932326	-0.453386
Cl81	Cl	1.365084	-0.932484	-0.355257
Cl82	Cl	1.461924	-0.930775	-0.713223
Cl83	Cl	1.672448	-0.779928	-0.654578
Cl84	Cl	0.726056	-0.104091	-0.865719
H85	H	1.682011	-0.793025	-0.443721
H86	H	1.218762	-0.255567	-1.339983
Cl87	Cl	1.877127	-0.609652	-0.713495
Cl88	Cl	1.460132	-0.781704	-0.713004
H89	H	1.340551	-0.341531	-1.240422
Cl90	Cl	1.309666	-0.780360	-0.560139
H91	H	1.640320	-0.442489	-1.106124
H92	H	1.189575	-0.124466	-1.275445
Cl93	Cl	1.366841	-0.249684	-0.882833
Cl94	Cl	1.689186	-0.339619	-0.757032
Cl95	Cl	1.426615	-0.154288	-0.971714
H96	H	1.818165	-0.457571	-0.673253
H97	H	1.282193	-0.079333	-1.111344
H98	H	0.914470	-0.190366	-0.899801
Cl99	Cl	1.053995	-0.292125	-0.793243
H100	H	0.785102	-0.231300	-0.527696
Cl101	Cl	0.894930	-0.463495	-0.354162
Cl102	Cl	0.645570	-0.129569	-0.634254
H103	H	1.023783	-0.437285	-0.234549
H104	H	1.287368	-0.588440	-0.176331
Cl105	Cl	1.392145	-0.583869	-0.377960
Cl106	Cl	1.107432	-0.528108	-0.067002
H107	H	1.252636	-0.482104	-0.484496
