data_functionalizedCrystal
_audit_creation_method	'MofGen! by Chris Wilmer'
_symmetry_space_group_name_H-M	'P1'
_symmetry_Int_Tables_number	1
_symmetry_cell_setting	triclinic
loop_
_symmetry_equiv_pos_as_xyz
  x,y,z
_cell_length_a	11.026607
_cell_length_b	17.699092
_cell_length_c	16.176319
_cell_angle_alpha	90.001079
_cell_angle_beta	89.992425
_cell_angle_gamma	95.936192
loop_
_atom_site_label
_atom_site_type_symbol
_atom_site_fract_x
_atom_site_fract_y
_atom_site_fract_z
O1	O	1.609250	0.316806	-0.068742
O2	O	1.942584	0.650139	0.264592
O3	O	2.275917	0.983473	0.597925
O4	O	1.256049	0.280731	-0.068743
O5	O	1.589382	0.614064	0.264590
O6	O	1.922715	0.947397	0.597923
O7	O	1.442623	0.189950	-0.068741
O8	O	1.775956	0.523283	0.264593
O9	O	2.109290	0.856617	0.597926
O10	O	1.422676	0.407587	-0.068744
O11	O	1.756009	0.740920	0.264589
O12	O	2.089343	1.074253	0.597922
O13	O	1.442595	0.189952	0.068753
O14	O	1.775928	0.523286	0.402086
O15	O	2.109262	0.856619	0.735419
O16	O	1.256021	0.280733	0.068750
O17	O	1.589354	0.614067	0.402083
O18	O	1.922687	0.947400	0.735416
O19	O	1.609222	0.316808	0.068751
O20	O	1.942555	0.650142	0.402085
O21	O	2.275889	0.983475	0.735418
Cu22	Cu	1.432619	0.298771	0.081305
Cu23	Cu	1.765952	0.632104	0.414638
Cu24	Cu	2.099285	0.965438	0.747972
Cu25	Cu	1.432652	0.298768	-0.081297
Cu26	Cu	1.765985	0.632101	0.252037
Cu27	Cu	2.099319	0.965435	0.585370
O28	O	1.422648	0.407589	0.068749
O29	O	1.755981	0.740923	0.402082
O30	O	2.089314	1.074256	0.735415
C31	C	1.210843	0.274077	0.000003
C32	C	1.544176	0.607410	0.333336
C33	C	1.877510	0.940744	0.666670
C34	C	1.076187	0.254237	0.000002
C35	C	1.409520	0.587571	0.333336
C36	C	1.742853	0.920904	0.666669
C37	C	1.441893	0.161656	0.000005
C38	C	1.775226	0.494989	0.333338
C39	C	2.108559	0.828322	0.666671
C40	C	1.439743	0.077343	0.000001
C41	C	1.773077	0.410676	0.333334
C42	C	2.106410	0.744009	0.666668
C43	C	1.438752	0.037736	-0.074948
C44	C	1.772085	0.371069	0.258386
C45	C	2.105418	0.704402	0.591719
C46	C	1.436724	-0.041486	-0.074949
C47	C	1.770058	0.291847	0.258385
C48	C	2.103391	0.625181	0.591718
C49	C	1.435697	-0.081098	-0.000000
C50	C	1.769031	0.252235	0.333333
C51	C	2.102364	0.585568	0.666666
C52	C	1.436685	-0.041486	0.074954
C53	C	1.770019	0.291847	0.408287
C54	C	2.103352	0.625181	0.741621
C55	C	1.438704	0.037734	0.074954
C56	C	1.772037	0.371067	0.408288
C57	C	2.105371	0.704400	0.741621
C58	C	1.428543	-0.360970	0.074955
C59	C	1.761876	-0.027636	0.408289
C60	C	2.095210	0.305697	0.741622
C61	C	1.426528	-0.440194	0.074949
C62	C	1.759861	-0.106861	0.408283
C63	C	2.093195	0.226472	0.741616
C64	C	1.426563	-0.440189	-0.074948
C65	C	1.759897	-0.106856	0.258386
C66	C	2.093230	0.226477	0.591719
C67	C	1.428582	-0.360970	-0.074947
C68	C	1.761915	-0.027636	0.258386
C69	C	2.095249	0.305697	0.591719
C70	C	1.429563	-0.321364	0.000006
C71	C	1.762897	0.011969	0.333340
C72	C	2.096230	0.345302	0.666673
C73	C	1.431759	-0.235464	0.000006
C74	C	1.765093	0.097870	0.333340
C75	C	2.098426	0.431203	0.666673
C76	C	1.433510	-0.166997	0.000000
C77	C	1.766843	0.166336	0.333334
C78	C	2.100177	0.499669	0.666667
C79	C	1.002222	0.309017	0.000001
C80	C	1.335555	0.642351	0.333334
C81	C	1.668889	0.975684	0.666667
C82	C	0.863047	0.288514	0.000000
C83	C	1.196381	0.621847	0.333333
C84	C	1.529714	0.955180	0.666667
C85	C	1.654428	0.323462	0.000003
C86	C	1.987761	0.656796	0.333337
C87	C	2.321094	0.990129	0.666670
C88	C	1.789084	0.343302	-0.000001
C89	C	2.122417	0.676635	0.333332
C90	C	2.455751	1.009968	0.666665
C91	C	1.423378	0.435883	0.000002
C92	C	1.756712	0.769217	0.333335
C93	C	2.090045	1.102550	0.666668
C94	C	1.425528	0.520196	-0.000000
C95	C	1.758861	0.853530	0.333333
C96	C	2.092194	1.186863	0.666667
N97	N	1.432604	0.298774	0.195670
N98	N	1.765938	0.632107	0.529003
N99	N	2.099271	0.965441	0.862337
N100	N	1.432676	0.298761	-0.195662
N101	N	1.766010	0.632094	0.137671
N102	N	2.099343	0.965427	0.471005
C103	C	1.515302	0.258583	0.761054
C104	C	1.848635	0.591916	1.094387
C105	C	2.181968	0.925249	1.427721
C106	C	1.515296	0.258587	0.674507
C107	C	1.848630	0.591921	1.007840
C108	C	2.181963	0.925254	1.341173
C109	C	1.432659	0.298766	0.631245
C110	C	1.765992	0.632099	0.964579
C111	C	2.099326	0.965432	1.297912
C112	C	1.350029	0.338948	0.674536
C113	C	1.683363	0.672282	1.007869
C114	C	2.016696	1.005615	1.341202
C115	C	1.350042	0.338948	0.761081
C116	C	1.683375	0.672281	1.094414
C117	C	2.016708	1.005614	1.427748
C118	C	1.349980	0.338952	0.325507
C119	C	1.683313	0.672286	0.658841
C120	C	2.016647	1.005619	0.992174
C121	C	1.349972	0.338948	0.238956
C122	C	1.683305	0.672281	0.572289
C123	C	2.016639	1.005614	0.905623
C124	C	1.515235	0.258592	0.238933
C125	C	1.848568	0.591925	0.572266
C126	C	2.181902	0.925258	0.905600
C127	C	1.515247	0.258591	0.325479
C128	C	1.848580	0.591924	0.658812
C129	C	2.181914	0.925258	0.992145
C130	C	1.432622	0.298777	0.368761
C131	C	1.765956	0.632110	0.702095
C132	C	2.099289	0.965443	1.035428
C133	C	1.432631	0.298773	0.462605
C134	C	1.765964	0.632106	0.795939
C135	C	2.099297	0.965439	1.129272
C136	C	1.432644	0.298766	0.537403
C137	C	1.765977	0.632099	0.870736
C138	C	2.099310	0.965432	1.204070
H139	H	1.439594	0.069983	-0.135979
H140	H	1.772928	0.403316	0.197354
H141	H	2.106261	0.736649	0.530687
H142	H	1.439494	0.069980	0.135985
H143	H	1.772828	0.403313	0.469318
H144	H	2.106161	0.736647	0.802652
H145	H	0.828788	0.405385	0.000003
H146	H	1.162121	0.738718	0.333336
H147	H	1.495455	1.072051	0.666670
H148	H	1.036475	0.192159	-0.000018
H149	H	1.369809	0.525492	0.333316
H150	H	1.703142	0.858826	0.666649
H151	H	1.282761	0.371666	0.796322
H152	H	1.616094	0.704999	1.129656
H153	H	1.949428	1.038332	1.462989
H154	H	1.582589	0.225861	0.796272
H155	H	1.915923	0.559194	1.129605
H156	H	2.249256	0.892528	1.462938
H157	H	0.823342	0.226431	-0.000020
H158	H	1.156675	0.559764	0.333313
H159	H	1.490008	0.893098	0.666647
H160	H	1.425758	-0.472446	-0.135979
H161	H	1.759091	-0.139112	0.197355
H162	H	2.092425	0.194221	0.530688
H163	H	1.582577	0.225872	0.639265
H164	H	1.915910	0.559205	0.972599
H165	H	2.249243	0.892539	1.305932
H166	H	1.582534	0.225871	0.360699
H167	H	1.915867	0.559204	0.694033
H168	H	2.249201	0.892538	1.027366
H169	H	1.435922	-0.073730	-0.135979
H170	H	1.769255	0.259603	0.197354
H171	H	2.102589	0.592936	0.530688
H172	H	1.282748	0.371667	0.639307
H173	H	1.616082	0.705000	0.972641
H174	H	1.949415	1.038333	1.305974
H175	H	1.041933	0.371096	0.000004
H176	H	1.375267	0.704429	0.333338
H177	H	1.708600	1.037763	0.666671
H178	H	1.582516	0.225873	0.203683
H179	H	1.915850	0.559206	0.537016
H180	H	2.249183	0.892540	0.870350
H181	H	1.282676	0.371668	0.203734
H182	H	1.616010	0.705002	0.537067
H183	H	1.949343	1.038335	0.870401
H184	H	1.282702	0.371671	0.360741
H185	H	1.616036	0.705004	0.694075
H186	H	1.949369	1.038338	1.027408
H187	H	1.435842	-0.073745	0.135978
H188	H	1.769175	0.259588	0.469312
H189	H	2.102508	0.592922	0.802645
H190	H	1.429366	-0.328731	0.135987
H191	H	1.762700	0.004602	0.469321
H192	H	2.096033	0.337935	0.802654
H193	H	1.425689	-0.472445	0.135985
H194	H	1.759022	-0.139112	0.469318
H195	H	2.092355	0.194222	0.802652
H196	H	1.429424	-0.328721	-0.135978
H197	H	1.762757	0.004613	0.197355
H198	H	2.096091	0.337946	0.530689
