data_functionalizedCrystal
_audit_creation_method	'MofGen! by Chris Wilmer'
_symmetry_space_group_name_H-M	'P1'
_symmetry_Int_Tables_number	1
_symmetry_cell_setting	triclinic
loop_
_symmetry_equiv_pos_as_xyz
  x,y,z
_cell_length_a	16.109301
_cell_length_b	10.654550
_cell_length_c	9.130313
_cell_angle_alpha	90.003780
_cell_angle_beta	89.997330
_cell_angle_gamma	96.026808
loop_
_atom_site_label
_atom_site_type_symbol
_atom_site_fract_x
_atom_site_fract_y
_atom_site_fract_z
O1	O	0.116770	-1.666250	-0.121925
O2	O	0.127896	-1.300621	-0.121902
O3	O	0.001362	-1.493479	-0.121899
O4	O	0.243304	-1.473391	-0.121928
O5	O	0.001365	-1.493477	0.121700
O6	O	0.127899	-1.300618	0.121697
O7	O	0.116774	-1.666248	0.121674
Cu8	Cu	0.122337	-1.483433	0.143928
Cu9	Cu	0.122333	-1.483435	-0.144156
O10	O	0.243308	-1.473389	0.121671
C11	C	0.127080	-1.253832	-0.000099
C12	C	0.124636	-1.114422	-0.000090
C13	C	-0.029616	-1.492665	-0.000099
C14	C	-0.121926	-1.490225	-0.000097
C15	C	0.117589	-1.713036	-0.000132
C16	C	0.120033	-1.852446	-0.000151
C17	C	-0.343552	-1.598991	-0.000127
C18	C	-0.430286	-1.596689	-0.000139
C19	C	-0.411772	-1.367868	-0.000119
C20	C	-0.325040	-1.370172	-0.000117
C21	C	-0.290932	-1.485737	-0.000114
C22	C	-0.464399	-1.481131	-0.000127
C23	C	-0.558440	-1.478634	-0.000140
C24	C	-0.196885	-1.488234	-0.000104
C25	C	0.274286	-1.474204	-0.000132
C26	C	0.366595	-1.476643	-0.000144
N27	N	0.122339	-1.483440	0.346551
C28	C	0.199138	-1.033926	-0.000120
C29	C	0.196836	-0.902936	-0.000145
C30	C	0.045526	-0.932952	-0.000116
C31	C	0.047828	-1.063939	-0.000081
C32	C	0.286496	-1.016595	-0.000143
C33	C	0.284194	-0.885606	-0.000168
N34	N	0.122324	-1.483438	-0.346779
C35	C	0.066329	-1.568859	0.423204
C36	C	0.066319	-1.568856	0.576541
C37	C	0.178336	-1.398010	0.576558
C38	C	0.178342	-1.398008	0.423223
C39	C	0.001659	-1.667500	0.423195
C40	C	0.001649	-1.667497	0.576532
H41	H	-0.473126	-1.688912	-0.000152
H42	H	0.223932	-1.328452	0.639001
O43	O	-0.074599	-1.643157	0.373460
C44	C	-0.195907	-1.717549	0.231304
C45	C	-0.109574	-1.745300	0.287564
H46	H	-0.224202	-1.800102	0.161820
H47	H	-0.238575	-1.703881	0.328348
H48	H	-0.188829	-1.628060	0.162007
H49	H	-0.116572	-1.834798	0.356837
H50	H	-0.066937	-1.758889	0.190454
O51	O	-0.070469	-1.632144	0.633038
C52	C	-0.205930	-1.565553	0.582146
C53	C	-0.124306	-1.605575	0.517956
H54	H	-0.249473	-1.544035	0.489134
H55	H	-0.237447	-1.645284	0.652346
H56	H	-0.191269	-1.477618	0.652500
H57	H	-0.138895	-1.693480	0.447537
H58	H	-0.092812	-1.525770	0.447840
O59	O	-0.444868	-1.255584	-0.000371
C60	C	-0.455542	-1.059274	-0.126509
C61	C	-0.418023	-1.186406	-0.126427
H62	H	-0.433838	-1.003296	-0.228398
H63	H	-0.526574	-1.077008	-0.126602
H64	H	-0.433941	-1.003363	-0.024511
H65	H	-0.439560	-1.242383	-0.228406
H66	H	-0.346995	-1.168583	-0.126257
H67	H	0.310596	-0.839575	0.104997
H68	H	0.021908	-1.758409	0.375628
H69	H	0.223942	-1.328442	0.360814
H70	H	0.314310	-1.051874	-0.105318
H71	H	0.317108	-0.843427	-0.102126
H72	H	0.015894	-1.763815	0.618141
O73	O	0.327242	-1.050836	0.121583
C74	C	0.399270	-0.981602	0.343240
C75	C	0.353128	-0.942654	0.205469
H76	H	0.420227	-0.894156	0.411085
H77	H	0.355625	-1.049659	0.411340
H78	H	0.456174	-1.029831	0.309228
H79	H	0.296226	-0.894373	0.239350
H80	H	0.396830	-0.874654	0.137403
H81	H	-0.315785	-1.693091	-0.000127
O82	O	-0.273885	-1.260183	-0.000364
C83	C	-0.165177	-1.130029	-0.126517
C84	C	-0.223074	-1.254615	-0.126428
H85	H	-0.124069	-1.125499	-0.228412
H86	H	-0.204410	-1.046987	-0.126603
H87	H	-0.124147	-1.125405	-0.024526
H88	H	-0.264114	-1.259362	-0.228401
H89	H	-0.183790	-1.337598	-0.126265
H90	H	-0.012838	-1.129476	-0.000035
O91	O	-0.029011	-0.883701	-0.000180
C92	C	-0.099618	-0.695213	-0.000124
C93	C	-0.015147	-0.750816	-0.000083
H94	H	-0.088438	-0.587769	-0.000014
H95	H	-0.136488	-0.728299	-0.102082
H96	H	-0.136468	-0.728421	0.101810
H97	H	0.021771	-0.717634	-0.101948
H98	H	0.021661	-0.717736	0.101942
