data_functionalizedCrystal
_audit_creation_method	'MofGen! by Chris Wilmer'
_symmetry_space_group_name_H-M	'P1'
_symmetry_Int_Tables_number	1
_symmetry_cell_setting	triclinic
loop_
_symmetry_equiv_pos_as_xyz
  x,y,z
_cell_length_a	19.077241
_cell_length_b	19.077114
_cell_length_c	19.076919
_cell_angle_alpha	94.472739
_cell_angle_beta	89.886096
_cell_angle_gamma	94.709190
loop_
_atom_site_label
_atom_site_type_symbol
_atom_site_fract_x
_atom_site_fract_y
_atom_site_fract_z
Zn1	Zn	-1.047576	0.256332	0.450423
Zn2	Zn	-0.547576	0.756332	0.950423
Zn3	Zn	-1.047486	0.369489	0.337268
Zn4	Zn	-0.547486	0.869489	0.837268
Zn5	Zn	-0.934807	0.255960	0.328186
Zn6	Zn	-0.434807	0.755960	0.828186
Zn7	Zn	-0.924912	0.378907	0.450366
Zn8	Zn	-0.424912	0.878907	0.950366
O9	O	-0.988695	0.315172	0.391561
O10	O	-0.488695	0.815172	0.891561
O11	O	-1.146056	0.267557	0.439237
O12	O	-0.646056	0.767557	0.939237
O13	O	-1.036642	0.350332	0.237575
O14	O	-0.536642	0.850332	0.737575
O15	O	-0.953945	0.157199	0.340624
O16	O	-0.453945	0.657199	0.840624
O17	O	-1.145990	0.350693	0.356103
O18	O	-0.645990	0.850693	0.856103
O19	O	-1.036796	0.157472	0.430431
O20	O	-0.536796	0.657472	0.930431
O21	O	-0.953858	0.266923	0.230903
O22	O	-0.453858	0.766923	0.730903
O23	O	-0.835003	0.276055	0.340569
O24	O	-0.335003	0.776055	0.840569
O25	O	-0.937080	0.366745	0.548862
O26	O	-0.437080	0.866745	1.048862
O27	O	-0.827732	0.366384	0.430334
O28	O	-0.327732	0.866384	0.930334
O29	O	-1.027201	0.276689	0.548904
O30	O	-0.527201	0.776689	1.048904
O31	O	-1.027047	0.469549	0.356048
O32	O	-0.527047	0.969549	0.856048
O33	O	-0.936992	0.476468	0.439140
O34	O	-0.436992	0.976468	0.939140
C35	C	-0.805830	0.322202	0.384460
C36	C	-0.305830	0.822202	0.884460
C37	C	-0.727597	0.325227	0.381440
C38	C	-0.227597	0.825227	0.881440
C39	C	-0.690873	0.283438	0.423376
C40	C	-0.190873	0.783438	0.923376
C41	C	-0.617366	0.286276	0.420531
C42	C	-0.117366	0.786276	0.920531
C43	C	-0.580585	0.330908	0.375754
C44	C	-0.080585	0.830908	0.875754
C45	C	-0.617314	0.372698	0.333814
C46	C	-0.117314	0.872698	0.833814
C47	C	-0.690820	0.369855	0.336655
C48	C	-0.190820	0.869855	0.836655
C49	C	-0.360743	0.344040	0.362605
C50	C	0.139257	0.844040	0.862605
C51	C	-0.287231	0.346881	0.359769
C52	C	0.212769	0.846881	0.859769
C53	C	-0.287288	0.260458	0.446486
C54	C	0.212712	0.760458	0.946486
C55	C	-0.360795	0.257622	0.449326
C56	C	0.139205	0.757622	0.949326
C57	C	-0.397519	0.299410	0.407383
C58	C	0.102481	0.799410	0.907383
N59	N	-0.505449	0.333812	0.372848
N60	N	-0.005449	0.833812	0.872848
N61	N	-0.472654	0.296501	0.410286
N62	N	0.027346	0.796501	0.910286
C63	C	-0.980955	0.498629	0.398589
C64	C	-0.480955	0.998629	0.898589
C65	C	-0.977707	0.577111	0.401622
C66	C	-0.477707	1.077111	0.901622
C67	C	-0.981046	0.322809	0.575134
C68	C	-0.481046	0.822809	1.075134
C69	C	-0.977787	0.326063	0.653361
C70	C	-0.477787	0.826063	1.153361
C71	C	-0.172275	0.308112	0.398684
C72	C	0.327725	0.808112	0.898684
C73	C	-0.250507	0.305092	0.401705
C74	C	0.249493	0.805092	0.901705
C75	C	-1.023101	0.610356	0.359824
C76	C	-0.523101	1.110356	0.859824
C77	C	-1.020050	0.684099	0.362681
C78	C	-0.520050	1.184099	0.862681
C79	C	-0.971601	0.724595	0.407332
C80	C	-0.471601	1.224595	0.907332
C81	C	-0.926205	0.691344	0.449135
C82	C	-0.426205	1.191344	0.949135
C83	C	-0.929260	0.617603	0.446282
C84	C	-0.429260	1.117603	0.946282
C85	C	-0.957437	0.945526	0.420505
C86	C	-0.457437	1.445526	0.920505
C87	C	-0.954384	1.019272	0.423354
C88	C	-0.454384	1.519272	0.923354
C89	C	-1.048231	1.012022	0.336900
C90	C	-0.548231	1.512022	0.836900
C91	C	-1.051278	0.938279	0.334047
C92	C	-0.551278	1.438279	0.834047
C93	C	-1.005885	0.905036	0.375853
C94	C	-0.505885	1.405036	0.875853
N95	N	-0.968480	0.799971	0.410252
N96	N	-0.468480	1.299971	0.910252
N97	N	-1.009010	0.829660	0.372937
N98	N	-0.509010	1.329660	0.872937
C99	C	-0.996478	1.131000	0.384530
C100	C	-0.496478	1.631000	0.884530
C101	C	-0.999778	1.052518	0.381556
C102	C	-0.499778	1.552518	0.881556
C103	C	-0.996357	0.307513	0.208702
C104	C	-0.496357	0.807513	0.708702
C105	C	-0.999761	0.304054	0.130472
C106	C	-0.499761	0.804054	0.630472
C107	C	-1.023174	0.280707	0.690136
C108	C	-0.523174	0.780707	1.190136
C109	C	-1.020103	0.283763	0.763639
C110	C	-0.520103	0.783763	1.263639
C111	C	-0.971648	0.332178	0.800366
C112	C	-0.471648	0.832178	1.300366
C113	C	-0.926255	0.377536	0.763586
C114	C	-0.426255	0.877536	1.263586
C115	C	-0.929324	0.374477	0.690084
C116	C	-0.429324	0.874477	1.190084
C117	C	-0.957437	0.346353	1.020190
C118	C	-0.457437	0.846353	1.520190
C119	C	-0.954374	0.349410	1.093697
C120	C	-0.454374	0.849410	1.593697
C121	C	-1.048221	0.255635	1.093745
C122	C	-0.548221	0.755635	1.593745
C123	C	-1.051288	0.252583	1.020242
C124	C	-0.551288	0.752583	1.520242
C125	C	-1.005893	0.297939	0.983468
C126	C	-0.505893	0.797939	1.483468
N127	N	-0.968509	0.335304	0.875498
N128	N	-0.468509	0.835304	1.375498
N129	N	-1.009029	0.294809	0.908337
N130	N	-0.509029	0.794809	1.408337
H131	H	-0.587468	0.252249	0.454682
H132	H	-0.087468	0.752249	0.954682
O133	O	-0.879235	0.730756	0.492552
O134	O	-0.379235	1.230756	0.992552
C135	C	-0.915610	0.773698	0.541254
C136	C	-0.415610	1.273698	1.041254
H137	H	-0.969545	0.781627	0.518973
H138	H	-0.469545	1.281627	1.018973
H139	H	-0.884392	0.827068	0.551555
H140	H	-0.384392	1.327068	1.051555
H141	H	-0.922305	0.747126	0.592616
H142	H	-0.422305	1.247126	1.092616
O143	O	-0.913304	0.390473	0.984584
O144	O	-0.413304	0.890473	1.484584
C145	C	-0.869865	0.433843	1.032764
C146	C	-0.369865	0.933843	1.532764
H147	H	-0.896413	0.437375	1.086368
H148	H	-0.396413	0.937375	1.586368
H149	H	-0.860868	0.488877	1.013355
H150	H	-0.360868	0.988877	1.513355
H151	H	-0.817188	0.410349	1.037527
H152	H	-0.317188	0.910349	1.537527
H153	H	-0.892296	0.590536	0.480319
H154	H	-0.392296	1.090536	0.980319
H155	H	-1.057064	0.246831	0.793578
H156	H	-0.557064	0.746831	1.293578
H157	H	-0.587361	0.409035	0.297352
H158	H	-0.087361	0.909035	0.797352
H159	H	-0.886799	0.416954	0.793495
H160	H	-0.386799	0.916954	1.293495
H161	H	-0.914913	0.388837	1.123599
H162	H	-0.414913	0.888837	1.623599
H163	H	-0.892357	0.411404	0.660143
H164	H	-0.392357	0.911404	1.160143
O165	O	-0.251460	0.390315	0.316369
O166	O	0.248540	0.890315	0.816369
C167	C	-0.205349	0.439281	0.356471
C168	C	0.294651	0.939281	0.856471
H169	H	-0.225021	0.445185	0.412919
H170	H	0.274979	0.945185	0.912919
H171	H	-0.203284	0.492549	0.332969
H172	H	0.296716	0.992549	0.832969
H173	H	-0.150459	0.419706	0.355950
H174	H	0.349541	0.919706	0.855950
O175	O	-0.726534	0.410346	0.295842
O176	O	-0.226534	0.910346	0.795842
C177	C	-0.772643	0.366543	0.250562
C178	C	-0.272643	0.866543	0.750562
H179	H	-0.753007	0.311603	0.243319
H180	H	-0.253007	0.811603	0.743319
H181	H	-0.774654	0.389709	0.197364
H182	H	-0.274654	0.889709	0.697364
H183	H	-0.827550	0.362895	0.274387
H184	H	-0.327550	0.862895	0.774387
H185	H	-1.090729	0.905309	0.297688
H186	H	-0.590729	1.405309	0.797688
H187	H	-0.720815	0.247096	0.459840
H188	H	-0.220815	0.747096	0.959840
H189	H	-1.090747	0.213160	0.990344
H190	H	-0.590747	0.713160	1.490344
O191	O	-0.396416	0.214199	0.492832
O192	O	0.103584	0.714199	0.992832
C193	C	-0.348238	0.177933	0.529248
C194	C	0.151762	0.677933	1.029248
H195	H	-0.297139	0.176275	0.498307
H196	H	0.202861	0.676275	0.998307
H197	H	-0.371501	0.121805	0.535529
H198	H	0.128499	0.621805	1.035529
H199	H	-0.337117	0.206392	0.583354
H200	H	0.162883	0.706392	1.083354
H201	H	-0.257380	0.226436	0.480633
H202	H	0.242620	0.726436	0.980633
O203	O	-0.396368	0.384741	0.321943
O204	O	0.103632	0.884741	0.821943
C205	C	-0.374795	0.456467	0.339202
C206	C	0.125205	0.956467	0.839202
H207	H	-0.352110	0.463239	0.394784
H208	H	0.147890	0.963239	0.894784
H209	H	-0.421919	0.489222	0.336280
H210	H	0.078081	0.989222	0.836280
H211	H	-0.332914	0.474942	0.300500
H212	H	0.167086	0.974942	0.800500
O213	O	-1.070226	0.571127	0.316431
O214	O	-0.570226	1.071127	0.816431
C215	C	-1.109625	0.616287	0.280139
C216	C	-0.609625	1.116287	0.780139
H217	H	-1.108662	0.669943	0.311098
H218	H	-0.608662	1.169943	0.811098
H219	H	-1.166281	0.592493	0.274002
H220	H	-0.666281	1.092493	0.774002
H221	H	-1.085794	0.622943	0.225973
H222	H	-0.585794	1.122943	0.725973
H223	H	-1.085188	1.039097	0.302865
H224	H	-0.585188	1.539097	0.802865
O225	O	-1.070266	0.233613	0.654569
O226	O	-0.570266	0.733613	1.154569
C227	C	-1.109678	0.194248	0.702794
C228	C	-0.609678	0.694248	1.202794
H229	H	-1.078764	0.195093	0.753973
H230	H	-0.578764	0.695093	1.253973
H231	H	-1.120424	0.137442	0.679725
H232	H	-0.620424	0.637442	1.179725
H233	H	-1.161712	0.218376	0.713679
H234	H	-0.661712	0.718376	1.213679
O235	O	-1.092238	0.211605	1.129574
O236	O	-0.592238	0.711605	1.629574
C237	C	-1.079154	0.224696	1.202325
C238	C	-0.579154	0.724696	1.702325
H239	H	-1.023442	0.250329	1.211136
H240	H	-0.523442	0.750329	1.711136
H241	H	-1.084997	0.172783	1.228422
H242	H	-0.584997	0.672783	1.728422
H243	H	-1.118443	0.261559	1.226245
H244	H	-0.618443	0.761559	1.726245
O245	O	-1.064309	0.716371	0.322235
O246	O	-0.564309	1.216371	0.822235
C247	C	-1.106287	0.758829	0.365833
C248	C	-0.606287	1.258829	0.865833
H249	H	-1.109054	0.738725	0.420579
H250	H	-0.609054	1.238725	0.920579
H251	H	-1.161549	0.756389	0.342659
H252	H	-0.661549	1.256389	0.842659
H253	H	-1.082204	0.815705	0.369514
H254	H	-0.582204	1.315705	0.869514
H255	H	-0.914939	1.052243	0.459728
H256	H	-0.414939	1.552243	0.959728
H257	H	-0.920474	0.918465	0.454544
H258	H	-0.420474	1.418465	0.954544
