data_functionalizedCrystal
_audit_creation_method	'MofGen! by Chris Wilmer'
_symmetry_space_group_name_H-M	'P1'
_symmetry_Int_Tables_number	1
_symmetry_cell_setting	triclinic
loop_
_symmetry_equiv_pos_as_xyz
  x,y,z
_cell_length_a	18.101398
_cell_length_b	18.101395
_cell_length_c	12.827885
_cell_angle_alpha	89.967625
_cell_angle_beta	89.983401
_cell_angle_gamma	90.029256
loop_
_atom_site_label
_atom_site_type_symbol
_atom_site_fract_x
_atom_site_fract_y
_atom_site_fract_z
Zn1	Zn	1.132137	-0.294830	-0.590755
Zn2	Zn	1.632137	0.205170	-0.090755
Zn3	Zn	1.132028	-0.418690	-0.416008
Zn4	Zn	1.632028	0.081310	0.083992
Zn5	Zn	1.008292	-0.294862	-0.416037
Zn6	Zn	1.508292	0.205138	0.083963
Zn7	Zn	1.008247	-0.418631	-0.590716
Zn8	Zn	1.508247	0.081369	-0.090716
O9	O	1.070176	-0.356753	-0.503379
O10	O	1.570176	0.143247	-0.003379
O11	O	1.235756	-0.311272	-0.567579
O12	O	1.735756	0.188728	-0.067579
O13	O	1.115587	-0.402302	-0.269775
O14	O	1.615587	0.097698	0.230225
O15	O	1.024784	-0.191225	-0.439243
O16	O	1.524784	0.308775	0.060757
O17	O	1.235676	-0.402271	-0.439193
O18	O	1.735676	0.097729	0.060807
O19	O	1.115773	-0.191202	-0.567607
O20	O	1.615773	0.308798	-0.067607
O21	O	1.024678	-0.311327	-0.269797
O22	O	1.524678	0.188673	0.230203
O23	O	0.904653	-0.311269	-0.439204
O24	O	1.404653	0.188731	0.060796
O25	O	1.024708	-0.402170	-0.736957
O26	O	1.524708	0.097830	-0.236957
O27	O	0.904620	-0.402201	-0.567540
O28	O	1.404620	0.097799	-0.067540
O29	O	1.115730	-0.311215	-0.736986
O30	O	1.615730	0.188785	-0.236986
O31	O	1.115544	-0.522315	-0.439154
O32	O	1.615544	-0.022315	0.060846
O33	O	1.024603	-0.522271	-0.567512
O34	O	1.524603	-0.022271	-0.067512
C35	C	0.877766	-0.356733	-0.503372
C36	C	1.377766	0.143267	-0.003372
C37	C	0.795452	-0.356742	-0.503393
C38	C	1.295452	0.143258	-0.003393
C39	C	1.070077	-0.549164	-0.503348
C40	C	1.570077	-0.049164	-0.003348
C41	C	1.070102	-0.631478	-0.503370
C42	C	1.570102	-0.131478	-0.003370
C43	C	0.644743	-0.356756	-0.503392
C44	C	1.144743	0.143244	-0.003392
C45	C	0.613394	-0.414056	-0.584012
C46	C	1.113394	0.085944	-0.084012
C47	C	0.527775	-0.414288	-0.583773
C48	C	1.027775	0.085712	-0.083773
C49	C	0.496361	-0.356769	-0.503392
C50	C	0.996361	0.143231	-0.003392
C51	C	0.527410	-0.377604	-0.393127
C52	C	1.027410	0.122396	0.106873
C53	C	0.613055	-0.378012	-0.393593
C54	C	1.113055	0.121988	0.106407
C55	C	0.613223	-0.278479	-0.532074
C56	C	1.113223	0.221521	-0.032074
C57	C	0.527572	-0.278908	-0.534502
C58	C	1.027572	0.221092	-0.034502
C59	C	0.412501	-0.356776	-0.503385
C60	C	0.912501	0.143224	-0.003385
C61	C	0.728603	-0.356751	-0.503391
C62	C	1.228603	0.143249	-0.003391
C63	C	1.070265	-0.930569	-0.503426
C64	C	1.570265	-0.430569	-0.003426
C65	C	1.013180	-0.899247	-0.584386
C66	C	1.513180	-0.399247	-0.084386
C67	C	1.012908	-0.813629	-0.584133
C68	C	1.512908	-0.313629	-0.084133
C69	C	1.070184	-0.782186	-0.503399
C70	C	1.570184	-0.282186	-0.003399
C71	C	1.049052	-0.813344	-0.393266
C72	C	1.549052	-0.313344	0.106734
C73	C	1.048684	-0.898989	-0.393751
C74	C	1.548684	-0.398989	0.106249
C75	C	1.148607	-0.898913	-0.531630
C76	C	1.648607	-0.398913	-0.031630
C77	C	1.148147	-0.813262	-0.534046
C78	C	1.648147	-0.313262	-0.034046
C79	C	1.070140	-0.698327	-0.503377
C80	C	1.570140	-0.198327	-0.003377
C81	C	1.070307	-1.014428	-0.503441
C82	C	1.570307	-0.514428	-0.003441
C83	C	1.263338	-0.356774	-0.503387
C84	C	1.763338	0.143226	-0.003387
C85	C	1.345652	-0.356783	-0.503390
C86	C	1.845652	0.143217	-0.003390
C87	C	1.070227	-0.356682	-0.775949
C88	C	1.570227	0.143318	-0.275949
C89	C	1.070248	-0.356652	-0.892102
C90	C	1.570248	0.143348	-0.392102
C91	C	1.070296	-0.163591	-0.503433
C92	C	1.570296	0.336409	-0.003433
C93	C	1.070347	-0.081277	-0.503456
C94	C	1.570347	0.418723	-0.003456
C95	C	1.115293	-0.311635	-0.943902
C96	C	1.615293	0.188365	-0.443902
C97	C	1.115317	-0.311603	-1.063952
C98	C	1.615317	0.188397	-0.563952
C99	C	1.070169	-0.356771	-0.231869
C100	C	1.570169	0.143229	0.268131
C101	C	1.070291	-0.356592	-0.115716
C102	C	1.570291	0.143408	0.384284
H103	H	0.506783	-0.401290	-0.665519
H104	H	1.006783	0.098710	-0.165519
F105	F	0.640366	-0.397280	-0.691191
F106	F	1.140366	0.102720	-0.191191
H107	H	1.026130	-0.792560	-0.665795
H108	H	1.526130	-0.292560	-0.165795
H109	H	1.167873	-0.920457	-0.610570
H110	H	1.667873	-0.420457	-0.110570
H111	H	1.164083	-0.792894	-0.615098
H112	H	1.664083	-0.292894	-0.115098
H113	H	0.634881	-0.471729	-0.565214
H114	H	1.134881	0.028271	-0.065214
H115	H	0.633793	-0.338061	-0.331464
H116	H	1.133793	0.161939	0.168536
F117	F	1.019883	-0.406975	-1.057502
F118	F	1.519883	0.093025	-0.557502
F119	F	1.206683	-0.785276	-0.462596
F120	F	1.706683	-0.285276	0.037404
F121	F	0.499619	-0.220157	-0.463416
F122	F	0.999619	0.279843	0.036584
H123	H	1.191138	-0.919168	-0.472665
H124	H	1.691138	-0.419168	0.027335
H125	H	0.634851	-0.259446	-0.611124
H126	H	1.134851	0.240554	-0.111124
H127	H	1.031696	-0.395163	-0.936632
H128	H	1.531696	0.104837	-0.436632
H129	H	0.507253	-0.472294	-0.564745
H130	H	1.007253	0.027706	-0.064745
H131	H	0.632997	-0.435221	-0.369351
H132	H	1.132997	0.064779	0.130649
F133	F	0.500815	-0.324728	-0.312454
F134	F	1.000815	0.175272	0.187546
H135	H	0.505930	-0.434189	-0.368473
H136	H	1.005930	0.065811	0.131527
F137	F	1.030286	-0.926100	-0.691473
F138	F	1.530286	-0.426100	-0.191473
H139	H	0.633498	-0.235791	-0.473360
H140	H	1.133498	0.264209	0.026640
F141	F	0.937007	-0.786930	-0.559719
F142	F	1.437007	-0.286930	-0.059719
H143	H	0.507282	-0.263191	-0.615651
H144	H	1.007282	0.236809	-0.115651
F145	F	1.101687	-0.786727	-0.312270
F146	F	1.601687	-0.286727	0.187730
H147	H	0.955463	-0.920833	-0.565939
H148	H	1.455463	-0.420833	-0.065939
H149	H	0.991416	-0.919032	-0.369858
H150	H	1.491416	-0.419032	0.130142
F151	F	1.165665	-0.261275	-0.885704
F152	F	1.665665	0.238725	-0.385704
H153	H	1.153884	-0.273065	-1.108498
H154	H	1.653884	0.226935	-0.608498
H155	H	1.088459	-0.919711	-0.331373
H156	H	1.588459	-0.419711	0.168627
F157	F	0.974990	-0.785396	-0.361476
F158	F	1.474990	-0.285396	0.138524
