data_functionalizedCrystal
_audit_creation_method	'MofGen! by Chris Wilmer'
_symmetry_space_group_name_H-M	'P1'
_symmetry_Int_Tables_number	1
_symmetry_cell_setting	triclinic
loop_
_symmetry_equiv_pos_as_xyz
  x,y,z
_cell_length_a	14.971506
_cell_length_b	11.792254
_cell_length_c	14.048226
_cell_angle_alpha	89.993407
_cell_angle_beta	89.993237
_cell_angle_gamma	83.910493
loop_
_atom_site_label
_atom_site_type_symbol
_atom_site_fract_x
_atom_site_fract_y
_atom_site_fract_z
O1	O	1.187534	0.148018	-0.079168
O2	O	0.927208	0.165706	-0.079168
O3	O	1.063683	-0.008348	-0.079161
O4	O	1.051060	0.322071	-0.079175
O5	O	1.063666	-0.008358	0.079160
O6	O	0.927191	0.165696	0.079153
O7	O	1.187518	0.148007	0.079154
Zn8	Zn	1.057352	0.156850	0.104290
Zn9	Zn	1.057374	0.156863	-0.104305
O10	O	1.051043	0.322061	0.079147
C11	C	0.893872	0.164906	-0.000008
C12	C	0.794566	0.162523	-0.000008
C13	C	0.356660	0.255683	-0.000021
C14	C	0.449970	0.257913	-0.000025
C15	C	0.506776	0.155649	-0.000017
C16	C	0.470269	0.051149	-0.000014
C17	C	0.376962	0.048920	-0.000017
C18	C	0.664751	0.055802	-0.000006
C19	C	0.758065	0.058031	-0.000002
C20	C	0.737759	0.264794	-0.000015
C21	C	0.644451	0.262566	-0.000018
C22	C	0.607951	0.158065	-0.000013
C23	C	1.062879	-0.050639	-0.000001
C24	C	1.060499	-0.176637	-0.000002
C25	C	1.058565	-0.278961	-0.000005
C26	C	1.056147	-0.407332	-0.000014
C27	C	1.220854	0.148808	-0.000009
C28	C	1.320159	0.151191	-0.000015
C29	C	1.051846	0.364352	-0.000016
C30	C	1.054227	0.490350	-0.000021
N31	N	1.057344	0.156840	0.246651
N32	N	1.057389	0.156864	-0.246666
C33	C	1.117794	0.079801	0.296472
C34	C	1.117800	0.079800	0.396130
C35	C	1.057359	0.156845	0.445964
C36	C	0.996903	0.233888	0.396136
C37	C	0.996893	0.233882	0.296480
C38	C	0.996928	0.233896	0.603851
C39	C	0.996939	0.233904	0.703513
C40	C	1.117835	0.079814	0.703500
C41	C	1.117826	0.079808	0.603844
C42	C	1.057370	0.156853	0.554023
H43	H	0.635036	-0.029293	-0.000007
O44	O	1.176437	0.005021	0.247919
C45	C	1.163435	0.021489	0.149276
H46	H	1.130495	0.111673	0.135644
H47	H	1.118208	-0.042811	0.121052
C48	C	1.295282	-0.106254	0.114808
C49	C	1.254831	0.004515	0.098064
H50	H	1.351658	-0.116729	0.083217
H51	H	1.304041	-0.117352	0.181266
H52	H	1.257584	-0.159824	0.091288
H53	H	1.292525	0.058083	0.121595
H54	H	1.246081	0.015622	0.031609
O55	O	1.176561	0.005127	0.444635
C56	C	1.232045	0.066046	0.502242
H57	H	1.196846	0.154780	0.517163
H58	H	1.298183	0.073907	0.463823
C59	C	1.294092	-0.106877	0.578587
C60	C	1.250857	0.002104	0.596920
H61	H	1.305700	-0.146321	0.636987
H62	H	1.256714	-0.147921	0.539774
H63	H	1.349202	-0.100310	0.546568
H64	H	1.195743	-0.004464	0.628927
H65	H	1.288226	0.043145	0.635740
H66	H	0.804315	-0.025241	-0.000003
H67	H	1.167060	0.017082	0.744070
O68	O	0.938326	0.308784	0.555347
C69	C	0.986563	0.378923	0.497699
H70	H	1.056330	0.333869	0.482761
H71	H	0.993050	0.462823	0.536091
C72	C	0.850557	0.458403	0.421389
C73	C	0.936244	0.403062	0.403036
H74	H	0.819517	0.473298	0.362999
H75	H	0.818058	0.411153	0.460230
H76	H	0.855975	0.528313	0.453386
H77	H	0.930824	0.333147	0.371052
H78	H	0.968741	0.450301	0.364188
O79	O	0.589396	0.362007	-0.000065
C80	C	0.641618	0.454720	-0.000046
H81	H	0.711112	0.426011	-0.030016
H82	H	0.648409	0.486743	0.075907
C83	C	0.510261	0.586782	-0.025331
C84	C	0.595612	0.551522	-0.062148
H85	H	0.481882	0.646496	-0.063634
H86	H	0.475077	0.524320	-0.025340
H87	H	0.515932	0.613459	0.037963
H88	H	0.589940	0.524832	-0.125436
H89	H	0.630794	0.613982	-0.062151
H90	H	0.516529	-0.032115	-0.000013
O91	O	0.301354	0.354918	0.000012
C92	C	0.211170	0.330550	-0.000013
H93	H	0.207142	0.241401	0.029971
H94	H	0.184221	0.334815	-0.075969
C95	C	0.159448	0.528090	0.025236
C96	C	0.154500	0.418599	0.062070
H97	H	0.124489	0.582405	0.063528
H98	H	0.220206	0.544509	0.025249
H99	H	0.136992	0.531628	-0.038060
H100	H	0.176966	0.415058	0.125360
H101	H	0.093744	0.402181	0.062069
H102	H	1.167045	0.017078	0.563269
H103	H	0.767482	0.349883	-0.000018
O104	O	0.341650	-0.052682	0.000032
C105	C	0.411794	-0.142466	0.000016
H106	H	0.475327	-0.110573	0.029993
H107	H	0.424851	-0.174010	-0.075937
C108	C	0.306925	-0.280183	0.025285
C109	C	0.384955	-0.241014	0.062112
H110	H	0.290368	-0.340976	0.063584
H111	H	0.259666	-0.219696	0.025292
H112	H	0.317816	-0.306462	-0.038009
H113	H	0.374059	-0.214724	0.125399
H114	H	0.432211	-0.301501	0.062116
H115	H	0.947721	0.296640	0.744084
H116	H	0.947686	0.296615	0.436717
O117	O	0.938263	0.308878	0.248123
C118	C	0.953332	0.421267	0.272471
H119	H	1.024947	0.421983	0.299848
H120	H	0.903924	0.454498	0.330324
C121	C	0.851838	0.497297	0.150309
C122	C	0.939799	0.498178	0.183927
H123	H	0.843486	0.544741	0.095693
H124	H	0.841683	0.421578	0.133908
H125	H	0.810675	0.524986	0.198528
H126	H	0.980959	0.470475	0.135712
H127	H	0.949961	0.573894	0.200318
H128	H	0.479684	0.343000	-0.000039
