data_functionalizedCrystal
_audit_creation_method	'MofGen! by Chris Wilmer'
_symmetry_space_group_name_H-M	'P1'
_symmetry_Int_Tables_number	1
_symmetry_cell_setting	triclinic
loop_
_symmetry_equiv_pos_as_xyz
  x,y,z
_cell_length_a	18.101395
_cell_length_b	18.101398
_cell_length_c	16.120256
_cell_angle_alpha	87.130576
_cell_angle_beta	92.874436
_cell_angle_gamma	89.973721
loop_
_atom_site_label
_atom_site_type_symbol
_atom_site_fract_x
_atom_site_fract_y
_atom_site_fract_z
Zn1	Zn	-0.316196	-1.110882	-0.471592
Zn2	Zn	0.183804	-0.610882	0.028408
Zn3	Zn	-0.433757	-1.117056	-0.332184
Zn4	Zn	0.066243	-0.617056	0.167816
Zn5	Zn	-0.309923	-0.993320	-0.332174
Zn6	Zn	0.190077	-0.493320	0.167826
Zn7	Zn	-0.439987	-0.986994	-0.471527
Zn8	Zn	0.060013	-0.486994	0.028473
O9	O	-0.374966	-1.052063	-0.401869
O10	O	0.125034	-0.552063	0.098131
O11	O	-0.331809	-1.215332	-0.453131
O12	O	0.168191	-0.715332	0.046869
O13	O	-0.412097	-1.105873	-0.215520
O14	O	0.087903	-0.605873	0.284480
O15	O	-0.207123	-1.008978	-0.350691
O16	O	0.292877	-0.508978	0.149309
O17	O	-0.418180	-1.219868	-0.350708
O18	O	0.081820	-0.719868	0.149292
O19	O	-0.211732	-1.095350	-0.453121
O20	O	0.288268	-0.595350	0.046879
O21	O	-0.321117	-1.014965	-0.215513
O22	O	0.178883	-0.514965	0.284487
O23	O	-0.327158	-0.888849	-0.350628
O24	O	0.172842	-0.388849	0.149372
O25	O	-0.428799	-0.998197	-0.588198
O26	O	0.071201	-0.498197	-0.088198
O27	O	-0.422716	-0.884202	-0.453010
O28	O	0.077284	-0.384202	0.046990
O29	O	-0.337850	-1.089216	-0.588246
O30	O	0.162150	-0.589216	-0.088246
O31	O	-0.538215	-1.099740	-0.350645
O32	O	-0.038215	-0.599740	0.149355
O33	O	-0.542792	-1.004184	-0.453020
O34	O	-0.042792	-0.504184	0.046980
C35	C	-0.567375	-1.051965	-0.401845
C36	C	-0.067375	-0.551965	0.098155
C37	C	-0.649690	-1.051989	-0.401862
C38	C	-0.149690	-0.551989	0.098138
C39	C	-0.374933	-0.859655	-0.401811
C40	C	0.125067	-0.359655	0.098189
C41	C	-0.374937	-0.777341	-0.401806
C42	C	0.125063	-0.277341	0.098194
C43	C	-0.384719	-1.042312	-0.619317
C44	C	0.115281	-0.542312	-0.119317
C45	C	-0.388876	-1.038157	-0.711980
C46	C	0.111124	-0.538157	-0.211980
C47	C	-0.948783	-1.052150	-0.401907
C48	C	-0.448783	-0.552150	0.098093
C49	C	-0.920376	-0.992154	-0.466478
C50	C	-0.420376	-0.492154	0.033522
C51	C	-0.834749	-0.991892	-0.466276
C52	C	-0.334749	-0.491892	0.033724
C53	C	-0.800400	-1.052070	-0.401886
C54	C	-0.300400	-0.552070	0.098114
C55	C	-0.827586	-1.034898	-0.314019
C56	C	-0.327586	-0.534898	0.185981
C57	C	-0.913249	-1.034513	-0.314406
C58	C	-0.413249	-0.534513	0.185594
C59	C	-0.918149	-1.129477	-0.424429
C60	C	-0.418149	-0.629477	0.075571
C61	C	-0.832585	-1.128930	-0.426355
C62	C	-0.332585	-0.628930	0.073645
C63	C	-0.716539	-1.052027	-0.401868
C64	C	-0.216539	-0.552027	0.098132
C65	C	-1.032643	-1.052192	-0.401919
C66	C	-0.532643	-0.552192	0.098081
C67	C	-0.181806	-1.052181	-0.401912
C68	C	0.318194	-0.552181	0.098088
C69	C	-0.099492	-1.052231	-0.401930
C70	C	0.400508	-0.552231	0.098070
C71	C	-0.374947	-0.626631	-0.401834
C72	C	0.125053	-0.126631	0.098166
C73	C	-0.314746	-0.598172	-0.337523
C74	C	0.185254	-0.098172	0.162477
C75	C	-0.314536	-0.512545	-0.337729
C76	C	0.185464	-0.012545	0.162271
C77	C	-0.374956	-0.478248	-0.401860
C78	C	0.125044	0.021752	0.098140
C79	C	-0.358092	-0.505426	-0.489820
C80	C	0.141908	-0.005426	0.010180
C81	C	-0.357654	-0.591088	-0.489433
C82	C	0.142346	-0.091088	0.010567
C83	C	-0.452195	-0.596058	-0.378958
C84	C	0.047805	-0.096058	0.121042
C85	C	-0.451691	-0.510493	-0.377036
C86	C	0.048309	-0.010493	0.122964
C87	C	-0.374963	-0.394387	-0.401880
C88	C	0.125037	0.105613	0.098120
C89	C	-0.374939	-0.710491	-0.401820
C90	C	0.125061	-0.210491	0.098180
C91	C	-0.374987	-0.245223	-0.401911
C92	C	0.125013	0.254777	0.098089
C93	C	-0.374966	-0.327538	-0.401887
C94	C	0.125034	0.172462	0.098113
C95	C	-0.353272	-1.073730	-0.922948
C96	C	0.146728	-0.573730	-0.422948
C97	C	-0.396433	-1.030546	-0.881632
C98	C	0.103567	-0.530546	-0.381632
C99	C	-0.392227	-1.034782	-0.787229
C100	C	0.107773	-0.534782	-0.287229
C101	C	-0.357477	-1.069495	-1.017359
C102	C	0.142523	-0.569495	-0.517359
C103	C	-0.365197	-1.061818	-0.185267
C104	C	0.134803	-0.561818	0.314733
C105	C	-0.360832	-1.066117	-0.092605
C106	C	0.139168	-0.566117	0.407395
H107	H	-0.816624	-1.002177	-0.531428
H108	H	-0.316624	-0.502177	-0.031428
Cl109	Cl	-0.805652	-1.149037	-0.526193
Cl110	Cl	-0.305652	-0.649037	-0.026193
Cl111	Cl	-0.422764	-0.619675	-0.565973
Cl112	Cl	0.077236	-0.119675	-0.065973
Cl113	Cl	-0.477175	-0.633727	-0.281585
Cl114	Cl	0.022825	-0.133727	0.218415
Cl115	Cl	-0.226043	-0.479891	-0.361177
Cl116	Cl	0.273957	0.020109	0.138823
Cl117	Cl	-0.458364	-0.968555	-0.936480
Cl118	Cl	0.041636	-0.468555	-0.436480
Cl119	Cl	-0.802165	-0.903274	-0.443246
Cl120	Cl	-0.302165	-0.403274	0.056754
Cl121	Cl	-0.952686	-0.904071	-0.443753
Cl122	Cl	-0.452686	-0.404071	0.056247
H123	H	-0.931725	-1.076530	-0.264654
H124	H	-0.431725	-0.576530	0.235346
H125	H	-0.942539	-1.145905	-0.487410
H126	H	-0.442539	-0.645905	0.012590
H127	H	-0.943873	-1.002299	-0.531841
H128	H	-0.443873	-0.502299	-0.031841
Cl129	Cl	-0.942861	-0.947423	-0.284955
Cl130	Cl	-0.442861	-0.447423	0.215045
Cl131	Cl	-0.792702	-1.100509	-0.237710
Cl132	Cl	-0.292702	-0.600509	0.262290
Cl133	Cl	-0.291338	-1.135709	-0.868099
Cl134	Cl	0.208662	-0.635709	-0.368099
Cl135	Cl	-0.423988	-0.470600	-0.565848
Cl136	Cl	0.076012	0.029400	-0.065848
H137	H	-0.936281	-1.174128	-0.377399
H138	H	-0.436281	-0.674128	0.122601
Cl139	Cl	-0.796491	-1.201108	-0.359044
Cl140	Cl	-0.296491	-0.701108	0.140956
Cl141	Cl	-0.793217	-0.948766	-0.284038
Cl142	Cl	-0.293217	-0.448766	0.215962
Cl143	Cl	-0.330051	-0.484565	-0.237046
Cl144	Cl	0.169949	0.015435	0.262954
H145	H	-0.257747	-0.619044	-0.352516
H146	H	0.242253	-0.119044	0.147484
Cl147	Cl	-0.330006	-0.634463	-0.236515
Cl148	Cl	0.169994	-0.134463	0.263485
H149	H	-0.301315	-0.610222	-0.508769
H150	H	0.198685	-0.110222	-0.008769
H151	H	-0.302400	-0.483120	-0.509494
H152	H	0.197600	0.016880	-0.009494
Cl153	Cl	-0.471451	-0.483564	-0.277091
Cl154	Cl	0.028549	0.016436	0.222909
H155	H	-0.498602	-0.487151	-0.420428
H156	H	0.001398	0.012849	0.079572
H157	H	-0.496995	-0.614222	-0.425799
H158	H	0.003005	-0.114222	0.074201
