data_functionalizedCrystal
_audit_creation_method	'MofGen! by Chris Wilmer'
_symmetry_space_group_name_H-M	'P1'
_symmetry_Int_Tables_number	1
_symmetry_cell_setting	triclinic
loop_
_symmetry_equiv_pos_as_xyz
  x,y,z
_cell_length_a	19.288835
_cell_length_b	15.186229
_cell_length_c	19.288865
_cell_angle_alpha	89.994486
_cell_angle_beta	83.130103
_cell_angle_gamma	89.985929
loop_
_atom_site_label
_atom_site_type_symbol
_atom_site_fract_x
_atom_site_fract_y
_atom_site_fract_z
O1	O	-0.921363	0.073411	-0.086543
O2	O	-0.588030	0.406745	0.246790
O3	O	-0.254697	0.740078	0.580123
O4	O	-0.719100	0.073377	-0.098254
O5	O	-0.385766	0.406710	0.235079
O6	O	-0.052433	0.740043	0.568413
O7	O	-0.826076	0.073377	0.008732
O8	O	-0.492743	0.406711	0.342066
O9	O	-0.159409	0.740044	0.675399
O10	O	-0.814387	0.073410	-0.193530
O11	O	-0.481054	0.406744	0.139804
O12	O	-0.147720	0.740077	0.473137
O13	O	-0.826063	-0.073080	0.008726
O14	O	-0.492730	0.260254	0.342059
O15	O	-0.159397	0.593587	0.675393
O16	O	-0.719087	-0.073081	-0.098260
O17	O	-0.385754	0.260253	0.235073
O18	O	-0.052420	0.593586	0.568407
O19	O	-0.921351	-0.073046	-0.086550
O20	O	-0.588017	0.260287	0.246784
O21	O	-0.254684	0.593621	0.580117
Zn22	Zn	-0.820217	-0.096317	-0.092406
Zn23	Zn	-0.486884	0.237017	0.240927
Zn24	Zn	-0.153550	0.570350	0.574261
Zn25	Zn	-0.820233	0.096647	-0.092398
Zn26	Zn	-0.486900	0.429980	0.240936
Zn27	Zn	-0.153567	0.763314	0.574269
O28	O	-0.814374	-0.073047	-0.193536
O29	O	-0.481041	0.260286	0.139798
O30	O	-0.147708	0.593620	0.473131
C31	C	-0.693217	0.000143	-0.097884
C32	C	-0.359883	0.333476	0.235450
C33	C	-0.026550	0.666810	0.568783
C34	C	-0.616112	0.000129	-0.096763
C35	C	-0.282779	0.333462	0.236570
C36	C	0.050555	0.666796	0.569904
N37	N	-0.820211	-0.228009	-0.092411
N38	N	-0.486877	0.105324	0.240922
N39	N	-0.153544	0.438657	0.574256
C40	C	-0.579915	0.079964	-0.096221
C41	C	-0.246582	0.413297	0.237112
C42	C	0.086752	0.746631	0.570445
C43	C	-0.507468	0.079973	-0.095161
C44	C	-0.174135	0.413306	0.238173
C45	C	0.159199	0.746639	0.571506
C46	C	-0.471222	0.000142	-0.094628
C47	C	-0.137889	0.333475	0.238706
C48	C	0.195444	0.666808	0.572039
C49	C	-0.507427	-0.079704	-0.095173
C50	C	-0.174094	0.253630	0.238160
C51	C	0.159239	0.586963	0.571493
C52	C	-0.579872	-0.079710	-0.096241
C53	C	-0.246539	0.253623	0.237092
C54	C	0.086795	0.586957	0.570425
C55	C	-0.361889	-0.061017	-0.052254
C56	C	-0.028556	0.272316	0.281079
C57	C	0.304777	0.605650	0.614412
C58	C	-0.289446	-0.061007	-0.051182
C59	C	0.043887	0.272326	0.282151
C60	C	0.377220	0.605659	0.615484
C61	C	-0.247778	0.000158	-0.091338
C62	C	0.085555	0.333491	0.241996
C63	C	0.418888	0.666825	0.575329
C64	C	-0.278563	0.061328	-0.132556
C65	C	0.054770	0.394662	0.200777
C66	C	0.388104	0.727995	0.534111
C67	C	-0.351008	0.061322	-0.133624
C68	C	-0.017674	0.394655	0.199710
C69	C	0.315659	0.727989	0.533043
C70	C	-0.392668	0.000140	-0.093470
C71	C	-0.059335	0.333473	0.239863
C72	C	0.273999	0.666806	0.573196
C73	C	-0.133026	0.080008	-0.089647
C74	C	0.200307	0.413341	0.243687
C75	C	0.533641	0.746674	0.577020
C76	C	-0.060577	0.080013	-0.088590
C77	C	0.272756	0.413346	0.244743
C78	C	0.606090	0.746680	0.578076
C79	C	-0.060539	-0.079666	-0.088596
C80	C	0.272795	0.253668	0.244737
C81	C	0.606128	0.587001	0.578071
C82	C	-0.132985	-0.079669	-0.089660
C83	C	0.200348	0.253665	0.243674
C84	C	0.533681	0.586998	0.577007
C85	C	-0.169225	0.000171	-0.090181
C86	C	0.164108	0.333504	0.243152
C87	C	0.497442	0.666837	0.576485
C88	C	-0.862217	-0.453717	-0.134416
C89	C	-0.528884	-0.120384	0.198918
C90	C	-0.195550	0.212949	0.532251
C91	C	-0.862225	-0.545907	-0.134411
C92	C	-0.528891	-0.212573	0.198923
C93	C	-0.195558	0.120760	0.532256
C94	C	-0.778237	-0.545946	-0.050378
C95	C	-0.444904	-0.212613	0.282956
C96	C	-0.111570	0.120721	0.616289
C97	C	-0.778234	-0.453758	-0.050379
C98	C	-0.444900	-0.120425	0.282954
C99	C	-0.111567	0.212909	0.616287
C100	C	-0.820222	-0.407646	-0.092402
C101	C	-0.486889	-0.074313	0.240931
C102	C	-0.153556	0.259021	0.574264
C103	C	-0.820233	-0.592024	-0.092396
C104	C	-0.486900	-0.258690	0.240938
C105	C	-0.153567	0.074643	0.574271
C106	C	-0.820241	-0.691980	-0.092390
C107	C	-0.486908	-0.358646	0.240943
C108	C	-0.153575	-0.025313	0.574277
C109	C	-0.820216	-0.307683	-0.092407
C110	C	-0.486882	0.025650	0.240926
C111	C	-0.153549	0.358983	0.574259
C112	C	0.052767	0.000182	-0.086924
C113	C	0.386100	0.333516	0.246409
C114	C	0.719433	0.666849	0.579742
C115	C	-0.024336	0.000181	-0.088059
C116	C	0.308997	0.333515	0.245275
C117	C	0.642331	0.666848	0.578608
C118	C	-0.825694	0.000146	0.034606
C119	C	-0.492360	0.333479	0.367939
C120	C	-0.159027	0.666813	0.701272
C121	C	-0.824565	0.000138	0.111709
C122	C	-0.491231	0.333472	0.445042
C123	C	-0.157898	0.666805	0.778376
N124	N	-0.820245	0.228340	-0.092387
N125	N	-0.486912	0.561673	0.240946
N126	N	-0.153579	0.895006	0.574279
C127	C	-0.814757	0.000186	-0.219409
C128	C	-0.481424	0.333520	0.113924
C129	C	-0.148090	0.666853	0.447257
C130	C	-0.815886	0.000200	-0.296513
C131	C	-0.482553	0.333533	0.036821
C132	C	-0.149219	0.666867	0.370154
C133	C	-0.887333	0.000145	0.156412
C134	C	-0.554000	0.333478	0.489745
C135	C	-0.220667	0.666811	0.823079
C136	C	-0.886273	0.000158	0.228859
C137	C	-0.552939	0.333492	0.562192
C138	C	-0.219606	0.666825	0.895526
C139	C	-0.822440	0.000148	0.256600
C140	C	-0.489106	0.333481	0.589933
C141	C	-0.155773	0.666815	0.923266
C142	C	-0.759663	0.000146	0.211887
C143	C	-0.426329	0.333480	0.545220
C144	C	-0.092996	0.666813	0.878553
C145	C	-0.760725	0.000142	0.139441
C146	C	-0.427392	0.333475	0.472775
C147	C	-0.094058	0.666808	0.806108
C148	C	-0.772255	-0.051161	0.364880
C149	C	-0.438922	0.282172	0.698213
C150	C	-0.105588	0.615505	1.031546
C151	C	-0.771195	-0.051162	0.437324
C152	C	-0.437862	0.282171	0.770657
C153	C	-0.104528	0.615505	1.103991
C154	C	-0.819160	0.000167	0.480045
C155	C	-0.485827	0.333500	0.813378
C156	C	-0.152493	0.666834	1.146712
C157	C	-0.868196	0.051485	0.450314
C158	C	-0.534863	0.384819	0.783648
C159	C	-0.201530	0.718152	1.116981
C160	C	-0.869259	0.051480	0.377869
C161	C	-0.535926	0.384814	0.711202
C162	C	-0.202592	0.718147	1.044536
C163	C	-0.821280	0.000154	0.335154
C164	C	-0.487947	0.333487	0.668487
C165	C	-0.154614	0.666821	1.001820
C166	C	-0.880783	0.000190	0.603304
C167	C	-0.547450	0.333523	0.936637
C168	C	-0.214116	0.666856	1.269971
C169	C	-0.879720	0.000209	0.675752
C170	C	-0.546386	0.333542	1.009085
C171	C	-0.213053	0.666876	1.342418
C172	C	-0.753108	0.000188	0.658778
C173	C	-0.419774	0.333522	0.992111
C174	C	-0.086441	0.666855	1.325445
C175	C	-0.754173	0.000178	0.586332
C176	C	-0.420839	0.333511	0.919665
C177	C	-0.087506	0.666845	1.252998
C178	C	-0.818012	0.000174	0.558599
C179	C	-0.484679	0.333508	0.891932
C180	C	-0.151346	0.666841	1.225266
H181	H	-0.609417	0.144976	-0.096647
H182	H	-0.276084	0.478309	0.236687
H183	H	0.057250	0.811642	0.570020
F184	F	-0.171511	-0.164641	-0.090232
F185	F	0.161823	0.168692	0.243101
F186	F	0.495156	0.502025	0.576434
H187	H	-0.477991	0.144986	-0.094721
H188	H	-0.144657	0.478319	0.238613
H189	H	0.188676	0.811653	0.571946
F190	F	-0.906909	-0.404644	-0.179136
F191	F	-0.573576	-0.071311	0.154197
F192	F	-0.240243	0.262022	0.487530
H193	H	-0.031106	0.145027	-0.088154
H194	H	0.302227	0.478360	0.245180
H195	H	0.635561	0.811694	0.578513
F196	F	-0.406229	-0.126123	-0.009514
F197	F	-0.072896	0.207210	0.323819
F198	F	0.260438	0.540544	0.657153
H199	H	-0.939316	0.000145	0.133837
H200	H	-0.605983	0.333478	0.467171
H201	H	-0.272650	0.666812	0.800504
H202	H	-0.477911	-0.144703	-0.094741
H203	H	-0.144578	0.188631	0.238592
H204	H	0.188755	0.521964	0.571926
H205	H	-0.744051	-0.583501	-0.016165
H206	H	-0.410717	-0.250168	0.317169
H207	H	-0.077384	0.083165	0.650502
H208	H	-0.896422	-0.583414	-0.168621
H209	H	-0.563089	-0.250081	0.164712
H210	H	-0.229755	0.083253	0.498045
H211	H	-0.744036	-0.416246	-0.016163
H212	H	-0.410703	-0.082912	0.317170
H213	H	-0.077369	0.250421	0.650503
F214	F	-0.719009	-0.105782	0.468959
F215	F	-0.385676	0.227551	0.802292
F216	F	-0.052343	0.560884	1.135626
F217	F	-0.953082	0.000167	0.276444
F218	F	-0.619749	0.333500	0.609777
F219	F	-0.286416	0.666833	0.943111
H220	H	-0.031028	-0.144666	-0.088166
H221	H	0.302306	0.188668	0.245167
H222	H	0.635639	0.522001	0.578500
F223	F	-0.948725	0.000182	0.573786
F224	F	-0.615392	0.333515	0.907120
F225	F	-0.282059	0.666849	1.240453
F226	F	-0.921442	0.106099	0.346229
F227	F	-0.588109	0.439433	0.679563
F228	F	-0.254776	0.772766	1.012896
F229	F	-0.383768	0.126419	-0.177492
F230	F	-0.050435	0.459753	0.155841
F231	F	0.282898	0.793086	0.489175
H232	H	-0.264388	-0.110812	-0.017617
H233	H	0.068946	0.222522	0.315717
H234	H	0.402279	0.555855	0.649050
F235	F	-0.618397	-0.164685	-0.096818
F236	F	-0.285063	0.168648	0.236516
F237	F	0.048270	0.501981	0.569849
F238	F	-0.919248	0.106119	0.495775
F239	F	-0.585914	0.439452	0.829109
F240	F	-0.252581	0.772786	1.162442
F241	F	-0.946531	0.000222	0.723329
F242	F	-0.613197	0.333555	1.056662
F243	F	-0.279864	0.666888	1.389996
H244	H	-0.701133	0.000184	0.681363
H245	H	-0.367800	0.333517	1.014697
H246	H	-0.034467	0.666851	1.348030
F247	F	-0.687365	0.000167	0.538753
F248	F	-0.354031	0.333501	0.872086
F249	F	-0.020698	0.666834	1.205420
H250	H	-0.733194	-0.092965	0.330101
H251	H	-0.399861	0.240369	0.663434
H252	H	-0.066528	0.573702	0.996768
F253	F	-0.691727	0.000141	0.241411
F254	F	-0.358394	0.333474	0.574745
F255	F	-0.025060	0.666808	0.908078
H256	H	-0.709609	0.000136	0.103043
H257	H	-0.376276	0.333469	0.436377
H258	H	-0.042943	0.666803	0.769710
H259	H	-0.162533	0.145018	-0.090079
H260	H	0.170800	0.478351	0.243254
H261	H	0.504134	0.811684	0.576587
F262	F	-0.234222	0.126428	-0.175298
F263	F	0.099111	0.459761	0.158035
F264	F	0.432445	0.793094	0.491369
