data_functionalizedCrystal
_audit_creation_method	'MofGen! by Chris Wilmer'
_symmetry_space_group_name_H-M	'P1'
_symmetry_Int_Tables_number	1
_symmetry_cell_setting	triclinic
loop_
_symmetry_equiv_pos_as_xyz
  x,y,z
_cell_length_a	19.121102
_cell_length_b	29.839131
_cell_length_c	19.120904
_cell_angle_alpha	87.590850
_cell_angle_beta	89.911827
_cell_angle_gamma	87.595578
loop_
_atom_site_label
_atom_site_type_symbol
_atom_site_fract_x
_atom_site_fract_y
_atom_site_fract_z
Zn1	Zn	1.054749	-0.219753	0.442036
Zn2	Zn	1.554749	0.280247	0.942036
Zn3	Zn	1.059636	-0.291816	0.324791
Zn4	Zn	1.559636	0.208184	0.824791
Zn5	Zn	0.942520	-0.213364	0.319821
Zn6	Zn	1.442520	0.286636	0.819821
Zn7	Zn	0.937448	-0.291514	0.436994
Zn8	Zn	1.437448	0.208486	0.936994
O9	O	0.998588	-0.254112	0.380911
O10	O	1.498588	0.245888	0.880911
O11	O	1.153501	-0.232113	0.430674
O12	O	1.653501	0.267887	0.930674
O13	O	1.048269	-0.278861	0.226027
O14	O	1.548269	0.221139	0.726027
O15	O	0.957485	-0.151347	0.336063
O16	O	1.457485	0.348653	0.836063
O17	O	1.157092	-0.285057	0.344535
O18	O	1.657092	0.214943	0.844535
O19	O	1.039939	-0.156042	0.425855
O20	O	1.539939	0.343958	0.925855
O21	O	0.962224	-0.221223	0.222376
O22	O	1.462224	0.278777	0.722376
O23	O	0.843743	-0.220930	0.331174
O24	O	1.343743	0.279070	0.831174
O25	O	0.948840	-0.284542	0.535767
O26	O	1.448840	0.215458	1.035767
O27	O	0.840017	-0.278346	0.417260
O28	O	1.340017	0.221654	0.917260
O29	O	1.035020	-0.231820	0.539472
O30	O	1.535020	0.268180	1.039472
O31	O	1.043351	-0.354640	0.339645
O32	O	1.543351	0.145360	0.839645
O33	O	0.953579	-0.354418	0.422080
O34	O	1.453579	0.145582	0.922080
C35	C	0.816443	-0.248912	0.373131
C36	C	1.316443	0.251088	0.873131
C37	C	0.738519	-0.246699	0.369819
C38	C	1.238519	0.253301	0.869819
C39	C	0.699992	-0.275595	0.413013
C40	C	1.199992	0.224405	0.913013
C41	C	0.626774	-0.273510	0.409905
C42	C	1.126774	0.226490	0.909905
C43	C	0.592086	-0.242531	0.363599
C44	C	1.092086	0.257469	0.863599
C45	C	0.630619	-0.213632	0.320403
C46	C	1.130619	0.286368	0.820403
C47	C	0.703835	-0.215716	0.323515
C48	C	1.203835	0.284284	0.823515
C49	C	0.371117	-0.234741	0.351966
C50	C	0.871117	0.265259	0.851966
C51	C	0.297896	-0.232660	0.348855
C52	C	0.797896	0.267340	0.848855
C53	C	0.294056	-0.292537	0.438359
C54	C	0.794056	0.207463	0.938359
C55	C	0.367274	-0.294620	0.441464
C56	C	0.867274	0.205380	0.941464
C57	C	0.405800	-0.265720	0.398271
C58	C	0.905800	0.234280	0.898271
C59	C	0.517246	-0.240400	0.360419
C60	C	1.017246	0.259600	0.860419
C61	C	0.480639	-0.267849	0.401455
C62	C	0.980639	0.232151	0.901455
C63	C	0.998463	-0.370830	0.380870
C64	C	1.498463	0.129170	0.880870
C65	C	0.998473	-0.420765	0.380879
C66	C	1.498473	0.079235	0.880879
C67	C	1.045411	-0.730519	0.338056
C68	C	1.545411	-0.230519	0.838056
C69	C	1.045496	-0.918195	0.338087
C70	C	1.545496	-0.418195	0.838087
O71	O	1.085306	-0.942551	0.301646
O72	O	1.585306	-0.442551	0.801646
N73	N	0.998731	-0.941559	0.380970
N74	N	1.498731	-0.441559	0.880970
C75	C	0.951945	-0.918001	0.423851
C76	C	1.451945	-0.418001	0.923851
O77	O	0.912175	-0.942181	0.460332
O78	O	1.412175	-0.442181	0.960332
C79	C	0.951864	-0.730326	0.423824
C80	C	1.451864	-0.230326	0.923824
C81	C	0.998627	-0.706964	0.380933
C82	C	1.498627	-0.206964	0.880933
C83	C	1.092171	-0.707157	0.295169
C84	C	1.592171	-0.207157	0.795169
C85	C	1.092146	-0.660241	0.295159
C86	C	1.592146	-0.160241	0.795159
C87	C	1.045362	-0.636686	0.338036
C88	C	1.545362	-0.136686	0.838036
C89	C	0.998602	-0.660048	0.380923
C90	C	1.498602	-0.160048	0.880923
C91	C	0.905081	-0.706770	0.466708
C92	C	1.405081	-0.206770	0.966708
C93	C	0.905066	-0.659848	0.466699
C94	C	1.405066	-0.159848	0.966699
C95	C	0.951829	-0.636486	0.423808
C96	C	1.451829	-0.136486	0.923808
C97	C	0.951794	-0.589577	0.423789
C98	C	1.451794	-0.089577	0.923789
N99	N	0.998559	-0.566213	0.380906
N100	N	1.498559	-0.066213	0.880906
C101	C	1.045343	-0.589768	0.338030
C102	C	1.545343	-0.089768	0.838030
C103	C	0.951990	-1.016534	0.423862
C104	C	1.451990	-0.516534	0.923862
C105	C	0.952010	-1.063452	0.423868
C106	C	1.452010	-0.563452	0.923868
C107	C	1.045562	-1.063642	0.338104
C108	C	1.545562	-0.563642	0.838104
C109	C	1.045539	-1.016723	0.338095
C110	C	1.545539	-0.516723	0.838095
C111	C	0.998755	-0.993169	0.380979
C112	C	1.498755	-0.493169	0.880979
C113	C	1.045288	-0.491240	0.338011
C114	C	1.545288	0.008760	0.838011
C115	C	1.045257	-0.444319	0.338003
C116	C	1.545257	0.055681	0.838003
C117	C	0.951708	-0.444133	0.423769
C118	C	1.451708	0.055867	0.923769
C119	C	0.951735	-0.491049	0.423775
C120	C	1.451735	0.008951	0.923775
C121	C	0.998531	-0.514602	0.380894
C122	C	1.498531	-0.014602	0.880894
O123	O	0.912011	-0.565193	0.460217
O124	O	1.412011	-0.065193	0.960217
O125	O	1.085117	-0.565581	0.301566
O126	O	1.585117	-0.065581	0.801566
C127	C	1.045435	-0.777435	0.338066
C128	C	1.545435	-0.277435	0.838066
C129	C	0.998676	-0.800797	0.380953
C130	C	1.498676	-0.300797	0.880953
C131	C	0.951891	-0.777243	0.423830
C132	C	1.451891	-0.277243	0.923830
C133	C	0.998695	-0.847716	0.380959
C134	C	1.498695	-0.347716	0.880959
C135	C	1.045479	-0.871270	0.338082
C136	C	1.545479	-0.371270	0.838082
C137	C	1.092244	-0.847906	0.295199
C138	C	1.592244	-0.347906	0.795199
C139	C	1.092220	-0.800990	0.295189
C140	C	1.592220	-0.300990	0.795189
C141	C	0.905126	-0.800607	0.466712
C142	C	1.405126	-0.300607	0.966712
C143	C	0.905154	-0.847523	0.466718
C144	C	1.405154	-0.347523	0.966718
C145	C	0.951938	-0.871078	0.423842
C146	C	1.451938	-0.371078	0.923842
C147	C	1.181445	-0.259331	0.388721
C148	C	1.681445	0.240669	0.888721
C149	C	1.259368	-0.261556	0.392050
C150	C	1.759368	0.238444	0.892050
C151	C	0.990819	-0.258860	0.563768
C152	C	1.490819	0.241140	1.063768
C153	C	0.987508	-0.260884	0.641691
C154	C	1.487508	0.239116	1.141691
C155	C	0.998732	-0.136939	0.380967
C156	C	1.498732	0.363061	0.880967
C157	C	0.998794	-0.087007	0.380991
C158	C	1.498794	0.412993	0.880991
C159	C	1.006368	-0.249350	0.198766
C160	C	1.506368	0.250650	0.698766
C161	C	1.009815	-0.247204	0.120849
C162	C	1.509815	0.252796	0.620849
C163	C	1.030820	-0.234387	0.680230
C164	C	1.530820	0.265613	1.180230
C165	C	1.027700	-0.236286	0.753446
C166	C	1.527700	0.263714	1.253446
C167	C	0.981272	-0.264686	0.788123
C168	C	1.481272	0.235314	1.288123
C169	C	0.937956	-0.291184	0.749580
C170	C	1.437956	0.208816	1.249580
C171	C	0.941072	-0.289282	0.676364
C172	C	1.441072	0.210718	1.176364
C173	C	0.969615	-0.271800	1.009090
C174	C	1.469615	0.228200	1.509090
C175	C	0.966503	-0.273701	1.082311
C176	C	1.466503	0.226299	1.582311
C177	C	1.056247	-0.218802	1.086172
C178	C	1.556247	0.281198	1.586172
C179	C	1.059362	-0.216905	1.012955
C180	C	1.559362	0.283095	1.512955
C181	C	1.016043	-0.243401	0.974418
C182	C	1.516043	0.256599	1.474418
C183	C	0.978084	-0.266629	0.862963
C184	C	1.478084	0.233371	1.362963
C185	C	1.019228	-0.241455	0.899580
C186	C	1.519228	0.258545	1.399580
H187	H	0.735203	-0.192183	0.288345
H188	H	1.235203	0.307817	0.788345
Br189	Br	0.423393	-0.195516	0.293350
Br190	Br	0.923393	0.304484	0.793350
H191	H	1.091514	-0.197230	1.117557
H192	H	1.591514	0.302770	1.617557
H193	H	1.083618	-0.997704	0.303170
H194	H	1.583618	-0.497704	0.803170
H195	H	1.083395	-0.510411	0.303095
H196	H	1.583395	-0.010411	0.803095
H197	H	0.602369	-0.188407	0.282702
H198	H	1.102369	0.311593	0.782702
Br199	Br	1.155624	-0.628543	0.236957
Br200	Br	1.655624	-0.128543	0.736957
Br201	Br	0.527717	-0.309889	0.464299
Br202	Br	1.027717	0.190111	0.964299
H203	H	0.928693	-0.296828	1.110543
H204	H	1.428693	0.203172	1.610543
Br205	Br	1.155674	-0.739115	0.236973
Br206	Br	1.655674	-0.239115	0.736973
Br207	Br	0.910823	-0.307759	0.956798
Br208	Br	1.410823	0.192241	1.456798
H209	H	1.083656	-1.082829	0.303192
H210	H	1.583656	-0.582829	0.803192
Br211	Br	0.888220	-0.412157	0.481959
Br212	Br	1.388220	0.087843	0.981959
H213	H	0.900150	-0.314306	0.777819
H214	H	1.400150	0.185694	1.277819
Br215	Br	0.747062	-0.317643	0.475856
Br216	Br	1.247062	0.182357	0.975856
Br217	Br	0.414346	-0.336666	0.504307
Br218	Br	0.914346	0.163334	1.004307
H219	H	0.905796	-0.310854	0.644987
H220	H	1.405796	0.189146	1.144987
Br221	Br	1.082227	-0.202908	0.852517
Br222	Br	1.582227	0.297092	1.352517
Br223	Br	0.241767	-0.331758	0.496973
Br224	Br	0.741767	0.168242	0.996973
Br225	Br	1.122376	-0.178362	0.965899
Br226	Br	1.622376	0.321638	1.465899
H227	H	1.068629	-0.211262	0.652001
H228	H	1.568629	0.288738	1.152001
H229	H	0.913892	-0.997359	0.458784
H230	H	1.413892	-0.497359	0.958784
H231	H	0.488994	-0.215177	0.322714
H232	H	0.988994	0.284823	0.822714
H233	H	0.595408	-0.297040	0.445078
H234	H	1.095408	0.202960	0.945078
Br235	Br	1.155734	-0.879882	0.237007
Br236	Br	1.655734	-0.379882	0.737007
H237	H	0.269654	-0.207429	0.311151
H238	H	0.769654	0.292571	0.811151
H239	H	1.083337	-0.425299	0.303073
H240	H	1.583337	0.074701	0.803073
Br241	Br	0.888533	-1.095151	0.482068
Br242	Br	1.388533	-0.595151	0.982068
Br243	Br	0.841620	-0.738463	0.524929
Br244	Br	1.341620	-0.238463	1.024929
H245	H	0.866970	-0.640673	0.501623
H246	H	1.366970	-0.140673	1.001623
H247	H	0.913659	-0.510072	0.458702
H248	H	1.413659	-0.010072	0.958702
H249	H	1.062971	-0.214710	0.784821
H250	H	1.562971	0.285290	1.284821
Br251	Br	0.841681	-0.879223	0.524931
Br252	Br	1.341681	-0.379223	1.024931
H253	H	1.130299	-0.781972	0.260264
H254	H	1.630299	-0.281972	0.760264
H255	H	0.867030	-0.781432	0.501629
H256	H	1.367030	-0.281432	1.001629
H257	H	0.940285	-0.289754	0.891205
H258	H	1.440285	0.210246	1.391205
