data_functionalizedCrystal
_audit_creation_method	'MofGen! by Chris Wilmer'
_symmetry_space_group_name_H-M	'P1'
_symmetry_Int_Tables_number	1
_symmetry_cell_setting	triclinic
loop_
_symmetry_equiv_pos_as_xyz
  x,y,z
_cell_length_a	6.817900
_cell_length_b	7.190339
_cell_length_c	19.453114
_cell_angle_alpha	88.401381
_cell_angle_beta	78.290712
_cell_angle_gamma	119.388276
loop_
_atom_site_label
_atom_site_type_symbol
_atom_site_fract_x
_atom_site_fract_y
_atom_site_fract_z
V1	V	4.094688	0.297310	-0.218499
V2	V	4.594688	0.797310	0.281501
O3	O	3.991195	-0.012002	-0.214850
O4	O	4.491195	0.487998	0.285150
O5	O	4.132023	0.587319	-0.216513
O6	O	4.632023	1.087319	0.283487
O7	O	4.036547	0.293740	-0.314018
O8	O	4.536547	0.793740	0.185982
O9	O	4.087332	0.283609	-0.116671
O10	O	4.587332	0.783609	0.383329
V11	V	4.568469	0.260195	-0.206379
V12	V	5.068469	0.760195	0.293621
O13	O	4.377317	0.378727	-0.245084
O14	O	4.877317	0.878727	0.254916
O15	O	4.736037	0.178778	-0.179793
O16	O	5.236037	0.678778	0.320207
O17	O	4.307927	-0.029814	-0.208365
O18	O	4.807927	0.470186	0.291635
O19	O	4.789359	0.569507	-0.210027
O20	O	5.289359	1.069507	0.289973
O21	O	4.693222	0.273895	-0.308207
O22	O	5.193222	0.773895	0.191793
O23	O	4.403403	0.263765	-0.110860
O24	O	4.903403	0.763765	0.389140
C25	C	3.876406	0.283493	-0.337315
C26	C	4.376406	0.783493	0.162685
C27	C	3.910720	0.282493	-0.415399
C28	C	4.410720	0.782493	0.084601
C29	C	3.998213	0.657988	-0.212943
C30	C	4.498213	1.157988	0.287057
C31	C	4.112062	0.899537	-0.211939
C32	C	4.612062	1.399537	0.288061
C33	C	4.111788	0.292728	-0.455639
C34	C	4.611788	0.792728	0.044361
C35	C	4.144031	0.291789	-0.529008
C36	C	4.644031	0.791789	-0.029008
C37	C	3.975215	0.280656	-0.562135
C38	C	4.475215	0.780656	-0.062135
C39	C	3.774113	0.270407	-0.521885
C40	C	4.274113	0.770407	-0.021885
C41	C	3.741865	0.271325	-0.448518
C42	C	4.241865	0.771325	0.051482
N43	N	3.948770	0.393290	-0.680735
N44	N	4.448770	0.893290	-0.180735
N45	N	3.979419	0.392423	-0.750432
N46	N	4.479419	0.892423	-0.250432
C47	C	4.072362	0.277884	-0.783188
C48	C	4.572362	0.777884	-0.283188
N49	N	4.133543	0.164273	-0.743617
N50	N	4.633543	0.664273	-0.243617
N51	N	4.102902	0.165150	-0.673914
N52	N	4.602902	0.665150	-0.173914
C53	C	4.010161	0.279658	-0.641690
C54	C	4.510161	0.779658	-0.141690
C55	C	4.308402	0.287098	-0.902983
C56	C	4.808402	0.787098	-0.402983
C57	C	4.340631	0.286144	-0.976352
C58	C	4.840631	0.786144	-0.476352
C59	C	3.970718	0.264784	-0.969229
C60	C	4.470718	0.764784	-0.469229
C61	C	3.938484	0.265716	-0.895860
C62	C	4.438484	0.765716	-0.395860
C63	C	4.107339	0.276884	-0.862742
C64	C	4.607339	0.776884	-0.362742
C65	C	4.226889	0.274018	-0.087559
C66	C	4.726889	0.774018	0.412441
C67	C	4.171810	0.275008	-0.009474
C68	C	4.671810	0.775008	0.490526
H69	H	4.249282	0.301813	-0.428679
H70	H	4.749282	0.801813	0.071321
Br71	Br	4.416921	0.305660	-0.583630
Br72	Br	4.916921	0.805660	-0.083630
Br73	Br	3.741576	0.249623	-1.014177
Br74	Br	4.241576	0.749623	-0.514177
Br75	Br	3.665605	0.251855	-0.841247
Br76	Br	4.165605	0.751855	-0.341247
H77	H	3.636661	0.261336	-0.548862
H78	H	4.136661	0.761336	-0.048862
Br79	Br	4.537546	0.302240	-0.858032
Br80	Br	5.037546	0.802240	-0.358032
H81	H	3.578121	0.262974	-0.415753
H82	H	4.078121	0.762974	0.084247
Br83	Br	4.613528	0.300026	-1.030965
Br84	Br	5.113528	0.800026	-0.530965
