data_functionalizedCrystal
_audit_creation_method	'MofGen! by Chris Wilmer'
_symmetry_space_group_name_H-M	'P1'
_symmetry_Int_Tables_number	1
_symmetry_cell_setting	triclinic
loop_
_symmetry_equiv_pos_as_xyz
  x,y,z
_cell_length_a	21.395364
_cell_length_b	12.759394
_cell_length_c	21.395356
_cell_angle_alpha	89.976253
_cell_angle_beta	89.976411
_cell_angle_gamma	90.029788
loop_
_atom_site_label
_atom_site_type_symbol
_atom_site_fract_x
_atom_site_fract_y
_atom_site_fract_z
Zn1	Zn	0.957922	-0.417874	-0.354279
Zn2	Zn	0.957856	-0.593567	-0.249508
Zn3	Zn	0.853139	-0.417948	-0.249515
Zn4	Zn	0.853136	-0.593557	-0.354249
O5	O	0.905513	-0.505737	-0.301888
O6	O	1.045591	-0.441153	-0.340390
O7	O	0.943938	-0.570305	-0.161831
O8	O	0.867068	-0.270917	-0.263428
O9	O	1.045542	-0.570234	-0.263416
O10	O	0.944052	-0.270863	-0.340397
O11	O	0.867004	-0.441279	-0.161837
O12	O	0.765461	-0.441270	-0.263399
O13	O	0.867062	-0.570218	-0.441930
O14	O	0.765458	-0.570290	-0.340346
O15	O	0.944049	-0.441144	-0.441953
O16	O	0.943935	-0.740587	-0.263387
O17	O	0.866997	-0.740580	-0.340339
C18	C	0.742726	-0.505788	-0.301870
C19	C	0.673084	-0.505835	-0.301877
C20	C	0.640419	-0.438733	-0.342020
C21	C	0.574984	-0.438705	-0.342022
C22	C	0.542216	-0.505798	-0.301889
C23	C	0.574889	-0.572905	-0.261739
C24	C	0.640323	-0.572923	-0.261733
C25	C	0.438507	-0.600414	-0.296855
C26	C	0.373074	-0.600397	-0.296865
C27	C	0.340395	-0.505740	-0.301903
C28	C	0.373157	-0.411097	-0.306943
C29	C	0.438591	-0.411115	-0.306938
C30	C	0.471264	-0.505785	-0.301890
C31	C	0.236777	-0.438602	-0.342050
C32	C	0.171341	-0.438572	-0.342048
C33	C	0.171248	-0.572781	-0.261768
C34	C	0.236683	-0.572802	-0.261766
C35	C	0.269444	-0.505713	-0.301911
C36	C	0.905476	-0.778704	-0.301873
C37	C	0.905517	-0.895481	-0.301887
C38	C	0.985692	-0.895435	-0.221817
C39	C	1.025796	-0.950272	-0.181789
C40	C	1.025832	-1.059994	-0.181806
C41	C	0.985762	-1.114880	-0.221857
C42	C	0.945658	-1.060042	-0.261884
C43	C	0.945625	-0.950318	-0.261862
C44	C	0.865487	-1.060089	-0.341957
C45	C	0.865447	-0.950367	-0.341937
C46	C	0.825417	-1.114975	-0.382007
C47	C	0.785309	-1.060137	-0.422033
C48	C	0.785274	-0.950409	-0.422013
C49	C	0.825343	-0.895529	-0.381965
C50	C	1.068936	-0.505686	-0.301906
C51	C	1.138578	-0.505664	-0.301913
C52	C	0.905568	-0.231703	-0.301917
C53	C	0.905591	-0.114926	-0.301929
C54	C	0.905562	-0.505671	-0.465311
C55	C	0.905583	-0.505644	-0.534952
C56	C	0.865534	-0.438452	-0.567658
C57	C	0.865532	-0.438433	-0.633094
C58	C	0.905590	-0.505594	-0.665821
C59	C	0.945642	-0.572798	-0.633107
C60	C	0.945639	-0.572823	-0.567673
C61	C	0.962044	-0.513829	-0.769507
C62	C	0.962048	-0.513797	-0.834940
C63	C	0.905601	-0.505523	-0.867642
C64	C	0.849147	-0.497259	-0.834902
C65	C	0.849143	-0.497284	-0.769468
C66	C	0.905598	-0.505575	-0.736773
C67	C	0.865546	-0.438307	-0.971300
C68	C	0.865543	-0.438294	-1.036737
C69	C	0.945658	-0.572654	-1.036749
C70	C	0.945656	-0.572672	-0.971313
C71	C	0.905601	-0.505493	-0.938593
C72	C	0.905500	-0.505726	-0.139100
C73	C	0.905600	-0.505457	-0.069459
H74	H	0.263279	-0.627448	-0.229080
C75	C	0.741236	-1.120519	-0.466082
N76	N	0.708038	-1.166003	-0.499259
H77	H	0.978255	-0.627538	-0.541044
C78	C	0.538843	-0.646708	-0.217592
N79	N	0.511694	-0.702297	-0.184338
H80	H	0.985801	-1.204221	-0.221872
H81	H	0.144746	-0.383923	-0.374736
H82	H	0.978276	-0.627336	-1.063394
H83	H	0.803177	-0.490558	-0.742813
H84	H	1.058422	-0.905574	-0.149181
H85	H	0.985658	-0.806093	-0.221791
H86	H	0.667089	-0.384103	-0.374708
H87	H	0.803182	-0.490515	-0.861526
C88	C	0.539045	-0.364890	-0.386188
N89	N	0.511977	-0.309295	-0.419455
C90	C	0.272817	-0.364794	-0.386204
N91	N	0.299960	-0.309200	-0.419460
H92	H	0.752619	-0.905766	-0.454611
H93	H	0.465263	-0.334054	-0.311040
C94	C	0.825458	-1.235672	-0.382023
N95	N	0.825485	-1.326582	-0.382034
C96	C	0.821485	-0.364371	-1.072713
N97	N	0.788301	-0.308687	-1.099811
C98	C	1.069948	-1.120317	-0.137774
N99	N	1.103175	-1.165752	-0.104608
H100	H	0.825314	-0.806188	-0.381942
C101	C	0.337043	-0.704505	-0.291314
N102	N	0.309905	-0.782921	-0.287128
H103	H	0.978270	-0.627384	-0.944684
H104	H	0.832930	-0.383606	-0.944658
C105	C	0.337215	-0.306964	-0.312479
N106	N	0.310141	-0.228534	-0.316648
H107	H	0.832915	-0.383753	-0.541021
H108	H	0.465109	-0.677500	-0.292752
H109	H	0.144569	-0.627410	-0.229090
H110	H	0.832920	-0.383712	-0.659728
H111	H	0.666919	-0.627568	-0.229043
C112	C	1.024148	-0.522885	-0.870948
N113	N	1.070924	-0.529733	-0.898067
H114	H	1.008014	-0.520558	-0.742887
C115	C	0.989621	-0.646818	-0.669108
N116	N	1.022715	-0.702627	-0.696224
