data_functionalizedCrystal
_audit_creation_method	'MofGen! by Chris Wilmer'
_symmetry_space_group_name_H-M	'P1'
_symmetry_Int_Tables_number	1
_symmetry_cell_setting	triclinic
loop_
_symmetry_equiv_pos_as_xyz
  x,y,z
_cell_length_a	13.032831
_cell_length_b	13.032721
_cell_length_c	18.215399
_cell_angle_alpha	97.154738
_cell_angle_beta	82.809197
_cell_angle_gamma	90.902885
loop_
_atom_site_label
_atom_site_type_symbol
_atom_site_fract_x
_atom_site_fract_y
_atom_site_fract_z
Zn1	Zn	1.520252	-0.609421	-0.606330
Zn2	Zn	1.498292	-0.781391	-0.496682
Zn3	Zn	1.348268	-0.587579	-0.465971
Zn4	Zn	1.326400	-0.759468	-0.602401
O5	O	1.423303	-0.684465	-0.542846
O6	O	1.661252	-0.650550	-0.606282
O7	O	1.478353	-0.755716	-0.389623
O8	O	1.389424	-0.446570	-0.473381
O9	O	1.645119	-0.776895	-0.525724
O10	O	1.515780	-0.462618	-0.576503
O11	O	1.368130	-0.613322	-0.367060
O12	O	1.201454	-0.592064	-0.469571
O13	O	1.352153	-0.739530	-0.705907
O14	O	1.185387	-0.718350	-0.569806
O15	O	1.494576	-0.629292	-0.708794
O16	O	1.457148	-0.922390	-0.521914
O17	O	1.330860	-0.906283	-0.599586
C18	C	1.156105	-0.650459	-0.515930
C19	C	1.041794	-0.635936	-0.504435
C20	C	0.982896	-0.692045	-0.548845
C21	C	0.864749	-0.677036	-0.536966
C22	C	1.389276	-0.951653	-0.563675
C23	C	1.374813	-1.065969	-0.572620
C24	C	1.430906	-1.124877	-0.538216
C25	C	1.415959	-1.243029	-0.547460
C26	C	1.691544	-0.718605	-0.569867
C27	C	1.805852	-0.733153	-0.581382
C28	C	1.423375	-0.684402	-0.734800
C29	C	1.423405	-0.684375	-0.816599
C30	C	1.457491	-0.416237	-0.521955
C31	C	1.472060	-0.301934	-0.513052
C32	C	1.497596	-0.626915	-1.006295
C33	C	1.497612	-0.626887	-1.083153
C34	C	1.349307	-0.741685	-1.080136
C35	C	1.349288	-0.741707	-1.003279
C36	C	1.423438	-0.684324	-0.966361
C37	C	1.423473	-0.684274	-1.120076
C38	C	1.423490	-0.684244	-1.203408
C39	C	1.423420	-0.684353	-0.883023
C40	C	1.423300	-0.684461	-0.351639
C41	C	1.423506	-0.684223	-0.269838
H42	H	1.019939	-0.751190	-0.595664
N43	N	1.550342	-1.252891	-0.464973
H44	H	1.514171	-1.203069	-0.423179
H45	H	1.585699	-1.308501	-0.443339
N46	N	1.296546	-1.115017	-0.620706
H47	H	1.296964	-1.192469	-0.620495
H48	H	1.225448	-1.087026	-0.600362
H49	H	1.004751	-0.576782	-0.457622
H50	H	1.557971	-0.580188	-0.976238
H51	H	1.288892	-0.788455	-0.970763
N52	N	1.577586	-0.564954	-1.126223
H53	H	1.624550	-0.528605	-1.091170
H54	H	1.619856	-0.612851	-1.166173
H55	H	0.827711	-0.617879	-0.490149
H56	H	1.356871	-1.280063	-0.583764
N57	N	1.509186	-1.075830	-0.490140
H58	H	1.508770	-0.998379	-0.490354
H59	H	1.490866	-1.092583	-0.437422
H60	H	0.842890	-0.792300	-0.628205
N61	N	1.269321	-0.803556	-1.119952
H62	H	1.280582	-0.794828	-1.174700
H63	H	1.275948	-0.879046	-1.113854
