data_functionalizedCrystal
_audit_creation_method	'MofGen! by Chris Wilmer'
_symmetry_space_group_name_H-M	'P1'
_symmetry_Int_Tables_number	1
_symmetry_cell_setting	triclinic
loop_
_symmetry_equiv_pos_as_xyz
  x,y,z
_cell_length_a	6.817900
_cell_length_b	12.530034
_cell_length_c	19.511464
_cell_angle_alpha	117.082271
_cell_angle_beta	88.420781
_cell_angle_gamma	89.998792
loop_
_atom_site_label
_atom_site_type_symbol
_atom_site_fract_x
_atom_site_fract_y
_atom_site_fract_z
V1	V	-3.806065	-0.385036	-0.104194
O2	O	-3.873477	-0.323016	0.006259
O3	O	-3.686288	-0.435002	-0.207803
O4	O	-3.694626	-0.528967	-0.102042
O5	O	-3.865082	-0.228401	-0.100234
V6	V	-4.307110	-0.359912	-0.091047
O7	O	-4.028887	-0.440149	-0.133032
O8	O	-4.534485	-0.304799	-0.062209
O9	O	-4.203680	-0.309946	0.012561
O10	O	-4.357095	-0.421932	-0.201500
O11	O	-4.365490	-0.516547	-0.095007
O12	O	-4.195343	-0.215981	-0.093199
C13	C	-3.515965	-0.442500	-0.233078
C14	C	-3.498900	-0.484313	-0.317776
C15	C	-3.667950	-0.511225	-0.361416
C16	C	-3.651942	-0.550530	-0.441001
C17	C	-3.466883	-0.562913	-0.476943
C18	C	-3.297820	-0.536001	-0.433298
C19	C	-3.313829	-0.496705	-0.353715
C20	C	-4.026697	-0.182583	-0.097074
C21	C	-4.016045	-0.062355	-0.098167
C22	C	-3.526615	-0.562358	-0.098165
C23	C	-3.516119	-0.682585	-0.097070
V24	V	-3.735635	0.114966	-0.104199
O25	O	-3.677251	0.271601	-0.100238
O26	O	-3.847405	-0.028965	-0.102048
O27	O	-3.839057	0.065001	-0.207808
O28	O	-3.685657	0.176985	0.006254
V29	V	-3.236666	0.140090	-0.091047
O30	O	-3.508259	0.059853	-0.133034
O31	O	-3.013845	0.195203	-0.062207
O32	O	-3.348102	0.284021	-0.093200
O33	O	-3.177652	-0.016545	-0.095006
O34	O	-3.169247	0.078071	-0.201499
O35	O	-3.356450	0.190056	0.012561
C36	C	-4.037344	-0.302447	0.037832
C37	C	-4.033644	-0.260642	0.122530
C38	C	-4.005391	0.057501	-0.233081
C39	C	-4.009087	0.015696	-0.317778
C40	C	-3.526772	0.197552	0.037834
C41	C	-3.543836	0.239360	0.122531
C42	C	-4.209560	-0.233730	0.166182
C43	C	-4.206070	-0.194432	0.245766
C44	C	-4.026662	-0.182054	0.281695
C45	C	-3.850732	-0.208965	0.238037
C46	C	-3.854224	-0.248255	0.158455
C47	C	-3.836647	-0.050514	0.558980
C48	C	-3.833169	-0.011224	0.638567
C49	C	-4.188493	0.003309	0.646290
C50	C	-4.191985	-0.035980	0.566709
C51	C	-4.016055	-0.062882	0.523059
C52	C	-4.019842	-0.105492	0.436765
C53	C	-4.022874	-0.139453	0.367986
C54	C	-3.728916	0.251739	0.158451
C55	C	-3.744978	0.291038	0.238035
C56	C	-3.575957	0.317950	0.281696
C57	C	-3.390862	0.305573	0.245771
C58	C	-3.374803	0.266282	0.166190
H59	H	-3.789621	-0.572434	-0.476527
Cl60	Cl	-3.065188	-0.551567	-0.478494
Cl61	Cl	-3.446791	-0.612312	-0.576992
Cl62	Cl	-3.900618	-0.495679	-0.316250
H63	H	-3.176162	-0.474789	-0.318188
Cl64	Cl	-3.596180	0.367343	0.381742
H65	H	-3.895706	0.301107	0.267273
H66	H	-4.355655	-0.243811	0.136934
H67	H	-4.349319	-0.172526	0.281304
Cl68	Cl	-3.178396	0.339417	0.300671
Cl69	Cl	-4.417535	-0.051543	0.521545
Cl70	Cl	-3.941431	0.217914	0.103580
H71	H	-3.224085	0.256200	0.136949
Cl72	Cl	-3.625188	-0.193388	0.283207
H73	H	-3.710976	-0.270190	0.122912
H74	H	-4.331743	0.025224	0.681841
Cl75	Cl	-3.607610	0.004338	0.683734
Cl76	Cl	-3.615476	-0.084310	0.504118
