data_functionalizedCrystal
_audit_creation_method	'MofGen! by Chris Wilmer'
_symmetry_space_group_name_H-M	'P1'
_symmetry_Int_Tables_number	1
_symmetry_cell_setting	triclinic
loop_
_symmetry_equiv_pos_as_xyz
  x,y,z
_cell_length_a	17.699077
_cell_length_b	17.699083
_cell_length_c	16.776229
_cell_angle_alpha	89.996964
_cell_angle_beta	90.005198
_cell_angle_gamma	83.281795
loop_
_atom_site_label
_atom_site_type_symbol
_atom_site_fract_x
_atom_site_fract_y
_atom_site_fract_z
O1	O	1.004080	0.095688	0.066266
O2	O	1.504080	0.595688	0.566266
O3	O	0.783701	0.108145	0.066269
O4	O	1.283701	0.608145	0.566269
O5	O	0.900117	-0.008273	0.066275
O6	O	1.400117	0.491727	0.566275
O7	O	0.887664	0.212106	0.066260
O8	O	1.387664	0.712106	0.566260
O9	O	0.900104	-0.008273	-0.066301
O10	O	1.400104	0.491727	0.433699
O11	O	0.783688	0.108145	-0.066308
O12	O	1.283688	0.608145	0.433692
O13	O	1.004067	0.095688	-0.066310
O14	O	1.504067	0.595688	0.433690
Zn15	Zn	0.893875	0.101916	-0.087358
Zn16	Zn	1.393875	0.601916	0.412642
Zn17	Zn	0.893893	0.101917	0.087317
Zn18	Zn	1.393893	0.601917	0.587317
O19	O	0.887651	0.212106	-0.066317
O20	O	1.387651	0.712106	0.433683
C21	C	0.755498	0.107700	-0.000019
C22	C	1.255498	0.607700	0.499981
C23	C	0.671479	0.106363	-0.000018
C24	C	1.171479	0.606363	0.499982
C25	C	0.632005	0.105733	-0.072286
C26	C	1.132005	0.605733	0.427714
C27	C	0.553062	0.104464	-0.072287
C28	C	1.053062	0.604464	0.427713
C29	C	0.513595	0.103832	-0.000018
C30	C	1.013595	0.603832	0.499982
C31	C	0.553075	0.104460	0.072256
C32	C	1.053075	0.604460	0.572256
C33	C	0.632017	0.105722	0.072256
C34	C	1.132017	0.605722	0.572256
C35	C	0.234712	0.099366	0.072258
C36	C	0.734712	0.599366	0.572258
C37	C	0.155764	0.098106	0.072252
C38	C	0.655764	0.598106	0.572252
C39	C	0.155757	0.098108	-0.072285
C40	C	0.655757	0.598108	0.427715
C41	C	0.234699	0.099371	-0.072285
C42	C	0.734699	0.599371	0.427715
C43	C	0.274173	0.099995	-0.000011
C44	C	0.774173	0.599995	0.499989
C45	C	0.359771	0.101369	-0.000011
C46	C	0.859771	0.601369	0.499989
C47	C	0.427997	0.102464	-0.000017
C48	C	0.927997	0.602464	0.499983
C49	C	0.899664	-0.036470	-0.000009
C50	C	1.399664	0.463530	0.499991
C51	C	0.898326	-0.120488	0.000002
C52	C	1.398326	0.379512	0.500002
C53	C	1.032271	0.096133	-0.000021
C54	C	1.532271	0.596133	0.499979
C55	C	1.116289	0.097470	-0.000017
C56	C	1.616289	0.597470	0.499983
N57	N	0.893869	0.101916	-0.206570
N58	N	1.393869	0.601916	0.293430
C59	C	0.888104	0.240303	-0.000030
C60	C	1.388104	0.740303	0.499970
C61	C	0.889443	0.324321	-0.000036
C62	C	1.389443	0.824321	0.499964
C63	C	0.821109	0.372943	-0.000036
C64	C	1.321109	0.872943	0.499964
C65	C	0.822371	0.451887	-0.000026
C66	C	1.322371	0.951887	0.499974
C67	C	0.891968	0.482206	-0.000023
C68	C	1.391968	0.982206	0.499977
C69	C	0.960307	0.433577	-0.000022
C70	C	1.460307	0.933577	0.499978
C71	C	0.959044	0.354636	-0.000025
C72	C	1.459044	0.854636	0.499975
C73	C	0.965402	0.751940	-0.000006
C74	C	1.465402	1.251940	0.499994
C75	C	0.966660	0.830888	-0.000005
C76	C	1.466660	1.330888	0.499995
C77	C	0.828730	0.849191	-0.000007
C78	C	1.328730	1.349191	0.499993
C79	C	0.827467	0.770250	-0.000010
C80	C	1.327467	1.270250	0.499990
C81	C	0.895805	0.721628	-0.000005
C82	C	1.395805	1.221628	0.499995
C83	C	0.894436	0.636029	-0.000013
C84	C	1.394436	1.136029	0.499987
C85	C	0.893338	0.567804	-0.000020
C86	C	1.393338	1.067804	0.499980
C87	C	0.939684	0.147763	-0.248287
C88	C	1.439684	0.647763	0.251713
C89	C	0.939693	0.147760	-0.331739
C90	C	1.439693	0.647760	0.168261
C91	C	0.893881	0.101913	-0.373473
C92	C	1.393881	0.601913	0.126527
C93	C	0.848064	0.056060	-0.331749
C94	C	1.348064	0.556060	0.168251
C95	C	0.848061	0.056060	-0.248298
C96	C	1.348061	0.556060	0.251702
C97	C	0.848080	0.056061	-0.668296
C98	C	1.348080	0.556061	-0.168296
C99	C	0.848085	0.056067	-0.751753
C100	C	1.348085	0.556067	-0.251753
C101	C	0.939712	0.147762	-0.751737
C102	C	1.439712	0.647762	-0.251737
C103	C	0.939708	0.147761	-0.668287
C104	C	1.439708	0.647761	-0.168287
C105	C	0.893894	0.101906	-0.626570
C106	C	1.393894	0.601906	-0.126570
C107	C	0.893887	0.101908	-0.536082
C108	C	1.393887	0.601908	-0.036082
C109	C	0.893884	0.101914	-0.463959
C110	C	1.393884	0.601914	0.036041
N111	N	0.893905	0.101911	0.206528
N112	N	1.393905	0.601911	0.706528
H113	H	0.520935	0.103939	0.131098
H114	H	1.020935	0.603939	0.631098
H115	H	1.021048	0.712361	-0.000006
H116	H	1.521048	1.212361	0.499994
O117	O	0.984280	0.192317	-0.627872
O118	O	1.484280	0.692317	-0.127872
C119	C	1.024707	0.232797	-0.682589
C120	C	1.524707	0.732797	-0.182589
H121	H	1.029186	0.201461	-0.742074
H122	H	1.529186	0.701461	-0.242074
H123	H	1.084211	0.237414	-0.658467
H124	H	1.584211	0.737414	-0.158467
H125	H	0.993419	0.292248	-0.691469
H126	H	1.493419	0.792248	-0.191469
O127	O	0.803582	0.011593	-0.372407
O128	O	1.303582	0.511593	0.127593
C129	C	0.813378	0.021449	-0.455010
C130	C	1.313378	0.521449	0.044990
H131	H	0.834819	0.078763	-0.466394
H132	H	1.334819	0.578763	0.033606
H133	H	0.756646	0.019607	-0.486707
H134	H	1.256646	0.519607	0.013293
H135	H	0.856590	-0.026054	-0.478724
H136	H	1.356590	0.473946	0.021276
H137	H	0.810753	0.018726	-0.214333
H138	H	1.310753	0.518726	0.285667
O139	O	0.984256	0.192321	-0.207875
O140	O	1.484256	0.692321	0.292125
C141	C	1.024681	0.232800	-0.262595
C142	C	1.524681	0.732800	0.237405
H143	H	1.029159	0.201461	-0.322079
H144	H	1.529159	0.701461	0.177921
H145	H	1.084184	0.237419	-0.238476
H146	H	1.584184	0.737419	0.261524
H147	H	0.993390	0.292250	-0.271479
H148	H	1.493390	0.792250	0.228521
O149	O	0.117546	0.097455	0.142529
O150	O	0.617546	0.597455	0.642529
C151	C	0.169311	0.098295	0.206320
C152	C	0.669311	0.598295	0.706320
H153	H	0.228762	0.075241	0.185139
H154	H	0.728762	0.575241	0.685139
H155	H	0.151377	0.061196	0.256863
H156	H	0.651377	0.561196	0.756863
H157	H	0.169654	0.159123	0.228544
H158	H	0.669654	0.659123	0.728544
H159	H	0.123608	0.097597	-0.131133
H160	H	0.623608	0.597597	0.368867
H161	H	0.664156	0.106237	0.131104
H162	H	1.164156	0.606237	0.631104
O163	O	0.273116	0.100083	0.142412
O164	O	0.773116	0.600083	0.642412
C165	C	0.310067	0.166346	0.146746
C166	C	0.810067	0.666346	0.646746
H167	H	0.318998	0.188378	0.083998
H168	H	0.818998	0.688378	0.583998
H169	H	0.367533	0.152497	0.177343
H170	H	0.867533	0.652497	0.677343
H171	H	0.273552	0.211744	0.182400
H172	H	0.773552	0.711744	0.682400
O173	O	1.034289	0.860305	0.000147
O174	O	1.534289	1.360305	0.500147
C175	C	1.075945	0.835430	0.068804
C176	C	1.575945	1.335430	0.568804
H177	H	1.035245	0.819078	0.116790
H178	H	1.535245	1.319078	0.616790
H179	H	1.108053	0.883195	0.091857
H180	H	1.608053	1.383195	0.591857
H181	H	1.118219	0.783904	0.053285
H182	H	1.618219	1.283904	0.553285
O183	O	1.027848	0.463153	-0.000054
O184	O	1.527848	0.963153	0.499946
C185	C	1.014312	0.543255	-0.000033
C186	C	1.514312	1.043255	0.499967
H187	H	0.955211	0.561907	-0.025132
H188	H	1.455211	1.061907	0.474868
H189	H	1.058833	0.567414	-0.038523
H190	H	1.558833	1.067414	0.461477
H191	H	1.017945	0.565219	0.063571
H192	H	1.517945	1.065219	0.563571
H193	H	0.764435	0.348264	-0.000047
H194	H	1.264435	0.848264	0.499953
O195	O	0.755922	0.499010	-0.000067
O196	O	1.255922	0.999010	0.499933
C197	C	0.694224	0.455322	-0.000058
C198	C	1.194224	0.955322	0.499942
H199	H	0.713544	0.396368	-0.025158
H200	H	1.213544	0.896368	0.474842
H201	H	0.646355	0.484536	-0.038553
H202	H	1.146355	0.984536	0.461447
H203	H	0.672883	0.449734	0.063542
H204	H	1.172883	0.949734	0.563542
H205	H	0.770794	0.745568	-0.000017
H206	H	1.270794	1.245568	0.499983
O207	O	0.762413	0.896532	0.000032
O208	O	1.262413	1.396532	0.500032
C209	C	0.778446	0.972710	0.000019
C210	C	1.278446	1.472710	0.500019
H211	H	0.837890	0.975625	0.025122
H212	H	1.337890	1.475625	0.525122
H213	H	0.734880	1.008552	0.038510
H214	H	1.234880	1.508552	0.538510
H215	H	0.775530	0.995555	-0.063583
H216	H	1.275530	1.495555	0.436417
O217	O	0.670355	0.106482	-0.142468
O218	O	1.170355	0.606482	0.357532
C219	C	0.707337	0.172726	-0.146794
C220	C	1.207337	0.672726	0.353206
H221	H	0.677473	0.218145	-0.105787
H222	H	1.177473	0.718145	0.394213
H223	H	0.705307	0.194732	-0.210715
H224	H	1.205307	0.694732	0.289285
H225	H	0.769134	0.158869	-0.127378
H226	H	1.269134	0.658869	0.372622
O227	O	0.514829	0.103892	-0.142559
O228	O	1.014829	0.603892	0.357441
C229	C	0.566593	0.104709	-0.206344
C230	C	1.066593	0.604709	0.293656
H231	H	0.619687	0.129561	-0.185155
H232	H	1.119687	0.629561	0.314845
H233	H	0.538904	0.141079	-0.256889
H234	H	1.038904	0.641079	0.243111
H235	H	0.583045	0.044149	-0.228567
H236	H	1.083045	0.544149	0.271433
H237	H	1.014688	0.315047	-0.000023
H238	H	1.514688	0.815047	0.499977
O239	O	0.984203	0.192231	-0.792385
O240	O	1.484203	0.692231	-0.292385
C241	C	0.974376	0.182416	-0.874990
C242	C	1.474376	0.682416	-0.374990
H243	H	0.952913	0.125116	-0.886391
H244	H	1.452913	0.625116	-0.386391
H245	H	1.031100	0.184253	-0.906693
H246	H	1.531100	0.684253	-0.406693
H247	H	0.931170	0.229941	-0.898682
H248	H	1.431170	0.729941	-0.398682
H249	H	0.977001	0.185093	-0.365702
H250	H	1.477001	0.685093	0.134298
H251	H	0.810779	0.018730	-0.785730
H252	H	1.310779	0.518730	-0.285730
H253	H	0.266829	0.099890	-0.131133
H254	H	0.766829	0.599890	0.368867
H255	H	0.810776	0.018723	-0.634341
H256	H	1.310776	0.518723	-0.134341
