data_functionalizedCrystal
_audit_creation_method	'MofGen! by Chris Wilmer'
_symmetry_space_group_name_H-M	'P1'
_symmetry_Int_Tables_number	1
_symmetry_cell_setting	triclinic
loop_
_symmetry_equiv_pos_as_xyz
  x,y,z
_cell_length_a	8.559649
_cell_length_b	19.188930
_cell_length_c	7.088929
_cell_angle_alpha	96.207648
_cell_angle_beta	84.675495
_cell_angle_gamma	76.461723
loop_
_atom_site_label
_atom_site_type_symbol
_atom_site_fract_x
_atom_site_fract_y
_atom_site_fract_z
O1	O	2.103836	-0.015636	0.158976
O2	O	1.638378	0.020436	0.158990
O3	O	1.884543	-0.099960	0.158945
O4	O	1.857671	0.104760	0.159021
O5	O	1.917441	-0.116082	-0.159036
O6	O	1.671276	0.004314	-0.158991
O7	O	2.136733	-0.031758	-0.159006
Cu8	Cu	1.907008	-0.015194	-0.188032
Cu9	Cu	1.868103	0.003872	0.188017
O10	O	1.890569	0.088638	-0.158960
C11	C	1.595278	0.015109	0.000001
C12	C	1.417841	0.023246	0.000005
C13	C	1.900122	-0.133986	-0.000051
C14	C	1.897513	-0.211355	-0.000067
C15	C	2.041953	-0.263832	-0.000081
C16	C	2.039496	-0.336526	-0.000050
C17	C	1.892595	-0.356741	-0.000044
C18	C	1.748135	-0.304253	-0.000020
C19	C	1.750594	-0.231560	-0.000031
N20	N	1.791503	-0.464362	-0.108256
N21	N	1.789177	-0.533418	-0.108249
C22	C	1.885178	-0.575760	-0.000005
N23	N	1.983618	-0.546441	0.108207
N24	N	1.985950	-0.477379	0.108192
C25	C	1.889913	-0.435563	-0.000030
C26	C	2.026964	-0.707061	0.000017
C27	C	2.024500	-0.779755	0.000060
C28	C	1.733137	-0.747482	0.000071
C29	C	1.735603	-0.674788	0.000048
C30	C	1.882522	-0.654584	0.000012
C31	C	2.179833	-0.026430	-0.000012
C32	C	2.357269	-0.034567	-0.000003
C33	C	1.874989	0.122665	0.000040
C34	C	1.877597	0.200035	0.000069
N35	N	1.934384	-0.028605	-0.452525
N36	N	1.840740	0.017277	0.452510
H37	H	1.441167	-0.090292	-0.000023
Cl38	Cl	2.211659	-0.681658	-0.000039
Cl39	Cl	1.288324	0.109281	0.000069
Cl40	Cl	2.226645	-0.238433	-0.000072
H41	H	2.031453	-0.076152	-0.534199
Cl42	Cl	2.221092	-0.402508	-0.000066
H43	H	1.628527	-0.320717	-0.000011
Cl44	Cl	1.568996	-0.165585	-0.000015
Cl45	Cl	1.548458	-0.772888	0.000089
H46	H	2.142124	-0.822483	0.000059
H47	H	1.617985	-0.632060	0.000048
Cl48	Cl	1.690896	0.090690	-0.421410
