data_functionalizedCrystal
_audit_creation_method	'MofGen! by Chris Wilmer'
_symmetry_space_group_name_H-M	'P1'
_symmetry_Int_Tables_number	1
_symmetry_cell_setting	triclinic
loop_
_symmetry_equiv_pos_as_xyz
  x,y,z
_cell_length_a	10.654550
_cell_length_b	16.992695
_cell_length_c	9.130313
_cell_angle_alpha	89.995176
_cell_angle_beta	89.999724
_cell_angle_gamma	87.576577
loop_
_atom_site_label
_atom_site_type_symbol
_atom_site_fract_x
_atom_site_fract_y
_atom_site_fract_z
O1	O	1.677362	0.110190	-0.121691
O2	O	1.312790	0.120688	-0.121718
O3	O	1.493615	0.001288	-0.121693
O4	O	1.496538	0.229590	-0.121716
O5	O	1.493601	0.001285	0.121906
O6	O	1.312777	0.120685	0.121881
O7	O	1.677348	0.110186	0.121908
Cu8	Cu	1.495061	0.115435	0.144137
Cu9	Cu	1.495077	0.115439	-0.143947
O10	O	1.496524	0.229586	0.121883
C11	C	1.265919	0.119916	0.000078
C12	C	1.126277	0.117609	0.000068
C13	C	1.489848	-0.027946	0.000106
C14	C	1.478628	-0.115051	0.000105
C15	C	1.052866	0.187910	0.000065
C16	C	0.921658	0.185738	0.000091
C17	C	0.937282	0.042959	0.000116
C18	C	1.068488	0.045132	0.000101
C19	C	1.586879	-0.164703	0.000114
C20	C	1.576330	-0.246547	0.000099
C21	C	1.457529	-0.278738	0.000086
C22	C	1.349270	-0.229080	0.000072
C23	C	1.359820	-0.147237	0.000076
C24	C	1.413802	-0.522573	0.000062
C25	C	1.403260	-0.604422	0.000062
C26	C	1.630321	-0.621884	0.000087
C27	C	1.640861	-0.540039	0.000100
C28	C	1.532602	-0.490388	0.000079
N29	N	1.446743	-0.362395	0.000075
N30	N	1.543389	-0.406733	0.000079
C31	C	1.724220	0.110959	0.000108
C32	C	1.863862	0.113265	0.000109
C33	C	1.500291	0.258821	0.000080
C34	C	1.511510	0.345926	0.000072
N35	N	1.495059	0.115432	0.346759
N36	N	1.495089	0.115437	-0.346570
C37	C	1.575159	0.062584	0.423422
C38	C	1.575171	0.062584	0.576759
C39	C	1.414980	0.168287	0.576756
C40	C	1.414963	0.168282	0.423422
H41	H	0.861892	0.242984	0.000091
H42	H	1.099913	0.246926	0.000049
H43	H	1.683620	-0.138501	0.000134
H44	H	1.640377	0.019549	0.361007
H45	H	1.306513	-0.630628	0.000075
C46	C	1.327818	0.225575	0.659922
C47	C	1.203066	0.212116	0.622680
C48	C	1.122737	0.264870	0.699275
H49	H	1.346537	0.278049	0.634841
H50	H	1.339217	0.218005	0.762236
H51	H	1.191672	0.219693	0.520389
H52	H	1.184307	0.159653	0.647765
H53	H	1.134136	0.257299	0.801589
H54	H	1.141468	0.317340	0.674188
H55	H	1.038084	0.255740	0.674028
C56	C	1.694010	-0.300324	0.000196
C57	C	1.800308	-0.254616	0.000260
C58	C	1.908742	-0.304127	0.000370
H59	H	1.694808	-0.332626	-0.084730
H60	H	1.694672	-0.332606	0.085177
H61	H	1.799648	-0.222347	-0.084712
H62	H	1.799553	-0.222315	0.085180
H63	H	1.909403	-0.336410	0.085351
H64	H	1.909526	-0.336427	-0.084558
H65	H	1.980878	-0.273122	0.000427
C66	C	0.874702	-0.035783	-0.000096
C67	C	0.911350	-0.078329	-0.125401
C68	C	0.853742	-0.150875	-0.125643
H69	H	0.786040	-0.027120	-0.000168
H70	H	0.899449	-0.064803	0.084810
H71	H	0.886595	-0.049315	-0.210285
H72	H	1.000004	-0.087013	-0.125356
H73	H	0.878490	-0.179895	-0.040737
H74	H	0.765082	-0.142204	-0.125711
H75	H	0.878609	-0.179755	-0.210653
H76	H	1.349730	0.211318	0.360999
H77	H	1.128262	-0.012119	0.000107
H78	H	1.718458	-0.662318	0.000102
C79	C	1.769960	-0.505243	0.000048
C80	C	1.862507	-0.566245	0.000021
C81	C	1.981447	-0.534221	-0.000036
H82	H	1.778958	-0.473697	0.084979
H83	H	1.778873	-0.473695	-0.084928
H84	H	1.853598	-0.597780	0.084988
H85	H	1.853549	-0.597796	-0.084905
H86	H	1.990360	-0.502672	-0.085012
H87	H	1.990433	-0.502675	0.084897
H88	H	2.044254	-0.575605	-0.000068
C89	C	1.296157	-0.468770	-0.000170
C90	C	1.225087	-0.483423	-0.125478
C91	C	1.116690	-0.433880	-0.125728
H92	H	1.319264	-0.415390	-0.000244
H93	H	1.247713	-0.478616	0.084734
H94	H	1.273522	-0.473572	-0.210360
H95	H	1.201948	-0.536794	-0.125431
H96	H	1.068246	-0.443725	-0.040824
H97	H	1.139809	-0.380502	-0.125798
H98	H	1.068450	-0.443820	-0.210740
H99	H	1.640394	0.019550	0.639174
H100	H	1.252539	-0.255296	0.000051
H101	H	1.271671	-0.106811	0.000068
