data_functionalizedCrystal
_audit_creation_method	'MofGen! by Chris Wilmer'
_symmetry_space_group_name_H-M	'P1'
_symmetry_Int_Tables_number	1
_symmetry_cell_setting	triclinic
loop_
_symmetry_equiv_pos_as_xyz
  x,y,z
_cell_length_a	17.077404
_cell_length_b	13.897447
_cell_length_c	17.077396
_cell_angle_alpha	90.026095
_cell_angle_beta	90.019501
_cell_angle_gamma	90.019755
loop_
_atom_site_label
_atom_site_type_symbol
_atom_site_fract_x
_atom_site_fract_y
_atom_site_fract_z
Zn1	Zn	1.200073	-0.384009	0.443856
Zn2	Zn	1.700073	0.115991	0.943856
Zn3	Zn	1.199988	-0.545322	0.312595
Zn4	Zn	1.699988	-0.045322	0.812595
Zn5	Zn	1.068805	-0.384043	0.312604
Zn6	Zn	1.568805	0.115957	0.812604
Zn7	Zn	1.068780	-0.545264	0.443819
Zn8	Zn	1.568780	-0.045264	0.943819
O9	O	1.134411	-0.464660	0.378218
O10	O	1.634411	0.035340	0.878218
O11	O	1.309909	-0.405417	0.426456
O12	O	1.809909	0.094583	0.926456
O13	O	1.182561	-0.523966	0.202749
O14	O	1.682561	-0.023966	0.702749
O15	O	1.086264	-0.249057	0.330034
O16	O	1.586264	0.250943	0.830034
O17	O	1.309846	-0.523933	0.330019
O18	O	1.809846	-0.023933	0.830019
O19	O	1.182706	-0.249032	0.426464
O20	O	1.682706	0.250968	0.926464
O21	O	1.086181	-0.405475	0.202756
O22	O	1.586181	0.094525	0.702756
O23	O	0.958955	-0.405420	0.329998
O24	O	1.458955	0.094580	0.829998
O25	O	1.086222	-0.523835	0.553671
O26	O	1.586222	-0.023835	1.053671
O27	O	0.958937	-0.523868	0.426401
O28	O	1.458937	-0.023868	0.926401
O29	O	1.182682	-0.405362	0.553698
O30	O	1.682682	0.094638	1.053698
O31	O	1.182537	-0.680296	0.329983
O32	O	1.682537	-0.180296	0.829983
O33	O	1.086139	-0.680254	0.426393
O34	O	1.586139	-0.180254	0.926393
C35	C	0.930464	-0.464642	0.378197
C36	C	1.430464	0.035358	0.878197
C37	C	0.843214	-0.464658	0.378206
C38	C	1.343214	0.035342	0.878206
C39	C	1.134348	-0.715274	0.378200
C40	C	1.634348	-0.215274	0.878200
C41	C	1.134392	-0.822488	0.378219
C42	C	1.634392	-0.322488	0.878219
C43	C	0.802235	-0.526427	0.428323
C44	C	1.302235	-0.026427	0.928323
C45	C	0.720254	-0.526429	0.428335
C46	C	1.220254	-0.026429	0.928335
C47	C	0.679254	-0.464666	0.378227
C48	C	1.179254	0.035334	0.878227
C49	C	0.720239	-0.402890	0.328108
C50	C	1.220239	0.097110	0.828108
C51	C	0.802218	-0.402884	0.328100
C52	C	1.302218	0.097116	0.828100
C53	C	0.549369	-0.402909	0.328127
C54	C	1.049369	0.097091	0.828127
C55	C	0.467384	-0.402916	0.328133
C56	C	0.967384	0.097084	0.828133
C57	C	0.467405	-0.526454	0.428362
C58	C	0.967405	-0.026454	0.928362
C59	C	0.549384	-0.526448	0.428354
C60	C	1.049384	-0.026448	0.928354
C61	C	0.590363	-0.464673	0.378234
C62	C	1.090363	0.035327	0.878234
C63	C	1.134430	-0.909558	0.378237
C64	C	1.634430	-0.409558	0.878237
C65	C	1.134485	-1.018790	0.378257
C66	C	1.634485	-0.518790	0.878257
C67	C	1.339156	-0.464678	0.378241
C68	C	1.839156	0.035322	0.878241
C69	C	1.426405	-0.464686	0.378250
C70	C	1.926405	0.035314	0.878250
C71	C	1.134459	-0.464588	0.582963
C72	C	1.634459	0.035412	1.082963
C73	C	1.134479	-0.464558	0.670213
C74	C	1.634479	0.035442	1.170213
C75	C	1.134497	-0.213067	0.378254
C76	C	1.634497	0.286933	0.878254
C77	C	1.134533	-0.105853	0.378269
C78	C	1.634533	0.394147	0.878269
C79	C	1.134409	-0.464661	0.174271
C80	C	1.634409	0.035339	0.674271
C81	C	1.134541	-0.464419	0.087021
C82	C	1.634541	0.035581	0.587021
C83	C	1.184708	-0.402864	0.711218
C84	C	1.684708	0.097136	1.211218
C85	C	1.184717	-0.402832	0.793199
C86	C	1.684717	0.097168	1.293199
C87	C	1.134501	-0.464500	0.834172
C88	C	1.634501	0.035500	1.334172
C89	C	1.084267	-0.526197	0.793161
C90	C	1.584267	-0.026197	1.293161
C91	C	1.084255	-0.526223	0.711182
C92	C	1.584255	-0.026223	1.211182
C93	C	1.084299	-0.526139	0.964031
C94	C	1.584299	-0.026139	1.464031
C95	C	1.084313	-0.526114	1.046016
C96	C	1.584313	-0.026114	1.546016
C97	C	1.184762	-0.402747	1.046048
C98	C	1.684762	0.097253	1.546048
C99	C	1.184749	-0.402774	0.964069
C100	C	1.684749	0.097226	1.464069
C101	C	1.134516	-0.464472	0.923063
C102	C	1.634516	0.035528	1.423063
H103	H	0.835611	-0.576725	0.469124
H104	H	1.335611	-0.076725	0.969124
C105	C	0.422286	-0.334970	0.273014
C106	C	0.922286	0.165030	0.773014
N107	N	0.388318	-0.283791	0.231498
N108	N	0.888318	0.216209	0.731498
H109	H	0.686850	-0.352597	0.287312
H110	H	1.186850	0.147403	0.787312
C111	C	0.675181	-0.594399	0.483452
C112	C	1.175181	-0.094399	0.983452
N113	N	0.641233	-0.645603	0.524964
N114	N	1.141233	-0.145603	1.024964
H115	H	0.835582	-0.352580	0.287294
H116	H	1.335582	0.147420	0.787294
C117	C	1.029001	-0.594093	0.666076
C118	C	1.529001	-0.094093	1.166076
N119	N	0.987380	-0.645214	0.632103
N120	N	1.487380	-0.145214	1.132103
C121	C	1.029068	-0.593945	1.091085
C122	C	1.529068	-0.093945	1.591085
N123	N	0.987456	-0.645036	1.125031
N124	N	1.487456	-0.145036	1.625031
H125	H	1.225662	-0.352508	1.079438
H126	H	1.725662	0.147492	1.579438
H127	H	1.225620	-0.352596	0.826582
H128	H	1.725620	0.147404	1.326582
C129	C	0.422327	-0.594403	0.483499
C130	C	0.922327	-0.094403	0.983499
N131	N	0.388370	-0.645582	0.525025
N132	N	0.888370	-0.145582	1.025025
C133	C	1.239949	-0.335022	0.666155
C134	C	1.739949	0.164978	1.166155
N135	N	1.281556	-0.283918	0.632215
N136	N	1.781556	0.216082	1.132215
H137	H	1.225643	-0.352564	0.930710
H138	H	1.725643	0.147436	1.430710
H139	H	1.043381	-0.576365	0.930647
H140	H	1.543381	-0.076365	1.430647
C141	C	0.594444	-0.334955	0.272990
C142	C	1.094444	0.165045	0.772990
N143	N	0.628394	-0.283778	0.231458
N144	N	1.128394	0.216222	0.731458
C145	C	1.029022	-0.594023	0.838235
C146	C	1.529022	-0.094023	1.338235
N147	N	0.987409	-0.645110	0.872183
N148	N	1.487409	-0.145110	1.372183
H149	H	0.582764	-0.576746	0.469153
H150	H	1.082764	-0.076746	0.969153
