data_functionalizedCrystal
_audit_creation_method	'MofGen! by Chris Wilmer'
_symmetry_space_group_name_H-M	'P1'
_symmetry_Int_Tables_number	1
_symmetry_cell_setting	triclinic
loop_
_symmetry_equiv_pos_as_xyz
  x,y,z
_cell_length_a	12.759401
_cell_length_b	19.805405
_cell_length_c	19.805399
_cell_angle_alpha	90.029462
_cell_angle_beta	89.986016
_cell_angle_gamma	89.966344
loop_
_atom_site_label
_atom_site_type_symbol
_atom_site_fract_x
_atom_site_fract_y
_atom_site_fract_z
Zn1	Zn	1.606061	0.269461	-0.382665
Zn2	Zn	2.106061	0.769461	0.117335
Zn3	Zn	1.605916	0.382652	-0.269476
Zn4	Zn	2.105916	0.882652	0.230524
Zn5	Zn	1.430381	0.269483	-0.269495
Zn6	Zn	1.930381	0.769483	0.230505
Zn7	Zn	1.430295	0.382614	-0.382628
Zn8	Zn	1.930295	0.882614	0.117372
O9	O	1.518163	0.326053	-0.326066
O10	O	2.018163	0.826053	0.173934
O11	O	1.753063	0.284482	-0.367657
O12	O	2.253063	0.784482	0.132343
O13	O	1.582606	0.367665	-0.174762
O14	O	2.082606	0.867665	0.325238
O15	O	1.453781	0.174764	-0.284531
O16	O	1.953781	0.674764	0.215469
O17	O	1.752956	0.367643	-0.284498
O18	O	2.252956	0.867643	0.215502
O19	O	1.582853	0.174747	-0.367676
O20	O	2.082853	0.674747	0.132324
O21	O	1.453641	0.284520	-0.174776
O22	O	1.953641	0.784520	0.325224
O23	O	1.283348	0.284484	-0.284495
O24	O	1.783348	0.784484	0.215505
O25	O	1.453635	0.367579	-0.477350
O26	O	1.953635	0.867579	0.022650
O27	O	1.283285	0.367601	-0.367614
O28	O	1.783285	0.867601	0.132386
O29	O	1.582770	0.284446	-0.477377
O30	O	2.082770	0.784446	0.022623
O31	O	1.582523	0.477364	-0.284462
O32	O	2.082523	0.977364	0.215538
O33	O	1.453495	0.477336	-0.367595
O34	O	1.953495	0.977336	0.132405
C35	C	1.245196	0.326041	-0.326053
C36	C	1.745196	0.826041	0.173947
C37	C	1.128419	0.326052	-0.326064
C38	C	1.628419	0.826052	0.173936
C39	C	1.518013	0.501909	-0.326037
C40	C	2.018013	1.001909	0.173963
C41	C	1.518044	0.577141	-0.326047
C42	C	2.018044	1.077141	0.173953
C43	C	0.963773	0.369295	-0.282717
C44	C	1.463773	0.869295	0.217283
C45	C	1.073497	0.369285	-0.282704
C46	C	1.573497	0.869285	0.217296
C47	C	1.073612	0.282822	-0.369434
C48	C	1.573612	0.782822	0.130566
C49	C	0.963890	0.282829	-0.369443
C50	C	1.463890	0.782829	0.130557
C51	C	1.223383	0.393355	-0.202824
C52	C	1.723383	0.893355	0.297176
C53	C	1.278187	0.436592	-0.159461
C54	C	1.778187	0.936592	0.340539
C55	C	1.242520	0.502624	-0.148952
C56	C	1.742520	1.002624	0.351048
C57	C	1.152051	0.525434	-0.181816
C58	C	1.652051	1.025434	0.318184
C59	C	1.097254	0.482201	-0.225184
C60	C	1.597254	0.982201	0.274816
C61	C	1.132919	0.416159	-0.235679
C62	C	1.632919	0.916159	0.264321
C63	C	0.814001	0.258766	-0.449324
C64	C	1.314001	0.758766	0.050676
C65	C	0.759202	0.215536	-0.492696
C66	C	1.259202	0.715536	0.007304
C67	C	0.794866	0.149503	-0.503211
C68	C	1.294866	0.649503	-0.003211
C69	C	0.885338	0.126695	-0.470359
C70	C	1.385338	0.626695	0.029641
C71	C	0.940138	0.169925	-0.426988
C72	C	1.440138	0.669925	0.073012
C73	C	0.904466	0.235958	-0.416471
C74	C	1.404466	0.735958	0.083529
C75	C	1.585206	0.612418	-0.369374
C76	C	2.085206	1.112418	0.130626
C77	C	1.585232	0.683106	-0.369385
C78	C	2.085232	1.183106	0.130615
C79	C	1.518100	0.718516	-0.326065
C80	C	2.018100	1.218516	0.173935
C81	C	1.450931	0.683234	-0.282736
C82	C	1.950931	1.183234	0.217264
C83	C	1.450901	0.612547	-0.282730
C84	C	1.950901	1.112547	0.217270
C85	C	1.451050	0.968307	-0.282764
C86	C	1.951050	1.468307	0.217236
C87	C	1.451087	1.038999	-0.282773
C88	C	1.951087	1.538999	0.217227
C89	C	1.585381	1.038867	-0.369419
C90	C	2.085381	1.538867	0.130581
C91	C	1.585351	0.968180	-0.369413
C92	C	2.085351	1.468180	0.130587
C93	C	1.518178	0.932903	-0.326087
C94	C	2.018178	1.432903	0.173913
C95	C	1.518150	0.856255	-0.326076
C96	C	2.018150	1.356255	0.173924
C97	C	1.518133	0.795163	-0.326072
C98	C	2.018133	1.295163	0.173928
C99	C	1.792196	0.326065	-0.326080
C100	C	2.292196	0.826065	0.173920
C101	C	1.908973	0.326070	-0.326085
C102	C	2.408973	0.826070	0.173915
C103	C	1.518299	1.149510	-0.326104
C104	C	2.018299	1.649510	0.173896
C105	C	1.518245	1.074278	-0.326103
C106	C	2.018245	1.574278	0.173897
C107	C	1.518209	0.326006	-0.502609
C108	C	2.018209	0.826006	-0.002609
C109	C	1.518229	0.325986	-0.577841
C110	C	2.018229	0.825986	-0.077841
C111	C	1.451096	0.282688	-0.613192
C112	C	1.951096	0.782688	-0.113192
C113	C	1.451110	0.282675	-0.683881
C114	C	1.951110	0.782675	-0.183881
C115	C	1.518264	0.325956	-0.719217
C116	C	2.018264	0.825956	-0.219217
C117	C	1.585400	0.369259	-0.683861
C118	C	2.085400	0.869259	-0.183861
C119	C	1.585379	0.369275	-0.613173
C120	C	2.085379	0.869275	-0.113173
C121	C	1.585483	0.369195	-0.968934
C122	C	2.085483	0.869195	-0.468934
C123	C	1.585501	0.369174	-1.039626
C124	C	2.085501	0.869174	-0.539626
C125	C	1.451214	0.282596	-1.039641
C126	C	1.951214	0.782596	-0.539641
C127	C	1.451194	0.282612	-0.968954
C128	C	1.951194	0.782612	-0.468954
C129	C	1.518325	0.325916	-0.933604
C130	C	2.018325	0.825916	-0.433604
C131	C	1.518307	0.325931	-0.856956
C132	C	2.018307	0.825931	-0.356956
C133	C	1.518288	0.325939	-0.795864
C134	C	2.018288	0.825939	-0.295864
C135	C	1.518178	0.326050	-0.150210
C136	C	2.018178	0.826050	0.349790
C137	C	1.518362	0.325880	-0.074979
C138	C	2.018362	0.825880	0.425021
H139	H	0.919063	0.404504	-0.247412
H140	H	1.419063	0.904504	0.252588
Cl141	Cl	1.391914	0.407917	-0.118148
Cl142	Cl	1.891914	0.907917	0.381852
Cl143	Cl	1.669654	0.727452	-0.423865
Cl144	Cl	2.169654	1.227452	0.076135
Cl145	Cl	1.366814	0.228157	-1.084085
Cl146	Cl	1.866814	0.728157	-0.584085
H147	H	1.640135	0.404464	-0.940161
H148	H	2.140135	0.904464	-0.440161
Cl149	Cl	1.669823	1.083218	-0.423890
Cl150	Cl	2.169823	1.583218	0.076110
Cl151	Cl	1.366772	0.228196	-0.924535
Cl152	Cl	1.866772	0.728196	-0.424535
H153	H	1.640019	0.939351	-0.404685
H154	H	2.140019	1.439351	0.095315
H155	H	1.287149	0.537828	-0.113646
H156	H	1.787149	1.037828	0.386354
H157	H	1.396416	1.067828	-0.247495
H158	H	1.896416	1.567828	0.252505
H159	H	1.252425	0.339584	-0.211369
H160	H	1.752425	0.839584	0.288631
Cl161	Cl	1.366674	0.228271	-0.568777
Cl162	Cl	1.866674	0.728271	-0.068777
Cl163	Cl	0.983529	0.510869	-0.266496
Cl164	Cl	1.483529	1.010869	0.233504
Cl165	Cl	1.366661	0.228273	-0.728319
Cl166	Cl	1.866661	0.728273	-0.228319
H167	H	1.118338	0.247618	-0.404735
H168	H	1.618338	0.747618	0.095265
H169	H	1.013943	0.151401	-0.400362
H170	H	1.513943	0.651401	0.099638
Cl171	Cl	1.366526	0.727749	-0.228283
Cl172	Cl	1.866526	1.227749	0.271717
H173	H	1.640188	0.404422	-1.068395
H174	H	2.140188	0.904422	-0.568395
H175	H	1.640072	0.404502	-0.712637
H176	H	2.140072	0.904502	-0.212637
H177	H	0.914379	0.072926	-0.478923
H178	H	1.414379	0.572926	0.021077
H179	H	1.640054	0.404527	-0.584391
H180	H	2.140054	0.904527	-0.084391
Cl181	Cl	0.645466	0.244210	-0.533998
Cl182	Cl	1.145466	0.744210	-0.033998
Cl183	Cl	0.725978	0.095159	-0.557743
Cl184	Cl	1.225978	0.595159	-0.057743
H185	H	0.784956	0.312537	-0.440767
H186	H	1.284956	0.812537	0.059233
H187	H	1.123026	0.579207	-0.173263
H188	H	1.623026	1.079207	0.326737
Cl189	Cl	1.669611	0.567910	-0.423833
Cl190	Cl	2.169611	1.067910	0.076167
Cl191	Cl	1.366595	0.923969	-0.228303
Cl192	Cl	1.866595	1.423969	0.271697
H193	H	1.396210	0.583825	-0.247449
H194	H	1.896210	1.083825	0.252551
