data_functionalizedCrystal
_audit_creation_method	'MofGen! by Chris Wilmer'
_symmetry_space_group_name_H-M	'P1'
_symmetry_Int_Tables_number	1
_symmetry_cell_setting	triclinic
loop_
_symmetry_equiv_pos_as_xyz
  x,y,z
_cell_length_a	12.759401
_cell_length_b	18.050589
_cell_length_c	12.759393
_cell_angle_alpha	90.029665
_cell_angle_beta	90.018364
_cell_angle_gamma	90.028382
loop_
_atom_site_label
_atom_site_type_symbol
_atom_site_fract_x
_atom_site_fract_y
_atom_site_fract_z
Zn1	Zn	1.606155	-0.295619	0.593988
Zn2	Zn	1.606009	-0.419828	0.418311
Zn3	Zn	1.430458	-0.295656	0.418328
Zn4	Zn	1.430404	-0.419773	0.593953
O5	O	1.518257	-0.357719	0.506145
O6	O	1.753157	-0.312104	0.570692
O7	O	1.582682	-0.403394	0.271292
O8	O	1.453848	-0.191727	0.441651
O9	O	1.753049	-0.403359	0.441623
O10	O	1.582932	-0.191700	0.570708
O11	O	1.453706	-0.312166	0.271304
O12	O	1.283430	-0.312113	0.441617
O13	O	1.453757	-0.403265	0.740979
O14	O	1.283391	-0.403301	0.570648
O15	O	1.582881	-0.312050	0.741005
O16	O	1.582631	-0.523745	0.441589
O17	O	1.453615	-0.523704	0.570632
C18	C	1.245289	-0.357705	0.506131
C19	C	1.128513	-0.357717	0.506149
C20	C	1.518130	-0.550671	0.506127
C21	C	1.518172	-0.633217	0.506155
C22	C	1.073658	-0.405275	0.573225
C23	C	0.963934	-0.405284	0.573236
C24	C	0.963929	-0.310177	0.439088
C25	C	1.073651	-0.310164	0.439083
C26	C	1.073659	-0.460187	0.650671
C27	C	0.963935	-0.460196	0.650683
C28	C	1.448082	-0.832672	0.576304
C29	C	1.422468	-0.882120	0.480436
C30	C	1.518275	-0.784347	0.506169
C31	C	1.543940	-0.881981	0.602048
C32	C	1.518372	-0.930332	0.506191
C33	C	1.492610	-0.832708	0.410250
C34	C	1.614127	-0.832565	0.531927
C35	C	1.588550	-0.881990	0.435992
C36	C	1.518216	-0.700249	0.506158
C37	C	1.518432	-1.014429	0.506191
C38	C	1.792290	-0.357733	0.506160
C39	C	1.909066	-0.357739	0.506166
C40	C	1.518329	-0.357647	0.780178
C41	C	1.518361	-0.357617	0.896955
C42	C	1.518412	-0.164013	0.506185
C43	C	1.518479	-0.081468	0.506203
C44	C	1.518244	-0.357737	0.233178
C45	C	1.518417	-0.357558	0.116401
C46	C	1.585627	-0.310081	1.061557
C47	C	1.585602	-0.310112	0.951833
C48	C	1.451147	-0.405099	0.951807
C49	C	1.451178	-0.405071	1.061529
C50	C	1.663251	-0.255239	1.061572
C51	C	1.663226	-0.255270	0.951848
H52	H	1.118310	-0.271433	0.384470
H53	H	1.565609	-0.903626	0.683124
H54	H	0.934121	-0.517699	0.628752
H55	H	1.740496	-0.275887	0.917816
H56	H	1.107655	-0.514793	0.621388
N57	N	0.904752	-0.258901	0.366743
H58	H	0.923873	-0.205848	0.383182
H59	H	0.826939	-0.266191	0.376960
N60	N	1.113163	-0.439874	0.758497
H61	H	1.051651	-0.430813	0.806619
H62	H	1.157189	-0.393479	0.753853
N63	N	1.378701	-0.456288	1.120685
H64	H	1.336103	-0.486388	1.069271
H65	H	1.330113	-0.426049	1.166216
H66	H	1.396404	-0.443783	0.907116
H67	H	1.744618	-0.270638	1.091347
N68	N	1.369348	-0.803984	0.654763
H69	H	1.296997	-0.822014	0.635172
H70	H	1.370429	-0.748037	0.654641
H71	H	1.647952	-0.903508	0.376622
H72	H	0.929944	-0.439667	0.728034
H73	H	1.341454	-0.903903	0.458669
N74	N	1.463787	-0.804165	0.302823
H75	H	1.463898	-0.748213	0.303484
H76	H	1.391674	-0.822683	0.283279
H77	H	1.695123	-0.810783	0.553739
H78	H	1.634153	-0.200594	1.095616
N79	N	1.634406	-0.179095	0.912404
H80	H	1.621556	-0.145081	0.973944
H81	H	1.568771	-0.182470	0.868394
