data_functionalizedCrystal
_audit_creation_method	'MofGen! by Chris Wilmer'
_symmetry_space_group_name_H-M	'P1'
_symmetry_Int_Tables_number	1
_symmetry_cell_setting	triclinic
loop_
_symmetry_equiv_pos_as_xyz
  x,y,z
_cell_length_a	10.654550
_cell_length_b	19.288840
_cell_length_c	9.130313
_cell_angle_alpha	89.991656
_cell_angle_beta	89.994007
_cell_angle_gamma	83.805459
loop_
_atom_site_label
_atom_site_type_symbol
_atom_site_fract_x
_atom_site_fract_y
_atom_site_fract_z
O1	O	0.156510	0.922380	-0.122041
O2	O	0.177675	0.720256	-0.121989
O3	O	-0.015747	0.825965	-0.122011
O4	O	0.349932	0.816671	-0.122019
O5	O	-0.015763	0.825964	0.121588
O6	O	0.177659	0.720254	0.121609
O7	O	0.156494	0.922379	0.121558
Cu8	Cu	0.167075	0.821316	0.143826
Cu9	Cu	0.167094	0.821318	-0.144258
O10	O	0.349916	0.816669	0.121580
C11	C	0.176992	0.694374	-0.000183
C12	C	0.174963	0.617256	-0.000164
C13	C	0.173997	0.581047	-0.132953
C14	C	0.172077	0.508588	-0.132971
C15	C	0.171098	0.472342	-0.000192
C16	C	0.172071	0.508559	0.132615
C17	C	0.174003	0.581016	0.132629
C18	C	0.094474	0.362511	0.101517
C19	C	0.092533	0.290056	0.101497
C20	C	0.165142	0.248859	-0.000230
C21	C	0.239675	0.280127	-0.101962
C22	C	0.241608	0.352584	-0.101948
C23	C	0.169003	0.393774	-0.000193
C24	C	0.162096	0.134081	-0.133048
C25	C	0.160184	0.061620	-0.133061
C26	C	0.160164	0.061593	0.132529
C27	C	0.162089	0.134052	0.132538
C28	C	0.163049	0.170292	-0.000255
C29	C	-0.062538	0.825282	-0.000213
C30	C	-0.201937	0.823240	-0.000218
C31	C	-0.282765	0.885480	-0.000229
C32	C	-0.413745	0.883558	-0.000239
C33	C	-0.383055	0.757149	-0.000220
C34	C	-0.252078	0.759073	-0.000220
C35	C	-0.232625	0.949648	-0.000226
C36	C	-0.313454	1.011893	-0.000236
C37	C	-0.444433	1.009970	-0.000246
C38	C	-0.494583	0.945802	-0.000246
C39	C	0.396707	0.817352	-0.000222
C40	C	0.536107	0.819394	-0.000227
C41	C	0.157178	0.948261	-0.000251
C42	C	0.159206	1.025378	-0.000280
N43	N	0.167098	0.821320	-0.346880
C44	C	0.243198	0.863718	-0.576925
C45	C	0.243214	0.863721	-0.423589
C46	C	0.090952	0.778920	-0.423517
C47	C	0.090931	0.778922	-0.576851
C48	C	0.319328	0.906116	-0.653626
C49	C	0.395473	0.948518	-0.577000
C50	C	0.395489	0.948520	-0.423663
C51	C	0.319360	0.906121	-0.346952
N52	N	0.167061	0.821320	0.346449
H53	H	0.171293	0.479100	-0.241108
C54	C	0.175058	0.620906	-0.279026
C55	C	0.067361	0.678093	-0.315539
C56	C	0.068421	0.717952	-0.461614
C57	C	0.177178	0.700625	-0.571176
C58	C	0.284883	0.643436	-0.534667
C59	C	0.283824	0.603576	-0.388592
H60	H	-0.013155	0.690922	-0.234431
H61	H	-0.011311	0.760288	-0.488640
H62	H	0.177962	0.730132	-0.679310
H63	H	0.365399	0.630606	-0.615774
H64	H	0.363555	0.561241	-0.361566
H65	H	0.162868	0.163534	0.240670
H66	H	0.159405	0.032139	-0.241198
H67	H	0.319327	0.906117	-0.778480
C68	C	0.007231	0.732275	-0.339139
C69	C	0.007263	0.732267	-0.170477
C70	C	-0.076454	0.685618	-0.086102
C71	C	-0.160202	0.638976	-0.170387
C72	C	-0.160237	0.638982	-0.339058
C73	C	-0.076520	0.685632	-0.423434
H74	H	0.069261	0.766795	-0.108075
H75	H	-0.076427	0.685613	0.038760
H76	H	-0.222174	0.604443	-0.107927
H77	H	-0.222235	0.604454	-0.401460
H78	H	-0.076547	0.685636	-0.548296
H79	H	-0.186265	0.708391	-0.000209
H80	H	-0.601237	0.944242	-0.000269
C81	C	0.170992	0.468692	0.278675
C82	C	0.062233	0.486020	0.388235
C83	C	0.061162	0.446154	0.534302
C84	C	0.168850	0.388961	0.570808
C85	C	0.277618	0.371631	0.461245
C86	C	0.278689	0.411496	0.315179
H87	H	-0.017492	0.528360	0.361214
H88	H	-0.019356	0.458983	0.615407
H89	H	0.168057	0.359450	0.678935
H90	H	0.357342	0.329291	0.488267
H91	H	0.359206	0.398667	0.234073
H92	H	0.028935	0.744396	-0.639241
H93	H	0.457447	0.983042	-0.639468
H94	H	0.302298	0.378040	-0.184779
H95	H	-0.423898	0.704907	-0.000217
C96	C	-0.258295	1.082475	-0.000240
C97	C	-0.347208	1.150938	-0.000260
C98	C	-0.292053	1.221521	-0.000265
C99	C	-0.147985	1.223641	-0.000250
C100	C	-0.059063	1.155175	-0.000230
C101	C	-0.114218	1.084592	-0.000225
H102	H	-0.453864	1.149371	-0.000272
H103	H	-0.357880	1.272204	-0.000281
H104	H	-0.107156	1.275891	-0.000254
H105	H	0.047593	1.156742	-0.000218
H106	H	-0.048391	1.033909	-0.000209
H107	H	0.298805	0.246585	-0.184794
H108	H	0.159375	0.032082	0.240641
C109	C	0.163177	0.173952	-0.279110
C110	C	0.055485	0.231141	-0.315631
C111	C	0.056570	0.271010	-0.461692
C112	C	0.165347	0.253690	-0.571233
C113	C	0.273046	0.196498	-0.534715
C114	C	0.271961	0.156629	-0.388654
H115	H	-0.025045	0.243964	-0.234540
H116	H	-0.023157	0.313347	-0.488724
H117	H	0.166150	0.283203	-0.679356
H118	H	0.353577	0.183675	-0.615806
H119	H	0.351688	0.114292	-0.361622
H120	H	-0.125976	0.951220	-0.000214
C121	C	0.010541	0.255665	0.213388
C122	C	-0.069314	0.300975	0.325300
C123	C	-0.151312	0.266586	0.437190
C124	C	-0.153456	0.186888	0.437169
C125	C	-0.073598	0.141573	0.325253
C126	C	0.008400	0.175961	0.213363
H127	H	-0.067730	0.359977	0.325320
H128	H	-0.210428	0.300132	0.520038
H129	H	-0.214156	0.161431	0.519997
H130	H	-0.075182	0.082571	0.325233
H131	H	0.067516	0.142416	0.130515
C132	C	0.479236	0.995166	-0.339377
C133	C	0.418763	1.051509	-0.233977
C134	C	0.502516	1.098155	-0.149697
C135	C	0.646741	1.088459	-0.170816
C136	C	0.707221	1.032113	-0.276221
C137	C	0.623468	0.985467	-0.360502
H138	H	0.311992	1.058689	-0.218339
H139	H	0.457744	1.139866	-0.071669
H140	H	0.708739	1.122989	-0.108427
H141	H	0.813992	1.024933	-0.291859
H142	H	0.668240	0.943756	-0.438529
H143	H	0.035344	0.396049	0.184362
H144	H	0.174791	0.610497	0.240765
H145	H	-0.510242	1.060653	-0.000268
H146	H	0.319367	0.906133	-0.222095
