data_functionalizedCrystal
_audit_creation_method	'MofGen! by Chris Wilmer'
_symmetry_space_group_name_H-M	'P1'
_symmetry_Int_Tables_number	1
_symmetry_cell_setting	triclinic
loop_
_symmetry_equiv_pos_as_xyz
  x,y,z
_cell_length_a	10.654556
_cell_length_b	10.268362
_cell_length_c	10.654550
_cell_angle_alpha	89.999831
_cell_angle_beta	95.513844
_cell_angle_gamma	90.005049
loop_
_atom_site_label
_atom_site_type_symbol
_atom_site_fract_x
_atom_site_fract_y
_atom_site_fract_z
O1	O	1.667838	0.108310	-0.176429
O2	O	2.167838	0.608310	0.323571
O3	O	1.302360	0.108309	-0.193227
O4	O	1.802360	0.608309	0.306773
O5	O	1.493502	0.108305	-0.002089
O6	O	1.993502	0.608305	0.497911
O7	O	1.476696	0.108314	-0.367567
O8	O	1.976696	0.608314	0.132433
O9	O	1.493483	-0.108296	-0.002095
O10	O	1.993483	0.391704	0.497905
O11	O	1.302342	-0.108291	-0.193234
O12	O	1.802342	0.391709	0.306766
O13	O	1.667819	-0.108291	-0.176435
O14	O	2.167819	0.391709	0.323565
Cu15	Cu	1.485079	-0.128068	-0.184835
Cu16	Cu	1.985079	0.371932	0.315165
Cu17	Cu	1.485101	0.128087	-0.184827
Cu18	Cu	1.985101	0.628087	0.315173
O19	O	1.476677	-0.108286	-0.367574
O20	O	1.976677	0.391714	0.132426
C21	C	1.255553	0.000009	-0.191995
C22	C	1.755553	0.500009	0.308005
C23	C	1.116110	0.000009	-0.188300
C24	C	1.616110	0.500009	0.311700
N25	N	1.485073	-0.308234	-0.184840
N26	N	1.985073	0.191766	0.315160
C27	C	0.919590	0.118088	-0.183097
C28	C	1.419590	0.618088	0.316903
C29	C	1.050612	0.118083	-0.186562
C30	C	1.550612	0.618083	0.313438
C31	C	1.050580	-0.118067	-0.186562
C32	C	1.550580	0.381933	0.313438
C33	C	0.919562	-0.118060	-0.183088
C34	C	1.419562	0.381940	0.316912
C35	C	0.919609	0.254428	-0.183103
C36	C	1.419609	0.754428	0.316897
C37	C	1.050631	0.254422	-0.186567
C38	C	1.550631	0.754422	0.313433
C39	C	1.485082	-0.426077	-0.184840
C40	C	1.985082	0.073923	0.315160
C41	C	1.485097	-0.573915	-0.184829
C42	C	1.985097	-0.073915	0.315171
C43	C	1.714626	0.000012	-0.177667
C44	C	2.214626	0.500012	0.322333
C45	C	1.854069	0.000021	-0.181362
C46	C	2.354069	0.500021	0.318638
C47	C	1.492259	0.000006	0.044706
C48	C	1.992259	0.500006	0.544706
C49	C	1.488567	0.000011	0.184149
C50	C	1.988567	0.500011	0.684149
N51	N	1.485117	0.308253	-0.184813
N52	N	1.985117	0.808253	0.315187
C53	C	1.477921	0.000015	-0.414368
C54	C	1.977921	0.500015	0.085632
C55	C	1.481612	0.000019	-0.553812
C56	C	1.981612	0.500019	-0.053812
C57	C	1.601108	0.000007	0.263632
C58	C	2.101108	0.500007	0.763632
C59	C	1.597631	0.000016	0.394653
C60	C	2.097631	0.500016	0.894653
C61	C	1.369063	0.000027	0.366695
C62	C	1.869063	0.500027	0.866695
C63	C	1.372540	0.000027	0.235676
C64	C	1.872540	0.500027	0.735676
C65	C	1.733071	-0.000005	0.279775
C66	C	2.233071	0.499995	0.779775
C67	C	1.729594	0.000004	0.410796
C68	C	2.229594	0.500004	0.910796
H69	H	0.866223	-0.214202	-0.181650
H70	H	1.366223	0.285798	0.318350
H71	H	1.103921	-0.214205	-0.187966
H72	H	1.603921	0.285795	0.312034
Br73	Br	0.878227	0.341682	-0.035311
Br74	Br	1.378227	0.841682	0.464689
Br75	Br	0.833423	0.324938	-0.332176
Br76	Br	1.333423	0.824938	0.167824
Br77	Br	1.136831	0.324925	-0.037487
Br78	Br	1.636831	0.824925	0.462513
Br79	Br	1.796071	0.155875	0.486887
Br80	Br	2.296071	0.655875	0.986887
H81	H	1.075469	0.306759	-0.275249
H82	H	1.575469	0.806759	0.224751
Br83	Br	1.812449	-0.151070	0.480405
Br84	Br	2.312449	0.348930	0.980405
H85	H	1.280898	0.000048	0.170965
H86	H	1.780898	0.500048	0.670965
Br87	Br	1.211606	0.000057	0.436633
Br88	Br	1.711606	0.500057	0.936633
H89	H	1.784694	0.090635	0.250419
H90	H	2.284694	0.590635	0.750419
H91	H	1.775084	-0.093529	0.244144
H92	H	2.275084	0.406471	0.744144
