data_functionalizedCrystal
_audit_creation_method	'MofGen! by Chris Wilmer'
_symmetry_space_group_name_H-M	'P1'
_symmetry_Int_Tables_number	1
_symmetry_cell_setting	triclinic
loop_
_symmetry_equiv_pos_as_xyz
  x,y,z
_cell_length_a	29.839134
_cell_length_b	29.839131
_cell_length_c	29.839125
_cell_angle_alpha	90.017709
_cell_angle_beta	90.024313
_cell_angle_gamma	90.034165
loop_
_atom_site_label
_atom_site_type_symbol
_atom_site_fract_x
_atom_site_fract_y
_atom_site_fract_z
Zn1	Zn	0.686720	-0.179003	0.254153
Zn2	Zn	0.936720	0.070997	0.504153
Zn3	Zn	1.186720	0.320997	0.754153
Zn4	Zn	1.436720	0.570997	1.004153
Zn5	Zn	0.686652	-0.254115	0.179023
Zn6	Zn	0.936652	-0.004115	0.429023
Zn7	Zn	1.186652	0.245885	0.679023
Zn8	Zn	1.436652	0.495885	0.929023
Zn9	Zn	0.611602	-0.178991	0.179019
Zn10	Zn	0.861602	0.071009	0.429019
Zn11	Zn	1.111602	0.321009	0.679019
Zn12	Zn	1.361602	0.571009	0.929019
Zn13	Zn	0.611550	-0.254097	0.254108
Zn14	Zn	0.861550	-0.004097	0.504108
Zn15	Zn	1.111550	0.245903	0.754108
Zn16	Zn	1.361550	0.495903	1.004108
O17	O	0.649131	-0.216552	0.216576
O18	O	0.899131	0.033448	0.466576
O19	O	1.149131	0.283448	0.716576
O20	O	1.399131	0.533448	0.966576
O21	O	0.749578	-0.188980	0.244207
O22	O	0.999578	0.061020	0.494207
O23	O	1.249578	0.311020	0.744207
O24	O	1.499578	0.561020	0.994207
O25	O	0.676690	-0.244152	0.116155
O26	O	0.926690	0.005848	0.366155
O27	O	1.176690	0.255848	0.616155
O28	O	1.426690	0.505848	0.866155
O29	O	0.621617	-0.116125	0.189003
O30	O	0.871617	0.133875	0.439003
O31	O	1.121617	0.383875	0.689003
O32	O	1.371617	0.633875	0.939003
O33	O	0.749528	-0.244164	0.189009
O34	O	0.999528	0.005836	0.439009
O35	O	1.249528	0.255836	0.689009
O36	O	1.499528	0.505836	0.939009
O37	O	0.676805	-0.116134	0.244204
O38	O	0.926805	0.133866	0.494204
O39	O	1.176805	0.383866	0.744204
O40	O	1.426805	0.633866	0.994204
O41	O	0.621551	-0.188958	0.116153
O42	O	0.871551	0.061042	0.366153
O43	O	1.121551	0.311042	0.616153
O44	O	1.371551	0.561042	0.866153
O45	O	0.548728	-0.188941	0.188960
O46	O	0.798728	0.061059	0.438960
O47	O	1.048728	0.311059	0.688960
O48	O	1.298728	0.561059	0.938960
O49	O	0.621528	-0.244134	0.316981
O50	O	0.871528	0.005866	0.566981
O51	O	1.121528	0.255866	0.816981
O52	O	1.371528	0.505866	1.066981
O53	O	0.548690	-0.244122	0.244127
O54	O	0.798690	0.005878	0.494127
O55	O	1.048690	0.255878	0.744127
O56	O	1.298690	0.505878	0.994127
O57	O	0.676755	-0.188962	0.317014
O58	O	0.926755	0.061038	0.567014
O59	O	1.176755	0.311038	0.817014
O60	O	1.426755	0.561038	1.067014
O61	O	0.676639	-0.316980	0.188966
O62	O	0.926639	-0.066980	0.438966
O63	O	1.176639	0.183020	0.688966
O64	O	1.426639	0.433020	0.938966
O65	O	0.621462	-0.316967	0.244131
O66	O	0.871462	-0.066967	0.494131
O67	O	1.121462	0.183033	0.744131
O68	O	1.371462	0.433033	0.994131
C69	C	0.532408	-0.216528	0.216539
C70	C	0.782408	0.033472	0.466539
C71	C	1.032408	0.283472	0.716539
C72	C	1.282408	0.533472	0.966539
C73	C	0.482474	-0.216529	0.216534
C74	C	0.732474	0.033471	0.466534
C75	C	0.982474	0.283471	0.716534
C76	C	1.232474	0.533471	0.966534
C77	C	0.125894	-0.187777	0.187909
C78	C	0.375894	0.062223	0.437909
C79	C	0.625894	0.312223	0.687909
C80	C	0.875894	0.562223	0.937909
C81	C	0.313567	-0.187764	0.187882
C82	C	0.563567	0.062236	0.437882
C83	C	0.813567	0.312236	0.687882
C84	C	1.063567	0.562236	0.937882
O85	O	0.337838	-0.163279	0.163502
O86	O	0.587838	0.086721	0.413502
O87	O	0.837838	0.336721	0.663502
O88	O	1.087838	0.586721	0.913502
N89	N	0.337029	-0.216536	0.216556
N90	N	0.587029	0.033464	0.466556
N91	N	0.837029	0.283464	0.716556
N92	N	1.087029	0.533464	0.966556
C93	C	0.313569	-0.245312	0.245242
C94	C	0.563569	0.004688	0.495242
C95	C	0.813569	0.254688	0.745242
C96	C	1.063569	0.504688	0.995242
O97	O	0.337831	-0.269781	0.269634
O98	O	0.587831	-0.019781	0.519634
O99	O	0.837831	0.230219	0.769634
O100	O	1.087831	0.480219	1.019634
C101	C	0.125897	-0.245322	0.245271
C102	C	0.375897	0.004678	0.495271
C103	C	0.625897	0.254678	0.745271
C104	C	0.875897	0.504678	0.995271
C105	C	0.102438	-0.216551	0.216591
C106	C	0.352438	0.033449	0.466591
C107	C	0.602438	0.283449	0.716591
C108	C	0.852438	0.533449	0.966591
C109	C	0.102435	-0.159007	0.159232
C110	C	0.352435	0.090993	0.409232
C111	C	0.602435	0.340993	0.659232
C112	C	0.852435	0.590993	0.909232
C113	C	0.055520	-0.159013	0.159237
C114	C	0.305520	0.090987	0.409237
C115	C	0.555520	0.340987	0.659237
C116	C	0.805520	0.590987	0.909237
C117	C	0.032063	-0.187787	0.187920
C118	C	0.282063	0.062213	0.437920
C119	C	0.532063	0.312213	0.687920
C120	C	0.782063	0.562213	0.937920
C121	C	0.055522	-0.216556	0.216597
C122	C	0.305522	0.033444	0.466597
C123	C	0.555522	0.283444	0.716597
C124	C	0.805522	0.533444	0.966597
C125	C	0.102438	-0.274095	0.273958
C126	C	0.352438	-0.024095	0.523958
C127	C	0.602438	0.225905	0.773958
C128	C	0.852438	0.475905	1.023958
C129	C	0.055517	-0.274094	0.273964
C130	C	0.305517	-0.024094	0.523964
C131	C	0.555517	0.225906	0.773964
C132	C	0.805517	0.475906	1.023964
C133	C	0.032058	-0.245323	0.245284
C134	C	0.282058	0.004677	0.495284
C135	C	0.532058	0.254677	0.745284
C136	C	0.782058	0.504677	0.995284
C137	C	-0.014849	-0.245336	0.245284
C138	C	0.235151	0.004664	0.495284
C139	C	0.485151	0.254664	0.745284
C140	C	0.735151	0.504664	0.995284
N141	N	-0.038311	-0.216563	0.216610
N142	N	0.211689	0.033437	0.466610
N143	N	0.461689	0.283437	0.716610
N144	N	0.711689	0.533437	0.966610
C145	C	-0.014854	-0.187789	0.187927
C146	C	0.235146	0.062211	0.437927
C147	C	0.485146	0.312211	0.687927
C148	C	0.735146	0.562211	0.937927
C149	C	0.412100	-0.245305	0.245224
C150	C	0.662100	0.004695	0.495224
C151	C	0.912100	0.254695	0.745224
C152	C	1.162100	0.504695	0.995224
C153	C	0.459018	-0.245303	0.245216
C154	C	0.709018	0.004697	0.495216
C155	C	0.959018	0.254697	0.745216
C156	C	1.209018	0.504697	0.995216
C157	C	0.459013	-0.187755	0.187856
C158	C	0.709013	0.062245	0.437856
C159	C	0.959013	0.312245	0.687856
C160	C	1.209013	0.562245	0.937856
C161	C	0.412094	-0.187759	0.187862
C162	C	0.662094	0.062241	0.437862
C163	C	0.912094	0.312241	0.687862
C164	C	1.162094	0.562241	0.937862
C165	C	0.388638	-0.216533	0.216549
C166	C	0.638638	0.033467	0.466549
C167	C	0.888638	0.283467	0.716549
C168	C	1.138638	0.533467	0.966549
C169	C	-0.113380	-0.187802	0.187941
C170	C	0.136620	0.062198	0.437941
C171	C	0.386620	0.312198	0.687941
C172	C	0.636620	0.562198	0.937941
C173	C	-0.160300	-0.187811	0.187947
C174	C	0.089700	0.062189	0.437947
C175	C	0.339700	0.312189	0.687947
C176	C	0.589700	0.562189	0.937947
C177	C	-0.160291	-0.245358	0.245308
C178	C	0.089709	0.004642	0.495308
C179	C	0.339709	0.254642	0.745308
C180	C	0.589709	0.504642	0.995308
C181	C	-0.113375	-0.245351	0.245300
C182	C	0.136625	0.004649	0.495300
C183	C	0.386625	0.254649	0.745300
C184	C	0.636625	0.504649	0.995300
C185	C	-0.089921	-0.216569	0.216615
C186	C	0.160079	0.033431	0.466615
C187	C	0.410079	0.283431	0.716615
C188	C	0.660079	0.533431	0.966615
O189	O	-0.039149	-0.269804	0.269654
O190	O	0.210851	-0.019804	0.519654
O191	O	0.460851	0.230196	0.769654
O192	O	0.710851	0.480196	1.019654
O193	O	-0.039124	-0.163316	0.163546
O194	O	0.210876	0.086684	0.413546
O195	O	0.460876	0.336684	0.663546
O196	O	0.710876	0.586684	0.913546
C197	C	0.172810	-0.187771	0.187904
C198	C	0.422810	0.062229	0.437904
C199	C	0.672810	0.312229	0.687904
C200	C	0.922810	0.562229	0.937904
C201	C	0.196269	-0.216541	0.216580
C202	C	0.446269	0.033459	0.466580
C203	C	0.696269	0.283459	0.716580
C204	C	0.946269	0.533459	0.966580
C205	C	0.172812	-0.245315	0.245263
C206	C	0.422812	0.004685	0.495263
C207	C	0.672812	0.254685	0.745263
C208	C	0.922812	0.504685	0.995263
C209	C	0.243187	-0.216539	0.216573
C210	C	0.493187	0.033461	0.466573
C211	C	0.743187	0.283461	0.716573
C212	C	0.993187	0.533461	0.966573
C213	C	0.266643	-0.187764	0.187890
C214	C	0.516643	0.062236	0.437890
C215	C	0.766643	0.312236	0.687890
C216	C	1.016643	0.562236	0.937890
C217	C	0.243182	-0.158992	0.159216
C218	C	0.493182	0.091008	0.409216
C219	C	0.743182	0.341008	0.659216
C220	C	0.993182	0.591008	0.909216
C221	C	0.196266	-0.158997	0.159221
C222	C	0.446266	0.091003	0.409221
C223	C	0.696266	0.341003	0.659221
C224	C	0.946266	0.591003	0.909221
C225	C	0.196274	-0.274087	0.273937
C226	C	0.446274	-0.024087	0.523937
C227	C	0.696274	0.225913	0.773937
C228	C	0.946274	0.475913	1.023937
C229	C	0.243189	-0.274080	0.273929
C230	C	0.493189	-0.024080	0.523929
C231	C	0.743189	0.225920	0.773929
C232	C	0.993189	0.475920	1.023929
C233	C	0.266646	-0.245306	0.245247
C234	C	0.516646	0.004694	0.495247
C235	C	0.766646	0.254694	0.745247
C236	C	1.016646	0.504694	0.995247
C237	C	0.649050	-0.333274	0.216554
C238	C	0.899050	-0.083274	0.466554
C239	C	1.149050	0.166726	0.716554
C240	C	1.399050	0.416726	0.966554
C241	C	0.649056	-0.383209	0.216559
C242	C	0.899056	-0.133209	0.466559
C243	C	1.149056	0.116791	0.716559
C244	C	1.399056	0.366791	0.966559
C245	C	0.677914	-0.692846	0.187894
C246	C	0.927914	-0.442846	0.437894
C247	C	1.177914	-0.192846	0.687894
C248	C	1.427914	0.057154	0.937894
C249	C	0.677969	-0.880519	0.187911
C250	C	0.927969	-0.630519	0.437911
C251	C	1.177969	-0.380519	0.687911
C252	C	1.427969	-0.130519	0.937911
O253	O	0.702441	-0.904779	0.163521
O254	O	0.952441	-0.654779	0.413521
O255	O	1.202441	-0.404779	0.663521
O256	O	1.452441	-0.154779	0.913521
N257	N	0.649224	-0.903994	0.216610
N258	N	0.899224	-0.653994	0.466610
N259	N	1.149224	-0.403994	0.716610
N260	N	1.399224	-0.153994	0.966610
C261	C	0.620465	-0.880547	0.245308
C262	C	0.870465	-0.630547	0.495308
C263	C	1.120465	-0.380547	0.745308
C264	C	1.370465	-0.130547	0.995308
O265	O	0.596020	-0.904820	0.269722
O266	O	0.846020	-0.654820	0.519722
O267	O	1.096020	-0.404820	0.769722
O268	O	1.346020	-0.154820	1.019722
C269	C	0.620412	-0.692875	0.245293
C270	C	0.870412	-0.442875	0.495293
C271	C	1.120412	-0.192875	0.745293
C272	C	1.370412	0.057125	0.995293
C273	C	0.649156	-0.669403	0.216589
C274	C	0.899156	-0.419403	0.466589
C275	C	1.149156	-0.169403	0.716589
C276	C	1.399156	0.080597	0.966589
C277	C	0.706656	-0.669374	0.159192
C278	C	0.956656	-0.419374	0.409192
C279	C	1.206656	-0.169374	0.659192
C280	C	1.456656	0.080626	0.909192
C281	C	0.706640	-0.622459	0.159187
C282	C	0.956640	-0.372459	0.409187
C283	C	1.206640	-0.122459	0.659187
C284	C	1.456640	0.127541	0.909187
C285	C	0.677882	-0.599015	0.187882
C286	C	0.927882	-0.349015	0.437882
C287	C	1.177882	-0.099015	0.687882
C288	C	1.427882	0.150985	0.937882
C289	C	0.649140	-0.622487	0.216583
C290	C	0.899140	-0.372487	0.466583
C291	C	1.149140	-0.122487	0.716583
C292	C	1.399140	0.127513	0.966583
C293	C	0.591656	-0.669429	0.273993
C294	C	0.841656	-0.419429	0.523993
C295	C	1.091656	-0.169429	0.773993
C296	C	1.341656	0.080571	1.023993
C297	C	0.591646	-0.622508	0.273988
C298	C	0.841646	-0.372508	0.523988
C299	C	1.091646	-0.122508	0.773988
C300	C	1.341646	0.127492	1.023988
C301	C	0.620390	-0.599036	0.245284
C302	C	0.870390	-0.349036	0.495284
C303	C	1.120390	-0.099036	0.745284
C304	C	1.370390	0.150964	0.995284
C305	C	0.620367	-0.552128	0.245273
C306	C	0.870367	-0.302128	0.495273
C307	C	1.120367	-0.052128	0.745273
C308	C	1.370367	0.197872	0.995273
N309	N	0.649112	-0.528654	0.216574
N310	N	0.899112	-0.278654	0.466574
N311	N	1.149112	-0.028654	0.716574
N312	N	1.399112	0.221346	0.966574
C313	C	0.677869	-0.552097	0.187879
C314	C	0.927869	-0.302097	0.437879
C315	C	1.177869	-0.052097	0.687879
C316	C	1.427869	0.197903	0.937879
C317	C	0.620494	-0.979078	0.245314
C318	C	0.870494	-0.729078	0.495314
C319	C	1.120494	-0.479078	0.745314
C320	C	1.370494	-0.229078	0.995314
C321	C	0.620507	-1.025995	0.245317
C322	C	0.870507	-0.775995	0.495317
C323	C	1.120507	-0.525995	0.745317
C324	C	1.370507	-0.275995	0.995317
C325	C	0.678012	-1.025964	0.187920
C326	C	0.928012	-0.775964	0.437920
C327	C	1.178012	-0.525964	0.687920
C328	C	1.428012	-0.275964	0.937920
C329	C	0.677996	-0.979046	0.187915
C330	C	0.927996	-0.729046	0.437915
C331	C	1.177996	-0.479046	0.687915
C332	C	1.427996	-0.229046	0.937915
C333	C	0.649239	-0.955603	0.216615
C334	C	0.899239	-0.705603	0.466615
C335	C	1.149239	-0.455603	0.716615
C336	C	1.399239	-0.205603	0.966615
C337	C	0.677834	-0.453572	0.187868
C338	C	0.927834	-0.203572	0.437868
C339	C	1.177834	0.046428	0.687868
C340	C	1.427834	0.296428	0.937868
C341	C	0.677814	-0.406652	0.187864
C342	C	0.927814	-0.156652	0.437864
C343	C	1.177814	0.093348	0.687864
C344	C	1.427814	0.343348	0.937864
C345	C	0.620311	-0.406687	0.245262
C346	C	0.870311	-0.156687	0.495262
C347	C	1.120311	0.093313	0.745262
C348	C	1.370311	0.343313	0.995262
C349	C	0.620329	-0.453603	0.245265
C350	C	0.870329	-0.203603	0.495265
C351	C	1.120329	0.046397	0.745265
C352	C	1.370329	0.296397	0.995265
C353	C	0.649094	-0.477044	0.216567
C354	C	0.899094	-0.227044	0.466567
C355	C	1.149094	0.022956	0.716567
C356	C	1.399094	0.272956	0.966567
O357	O	0.595912	-0.527840	0.269653
O358	O	0.845912	-0.277840	0.519653
O359	O	1.095912	-0.027840	0.769653
O360	O	1.345912	0.222160	1.019653
O361	O	0.702318	-0.527817	0.163475
O362	O	0.952318	-0.277817	0.413475
O363	O	1.202318	-0.027817	0.663475
O364	O	1.452318	0.222183	0.913475
C365	C	0.677930	-0.739762	0.187899
C366	C	0.927930	-0.489762	0.437899
C367	C	1.177930	-0.239762	0.687899
C368	C	1.427930	0.010238	0.937899
C369	C	0.649188	-0.763234	0.216601
C370	C	0.899188	-0.513234	0.466601
C371	C	1.149188	-0.263234	0.716601
C372	C	1.399188	-0.013234	0.966601
C373	C	0.620430	-0.739790	0.245296
C374	C	0.870430	-0.489790	0.495296
C375	C	1.120430	-0.239790	0.745296
C376	C	1.370430	0.010210	0.995296
C377	C	0.649200	-0.810152	0.216604
C378	C	0.899200	-0.560152	0.466604
C379	C	1.149200	-0.310152	0.716604
C380	C	1.399200	-0.060152	0.966604
C381	C	0.677958	-0.833595	0.187909
C382	C	0.927958	-0.583595	0.437909
C383	C	1.177958	-0.333595	0.687909
C384	C	1.427958	-0.083595	0.937909
C385	C	0.706703	-0.810120	0.159210
C386	C	0.956703	-0.560120	0.409210
C387	C	1.206703	-0.310120	0.659210
C388	C	1.456703	-0.060120	0.909210
C389	C	0.706687	-0.763205	0.159204
C390	C	0.956687	-0.513205	0.409204
C391	C	1.206687	-0.263205	0.659204
C392	C	1.456687	-0.013205	0.909204
C393	C	0.591685	-0.763265	0.273995
C394	C	0.841685	-0.513265	0.523995
C395	C	1.091685	-0.263265	0.773995
C396	C	1.341685	-0.013265	1.023995
C397	C	0.591703	-0.810180	0.273998
C398	C	0.841703	-0.560180	0.523998
C399	C	1.091703	-0.310180	0.773998
C400	C	1.341703	-0.060180	1.023998
C401	C	0.620461	-0.833624	0.245302
C402	C	0.870461	-0.583624	0.495302
C403	C	1.120461	-0.333624	0.745302
C404	C	1.370461	-0.083624	0.995302
C405	C	0.766309	-0.216575	0.216613
C406	C	1.016309	0.033425	0.466613
C407	C	1.266309	0.283425	0.716613
C408	C	1.516309	0.533425	0.966613
C409	C	0.816244	-0.216586	0.216629
C410	C	1.066244	0.033414	0.466629
C411	C	1.316244	0.283414	0.716629
C412	C	1.566244	0.533414	0.966629
C413	C	0.649143	-0.216548	0.333754
C414	C	0.899143	0.033452	0.583754
C415	C	1.149143	0.283452	0.833754
C416	C	1.399143	0.533452	1.083754
C417	C	0.649148	-0.216546	0.383689
C418	C	0.899148	0.033454	0.633689
C419	C	1.149148	0.283454	0.883689
C420	C	1.399148	0.533454	1.133689
C421	C	0.649225	-0.099373	0.216608
C422	C	0.899225	0.150627	0.466608
C423	C	1.149225	0.400627	0.716608
C424	C	1.399225	0.650627	0.966608
C425	C	0.649265	-0.049439	0.216622
C426	C	0.899265	0.200561	0.466622
C427	C	1.149265	0.450561	0.716622
C428	C	1.399265	0.700561	0.966622
C429	C	0.649145	-0.216523	0.099853
C430	C	0.899145	0.033477	0.349853
C431	C	1.149145	0.283477	0.599853
C432	C	1.399145	0.533477	0.849853
C433	C	0.649227	-0.216398	0.049919
C434	C	0.899227	0.033602	0.299919
C435	C	1.149227	0.283602	0.549919
C436	C	1.399227	0.533602	0.799919
C437	C	0.677935	-0.187743	0.693352
C438	C	0.927935	0.062257	0.943352
C439	C	1.177935	0.312257	1.193352
C440	C	1.427935	0.562257	1.443352
C441	C	0.677957	-0.187705	0.881026
C442	C	0.927957	0.062295	1.131026
C443	C	1.177957	0.312295	1.381026
C444	C	1.427957	0.562295	1.631026
O445	O	0.702399	-0.163258	0.905307
O446	O	0.952399	0.086742	1.155307
O447	O	1.202399	0.336742	1.405307
O448	O	1.452399	0.586742	1.655307
N449	N	0.649208	-0.216426	0.904474
N450	N	0.899208	0.033574	1.154474
N451	N	1.149208	0.283574	1.404474
N452	N	1.399208	0.533574	1.654474
C453	C	0.620449	-0.245156	0.881001
C454	C	0.870449	0.004844	1.131001
C455	C	1.120449	0.254844	1.381001
C456	C	1.370449	0.504844	1.631001
O457	O	0.595993	-0.269581	0.905252
O458	O	0.845993	-0.019581	1.155252
O459	O	1.095993	0.230419	1.405252
O460	O	1.345993	0.480419	1.655252
C461	C	0.620424	-0.245192	0.693329
C462	C	0.870424	0.004808	0.943329
C463	C	1.120424	0.254808	1.193329
C464	C	1.370424	0.504808	1.443329
C465	C	0.649179	-0.216472	0.669883
C466	C	0.899179	0.033528	0.919883
C467	C	1.149179	0.283528	1.169883
C468	C	1.399179	0.533528	1.419883
C469	C	0.706687	-0.159025	0.669906
C470	C	0.956687	0.090975	0.919906
C471	C	1.206687	0.340975	1.169906
C472	C	1.456687	0.590975	1.419906
C473	C	0.706683	-0.159037	0.622991
C474	C	0.956683	0.090963	0.872991
C475	C	1.206683	0.340963	1.122991
C476	C	1.456683	0.590963	1.372991
C477	C	0.677927	-0.187766	0.599521
C478	C	0.927927	0.062234	0.849521
C479	C	1.177927	0.312234	1.099521
C480	C	1.427927	0.562234	1.349521
C481	C	0.649175	-0.216484	0.622968
C482	C	0.899175	0.033516	0.872968
C483	C	1.149175	0.283516	1.122968
C484	C	1.399175	0.533516	1.372968
C485	C	0.591663	-0.273920	0.669857
C486	C	0.841663	-0.023920	0.919857
C487	C	1.091663	0.226080	1.169857
C488	C	1.341663	0.476080	1.419857
C489	C	0.591659	-0.273925	0.622936
C490	C	0.841659	-0.023925	0.872936
C491	C	1.091659	0.226075	1.122936
C492	C	1.341659	0.476075	1.372936
C493	C	0.620414	-0.245206	0.599490
C494	C	0.870414	0.004794	0.849490
C495	C	1.120414	0.254794	1.099490
C496	C	1.370414	0.504794	1.349490
C497	C	0.620415	-0.245225	0.552583
C498	C	0.870415	0.004775	0.802583
C499	C	1.120415	0.254775	1.052583
C500	C	1.370415	0.504775	1.302583
N501	N	0.649164	-0.216504	0.529134
N502	N	0.899164	0.033496	0.779134
N503	N	1.149164	0.283496	1.029134
N504	N	1.399164	0.533496	1.279134
C505	C	0.677920	-0.187774	0.552604
C506	C	0.927920	0.062226	0.802604
C507	C	1.177920	0.312226	1.052604
C508	C	1.427920	0.562226	1.302604
C509	C	0.620464	-0.245136	0.979532
C510	C	0.870464	0.004864	1.229532
C511	C	1.120464	0.254864	1.479532
C512	C	1.370464	0.504864	1.729532
C513	C	0.620471	-0.245128	1.026450
C514	C	0.870471	0.004872	1.276450
C515	C	1.120471	0.254872	1.526450
C516	C	1.370471	0.504872	1.776450
C517	C	0.677979	-0.187675	1.026471
C518	C	0.927979	0.062325	1.276471
C519	C	1.177979	0.312325	1.526471
C520	C	1.427979	0.562325	1.776471
C521	C	0.677974	-0.187686	0.979552
C522	C	0.927974	0.062314	1.229552
C523	C	1.177974	0.312314	1.479552
C524	C	1.427974	0.562314	1.729552
C525	C	0.649214	-0.216415	0.956084
C526	C	0.899214	0.033585	1.206084
C527	C	1.149214	0.283585	1.456084
C528	C	1.399214	0.533585	1.706084
C529	C	0.677910	-0.187801	0.454078
C530	C	0.927910	0.062199	0.704078
C531	C	1.177910	0.312199	0.954078
C532	C	1.427910	0.562199	1.204078
C533	C	0.677904	-0.187817	0.407158
C534	C	0.927904	0.062183	0.657158
C535	C	1.177904	0.312183	0.907158
C536	C	1.427904	0.562183	1.157158
C537	C	0.620395	-0.245267	0.407141
C538	C	0.870395	0.004733	0.657141
C539	C	1.120395	0.254733	0.907141
C540	C	1.370395	0.504733	1.157141
C541	C	0.620401	-0.245253	0.454057
C542	C	0.870401	0.004747	0.704057
C543	C	1.120401	0.254747	0.954057
C544	C	1.370401	0.504747	1.204057
C545	C	0.649161	-0.216517	0.477524
C546	C	0.899161	0.033483	0.727524
C547	C	1.149161	0.283483	0.977524
C548	C	1.399161	0.533483	1.227524
O549	O	0.595982	-0.269655	0.528272
O550	O	0.845982	-0.019655	0.778272
O551	O	1.095982	0.230345	1.028272
O552	O	1.345982	0.480345	1.278272
O553	O	0.702366	-0.163346	0.528345
O554	O	0.952366	0.086654	0.778345
O555	O	1.202366	0.336654	1.028345
O556	O	1.452366	0.586654	1.278345
C557	C	0.677939	-0.187731	0.740268
C558	C	0.927939	0.062269	0.990268
C559	C	1.177939	0.312269	1.240268
C560	C	1.427939	0.562269	1.490268
C561	C	0.649187	-0.216449	0.763714
C562	C	0.899187	0.033551	1.013714
C563	C	1.149187	0.283551	1.263714
C564	C	1.399187	0.533551	1.513714
C565	C	0.620431	-0.245178	0.740245
C566	C	0.870431	0.004822	0.990245
C567	C	1.120431	0.254822	1.240245
C568	C	1.370431	0.504822	1.490245
C569	C	0.649194	-0.216441	0.810632
C570	C	0.899194	0.033559	1.060632
C571	C	1.149194	0.283559	1.310632
C572	C	1.399194	0.533559	1.560632
C573	C	0.677950	-0.187711	0.834101
C574	C	0.927950	0.062289	1.084101
C575	C	1.177950	0.312289	1.334101
C576	C	1.427950	0.562289	1.584101
C577	C	0.706699	-0.158990	0.810653
C578	C	0.956699	0.091010	1.060653
C579	C	1.206699	0.341010	1.310653
C580	C	1.456699	0.591010	1.560653
C581	C	0.706695	-0.159002	0.763737
C582	C	0.956695	0.090998	1.013737
C583	C	1.206695	0.340998	1.263737
C584	C	1.456695	0.590998	1.513737
C585	C	0.591682	-0.273899	0.763693
C586	C	0.841682	-0.023899	1.013693
C587	C	1.091682	0.226101	1.263693
C588	C	1.341682	0.476101	1.513693
C589	C	0.591689	-0.273886	0.810609
C590	C	0.841689	-0.023886	1.060609
C591	C	1.091689	0.226114	1.310609
C592	C	1.341689	0.476114	1.560609
C593	C	0.620445	-0.245156	0.834078
C594	C	0.870445	0.004844	1.084078
C595	C	1.120445	0.254844	1.334078
C596	C	1.370445	0.504844	1.584078
H597	H	0.262288	-0.135564	0.135860
H598	H	0.512288	0.114436	0.385860
H599	H	0.762288	0.364436	0.635860
H600	H	1.012288	0.614436	0.885860
H601	H	0.701388	-0.164300	0.960465
H602	H	0.951388	0.085700	1.210465
H603	H	1.201388	0.335700	1.460465
H604	H	1.451388	0.585700	1.710465
H605	H	0.478119	-0.164326	0.164502
H606	H	0.728119	0.085674	0.414502
H607	H	0.978119	0.335674	0.664502
H608	H	1.228119	0.585674	0.914502
Cl609	Cl	0.272675	-0.310255	0.309985
Cl610	Cl	0.522675	-0.060255	0.559985
Cl611	Cl	0.772675	0.189745	0.809985
Cl612	Cl	1.022675	0.439745	1.059985
Cl613	Cl	0.714133	-0.949543	0.151830
Cl614	Cl	0.964133	-0.699543	0.401830
Cl615	Cl	1.214133	-0.449543	0.651830
Cl616	Cl	1.464133	-0.199543	0.901830
Cl617	Cl	0.584163	-0.377207	0.281337
Cl618	Cl	0.834163	-0.127207	0.531337
Cl619	Cl	1.084163	0.122793	0.781337
Cl620	Cl	1.334163	0.372793	1.031337
H621	H	0.036424	-0.135584	0.135884
H622	H	0.286424	0.114416	0.385884
H623	H	0.536424	0.364416	0.635884
H624	H	0.786424	0.614416	0.885884
H625	H	0.597061	-0.268519	1.045536
H626	H	0.847061	-0.018519	1.295536
H627	H	1.097061	0.231481	1.545536
H628	H	1.347061	0.481481	1.795536
Cl629	Cl	-0.189788	-0.151639	0.151890
Cl630	Cl	0.060212	0.098361	0.401890
Cl631	Cl	0.310212	0.348361	0.651890
Cl632	Cl	0.560212	0.598361	0.901890
Cl633	Cl	0.555529	-0.733800	0.310073
Cl634	Cl	0.805529	-0.483800	0.560073
Cl635	Cl	1.055529	-0.233800	0.810073
Cl636	Cl	1.305529	0.016200	1.060073
H637	H	0.597044	-0.268533	0.960428
H638	H	0.847044	-0.018533	1.210428
H639	H	1.097044	0.231467	1.460428
H640	H	1.347044	0.481467	1.710428
Cl641	Cl	0.166793	-0.310265	0.309998
Cl642	Cl	0.416793	-0.060265	0.559998
Cl643	Cl	0.666793	0.189735	0.809998
Cl644	Cl	0.916793	0.439735	1.059998
H645	H	0.568292	-0.829287	0.297372
H646	H	0.818292	-0.579287	0.547372
H647	H	1.068292	-0.329287	0.797372
H648	H	1.318292	-0.079287	1.047372
Cl649	Cl	0.131915	-0.122828	0.123170
Cl650	Cl	0.381915	0.127172	0.373170
Cl651	Cl	0.631915	0.377172	0.623170
Cl652	Cl	0.881915	0.627172	0.873170
Cl653	Cl	0.584338	-0.949614	0.281397
Cl654	Cl	0.834338	-0.699614	0.531397
Cl655	Cl	1.084338	-0.449614	0.781397
Cl656	Cl	1.334338	-0.199614	1.031397
Cl657	Cl	0.742845	-0.122895	0.734269
Cl658	Cl	0.992845	0.127105	0.984269
Cl659	Cl	1.242845	0.377105	1.234269
Cl660	Cl	1.492845	0.627105	1.484269
H661	H	0.392997	-0.164329	0.164510
H662	H	0.642997	0.085671	0.414510
H663	H	0.892997	0.335671	0.664510
H664	H	1.142997	0.585671	0.914510
H665	H	0.730093	-0.744097	0.135831
H666	H	0.980093	-0.494097	0.385831
H667	H	1.230093	-0.244097	0.635831
H668	H	1.480093	0.005903	0.885831
H669	H	0.730115	-0.135600	0.829770
H670	H	0.980115	0.114400	1.079770
H671	H	1.230115	0.364400	1.329770
H672	H	1.480115	0.614400	1.579770
Cl673	Cl	0.488503	-0.281481	0.281265
Cl674	Cl	0.738503	-0.031481	0.531265
Cl675	Cl	0.988503	0.218519	0.781265
Cl676	Cl	1.238503	0.468519	1.031265
Cl677	Cl	0.382619	-0.281484	0.281289
Cl678	Cl	0.632619	-0.031484	0.531289
Cl679	Cl	0.882619	0.218516	0.781289
Cl680	Cl	1.132619	0.468516	1.031289
H681	H	0.597097	-1.045102	0.268687
H682	H	0.847097	-0.795102	0.518687
H683	H	1.097097	-0.545102	0.768687
H684	H	1.347097	-0.295102	1.018687
H685	H	0.701220	-0.387543	0.164488
H686	H	0.951220	-0.137543	0.414488
H687	H	1.201220	0.112457	0.664488
H688	H	1.451220	0.362457	0.914488
Cl689	Cl	0.742848	-0.122909	0.699402
Cl690	Cl	0.992848	0.127091	0.949402
Cl691	Cl	1.242848	0.377091	1.199402
Cl692	Cl	1.492848	0.627091	1.449402
H693	H	0.701258	-0.472652	0.164500
H694	H	0.951258	-0.222652	0.414500
H695	H	1.201258	0.027348	0.664500
H696	H	1.451258	0.277348	0.914500
H697	H	0.568248	-0.297306	0.688939
H698	H	0.818248	-0.047306	0.938939
H699	H	1.068248	0.202694	1.188939
H700	H	1.318248	0.452694	1.438939
Cl701	Cl	0.742854	-0.839601	0.123135
Cl702	Cl	0.992854	-0.589601	0.373135
Cl703	Cl	1.242854	-0.339601	0.623135
Cl704	Cl	1.492854	-0.089601	0.873135
H705	H	0.036422	-0.297524	0.297326
H706	H	0.286422	-0.047524	0.547326
H707	H	0.536422	0.202476	0.797326
H708	H	0.786422	0.452476	1.047326
Cl709	Cl	0.555500	-0.310043	0.593436
Cl710	Cl	0.805500	-0.060043	0.843436
Cl711	Cl	1.055500	0.189957	1.093436
Cl712	Cl	1.305500	0.439957	1.343436
Cl713	Cl	0.714056	-0.151710	0.377686
Cl714	Cl	0.964056	0.098290	0.627686
Cl715	Cl	1.214056	0.348290	0.877686
Cl716	Cl	1.464056	0.598290	1.127686
H717	H	0.177170	-0.135568	0.135868
H718	H	0.427170	0.114432	0.385868
H719	H	0.677170	0.364432	0.635868
H720	H	0.927170	0.614432	0.885868
H721	H	0.121530	-0.297524	0.297312
H722	H	0.371530	-0.047524	0.547312
H723	H	0.621530	0.202476	0.797312
H724	H	0.871530	0.452476	1.047312
Cl725	Cl	-0.189788	-0.281535	0.281358
Cl726	Cl	0.060212	-0.031535	0.531358
Cl727	Cl	0.310212	0.218465	0.781358
Cl728	Cl	0.560212	0.468465	1.031358
Cl729	Cl	0.714062	-0.151673	0.483572
Cl730	Cl	0.964062	0.098327	0.733572
Cl731	Cl	1.214062	0.348327	0.983572
Cl732	Cl	1.464062	0.598327	1.233572
H733	H	0.596984	-0.268659	0.388024
H734	H	0.846984	-0.018659	0.638024
H735	H	1.096984	0.231341	0.888024
H736	H	1.346984	0.481341	1.138024
H737	H	0.568274	-0.297277	0.829695
H738	H	0.818274	-0.047277	1.079695
H739	H	1.068274	0.202723	1.329695
H740	H	1.318274	0.452723	1.579695
Cl741	Cl	-0.083883	-0.281525	0.281350
Cl742	Cl	0.166117	-0.031525	0.531350
Cl743	Cl	0.416117	0.218475	0.781350
Cl744	Cl	0.666117	0.468475	1.031350
Cl745	Cl	0.714163	-1.055445	0.151846
Cl746	Cl	0.964163	-0.805445	0.401846
Cl747	Cl	1.214163	-0.555445	0.651846
Cl748	Cl	1.464163	-0.305445	0.901846
H749	H	0.596991	-0.268643	0.473148
H750	H	0.846991	-0.018643	0.723148
H751	H	1.096991	0.231357	0.973148
H752	H	1.346991	0.481357	1.223148
Cl753	Cl	0.742784	-0.592958	0.123106
Cl754	Cl	0.992784	-0.342958	0.373106
Cl755	Cl	1.242784	-0.092958	0.623106
Cl756	Cl	1.492784	0.157042	0.873106
Cl757	Cl	0.555493	-0.593040	0.310071
Cl758	Cl	0.805493	-0.343040	0.560071
Cl759	Cl	1.055493	-0.093040	0.810071
Cl760	Cl	1.305493	0.156960	1.060071
Cl761	Cl	0.742813	-0.698837	0.123113
Cl762	Cl	0.992813	-0.448837	0.373113
Cl763	Cl	1.242813	-0.198837	0.623113
Cl764	Cl	1.492813	0.051163	0.873113
Cl765	Cl	0.555524	-0.698925	0.310086
Cl766	Cl	0.805524	-0.448925	0.560086
Cl767	Cl	1.055524	-0.198925	0.810086
Cl768	Cl	1.305524	0.051075	1.060086
Cl769	Cl	0.584184	-0.483111	0.281341
Cl770	Cl	0.834184	-0.233111	0.531341
Cl771	Cl	1.084184	0.016889	0.781341
Cl772	Cl	1.334184	0.266889	1.031341
H773	H	0.730097	-0.135650	0.603905
H774	H	0.980097	0.114350	0.853905
H775	H	1.230097	0.364350	1.103905
H776	H	1.480097	0.614350	1.353905
H777	H	0.701393	-0.164283	1.045587
H778	H	0.951393	0.085717	1.295587
H779	H	1.201393	0.335717	1.545587
H780	H	1.451393	0.585717	1.795587
H781	H	-0.094290	-0.164363	0.164584
H782	H	0.155710	0.085637	0.414584
H783	H	0.405710	0.335637	0.664584
H784	H	0.655710	0.585637	0.914584
Cl785	Cl	0.555527	-0.310020	0.734196
Cl786	Cl	0.805527	-0.060020	0.984196
Cl787	Cl	1.055527	0.189980	1.234196
Cl788	Cl	1.305527	0.439980	1.484196
