data_functionalizedCrystal
_audit_creation_method	'MofGen! by Chris Wilmer'
_symmetry_space_group_name_H-M	'P1'
_symmetry_Int_Tables_number	1
_symmetry_cell_setting	triclinic
loop_
_symmetry_equiv_pos_as_xyz
  x,y,z
_cell_length_a	18.050589
_cell_length_b	18.215407
_cell_length_c	18.215399
_cell_angle_alpha	89.982187
_cell_angle_beta	89.976397
_cell_angle_gamma	90.022734
loop_
_atom_site_label
_atom_site_type_symbol
_atom_site_fract_x
_atom_site_fract_y
_atom_site_fract_z
Zn1	Zn	-0.295776	1.125055	-0.416098
Zn2	Zn	0.037558	1.458388	-0.082765
Zn3	Zn	0.370891	1.791722	0.250568
Zn4	Zn	-0.419971	1.124956	-0.293041
Zn5	Zn	-0.086637	1.458289	0.040292
Zn6	Zn	0.246696	1.791623	0.373625
Zn7	Zn	-0.295787	1.001987	-0.293050
Zn8	Zn	0.037546	1.335321	0.040283
Zn9	Zn	0.370879	1.668654	0.373617
Zn10	Zn	-0.419917	1.001946	-0.416071
Zn11	Zn	-0.086583	1.335279	-0.082737
Zn12	Zn	0.246750	1.668613	0.250596
O13	O	-0.357863	1.063486	-0.354565
O14	O	-0.024529	1.396819	-0.021232
O15	O	0.308804	1.730153	0.312102
O16	O	-0.312268	1.228026	-0.399783
O17	O	0.021065	1.561359	-0.066449
O18	O	0.354398	1.894693	0.266884
O19	O	-0.403525	1.108620	-0.190058
O20	O	-0.070192	1.441953	0.143275
O21	O	0.263142	1.775287	0.476608
O22	O	-0.191861	1.018371	-0.309388
O23	O	0.141472	1.351705	0.023945
O24	O	0.474806	1.685038	0.357279
O25	O	-0.403514	1.227953	-0.309373
O26	O	-0.070181	1.561287	0.023960
O27	O	0.263153	1.894620	0.357293
O28	O	-0.191853	1.108788	-0.399791
O29	O	0.141481	1.442122	-0.066458
O30	O	0.474814	1.775455	0.266876
O31	O	-0.312288	1.018275	-0.190065
O32	O	0.021045	1.351609	0.143269
O33	O	0.354379	1.684942	0.476602
O34	O	-0.312235	0.898998	-0.309361
O35	O	0.021098	1.232331	0.023972
O36	O	0.354431	1.565664	0.357306
O37	O	-0.403422	1.018301	-0.519059
O38	O	-0.070088	1.351634	-0.185725
O39	O	0.263245	1.684967	0.147608
O40	O	-0.403433	0.898967	-0.399744
O41	O	-0.070099	1.232301	-0.066410
O42	O	0.263234	1.565634	0.266923
O43	O	-0.312216	1.108748	-0.519079
O44	O	0.021117	1.442082	-0.185746
O45	O	0.354451	1.775415	0.147588
O46	O	-0.523888	1.108580	-0.309346
O47	O	-0.190555	1.441913	0.023987
O48	O	0.142778	1.775247	0.357320
O49	O	-0.523848	1.018205	-0.399735
O50	O	-0.190515	1.351538	-0.066402
O51	O	0.142818	1.684872	0.266931
C52	C	-0.357830	0.872280	-0.354551
C53	C	-0.024497	1.205613	-0.021217
C54	C	0.308837	1.538947	0.312116
C55	C	-0.357834	0.790481	-0.354562
C56	C	-0.024500	1.123814	-0.021229
C57	C	0.308833	1.457148	0.312105
C58	C	-0.310443	0.525456	-0.401716
C59	C	0.022891	0.858789	-0.068383
C60	C	0.356224	1.192122	0.264950
C61	C	-0.310431	0.602314	-0.401714
C62	C	0.022903	0.935648	-0.068381
C63	C	0.356236	1.268981	0.264953
C64	C	-0.405307	0.602258	-0.307430
C65	C	-0.071973	0.935591	0.025903
C66	C	0.261360	1.268925	0.359237
C67	C	-0.405322	0.525401	-0.307437
C68	C	-0.071989	0.858734	0.025897
C69	C	0.261345	1.192067	0.359230
C70	C	-0.357886	0.487001	-0.354579
C71	C	-0.024552	0.820335	-0.021245
C72	C	0.308781	1.153668	0.312088
C73	C	-0.357858	0.640717	-0.354570
C74	C	-0.024525	0.974051	-0.021236
C75	C	0.308808	1.307384	0.312097
C76	C	-0.357846	0.724051	-0.354567
C77	C	-0.024512	1.057384	-0.021234
C78	C	0.308821	1.390718	0.312100
C79	C	-0.357899	0.403662	-0.354583
C80	C	-0.024566	0.736996	-0.021249
C81	C	0.308768	1.070329	0.312084
C82	C	-0.550815	1.063397	-0.354553
C83	C	-0.217481	1.396731	-0.021220
C84	C	0.115852	1.730064	0.312114
C85	C	-0.633361	1.063427	-0.354572
C86	C	-0.300027	1.396760	-0.021239
C87	C	0.033306	1.730093	0.312094
C88	C	-0.832816	1.014329	-0.403709
C89	C	-0.499483	1.347662	-0.070375
C90	C	-0.166150	1.680996	0.262958
C91	C	-0.882255	0.996389	-0.336555
C92	C	-0.548922	1.329723	-0.003222
C93	C	-0.215588	1.663056	0.330112
C94	C	-0.784491	1.063499	-0.354582
C95	C	-0.451158	1.396832	-0.021249
C96	C	-0.117824	1.730166	0.312085
C97	C	-0.882134	1.081475	-0.421743
C98	C	-0.548801	1.414808	-0.088410
C99	C	-0.215467	1.748141	0.244923
C100	C	-0.930476	1.063567	-0.354597
C101	C	-0.597143	1.396901	-0.021264
C102	C	-0.263809	1.730234	0.312070
C103	C	-0.832842	1.045524	-0.287393
C104	C	-0.499509	1.378857	0.045941
C105	C	-0.166176	1.712191	0.379274
C106	C	-0.832717	1.130641	-0.372626
C107	C	-0.499383	1.463974	-0.039293
C108	C	-0.166050	1.797307	0.294041
C109	C	-0.882133	1.112726	-0.305426
C110	C	-0.548800	1.446060	0.027907
C111	C	-0.215466	1.779393	0.361240
C112	C	-0.700393	1.063458	-0.354574
C113	C	-0.367059	1.396791	-0.021241
C114	C	-0.033726	1.730124	0.312093
C115	C	-1.014572	1.063609	-0.354597
C116	C	-0.681239	1.396942	-0.021264
C117	C	-0.347906	1.730275	0.312069
C118	C	-0.164157	1.063595	-0.354594
C119	C	0.169176	1.396929	-0.021260
C120	C	0.502510	1.730262	0.312073
C121	C	-0.081611	1.063642	-0.354606
C122	C	0.251722	1.396975	-0.021272
C123	C	0.585055	1.730309	0.312061
C124	C	-0.357811	1.063531	-0.546518
C125	C	-0.024478	1.396864	-0.213185
C126	C	0.308855	1.730198	0.120149
C127	C	-0.357790	1.063550	-0.628317
C128	C	-0.024456	1.396883	-0.294984
C129	C	0.308877	1.730217	0.038350
C130	C	-0.357896	1.255439	-0.354580
C131	C	-0.024563	1.588772	-0.021247
C132	C	0.308771	1.922106	0.312087
C133	C	-0.357910	1.337238	-0.354586
C134	C	-0.024577	1.670571	-0.021253
C135	C	0.308756	2.003905	0.312080
C136	C	-0.310254	1.110663	-0.816523
C137	C	0.023079	1.443996	-0.483190
C138	C	0.356412	1.777330	-0.149856
C139	C	-0.310233	1.110672	-0.893382
C140	C	0.023101	1.444005	-0.560048
C141	C	0.356434	1.777338	-0.226715
C142	C	-0.405210	1.016489	-0.893349
C143	C	-0.071877	1.349823	-0.560016
C144	C	0.261457	1.683156	-0.226683
C145	C	-0.405227	1.016477	-0.816492
C146	C	-0.071894	1.349811	-0.483159
C147	C	0.261439	1.683144	-0.149825
C148	C	-0.357751	1.063568	-0.778081
C149	C	-0.024417	1.396902	-0.444747
C150	C	0.308916	1.730235	-0.111414
C151	C	-0.357712	1.063589	-0.931797
C152	C	-0.024378	1.396922	-0.598463
C153	C	0.308955	1.730256	-0.265130
C154	C	-0.357689	1.063598	-1.015131
C155	C	-0.024355	1.396932	-0.681797
C156	C	0.308978	1.730265	-0.348464
C157	C	-0.357773	1.063558	-0.694742
C158	C	-0.024439	1.396892	-0.361408
C159	C	0.308894	1.730225	-0.028075
C160	C	-0.357860	1.063484	-0.163359
C161	C	-0.024527	1.396817	0.169974
C162	C	0.308807	1.730150	0.503308
C163	C	-0.357673	1.063607	-0.081560
C164	C	-0.024339	1.396941	0.251773
C165	C	0.308994	1.730274	0.585106
H166	H	-0.811162	0.972687	-0.445195
H167	H	-0.477828	1.306020	-0.111861
H168	H	-0.144495	1.639353	0.221472
H169	H	-0.271817	0.494193	-0.440102
H170	H	0.061517	0.827526	-0.106769
H171	H	0.394850	1.160860	0.226564
H172	H	-0.810943	1.187375	-0.387906
H173	H	-0.477609	1.520708	-0.054573
H174	H	-0.144276	1.854042	0.278760
Cl175	Cl	-0.464896	0.957296	-0.941643
Cl176	Cl	-0.131562	1.290630	-0.608309
Cl177	Cl	0.201771	1.623963	-0.274976
Cl178	Cl	-0.464938	0.957263	-0.768161
Cl179	Cl	-0.131604	1.290597	-0.434827
Cl180	Cl	0.201729	1.623930	-0.101494
Cl181	Cl	-0.250787	0.650653	-0.460978
Cl182	Cl	0.082546	0.983987	-0.127645
Cl183	Cl	0.415879	1.317320	0.205689
H184	H	-0.443960	0.494090	-0.269051
H185	H	-0.110627	0.827424	0.064282
H186	H	0.222707	1.160757	0.397616
Cl187	Cl	-0.464934	0.650536	-0.248166
Cl188	Cl	-0.131601	0.983870	0.085168
Cl189	Cl	0.201733	1.317203	0.418501
H190	H	-0.811280	1.030281	-0.230586
H191	H	-0.477947	1.363615	0.102748
H192	H	-0.144613	1.696948	0.436081
Cl193	Cl	-0.915357	1.176972	-0.241224
Cl194	Cl	-0.582023	1.510305	0.092110
Cl195	Cl	-0.248690	1.843639	0.425443
Cl196	Cl	-0.915849	0.908772	-0.312993
Cl197	Cl	-0.582516	1.242105	0.020340
Cl198	Cl	-0.249182	1.575438	0.353674
Cl199	Cl	-0.915566	1.104906	-0.509423
Cl200	Cl	-0.582233	1.438239	-0.176090
Cl201	Cl	-0.248900	1.771573	0.157244
Cl202	Cl	-0.250567	1.169860	-0.768237
Cl203	Cl	0.082767	1.503193	-0.434904
Cl204	Cl	0.416100	1.836527	-0.101570
H205	H	-0.271555	1.149020	-0.924678
H206	H	0.061778	1.482353	-0.591345
H207	H	0.395111	1.815686	-0.258011
