data_functionalizedCrystal
_audit_creation_method	'MofGen! by Chris Wilmer'
_symmetry_space_group_name_H-M	'P1'
_symmetry_Int_Tables_number	1
_symmetry_cell_setting	triclinic
loop_
_symmetry_equiv_pos_as_xyz
  x,y,z
_cell_length_a	17.038272
_cell_length_b	14.044220
_cell_length_c	12.503572
_cell_angle_alpha	93.835250
_cell_angle_beta	93.777379
_cell_angle_gamma	87.849783
loop_
_atom_site_label
_atom_site_type_symbol
_atom_site_fract_x
_atom_site_fract_y
_atom_site_fract_z
O1	O	0.185401	-1.278116	-0.089207
O2	O	0.518734	-0.944783	0.244126
O3	O	0.852068	-0.611450	0.577460
O4	O	0.178559	-1.001597	-0.089234
O5	O	0.511893	-0.668264	0.244099
O6	O	0.845226	-0.334930	0.577433
O7	O	0.068050	-1.138213	-0.089212
O8	O	0.401384	-0.804879	0.244121
O9	O	0.734717	-0.471546	0.577454
O10	O	0.295910	-1.141501	-0.089229
O11	O	0.629243	-0.808167	0.244104
O12	O	0.962577	-0.474834	0.577438
O13	O	0.076376	-1.127940	0.089428
O14	O	0.409710	-0.794606	0.422761
O15	O	0.743043	-0.461273	0.756095
O16	O	0.186885	-0.991324	0.089406
O17	O	0.520219	-0.657991	0.422739
O18	O	0.853552	-0.324657	0.756073
O19	O	0.193727	-1.267843	0.089433
O20	O	0.527060	-0.934510	0.422767
O21	O	0.860394	-0.601177	0.756100
Cu22	Cu	0.191066	-1.128646	0.105731
Cu23	Cu	0.524400	-0.795312	0.439064
Cu24	Cu	0.857733	-0.461979	0.772398
Cu25	Cu	0.181220	-1.140795	-0.105532
Cu26	Cu	0.514553	-0.807461	0.227801
Cu27	Cu	0.847887	-0.474128	0.561135
O28	O	0.304236	-1.131228	0.089411
O29	O	0.637569	-0.797894	0.422745
O30	O	0.970903	-0.464561	0.756078
C31	C	0.179728	-0.960905	0.000083
C32	C	0.513061	-0.627572	0.333416
C33	C	0.846395	-0.294238	0.666749
C34	C	0.170796	-0.854959	0.000072
C35	C	0.504129	-0.521626	0.333406
C36	C	0.837463	-0.188293	0.666739
C37	C	0.042876	-1.130087	0.000108
C38	C	0.376209	-0.796753	0.333441
C39	C	0.709542	-0.463420	0.666774
C40	C	-0.044541	-1.121168	0.000106
C41	C	0.288792	-0.787834	0.333440
C42	C	0.622126	-0.454501	0.666773
C43	C	0.192558	-1.308536	0.000114
C44	C	0.525892	-0.975202	0.333448
C45	C	0.859225	-0.641869	0.666781
C46	C	0.201490	-1.414481	0.000117
C47	C	0.534823	-1.081148	0.333451
C48	C	0.868156	-0.747815	0.666784
C49	C	-0.088926	-1.203055	0.000115
C50	C	0.244407	-0.869722	0.333449
C51	C	0.577741	-0.536389	0.666782
C52	C	-0.171064	-1.194670	0.000104
C53	C	0.162269	-0.861337	0.333438
C54	C	0.495603	-0.528003	0.666771
C55	C	-0.208815	-1.104395	0.000092
C56	C	0.124519	-0.771062	0.333425
C57	C	0.457852	-0.437729	0.666759
C58	C	-0.164424	-1.022502	0.000080
C59	C	0.168910	-0.689168	0.333413
C60	C	0.502243	-0.355835	0.666746
C61	C	-0.082288	-1.030888	0.000083
C62	C	0.251045	-0.697555	0.333416
C63	C	0.584379	-0.364222	0.666750
C64	C	-0.456646	-1.074766	0.000074
C65	C	-0.123313	-0.741433	0.333408
C66	C	0.210020	-0.408100	0.666741
C67	C	-0.538788	-1.066385	0.000074
C68	C	-0.205455	-0.733052	0.333408
C69	C	0.127879	-0.399719	0.666741
C70	C	-0.545422	-1.238555	0.000097
C71	C	-0.212089	-0.905221	0.333430
C72	C	0.121244	-0.571888	0.666764
C73	C	-0.463284	-1.246933	0.000107
C74	C	-0.129951	-0.913600	0.333440
C75	C	0.203382	-0.580267	0.666774
C76	C	-0.418901	-1.165040	0.000089
C77	C	-0.085568	-0.831707	0.333422
C78	C	0.247766	-0.498373	0.666756
C79	C	-0.292772	-1.095822	0.000084
C80	C	0.040561	-0.762488	0.333417
C81	C	0.373894	-0.429155	0.666751
C82	C	-0.334945	-1.173615	0.000089
C83	C	-0.001612	-0.840282	0.333422
C84	C	0.331721	-0.506948	0.666756
C85	C	0.329410	-1.139354	0.000089
C86	C	0.662744	-0.806020	0.333423
C87	C	0.996077	-0.472687	0.666756
C88	C	0.416827	-1.148273	0.000083
C89	C	0.750160	-0.814940	0.333417
C90	C	1.083494	-0.481607	0.666750
N91	N	0.197992	-1.120107	0.254322
N92	N	0.531325	-0.786774	0.587655
N93	N	0.864658	-0.453441	0.920989
C94	C	0.154469	-0.660980	0.000095
C95	C	0.487802	-0.327647	0.333428
C96	C	0.821135	0.005687	0.666762
C97	C	0.217814	-0.608455	0.000095
C98	C	0.551147	-0.275122	0.333428
C99	C	0.884480	0.058212	0.666761
C100	C	0.208729	-0.500518	0.000107
C101	C	0.542062	-0.167185	0.333441
C102	C	0.875396	0.166149	0.666774
C103	C	0.163552	-0.768927	0.000082
C104	C	0.496886	-0.435593	0.333416
C105	C	0.830219	-0.102260	0.666749
N106	N	0.174289	-1.149340	-0.254123
N107	N	0.507622	-0.816007	0.079211
N108	N	0.840955	-0.482673	0.412544
C109	C	0.208186	-1.107548	0.473435
C110	C	0.541519	-0.774215	0.806768
C111	C	0.874853	-0.440881	1.140102
C112	C	0.164097	-1.161896	0.526771
C113	C	0.497430	-0.828563	0.860104
C114	C	0.830764	-0.495230	1.193438
C115	C	0.169769	-1.154908	0.648693
C116	C	0.503102	-0.821575	0.982026
C117	C	0.836436	-0.488242	1.315360
C118	C	0.202515	-1.114535	0.351502
C119	C	0.535848	-0.781202	0.684835
C120	C	0.869181	-0.447868	1.018169
H121	H	-0.207199	-1.261352	0.000114
H122	H	0.126135	-0.928019	0.333448
H123	H	0.459468	-0.594685	0.666781
O124	O	0.298691	-0.656254	0.000086
O125	O	0.632025	-0.322921	0.333419
O126	O	0.965358	0.010413	0.666753
H127	H	0.327684	-0.638699	-0.072722
H128	H	0.661017	-0.305366	0.260611
H129	H	0.994350	0.027968	0.593944
H130	H	-0.323518	-1.022319	0.000076
H131	H	0.009815	-0.688986	0.333410
H132	H	0.343148	-0.355653	0.666743
H133	H	0.250190	-1.055775	0.519334
H134	H	0.583523	-0.722441	0.852668
H135	H	0.916856	-0.389108	1.186001
O136	O	-0.048210	-1.300424	0.000119
O137	O	0.285123	-0.967091	0.333452
O138	O	0.618456	-0.633757	0.666785
H139	H	-0.092877	-1.355957	0.000109
H140	H	0.240456	-1.022623	0.333443
H141	H	0.573789	-0.689290	0.666776
O142	O	-0.422568	-1.344302	0.000094
O143	O	-0.089234	-1.010969	0.333428
O144	O	0.244099	-0.677635	0.666761
H145	H	-0.467232	-1.399838	0.000083
H146	H	-0.133899	-1.066505	0.333416
H147	H	0.199434	-0.733171	0.666749
H148	H	-0.569521	-0.992868	0.000081
H149	H	-0.236188	-0.659535	0.333415
H150	H	0.097146	-0.326202	0.666748
O151	O	0.108454	-1.230482	0.465971
O152	O	0.441787	-0.897149	0.799305
O153	O	0.775121	-0.563816	1.132638
H154	H	0.124570	-1.304411	0.487483
H155	H	0.457903	-0.971078	0.820817
H156	H	0.791236	-0.637744	1.154150
O157	O	-0.593291	-1.326881	0.000110
O158	O	-0.259958	-0.993548	0.333443
O159	O	0.073376	-0.660214	0.666776
H160	H	-0.656748	-1.305888	0.000098
H161	H	-0.323415	-0.972555	0.333431
H162	H	0.009919	-0.639221	0.666765
O163	O	-0.408778	-0.986442	0.000082
O164	O	-0.075445	-0.653108	0.333416
O165	O	0.257888	-0.319775	0.666749
H166	H	-0.448829	-0.922261	0.000092
H167	H	-0.115496	-0.588928	0.333426
H168	H	0.217837	-0.255594	0.666759
H169	H	-0.195167	-0.948998	0.000063
H170	H	0.138166	-0.615665	0.333396
H171	H	0.471499	-0.282332	0.666729
O172	O	-0.034409	-0.942568	0.000085
O173	O	0.298925	-0.609234	0.333418
O174	O	0.632258	-0.275901	0.666751
H175	H	-0.074456	-0.878384	0.000088
H176	H	0.258878	-0.545050	0.333421
H177	H	0.592211	-0.211717	0.666755
H178	H	0.093419	-0.624887	0.000105
H179	H	0.426753	-0.291554	0.333439
H180	H	0.760086	0.041780	0.666772
O181	O	-0.294236	-1.270983	0.000098
O182	O	0.039097	-0.937650	0.333431
O183	O	0.372430	-0.604317	0.666765
H184	H	-0.253588	-1.274731	0.072914
H185	H	0.079746	-0.941398	0.406248
H186	H	0.413079	-0.608065	0.739581
