data_functionalizedCrystal
_audit_creation_method	'MofGen! by Chris Wilmer'
_symmetry_space_group_name_H-M	'P1'
_symmetry_Int_Tables_number	1
_symmetry_cell_setting	triclinic
loop_
_symmetry_equiv_pos_as_xyz
  x,y,z
_cell_length_a	10.654556
_cell_length_b	9.730223
_cell_length_c	10.654550
_cell_angle_alpha	90.004253
_cell_angle_beta	84.486234
_cell_angle_gamma	90.001632
loop_
_atom_site_label
_atom_site_type_symbol
_atom_site_fract_x
_atom_site_fract_y
_atom_site_fract_z
O1	O	1.667834	0.114238	0.176437
O2	O	2.167834	0.614238	0.676437
O3	O	1.302357	0.114252	0.193234
O4	O	1.802357	0.614252	0.693234
O5	O	1.493499	0.114236	0.002097
O6	O	1.993499	0.614236	0.502097
O7	O	1.476693	0.114254	0.367575
O8	O	1.976693	0.614254	0.867575
O9	O	1.493486	-0.114344	0.002091
O10	O	1.993486	0.385656	0.502091
O11	O	1.302345	-0.114328	0.193229
O12	O	1.802345	0.385672	0.693229
O13	O	1.667822	-0.114342	0.176431
O14	O	2.167822	0.385658	0.676431
Zn15	Zn	1.485081	-0.150627	0.184829
Zn16	Zn	1.985081	0.349373	0.684829
Zn17	Zn	1.485098	0.150537	0.184836
Zn18	Zn	1.985098	0.650537	0.684836
O19	O	1.476680	-0.114326	0.367569
O20	O	1.976680	0.385674	0.867569
C21	C	1.255553	-0.000037	0.191997
C22	C	1.755553	0.499963	0.691997
C23	C	1.116110	-0.000031	0.188302
C24	C	1.616110	0.499969	0.688302
C25	C	0.919571	0.124557	0.183102
C26	C	1.419571	0.624557	0.683102
C27	C	1.050594	0.124565	0.186566
C28	C	1.550594	0.624565	0.686566
C29	C	1.050599	-0.124645	0.186560
C30	C	1.550599	0.375355	0.686560
C31	C	0.919580	-0.124652	0.183087
C32	C	1.419580	0.375348	0.683087
N33	N	1.485079	-0.356164	0.184824
N34	N	1.985079	0.143836	0.684824
C35	C	1.569746	-0.428097	0.100224
C36	C	2.069746	0.071903	0.600224
C37	C	1.569759	-0.571980	0.100225
C38	C	2.069759	-0.071980	0.600225
C39	C	1.400434	-0.571984	0.269436
C40	C	1.900434	-0.071984	0.769436
C41	C	1.400416	-0.428104	0.269428
C42	C	1.900416	0.071896	0.769428
C43	C	1.714626	-0.000051	0.177669
C44	C	2.214626	0.499949	0.677669
C45	C	1.854069	-0.000047	0.181364
C46	C	2.354069	0.499953	0.681364
C47	C	1.492258	-0.000054	-0.044704
C48	C	1.992258	0.499946	0.455296
C49	C	1.488567	-0.000051	-0.184147
C50	C	1.988567	0.499949	0.315853
N51	N	1.485109	0.356073	0.184832
N52	N	1.985109	0.856073	0.684832
C53	C	1.601108	-0.000055	-0.263630
C54	C	2.101108	0.499945	0.236370
C55	C	1.597631	-0.000038	-0.394651
C56	C	2.097631	0.499962	0.105349
C57	C	1.369063	-0.000019	-0.366693
C58	C	1.869063	0.499981	0.133307
C59	C	1.372540	-0.000026	-0.235675
C60	C	1.872540	0.499974	0.264325
C61	C	1.477920	-0.000034	0.414370
C62	C	1.977920	0.499966	0.914370
C63	C	1.481612	-0.000027	0.553813
C64	C	1.981612	0.499973	1.053813
H65	H	1.103920	0.226031	0.187979
H66	H	1.603920	0.726031	0.687979
O67	O	1.309081	-0.350521	0.360681
O68	O	1.809081	0.149479	0.860681
H69	H	1.247575	-0.285007	0.307227
H70	H	1.747575	0.214993	0.807227
H71	H	1.103954	-0.226094	0.187965
H72	H	1.603954	0.273906	0.687965
O73	O	0.848915	-0.259052	0.181220
O74	O	1.348915	0.240948	0.681220
H75	H	0.916475	-0.345697	0.183023
H76	H	1.416475	0.154303	0.683023
H77	H	1.638682	-0.369527	0.031332
H78	H	2.138682	0.130473	0.531332
H79	H	1.689274	-0.000038	-0.459362
H80	H	2.189274	0.499962	0.040638
O81	O	1.661092	-0.649552	0.008980
O82	O	2.161092	-0.149552	0.508980
H83	H	1.607717	-0.715112	-0.052571
H84	H	2.107717	-0.215112	0.447429
O85	O	1.309143	-0.649585	0.360700
O86	O	1.809143	-0.149585	0.860700
H87	H	1.250261	-0.575389	0.419522
H88	H	1.750261	-0.075389	0.919522
H89	H	1.280890	-0.000019	-0.170956
H90	H	1.780890	0.499981	0.329044
H91	H	0.866236	0.226018	0.181698
H92	H	1.366236	0.726018	0.681698
H93	H	1.695584	-0.000072	-0.221681
H94	H	2.195584	0.499928	0.278319
H95	H	1.274598	-0.000002	-0.408664
H96	H	1.774598	0.499998	0.091336
