data_functionalizedCrystal
_audit_creation_method	'MofGen! by Chris Wilmer'
_symmetry_space_group_name_H-M	'P1'
_symmetry_Int_Tables_number	1
_symmetry_cell_setting	triclinic
loop_
_symmetry_equiv_pos_as_xyz
  x,y,z
_cell_length_a	8.597187
_cell_length_b	8.634740
_cell_length_c	7.540329
_cell_angle_alpha	89.998819
_cell_angle_beta	82.295245
_cell_angle_gamma	92.880183
loop_
_atom_site_label
_atom_site_type_symbol
_atom_site_fract_x
_atom_site_fract_y
_atom_site_fract_z
O1	O	2.117353	0.230695	-0.471009
O2	O	1.663087	0.248389	-0.401599
O3	O	1.868717	0.014741	-0.433016
O4	O	1.911723	0.464342	-0.439593
O5	O	1.868702	0.014738	-0.138048
O6	O	1.663073	0.248386	-0.106632
O7	O	2.117338	0.230692	-0.176042
Cu8	Cu	1.890204	0.239538	-0.114404
Cu9	Cu	1.890221	0.239542	-0.463237
O10	O	1.911709	0.464339	-0.144626
C11	C	1.604320	0.246486	-0.245138
C12	C	1.429231	0.240803	-0.218385
C13	C	1.858967	-0.042857	-0.284046
C14	C	1.829918	-0.214479	-0.279617
C15	C	2.176105	0.232594	-0.332508
C16	C	2.351194	0.238277	-0.359272
C17	C	1.921459	0.521938	-0.293599
C18	C	1.950507	0.693559	-0.298040
N19	N	1.890203	0.239535	0.130945
N20	N	1.890233	0.239533	-0.708587
H21	H	1.362094	0.238636	-0.077309
H22	H	1.418339	0.240462	-0.500357
H23	H	1.704453	-0.267041	-0.260453
C24	C	2.117899	-0.236573	-0.323347
C25	C	2.196110	-0.285538	-0.183567
C26	C	2.350316	-0.221225	-0.206834
H27	H	2.116074	-0.126672	-0.322983
H28	H	2.171288	-0.269662	-0.434312
H29	H	2.142735	-0.252441	-0.072631
H30	H	2.197979	-0.395431	-0.183905
H31	H	2.403705	-0.254314	-0.317800
H32	H	2.348474	-0.111325	-0.206473
H33	H	2.403405	-0.254450	-0.112008
