data_functionalizedCrystal
_audit_creation_method	'MofGen! by Chris Wilmer'
_symmetry_space_group_name_H-M	'P1'
_symmetry_Int_Tables_number	1
_symmetry_cell_setting	triclinic
loop_
_symmetry_equiv_pos_as_xyz
  x,y,z
_cell_length_a	21.295418
_cell_length_b	16.959454
_cell_length_c	16.959447
_cell_angle_alpha	89.973264
_cell_angle_beta	90.034641
_cell_angle_gamma	89.964110
loop_
_atom_site_label
_atom_site_type_symbol
_atom_site_fract_x
_atom_site_fract_y
_atom_site_fract_z
Zn1	Zn	0.962345	0.314332	0.447357
Zn2	Zn	1.462345	0.814332	0.947357
Zn3	Zn	0.962283	0.446525	0.315187
Zn4	Zn	1.462283	0.946525	0.815187
Zn5	Zn	0.857085	0.314401	0.315148
Zn6	Zn	1.357085	0.814401	0.815148
Zn7	Zn	0.857057	0.446509	0.447278
Zn8	Zn	1.357057	0.946509	0.947278
O9	O	0.909692	0.380442	0.381243
O10	O	1.409692	0.880442	0.881243
O11	O	1.050426	0.331846	0.429874
O12	O	1.550426	0.831846	0.929874
O13	O	0.948314	0.429033	0.204571
O14	O	1.448314	0.929033	0.704571
O15	O	0.871085	0.203781	0.332702
O16	O	1.371085	0.703781	0.832702
O17	O	1.050381	0.428967	0.332769
O18	O	1.550381	0.928967	0.832769
O19	O	0.948420	0.203730	0.429836
O20	O	1.448420	0.703730	0.929836
O21	O	0.871026	0.331962	0.204542
O22	O	1.371026	0.831962	0.704542
O23	O	0.768992	0.331947	0.332626
O24	O	1.268992	0.831947	0.832626
O25	O	0.871037	0.428940	0.557900
O26	O	1.371037	0.928940	1.057900
O27	O	0.768971	0.429007	0.429702
O28	O	1.268971	0.929007	0.929702
O29	O	0.948392	0.331831	0.557958
O30	O	1.448392	0.831831	1.057958
O31	O	0.948287	0.557133	0.332692
O32	O	1.448287	1.057133	0.832692
O33	O	0.870978	0.557122	0.429740
O34	O	1.370978	1.057122	0.929740
C35	C	0.746141	0.380483	0.381152
C36	C	1.246141	0.880483	0.881152
C37	C	0.676173	0.380520	0.381131
C38	C	1.176173	0.880520	0.881131
C39	C	0.909640	0.585808	0.381229
C40	C	1.409640	1.085808	0.881229
C41	C	0.909675	0.673664	0.381250
C42	C	1.409675	1.173664	0.881250
C43	C	0.909719	0.380376	0.587411
C44	C	1.409719	0.880376	1.087411
C45	C	0.909730	0.380348	0.675267
C46	C	1.409730	0.880348	1.175267
C47	C	0.643312	0.431126	0.431603
C48	C	1.143312	0.931126	0.931603
C49	C	0.577569	0.431106	0.431639
C50	C	1.077569	0.931106	0.931639
C51	C	0.544690	0.380489	0.381188
C52	C	1.044690	0.880489	0.881188
C53	C	0.577559	0.329874	0.330713
C54	C	1.077559	0.829874	0.830713
C55	C	0.643300	0.329889	0.330684
C56	C	1.143300	0.829889	0.830684
N57	N	0.441422	0.374319	0.312053
N58	N	0.941422	0.874319	0.812053
N59	N	0.378971	0.374309	0.312083
N60	N	0.878971	0.874309	0.812083
C61	C	0.346615	0.380439	0.381272
C62	C	0.846615	0.880439	0.881272
N63	N	0.379071	0.386595	0.450433
N64	N	0.879071	0.886595	0.950433
N65	N	0.441528	0.386609	0.450403
N66	N	0.941528	0.886609	0.950403
C67	C	0.473405	0.380467	0.381214
C68	C	0.973405	0.880467	0.881214
C69	C	0.242469	0.431026	0.431787
C70	C	0.742469	0.931026	0.931787
C71	C	0.176725	0.431001	0.431824
C72	C	0.676725	0.931001	0.931824
C73	C	0.176716	0.329773	0.330891
C74	C	0.676716	0.829773	0.830891
C75	C	0.242459	0.329794	0.330861
C76	C	0.742459	0.829794	0.830861
C77	C	0.275331	0.380425	0.381308
C78	C	0.775331	0.880425	0.881308
C79	C	1.073883	0.380400	0.381334
C80	C	1.573883	0.880400	0.881334
C81	C	1.143851	0.380383	0.381373
C82	C	1.643851	0.880383	0.881373
C83	C	0.909762	0.174273	0.381273
C84	C	1.409762	0.674273	0.881273
C85	C	0.909792	0.086417	0.381286
C86	C	1.409792	0.586417	0.881286
C87	C	0.869496	1.045164	0.431770
C88	C	1.369496	1.545164	0.931770
C89	C	0.950064	1.045116	0.330796
C90	C	1.450064	1.545116	0.830796
C91	C	0.950042	0.962570	0.330789
C92	C	1.450042	1.462570	0.830789
C93	C	0.909746	0.921317	0.381272
C94	C	1.409746	1.421317	0.881272
C95	C	0.869471	0.962611	0.431762
C96	C	1.369471	1.462611	0.931762
C97	C	0.990312	0.921271	0.280294
C98	C	1.490312	1.421271	0.780294
C99	C	0.990291	0.838720	0.280284
C100	C	1.490291	1.338720	0.780284
C101	C	0.949997	0.797466	0.330771
C102	C	1.449997	1.297466	0.830771
C103	C	0.909721	0.838764	0.381264
C104	C	1.409721	1.338764	0.881264
C105	C	0.869425	0.797511	0.431748
C106	C	1.369425	1.297511	0.931748
C107	C	0.829152	0.838808	0.482245
C108	C	1.329152	1.338808	0.982245
C109	C	0.829177	0.921356	0.482250
C110	C	1.329177	1.421356	0.982250
C111	C	0.949971	0.714917	0.330767
C112	C	1.449971	1.214917	0.830767
C113	C	0.869400	0.714958	0.431740
C114	C	1.369400	1.214958	0.931740
C115	C	0.909702	0.380450	0.175876
C116	C	1.409702	0.880450	0.675876
C117	C	0.909813	0.380255	0.088020
C118	C	1.409813	0.880255	0.588020
C119	C	0.869530	0.430825	1.046716
C120	C	1.369530	0.930825	1.546716
C121	C	0.950080	0.329704	1.046771
C122	C	1.450080	0.829704	1.546771
C123	C	0.950063	0.329721	0.964225
C124	C	1.450063	0.829721	1.464225
C125	C	0.909780	0.380292	0.922921
C126	C	1.409780	0.880292	1.422921
C127	C	0.869513	0.430845	0.964162
C128	C	1.369513	0.930845	1.464162
C129	C	0.990334	0.279174	0.922977
C130	C	1.490334	0.779174	1.422977
C131	C	0.990319	0.279189	0.840426
C132	C	1.490319	0.779189	1.340426
C133	C	0.950032	0.329756	0.799120
C134	C	1.450032	0.829756	1.299120
C135	C	0.909763	0.380312	0.840367
C136	C	1.409763	0.880312	1.340367
C137	C	0.869480	0.430882	0.799063
C138	C	1.369480	0.930882	1.299063
C139	C	0.829207	0.481434	0.840308
C140	C	1.329207	0.981434	1.340308
C141	C	0.829226	0.481413	0.922856
C142	C	1.329226	0.981413	1.422856
C143	C	0.950013	0.329778	0.716572
C144	C	1.450013	0.829778	1.216572
C145	C	0.869463	0.430902	0.716509
C146	C	1.369463	0.930902	1.216509
H147	H	0.670072	0.472353	0.472682
H148	H	1.170072	0.972353	0.972682
H149	H	0.836588	0.681375	0.472853
H150	H	1.336588	1.181375	0.972853
C151	C	0.679449	0.274225	0.275159
C152	C	1.179449	0.774225	0.775159
H153	H	0.650454	0.244077	0.245113
H154	H	1.150454	0.744077	0.745113
H155	H	0.705143	0.239831	0.305441
H156	H	1.205143	0.739831	0.805441
H157	H	0.705045	0.304432	0.240652
H158	H	1.205045	0.804432	0.740652
H159	H	0.982804	0.288621	0.682994
H160	H	1.482804	0.788621	1.182994
C161	C	0.541395	0.274197	0.275219
C162	C	1.041395	0.774197	0.775219
H163	H	0.497535	0.281440	0.282459
H164	H	0.997535	0.781440	0.782459
H165	H	0.552211	0.221105	0.286873
H166	H	1.052211	0.721105	0.786873
H167	H	0.552122	0.285705	0.222083
H168	H	1.052122	0.785705	0.722083
H169	H	0.982758	0.681297	0.289649
H170	H	1.482758	1.181297	0.789649
C171	C	0.825197	1.090585	0.487310
C172	C	1.325197	1.590585	0.987310
H173	H	0.830978	1.145657	0.480085
H174	H	1.330978	1.645657	0.980085
H175	H	0.834376	1.077012	0.540432
H176	H	1.334376	1.577012	1.040432
H177	H	0.782902	1.077116	0.475666
H178	H	1.282902	1.577116	0.975666
C179	C	1.034610	0.223581	0.795060
C180	C	1.534610	0.723581	1.295060
H181	H	1.028833	0.230836	0.739981
H182	H	1.528833	0.730836	1.239981
H183	H	1.025418	0.170473	0.808601
H184	H	1.525418	0.670473	1.308601
H185	H	1.076907	0.235139	0.808601
H186	H	1.576907	0.735139	1.308601
C187	C	0.825233	0.486431	1.092076
C188	C	1.325233	0.986431	1.592076
H189	H	0.801238	0.516546	1.055652
H190	H	1.301238	1.016546	1.555652
H191	H	0.849305	0.520857	1.124285
H192	H	1.349305	1.020857	1.624285
H193	H	0.797818	0.456187	1.124269
H194	H	1.297818	0.956187	1.624269
H195	H	0.149971	0.472209	0.472929
H196	H	0.649971	0.972209	0.972929
C197	C	0.784876	0.966783	0.537782
C198	C	1.284876	1.466783	1.037782
H199	H	0.790656	1.021854	0.530547
H200	H	1.290656	1.521854	1.030547
H201	H	0.794051	0.953220	0.590907
H202	H	1.294051	1.453220	1.090907
H203	H	0.742581	0.953311	0.526136
H204	H	1.242581	1.453311	1.026136
C205	C	0.784829	0.793425	0.537774
C206	C	1.284829	1.293425	1.037774
H207	H	0.790586	0.738348	0.530535
H208	H	1.290586	1.238348	1.030535
H209	H	0.742542	0.807012	0.526146
H210	H	1.242542	1.307012	1.026146
H211	H	0.794024	0.806905	0.590902
H212	H	1.294024	1.306905	1.090902
H213	H	0.836653	0.472076	0.682885
H214	H	1.336653	0.972076	1.182885
H215	H	0.269235	0.472249	0.472868
H216	H	0.769235	0.972249	0.972868
H217	H	0.149947	0.288556	0.289816
H218	H	0.649947	0.788556	0.789816
C219	C	0.784898	0.537058	0.794868
C220	C	1.284898	1.037058	1.294868
H221	H	0.790657	0.529824	0.739798
H222	H	1.290657	1.029824	1.239798
H223	H	0.794090	0.590162	0.808388
H224	H	1.294090	1.090162	1.308388
H225	H	0.742606	0.525489	0.808373
H226	H	1.242606	1.025489	1.308373
C227	C	0.278608	0.274136	0.275331
C228	C	0.778608	0.774136	0.775331
H229	H	0.249612	0.243992	0.245284
H230	H	0.749612	0.743992	0.745284
H231	H	0.304301	0.239739	0.305611
H232	H	0.804301	0.739739	0.805611
H233	H	0.304205	0.304345	0.240826
H234	H	0.804205	0.804345	0.740826
C235	C	0.994385	1.090488	0.275265
C236	C	1.494385	1.590488	0.775265
H237	H	1.018365	1.054071	0.245190
H238	H	1.518365	1.554071	0.745190
H239	H	1.021805	1.122643	0.305545
H240	H	1.521805	1.622643	0.805545
H241	H	0.970327	1.122735	0.240786
H242	H	1.470327	1.622735	0.740786
C243	C	1.034632	0.966644	0.224763
C244	C	1.534632	1.466644	0.724763
H245	H	1.058608	0.930229	0.194683
H246	H	1.558608	1.430229	0.694683
H247	H	1.062054	0.998795	0.255044
H248	H	1.562054	1.498795	0.755044
H249	H	1.010572	0.998896	0.190289
H250	H	1.510572	1.498896	0.690289
H251	H	1.023084	0.805101	0.239167
H252	H	1.523084	1.305101	0.739167
C253	C	0.784935	0.537020	0.968223
C254	C	1.284935	1.037020	1.468223
H255	H	0.760937	0.567137	0.931803
H256	H	1.260937	1.067137	1.431803
H257	H	0.809013	0.571445	1.000426
H258	H	1.309013	1.071445	1.500426
H259	H	0.757523	0.506780	1.000422
H260	H	1.257523	1.006780	1.500422
C261	C	0.994385	0.274078	1.092203
C262	C	1.494385	0.774078	1.592203
H263	H	0.988624	0.281302	1.147273
H264	H	1.488624	0.781302	1.647273
H265	H	1.036675	0.285629	1.078692
H266	H	1.536675	0.785629	1.578692
H267	H	0.985178	0.220973	1.078683
H268	H	1.485178	0.720973	1.578683
C269	C	1.034645	0.223554	0.968408
C270	C	1.534645	0.723554	1.468408
H271	H	1.058631	0.193457	0.932023
H272	H	1.558631	0.693457	1.432023
H273	H	1.010585	0.189111	1.000607
H274	H	1.510585	0.689111	1.500607
H275	H	1.062068	0.253785	1.000615
H276	H	1.562068	0.753785	1.500615
C277	C	0.541415	0.486729	0.487206
C278	C	1.041415	0.986729	0.987206
H279	H	0.570408	0.516873	0.517257
H280	H	1.070408	1.016873	1.017257
H281	H	0.515833	0.456487	0.521692
H282	H	1.015833	0.956487	1.021692
H283	H	0.515706	0.521142	0.456957
H284	H	1.015706	1.021142	0.956957
