data_functionalizedCrystal
_audit_creation_method	'MofGen! by Chris Wilmer'
_symmetry_space_group_name_H-M	'P1'
_symmetry_Int_Tables_number	1
_symmetry_cell_setting	triclinic
loop_
_symmetry_equiv_pos_as_xyz
  x,y,z
_cell_length_a	19.121141
_cell_length_b	13.897448
_cell_length_c	13.897441
_cell_angle_alpha	90.030599
_cell_angle_beta	92.462673
_cell_angle_gamma	87.571228
loop_
_atom_site_label
_atom_site_type_symbol
_atom_site_fract_x
_atom_site_fract_y
_atom_site_fract_z
Zn1	Zn	-1.073786	0.447014	-0.608295
Zn2	Zn	-1.073708	0.608331	-0.446992
Zn3	Zn	-0.956329	0.440162	-0.440132
Zn4	Zn	-0.956316	0.601373	-0.601367
O5	O	-1.015035	0.524220	-0.524197
O6	O	-1.172061	0.474193	-0.592669
O7	O	-1.058111	0.586067	-0.311099
O8	O	-0.971948	0.306091	-0.462468
O9	O	-1.172004	0.592712	-0.474160
O10	O	-1.058243	0.311126	-0.586017
O11	O	-0.971873	0.462514	-0.306059
O12	O	-0.858042	0.455767	-0.455749
O13	O	-0.971925	0.580853	-0.737269
O14	O	-0.858033	0.574209	-0.574208
O15	O	-1.058230	0.467446	-0.742360
O16	O	-1.058098	0.742388	-0.467442
O17	O	-0.971850	0.737276	-0.580860
C18	C	-0.832553	0.513490	-0.513483
C19	C	-0.754487	0.508923	-0.508922
C20	C	-0.717824	0.568537	-0.568358
C21	C	-0.644473	0.564233	-0.564077
C22	C	-0.607785	0.500319	-0.500356
C23	C	-0.644452	0.440699	-0.440918
C24	C	-0.717803	0.444999	-0.445204
C25	C	-0.386313	0.484243	-0.484339
C26	C	-0.312958	0.479949	-0.480055
C27	C	-0.312983	0.603482	-0.603216
C28	C	-0.386335	0.607780	-0.607493
C29	C	-0.422996	0.548157	-0.548058
C30	C	-0.532808	0.495921	-0.495977
C31	C	-0.497972	0.552551	-0.552443
C32	C	-1.014984	0.774831	-0.524166
C33	C	-1.015026	0.882048	-0.524188
C34	C	-1.015085	0.524138	-0.775793
C35	C	-1.015106	0.524103	-0.883008
C36	C	-0.198229	0.534987	-0.534941
C37	C	-0.276295	0.539563	-0.539491
C38	C	-1.015105	0.272631	-0.524250
C39	C	-1.015135	0.165419	-0.524272
C40	C	-1.015100	1.078347	-0.524253
C41	C	-1.015057	0.969112	-0.524220
C42	C	-1.015125	0.524039	-1.079304
C43	C	-1.015112	0.524077	-0.970071
C44	C	-1.015026	0.524235	-0.273582
C45	C	-1.015140	0.524006	-0.166375
H46	H	-0.283126	0.652023	-0.651606
H47	H	-0.747652	0.396450	-0.396810
H48	H	-0.283089	0.427892	-0.428171
N49	N	-0.423745	0.423340	-0.423618
N50	N	-0.390977	0.366286	-0.366724
H51	H	-0.417414	0.323273	-0.323833
H52	H	-0.614575	0.388655	-0.389038
N53	N	-0.607038	0.625147	-0.624788
N54	N	-0.615218	0.714624	-0.618702
H55	H	-0.588783	0.757650	-0.661583
H56	H	-0.416201	0.659827	-0.659379
H57	H	-0.502928	0.443884	-0.444093
N58	N	-0.755286	0.633838	-0.633446
N59	N	-0.722539	0.687059	-0.686508
H60	H	-0.748994	0.733179	-0.732479
N61	N	-0.535433	0.617850	-0.617527
N62	N	-0.502695	0.671083	-0.670587
H63	H	-0.529157	0.717205	-0.716551
