data_functionalizedCrystal
_audit_creation_method	'MofGen! by Chris Wilmer'
_symmetry_space_group_name_H-M	'P1'
_symmetry_Int_Tables_number	1
_symmetry_cell_setting	triclinic
loop_
_symmetry_equiv_pos_as_xyz
  x,y,z
_cell_length_a	23.532407
_cell_length_b	23.532409
_cell_length_c	22.010155
_cell_angle_alpha	90.007292
_cell_angle_beta	89.996931
_cell_angle_gamma	82.849119
loop_
_atom_site_label
_atom_site_type_symbol
_atom_site_fract_x
_atom_site_fract_y
_atom_site_fract_z
O1	O	0.755264	0.069127	-0.050445
O2	O	0.589401	0.079130	-0.050463
O3	O	0.677334	-0.008803	-0.050454
O4	O	0.667332	0.157060	-0.050454
O5	O	0.677318	-0.008790	0.050596
O6	O	0.589385	0.079143	0.050588
O7	O	0.755248	0.069140	0.050605
Cu8	Cu	0.672315	0.074143	0.059823
Cu9	Cu	0.672334	0.074127	-0.059681
O10	O	0.667316	0.157073	0.050596
C11	C	0.568177	0.078882	0.000060
C12	C	0.504960	0.078116	0.000053
C13	C	0.105857	0.125349	0.000081
C14	C	0.046457	0.124638	0.000085
O15	O	0.009713	0.168424	0.000107
N16	N	0.023830	0.072362	0.000084
C17	C	0.060608	0.020794	0.000085
O18	O	0.035908	-0.023737	0.000085
C19	C	0.120007	0.021506	0.000086
C20	C	0.142630	0.073785	0.000081
C21	C	0.128481	0.177625	0.000077
C22	C	0.187877	0.178336	0.000072
C23	C	0.224649	0.126772	0.000071
C24	C	0.202026	0.074496	0.000076
C25	C	0.156783	-0.030062	0.000091
C26	C	0.216185	-0.029345	0.000092
C27	C	0.238808	0.022934	0.000087
C28	C	0.298195	0.023643	0.000070
N29	N	0.320821	0.075920	0.000071
C30	C	0.284049	0.127484	0.000072
C31	C	-0.064135	0.019302	0.000085
C32	C	-0.123533	0.018589	0.000080
C33	C	-0.137679	0.122434	0.000081
C34	C	-0.078280	0.123146	0.000081
C35	C	-0.041508	0.071578	0.000086
C36	C	0.408785	0.128974	0.000061
C37	C	0.468187	0.129680	0.000054
C38	C	0.482329	0.025836	0.000056
C39	C	0.422932	0.025129	0.000060
C40	C	0.386161	0.076702	0.000065
O41	O	0.334973	-0.020119	0.000051
O42	O	0.308757	0.172007	0.000080
C43	C	0.677071	-0.030013	0.000069
C44	C	0.676304	-0.093230	0.000065
C45	C	0.673054	-0.366482	-0.055021
C46	C	0.673766	-0.307082	-0.055021
O47	O	0.674161	-0.276363	-0.101865
N48	N	0.674109	-0.277372	0.000063
C49	C	0.673747	-0.307067	0.055150
O50	O	0.674105	-0.276343	0.102003
C51	C	0.673039	-0.366467	0.055149
C52	C	0.672690	-0.396172	0.000062
C53	C	0.672705	-0.396187	-0.110103
C54	C	0.671993	-0.455583	-0.110103
C55	C	0.671629	-0.485274	-0.055020
C56	C	0.671977	-0.455568	0.000062
C57	C	0.672681	-0.396161	0.110236
C58	C	0.671974	-0.455565	0.110230
C59	C	0.671625	-0.485270	0.055143
C60	C	0.670901	-0.544654	0.055146
N61	N	0.670557	-0.574364	0.000062
C62	C	0.670921	-0.544673	-0.055021
C63	C	0.675234	-0.182324	0.055147
C64	C	0.675937	-0.122925	0.055148
C65	C	0.675957	-0.122944	-0.055023
C66	C	0.675250	-0.182343	-0.055023
C67	C	0.674890	-0.212033	0.000063
C68	C	0.669424	-0.669409	-0.055016
C69	C	0.668709	-0.728810	-0.055011
C70	C	0.668692	-0.728786	0.055160
C71	C	0.669404	-0.669390	0.055155
C72	C	0.669772	-0.639703	0.000062
O73	O	0.670507	-0.575411	0.101965
O74	O	0.670571	-0.575406	-0.101866
C75	C	0.776472	0.069388	0.000081
C76	C	0.839689	0.070154	0.000083
C77	C	0.667579	0.178283	0.000071
C78	C	0.668345	0.241500	0.000072
N79	N	0.672306	0.074153	0.143875
N80	N	0.672348	0.074112	-0.143733
C81	C	0.711273	0.035196	0.563659
C82	C	0.711276	0.035192	0.627266
O83	O	0.744384	0.002076	0.660161
N84	N	0.672334	0.074115	0.659083
C85	C	0.633383	0.113041	0.627288
O86	O	0.600260	0.146148	0.660191
C87	C	0.633378	0.113042	0.563682
C88	C	0.672326	0.074120	0.531868
C89	C	0.750217	-0.003723	0.531845
C90	C	0.750215	-0.003719	0.468242
C91	C	0.711269	0.035205	0.436452
C92	C	0.672324	0.074125	0.468265
C93	C	0.594425	0.151965	0.531888
C94	C	0.594423	0.151962	0.468277
C95	C	0.633371	0.113040	0.436464
C96	C	0.633375	0.113054	0.372872
N97	N	0.672317	0.074130	0.341056
C98	C	0.711264	0.035206	0.372846
C99	C	0.633396	0.113036	0.760866
C100	C	0.633403	0.113038	0.824471
C101	C	0.711295	0.035188	0.824445
C102	C	0.711290	0.035189	0.760838
C103	C	0.672337	0.074113	0.729049
C104	C	0.711257	0.035219	0.239274
C105	C	0.711253	0.035229	0.175665
C106	C	0.633359	0.113077	0.175697
C107	C	0.633365	0.113070	0.239301
C108	C	0.672316	0.074136	0.271088
O109	O	0.600283	0.146151	0.339937
O110	O	0.744376	0.002100	0.339935
H111	H	0.378853	0.170970	0.000067
H112	H	-0.059865	0.165717	0.000081
H113	H	0.668422	-0.752993	-0.099871
H114	H	0.669666	-0.645200	0.100011
H115	H	0.743004	0.003495	0.734940
Br116	Br	0.673201	-0.355905	-0.184869
H117	H	0.674964	-0.206525	-0.099880
H118	H	0.676252	-0.098759	-0.099874
Br119	Br	0.803080	-0.056557	0.574978
Br120	Br	0.580506	0.165903	0.132544
H121	H	0.486603	0.172254	0.000049
H122	H	0.674936	-0.206493	0.100008
H123	H	0.676211	-0.098742	0.100006
Br124	Br	0.764151	-0.017637	0.867602
Br125	Br	0.580513	0.165901	0.282474
Br126	Br	0.673146	-0.355860	0.185002
H127	H	-0.167631	0.164421	0.000084
Br128	Br	0.671490	-0.495855	0.184995
H129	H	0.671712	-0.479765	-0.154961
H130	H	-0.141947	-0.023982	0.000074
Br131	Br	0.580552	0.165872	0.867639
Br132	Br	-0.014235	-0.050690	0.000085
Br133	Br	0.580530	0.165870	0.717730
H134	H	0.206291	0.220907	0.000068
H135	H	0.781929	-0.035414	0.442344
Br136	Br	0.126096	-0.101017	0.000085
Br137	Br	0.541553	0.204788	0.425140
Br138	Br	0.078585	0.247615	0.000077
H139	H	0.668393	-0.752971	0.100007
H140	H	0.742971	0.003534	0.149765
H141	H	0.246123	-0.071339	0.000096
H142	H	0.669724	-0.645245	-0.099878
H143	H	0.404512	-0.017441	0.000055
H144	H	0.512279	-0.016146	0.000053
Br145	Br	0.764119	-0.017620	0.282403
H146	H	0.562710	0.183658	0.557782
