data_functionalizedCrystal
_audit_creation_method	'MofGen! by Chris Wilmer'
_symmetry_space_group_name_H-M	'P1'
_symmetry_Int_Tables_number	1
_symmetry_cell_setting	triclinic
loop_
_symmetry_equiv_pos_as_xyz
  x,y,z
_cell_length_a	6.817900
_cell_length_b	17.982959
_cell_length_c	16.305550
_cell_angle_alpha	95.663793
_cell_angle_beta	103.455250
_cell_angle_gamma	102.451857
loop_
_atom_site_label
_atom_site_type_symbol
_atom_site_fract_x
_atom_site_fract_y
_atom_site_fract_z
V1	V	-4.021185	-0.106056	-0.263386
O2	O	-4.014053	0.004435	-0.258009
O3	O	-3.967692	-0.209656	-0.261933
O4	O	-3.972655	-0.104715	-0.378098
O5	O	-4.009056	-0.101232	-0.141040
V6	V	-4.505489	-0.092806	-0.248710
O7	O	-4.280728	-0.135122	-0.295579
O8	O	-4.696143	-0.063740	-0.216517
O9	O	-4.335776	0.010793	-0.250163
O10	O	-4.630018	-0.203297	-0.254086
O11	O	-4.635015	-0.097630	-0.371056
O12	O	-4.330813	-0.094147	-0.133997
C13	C	-3.811458	-0.234902	-0.257868
C14	C	-3.849007	-0.319597	-0.257445
C15	C	-4.048560	-0.363278	-0.261467
C16	C	-4.083832	-0.442859	-0.261074
C17	C	-3.919546	-0.478757	-0.256654
C18	C	-3.719978	-0.435071	-0.252634
C19	C	-3.684711	-0.355492	-0.253032
C20	C	-3.862200	-0.756002	-0.251027
C21	C	-3.897482	-0.835586	-0.250626
C22	C	-4.261321	-0.843370	-0.259069
C23	C	-4.226054	-0.763791	-0.259467
C24	C	-4.026493	-0.720112	-0.255452
C25	C	-3.988250	-0.633822	-0.255879
C26	C	-3.957783	-0.565045	-0.256220
C27	C	-3.817788	-0.101039	-0.406047
C28	C	-3.859359	-0.100628	-0.499828
C29	C	-4.010522	-0.099036	-0.840568
C30	C	-3.774699	-0.094308	-0.799624
C31	C	-3.731470	-0.095051	-0.702131
C32	C	-3.935526	-0.099825	-0.671523
C33	C	-4.098969	-0.175070	-0.722401
C34	C	-4.140853	-0.174645	-0.819949
C35	C	-4.068613	-0.029120	-0.794491
C36	C	-4.020712	-0.028524	-0.696646
C37	C	-3.893155	-0.100274	-0.575986
C38	C	-4.052902	-0.098592	-0.936105
C39	C	-4.155351	0.036035	-0.254225
C40	C	-4.097040	0.120730	-0.254654
C41	C	-4.149022	-0.097826	-0.106044
C42	C	-4.086689	-0.098233	-0.012263
H43	H	-3.522219	-0.319928	-0.249761
C44	C	-3.566122	-0.022891	-0.655341
C45	C	-3.504343	0.021776	-0.714798
C46	C	-3.351995	0.088249	-0.671732
H47	H	-3.621419	0.006166	-0.618603
H48	H	-3.449361	-0.037159	-0.622542
H49	H	-3.621082	0.036045	-0.747583
H50	H	-3.449010	-0.007258	-0.751538
H51	H	-3.235234	0.073981	-0.638932
H52	H	-3.407308	0.117300	-0.634995
H53	H	-3.310044	0.118561	-0.712067
H54	H	-4.423817	-0.878943	-0.262340
H55	H	-3.727212	-0.144540	-0.831303
H56	H	-3.763691	-0.864812	-0.247031
H57	H	-3.902321	0.027132	-0.662082
C58	C	-3.950269	0.046966	-0.811877
C59	C	-3.827579	0.091960	-0.734543
C60	C	-3.718537	0.162055	-0.750526
H61	H	-3.863540	0.037313	-0.847540
H62	H	-4.046271	0.073654	-0.839505
H63	H	-3.731588	0.065277	-0.706928
H64	H	-3.914257	0.101634	-0.698869
H65	H	-3.814539	0.188743	-0.778153
H66	H	-3.631820	0.152394	-0.786190
H67	H	-3.635294	0.192594	-0.698057
C68	C	-4.021817	-0.245732	-0.700405
C69	C	-4.004364	-0.287246	-0.774553
C70	C	-3.933316	-0.352347	-0.754326
H71	H	-3.889600	-0.230002	-0.660090
H72	H	-4.117711	-0.277471	-0.676712
H73	H	-3.908474	-0.255513	-0.798233
H74	H	-4.136555	-0.302995	-0.814876
H75	H	-4.029210	-0.384087	-0.730633
H76	H	-3.801104	-0.336610	-0.714010
H77	H	-3.921484	-0.380526	-0.804633
H78	H	-3.699708	-0.720448	-0.247752
H79	H	-4.314374	-0.181244	-0.847962
H80	H	-3.586218	-0.464305	-0.249039
H81	H	-4.102182	-0.227573	-0.850507
C82	C	-4.226815	-0.324228	-0.266395
C83	C	-4.254527	-0.289199	-0.339809
C84	C	-4.418706	-0.253213	-0.344374
H85	H	-4.350863	-0.361567	-0.268784
H86	H	-4.195315	-0.286225	-0.217304
H87	H	-4.286039	-0.327197	-0.388888
H88	H	-4.130523	-0.251849	-0.337437
H89	H	-4.387206	-0.215211	-0.295283
H90	H	-4.542741	-0.290557	-0.346760
H91	H	-4.437518	-0.229436	-0.394180
C92	C	-3.639790	-0.162867	-0.680801
C93	C	-3.623146	-0.203331	-0.755747
C94	C	-3.538727	-0.265818	-0.736134
H95	H	-3.505738	-0.144493	-0.642149
H96	H	-3.727898	-0.196190	-0.655321
H97	H	-3.535039	-0.170015	-0.781214
H98	H	-3.757170	-0.221724	-0.794408
H99	H	-3.626836	-0.299140	-0.710654
H100	H	-3.404681	-0.247437	-0.697481
H101	H	-3.527442	-0.293284	-0.786981
H102	H	-4.251828	-0.181285	-0.703509
H103	H	-4.359834	-0.734567	-0.263063
H104	H	-4.168045	-0.027588	-0.675295
C105	C	-4.297753	-0.032675	-0.830277
C106	C	-4.317289	0.034151	-0.865450
C107	C	-4.528336	0.030900	-0.898419
H108	H	-4.359314	-0.076565	-0.873314
H109	H	-4.366100	-0.036309	-0.785735
H110	H	-4.248970	0.037776	-0.909986
H111	H	-4.255773	0.078050	-0.822429
H112	H	-4.596683	0.027267	-0.853877
H113	H	-4.589879	-0.012992	-0.941453
H114	H	-4.541619	0.076243	-0.922280
C115	C	-4.300317	-0.490347	-0.265280
C116	C	-4.293784	-0.525819	-0.192349
C117	C	-4.493172	-0.569573	-0.196192
H118	H	-4.393266	-0.457646	-0.267918
H119	H	-4.347040	-0.528680	-0.314718
H120	H	-4.247089	-0.487491	-0.142924
H121	H	-4.200876	-0.558533	-0.189697
H122	H	-4.539895	-0.607906	-0.245630
H123	H	-4.586106	-0.536866	-0.198831
H124	H	-4.488763	-0.593651	-0.146714
H125	H	-3.671155	-0.039952	-0.811805
