data_functionalizedCrystal
_audit_creation_method	'MofGen! by Chris Wilmer'
_symmetry_space_group_name_H-M	'P1'
_symmetry_Int_Tables_number	1
_symmetry_cell_setting	triclinic
loop_
_symmetry_equiv_pos_as_xyz
  x,y,z
_cell_length_a	13.262390
_cell_length_b	17.038272
_cell_length_c	11.804365
_cell_angle_alpha	102.699962
_cell_angle_beta	62.657606
_cell_angle_gamma	87.643524
loop_
_atom_site_label
_atom_site_type_symbol
_atom_site_fract_x
_atom_site_fract_y
_atom_site_fract_z
O1	O	1.520373	0.011442	-0.591451
O2	O	1.194715	0.039641	-0.485979
O3	O	1.355607	-0.088179	-0.538078
O4	O	1.359482	0.139262	-0.539352
O5	O	1.313247	-0.054561	-0.326306
O6	O	1.152356	0.073259	-0.274206
O7	O	1.478013	0.045060	-0.379679
Cu8	Cu	1.311317	0.062229	-0.307606
Cu9	Cu	1.361412	0.022472	-0.558052
O10	O	1.317122	0.172880	-0.327579
C11	C	1.131662	0.057961	-0.366531
C12	C	1.006889	0.062455	-0.326120
C13	C	0.747549	0.001806	-0.673976
C14	C	0.864780	-0.002420	-0.711947
C15	C	0.900313	0.013798	-0.615493
C16	C	0.818604	0.034243	-0.481063
C17	C	0.701363	0.038463	-0.443089
C18	C	0.854127	0.050456	-0.384606
C19	C	0.772418	0.070901	-0.250176
C20	C	0.655188	0.075121	-0.212208
C21	C	0.619655	0.058902	-0.308662
C22	C	0.971368	0.046236	-0.422580
C23	C	0.925182	0.082893	-0.191692
C24	C	0.807951	0.087119	-0.153722
C25	C	1.330906	-0.100329	-0.431052
C26	C	1.320402	-0.186615	-0.427650
C27	C	1.416841	-0.241377	-0.458883
C28	C	1.406967	-0.322454	-0.455697
C29	C	1.300651	-0.348765	-0.421267
C30	C	1.204206	-0.293998	-0.390036
C31	C	1.214083	-0.212924	-0.393232
C32	C	1.265760	-0.592844	-0.409983
C33	C	1.255890	-0.673924	-0.406786
C34	C	1.458653	-0.702375	-0.472449
C35	C	1.468519	-0.621297	-0.475634
C36	C	1.372074	-0.566538	-0.444410
C37	C	1.290555	-0.431638	-0.418005
C38	C	1.382173	-0.483669	-0.447681
C39	C	1.541068	0.026739	-0.499130
C40	C	1.665841	0.022245	-0.539549
C41	C	1.341823	0.185029	-0.434609
C42	C	1.352329	0.271314	-0.438019
N43	N	1.276091	0.090192	-0.131459
N44	N	1.396646	-0.005498	-0.734202
C45	C	1.481235	-0.072661	0.176061
C46	C	1.507882	-0.093818	0.042770
C47	C	1.449936	-0.047817	-0.000794
C48	C	1.365340	0.019344	0.088946
C49	C	1.338696	0.040507	0.222248
C50	C	1.307397	0.065350	0.045393
C51	C	1.222801	0.132511	0.135133
C52	C	1.196161	0.153670	0.268421
C53	C	1.254107	0.107670	0.311985
C54	C	1.334041	0.044187	-0.087908
C55	C	1.191502	0.157355	-0.041721
C56	C	1.164855	0.178512	0.091569
H57	H	0.954111	0.096099	-0.113152
H58	H	1.468741	-0.462246	-0.475741
H59	H	1.127287	0.208362	0.341486
C60	C	1.159668	-0.532620	-0.375641
N61	N	1.079755	-0.487256	-0.349777
C62	C	1.479243	-0.071098	-0.147415
N63	N	1.501316	-0.088639	-0.257856
C64	C	1.071798	0.252387	0.190300
N65	N	1.001705	0.308029	0.264665
C66	C	1.127754	0.207958	-0.089634
N67	N	1.079745	0.246069	-0.125731
H68	H	0.995769	0.010357	-0.646417
C69	C	1.600929	-0.167696	-0.055931
N70	N	1.671014	-0.223347	-0.130275
C71	C	1.061234	0.023750	-0.570450
N72	N	1.128922	0.006815	-0.681834
H73	H	0.588663	0.091754	-0.102747
H74	H	0.931300	-0.019071	-0.821400
H75	H	1.117642	-0.315428	-0.362011
C76	C	1.107991	-0.152685	-0.358870
N77	N	1.028079	-0.107314	-0.332990
H78	H	0.718606	-0.011405	-0.752494
C79	C	1.224776	0.130925	0.458620
N80	N	1.202678	0.148435	0.569068
C81	C	0.718058	0.109603	-0.005851
N82	N	0.650349	0.126536	0.105525
C83	C	0.490694	0.063560	-0.266900
N84	N	0.393560	0.067071	-0.235450
C85	C	1.513055	-0.382686	-0.490035
N86	N	1.592964	-0.428052	-0.515894
C87	C	1.533798	-0.212443	-0.496758
N88	N	1.621894	-0.190653	-0.525292
C89	C	1.544967	-0.123252	0.223992
N90	N	1.592974	-0.161360	0.260094
C91	C	1.585474	-0.592361	-0.513508
N92	N	1.673566	-0.570566	-0.542029
H93	H	1.537172	-0.746968	-0.497873
H94	H	1.169306	-0.695339	-0.378727
H95	H	1.203992	-0.453069	-0.389970
H96	H	1.402919	-0.010495	-0.160963
