data_functionalizedCrystal
_audit_creation_method	'MofGen! by Chris Wilmer'
_symmetry_space_group_name_H-M	'P1'
_symmetry_Int_Tables_number	1
_symmetry_cell_setting	triclinic
loop_
_symmetry_equiv_pos_as_xyz
  x,y,z
_cell_length_a	6.817900
_cell_length_b	11.168121
_cell_length_c	19.453114
_cell_angle_alpha	94.532118
_cell_angle_beta	101.709288
_cell_angle_gamma	108.508496
loop_
_atom_site_label
_atom_site_type_symbol
_atom_site_fract_x
_atom_site_fract_y
_atom_site_fract_z
V1	V	-4.032642	-0.176019	-0.219005
O2	O	-3.993699	0.007106	-0.214830
O3	O	-4.009456	-0.347716	-0.217513
O4	O	-3.975247	-0.173905	-0.314518
O5	O	-4.028145	-0.167908	-0.117153
V6	V	-4.514169	-0.154045	-0.206822
O7	O	-4.298280	-0.224221	-0.245729
O8	O	-4.698728	-0.105844	-0.180098
O9	O	-4.314148	0.017651	-0.208314
O10	O	-4.670509	-0.337170	-0.210997
O11	O	-4.636063	-0.162157	-0.308673
O12	O	-4.348358	-0.156159	-0.111309
C13	C	-3.860882	-0.389553	-0.214059
C14	C	-3.923151	-0.529921	-0.213476
C15	C	-3.817243	-0.167839	-0.337798
C16	C	-3.851767	-0.167247	-0.415880
C17	C	-4.124577	-0.598632	-0.216547
C18	C	-4.188940	-0.743709	-0.215945
C19	C	-4.050699	-0.173307	-0.456138
C20	C	-4.083137	-0.172750	-0.529504
C21	C	-3.916645	-0.166159	-0.562613
C22	C	-3.717682	-0.160092	-0.522346
C23	C	-3.685243	-0.160635	-0.448979
N24	N	-3.866695	-0.232843	-0.681405
N25	N	-3.897524	-0.232330	-0.751100
C26	C	-4.014370	-0.164518	-0.783661
N27	N	-4.099261	-0.097256	-0.743896
N28	N	-4.068437	-0.097775	-0.674195
C29	C	-3.951799	-0.165568	-0.642166
C30	C	-4.248488	-0.169973	-0.903471
C31	C	-4.280916	-0.169409	-0.976839
C32	C	-3.915460	-0.156763	-0.969680
C33	C	-3.883032	-0.157314	-0.896313
C34	C	-4.049556	-0.163926	-0.863214
C35	C	-4.126066	0.059482	-0.211765
C36	C	-4.043034	0.199848	-0.212353
C37	C	-4.169704	-0.162230	-0.088025
C38	C	-4.114418	-0.162816	-0.009942
H39	H	-4.249378	-0.550054	-0.219627
H40	H	-4.245140	-0.177692	-0.562289
Br41	Br	-3.491720	-0.151137	-0.567276
H42	H	-3.870474	-0.741093	-0.209722
H43	H	-4.186297	-0.178685	-0.429193
H44	H	-3.523241	-0.155691	-0.416201
H45	H	-3.798355	-0.578501	-0.210404
Br46	Br	-4.474472	-0.178938	-0.858546
Br47	Br	-4.476549	-0.842146	-0.220317
H48	H	-4.442909	-0.174334	-1.009615
Br49	Br	-3.689482	-0.147787	-1.014602
Br50	Br	-3.613046	-0.149108	-0.841675
