data_functionalizedCrystal
_audit_creation_method	'MofGen! by Chris Wilmer'
_symmetry_space_group_name_H-M	'P1'
_symmetry_Int_Tables_number	1
_symmetry_cell_setting	triclinic
loop_
_symmetry_equiv_pos_as_xyz
  x,y,z
_cell_length_a	10.654550
_cell_length_b	17.699083
_cell_length_c	9.730223
_cell_angle_alpha	89.994713
_cell_angle_beta	89.999957
_cell_angle_gamma	83.883973
loop_
_atom_site_label
_atom_site_type_symbol
_atom_site_fract_x
_atom_site_fract_y
_atom_site_fract_z
O1	O	1.665978	0.106302	-0.114190
O2	O	1.300323	0.116430	-0.114216
O3	O	1.493481	0.001243	-0.114190
O4	O	1.472820	0.221490	-0.114216
O5	O	1.493469	0.001240	0.114390
O6	O	1.300310	0.116427	0.114364
O7	O	1.665966	0.106299	0.114390
Zn8	Zn	1.483136	0.111363	0.150669
Zn9	Zn	1.483152	0.111367	-0.150495
O10	O	1.472807	0.221487	0.114364
C11	C	1.253531	0.115685	0.000071
C12	C	1.114127	0.113460	0.000061
C13	C	1.033454	0.181281	0.000058
C14	C	0.902470	0.179186	0.000082
C15	C	0.932844	0.041444	0.000108
C16	C	1.063826	0.043539	0.000094
C17	C	1.492735	-0.026960	0.000100
C18	C	1.490514	-0.110993	0.000100
C19	C	1.603894	-0.158893	0.000110
C20	C	1.601799	-0.237849	0.000098
C21	C	1.486323	-0.268904	0.000085
C22	C	1.372935	-0.220998	0.000071
C23	C	1.375030	-0.142043	0.000074
C24	C	1.364481	-0.539415	0.000060
C25	C	1.362394	-0.618376	0.000061
C26	C	1.591249	-0.635221	0.000083
C27	C	1.593345	-0.556266	0.000086
C28	C	1.479957	-0.508367	0.000065
C29	C	1.482229	-0.422753	0.000075
C30	C	1.484050	-0.354516	0.000085
C31	C	1.712757	0.107045	0.000100
C32	C	1.852161	0.109269	0.000100
C33	C	1.473554	0.249690	0.000071
C34	C	1.475775	0.333722	0.000061
N35	N	1.483134	0.111359	0.356205
N36	N	1.483164	0.111364	-0.356032
C37	C	1.568694	0.060376	0.428142
C38	C	1.568706	0.060376	0.572025
C39	C	1.397596	0.162350	0.572021
C40	C	1.397578	0.162345	0.428141
H41	H	1.129514	-0.011692	0.000101
O42	O	1.711821	-0.284488	0.000042
C43	C	1.685216	-0.360835	0.000059
H44	H	1.586588	-0.364375	-0.043223
H45	H	1.690042	-0.383652	0.109716
C46	C	1.903999	-0.404281	-0.036425
C47	C	1.782867	-0.408630	-0.089596
H48	H	1.964237	-0.433765	-0.091723
H49	H	1.921925	-0.352845	-0.036432
H50	H	1.908003	-0.423295	0.054955
H51	H	1.778860	-0.389608	-0.180967
H52	H	1.764942	-0.460064	-0.089607
H53	H	1.683575	-0.674231	0.000094
O54	O	1.314342	0.211771	0.358188
C55	C	1.237015	0.170799	0.274958
H56	H	1.235084	0.111101	0.318342
H57	H	1.276322	0.167045	0.165912
C58	C	1.104430	0.285078	0.219457
C59	C	1.102050	0.211758	0.272748
H60	H	1.021179	0.310344	0.218088
H61	H	1.156529	0.312682	0.275526
H62	H	1.137192	0.281939	0.128591
H63	H	1.069303	0.214897	0.363619
H64	H	1.049942	0.184154	0.216694
O65	O	1.082168	0.249245	-0.000145
C66	C	1.040933	0.290624	-0.118547
H67	H	0.950148	0.269517	-0.158002
H68	H	1.116749	0.282259	-0.201451
C69	C	1.127614	0.401556	-0.034135
C70	C	1.016105	0.375637	-0.082588
H71	H	1.112304	0.453997	-0.011958
H72	H	1.155399	0.373678	0.045632
H73	H	1.190783	0.394579	-0.103231
H74	H	0.952943	0.382605	-0.013487
H75	H	0.988308	0.403518	-0.162343
O76	O	1.254456	-0.492784	-0.000016
C77	C	1.281054	-0.416435	0.000014
H78	H	1.379687	-0.412887	-0.043249
H79	H	1.276212	-0.393632	0.109673
C80	C	1.062273	-0.372991	-0.036504
C81	C	1.183411	-0.368632	-0.089653
H82	H	1.002040	-0.343502	-0.091809
H83	H	1.044352	-0.424428	-0.036520
H84	H	1.058256	-0.353990	0.054877
H85	H	1.187431	-0.387642	-0.181025
H86	H	1.201331	-0.317197	-0.089655
H87	H	0.836791	0.234412	0.000081
O88	O	1.651839	0.010773	0.358476
C89	C	1.727377	-0.034213	0.452831
H90	H	1.675906	-0.035352	0.555401
H91	H	1.820585	-0.009115	0.468112
C92	C	1.816726	-0.114320	0.270722
C93	C	1.753504	-0.115725	0.396697
H94	H	1.832848	-0.164600	0.236095
H95	H	1.765838	-0.084011	0.207152
H96	H	1.894393	-0.093402	0.283474
H97	H	1.675832	-0.136634	0.383941
H98	H	1.804379	-0.146040	0.460264
H99	H	0.891873	-0.015484	0.000143
H100	H	1.327940	0.203863	0.630605
O101	O	1.651649	0.010777	0.641966
C102	C	1.584561	-0.036283	0.725237
H103	H	1.485530	-0.038121	0.681892
H104	H	1.577916	-0.012633	0.834277
C105	C	1.775664	-0.114900	0.780692
C106	C	1.654035	-0.117162	0.727447
H107	H	1.818519	-0.164789	0.782062
H108	H	1.820863	-0.083193	0.724595
H109	H	1.770108	-0.095188	0.871554
H110	H	1.659592	-0.136865	0.636582
H111	H	1.608837	-0.148874	0.783529
H112	H	1.687377	-0.530986	0.000103
H113	H	1.697927	-0.133614	0.000128
H114	H	1.268354	-0.643657	0.000054
H115	H	1.278912	-0.246289	0.000053
H116	H	1.282705	-0.103043	0.000066
