data_functionalizedCrystal
_audit_creation_method	'MofGen! by Chris Wilmer'
_symmetry_space_group_name_H-M	'P1'
_symmetry_Int_Tables_number	1
_symmetry_cell_setting	triclinic
loop_
_symmetry_equiv_pos_as_xyz
  x,y,z
_cell_length_a	6.817900
_cell_length_b	17.296766
_cell_length_c	17.110486
_cell_angle_alpha	100.227224
_cell_angle_beta	99.060439
_cell_angle_gamma	102.621013
loop_
_atom_site_label
_atom_site_type_symbol
_atom_site_fract_x
_atom_site_fract_y
_atom_site_fract_z
V1	V	-3.976392	-0.110853	-0.254662
O2	O	-3.965399	0.005573	-0.241624
O3	O	-3.927739	-0.220040	-0.260798
O4	O	-3.906258	-0.109040	-0.362136
O5	O	-3.987029	-0.106195	-0.139585
V6	V	-4.462869	-0.096940	-0.239941
O7	O	-4.231170	-0.141373	-0.286954
O8	O	-4.658287	-0.066421	-0.207649
O9	O	-4.288315	0.012247	-0.233806
O10	O	-4.591258	-0.213367	-0.252979
O11	O	-4.569629	-0.101598	-0.355019
O12	O	-4.309796	-0.098753	-0.132468
C13	C	-3.773381	-0.246661	-0.258813
C14	C	-3.814744	-0.335922	-0.264546
C15	C	-3.808623	-0.366461	-0.193958
C16	C	-3.847507	-0.450332	-0.199347
C17	C	-3.892496	-0.503662	-0.275325
C18	C	-3.898622	-0.473119	-0.345918
C19	C	-3.859753	-0.389250	-0.340528
C20	C	-4.011147	-0.757464	-0.295265
C21	C	-4.050010	-0.841338	-0.300649
C22	C	-3.998896	-0.818545	-0.154078
C23	C	-3.960017	-0.734675	-0.148695
C24	C	-3.966156	-0.704139	-0.219288
C25	C	-3.932236	-0.589392	-0.280835
C26	C	-3.926431	-0.618411	-0.213777
C27	C	-3.745979	-0.105069	-0.388078
C28	C	-3.769919	-0.104309	-0.475990
C29	C	-3.962444	-0.107959	-0.521609
C30	C	-3.984925	-0.107244	-0.604211
C31	C	-3.814883	-0.102885	-0.641194
C32	C	-3.622342	-0.099232	-0.595568
C33	C	-3.599860	-0.099941	-0.512966
C34	C	-3.873693	-0.100539	-0.890381
C35	C	-3.896192	-0.099833	-0.972989
C36	C	-4.258774	-0.107844	-0.981627
C37	C	-4.236277	-0.108557	-0.899024
C38	C	-4.043737	-0.104900	-0.853404
C39	C	-3.837860	-0.102157	-0.725627
C40	C	-4.020759	-0.105622	-0.768971
C41	C	-4.106015	0.038863	-0.235789
C42	C	-4.043890	0.128123	-0.230061
C43	C	-4.133417	-0.102728	-0.106521
C44	C	-4.088717	-0.103484	-0.018608
H45	H	-3.993905	-0.843417	-0.096605
H46	H	-4.086637	-0.884760	-0.362522
H47	H	-4.016122	-0.732612	-0.352746
H48	H	-3.968870	-0.632823	-0.342696
O49	O	-3.947150	-0.530639	-0.427866
H50	H	-4.087514	-0.523062	-0.465137
H51	H	-4.415533	-0.110820	-1.018779
O52	O	-3.654510	-0.097495	-0.765543
H53	H	-3.591416	-0.150698	-0.760003
O54	O	-3.712772	-0.095131	-1.012876
H55	H	-3.760767	-0.095265	-1.077980
O56	O	-3.866335	-0.356305	-0.416660
H57	H	-3.904127	-0.407477	-0.470397
H58	H	-3.889810	-0.574986	-0.151917
H59	H	-4.100918	-0.111514	-0.491506
H60	H	-4.141694	-0.110212	-0.641350
O61	O	-4.419668	-0.113239	-0.859130
H62	H	-4.557317	-0.115645	-0.904728
H63	H	-3.923398	-0.691257	-0.086826
O64	O	-3.666035	-0.096603	-0.841187
H65	H	-3.675216	-0.151703	-0.815727
O66	O	-3.760085	-0.308940	-0.112010
H67	H	-3.762377	-0.344269	-0.063833
O68	O	-4.204166	-0.110320	-0.729091
H69	H	-4.230686	-0.165810	-0.704054
O70	O	-3.438854	-0.094577	-0.635402
H71	H	-3.412158	-0.039106	-0.660465
O72	O	-3.840878	-0.483272	-0.123214
H73	H	-3.803029	-0.432097	-0.069476
H74	H	-3.443078	-0.096949	-0.475819
