data_functionalizedCrystal
_audit_creation_method	'MofGen! by Chris Wilmer'
_symmetry_space_group_name_H-M	'P1'
_symmetry_Int_Tables_number	1
_symmetry_cell_setting	triclinic
loop_
_symmetry_equiv_pos_as_xyz
  x,y,z
_cell_length_a	23.532407
_cell_length_b	16.992695
_cell_length_c	16.053802
_cell_angle_alpha	87.258926
_cell_angle_beta	87.425821
_cell_angle_gamma	93.241516
loop_
_atom_site_label
_atom_site_type_symbol
_atom_site_fract_x
_atom_site_fract_y
_atom_site_fract_z
O1	O	0.762238	-0.091822	-0.069609
O2	O	1.262238	0.408178	0.430391
O3	O	0.597057	-0.105591	-0.069572
O4	O	1.097057	0.394409	0.430428
O5	O	0.678985	0.015430	-0.069583
O6	O	1.178985	0.515430	0.430417
O7	O	0.680310	-0.212844	-0.069597
O8	O	1.180310	0.287156	0.430403
O9	O	0.674474	0.008796	0.069276
O10	O	1.174474	0.508796	0.569276
O11	O	0.592546	-0.112225	0.069288
O12	O	1.092546	0.387775	0.569288
O13	O	0.757728	-0.098456	0.069251
O14	O	1.257728	0.401544	0.569251
Zn15	Zn	0.674421	-0.106394	0.091316
Zn16	Zn	1.174421	0.393606	0.591316
Zn17	Zn	0.680364	-0.097653	-0.091637
Zn18	Zn	1.180364	0.402347	0.408363
O19	O	0.675799	-0.219478	0.069263
O20	O	1.175799	0.280522	0.569263
C21	C	0.573568	-0.108558	-0.000137
C22	C	1.073568	0.391442	0.499863
C23	C	0.510298	-0.107504	-0.000123
C24	C	1.010298	0.392496	0.499877
C25	C	0.675026	0.041313	-0.000153
C26	C	1.175026	0.541313	0.499847
C27	C	0.669943	0.128317	-0.000152
C28	C	1.169943	0.628317	0.499848
C29	C	0.781217	-0.095490	-0.000185
C30	C	1.281217	0.404510	0.499815
C31	C	0.844487	-0.096543	-0.000205
C32	C	1.344487	0.403457	0.499795
C33	C	1.114422	-0.172509	-0.000160
C34	C	1.614422	0.327491	0.499840
C35	C	1.054973	-0.171530	-0.000166
C36	C	1.554973	0.328470	0.499834
O37	O	1.021219	-0.231793	-0.000143
O38	O	1.521219	0.268207	0.499857
N39	N	1.028777	-0.099583	-0.000171
N40	N	1.528777	0.400417	0.499829
C41	C	1.062033	-0.028611	-0.000161
C42	C	1.562033	0.471389	0.499839
O43	O	1.034292	0.032676	-0.000165
O44	O	1.534292	0.532676	0.499835
C45	C	1.121480	-0.029591	-0.000149
C46	C	1.621480	0.470409	0.499851
C47	C	1.147673	-0.101543	-0.000153
C48	C	1.647673	0.398457	0.499847
C49	C	1.140616	-0.244455	-0.000162
C50	C	1.640616	0.255545	0.499838
C51	C	1.200060	-0.245434	-0.000158
C52	C	1.700060	0.254566	0.499842
C53	C	1.233311	-0.174467	-0.000151
C54	C	1.733311	0.325533	0.499849
C55	C	1.207118	-0.102522	-0.000148
C56	C	1.707118	0.397478	0.499852
C57	C	1.154734	0.041380	-0.000134
C58	C	1.654734	0.541380	0.499866
C59	C	1.214185	0.040393	-0.000121
C60	C	1.714185	0.540393	0.499879
C61	C	1.240378	-0.031559	-0.000125
C62	C	1.740378	0.468441	0.499875
C63	C	1.299813	-0.032534	-0.000137
C64	C	1.799813	0.467466	0.499863
N65	N	1.326010	-0.104481	-0.000132
N66	N	1.826010	0.395519	0.499868
C67	C	1.292759	-0.175448	-0.000139
C68	C	1.792759	0.324552	0.499861
C69	C	0.937189	-0.026557	-0.000185
C70	C	1.437189	0.473443	0.499815
C71	C	0.877743	-0.025575	-0.000203
C72	C	1.377743	0.474425	0.499797
C73	C	0.870688	-0.168495	-0.000206
C74	C	1.370688	0.331505	0.499794
C75	C	0.930135	-0.169476	-0.000194
C76	C	1.430135	0.330524	0.499806
C77	C	0.963385	-0.098504	-0.000180
C78	C	1.463385	0.401496	0.499820
C79	C	1.417597	-0.177499	-0.000131
C80	C	1.917597	0.322501	0.499869
C81	C	1.477047	-0.178471	-0.000130
C82	C	1.977047	0.321529	0.499870
C83	C	1.484097	-0.035552	-0.000122
C84	C	1.984097	0.464448	0.499878
C85	C	1.424652	-0.034579	-0.000128
C86	C	1.924652	0.465421	0.499872
C87	C	1.391403	-0.105559	-0.000129
C88	C	1.891403	0.394441	0.499871
O89	O	1.333604	0.027697	-0.000157
O90	O	1.833604	0.527697	0.499843
O91	O	1.320507	-0.236725	-0.000124
O92	O	1.820507	0.263275	0.499876
C93	C	0.679758	-0.245360	-0.000169
C94	C	1.179758	0.254640	0.499831
C95	C	0.684842	-0.332364	-0.000176
C96	C	1.184842	0.167636	0.499824
N97	N	0.670369	-0.112359	0.216177
N98	N	1.170369	0.387641	0.716177
C99	C	0.718990	0.178940	-0.000162
C100	C	1.218990	0.678940	0.499838
C101	C	0.714210	0.260690	-0.000169
C102	C	1.214210	0.760690	0.499831
C103	C	0.660383	0.291815	-0.000160
C104	C	1.160383	0.791815	0.499840
C105	C	0.611333	0.241185	-0.000153
C106	C	1.111333	0.741185	0.499847
C107	C	0.616113	0.159438	-0.000152
C108	C	1.116113	0.659438	0.499848
C109	C	0.640572	0.535259	-0.000167
C110	C	1.140572	1.035259	0.499833
C111	C	0.635795	0.617013	-0.000166
C112	C	1.135795	1.117013	0.499834
C113	C	0.738673	0.636512	-0.000184
C114	C	1.238673	1.136512	0.499816
C115	C	0.743448	0.554761	-0.000178
C116	C	1.243448	1.054761	0.499822
C117	C	0.694398	0.504139	-0.000175
C118	C	1.194398	1.004139	0.499825
N119	N	0.655497	0.375376	-0.000164
N120	N	1.155497	0.875376	0.499836
N121	N	0.699285	0.420580	-0.000176
N122	N	1.199285	0.920580	0.499824
N123	N	0.684420	-0.091682	-0.216498
N124	N	1.184420	0.408318	0.283502
C125	C	0.705244	-0.060882	0.259866
C126	C	1.205244	0.439118	0.759866
C127	C	0.702415	-0.065062	0.347273
C128	C	1.202415	0.434938	0.847273
C129	C	0.664714	-0.120723	0.390990
C130	C	1.164714	0.379277	0.890990
C131	C	0.629835	-0.172202	0.347295
C132	C	1.129835	0.327798	0.847295
C133	C	0.632661	-0.168018	0.259889
C134	C	1.132661	0.331982	0.759889
C135	C	0.652367	-0.138977	0.652401
C136	C	1.152367	0.361023	1.152401
C137	C	0.649545	-0.143159	0.739813
C138	C	1.149545	0.356841	1.239813
C139	C	0.722125	-0.036018	0.739786
C140	C	1.222125	0.463982	1.239786
C141	C	0.724950	-0.031842	0.652378
C142	C	1.224950	0.468158	1.152378
C143	C	0.690069	-0.083318	0.608691
C144	C	1.190069	0.416682	1.108691
N145	N	0.661823	-0.124998	0.480334
N146	N	1.161823	0.375002	0.980334
N147	N	0.692958	-0.079038	0.519348
N148	N	1.192958	0.420962	1.019348
H149	H	1.498370	-0.237065	-0.000133
H150	H	1.998370	0.262935	0.499867
H151	H	0.964258	0.031240	-0.000181
H152	H	1.464258	0.531240	0.499819
H153	H	0.843604	-0.226280	-0.000207
H154	H	1.343604	0.273720	0.499793
H155	H	0.600631	0.494051	-0.000164
H156	H	1.100631	0.994051	0.499836
C157	C	0.802662	0.520530	-0.000187
C158	C	1.302662	1.020530	0.499813
N159	N	0.847262	0.494748	-0.000191
N160	N	1.347262	0.994748	0.499809
C161	C	0.766421	0.029394	0.604297
C162	C	1.266421	0.529394	1.104297
N163	N	0.797658	0.075517	0.568081
N164	N	1.297658	0.575517	1.068081
H165	H	0.735947	-0.015560	0.224278
H166	H	1.235947	0.484440	0.724278
H167	H	0.762821	0.153605	-0.000165
H168	H	1.262821	0.653605	0.499835
C169	C	0.576579	0.651247	-0.000162
C170	C	1.076579	1.151247	0.499838
N171	N	0.531980	0.677034	-0.000159
N172	N	1.031980	1.177034	0.499841
H173	H	0.856422	0.033015	-0.000213
H174	H	1.356422	0.533015	0.499787
C175	C	0.588357	-0.233422	0.395386
C176	C	1.088357	0.266578	0.895386
N177	N	0.557115	-0.279535	0.431608
N178	N	1.057115	0.220465	0.931608
C179	C	1.250757	0.118470	-0.000109
C180	C	1.750757	0.618470	0.499891
N181	N	1.278302	0.177277	-0.000104
N182	N	1.778302	0.677277	0.499896
C183	C	1.228864	-0.324588	-0.000144
C184	C	1.728864	0.175412	0.499856
N185	N	1.250555	-0.384211	-0.000127
N186	N	1.750555	0.115789	0.499873
H187	H	1.133418	0.099970	-0.000130
H188	H	1.633418	0.599970	0.499870
H189	H	0.567506	0.266534	-0.000150
H190	H	1.067506	0.766534	0.499850
C191	C	0.614075	-0.195705	0.604357
C192	C	1.114075	0.304295	1.104357
N193	N	0.585260	-0.238470	0.568166
N194	N	1.085260	0.261530	1.068166
H195	H	1.113548	-0.302248	-0.000165
H196	H	1.613548	0.197752	0.499835
H197	H	0.576174	0.118220	-0.000144
H198	H	1.076174	0.618220	0.499856
C199	C	1.395839	0.044571	-0.000134
C200	C	1.895839	0.544571	0.499866
N201	N	1.374141	0.104189	-0.000133
N202	N	1.874141	0.604189	0.499867
H203	H	0.604262	-0.209935	0.224319
H204	H	1.104262	0.290065	0.724319
H205	H	1.390532	-0.235297	-0.000129
H206	H	1.890532	0.264703	0.499871
H207	H	1.511181	0.022227	-0.000120
H208	H	2.011181	0.522227	0.499880
C209	C	0.760486	0.020608	0.787849
C210	C	1.260486	0.520608	1.287849
N211	N	0.789379	0.063265	0.824050
N212	N	1.289379	0.563265	1.324050
H213	H	0.618843	-0.188488	0.775403
H214	H	1.118843	0.311512	1.275403
H215	H	0.778606	0.677736	-0.000188
H216	H	1.278606	1.177736	0.499812
C217	C	0.958942	-0.248627	-0.000189
C218	C	1.458942	0.251373	0.499811
N219	N	0.980635	-0.308248	-0.000181
N220	N	1.480635	0.191752	0.499819
H221	H	0.754149	0.301904	-0.000176
H222	H	1.254149	0.801904	0.499824
C223	C	0.740766	-0.008414	0.395327
C224	C	1.240766	0.491586	0.895327
N225	N	0.769648	0.034263	0.431521
N226	N	1.269648	0.534263	0.931521
