data_functionalizedCrystal
_audit_creation_method	'MofGen! by Chris Wilmer'
_symmetry_space_group_name_H-M	'P1'
_symmetry_Int_Tables_number	1
_symmetry_cell_setting	triclinic
loop_
_symmetry_equiv_pos_as_xyz
  x,y,z
_cell_length_a	20.016444
_cell_length_b	14.560438
_cell_length_c	14.560438
_cell_angle_alpha	60.005799
_cell_angle_beta	90.001373
_cell_angle_gamma	59.999440
loop_
_atom_site_label
_atom_site_type_symbol
_atom_site_fract_x
_atom_site_fract_y
_atom_site_fract_z
Zr1	Zr	0.643636	1.005162	-0.120335
O2	O	0.536965	1.196755	-0.266963
O3	O	0.676333	0.813575	-0.075405
O4	O	0.676338	1.005163	-0.266982
O5	O	0.536960	1.005164	0.075754
O6	O	0.786283	1.005158	-0.266974
O7	O	0.536959	1.005167	-0.075387
O8	O	0.786273	0.662442	0.075721
O9	O	0.536969	1.347880	-0.266941
O10	O	0.772332	0.892372	-0.056214
O11	O	0.690282	0.892374	0.056575
O12	O	0.690289	1.117944	-0.168982
O13	O	0.608238	1.117946	-0.056192
Zr14	Zr	0.818985	1.005150	0.120729
Zr15	Zr	0.818985	1.005154	-0.120323
Zr16	Zr	0.643636	1.005158	0.120717
Zr17	Zr	0.643643	1.246190	-0.120300
Zr18	Zr	0.818978	0.764122	0.120693
O19	O	0.786288	1.196737	0.075799
O20	O	0.786288	1.196743	-0.266946
O21	O	0.536965	1.196749	0.075782
O22	O	0.925656	0.813557	0.267357
O23	O	0.925656	0.813563	-0.075389
O24	O	0.676333	0.813569	0.267340
O25	O	0.925661	1.005148	-0.075361
O26	O	0.786283	1.005149	0.267375
O27	O	0.676338	1.005154	0.267368
O28	O	0.925662	1.005145	0.075780
O29	O	0.676348	1.347874	-0.266931
O30	O	0.786273	0.662439	0.267325
O31	O	0.925652	0.662432	0.267334
O32	O	0.925652	0.662435	0.075730
O33	O	0.536969	1.347877	-0.075337
O34	O	0.676348	1.347870	-0.075327
O35	O	0.772332	0.892368	0.169375
O36	O	0.854383	0.892366	0.056586
O37	O	0.772339	1.117938	-0.056181
O38	O	0.690289	1.117940	0.056608
C39	C	0.731302	0.703667	0.000153
C40	C	0.731299	0.601345	0.000138
C41	C	0.670734	0.636476	-0.083088
C42	C	0.670747	0.540287	-0.083032
C43	C	0.791893	0.373837	0.083486
C44	C	0.791882	0.470025	0.083424
C45	C	0.600790	0.732574	-0.179224
C46	C	0.600803	0.636385	-0.179167
C47	C	0.511976	1.005167	0.000182
C48	C	0.437536	1.005170	0.000177
C49	C	0.266280	1.005157	-0.083071
C50	C	0.196340	1.005148	-0.083064
C51	C	0.196347	1.005152	0.083473
C52	C	0.266290	1.005151	0.083469
C53	C	0.301252	1.005160	0.000191
C54	C	0.161369	1.005153	0.000203
C55	C	0.085537	1.005144	0.000212
C56	C	0.377090	1.005166	0.000183
C57	C	0.950645	1.005146	0.000212
C58	C	1.025085	1.005142	0.000217
C59	C	0.731310	1.005161	-0.301323
C60	C	0.731310	1.005163	-0.403656
C61	C	0.731319	1.306645	0.000241
C62	C	0.731322	1.408967	0.000256
C63	C	0.688481	1.122907	-0.510595
C64	C	0.688483	1.122901	-0.606744
C65	C	0.774145	0.887396	-0.489000
C66	C	0.774147	0.887404	-0.392854
C67	C	0.639021	1.258874	-0.578575
C68	C	0.639024	1.258868	-0.674724
C69	C	0.731311	1.005151	0.301716
C70	C	0.731311	1.005149	0.404049
C71	C	0.950636	0.703657	0.000167
C72	C	1.025073	0.601331	0.000157
C73	C	0.731302	0.703662	0.301672
C74	C	0.731299	0.601338	0.403990
C75	C	0.950636	0.703652	0.301687
C76	C	1.025074	0.601324	0.404010
C77	C	0.511985	1.306661	-0.301293
C78	C	0.437547	1.408989	-0.403616
C79	C	0.511985	1.306656	0.000226
C80	C	0.437548	1.408982	0.000236
C81	C	0.731319	1.306650	-0.301279
C82	C	0.731322	1.408974	-0.403596
C83	C	1.017200	0.553280	-0.058738
C84	C	1.087135	0.457147	-0.058770
C85	C	1.164942	0.409060	0.000101
C86	C	1.172814	0.457120	0.058998
C87	C	1.102880	0.553258	0.059023
C88	C	1.102867	0.553268	0.393187
C89	C	1.172815	0.457134	0.489321
C90	C	1.164969	0.409050	0.596277
C91	C	1.087167	0.457115	0.607098
C92	C	1.017221	0.553254	0.510965
C93	C	0.359754	1.457056	-0.392794
C94	C	0.289806	1.553220	-0.488928
C95	C	0.297652	1.601309	-0.595883
C96	C	0.375454	1.553238	-0.606704
C97	C	0.445400	1.457082	-0.510571
C98	C	0.445421	1.457042	0.059121
C99	C	0.375486	1.553202	0.059127
C100	C	0.297679	1.601292	0.000253
C101	C	0.289807	1.553228	-0.058640
C102	C	0.359741	1.457077	-0.058651
C103	C	0.774128	0.553258	0.510940
C104	C	0.774119	0.457118	0.607074
C105	C	0.688450	0.457144	0.489296
C106	C	0.688455	0.553288	0.393164
C107	C	0.823592	0.553238	0.578939
C108	C	0.823582	0.457099	0.675074
H109	H	0.541072	0.647202	-0.170862
Br110	Br	0.349082	1.391809	-0.247651
Br111	Br	0.148883	1.005135	-0.196062
Br112	Br	0.148895	1.005144	0.196488
H113	H	1.109301	0.592368	0.106989
Br114	Br	0.929129	0.493024	0.564376
H115	H	0.294767	1.005149	0.151277
H116	H	0.653570	0.592444	0.306083
H117	H	0.508769	1.417894	0.107071
H118	H	0.226464	1.592343	-0.480095
Br119	Br	0.769203	0.517301	0.759964
H120	H	0.889069	0.367079	0.727264
H121	H	0.353320	1.417949	-0.106599
Br122	Br	0.630305	0.391931	0.474612
H123	H	0.508741	1.417947	-0.519397
Br124	Br	0.313728	1.005165	-0.196089
H125	H	0.666532	1.311084	-0.578588
H126	H	0.381911	1.592319	0.107088
Br127	Br	0.621167	0.636319	-0.306595
Br128	Br	0.874090	0.422341	0.196365
H129	H	0.381833	1.592405	-0.693799
H130	H	0.796086	0.643244	0.578968
H131	H	0.809033	0.791525	-0.305781
H132	H	0.575700	1.301070	-0.569845
Br133	Br	1.076433	0.391941	-0.138704
Br134	Br	0.202775	1.731785	0.000280
H135	H	1.236174	0.417953	0.106928
H136	H	0.573535	1.311068	-0.726915
H137	H	1.221930	0.330767	0.674545
Br138	Br	0.874111	0.195617	0.196511
Br139	Br	0.184205	1.618505	-0.138532
H140	H	0.671658	1.301055	-0.725638
Br141	Br	0.832280	0.727587	-0.474349
H142	H	0.606810	0.795550	-0.261355
Br143	Br	1.076532	0.391844	0.752261
H144	H	0.953852	0.592432	-0.106691
Br145	Br	0.508079	0.832041	-0.151230
H146	H	0.953880	0.592368	0.519792
H147	H	1.221880	0.330777	0.000073
H148	H	1.109271	0.592404	0.306107
H149	H	1.236158	0.418009	0.480491
H150	H	0.240691	1.679605	-0.674152
