data_functionalizedCrystal
_audit_creation_method	'MofGen! by Chris Wilmer'
_symmetry_space_group_name_H-M	'P1'
_symmetry_Int_Tables_number	1
_symmetry_cell_setting	triclinic
loop_
_symmetry_equiv_pos_as_xyz
  x,y,z
_cell_length_a	14.971487
_cell_length_b	9.198806
_cell_length_c	14.971486
_cell_angle_alpha	90.003393
_cell_angle_beta	96.385734
_cell_angle_gamma	90.002228
loop_
_atom_site_label
_atom_site_type_symbol
_atom_site_fract_x
_atom_site_fract_y
_atom_site_fract_z
O1	O	-1.186944	0.120685	0.116564
O2	O	-0.926544	0.120734	0.130522
O3	O	-1.063723	0.120698	-0.006657
O4	O	-1.049764	0.120721	0.253743
O5	O	-1.063712	-0.121087	-0.006658
O6	O	-0.926533	-0.121051	0.130521
O7	O	-1.186933	-0.121100	0.116563
Cu8	Cu	-1.056732	-0.143153	0.123542
Cu9	Cu	-1.056745	0.142786	0.123543
O10	O	-1.049754	-0.121064	0.253742
C11	C	-0.893214	-0.000153	0.129897
C12	C	-0.793917	-0.000134	0.128026
N13	N	-1.056729	-0.344267	0.123541
C14	C	-0.736691	-0.000127	0.208615
C15	C	-0.643392	-0.000146	0.206852
C16	C	-0.607320	-0.000161	0.124499
C17	C	-0.664552	-0.000173	0.043903
C18	C	-0.757850	-0.000164	0.045668
C19	C	-0.470090	-0.000186	0.040232
C20	C	-0.376786	-0.000192	0.038467
C21	C	-0.355632	-0.000168	0.201416
C22	C	-0.448929	-0.000160	0.203181
C23	C	-0.506156	-0.000168	0.122585
C24	C	-1.114329	-0.416479	0.065692
C25	C	-1.114343	-0.583891	0.065689
C26	C	-0.220263	-0.000202	0.117187
C27	C	-0.319560	-0.000185	0.119056
C28	C	-1.063094	-0.000194	-0.039982
C29	C	-1.061223	-0.000193	-0.139279
N30	N	-1.056754	0.343900	0.123536
C31	C	-1.141812	-0.000209	-0.196504
C32	C	-1.140049	-0.000194	-0.289804
C33	C	-1.057696	-0.000173	-0.325876
C34	C	-0.977100	-0.000153	-0.268644
C35	C	-0.978864	-0.000157	-0.175346
C36	C	-0.973429	-0.000147	-0.463107
C37	C	-0.971665	-0.000145	-0.556411
C38	C	-1.134614	-0.000183	-0.577564
C39	C	-1.136378	-0.000188	-0.484266
C40	C	-1.055782	-0.000170	-0.427040
C41	C	-1.050383	-0.000169	0.287067
C42	C	-1.052254	-0.000161	0.386364
H43	H	-0.766053	-0.000114	0.275677
H44	H	-0.478296	-0.000133	0.270240
H45	H	-1.007423	-0.406382	0.173063
H46	H	-0.596802	-0.000139	0.272476
Cl47	Cl	-0.980617	-0.560239	0.200014
Cl48	Cl	-0.873570	-0.000109	-0.313992
Cl49	Cl	-1.235934	-0.000198	-0.649505
H50	H	-0.904606	-0.000151	-0.585777
Cl51	Cl	-0.619204	-0.000201	-0.059627
Cl52	Cl	-1.245348	-0.000250	-0.151166
H53	H	-0.347419	-0.000206	-0.028592
H54	H	-1.205673	-0.000210	-0.336394
Cl55	Cl	-1.239909	-0.000207	-0.438919
Cl56	Cl	-0.872107	-0.000124	-0.391166
H57	H	-0.913240	-0.000144	-0.128754
Cl58	Cl	-0.829791	-0.000180	-0.055649
Cl59	Cl	-0.542030	-0.000200	-0.061090
H60	H	-0.309033	-0.000167	0.267040
H61	H	-1.163629	-0.354365	0.016163
H62	H	-1.163660	-0.645990	0.016164
