data_functionalizedCrystal
_audit_creation_method	'MofGen! by Chris Wilmer'
_symmetry_space_group_name_H-M	'P1'
_symmetry_Int_Tables_number	1
_symmetry_cell_setting	triclinic
loop_
_symmetry_equiv_pos_as_xyz
  x,y,z
_cell_length_a	18.050589
_cell_length_b	12.759401
_cell_length_c	12.759393
_cell_angle_alpha	90.018496
_cell_angle_beta	89.969379
_cell_angle_gamma	89.971618
loop_
_atom_site_label
_atom_site_type_symbol
_atom_site_fract_x
_atom_site_fract_y
_atom_site_fract_z
Zn1	Zn	-0.295612	-1.606157	-0.593988
Zn2	Zn	-0.419823	-1.606010	-0.418311
Zn3	Zn	-0.295651	-1.430459	-0.418328
Zn4	Zn	-0.419766	-1.430406	-0.593953
O5	O	-0.357713	-1.518258	-0.506145
O6	O	-0.312097	-1.753158	-0.570692
O7	O	-0.403391	-1.582683	-0.271292
O8	O	-0.191722	-1.453849	-0.441651
O9	O	-0.403354	-1.753050	-0.441623
O10	O	-0.191693	-1.582934	-0.570708
O11	O	-0.312163	-1.453706	-0.271304
O12	O	-0.312108	-1.283431	-0.441617
O13	O	-0.403256	-1.453759	-0.740979
O14	O	-0.403294	-1.283392	-0.570648
O15	O	-0.312041	-1.582882	-0.741005
O16	O	-0.523740	-1.582632	-0.441589
O17	O	-0.523698	-1.453616	-0.570632
C18	C	-0.357699	-1.245290	-0.506131
C19	C	-0.357711	-1.128514	-0.506149
C20	C	-0.550665	-1.518131	-0.506127
C21	C	-0.633211	-1.518173	-0.506155
C22	C	-0.357638	-1.518331	-0.780178
C23	C	-0.357606	-1.518363	-0.896955
C24	C	-0.832666	-1.448083	-0.576304
C25	C	-0.882114	-1.422469	-0.480436
C26	C	-0.784341	-1.518276	-0.506169
C27	C	-0.881974	-1.543942	-0.602048
C28	C	-0.930326	-1.518374	-0.506191
C29	C	-0.832703	-1.492611	-0.410250
C30	C	-0.832558	-1.614129	-0.531927
C31	C	-0.881985	-1.588551	-0.435992
C32	C	-0.700243	-1.518217	-0.506158
C33	C	-1.014423	-1.518433	-0.506191
C34	C	-0.164007	-1.518414	-0.506185
C35	C	-0.081462	-1.518480	-0.506203
C36	C	-0.357727	-1.792291	-0.506160
C37	C	-0.357733	-1.909068	-0.506166
C38	C	-0.405268	-1.073659	-0.573225
C39	C	-0.405277	-0.963935	-0.573236
C40	C	-0.310171	-0.963930	-0.439088
C41	C	-0.310159	-1.073652	-0.439083
C42	C	-0.460179	-1.073661	-0.650671
C43	C	-0.460188	-0.963937	-0.650683
C44	C	-0.310106	-1.585606	-0.951832
C45	C	-0.310079	-1.585631	-1.061557
C46	C	-0.405059	-1.451166	-1.061516
C47	C	-0.405081	-1.451136	-0.951794
C48	C	-0.255273	-1.663242	-0.951857
C49	C	-0.255246	-1.663267	-1.061581
C50	C	-0.357734	-1.518245	-0.233178
C51	C	-0.357557	-1.518417	-0.116401
H52	H	-0.903898	-1.341455	-0.458669
H53	H	-0.811010	-1.388636	-0.635531
H54	H	-0.811149	-1.470848	-0.329152
N55	N	-0.261568	-1.129669	-0.370573
N56	N	-0.219116	-1.080670	-0.310700
H57	H	-0.184796	-1.120231	-0.262312
N58	N	-0.183135	-1.635925	-0.914507
N59	N	-0.174724	-1.556652	-0.858181
H60	H	-0.123779	-1.537354	-0.831798
N61	N	-0.908976	-1.663066	-0.361508
N62	N	-0.893041	-1.653487	-0.266664
H63	H	-0.912105	-1.706109	-0.214055
H64	H	-0.810777	-1.695124	-0.553739
N65	N	-0.440941	-1.111054	-0.752797
N66	N	-0.427390	-1.047420	-0.824753
H67	H	-0.413803	-1.073828	-0.896879
H68	H	-0.903618	-1.565611	-0.683124
N69	N	-0.528684	-1.116302	-0.613932
N70	N	-0.579996	-1.056480	-0.586425
H71	H	-0.628378	-1.086595	-0.560475
N72	N	-0.261602	-0.907872	-0.370596
N73	N	-0.261614	-0.809907	-0.370614
H74	H	-0.227311	-0.770315	-0.322240
N75	N	-0.434417	-0.921295	-0.747709
N76	N	-0.370518	-0.941915	-0.779422
H77	H	-0.352311	-0.911801	-0.847944
H78	H	-0.443758	-1.396376	-0.907117
H79	H	-0.517692	-0.934122	-0.628752
H80	H	-0.443710	-1.396430	-1.106180
H81	H	-0.275891	-1.740507	-0.917821
H82	H	-0.200598	-1.634172	-1.095627
H83	H	-0.270650	-1.744633	-1.091359
