data_functionalizedCrystal
_audit_creation_method	'MofGen! by Chris Wilmer'
_symmetry_space_group_name_H-M	'P1'
_symmetry_Int_Tables_number	1
_symmetry_cell_setting	triclinic
loop_
_symmetry_equiv_pos_as_xyz
  x,y,z
_cell_length_a	16.974810
_cell_length_b	15.500227
_cell_length_c	16.974755
_cell_angle_alpha	90.826733
_cell_angle_beta	96.375854
_cell_angle_gamma	90.810502
loop_
_atom_site_label
_atom_site_type_symbol
_atom_site_fract_x
_atom_site_fract_y
_atom_site_fract_z
O1	O	-1.049310	0.005480	0.100460
O2	O	-0.549310	0.505480	0.600460
O3	O	-0.819954	0.022386	0.112442
O4	O	-0.319954	0.522386	0.612442
O5	O	-0.940625	0.005475	-0.008229
O6	O	-0.440625	0.505475	0.491771
O7	O	-0.928639	0.022391	0.221131
O8	O	-0.428639	0.522391	0.721131
O9	O	-0.933303	-0.137390	-0.000936
O10	O	-0.433303	0.362610	0.499064
O11	O	-0.812631	-0.120478	0.119735
O12	O	-0.312631	0.379522	0.619735
O13	O	-1.041987	-0.137385	0.107754
O14	O	-0.541987	0.362615	0.607754
Cu15	Cu	-0.926641	-0.141976	0.114411
Cu16	Cu	-0.426641	0.358024	0.614411
Cu17	Cu	-0.935301	0.026978	0.105785
Cu18	Cu	-0.435301	0.526978	0.605785
O19	O	-0.921316	-0.120473	0.228425
O20	O	-0.421316	0.379527	0.728425
C21	C	-0.786938	-0.047031	0.115498
C22	C	-0.286938	0.452969	0.615498
C23	C	-0.699470	-0.041027	0.113731
C24	C	-0.199470	0.458973	0.613731
C25	C	-0.654391	-0.116084	0.116874
C26	C	-0.154391	0.383916	0.616874
C27	C	-0.572207	-0.110447	0.115201
C28	C	-0.072207	0.389553	0.615201
C29	C	-0.535104	-0.029751	0.110389
C30	C	-0.035104	0.470249	0.610389
C31	C	-0.580190	0.045312	0.107243
C32	C	-0.080190	0.545312	0.607243
C33	C	-0.662373	0.039673	0.108911
C34	C	-0.162373	0.539673	0.608911
C35	C	-0.289742	-0.004536	0.104970
C36	C	0.210258	0.495464	0.604970
C37	C	-0.207553	0.001097	0.103304
C38	C	0.292447	0.501097	0.603304
C39	C	-0.199577	-0.154662	0.111260
C40	C	0.300423	0.345338	0.611260
C41	C	-0.281761	-0.160293	0.112933
C42	C	0.218239	0.339707	0.612933
C43	C	-0.326840	-0.085231	0.109782
C44	C	0.173160	0.414769	0.609782
N45	N	-0.451099	-0.023986	0.108681
N46	N	0.048901	0.476014	0.608681
N47	N	-0.410844	-0.090997	0.111485
N48	N	0.089156	0.409003	0.611485
N49	N	-0.920556	-0.260810	0.120477
N50	N	-0.420556	0.239190	0.620477
C51	C	-0.971706	-0.313252	0.069364
C52	C	-0.471706	0.186748	0.569364
C53	C	-0.967111	-0.403181	0.073959
C54	C	-0.467111	0.096819	0.573959
C55	C	-0.911369	-0.440666	0.129672
C56	C	-0.411369	0.059334	0.629672
C57	C	-0.860213	-0.388216	0.180788
C58	C	-0.360213	0.111784	0.680788
C59	C	-0.864805	-0.298289	0.176188
C60	C	-0.364805	0.201711	0.676188
C61	C	-0.894828	-0.711813	0.146229
C62	C	-0.394828	-0.211813	0.646229
C63	C	-0.890242	-0.801747	0.150826
C64	C	-0.390242	-0.301747	0.650826
C65	C	-0.997139	-0.816706	0.043995
C66	C	-0.497139	-0.316706	0.543995
C67	C	-1.001729	-0.726776	0.039404
C68	C	-0.501729	-0.226776	0.539404
C69	C	-0.950570	-0.674335	0.090517
C70	C	-0.450570	-0.174335	0.590517
C71	C	-0.906673	-0.532587	0.134372
C72	C	-0.406673	-0.032587	0.634372
C73	C	-0.955264	-0.582415	0.085812
C74	C	-0.455264	-0.082415	0.585812
C75	C	-0.075004	-0.067965	0.104693
C76	C	0.424996	0.432035	0.604693
C77	C	-0.162474	-0.073960	0.106448
C78	C	0.337526	0.426040	0.606448
C79	C	-0.936375	-0.067972	-0.033938
C80	C	-0.436375	0.432028	0.466062
C81	C	-0.934609	-0.073974	-0.121408
C82	C	-0.434609	0.426026	0.378592
N83	N	-0.941392	0.145810	0.099712
N84	N	-0.441392	0.645810	0.599712
C85	C	-0.924174	-0.116077	-0.613338
C86	C	-0.424174	0.383923	-0.113338
C87	C	-0.925840	-0.110442	-0.531151
C88	C	-0.425840	0.389558	-0.031151
C89	C	-0.930671	-0.029748	-0.494026
C90	C	-0.430671	0.470252	0.005974
C91	C	-0.933828	0.045317	-0.539091
C92	C	-0.433828	0.545317	-0.039091
C93	C	-0.932156	0.039682	-0.621275
C94	C	-0.432156	0.539682	-0.121275
C95	C	-0.936094	-0.004544	-0.248657
C96	C	-0.436094	0.495456	0.251343
C97	C	-0.937768	0.001086	-0.166467
C98	C	-0.437768	0.501086	0.333533
C99	C	-0.929779	-0.154674	-0.158533
C100	C	-0.429779	0.345326	0.341467
C101	C	-0.928112	-0.160303	-0.240720
C102	C	-0.428112	0.339697	0.259280
C103	C	-0.931265	-0.085237	-0.285777
C104	C	-0.431265	0.414763	0.214223
N105	N	-0.932376	-0.023987	-0.410019
N106	N	-0.432376	0.476013	0.089981
N107	N	-0.929553	-0.090999	-0.369782
N108	N	-0.429553	0.409001	0.130218
C109	C	-0.925567	-0.047025	0.254133
C110	C	-0.425567	0.452975	0.754133
C111	C	-0.927333	-0.041017	0.341603
C112	C	-0.427333	0.458983	0.841603
H113	H	-0.684593	-0.181795	0.120799
H114	H	-0.184593	0.318205	0.620799
C115	C	-0.922781	-0.249063	-0.281553
C116	C	-0.422781	0.250937	0.218447
H117	H	-0.922241	-0.241668	-0.336953
H118	H	-0.422241	0.258332	0.163047
H119	H	-0.875509	-0.276498	-0.260547
H120	H	-0.375509	0.223502	0.239453
H121	H	-0.967316	-0.283778	-0.272362
H122	H	-0.467316	0.216222	0.227638
C123	C	-0.838562	-0.654139	0.202457
C124	C	-0.338562	-0.154139	0.702457
H125	H	-0.804715	-0.689346	0.236302
H126	H	-0.304715	-0.189346	0.736302
H127	H	-0.807487	-0.618761	0.172226
H128	H	-0.307487	-0.118761	0.672226
H129	H	-0.868777	-0.618735	0.233550
H130	H	-0.368777	-0.118735	0.733550
C131	C	-0.926300	-0.237237	-0.108968
C132	C	-0.426300	0.262763	0.391032
H133	H	-0.927980	-0.222327	-0.054704
H134	H	-0.427980	0.277673	0.445296
H135	H	-0.970283	-0.273796	-0.126707
H136	H	-0.470283	0.226204	0.373293
H137	H	-0.878475	-0.266520	-0.114904
H138	H	-0.378475	0.233480	0.385096
H139	H	-0.920243	-0.181787	-0.643559
H140	H	-0.420243	0.318213	-0.143559
H141	H	-1.008761	-0.445880	0.032338
H142	H	-0.508761	0.054120	0.532338
H143	H	-0.938668	0.056580	-0.285333
H144	H	-0.438668	0.556580	0.214667
C145	C	-1.033027	-0.272023	0.008086
C146	C	-0.533027	0.227977	0.508086
H147	H	-1.028444	-0.210954	0.012671
H148	H	-0.528444	0.289046	0.512671
H149	H	-1.023601	-0.289847	-0.043773
H150	H	-0.523601	0.210153	0.456227
H151	H	-1.084876	-0.289824	0.017566
H152	H	-0.584876	0.210176	0.517566
C153	C	-0.922374	-0.193008	-0.481591
C154	C	-0.422374	0.306992	0.018409
H155	H	-0.919269	-0.241874	-0.515473
H156	H	-0.419269	0.258126	-0.015473
H157	H	-0.876959	-0.190424	-0.443461
H158	H	-0.376959	0.309576	0.056539
H159	H	-0.968768	-0.197673	-0.455272
H160	H	-0.468768	0.302327	0.044728
C161	C	-1.053403	-0.874388	-0.012233
C162	C	-0.553403	-0.374388	0.487767
H163	H	-1.087260	-0.839184	-0.046069
H164	H	-0.587260	-0.339184	0.453931
H165	H	-1.023192	-0.909794	-0.043321
H166	H	-0.523192	-0.409794	0.456679
H167	H	-1.084480	-0.909765	0.018005
H168	H	-0.584480	-0.409765	0.518005
C169	C	-0.828881	-0.842979	0.212071
C170	C	-0.328881	-0.342979	0.712071
H171	H	-0.799053	-0.798868	0.241837
H172	H	-0.299053	-0.298868	0.741837
H173	H	-0.855466	-0.877752	0.246768
H174	H	-0.355466	-0.377752	0.746768
H175	H	-0.794247	-0.877745	0.185373
H176	H	-0.294247	-0.377745	0.685373
C177	C	-0.943081	0.089853	-0.125630
C178	C	-0.443081	0.589853	0.374370
H179	H	-0.944714	0.133754	-0.164234
H180	H	-0.444714	0.633754	0.335766
H181	H	-0.989803	0.091656	-0.099641
H182	H	-0.489803	0.591656	0.400359
H183	H	-0.897994	0.098916	-0.087829
H184	H	-0.397994	0.598916	0.412171
C185	C	-0.939143	0.134079	-0.498256
C186	C	-0.439143	0.634079	0.001744
H187	H	-0.939695	0.126686	-0.442857
H188	H	-0.439695	0.626686	0.057143
H189	H	-0.894611	0.168789	-0.507451
H190	H	-0.394611	0.668789	-0.007451
H191	H	-0.986418	0.161518	-0.519262
H192	H	-0.486418	0.661518	-0.019262
H193	H	-1.000646	-0.551892	0.040448
H194	H	-0.500646	-0.051892	0.540448
H195	H	-0.934724	0.100804	-0.657961
H196	H	-0.434724	0.600804	-0.157961
H197	H	-0.861288	-0.563114	0.179736
H198	H	-0.361288	-0.063114	0.679736
H199	H	-0.814823	-0.418741	0.226148
H200	H	-0.314823	0.081259	0.726148
H201	H	-0.535509	-0.171567	0.117747
H202	H	-0.035509	0.328433	0.617747
H203	H	-0.311965	-0.226005	0.116847
H204	H	0.188035	0.273995	0.616847
C205	C	-1.063041	-0.685549	-0.021885
C206	C	-0.563041	-0.185549	0.478115
H207	H	-1.092842	-0.729663	-0.051674
H208	H	-0.592842	-0.229663	0.448326
H209	H	-1.097695	-0.650763	0.004760
H210	H	-0.597695	-0.150763	0.504760
H211	H	-1.036406	-0.650797	-0.056565
H212	H	-0.536406	-0.150797	0.443435
C213	C	-0.149985	-0.237220	0.114753
C214	C	0.350015	0.262780	0.614753
H215	H	-0.095725	-0.222308	0.113076
H216	H	0.404275	0.277692	0.613076
H217	H	-0.155927	-0.266489	0.162571
H218	H	0.344073	0.233511	0.662571
H219	H	-0.167701	-0.273794	0.070763
H220	H	0.332299	0.226206	0.570763
H221	H	-0.177346	0.066813	0.099389
H222	H	0.322654	0.566813	0.599389
H223	H	-0.549974	0.111016	0.103320
H224	H	-0.049974	0.611016	0.603320
C225	C	-0.711959	0.122236	0.105459
C226	C	-0.211959	0.622236	0.605459
H227	H	-0.678092	0.171104	0.102362
H228	H	-0.178092	0.671104	0.602362
H229	H	-0.750086	0.119644	0.060042
H230	H	-0.250086	0.619644	0.560042
H231	H	-0.738282	0.126903	0.151853
H232	H	-0.238282	0.626903	0.651853
H233	H	-0.326436	0.056585	0.102402
H234	H	0.173564	0.556585	0.602402
H235	H	-0.823152	-0.255591	0.217809
H236	H	-0.323152	0.244409	0.717809
