data_functionalizedCrystal
_audit_creation_method	'MofGen! by Chris Wilmer'
_symmetry_space_group_name_H-M	'P1'
_symmetry_Int_Tables_number	1
_symmetry_cell_setting	triclinic
loop_
_symmetry_equiv_pos_as_xyz
  x,y,z
_cell_length_a	29.917948
_cell_length_b	29.917021
_cell_length_c	29.913391
_cell_angle_alpha	60.005297
_cell_angle_beta	60.010472
_cell_angle_gamma	59.993667
loop_
_atom_site_label
_atom_site_type_symbol
_atom_site_fract_x
_atom_site_fract_y
_atom_site_fract_z
O1	O	0.061938	-0.653075	0.546110
O2	O	0.561938	-0.153075	1.046110
O3	O	0.023328	-0.508466	0.440017
O4	O	0.523328	-0.008466	0.940017
O5	O	0.114898	-0.599963	0.439941
O6	O	0.614898	-0.099963	0.939941
O7	O	-0.029633	-0.561578	0.546186
O8	O	0.470367	-0.061578	1.046186
O9	O	0.145278	-0.569587	0.470242
O10	O	0.645278	-0.069587	0.970242
O11	O	0.053708	-0.478090	0.470318
O12	O	0.553708	0.021910	0.970318
O13	O	0.092318	-0.622699	0.576411
O14	O	0.592318	-0.122699	1.076411
Zn15	Zn	0.077836	-0.545572	0.528175
Zn16	Zn	0.577836	-0.045572	1.028175
Zn17	Zn	0.037809	-0.585593	0.488253
Zn18	Zn	0.537809	-0.085593	0.988253
O19	O	0.000747	-0.531202	0.576487
O20	O	0.500747	-0.031202	1.076487
N21	N	0.105154	-0.518262	0.555424
N22	N	0.605154	-0.018262	1.055424
N23	N	0.010496	-0.612908	0.461004
N24	N	0.510496	-0.112908	0.961004
C25	C	0.164136	-0.309209	0.614352
C26	C	0.664136	0.190791	1.114352
C27	C	0.164251	-0.459335	0.764424
C28	C	0.664251	0.040665	1.264424
C29	C	0.164150	-0.459313	0.614341
C30	C	0.664150	0.040687	1.114341
C31	C	0.314282	-0.459305	0.614278
C32	C	0.814282	0.040695	1.114278
C33	C	0.180666	-0.358742	0.630849
C34	C	0.680666	0.141258	1.130849
C35	C	0.180732	-0.442815	0.714891
C36	C	0.680732	0.057185	1.214891
C37	C	0.264747	-0.442797	0.630809
C38	C	0.764747	0.057203	1.130809
C39	C	0.180676	-0.442802	0.630843
C40	C	0.680676	0.057198	1.130843
C41	C	0.143097	-0.246161	0.593354
C42	C	0.643097	0.253839	1.093354
C43	C	0.143120	-0.480326	0.593337
C44	C	0.643120	0.019674	1.093337
C45	C	0.201706	-0.421790	0.651848
C46	C	0.701706	0.078210	1.151848
C47	C	0.405963	-0.443499	0.565998
C48	C	0.905963	0.056501	1.065998
C49	C	0.463273	-0.462598	0.546874
C50	C	0.963273	0.037402	1.046874
C51	C	0.463297	-0.555329	0.582235
C52	C	0.963297	-0.055329	1.082235
C53	C	0.405988	-0.536228	0.601360
C54	C	0.905988	-0.036228	1.101360
C55	C	0.156905	-0.217495	0.537012
C56	C	0.656905	0.282505	1.037012
C57	C	0.137776	-0.160180	0.517926
C58	C	0.637776	0.339820	1.017926
C59	C	0.091035	-0.160201	0.611524
C60	C	0.591035	0.339799	1.111524
C61	C	0.110164	-0.217516	0.630611
C62	C	0.610164	0.282484	1.130611
C63	C	0.086772	-0.466488	0.607209
C64	C	0.586772	0.033512	1.107209
C65	C	0.067659	-0.485590	0.588108
C66	C	0.567659	0.014410	1.088108
C67	C	0.161236	-0.532368	0.541277
C68	C	0.661236	-0.032368	1.041277
C69	C	0.180352	-0.513266	0.560371
C70	C	0.680352	-0.013266	1.060371
C71	C	0.086942	-0.466529	0.856152
C72	C	0.586942	0.033471	1.356152
C73	C	0.067877	-0.485647	0.913465
C74	C	0.567877	0.014353	1.413465
C75	C	0.161489	-0.532436	0.913415
C76	C	0.661489	-0.032436	1.413415
C77	C	0.180552	-0.513318	0.856101
C78	C	0.680552	-0.013318	1.356101
C79	C	0.143277	-0.480363	0.827471
C80	C	0.643277	0.019637	1.327471
C81	C	0.377323	-0.480313	0.593239
C82	C	0.877323	0.019687	1.093239
C83	C	-0.111377	-0.650681	0.422736
C84	C	0.388623	-0.150681	0.922736
C85	C	-0.027364	-0.650787	0.422929
C86	C	0.472636	-0.150787	0.922929
C87	C	-0.048335	-0.671770	0.401835
C88	C	0.451665	-0.171770	0.901835
C89	C	-0.064214	-0.763416	0.450041
C90	C	0.435786	-0.263416	0.950041
C91	C	-0.045160	-0.820731	0.469172
C92	C	0.454840	-0.320731	0.969172
C93	C	0.047573	-0.820841	0.433980
C94	C	0.547573	-0.320841	0.933980
C95	C	0.028517	-0.763527	0.414847
C96	C	0.528517	-0.263527	0.914847
C97	C	-0.140115	-0.664483	0.479060
C98	C	0.359885	-0.164483	0.979060
C99	C	-0.197425	-0.645309	0.498058
C100	C	0.302575	-0.145309	0.998058
C101	C	-0.197256	-0.598535	0.404405
C102	C	0.302744	-0.098535	0.904405
C103	C	-0.139946	-0.617709	0.385407
C104	C	0.360054	-0.117709	0.885407
C105	C	-0.041168	-0.594444	0.409067
C106	C	0.458832	-0.094444	0.909067
C107	C	-0.022104	-0.575374	0.428250
C108	C	0.477896	-0.075374	0.928250
C109	C	0.024568	-0.668986	0.475143
C110	C	0.524568	-0.168986	0.975143
C111	C	0.005504	-0.688059	0.455967
C112	C	0.505504	-0.188059	0.955967
C113	C	-0.041000	-0.594453	0.310105
C114	C	0.459000	-0.094453	0.810105
C115	C	-0.021803	-0.575386	0.252792
C116	C	0.478197	-0.075386	0.752792
C117	C	0.024951	-0.669004	0.252854
C118	C	0.524951	-0.169004	0.752854
C119	C	0.005755	-0.688070	0.310168
C120	C	0.505755	-0.188070	0.810168
C121	C	-0.027222	-0.650793	0.338792
C122	C	0.472778	-0.150793	0.838792
C123	C	-0.027377	-0.734817	0.422881
C124	C	0.472623	-0.234817	0.922881
N125	N	0.491125	-0.518235	0.555255
N126	N	0.991125	-0.018235	1.055255
O127	O	0.678406	-0.527360	0.420422
O128	O	1.178406	-0.027360	0.920422
O129	O	0.678588	-0.633782	0.564887
O130	O	1.178588	-0.133782	1.064887
O131	O	0.678516	-0.633539	0.473265
O132	O	1.178516	-0.133539	0.973265
O133	O	0.678478	-0.527602	0.512044
O134	O	1.178478	-0.027602	1.012044
O135	O	0.587469	-0.603251	0.503685
O136	O	1.087469	-0.103251	1.003685
O137	O	0.587541	-0.603493	0.595307
O138	O	1.087541	-0.103493	1.095307
O139	O	0.587359	-0.497071	0.450842
O140	O	1.087359	0.002929	0.950842
Zn141	Zn	0.572994	-0.545473	0.527905
Zn142	Zn	1.072994	-0.045473	1.027905
Zn143	Zn	0.692953	-0.585380	0.487825
Zn144	Zn	1.192953	-0.085380	0.987825
O145	O	0.587431	-0.497313	0.542465
O146	O	1.087431	0.002687	1.042465
N147	N	0.774821	-0.612618	0.460470
N148	N	1.274821	-0.112618	0.960470
N149	N	0.105125	-0.132348	0.555445
N150	N	0.605125	0.367652	1.055445
O151	O	-0.029633	0.055031	0.546198
O152	O	0.470367	0.555031	1.046198
O153	O	0.114837	0.055047	0.439777
O154	O	0.614837	0.555047	0.939777
O155	O	0.023189	0.055024	0.440050
O156	O	0.523189	0.555024	0.940050
O157	O	0.062016	0.055054	0.545925
O158	O	0.562016	0.555054	1.045925
O159	O	0.053572	-0.036031	0.470398
O160	O	0.553572	0.463969	0.970398
O161	O	0.145220	-0.036008	0.470125
O162	O	0.645220	0.463992	0.970125
O163	O	0.000750	-0.036024	0.576546
O164	O	0.500750	0.463976	1.076546
Zn165	Zn	0.077809	-0.050473	0.528154
Zn166	Zn	0.577809	0.449527	1.028154
Zn167	Zn	0.037778	0.069496	0.488169
Zn168	Zn	0.537778	0.569496	0.988169
O169	O	0.092399	-0.036001	0.576273
O170	O	0.592399	0.463999	1.076273
N171	N	0.010456	0.151371	0.460879
N172	N	0.510456	0.651371	0.960879
N173	N	0.105414	-0.518315	0.941279
N174	N	0.605414	-0.018315	1.441279
O175	O	0.096182	-0.653057	1.128644
O176	O	0.596182	-0.153057	1.628644
O177	O	-0.010215	-0.508539	1.128670
O178	O	0.489785	-0.008539	1.628670
O179	O	-0.009968	-0.600172	1.128636
O180	O	0.490032	-0.100172	1.628636
O181	O	0.095935	-0.561424	1.128678
O182	O	0.595935	-0.061424	1.628678
O183	O	0.020367	-0.569808	1.037586
O184	O	0.520367	-0.069808	1.537586
O185	O	0.020121	-0.478175	1.037620
O186	O	0.520121	0.021825	1.537620
O187	O	0.126517	-0.622693	1.037594
O188	O	0.626517	-0.122693	1.537594
Zn189	Zn	0.078135	-0.545613	1.023151
Zn190	Zn	0.578135	-0.045613	1.523151
Zn191	Zn	0.038167	-0.585619	1.143113
Zn192	Zn	0.538167	-0.085619	1.643113
O193	O	0.126270	-0.531061	1.037628
O194	O	0.626270	-0.031061	1.537628
N195	N	0.010887	-0.612923	1.224985
N196	N	0.510887	-0.112923	1.724985
C197	C	0.034899	-0.475056	0.440551
C198	C	0.534899	0.024944	0.940551
C199	C	0.148298	-0.588365	0.440456
C200	C	0.648298	-0.088365	0.940456
C201	C	0.080746	-0.656109	0.575876
C202	C	0.580746	-0.156109	1.075876
C203	C	-0.032653	-0.542801	0.575971
C204	C	0.467347	-0.042801	1.075971
C205	C	0.633086	-0.633292	0.598298
C206	C	1.133086	-0.133292	1.098298
C207	C	0.632998	-0.632993	0.484834
C208	C	1.132998	-0.132993	0.984834
C209	C	0.632857	-0.497559	0.417433
C210	C	1.132857	0.002441	0.917433
C211	C	0.632949	-0.497860	0.530895
C212	C	1.132949	0.002140	1.030895
C213	C	0.148191	0.009634	0.440259
C214	C	0.648191	0.509634	0.940259
C215	C	0.034733	0.009493	0.440634
C216	C	0.534733	0.509493	0.940634
C217	C	-0.032641	0.009502	0.576027
C218	C	0.467359	0.509502	1.076027
C219	C	0.080854	0.009529	0.575690
C220	C	0.580854	0.509529	1.075690
C221	C	-0.009699	-0.475150	1.083148
C222	C	0.490301	0.024850	1.583148
C223	C	-0.009388	-0.588620	1.083088
C224	C	0.490612	-0.088620	1.583088
C225	C	0.126001	-0.656082	1.083116
C226	C	0.626001	-0.156082	1.583116
C227	C	0.125697	-0.542605	1.083155
C228	C	0.625697	-0.042605	1.583155
H229	H	0.022003	-0.474373	0.936811
H230	H	0.522003	0.025627	1.436811
C231	C	0.091882	-0.712227	0.620890
C232	C	0.591882	-0.212227	1.120890
H233	H	0.128123	-0.735157	0.607560
H234	H	0.628123	-0.235157	1.107560
H235	H	0.087792	-0.707487	0.652008
H236	H	0.587792	-0.207487	1.152008
H237	H	0.066602	-0.728663	0.630863
H238	H	0.566602	-0.228663	1.130863
H239	H	0.633014	-0.666272	0.476534
H240	H	1.133014	-0.166272	0.976534
H241	H	0.189596	0.009891	0.406765
H242	H	0.689596	0.509891	0.906765
C243	C	0.171130	-0.712149	1.083105
C244	C	0.671130	-0.212149	1.583105
H245	H	0.202910	-0.712205	1.083109
H246	H	0.702910	-0.212205	1.583109
H247	H	0.158586	-0.740006	1.114848
H248	H	0.658586	-0.240006	1.614848
H249	H	0.179743	-0.718822	1.051341
H250	H	0.679743	-0.218822	1.551341
H251	H	0.191560	-0.559196	0.514439
H252	H	0.691560	-0.059196	1.014439
C253	C	0.023508	0.009479	0.395700
C254	C	0.523508	0.509479	0.895700
H255	H	-0.012741	0.009467	0.409091
H256	H	0.487259	0.509467	0.909091
H257	H	0.027574	0.041229	0.364561
H258	H	0.527574	0.541229	0.864561
H259	H	0.048765	-0.022280	0.385735
H260	H	0.548765	0.477720	0.885735
H261	H	-0.074166	-0.534620	0.609333
H262	H	0.425834	-0.034620	1.109333
H263	H	0.226428	-0.524588	0.832752
H264	H	0.726428	-0.024588	1.332752
H265	H	0.633132	-0.666701	0.639790
H266	H	1.133132	-0.166701	1.139790
C267	C	0.632928	-0.452898	0.542100
C268	C	1.132928	0.047102	1.042100
H269	H	0.632886	-0.421027	0.510462
H270	H	1.132886	0.078973	1.010462
H271	H	0.601195	-0.444402	0.571981
H272	H	1.101195	0.055598	1.071981
H273	H	0.664699	-0.465526	0.550761
H274	H	1.164699	0.034474	1.050761
C275	C	0.204372	-0.599412	0.395380
C276	C	0.704372	-0.099412	0.895380
H277	H	0.204460	-0.567718	0.363565
H278	H	0.704460	-0.067718	0.863565
H279	H	0.232222	-0.608074	0.407945
H280	H	0.732222	-0.108074	0.907945
H281	H	0.211023	-0.629257	0.386816
H282	H	0.711023	-0.129257	0.886816
C283	C	-0.088689	0.009496	0.621163
C284	C	0.411311	0.509496	1.121163
H285	H	-0.111703	0.009491	0.607949
H286	H	0.388297	0.509491	1.107949
H287	H	-0.083876	-0.022254	0.652273
H288	H	0.416124	0.477746	1.152273
H289	H	-0.105068	0.041256	0.631104
H290	H	0.394932	0.541256	1.131104
H291	H	0.016742	-0.733938	0.467255
H292	H	0.516742	-0.233938	0.967255
C293	C	0.092082	0.009537	0.620626
C294	C	0.592082	0.509537	1.120626
H295	H	0.128334	0.009539	0.607238
H296	H	0.628334	0.509539	1.107238
H297	H	0.066827	0.041288	0.630599
H298	H	0.566827	0.541288	1.130599
H299	H	0.088020	-0.022222	0.651761
H300	H	0.588020	0.477778	1.151761
H301	H	0.056584	-0.439691	0.832846
H302	H	0.556584	0.060309	1.332846
H303	H	-0.043102	-0.433644	1.083156
H304	H	0.456898	0.066356	1.583156
C305	C	0.202491	-0.568647	0.944906
C306	C	0.702491	-0.068647	1.444906
H307	H	0.238774	-0.574141	0.919617
H308	H	0.738774	-0.074141	1.419617
H309	H	0.196979	-0.551129	0.967254
H310	H	0.696979	-0.051129	1.467254
H311	H	0.197022	-0.603013	0.967272
H312	H	0.697022	-0.103013	1.467272
C313	C	0.045816	-0.430253	0.643466
C314	C	0.545816	0.069747	1.143466
H315	H	0.009521	-0.424743	0.648984
H316	H	0.509521	0.075257	1.148984
H317	H	0.051346	-0.447759	0.677810
H318	H	0.551346	0.052241	1.177810
H319	H	0.051310	-0.395897	0.625966
H320	H	0.551310	0.104103	1.125966
C321	C	0.632779	-0.452420	0.361387
C322	C	1.132779	0.047580	0.861387
H323	H	0.632772	-0.465647	0.338384
H324	H	1.132772	0.034353	0.838384
H325	H	0.601011	-0.421324	0.366210
H326	H	1.101011	0.078676	0.866210
H327	H	0.664516	-0.442448	0.344988
H328	H	1.164516	0.057552	0.844988
H329	H	-0.042644	-0.596897	1.083039
H330	H	0.457356	-0.096897	1.583039
H331	H	0.158967	-0.534314	1.083161
H332	H	0.658967	-0.034314	1.583161
H333	H	0.026652	-0.433515	0.407232
H334	H	0.526652	0.066485	0.907232
H335	H	0.021776	-0.474310	0.599390
H336	H	0.521776	0.025690	1.099390
H337	H	0.058518	-0.740243	0.392731
H338	H	0.558518	-0.240243	0.892731
H339	H	0.382671	-0.566208	0.623544
H340	H	0.882671	-0.066208	1.123544
C341	C	0.242334	-0.528483	0.545112
C342	C	0.742334	-0.028483	1.045112
H343	H	0.261769	-0.550839	0.522746
H344	H	0.761769	-0.050839	1.022746
H345	H	0.251713	-0.496072	0.525670
H346	H	0.751713	0.003928	1.025670
H347	H	0.251757	-0.547938	0.577510
H348	H	0.751757	-0.047938	1.077510
H349	H	0.486634	-0.600858	0.588843
H350	H	0.986634	-0.100858	1.088843
H351	H	0.486593	-0.432619	0.524694
H352	H	0.986593	0.067381	1.024694
H353	H	0.382624	-0.397967	0.559385
H354	H	0.882624	0.102033	1.059385
H355	H	0.149018	-0.136838	0.472047
H356	H	0.649018	0.363162	0.972047
C357	C	0.193127	-0.249001	0.496029
C358	C	0.693127	0.250999	0.996029
H359	H	0.198603	-0.223718	0.459739
H360	H	0.698603	0.276282	0.959739
H361	H	0.227490	-0.271356	0.501514
H362	H	0.727490	0.228644	1.001514
H363	H	0.175625	-0.271361	0.501544
H364	H	0.675625	0.228639	1.001544
H365	H	0.064226	-0.136878	0.641864
H366	H	0.564226	0.363122	1.141864
H367	H	0.016979	-0.733950	0.333522
H368	H	0.516979	-0.233950	0.833522
H369	H	-0.033030	-0.529506	0.229442
H370	H	0.466970	-0.029506	0.729442
C371	C	0.094995	-0.249045	0.692586
C372	C	0.594995	0.250955	1.192586
H373	H	0.072650	-0.223774	0.712039
H374	H	0.572650	0.276226	1.212039
H375	H	0.075559	-0.271417	0.702007
H376	H	0.575559	0.228583	1.202007
H377	H	0.127426	-0.271390	0.701950
H378	H	0.627426	0.228610	1.201950
H379	H	-0.067855	-0.564093	0.333408
H380	H	0.432145	-0.064093	0.833408
H381	H	0.051792	-0.699362	0.229554
H382	H	0.551792	-0.199362	0.729554
H383	H	-0.033345	-0.529494	0.416965
H384	H	0.466655	-0.029494	0.916965
C385	C	0.060726	-0.709984	0.511476
C386	C	0.560726	-0.209984	1.011476
H387	H	0.070109	-0.690559	0.520911
H388	H	0.570109	-0.190559	1.020911
H389	H	0.041239	-0.732312	0.543856
H390	H	0.541239	-0.232312	1.043856
H391	H	0.093147	-0.732372	0.492068
H392	H	0.593147	-0.232372	0.992068
C393	C	0.109056	-0.852426	0.425144
C394	C	0.609056	-0.352426	0.925144
H395	H	0.128268	-0.827184	0.406223
H396	H	0.628268	-0.327184	0.906223
H397	H	0.114316	-0.874783	0.459606
H398	H	0.614316	-0.374783	0.959606
H399	H	0.122518	-0.874789	0.404138
H400	H	0.622518	-0.374789	0.904138
H401	H	-0.067926	-0.564092	0.382165
H402	H	0.432074	-0.064092	0.882165
H403	H	-0.075156	-0.844016	0.491279
H404	H	0.424844	-0.344016	0.991279
H405	H	-0.109727	-0.740044	0.456586
H406	H	0.390273	-0.240044	0.956586
H407	H	-0.116855	-0.691337	0.509456
H408	H	0.383145	-0.191337	1.009456
H409	H	-0.220824	-0.656545	0.543924
H410	H	0.279176	-0.156545	1.043924
H411	H	-0.220518	-0.571693	0.374008
H412	H	0.279482	-0.071693	0.874008
H413	H	-0.116547	-0.606465	0.339541
H414	H	0.383453	-0.106465	0.839541
