data_functionalizedCrystal
_audit_creation_method	'MofGen! by Chris Wilmer'
_symmetry_space_group_name_H-M	'P1'
_symmetry_Int_Tables_number	1
_symmetry_cell_setting	triclinic
loop_
_symmetry_equiv_pos_as_xyz
  x,y,z
_cell_length_a	17.640112
_cell_length_b	21.295417
_cell_length_c	17.640968
_cell_angle_alpha	101.233941
_cell_angle_beta	87.860920
_cell_angle_gamma	101.255243
loop_
_atom_site_label
_atom_site_type_symbol
_atom_site_fract_x
_atom_site_fract_y
_atom_site_fract_z
Zn1	Zn	1.247775	-0.018088	0.195079
Zn2	Zn	1.221984	-0.147965	0.068090
Zn3	Zn	1.095101	-0.059037	0.093723
Zn4	Zn	1.120726	-0.139679	0.220672
O5	O	1.171397	-0.091192	0.144391
O6	O	1.350626	-0.021647	0.156795
O7	O	1.183635	-0.156774	-0.034784
O8	O	1.115422	0.034498	0.107185
O9	O	1.331677	-0.117067	0.063497
O10	O	1.227592	0.064584	0.181651
O11	O	1.090414	-0.091439	-0.015952
O12	O	0.992228	-0.083404	0.132001
O13	O	1.159098	-0.102944	0.323551
O14	O	1.011055	-0.142651	0.225270
O15	O	1.252440	-0.013611	0.304748
O16	O	1.208483	-0.234969	0.088313
O17	O	1.134089	-0.228881	0.200415
C18	C	0.974087	-0.116572	0.184195
C19	C	0.889681	-0.127442	0.201241
C20	C	0.563038	-0.008607	0.014898
C21	C	0.483727	-0.018831	0.030926
C22	C	0.503352	-0.080668	0.127879
C23	C	0.582667	-0.070447	0.111862
C24	C	0.612502	-0.034416	0.055370
C25	C	0.632131	-0.096256	0.152334
C26	C	0.711438	-0.086038	0.136315
C27	C	0.741280	-0.050010	0.079824
C28	C	0.691809	-0.024198	0.039351
C29	C	0.602293	-0.132290	0.208822
C30	C	0.651758	-0.158100	0.249294
C31	C	0.731067	-0.147878	0.233279
C32	C	0.760909	-0.111850	0.176788
C33	C	0.780538	-0.173690	0.273752
C34	C	0.859845	-0.163472	0.257733
C35	C	0.840216	-0.101632	0.160769
C36	C	1.171292	-0.254764	0.144372
C37	C	1.171322	-0.324726	0.144375
C38	C	1.229708	-0.341867	0.183190
C39	C	1.229738	-0.407603	0.183203
C40	C	1.171388	-0.456196	0.144387
C41	C	1.112992	-0.439049	0.105570
C42	C	1.112959	-0.373314	0.105565
N43	N	1.152210	-0.573067	0.079078
N44	N	1.152247	-0.635511	0.079084
C45	C	1.171484	-0.654253	0.144403
N46	N	1.190699	-0.608189	0.209713
N47	N	1.190666	-0.545738	0.209705
C48	C	1.171418	-0.527477	0.144389
C49	C	1.229906	-0.742671	0.183236
C50	C	1.229932	-0.808408	0.183252
C51	C	1.113189	-0.839854	0.105611
C52	C	1.113160	-0.774117	0.105603
C53	C	1.171523	-0.725529	0.144414
C54	C	1.369477	-0.065713	0.104432
C55	C	1.453887	-0.054856	0.087404
C56	C	1.211504	-0.052786	0.342476
C57	C	1.228596	-0.036419	0.426888
C58	C	1.171526	0.073024	0.144422
C59	C	1.171581	0.143003	0.144436
C60	C	1.131488	-0.129398	-0.052932
C61	C	1.114544	-0.145568	-0.137374
C62	C	1.041845	-0.215147	0.753451
C63	C	1.057921	-0.199758	0.832766
C64	C	1.155110	-0.106744	0.813178
C65	C	1.139040	-0.122123	0.733860
C66	C	1.082407	-0.176326	0.704003
C67	C	1.179602	-0.083302	0.684412
C68	C	1.163535	-0.098682	0.605101
C69	C	1.106906	-0.152884	0.575238
C70	C	1.066340	-0.191706	0.624692
C71	C	1.236238	-0.029102	0.714270
C72	C	1.276800	0.009719	0.664822
C73	C	1.260729	-0.005659	0.585510
C74	C	1.204101	-0.059860	0.555647
C75	C	1.301296	0.033164	0.536056
C76	C	1.285229	0.017784	0.456745
C77	C	1.188034	-0.075240	0.476336
H78	H	0.443455	0.002194	-0.002031
N79	N	0.980763	-0.273610	0.721242
H80	H	0.976743	-0.277460	0.663496
H81	H	0.929342	-0.268097	0.746050
H82	H	1.141900	-0.119365	0.452029
H83	H	0.479048	-0.110007	0.173873
H84	H	0.864512	-0.072281	0.114779
H85	H	0.627454	-0.187438	0.295288
H86	H	0.537716	-0.140609	0.221862
N87	N	0.826817	-0.038993	0.062542
H88	H	0.856494	-0.014918	0.110801
H89	H	0.838144	-0.012273	0.020592
N90	N	0.595228	0.030262	-0.046027
H91	H	0.551860	0.045066	-0.069235
H92	H	0.620988	0.002094	-0.087871
H93	H	1.249319	-0.016583	0.778850
H94	H	1.318257	0.049396	0.416483
H95	H	1.065675	-0.879418	0.074012
N96	N	1.292646	-0.289461	0.225056
H97	H	1.344543	-0.296157	0.202360
H98	H	1.291727	-0.291924	0.281689
N99	N	1.292846	-0.690266	0.225109
H100	H	1.269060	-0.660159	0.266504
H101	H	1.321793	-0.664471	0.187120
H102	H	1.277278	-0.421561	0.214821
N103	N	0.748357	-0.212551	0.334681
H104	H	0.759736	-0.258042	0.320002
H105	H	0.690619	-0.215061	0.338660
N106	N	1.005253	-0.250166	0.592485
H107	H	1.019807	-0.290957	0.603898
H108	H	1.001261	-0.253957	0.534747
H109	H	1.347411	0.077292	0.560376
H110	H	0.900121	-0.184488	0.290691
H111	H	0.716105	0.005154	-0.006639
H112	H	1.065482	-0.478619	0.073968
H113	H	1.065413	-0.359360	0.073957
N114	N	1.292885	-0.826896	0.225152
H115	H	1.329844	-0.786139	0.249744
H116	H	1.321824	-0.855626	0.187197
H117	H	1.065620	-0.760161	0.073993
H118	H	1.093829	-0.165407	0.510657
H119	H	1.024887	-0.231375	0.873025
N120	N	1.216190	-0.048283	0.845378
H121	H	1.258032	-0.062958	0.871176
H122	H	1.191953	-0.016720	0.884486
H123	H	1.322912	0.053849	0.689142
