data_functionalizedCrystal
_audit_creation_method	'MofGen! by Chris Wilmer'
_symmetry_space_group_name_H-M	'P1'
_symmetry_Int_Tables_number	1
_symmetry_cell_setting	triclinic
loop_
_symmetry_equiv_pos_as_xyz
  x,y,z
_cell_length_a	6.817900
_cell_length_b	19.551823
_cell_length_c	11.102193
_cell_angle_alpha	94.524979
_cell_angle_beta	108.604059
_cell_angle_gamma	101.663376
loop_
_atom_site_label
_atom_site_type_symbol
_atom_site_fract_x
_atom_site_fract_y
_atom_site_fract_z
V1	V	-4.076511	-0.096680	-0.396852
O2	O	-4.072228	0.004641	-0.388686
O3	O	-4.018888	-0.191695	-0.394726
O4	O	-4.053823	-0.095195	-0.569664
O5	O	-4.037050	-0.092527	-0.212536
V6	V	-4.558003	-0.084561	-0.374735
O7	O	-4.342226	-0.123265	-0.445367
O8	O	-4.742485	-0.057976	-0.326219
O9	O	-4.392420	0.010455	-0.376861
O10	O	-4.679683	-0.185881	-0.382901
O11	O	-4.714860	-0.088713	-0.559050
O12	O	-4.357484	-0.086045	-0.201922
C13	C	-3.860813	-0.214858	-0.388617
C14	C	-3.895157	-0.292534	-0.388030
C15	C	-4.094003	-0.332580	-0.394110
C16	C	-4.126280	-0.405566	-0.393572
C17	C	-3.959686	-0.438501	-0.386928
C18	C	-3.760816	-0.398446	-0.380855
C19	C	-3.728551	-0.325463	-0.381406
C20	C	-3.834467	-0.544988	-0.306338
C21	C	-3.866735	-0.617969	-0.305779
C22	C	-4.059196	-0.663607	-0.385234
C23	C	-4.219412	-0.636253	-0.465232
C24	C	-4.187147	-0.563269	-0.465783
C25	C	-3.994652	-0.517639	-0.386331
C26	C	-4.293054	-0.782793	-0.390733
C27	C	-4.325327	-0.855781	-0.390203
C28	C	-3.959851	-0.848659	-0.377472
C29	C	-3.927590	-0.775674	-0.378016
C30	C	-4.094196	-0.742744	-0.384640
C31	C	-3.905375	-0.091761	-0.611767
C32	C	-3.968047	-0.091176	-0.753046
C33	C	-4.042041	-0.219156	-0.790159
C34	C	-4.108473	-0.282867	-0.875087
C35	C	-4.167360	-0.282314	-1.007829
C36	C	-4.159817	-0.218041	-1.055646
C37	C	-4.093385	-0.154329	-0.970718
C38	C	-4.034495	-0.154890	-0.837974
C39	C	-4.019407	-0.026351	-0.933605
C40	C	-3.960505	-0.026903	-0.800862
C41	C	-4.011865	0.037921	-0.981421
C42	C	-3.945417	0.101635	-0.896493
C43	C	-3.886526	0.101079	-0.763743
C44	C	-3.894073	0.036809	-0.715934
C45	C	-4.213836	0.033613	-0.382966
C46	C	-4.158731	0.111289	-0.383561
C47	C	-4.169273	-0.089481	-0.159813
C48	C	-4.085839	-0.090063	-0.018533
H49	H	-4.375977	-0.673421	-0.530107
O50	O	-4.223369	-0.217451	-1.198821
H51	H	-4.359590	-0.192298	-1.230655
H52	H	-3.765665	-0.743067	-0.373056
O53	O	-3.693937	-0.647473	-0.219510
H54	H	-3.554668	-0.603480	-0.164375
H55	H	-4.487259	-0.888386	-0.395162
O56	O	-3.581125	-0.433963	-0.373695
H57	H	-3.636961	-0.491441	-0.374322
O58	O	-3.937244	0.170953	-0.948060
H59	H	-4.044841	0.198926	-0.918545
O60	O	-4.273718	-0.297066	-0.401316
H61	H	-4.417428	-0.337182	-0.405481
O62	O	-3.626880	-0.495764	-0.220628
H63	H	-3.520913	-0.527044	-0.164893
O64	O	-3.978507	-0.219757	-0.646988
H65	H	-3.810358	-0.189671	-0.599134
H66	H	-3.832446	0.152961	-0.694601
H67	H	-4.317600	-0.541001	-0.530922
H68	H	-4.114613	-0.335197	-0.836140
O69	O	-4.472746	-0.747270	-0.397907
H70	H	-4.616459	-0.787384	-0.402071
O71	O	-3.780154	-0.884170	-0.370308
H72	H	-3.835989	-0.941648	-0.370941
H73	H	-4.221457	-0.334193	-1.076979
H74	H	-4.288209	-0.438177	-0.398523
O75	O	-3.514072	-0.282263	-0.374847
H76	H	-3.390352	-0.287097	-0.284617
O77	O	-4.075367	0.038525	-1.124592
H78	H	-4.122806	-0.016574	-1.175616
H79	H	-3.846112	0.036349	-0.607850
