data_functionalizedCrystal
_audit_creation_method	'MofGen! by Chris Wilmer'
_symmetry_space_group_name_H-M	'P1'
_symmetry_Int_Tables_number	1
_symmetry_cell_setting	triclinic
loop_
_symmetry_equiv_pos_as_xyz
  x,y,z
_cell_length_a	8.597213
_cell_length_b	8.559649
_cell_length_c	9.130313
_cell_angle_alpha	90.004774
_cell_angle_beta	97.706197
_cell_angle_gamma	77.624681
loop_
_atom_site_label
_atom_site_type_symbol
_atom_site_fract_x
_atom_site_fract_y
_atom_site_fract_z
O1	O	2.053778	0.238057	0.380959
O2	O	1.594636	0.256316	0.323022
O3	O	1.864657	0.015217	0.357093
O4	O	1.783756	0.479156	0.346887
O5	O	1.864639	0.015201	0.113492
O6	O	1.594617	0.256300	0.079420
O7	O	2.053759	0.238041	0.137358
Cu8	Cu	1.824187	0.247169	0.086146
Cu9	Cu	1.824208	0.247188	0.374233
O10	O	1.783737	0.479140	0.103286
C11	C	1.536390	0.254346	0.193873
C12	C	1.362868	0.248483	0.171977
C13	C	1.870779	-0.044225	0.236069
C14	C	1.889029	-0.221320	0.238380
C15	C	2.112004	0.240011	0.266510
C16	C	2.285527	0.245875	0.288415
C17	C	1.777616	0.538582	0.224314
C18	C	1.759366	0.715677	0.222012
N19	N	1.824183	0.247155	-0.116477
C20	C	1.740882	0.148911	-0.357035
C21	C	1.740865	0.148889	-0.203700
C22	C	1.907537	0.345438	-0.182593
C23	C	1.907563	0.345450	-0.335924
N24	N	1.824226	0.247190	0.576858
H25	H	1.352060	0.248141	0.404849
H26	H	1.975440	0.425481	-0.389748
H27	H	1.672999	0.068859	-0.149884
H28	H	2.014008	-0.302873	0.254139
H29	H	1.975385	0.425440	-0.111562
H30	H	1.296322	0.246234	0.055535
H31	H	1.634395	-0.202779	0.206238
O32	O	1.659920	0.053306	-0.441535
C33	C	1.586325	-0.033414	-0.350304
H34	H	1.652270	-0.041674	-0.232667
H35	H	1.591745	-0.158982	-0.393944
H36	H	1.455450	0.030287	-0.350530
