data_functionalizedCrystal
_audit_creation_method	'MofGen! by Chris Wilmer'
_symmetry_space_group_name_H-M	'P1'
_symmetry_Int_Tables_number	1
_symmetry_cell_setting	triclinic
loop_
_symmetry_equiv_pos_as_xyz
  x,y,z
_cell_length_a	15.995350
_cell_length_b	15.995343
_cell_length_c	8.140239
_cell_angle_alpha	89.991761
_cell_angle_beta	90.000925
_cell_angle_gamma	83.490780
loop_
_atom_site_label
_atom_site_type_symbol
_atom_site_fract_x
_atom_site_fract_y
_atom_site_fract_z
O1	O	-1.110981	-0.107926	0.136492
O2	O	-0.867205	-0.121253	0.136528
O3	O	-0.995760	0.007299	0.136478
O4	O	-0.982426	-0.236478	0.136541
O5	O	-0.995753	0.007300	-0.136749
O6	O	-0.867198	-0.121252	-0.136699
O7	O	-1.110973	-0.107924	-0.136735
Zn8	Zn	-0.989084	-0.114588	-0.180098
Zn9	Zn	-0.989094	-0.114590	0.179890
O10	O	-0.982418	-0.236476	-0.136686
C11	C	-0.836007	-0.120702	-0.000082
C12	C	-0.743056	-0.119050	-0.000069
C13	C	-0.995206	0.038494	-0.000140
C14	C	-0.993557	0.131445	-0.000152
C15	C	-1.142172	-0.108476	-0.000122
C16	C	-1.235122	-0.110128	-0.000124
C17	C	-0.405309	-0.113118	-0.000105
C18	C	-0.452746	-0.021565	-0.000738
C19	C	-0.549436	-0.023217	-0.000110
C20	C	-0.572869	-0.116060	-0.000088
C21	C	-0.531785	-0.161218	0.155943
C22	C	-0.435149	-0.158918	0.156062
C23	C	-0.434802	-0.160808	-0.154648
C24	C	-0.531748	-0.160786	-0.156699
C25	C	-0.667567	-0.117728	-0.000073
C26	C	-0.310611	-0.111452	-0.000109
C27	C	-0.982972	-0.267672	-0.000064
C28	C	-0.984621	-0.360622	-0.000041
N29	N	-0.989084	-0.114586	-0.425781
C30	C	-0.990563	0.301631	-0.000114
C31	C	-0.897766	0.324977	-0.000097
C32	C	-0.896020	0.421655	0.000542
C33	C	-0.987615	0.469191	-0.000079
C34	C	-1.034279	0.440091	0.155626
C35	C	-1.035379	0.343299	0.155739
C36	C	-1.036730	0.343405	-0.154983
C37	C	-1.033304	0.439900	-0.157011
C38	C	-0.985953	0.563889	-0.000053
C39	C	-0.992228	0.206933	-0.000129
N40	N	-0.989101	-0.114585	0.425573
H41	H	-0.434222	0.015031	-0.112635
N42	N	-1.117149	0.481233	-0.169440
N43	N	-1.138404	0.525761	-0.291960
H44	H	-1.197621	0.554956	-0.300731
H45	H	-0.862386	0.295987	0.111406
H46	H	-0.402899	-0.226134	0.163158
H47	H	-0.859673	0.440086	0.112830
N48	N	-0.995323	0.309696	0.302328
N49	N	-0.966748	0.357755	0.403836
H50	H	-0.938456	0.334028	0.507369
H51	H	-0.433156	0.014861	0.110523
H52	H	-0.416845	-0.125988	0.272683
N53	N	-0.584382	0.021612	0.140432
N54	N	-0.537351	0.054212	0.238367
H55	H	-0.562031	0.085874	0.337635
H56	H	-0.861794	0.296975	-0.111741
N57	N	-0.549503	-0.246785	0.163227
N58	N	-0.592712	-0.275508	0.053241
H59	H	-0.605227	-0.335940	0.058380
N60	N	-1.122410	0.325808	-0.156920
N61	N	-1.149422	0.286767	-0.275036
H62	H	-1.209931	0.274334	-0.276395
H63	H	-1.007449	0.315141	-0.273045
N64	N	-0.567412	-0.121889	0.301588
N65	N	-0.623048	-0.060613	0.290878
H66	H	-0.648219	-0.032840	0.393737
N67	N	-0.990685	0.463178	-0.301541
N68	N	-0.960459	0.407805	-0.399901
H69	H	-0.930357	0.424249	-0.501975
N70	N	-0.409032	-0.123256	-0.303003
N71	N	-0.368609	-0.060881	-0.296629
H72	H	-0.350407	-0.034352	-0.401397
N73	N	-0.566003	-0.119415	-0.301497
N74	N	-0.620501	-0.057222	-0.289525
H75	H	-0.644699	-0.028001	-0.391786
N76	N	-0.551054	-0.245709	-0.168494
N77	N	-0.625939	-0.260581	-0.178372
H78	H	-0.639586	-0.320558	-0.186681
H79	H	-0.403039	-0.228308	-0.155687
N80	N	-1.120744	0.325004	0.164024
N81	N	-1.171629	0.350697	0.053664
H82	H	-1.231917	0.337777	0.059520
N83	N	-0.585091	0.021321	-0.140421
N84	N	-0.538571	0.053847	-0.239494
H85	H	-0.563749	0.085310	-0.338589
H86	H	-0.859485	0.440679	-0.111042
H87	H	-1.101690	0.471937	0.160972
H88	H	-1.002267	0.460176	0.271957
