data_functionalizedCrystal
_audit_creation_method	'MofGen! by Chris Wilmer'
_symmetry_space_group_name_H-M	'P1'
_symmetry_Int_Tables_number	1
_symmetry_cell_setting	triclinic
loop_
_symmetry_equiv_pos_as_xyz
  x,y,z
_cell_length_a	27.732048
_cell_length_b	27.732048
_cell_length_c	26.809956
_cell_angle_alpha	90.000636
_cell_angle_beta	89.996742
_cell_angle_gamma	97.357345
loop_
_atom_site_label
_atom_site_type_symbol
_atom_site_fract_x
_atom_site_fract_y
_atom_site_fract_z
O1	O	0.640931	-0.057510	-0.041421
O2	O	1.140931	0.442490	0.458579
O3	O	0.500138	-0.066256	-0.041436
O4	O	1.000138	0.433744	0.458564
O5	O	0.574907	0.008514	-0.041419
O6	O	1.074907	0.508514	0.458581
O7	O	0.566162	-0.132280	-0.041439
O8	O	1.066162	0.367720	0.458561
O9	O	0.574893	0.008502	0.041541
O10	O	1.074893	0.508502	0.541541
O11	O	0.500123	-0.066267	0.041523
O12	O	1.000123	0.433733	0.541523
O13	O	0.640917	-0.057522	0.041539
O14	O	1.140917	0.442478	0.541539
Zn15	Zn	0.570518	-0.061896	0.054702
Zn16	Zn	1.070518	0.438104	0.554702
Zn17	Zn	0.570536	-0.061881	-0.054600
Zn18	Zn	1.070536	0.438119	0.445400
O19	O	0.566147	-0.132291	0.041521
O20	O	1.066147	0.367709	0.541521
C21	C	0.482124	-0.066078	0.000041
C22	C	0.982124	0.433922	0.500041
C23	C	0.428469	-0.065525	0.000036
C24	C	0.928469	0.434475	0.500036
C25	C	0.089654	-0.106229	0.000051
C26	C	0.589654	0.393771	0.500051
C27	C	-0.112006	-0.104178	0.000056
C28	C	0.387994	0.395822	0.500056
O29	O	-0.143262	-0.141398	0.000073
O30	O	0.356738	0.358602	0.500073
N31	N	-0.131130	-0.059843	0.000062
N32	N	0.368870	0.440157	0.500062
C33	C	-0.099835	-0.016017	0.000069
C34	C	0.400165	0.483983	0.500069
O35	O	-0.120728	0.021740	0.000079
O36	O	0.379272	0.521740	0.500079
C37	C	0.101824	-0.018068	0.000068
C38	C	0.601824	0.481932	0.500068
C39	C	0.120944	-0.062407	0.000057
C40	C	0.620944	0.437593	0.500057
C41	C	0.108775	-0.150563	0.000042
C42	C	0.608775	0.349437	0.500042
C43	C	0.159187	-0.151076	0.000038
C44	C	0.659187	0.348924	0.500038
C45	C	0.190477	-0.107253	0.000044
C46	C	0.690477	0.392747	0.500044
C47	C	0.171356	-0.062919	0.000054
C48	C	0.671356	0.437081	0.500054
C49	C	0.133117	0.025757	0.000079
C50	C	0.633117	0.525757	0.500079
C51	C	0.183535	0.025240	0.000080
C52	C	0.683535	0.525240	0.500080
C53	C	0.202655	-0.019098	0.000069
C54	C	0.702655	0.480902	0.500069
C55	C	0.253059	-0.019609	0.000056
C56	C	0.753059	0.480391	0.500056
N57	N	0.272183	-0.063944	0.000050
N58	N	0.772183	0.436056	0.500050
C59	C	0.240892	-0.107766	0.000044
C60	C	0.740892	0.392234	0.500044
C61	C	-0.205709	-0.014943	0.000069
C62	C	0.294291	0.485057	0.500069
C63	C	-0.256124	-0.014430	0.000068
C64	C	0.243876	0.485570	0.500068
C65	C	-0.268291	-0.102591	0.000056
C66	C	0.231709	0.397409	0.500056
C67	C	-0.217876	-0.103104	0.000053
C68	C	0.282124	0.396896	0.500053
C69	C	-0.186585	-0.059278	0.000063
C70	C	0.313415	0.440722	0.500063
C71	C	0.346761	-0.108839	0.000036
C72	C	0.846761	0.391161	0.500036
C73	C	0.397178	-0.109347	0.000030
C74	C	0.897178	0.390653	0.500030
C75	C	0.409341	-0.021186	0.000044
C76	C	0.909341	0.478814	0.500044
C77	C	0.358929	-0.020678	0.000048
C78	C	0.858929	0.479322	0.500048
C79	C	0.327639	-0.064508	0.000045
C80	C	0.827639	0.435492	0.500045
O81	O	0.284343	0.017592	0.000045
O82	O	0.784343	0.517592	0.500045
O83	O	0.261794	-0.145518	0.000045
O84	O	0.761794	0.354482	0.500045
C85	C	0.039242	-0.105716	0.000055
C86	C	0.539242	0.394284	0.500055
C87	C	0.020120	-0.061382	0.000065
C88	C	0.520120	0.438618	0.500065
C89	C	0.051411	-0.017560	0.000071
C90	C	0.551411	0.482440	0.500071
C91	C	-0.030294	-0.060869	0.000065
C92	C	0.469706	0.439131	0.500065
C93	C	-0.061585	-0.104691	0.000059
C94	C	0.438415	0.395309	0.500059
C95	C	-0.042461	-0.149026	0.000053
C96	C	0.457539	0.350974	0.500053
C97	C	0.007951	-0.149539	0.000049
C98	C	0.507951	0.350461	0.500049
C99	C	0.032287	0.026775	0.000077
C100	C	0.532287	0.526775	0.500077
C101	C	-0.018125	0.027284	0.000080
C102	C	0.481875	0.527284	0.500080
C103	C	-0.049416	-0.016538	0.000074
C104	C	0.450584	0.483462	0.500074
C105	C	0.574716	0.026515	0.000062
C106	C	1.074716	0.526515	0.500062
C107	C	0.574164	0.080170	0.000066
C108	C	1.074164	0.580170	0.500066
C109	C	0.658931	-0.057699	0.000060
C110	C	1.158931	0.442301	0.500060
C111	C	0.712586	-0.058252	0.000062
C112	C	1.212586	0.441748	0.500062
C113	C	0.566338	-0.150292	0.000039
C114	C	1.066338	0.349708	0.500039
C115	C	0.566891	-0.203947	0.000031
C116	C	1.066891	0.296053	0.500031
N117	N	0.570509	-0.061906	0.129298
N118	N	1.070509	0.438094	0.629298
C119	C	0.614867	0.418985	0.000045
C120	C	1.114867	0.918985	0.500045
C121	C	0.612816	0.620645	0.000038
C122	C	1.112816	1.120645	0.500038
O123	O	0.650037	0.651900	0.000021
O124	O	1.150037	1.151900	0.500021
N125	N	0.568481	0.639768	0.000034
N126	N	1.068481	1.139768	0.500034
C127	C	0.524656	0.608474	0.000028
C128	C	1.024656	1.108474	0.500028
O129	O	0.486899	0.629367	0.000019
O130	O	0.986899	1.129367	0.500019
C131	C	0.526707	0.406815	0.000031
C132	C	1.026707	0.906815	0.500031
C133	C	0.571045	0.387694	0.000041
C134	C	1.071045	0.887694	0.500041
C135	C	0.659202	0.399864	0.000054
C136	C	1.159202	0.899864	0.500054
C137	C	0.659714	0.349452	0.000059
C138	C	1.159714	0.849452	0.500059
C139	C	0.615892	0.318161	0.000054
C140	C	1.115892	0.818161	0.500054
C141	C	0.571557	0.337282	0.000045
C142	C	1.071557	0.837282	0.500045
C143	C	0.482882	0.375521	0.000022
C144	C	0.982882	0.875521	0.500022
C145	C	0.483399	0.325104	0.000021
C146	C	0.983399	0.825104	0.500021
C147	C	0.527737	0.305983	0.000031
C148	C	1.027737	0.805983	0.500031
C149	C	0.528247	0.255580	0.000045
C150	C	1.028247	0.755580	0.500045
N151	N	0.572583	0.236456	0.000050
N152	N	1.072583	0.736456	0.500050
C153	C	0.616405	0.267747	0.000054
C154	C	1.116405	0.767747	0.500054
C155	C	0.523582	0.714348	0.000027
C156	C	1.023582	1.214348	0.500027
C157	C	0.523069	0.764762	0.000027
C158	C	1.023069	1.264762	0.500027
C159	C	0.611230	0.776930	0.000036
C160	C	1.111230	1.276930	0.500036
C161	C	0.611742	0.726514	0.000040
C162	C	1.111742	1.226514	0.500040
C163	C	0.567917	0.695224	0.000031
C164	C	1.067917	1.195224	0.500031
C165	C	0.617477	0.161878	0.000064
C166	C	1.117477	0.661878	0.500064
C167	C	0.617986	0.111461	0.000071
C168	C	1.117986	0.611461	0.500071
C169	C	0.529825	0.099298	0.000059
C170	C	1.029825	0.599298	0.500059
C171	C	0.529316	0.149710	0.000055
C172	C	1.029316	0.649710	0.500055
C173	C	0.573147	0.180999	0.000056
C174	C	1.073147	0.680999	0.500056
O175	O	0.491047	0.224296	0.000057
O176	O	0.991047	0.724296	0.500057
O177	O	0.654156	0.246844	0.000053
O178	O	1.154156	0.746844	0.500053
C179	C	0.614355	0.469397	0.000041
C180	C	1.114355	0.969397	0.500041
C181	C	0.570021	0.488518	0.000032
C182	C	1.070021	0.988518	0.500032
C183	C	0.526198	0.457228	0.000027
C184	C	1.026198	0.957228	0.500027
C185	C	0.569508	0.538933	0.000032
C186	C	1.069508	1.038933	0.500032
C187	C	0.613330	0.570223	0.000036
C188	C	1.113330	1.070223	0.500036
C189	C	0.657665	0.551100	0.000041
C190	C	1.157665	1.051100	0.500041
C191	C	0.658177	0.500688	0.000045
C192	C	1.158177	1.000688	0.500045
C193	C	0.481863	0.476351	0.000023
C194	C	0.981863	0.976351	0.500023
C195	C	0.481355	0.526764	0.000019
C196	C	0.981355	1.026764	0.500019
C197	C	0.525177	0.558054	0.000023
C198	C	1.025177	1.058054	0.500023
N199	N	0.570549	-0.061867	-0.129196
N200	N	1.070549	0.438133	0.370804
C201	C	0.603640	-0.028781	0.473932
C202	C	1.103640	0.471219	0.973932
C203	C	0.603652	-0.028774	0.682810
C204	C	1.103652	0.471226	1.182810
O205	O	0.631801	-0.000613	0.709820
O206	O	1.131801	0.499387	1.209820
N207	N	0.570539	-0.061870	0.708925
N208	N	1.070539	0.438130	1.208925
C209	C	0.537419	-0.094969	0.682818
C210	C	1.037419	0.405031	1.182818
O211	O	0.509252	-0.123116	0.709824
O212	O	1.009252	0.376884	1.209824
C213	C	0.537406	-0.094974	0.473941
C214	C	1.037406	0.405026	0.973941
C215	C	0.570524	-0.061878	0.447829
C216	C	1.070524	0.438122	0.947829
C217	C	0.636755	0.004312	0.447819
C218	C	1.136755	0.504312	0.947819
C219	C	0.636754	0.004308	0.395603
C220	C	1.136754	0.504308	0.895603
C221	C	0.603637	-0.028789	0.369500
C222	C	1.103637	0.471211	0.869500
C223	C	0.570522	-0.061882	0.395612
C224	C	1.070522	0.438118	0.895612
C225	C	0.504284	-0.128070	0.447835
C226	C	1.004284	0.371930	0.947835
C227	C	0.504283	-0.128067	0.395613
C228	C	1.004283	0.371933	0.895613
C229	C	0.537401	-0.094972	0.369500
C230	C	1.037401	0.405028	0.869500
C231	C	0.537405	-0.094983	0.317293
C232	C	1.037405	0.405017	0.817293
N233	N	0.570517	-0.061887	0.291177
N234	N	1.070517	0.438113	0.791177
C235	C	0.603633	-0.028790	0.317281
C236	C	1.103633	0.471210	0.817281
C237	C	0.537429	-0.094965	0.792481
C238	C	1.037429	0.405035	1.292481
C239	C	0.537433	-0.094964	0.844700
C240	C	1.037433	0.405036	1.344700
C241	C	0.603665	-0.028768	0.844689
C242	C	1.103665	0.471232	1.344689
C243	C	0.603663	-0.028772	0.792469
C244	C	1.103663	0.471228	1.292469
C245	C	0.570542	-0.061868	0.766366
C246	C	1.070542	0.438132	1.266366
C247	C	0.603628	-0.028801	0.207623
C248	C	1.103628	0.471199	0.707623
C249	C	0.603625	-0.028809	0.155402
C250	C	1.103625	0.471191	0.655402
C251	C	0.537392	-0.095003	0.155418
C252	C	1.037392	0.404997	0.655418
C253	C	0.537396	-0.094997	0.207635
C254	C	1.037396	0.405003	0.707635
C255	C	0.570516	-0.061892	0.233735
C256	C	1.070516	0.438108	0.733735
O257	O	0.509266	-0.123126	0.290250
O258	O	1.009266	0.376874	0.790250
O259	O	0.631789	-0.000640	0.290266
O260	O	1.131789	0.499360	0.790266
C261	C	0.603642	-0.028777	0.526149
C262	C	1.103642	0.471223	1.026149
C263	C	0.570527	-0.061870	0.552261
C264	C	1.070527	0.438130	1.052261
C265	C	0.537410	-0.094968	0.526158
C266	C	1.037410	0.405032	1.026158
C267	C	0.570531	-0.061870	0.604480
C268	C	1.070531	0.438130	1.104480
C269	C	0.603647	-0.028773	0.630584
C270	C	1.103647	0.471227	1.130584
C271	C	0.636759	0.004324	0.604468
C272	C	1.136759	0.504324	1.104468
C273	C	0.636758	0.004320	0.552252
C274	C	1.136758	0.504320	1.052252
C275	C	0.504298	-0.128064	0.552273
C276	C	1.004298	0.371936	1.052273
C277	C	0.504303	-0.128058	0.604489
C278	C	1.004303	0.371942	1.104489
C279	C	0.537419	-0.094961	0.630593
C280	C	1.037419	0.405039	1.130593
H281	H	0.083302	-0.186251	0.000038
H282	H	0.583302	0.313749	0.500038
H283	H	0.630630	-0.001820	0.865951
H284	H	1.130630	0.498180	1.365951
H285	H	-0.271687	0.021674	0.000069
H286	H	0.228313	0.521674	0.500069
O287	O	0.635783	0.003458	0.767142
O288	O	1.135783	0.503458	1.267142
C289	C	0.664742	0.087721	0.751243
C290	C	1.164742	0.587721	1.251243
C291	C	0.628331	0.051263	0.779934
C292	C	1.128331	0.551263	1.279934
H293	H	0.658737	0.126379	0.761583
H294	H	1.158737	0.626379	1.261583
H295	H	0.659069	0.082102	0.709426
H296	H	1.159069	0.582102	1.209426
H297	H	0.703405	0.081667	0.761507
H298	H	1.203405	0.581667	1.261507
H299	H	0.589654	0.057295	0.769712
H300	H	1.089654	0.557295	1.269712
H301	H	0.634047	0.056891	0.821744
H302	H	1.134047	0.556891	1.321744
H303	H	0.654093	0.095896	0.000080
H304	H	1.154093	0.595896	0.500080
O305	O	0.487214	0.068966	0.000073
O306	O	0.987214	0.568966	0.500073
C307	C	0.399716	0.062203	0.000015
C308	C	0.899716	0.562203	0.500015
C309	C	0.447937	0.096611	0.000018
C310	C	0.947937	0.596611	0.500018
H311	H	0.367948	0.084541	-0.000040
H312	H	0.867948	0.584541	0.499960
H313	H	0.397709	0.038303	0.034741
H314	H	0.897709	0.538303	0.534741
H315	H	0.397794	0.038289	-0.034696
H316	H	0.897794	0.538289	0.465304
H317	H	0.449891	0.120556	0.034706
H318	H	0.949891	0.620556	0.534706
H319	H	0.449923	0.120478	-0.034730
H320	H	0.949923	0.620478	0.465270
H321	H	0.447710	0.299629	0.000014
H322	H	0.947710	0.799629	0.500014
H323	H	0.630595	-0.001859	0.134142
H324	H	1.130595	0.498141	0.634142
O325	O	0.660022	0.192316	0.000134
O326	O	1.160022	0.692316	0.500134
C327	C	0.710621	0.256271	0.043135
C328	C	1.210621	0.756271	0.543135
C329	C	0.662418	0.221836	0.043108
C330	C	1.162418	0.721836	0.543108
H331	H	0.712579	0.280140	0.077881
H332	H	1.212579	0.780140	0.577881
H333	H	0.712605	0.280211	0.008440
H334	H	1.212605	0.780211	0.508440
H335	H	0.742384	0.233927	0.043119
H336	H	1.242384	0.733927	0.543119
H337	H	0.630628	0.244141	0.043142
H338	H	1.130628	0.744141	0.543142
H339	H	0.660477	0.197895	0.077801
H340	H	1.160477	0.697895	0.577801
H341	H	0.510471	-0.121919	0.865958
H342	H	1.010471	0.378081	1.365958
H343	H	0.646911	0.802415	0.000040
H344	H	1.146911	1.302415	0.500040
H345	H	0.694282	0.485125	0.000053
H346	H	1.194282	0.985125	0.500053
O347	O	0.700190	0.581569	0.000022
O348	O	1.200190	1.081569	0.500022
C349	C	0.738459	0.664634	0.000046
C350	C	1.238459	1.164634	0.500046
C351	C	0.690268	0.630180	0.000060
C352	C	1.190268	1.130180	0.500060
H353	H	0.730454	0.703943	0.000088
H354	H	1.230454	1.203943	0.500088
H355	H	0.760309	0.657760	-0.034678
H356	H	1.260309	1.157760	0.465322
H357	H	0.760296	0.657700	0.034758
H358	H	1.260296	1.157700	0.534758
H359	H	0.668393	0.637093	-0.034628
H360	H	1.168393	1.137093	0.465372
H361	H	0.668456	0.637061	0.034808
H362	H	1.168456	1.137061	0.534808
H363	H	0.321291	-0.144530	0.000035
H364	H	0.821291	0.355470	0.500035
O365	O	0.026581	-0.192577	0.000104
O366	O	0.526581	0.307423	0.500104
C367	C	0.076407	-0.244349	0.043080
C368	C	0.576407	0.255651	0.543080
C369	C	0.055354	-0.195585	0.043076
C370	C	0.555354	0.304415	0.543076
H371	H	0.099667	-0.246801	0.077824
H372	H	0.599667	0.253199	0.577824
H373	H	0.099737	-0.246795	0.008383
H374	H	0.599737	0.253205	0.508383
H375	H	0.045371	-0.275572	0.043051
H376	H	0.545371	0.224428	0.543051
H377	H	0.086359	-0.164334	0.043123
H378	H	0.586359	0.335666	0.543123
H379	H	0.032011	-0.193181	0.077770
H380	H	0.532011	0.306819	0.577770
H381	H	0.057760	0.062462	0.000083
H382	H	0.557760	0.562462	0.500083
O383	O	0.505162	-0.127097	0.232983
O384	O	1.005162	0.372903	0.732983
C385	C	0.420899	-0.156009	0.248943
C386	C	0.920899	0.343991	0.748943
C387	C	0.457356	-0.119627	0.220217
C388	C	0.957356	0.380373	0.720217
H389	H	0.382240	-0.149989	0.238624
H390	H	0.882240	0.350011	0.738624
H391	H	0.426544	-0.150318	0.290755
H392	H	0.926544	0.349682	0.790755
H393	H	0.426928	-0.194682	0.238689
H394	H	0.926928	0.305318	0.738689
H395	H	0.451350	-0.080940	0.230429
H396	H	0.951350	0.419060	0.730429
H397	H	0.451703	-0.125360	0.178412
H398	H	0.951703	0.374640	0.678412
O399	O	0.701762	0.430274	-0.000029
O400	O	1.201762	0.930274	0.499971
C401	C	0.752360	0.494269	-0.042980
C402	C	1.252360	0.994269	0.457020
C403	C	0.704144	0.459854	-0.042958
C404	C	1.204144	0.959854	0.457042
H405	H	0.754297	0.518200	-0.077679
H406	H	1.254297	1.018200	0.422321
H407	H	0.784148	0.471957	-0.043006
H408	H	1.284148	0.971957	0.456994
H409	H	0.754315	0.518152	-0.008244
H410	H	1.254315	1.018152	0.491756
H411	H	0.702142	0.435964	-0.077688
H412	H	1.202142	0.935964	0.422312
H413	H	0.672378	0.482195	-0.042906
H414	H	1.172378	0.982195	0.457094
O415	O	0.505271	-0.127217	0.130078
O416	O	1.005271	0.372783	0.630078
C417	C	0.476286	-0.211462	0.114114
C418	C	0.976286	0.288538	0.614114
C419	C	0.512700	-0.175036	0.142836
C420	C	1.012700	0.324964	0.642836
H421	H	0.482273	-0.250132	0.124427
H422	H	0.982273	0.249868	0.624427
H423	H	0.481976	-0.205816	0.072302
H424	H	0.981976	0.294184	0.572302
H425	H	0.437625	-0.205400	0.124377
H426	H	0.937625	0.294600	0.624377
H427	H	0.551377	-0.181076	0.132616
H428	H	1.051377	0.318924	0.632616
H429	H	0.506968	-0.180691	0.184642
H430	H	1.006968	0.319309	0.684642
H431	H	0.477335	-0.155012	0.625747
H432	H	0.977335	0.344988	1.125747
H433	H	0.117558	0.061861	0.000088
H434	H	0.617558	0.561861	0.500088
O435	O	0.505237	-0.127167	0.767206
O436	O	1.005237	0.372833	1.267206
C437	C	0.439529	-0.192806	0.772743
C438	C	0.939529	0.307194	1.272743
C439	C	0.475966	-0.156370	0.801425
C440	C	0.975966	0.343630	1.301425
H441	H	0.415847	-0.216420	0.800396
H442	H	0.915847	0.283580	1.300396
H443	H	0.460188	-0.216848	0.748307
H444	H	0.960188	0.283152	1.248307
H445	H	0.415555	-0.172098	0.748285
H446	H	0.915555	0.327902	1.248285
H447	H	0.499949	-0.177039	0.825910
H448	H	0.999949	0.322961	1.325910
H449	H	0.455277	-0.132330	0.825830
H450	H	0.955277	0.367670	1.325830
H451	H	0.663725	0.031269	0.530995
H452	H	1.163725	0.531269	1.030995
H453	H	0.209009	0.060929	0.000089
H454	H	0.709009	0.560929	0.500089
O455	O	0.668907	0.036542	0.629776
O456	O	1.168907	0.536542	1.129776
C457	C	0.697832	0.120792	0.645784
C458	C	1.197832	0.620792	1.145784
C459	C	0.661412	0.084358	0.617080
C460	C	1.161412	0.584358	1.117080
H461	H	0.691778	0.159459	0.635538
H462	H	1.191778	0.659459	1.135538
H463	H	0.736513	0.114805	0.635511
H464	H	1.236513	0.614805	1.135511
H465	H	0.692145	0.115080	0.687588
H466	H	1.192145	0.615080	1.187588
H467	H	0.667054	0.090048	0.575269
H468	H	1.167054	0.590048	1.075269
H469	H	0.622744	0.090354	0.627395
H470	H	1.122744	0.590354	1.127395
O471	O	-0.298643	-0.145192	0.000119
O472	O	0.201357	0.354808	0.500119
C473	C	-0.324505	-0.220369	0.043113
C474	C	0.175495	0.279631	0.543113
C475	C	-0.290094	-0.172151	0.043094
C476	C	0.209906	0.327849	0.543094
H477	H	-0.317612	-0.242175	0.077860
H478	H	0.182388	0.257825	0.577860
H479	H	-0.317592	-0.242243	0.008418
H480	H	0.182408	0.257757	0.508418
H481	H	-0.363816	-0.212369	0.043091
H482	H	0.136184	0.287631	0.543091
H483	H	-0.250770	-0.180107	0.043134
H484	H	0.249230	0.319893	0.543134
H485	H	-0.297049	-0.150292	0.077786
H486	H	0.202951	0.349708	0.577786
H487	H	0.174750	-0.187180	0.000029
H488	H	0.674750	0.312820	0.500029
O489	O	-0.199362	-0.146204	-0.000020
O490	O	0.300638	0.353796	0.499980
C491	C	-0.194321	-0.221694	-0.043026
C492	C	0.305679	0.278306	0.456974
C493	C	-0.215325	-0.172903	-0.043000
C494	C	0.284675	0.327097	0.457000
H495	H	-0.207211	-0.243290	-0.077777
H496	H	0.292789	0.256710	0.422223
H497	H	-0.207256	-0.243368	-0.008335
H498	H	0.292744	0.256632	0.491665
H499	H	-0.152914	-0.214528	-0.042999
H500	H	0.347086	0.285472	0.457001
H501	H	-0.256732	-0.180025	-0.043045
H502	H	0.243268	0.319975	0.456955
H503	H	-0.202352	-0.151245	-0.077688
H504	H	0.297648	0.348755	0.422312
H505	H	0.487892	0.688875	0.000020
H506	H	0.987892	1.188875	0.500020
O507	O	0.472110	-0.160265	0.526998
O508	O	0.972110	0.339735	1.026998
C509	C	0.406403	-0.225905	0.532533
C510	C	0.906403	0.274095	1.032533
C511	C	0.442837	-0.189467	0.561216
C512	C	0.942837	0.310533	1.061216
H513	H	0.382719	-0.249518	0.560186
H514	H	0.882719	0.250482	1.060186
H515	H	0.427063	-0.249947	0.508101
H516	H	0.927063	0.250053	1.008101
H517	H	0.382430	-0.205199	0.508072
H518	H	0.882430	0.294801	1.008072
H519	H	0.466819	-0.210134	0.585705
H520	H	0.966819	0.289866	1.085705
H521	H	0.422146	-0.165425	0.585617
H522	H	0.922146	0.334575	1.085617
H523	H	0.446777	0.391080	0.000011
H524	H	0.946777	0.891080	0.500011
H525	H	-0.067947	-0.184708	0.000046
H526	H	0.432053	0.315292	0.500046
O527	O	-0.175296	0.027619	0.000162
O528	O	0.324704	0.527619	0.500162
C529	C	-0.111301	0.078199	0.043125
C530	C	0.388699	0.578199	0.543125
C531	C	-0.145721	0.029986	0.043092
C532	C	0.354279	0.529986	0.543092
H533	H	-0.087374	0.080124	0.077825
H534	H	0.412626	0.580124	0.577825
H535	H	-0.133610	0.109990	0.043159
H536	H	0.366390	0.609990	0.543159
H537	H	-0.087416	0.080161	0.008390
H538	H	0.412584	0.580161	0.508390
H539	H	-0.169614	0.027976	0.077821
H540	H	0.330386	0.527976	0.577821
H541	H	-0.123384	-0.001782	0.043032
H542	H	0.376616	0.498218	0.543032
O543	O	0.479986	0.783310	-0.000066
O544	O	0.979986	1.283310	0.499934
C545	C	0.404473	0.788298	-0.043042
C546	C	0.904473	1.288298	0.456958
C547	C	0.453253	0.767273	-0.043001
C548	C	0.953253	1.267273	0.456999
H549	H	0.382841	0.775333	-0.077746
H550	H	0.882841	1.275333	0.422254
H551	H	0.411599	0.829708	-0.043073
H552	H	0.911599	1.329708	0.456927
H553	H	0.382851	0.775391	-0.008311
H554	H	0.882851	1.275391	0.491689
H555	H	0.474899	0.780143	-0.077726
H556	H	0.974899	1.280143	0.422274
H557	H	0.446093	0.725866	-0.042943
H558	H	0.946093	1.225866	0.457057
O559	O	0.340327	0.022378	-0.000034
O560	O	0.840327	0.522378	0.499966
C561	C	0.290442	0.074116	-0.042978
C562	C	0.790442	0.574116	0.457022
C563	C	0.311481	0.025343	-0.042960
C564	C	0.811481	0.525343	0.457040
H565	H	0.267108	0.076525	-0.077674
H566	H	0.767108	0.576525	0.422326
H567	H	0.321448	0.105369	-0.043008
H568	H	0.821448	0.605369	0.456992
H569	H	0.267167	0.076546	-0.008239
H570	H	0.767167	0.576546	0.491761
H571	H	0.334750	0.022865	-0.077693
H572	H	0.834750	0.522865	0.422307
H573	H	0.280452	-0.005887	-0.042903
H574	H	0.780452	0.494113	0.457097
H575	H	0.434827	0.014492	0.000047
H576	H	0.934827	0.514492	0.500047
H577	H	0.493213	0.165279	0.000061
H578	H	0.993213	0.665279	0.500061
H579	H	0.477317	-0.155019	0.469089
H580	H	0.977317	0.344981	0.969089
O581	O	0.472091	-0.160267	0.370335
O582	O	0.972091	0.339733	0.870335
C583	C	0.406376	-0.225901	0.375862
C584	C	0.906376	0.274099	0.875862
C585	C	0.442813	-0.189469	0.404550
C586	C	0.942813	0.310531	0.904550
H587	H	0.382689	-0.249513	0.403513
H588	H	0.882689	0.250487	0.903513
H589	H	0.427035	-0.249944	0.351428
H590	H	0.927035	0.250056	0.851428
H591	H	0.382407	-0.205189	0.351402
H592	H	0.882407	0.294811	0.851402
H593	H	0.466791	-0.210141	0.429038
H594	H	0.966791	0.289859	0.929038
H595	H	0.422124	-0.165426	0.428952
H596	H	0.922124	0.334574	0.928952
O597	O	0.438238	0.545254	-0.000012
O598	O	0.938238	1.045254	0.499988
C599	C	0.350850	0.527850	-0.000002
C600	C	0.850850	1.027850	0.499998
C601	C	0.399642	0.506848	0.000028
C602	C	0.899642	1.006848	0.500028
H603	H	0.319632	0.496810	0.000041
H604	H	0.819632	0.996810	0.500041
H605	H	0.348379	0.551126	-0.034732
H606	H	0.848379	1.051126	0.465268
H607	H	0.348420	0.551169	0.034705
H608	H	0.848420	1.051169	0.534705
H609	H	0.402105	0.483508	-0.034655
H610	H	0.902105	0.983508	0.465345
H611	H	0.402092	0.483600	0.034781
H612	H	0.902092	0.983600	0.534781
H613	H	-0.033688	0.063392	0.000085
H614	H	0.466312	0.563392	0.500085
H615	H	0.695819	0.333889	0.000065
H616	H	1.195819	0.833889	0.500065
H617	H	0.446177	0.450879	0.000018
H618	H	0.946177	0.950879	0.500018
O619	O	0.635847	0.003376	0.232895
O620	O	1.135847	0.503376	0.732895
C621	C	0.701519	0.069051	0.227358
C622	C	1.201519	0.569051	0.727358
C623	C	0.665065	0.032632	0.198676
C624	C	1.165065	0.532632	0.698676
H625	H	0.725145	0.092721	0.199704
H626	H	1.225145	0.592721	0.699704
H627	H	0.725547	0.048378	0.251792
H628	H	1.225547	0.548378	0.751792
H629	H	0.680826	0.093039	0.251819
H630	H	1.180826	0.593039	0.751819
H631	H	0.685719	0.008635	0.174188
H632	H	1.185719	0.508635	0.674188
H633	H	0.641038	0.053336	0.174274
H634	H	1.141038	0.553336	0.674274
H635	H	0.412743	-0.145454	0.000021
H636	H	0.912743	0.354546	0.500021
O637	O	0.668939	0.036508	0.370318
O638	O	1.168939	0.536508	0.870318
C639	C	0.734646	0.102149	0.375837
C640	C	1.234646	0.602149	0.875837
C641	C	0.698215	0.065713	0.404530
C642	C	1.198215	0.565713	0.904530
H643	H	0.758332	0.125765	0.403485
H644	H	1.258332	0.625765	0.903485
H645	H	0.713983	0.126189	0.351408
H646	H	1.213983	0.626189	0.851408
H647	H	0.758618	0.081441	0.351373
H648	H	1.258618	0.581441	0.851373
H649	H	0.674234	0.086382	0.429022
H650	H	1.174234	0.586382	0.929022
H651	H	0.718908	0.041674	0.428928
H652	H	1.218908	0.541674	0.928928
H653	H	0.647846	0.710950	0.000047
H654	H	1.147846	1.210950	0.500047
O655	O	0.668862	0.036511	0.473194
O656	O	1.168862	0.536511	0.973194
C657	C	0.679672	0.102589	0.532162
C658	C	1.179672	0.602589	1.032162
C659	C	0.643251	0.066159	0.503454
C660	C	1.143251	0.566159	1.003454
H661	H	0.658980	0.126562	0.556643
H662	H	1.158980	0.626562	1.056643
H663	H	0.703329	0.126273	0.504543
H664	H	1.203329	0.626273	1.004543
H665	H	0.703674	0.081876	0.556582
H666	H	1.203674	0.581876	1.056582
H667	H	0.619217	0.086833	0.479034
H668	H	1.119217	0.586833	0.979034
H669	H	0.619628	0.042476	0.531100
H670	H	1.119628	0.542476	1.031100
