data_functionalizedCrystal
_audit_creation_method	'MofGen! by Chris Wilmer'
_symmetry_space_group_name_H-M	'P1'
_symmetry_Int_Tables_number	1
_symmetry_cell_setting	triclinic
loop_
_symmetry_equiv_pos_as_xyz
  x,y,z
_cell_length_a	21.395364
_cell_length_b	15.299816
_cell_length_c	21.395355
_cell_angle_alpha	80.332906
_cell_angle_beta	90.024552
_cell_angle_gamma	80.365592
loop_
_atom_site_label
_atom_site_type_symbol
_atom_site_fract_x
_atom_site_fract_y
_atom_site_fract_z
Zn1	Zn	1.001018	-0.358802	0.397446
Zn2	Zn	1.019059	-0.509600	0.310818
Zn3	Zn	0.896237	-0.358842	0.292688
Zn4	Zn	0.914342	-0.509616	0.415561
O5	O	0.957664	-0.434215	0.354128
O6	O	1.091086	-0.378783	0.385962
O7	O	1.002740	-0.489612	0.220737
O8	O	0.895009	-0.232627	0.291415
O9	O	1.104341	-0.489573	0.322317
O10	O	0.971991	-0.232598	0.368381
O11	O	0.912503	-0.378850	0.207416
O12	O	0.810964	-0.378866	0.308980
O13	O	0.925867	-0.489601	0.500834
O14	O	0.824266	-0.489639	0.399254
O15	O	0.989547	-0.378798	0.487526
O16	O	1.020295	-0.635812	0.339881
O17	O	0.943361	-0.635823	0.416835
C18	C	0.794882	-0.434259	0.354116
C19	C	0.725245	-0.434300	0.354128
C20	C	0.685664	-0.376705	0.387341
C21	C	0.620226	-0.376681	0.387341
C22	C	0.594373	-0.434268	0.354136
C23	C	0.633963	-0.491866	0.320915
C24	C	0.699399	-0.491882	0.320911
C25	C	0.500419	-0.515489	0.358874
C26	C	0.434984	-0.515475	0.358882
C27	C	0.392547	-0.434218	0.354144
C28	C	0.415552	-0.352974	0.349410
C29	C	0.480988	-0.352989	0.349406
C30	C	0.523420	-0.434256	0.354136
C31	C	0.282009	-0.376593	0.387358
C32	C	0.216569	-0.376567	0.387353
C33	C	0.230309	-0.491760	0.320931
C34	C	0.295746	-0.491778	0.320932
C35	C	0.321593	-0.434195	0.354149
C36	C	0.985767	-0.668542	0.382305
C37	C	0.997847	-0.768788	0.394380
C38	C	0.871737	-1.051724	0.268039
C39	C	0.860384	-0.957538	0.256695
C40	C	0.894749	-0.910346	0.291115
C41	C	0.940469	-0.957349	0.336881
C42	C	0.951819	-1.051544	0.348229
C43	C	0.974831	-0.910166	0.371306
C44	C	1.020551	-0.957170	0.417072
C45	C	1.031900	-1.051356	0.428418
C46	C	0.997535	-1.098548	0.393998
C47	C	0.963481	-0.815971	0.359958
C48	C	1.043563	-0.815791	0.440148
C49	C	1.054916	-0.909977	0.451492
C50	C	1.121082	-0.434172	0.354141
C51	C	1.190721	-0.434153	0.354146
C52	C	0.957714	-0.434197	0.517549
C53	C	0.957735	-0.434189	0.587190
C54	C	0.929468	-0.198973	0.325855
C55	C	0.917453	-0.098727	0.313807
C56	C	0.957643	-0.434168	0.191335
C57	C	0.957712	-0.433922	0.121664
C58	C	0.990891	-0.376492	0.612974
C59	C	0.990886	-0.376453	0.678405
C60	C	0.957733	-0.434128	0.718051
C61	C	0.924569	-0.491829	0.692259
C62	C	0.924571	-0.491860	0.626829
C63	C	0.962525	-0.515337	0.831490
C64	C	0.962528	-0.515308	0.896920
C65	C	0.957725	-0.434032	0.919860
C66	C	0.952931	-0.352783	0.877362
C67	C	0.952933	-0.352814	0.811932
C68	C	0.957727	-0.434100	0.789000
C69	C	0.990877	-0.376288	1.016591
C70	C	0.990867	-0.376248	1.082023
C71	C	0.924554	-0.491632	1.095877
C72	C	0.924560	-0.491664	1.030446
C73	C	0.957725	-0.433993	0.990807
H74	H	0.587992	-0.329777	0.414386
C75	C	0.888086	-0.555076	1.139484
N76	N	0.860617	-0.602863	1.172333
C77	C	1.010021	-1.202159	0.406473
N78	N	1.019423	-1.280200	0.415869
C79	C	0.506291	-0.263622	0.344190
N80	N	0.525349	-0.196308	0.340258
C81	C	1.081368	-0.763884	0.478012
N82	N	1.109840	-0.724782	0.506529
H83	H	1.017896	-0.329531	0.580703
C84	C	0.810081	-0.905841	0.206367
N85	N	0.772186	-0.866903	0.168462
H86	H	0.843759	-1.090156	0.240022
C87	C	0.605524	-0.555212	0.284390
N88	N	0.584103	-0.602924	0.256876
H89	H	0.949028	-0.286658	0.777333
H90	H	0.381000	-0.286807	0.345551
H91	H	1.017865	-0.329259	1.103014
C92	C	0.882262	-0.806738	0.278632
N93	N	0.872857	-0.728697	0.269226
H94	H	1.069125	-1.089623	0.465686
C95	C	0.742941	-0.555247	0.284376
N96	N	0.775738	-0.602977	0.256858
C97	C	1.027366	-0.312985	0.706774
N98	N	1.054845	-0.265182	0.728140
C99	C	0.888089	-0.555140	1.002083
N100	N	0.860614	-0.602951	0.980720
C101	C	0.310441	-0.313244	0.423890
N102	N	0.331855	-0.265527	0.451405
C103	C	1.105204	-0.961693	0.501836
N104	N	1.143080	-1.000647	0.539757
H105	H	0.926255	-0.777709	0.322695
H106	H	0.897573	-0.538785	0.724543
C107	C	0.947646	-0.263372	0.902591
N108	N	0.943666	-0.196030	0.921596
C109	C	1.027352	-0.312842	0.972985
N110	N	1.054824	-0.265052	0.940142
H111	H	0.966435	-0.581466	0.931517
C112	C	0.967822	-0.604755	0.806265
N113	N	0.971815	-0.672102	0.787265
C114	C	0.888096	-0.555336	0.598466
N115	N	0.860624	-0.603149	0.577103
H116	H	0.706704	-0.329817	0.414389
H117	H	0.416259	-0.581629	0.362740
C118	C	0.201874	-0.555105	0.284404
N119	N	0.180455	-0.602818	0.256890
C120	C	0.339288	-0.555144	0.284400
N121	N	0.372084	-0.602874	0.256882
C122	C	0.173029	-0.313205	0.423891
N123	N	0.140234	-0.265480	0.451414
C124	C	0.547095	-0.604884	0.364090
N125	N	0.582250	-0.672214	0.368021
