data_functionalizedCrystal
_audit_creation_method	'MofGen! by Chris Wilmer'
_symmetry_space_group_name_H-M	'P1'
_symmetry_Int_Tables_number	1
_symmetry_cell_setting	triclinic
loop_
_symmetry_equiv_pos_as_xyz
  x,y,z
_cell_length_a	14.971487
_cell_length_b	9.130313
_cell_length_c	14.971486
_cell_angle_alpha	89.998538
_cell_angle_beta	83.614266
_cell_angle_gamma	90.005934
loop_
_atom_site_label
_atom_site_type_symbol
_atom_site_fract_x
_atom_site_fract_y
_atom_site_fract_z
O1	O	-1.186939	0.121590	-0.116562
O2	O	-0.926539	0.121639	-0.130520
O3	O	-1.063719	0.121603	0.006659
O4	O	-1.049760	0.121627	-0.253741
O5	O	-1.063717	-0.121996	0.006656
O6	O	-0.926537	-0.121959	-0.130523
O7	O	-1.186938	-0.122009	-0.116565
Cu8	Cu	-1.056737	-0.144226	-0.123545
Cu9	Cu	-1.056739	0.143857	-0.123540
O10	O	-1.049758	-0.121972	-0.253744
C11	C	-0.893214	-0.000154	-0.129897
C12	C	-0.793917	-0.000135	-0.128026
C13	C	-0.736691	-0.000128	-0.208615
C14	C	-0.643392	-0.000147	-0.206852
C15	C	-0.607320	-0.000162	-0.124499
C16	C	-0.664552	-0.000174	-0.043903
C17	C	-0.757850	-0.000166	-0.045668
C18	C	-0.470090	-0.000188	-0.040232
C19	C	-0.376786	-0.000193	-0.038467
C20	C	-0.355632	-0.000169	-0.201416
C21	C	-0.448929	-0.000161	-0.203181
C22	C	-0.506156	-0.000170	-0.122585
N23	N	-1.056742	-0.346849	-0.123547
C24	C	-1.117501	-0.423517	-0.062825
C25	C	-1.117499	-0.576854	-0.062814
C26	C	-0.995976	-0.576841	-0.184256
C27	C	-0.995975	-0.423507	-0.184262
C28	C	-1.178268	-0.346859	-0.002110
C29	C	-1.239032	-0.423527	0.058616
C30	C	-1.239030	-0.576864	0.058627
C31	C	-1.178264	-0.653533	-0.002089
C32	C	-0.220263	-0.000203	-0.117187
C33	C	-0.319560	-0.000186	-0.119056
C34	C	-1.063094	-0.000196	0.039982
C35	C	-1.061223	-0.000194	0.139279
N36	N	-1.056741	0.346480	-0.123531
C37	C	-1.050383	-0.000170	-0.287067
C38	C	-1.052254	-0.000162	-0.386364
C39	C	-1.141812	-0.000210	0.196504
C40	C	-1.140049	-0.000195	0.289804
C41	C	-1.057696	-0.000174	0.325876
C42	C	-0.977100	-0.000154	0.268644
C43	C	-0.978864	-0.000158	0.175346
C44	C	-0.973429	-0.000148	0.463106
C45	C	-0.971665	-0.000146	0.556411
C46	C	-1.134614	-0.000185	0.577564
C47	C	-1.136378	-0.000189	0.484266
C48	C	-1.055782	-0.000171	0.427040
H49	H	-0.635175	-0.000207	0.023150
H50	H	-0.804443	-0.000170	0.019956
O51	O	-0.587716	0.000069	-0.285079
C52	C	-0.533121	0.126246	-0.288937
H53	H	-0.528319	0.168282	-0.217932
H54	H	-0.463041	0.097878	-0.322188
H55	H	-0.563853	0.214607	-0.329810
H56	H	-0.766053	-0.000115	-0.275677
H57	H	-0.907799	-0.000129	0.416515
O58	O	-0.891726	0.000081	0.591563
C59	C	-0.885840	0.126263	0.644880
H60	H	-0.956319	0.168296	0.668032
H61	H	-0.850126	0.097902	0.706017
H62	H	-0.846315	0.214622	0.603708
H63	H	-1.200238	-0.000195	0.624162
O64	O	-1.178364	-0.197910	-0.001972
C65	C	-1.245041	-0.146685	0.064618
H66	H	-1.260592	-0.235042	0.117882
H67	H	-1.219817	-0.044091	0.097244
H68	H	-1.308630	-0.119499	0.032576
H69	H	-0.946499	-0.361084	-0.233707
H70	H	-1.288500	-0.639286	0.108079
H71	H	-0.478296	-0.000134	-0.270240
H72	H	-0.946503	-0.639275	-0.233689
H73	H	-1.288502	-0.361096	0.108054
O74	O	-1.178401	-0.802485	-0.001980
C75	C	-1.245037	-0.853720	0.064657
H76	H	-1.298307	-0.765372	0.080161
H77	H	-1.277643	-0.956320	0.039415
H78	H	-1.213047	-0.880900	0.128277
H79	H	-0.910047	-0.000128	0.298021
H80	H	-1.208873	-0.000236	0.167142
O81	O	-1.218416	-0.000286	0.345264
C82	C	-1.291481	-0.000282	0.293420
H83	H	-1.268848	-0.046396	0.223814
H84	H	-1.347948	-0.071024	0.327777
H85	H	-1.316728	0.116575	0.286746
H86	H	-1.203437	-0.000217	0.454900
H87	H	-0.347419	-0.000208	0.028592
H88	H	-0.913240	-0.000145	0.128754
H89	H	-0.309033	-0.000169	-0.267040
H90	H	-0.516682	-0.000197	0.025398
