data_functionalizedCrystal
_audit_creation_method	'MofGen! by Chris Wilmer'
_symmetry_space_group_name_H-M	'P1'
_symmetry_Int_Tables_number	1
_symmetry_cell_setting	triclinic
loop_
_symmetry_equiv_pos_as_xyz
  x,y,z
_cell_length_a	16.974800
_cell_length_b	10.723023
_cell_length_c	16.053802
_cell_angle_alpha	92.591082
_cell_angle_beta	91.074188
_cell_angle_gamma	83.927595
loop_
_atom_site_label
_atom_site_type_symbol
_atom_site_fract_x
_atom_site_fract_y
_atom_site_fract_z
O1	O	1.049937	0.159066	0.001541
O2	O	0.820579	0.178168	-0.013963
O3	O	0.940548	-0.013013	-0.005850
O4	O	0.929967	0.350247	-0.006572
O5	O	0.933945	-0.002533	0.132562
O6	O	0.813975	0.188648	0.124449
O7	O	1.043333	0.169546	0.139954
Zn8	Zn	0.927606	0.180761	0.154177
Zn9	Zn	0.936306	0.166953	-0.028187
O10	O	0.923363	0.360727	0.131840
C11	C	0.787909	0.182490	0.053258
C12	C	0.700401	0.179738	0.047342
C13	C	0.655695	0.184155	0.120013
C14	C	0.573474	0.181550	0.114458
C15	C	0.535960	0.174537	0.036230
C16	C	0.580672	0.170116	-0.036447
C17	C	0.662893	0.172712	-0.030890
C18	C	0.290444	0.166151	0.011521
C19	C	0.208217	0.163559	0.005969
C20	C	0.201025	0.174990	0.156875
C21	C	0.283246	0.177594	0.162425
C22	C	0.327952	0.173166	0.089748
N23	N	0.451916	0.171877	0.030549
N24	N	0.411995	0.175816	0.095430
C25	C	0.936477	-0.054265	0.063303
C26	C	0.934173	-0.192796	0.063145
C27	C	0.936567	-0.259980	-0.008627
C28	C	0.934187	-0.403159	-0.008793
C29	C	1.076003	0.165224	0.072731
C30	C	1.163511	0.167975	0.078641
C31	C	0.927435	0.401979	0.062685
C32	C	0.929739	0.540509	0.062838
N33	N	0.921673	0.190183	0.278636
N34	N	0.942245	0.157521	-0.152646
C35	C	0.972740	0.108864	0.325784
C36	C	0.968597	0.115467	0.412910
C37	C	0.913392	0.203396	0.452888
C38	C	0.862320	0.284718	0.405734
C39	C	0.866459	0.278109	0.318609
C40	C	0.895312	0.232233	0.713075
C41	C	0.891178	0.238840	0.800207
C42	C	0.997455	0.069586	0.807377
C43	C	1.001592	0.062989	0.720250
C44	C	0.950518	0.144307	0.673103
N45	N	0.909158	0.210150	0.541946
N46	N	0.954748	0.137546	0.584047
H47	H	0.537079	0.185125	0.173635
H48	H	1.039036	0.003380	0.845771
H49	H	0.846221	0.310447	0.832752
O50	O	0.941081	-0.202346	-0.081869
C51	C	0.942866	-0.292618	-0.148633
H52	H	0.915364	-0.378696	-0.128385
H53	H	1.006865	-0.321050	-0.167592
C54	C	0.929296	-0.130817	-0.248173
C55	C	0.895511	-0.236536	-0.223306
H56	H	0.900089	-0.096223	-0.294237
H57	H	0.928096	-0.069999	-0.203193
H58	H	0.982627	-0.154526	-0.263967
H59	H	0.842185	-0.212823	-0.207504
H60	H	0.896701	-0.297349	-0.268286
H61	H	0.936236	-0.460916	-0.070240
O62	O	0.845635	0.311060	0.667238
C63	C	0.799057	0.240218	0.613530
H64	H	0.795939	0.143795	0.639668
H65	H	0.826828	0.228769	0.549160
C66	C	0.718707	0.426979	0.574403
C67	C	0.714871	0.308554	0.606510
H68	H	0.666778	0.469133	0.570069
H69	H	0.750089	0.474709	0.610585
H70	H	0.741852	0.417422	0.520765
H71	H	0.691736	0.318114	0.660151
H72	H	0.683483	0.260828	0.570337
O73	O	0.171904	0.156696	-0.070092
C74	C	0.228989	0.153382	-0.133048
H75	H	0.289595	0.117421	-0.106768
H76	H	0.231114	0.251922	-0.156177
C77	C	0.132170	0.109396	-0.238352
C78	C	0.206606	0.065218	-0.206076
H79	H	0.118362	0.055017	-0.283402
H80	H	0.093709	0.111633	-0.195938
H81	H	0.133950	0.191512	-0.257619
H82	H	0.204821	-0.016889	-0.186800
H83	H	0.245066	0.062965	-0.248489
O84	O	0.319709	0.184614	0.238394
C85	C	0.358725	0.294413	0.245548
H86	H	0.330151	0.365862	0.200668
H87	H	0.423890	0.270432	0.229608
C88	C	0.387010	0.262472	0.390646
C89	C	0.351911	0.350232	0.335527
H90	H	0.382810	0.296903	0.446149
H91	H	0.360726	0.188496	0.385825
H92	H	0.441311	0.242496	0.377352
H93	H	0.297608	0.370195	0.348815
H94	H	0.378185	0.424213	0.340352
H95	H	0.930356	-0.241276	0.124469
O96	O	0.157581	0.179054	0.227446
C97	C	0.118139	0.069934	0.229302
H98	H	0.150793	-0.007991	0.188553
H99	H	0.054905	0.090843	0.204695
C100	C	0.076261	0.123462	0.369664
C101	C	0.116370	0.027751	0.319621
H102	H	0.075165	0.097443	0.425377
H103	H	0.102830	0.196981	0.368413
H104	H	0.023569	0.140877	0.349149
H105	H	0.169063	0.010348	0.340130
H106	H	0.089809	-0.045773	0.320877
H107	H	0.686232	0.189876	0.183715
O108	O	0.927183	-0.390714	0.136196
C109	C	0.856313	-0.405028	0.177466
H110	H	0.833046	-0.496558	0.154450
H111	H	0.810318	-0.322852	0.163796
C112	C	0.901035	-0.295611	0.300374
C113	C	0.872461	-0.408035	0.272110
H114	H	0.910994	-0.297460	0.358756
H115	H	0.948780	-0.285962	0.272569
H116	H	0.862701	-0.227143	0.288975
H117	H	0.910798	-0.476499	0.283500
H118	H	0.824722	-0.417695	0.299920
H119	H	0.699291	0.169118	-0.090067
H120	H	1.017697	0.037269	0.293240
H121	H	0.326834	0.162541	-0.047658
O122	O	1.018183	0.036305	0.458611
C123	C	1.005720	-0.088897	0.436439
H124	H	0.978340	-0.093674	0.371138
H125	H	0.963964	-0.123950	0.482826
C126	C	1.119125	-0.165989	0.517976
C127	C	1.085503	-0.171857	0.437768
H128	H	1.168337	-0.217165	0.518799
H129	H	1.127521	-0.081639	0.532916
H130	H	1.084321	-0.195197	0.556623
H131	H	1.120303	-0.142635	0.399125
H132	H	1.077115	-0.256205	0.422821
O133	O	0.808728	0.370294	0.444474
C134	C	0.823222	0.492263	0.424094
H135	H	0.856608	0.487438	0.362883
H136	H	0.860327	0.534745	0.475782
C137	C	0.702830	0.580553	0.489875
C138	C	0.743829	0.574628	0.414691
H139	H	0.653857	0.631362	0.484079
H140	H	0.693066	0.498381	0.503609
H141	H	0.733759	0.615951	0.532941
H142	H	0.712905	0.539216	0.371629
H143	H	0.753586	0.656796	0.400950
H144	H	0.550122	0.164397	-0.100142
H145	H	1.046545	-0.008609	0.687702
H146	H	0.824875	0.344325	0.280222
