data_functionalizedCrystal
_audit_creation_method	'MofGen! by Chris Wilmer'
_symmetry_space_group_name_H-M	'P1'
_symmetry_Int_Tables_number	1
_symmetry_cell_setting	triclinic
loop_
_symmetry_equiv_pos_as_xyz
  x,y,z
_cell_length_a	27.440280
_cell_length_b	27.440280
_cell_length_c	27.440280
_cell_angle_alpha	90.007570
_cell_angle_beta	59.992548
_cell_angle_gamma	59.999099
loop_
_atom_site_label
_atom_site_type_symbol
_atom_site_fract_x
_atom_site_fract_y
_atom_site_fract_z
Zr1	Zr	0.533429	0.469475	-0.063982
O2	O	0.635123	0.391644	-0.141825
O3	O	0.431746	0.493337	-0.040108
O4	O	0.533432	0.493323	-0.141796
O5	O	0.533431	0.391666	0.040064
O6	O	0.533423	0.573526	-0.141786
O7	O	0.533437	0.391658	-0.040137
O8	O	0.351525	0.573551	0.040116
O9	O	0.715329	0.391641	-0.141838
O10	O	0.473559	0.563365	-0.029932
O11	O	0.473562	0.503516	0.029914
O12	O	0.593284	0.503500	-0.089811
O13	O	0.593287	0.443651	-0.029966
Zr14	Zr	0.533405	0.597402	0.063945
Zr15	Zr	0.533414	0.597389	-0.063966
Zr16	Zr	0.533420	0.469488	0.063929
Zr17	Zr	0.661349	0.469470	-0.064002
Zr18	Zr	0.405486	0.597407	0.063966
O19	O	0.635089	0.573540	0.040071
O20	O	0.635101	0.573522	-0.141802
O21	O	0.635110	0.391662	0.040048
O22	O	0.431712	0.675233	0.141788
O23	O	0.431725	0.675214	-0.040085
O24	O	0.431733	0.493355	0.141766
O25	O	0.533404	0.675210	-0.040101
O26	O	0.533403	0.573554	0.141759
O27	O	0.533412	0.493351	0.141749
O28	O	0.533398	0.675219	0.040100
O29	O	0.715317	0.493316	-0.141825
O30	O	0.351518	0.573561	0.141788
O31	O	0.351506	0.675236	0.141801
O32	O	0.351513	0.675225	0.040129
O33	O	0.715322	0.391651	-0.040166
O34	O	0.715310	0.493326	-0.040153
O35	O	0.473551	0.563377	0.089775
O36	O	0.473548	0.623225	0.029929
O37	O	0.593273	0.563360	-0.029951
O38	O	0.593276	0.503512	0.029895
C39	C	0.373410	0.533444	0.000007
C40	C	0.319105	0.533446	0.000016
C41	C	0.026615	0.489247	-0.044232
C42	C	-0.024402	0.489247	-0.044238
O43	O	-0.013203	0.451677	-0.081839
N44	N	-0.094115	0.533436	-0.000042
C45	C	-0.112810	0.577633	0.044160
O46	O	-0.176791	0.615220	0.081751
C47	C	-0.061794	0.577635	0.044163
C48	C	0.007919	0.533439	-0.000032
C49	C	0.096324	0.445055	-0.088424
C50	C	0.147337	0.445055	-0.088417
C51	C	0.128641	0.489247	-0.044217
C52	C	0.058932	0.533439	-0.000025
C53	C	-0.080490	0.621834	0.088362
C54	C	-0.029466	0.621832	0.088361
C55	C	0.040247	0.577636	0.044166
C56	C	0.091250	0.577631	0.044181
N57	N	0.160962	0.533441	-0.000015
C58	C	0.179658	0.489249	-0.044214
C59	C	-0.219945	0.577625	0.044149
C60	C	-0.270961	0.577621	0.044149
C61	C	-0.182550	0.489235	-0.044250
C62	C	-0.131533	0.489237	-0.044246
C63	C	-0.150233	0.533435	-0.000047
C64	C	0.286786	0.489252	-0.044196
C65	C	0.337800	0.489254	-0.044183
C66	C	0.249385	0.577642	0.044213
C67	C	0.198375	0.577638	0.044203
C68	C	0.217081	0.533440	-0.000007
O69	O	0.080102	0.615183	0.081761
O70	O	0.243638	0.451673	-0.081804
C71	C	0.533436	0.373437	-0.000038
C72	C	0.533443	0.319134	-0.000045
C73	C	0.470911	0.013685	0.031255
C74	C	0.470907	-0.037333	0.031260
O75	O	0.417757	-0.037145	0.057861
N76	N	0.533402	-0.094099	0.000003
C77	C	0.595904	-0.099845	-0.031257
O78	O	0.649060	-0.152813	-0.057842
C79	C	0.595907	-0.048827	-0.031258
C80	C	0.533408	0.007938	-0.000004
C81	C	0.408417	0.070448	0.062507
C82	C	0.408421	0.121463	0.062501
C83	C	0.470919	0.115715	0.031242
C84	C	0.533412	0.058953	-0.000010
C85	C	0.658409	-0.054574	-0.062514
C86	C	0.658406	-0.003550	-0.062512
C87	C	0.595908	0.053215	-0.031258
C88	C	0.595914	0.104220	-0.031275
N89	N	0.533420	0.160985	-0.000018
C90	C	0.470922	0.166733	0.031241
C91	C	0.595893	-0.206984	-0.031250
C92	C	0.595890	-0.258001	-0.031253
C93	C	0.470893	-0.195485	0.031265
C94	C	0.470896	-0.144467	0.031263
C95	C	0.533398	-0.150218	0.000007
C96	C	0.470935	0.273865	0.031225
C97	C	0.470945	0.324882	0.031213
C98	C	0.595942	0.262362	-0.031302
C99	C	0.595932	0.211350	-0.031293
C100	C	0.533424	0.217105	-0.000026
O101	O	0.649037	0.104078	-0.057860
O102	O	0.417775	0.219703	0.057828
C103	C	0.693425	0.533432	-0.000044
C104	C	0.747730	0.533430	-0.000053
C105	C	0.533429	0.533422	-0.160016
C106	C	0.533432	0.533417	-0.214317
C107	C	0.533399	0.693440	0.000002
C108	C	0.533392	0.747742	0.000009
C109	C	0.533413	0.489251	-0.449010
C110	C	0.533415	0.489248	-0.397991
O111	O	0.533396	0.451683	-0.371595
N112	N	0.533414	0.533430	-0.372472
C113	C	0.533406	0.577622	-0.397972
O114	O	0.533405	0.615202	-0.371581
C115	C	0.533399	0.577626	-0.448988
C116	C	0.533406	0.533438	-0.474508
C117	C	0.533419	0.445066	-0.474529
C118	C	0.533419	0.445069	-0.525546
C119	C	0.533413	0.489256	-0.551044
C120	C	0.533406	0.533440	-0.525525
C121	C	0.533386	0.621820	-0.474485
C122	C	0.533379	0.621821	-0.525504
C123	C	0.533386	0.577632	-0.551024
C124	C	0.533400	0.577629	-0.602039
N125	N	0.533400	0.533447	-0.627558
C126	C	0.533406	0.489260	-0.602060
C127	C	0.533418	0.577609	-0.290834
C128	C	0.533430	0.577602	-0.239821
C129	C	0.533437	0.489229	-0.239843
C130	C	0.533430	0.489234	-0.290859
C131	C	0.533418	0.533427	-0.316353
C132	C	0.533406	0.489268	-0.709199
C133	C	0.533409	0.489273	-0.760222
C134	C	0.533398	0.577648	-0.760194
C135	C	0.533399	0.577641	-0.709178
C136	C	0.533401	0.533449	-0.683680
O137	O	0.533415	0.615177	-0.628466
O138	O	0.533398	0.451691	-0.628452
C139	C	0.533406	0.533454	0.159979
C140	C	0.533402	0.533460	0.214281
C141	C	0.373391	0.693446	0.000027
C142	C	0.319080	0.747751	0.000043
C143	C	0.373399	0.533460	0.160005
C144	C	0.319090	0.533468	0.214315
C145	C	0.373380	0.693462	0.160025
C146	C	0.319065	0.747772	0.214342
C147	C	0.693455	0.373415	-0.160061
C148	C	0.747770	0.319105	-0.214378
C149	C	0.693444	0.373431	-0.000064
C150	C	0.747755	0.319126	-0.000079
C151	C	0.693436	0.533416	-0.160041
C152	C	0.747745	0.533409	-0.214352
C153	C	0.293580	0.742006	-0.031202
C154	C	0.242556	0.793027	-0.031199
C155	C	0.217028	0.849791	0.000052
C156	C	0.242533	0.855534	0.031297
C157	C	0.293560	0.804514	0.031291
C158	C	0.293580	0.564718	0.271072
C159	C	0.242558	0.564723	0.322107
C160	C	0.217043	0.533481	0.316384
C161	C	0.242558	0.502227	0.259621
C162	C	0.293583	0.502219	0.208587
C163	C	0.293556	0.804522	0.208611
C164	C	0.242528	0.855558	0.259643
C165	C	0.217006	0.849841	0.316405
C166	C	0.242520	0.793085	0.322134
C167	C	0.293550	0.742051	0.271103
C168	C	0.773285	0.262354	-0.208648
C169	C	0.824329	0.211319	-0.259679
C170	C	0.849853	0.217035	-0.316441
C171	C	0.824336	0.273792	-0.322171
C172	C	0.773297	0.324826	-0.271140
C173	C	0.773260	0.324871	0.031160
C174	C	0.824298	0.273850	0.031143
C175	C	0.849828	0.217086	-0.000110
C176	C	0.824321	0.211343	-0.031353
C177	C	0.773287	0.262363	-0.031339
C178	C	0.773243	0.564657	-0.208610
C179	C	0.824266	0.564662	-0.259635
C180	C	0.849792	0.533414	-0.316402
C181	C	0.824289	0.502165	-0.322143
C182	C	0.773264	0.502164	-0.271118
H183	H	0.204097	0.409070	-0.124410
C184	C	0.533391	0.664994	-0.714284
C185	C	0.533395	0.626211	-0.681126
H186	H	0.533380	0.694984	-0.696962
H187	H	0.573372	0.643166	-0.754177
H188	H	0.493411	0.683143	-0.714190
H189	H	0.573378	0.608059	-0.681223
H190	H	0.493410	0.648042	-0.641222
C191	C	0.143908	0.956959	0.355471
C192	C	0.160907	0.905943	0.372496
H193	H	0.109271	0.991594	0.390099
H194	H	0.183722	0.956945	0.332388
H195	H	0.127193	0.956940	0.332388
H196	H	0.177627	0.905960	0.395575
H197	H	0.121086	0.905957	0.395589
H198	H	0.533441	0.453251	-0.219073
C199	C	0.309299	0.648372	-0.025804
C200	C	0.321635	0.679614	-0.065559
H201	H	0.326615	0.609857	-0.047018
H202	H	0.331793	0.644483	-0.007203
H203	H	0.261118	0.669585	0.003766
H204	H	0.369816	0.658404	-0.095126
H205	H	0.299143	0.683501	-0.084169
H206	H	0.175478	0.891330	0.000053
C207	C	0.226862	0.559331	0.415735
C208	C	0.214517	0.599083	0.384495
H209	H	0.209556	0.580545	0.454248
H210	H	0.204364	0.540730	0.419637
H211	H	0.275043	0.529765	0.394511
H212	H	0.166336	0.628647	0.405717
H213	H	0.237014	0.617694	0.380596
H214	H	0.752506	0.257688	-0.162434
H215	H	0.646783	-0.304218	-0.056711
C216	C	0.288348	0.871411	0.151981
C217	C	0.321545	0.810817	0.146222
H218	H	0.305613	0.875299	0.113465
H219	H	0.240174	0.890012	0.173239
H220	H	0.296755	0.890012	0.173137
H221	H	0.313134	0.792216	0.125069
H222	H	0.369731	0.792208	0.124955
C223	C	0.188849	0.357687	-0.175791
C224	C	0.116886	0.396470	-0.137010
H225	H	0.201546	0.327687	-0.205784
H226	H	0.206906	0.379513	-0.193935
H227	H	0.206897	0.339552	-0.153955
H228	H	0.098837	0.414608	-0.158846
H229	H	0.098821	0.374641	-0.118865
H230	H	0.221741	0.901758	0.056741
C231	C	-0.121986	0.709200	0.175738
C232	C	-0.050024	0.670415	0.136951
H233	H	-0.134677	0.739189	0.205738
H234	H	-0.140038	0.727345	0.153912
H235	H	-0.140046	0.687370	0.193878
H236	H	-0.031964	0.692244	0.118808
H237	H	-0.031965	0.652268	0.158780
C238	C	0.695099	0.474367	-0.220666
C239	C	0.745266	0.467786	-0.277435
H240	H	0.677821	0.453138	-0.224571
H241	H	0.715005	0.458957	-0.199474
H242	H	0.658441	0.515471	-0.199458
H243	H	0.781926	0.426682	-0.298641
H244	H	0.725360	0.483194	-0.298636
H245	H	0.394565	0.453261	-0.080172
H246	H	0.420049	0.371103	0.056666
C247	C	0.923316	0.559242	-0.280766
C248	C	0.852299	0.599006	-0.253318
H249	H	0.940621	0.580447	-0.276868
H250	H	0.931678	0.529678	-0.262173
H251	H	0.945810	0.540643	-0.321877
H252	H	0.829804	0.617603	-0.212206
H253	H	0.843931	0.628582	-0.271909
H254	H	0.891383	0.175547	-0.000116
H255	H	0.752478	0.371086	0.056614
H256	H	0.221732	0.788439	0.368357
H257	H	0.302027	0.453263	-0.080196
C258	C	0.713926	-0.160540	-0.090273
C259	C	0.727110	-0.116963	-0.096867
H260	H	0.756343	-0.199057	-0.111485
H261	H	0.688246	-0.156054	-0.049168
H262	H	0.688255	-0.156068	-0.105702
H263	H	0.752776	-0.121433	-0.081434
H264	H	0.752800	-0.121451	-0.137981
C265	C	0.284871	0.178114	0.124301
C266	C	0.339720	0.183856	0.096864
H267	H	0.242456	0.216633	0.145520
H268	H	0.287473	0.156912	0.094736
H269	H	0.287481	0.156912	0.151262
H270	H	0.337113	0.205054	0.069899
H271	H	0.337117	0.205067	0.126432
C272	C	0.392594	0.648409	0.249974
C273	C	0.321580	0.679672	0.277410
H274	H	0.409894	0.609901	0.253875
H275	H	0.415096	0.644502	0.208869
H276	H	0.400951	0.669618	0.268579
H277	H	0.313224	0.658465	0.258802
H278	H	0.299071	0.683575	0.318523
C279	C	0.674238	0.418466	-0.249998
C280	C	0.745252	0.387210	-0.277436
H281	H	0.656929	0.456981	-0.253883
H282	H	0.665886	0.397264	-0.268608
H283	H	0.651739	0.422359	-0.208890
H284	H	0.767752	0.383313	-0.318544
H285	H	0.753610	0.408417	-0.258827
C286	C	0.922947	0.109917	-0.355508
C287	C	0.905951	0.160934	-0.372533
H288	H	0.957575	0.075282	-0.390135
H289	H	0.939668	0.109930	-0.332433
H290	H	0.883125	0.109938	-0.332417
H291	H	0.945772	0.160916	-0.395620
H292	H	0.889233	0.160921	-0.395617
H293	H	0.533396	0.613623	-0.780964
H294	H	0.845096	0.165111	-0.255003
H295	H	0.845057	0.278538	0.056587
H296	H	0.845125	0.278439	-0.368393
C297	C	0.185618	0.474819	0.372479
C298	C	0.160954	0.533496	0.372486
H299	H	0.150990	0.474833	0.407118
H300	H	0.197151	0.451740	0.337865
H301	H	0.225436	0.458093	0.372461
H302	H	0.121139	0.550220	0.372500
H303	H	0.149412	0.556583	0.407110
C304	C	0.592376	0.340270	-0.488342
C305	C	0.533433	0.396487	-0.446512
H306	H	0.592390	0.310276	-0.471047
H307	H	0.592365	0.333963	-0.522371
H308	H	0.632348	0.338444	-0.499968
H309	H	0.493461	0.398315	-0.434889
H310	H	0.533438	0.402796	-0.412472
C311	C	0.185182	0.755462	-0.042774
C312	C	0.214521	0.786704	-0.065539
H313	H	0.167872	0.751561	-0.063972
H314	H	0.219224	0.716960	-0.047249
H315	H	0.148544	0.776682	-0.001664
H316	H	0.251162	0.765481	-0.106649
H317	H	0.180476	0.825213	-0.061070
C318	C	-0.049281	0.401875	-0.131624
C319	C	-0.054907	0.440660	-0.092831
H320	H	-0.001975	0.371887	-0.161621
H321	H	-0.071018	0.383728	-0.109801
H322	H	-0.071025	0.423705	-0.149765
H323	H	-0.033166	0.418831	-0.074687
H324	H	-0.033161	0.458808	-0.114657
C325	C	0.371752	0.754070	0.059053
C326	C	0.321575	0.810834	0.065649
H327	H	0.389046	0.757976	0.080264
H328	H	0.351848	0.732876	0.074478
H329	H	0.408397	0.732865	0.017942
H330	H	0.284927	0.832037	0.106760
H331	H	0.341478	0.832037	0.050227
C332	C	0.189745	0.623519	0.149020
C333	C	0.228845	0.626216	0.092794
H334	H	0.177071	0.653506	0.179009
H335	H	0.149385	0.629851	0.155344
H336	H	0.216270	0.585373	0.150839
H337	H	0.202319	0.664360	0.090973
H338	H	0.269211	0.619888	0.086468
C339	C	0.350977	0.576289	0.308602
C340	C	0.321631	0.599052	0.277368
H341	H	0.368299	0.597482	0.312488
H342	H	0.316935	0.580769	0.347113
H343	H	0.387607	0.535180	0.287382
H344	H	0.284997	0.640161	0.298591
H345	H	0.355675	0.594578	0.238851
H346	H	0.533436	0.453252	-0.311634
H347	H	0.845115	0.165119	-0.056798
H348	H	0.221777	0.476790	0.254971
C349	C	0.778433	0.195442	-0.093100
C350	C	0.745247	0.256042	-0.065672
H351	H	0.761120	0.191539	-0.114293
H352	H	0.826602	0.176844	-0.120077
H353	H	0.770073	0.176849	-0.063527
H354	H	0.753611	0.274634	-0.095246
H355	H	0.697067	0.274648	-0.038693
H356	H	0.314346	0.476773	0.162376
C357	C	-0.221509	0.449927	-0.083434
C358	C	-0.162004	0.440611	-0.092789
H359	H	-0.208826	0.419897	-0.113386
H360	H	-0.248045	0.448156	-0.045264
H361	H	-0.248005	0.488044	-0.085318
H362	H	-0.135511	0.402495	-0.090901
H363	H	-0.135457	0.442376	-0.130969
H364	H	0.752468	0.590102	-0.162392
C365	C	0.881206	0.592100	-0.372459
C366	C	0.905883	0.533416	-0.372486
H367	H	0.915837	0.592100	-0.407079
H368	H	0.841405	0.608819	-0.372458
H369	H	0.869650	0.615176	-0.337823
H370	H	0.917434	0.510340	-0.407119
H371	H	0.945696	0.516689	-0.372492
H372	H	-0.327722	0.613604	0.080143
C373	C	0.840029	0.507575	-0.415782
C374	C	0.852359	0.467815	-0.384545
H375	H	0.857367	0.486365	-0.454309
H376	H	0.791855	0.537130	-0.394577
H377	H	0.862514	0.526187	-0.419652
H378	H	0.829870	0.449206	-0.380671
H379	H	0.900542	0.438249	-0.405755
C380	C	-0.213875	0.599443	0.124905
C381	C	-0.240505	0.626205	0.092744
H382	H	-0.226567	0.629435	0.154902
H383	H	-0.231940	0.577621	0.143044
H384	H	-0.165055	0.573131	0.098581
H385	H	-0.289325	0.652514	0.119068
H386	H	-0.222443	0.648037	0.074605
C387	C	-0.189137	0.702575	0.110173
C388	C	-0.157112	0.670417	0.136939
H389	H	-0.236443	0.732568	0.140165
H390	H	-0.167389	0.720715	0.088353
H391	H	-0.185308	0.676251	0.083855
H392	H	-0.160937	0.696741	0.163254
H393	H	-0.178867	0.652277	0.158770
C394	C	0.089702	0.599451	0.124939
C395	C	0.121743	0.626213	0.092785
H396	H	0.042396	0.629443	0.154932
H397	H	0.093535	0.573139	0.098613
H398	H	0.111441	0.577630	0.143088
H399	H	0.100008	0.648031	0.074633
H400	H	0.117906	0.652535	0.119116
H401	H	0.709304	-0.008239	-0.087958
C402	C	0.719487	0.154683	-0.093104
C403	C	0.664631	0.148951	-0.065661
H404	H	0.761898	0.116162	-0.114318
H405	H	0.716882	0.175878	-0.120065
H406	H	0.716888	0.175888	-0.063538
H407	H	0.667226	0.127749	-0.095227
H408	H	0.667237	0.127746	-0.038697
H409	H	0.420035	0.278561	0.056686
H410	H	0.221760	0.901767	0.254967
H411	H	0.420004	-0.098250	0.056719
C412	C	0.335873	0.049368	0.140456
C413	C	0.339711	0.076777	0.096870
H414	H	0.293451	0.053284	0.161671
H415	H	0.373079	0.008261	0.121845
H416	H	0.338476	0.067977	0.167417
H417	H	0.337114	0.058165	0.069907
H418	H	0.302495	0.117891	0.115482
C419	C	0.719447	-0.273911	-0.093055
C420	C	0.664601	-0.213311	-0.065621
H421	H	0.761864	-0.277817	-0.114276
H422	H	0.716844	-0.292502	-0.063488
H423	H	0.716836	-0.292510	-0.120015
H424	H	0.667210	-0.194712	-0.038658
H425	H	0.667206	-0.194712	-0.095191
C426	C	0.592348	0.599417	-0.377676
C427	C	0.533415	0.626184	-0.318861
H428	H	0.592342	0.629407	-0.394976
H429	H	0.632323	0.577589	-0.377769
H430	H	0.592339	0.573110	-0.400172
H431	H	0.533427	0.652489	-0.296363
H432	H	0.493430	0.648022	-0.318764
C433	C	0.533411	0.401920	-0.755108
C434	C	0.533411	0.440701	-0.788269
H435	H	0.533406	0.371938	-0.772420
H436	H	0.573390	0.383767	-0.755207
H437	H	0.493428	0.423757	-0.715208
H438	H	0.573396	0.418865	-0.828168
H439	H	0.493428	0.458856	-0.788176
C440	C	0.651434	0.312822	-0.059054
C441	C	0.664637	0.256052	-0.065657
H442	H	0.693845	0.308926	-0.080259
H443	H	0.625766	0.334011	-0.074482
H444	H	0.625747	0.334026	-0.017942
H445	H	0.690320	0.234849	-0.106770
H446	H	0.690316	0.234854	-0.050232
C447	C	0.533421	0.664954	-0.244937
C448	C	0.533428	0.626173	-0.211777
H449	H	0.533412	0.694944	-0.227620
H450	H	0.573399	0.643125	-0.284831
H451	H	0.493438	0.683103	-0.244839
H452	H	0.573414	0.608020	-0.211878
H453	H	0.493445	0.648005	-0.171872
H454	H	0.420004	-0.190813	0.056715
H455	H	0.533407	0.453283	-0.688444
H456	H	0.533422	0.409088	-0.546320
H457	H	0.533380	0.657802	-0.453714
H458	H	0.533367	0.657810	-0.546258
