data_functionalizedCrystal
_audit_creation_method	'MofGen! by Chris Wilmer'
_symmetry_space_group_name_H-M	'P1'
_symmetry_Int_Tables_number	1
_symmetry_cell_setting	triclinic
loop_
_symmetry_equiv_pos_as_xyz
  x,y,z
_cell_length_a	16.109301
_cell_length_b	11.792254
_cell_length_c	14.586319
_cell_angle_alpha	89.996031
_cell_angle_beta	89.999213
_cell_angle_gamma	83.830039
loop_
_atom_site_label
_atom_site_type_symbol
_atom_site_fract_x
_atom_site_fract_y
_atom_site_fract_z
O1	O	1.103822	0.145884	-0.076183
O2	O	1.353822	0.395884	0.173817
O3	O	1.603822	0.645884	0.423817
O4	O	1.853822	0.895884	0.673817
O5	O	0.861846	0.164039	-0.076197
O6	O	1.111846	0.414039	0.173803
O7	O	1.361846	0.664039	0.423803
O8	O	1.611846	0.914039	0.673803
O9	O	0.988701	-0.010259	-0.076183
O10	O	1.238701	0.239741	0.173817
O11	O	1.488701	0.489741	0.423817
O12	O	1.738701	0.739741	0.673817
O13	O	0.976968	0.320183	-0.076197
O14	O	1.226968	0.570183	0.173803
O15	O	1.476968	0.820183	0.423803
O16	O	1.726968	1.070183	0.673803
O17	O	0.988692	-0.010262	0.076298
O18	O	1.238692	0.239738	0.326298
O19	O	1.488692	0.489738	0.576298
O20	O	1.738692	0.739738	0.826298
O21	O	0.861837	0.164037	0.076283
O22	O	1.111837	0.414037	0.326283
O23	O	1.361837	0.664037	0.576283
O24	O	1.611837	0.914037	0.826283
O25	O	1.103813	0.145882	0.076298
O26	O	1.353813	0.395882	0.326298
O27	O	1.603813	0.645882	0.576298
O28	O	1.853813	0.895882	0.826298
Cu29	Cu	0.982825	0.154959	0.090213
Cu30	Cu	1.232825	0.404959	0.340213
Cu31	Cu	1.482825	0.654959	0.590213
Cu32	Cu	1.732825	0.904959	0.840213
Cu33	Cu	0.982835	0.154962	-0.090113
Cu34	Cu	1.232835	0.404962	0.159887
Cu35	Cu	1.482835	0.654962	0.409887
Cu36	Cu	1.732835	0.904962	0.659887
O37	O	0.976959	0.320180	0.076284
O38	O	1.226959	0.570180	0.326284
O39	O	1.476959	0.820180	0.576284
O40	O	1.726959	1.070180	0.826284
C41	C	0.987957	-0.052545	0.000057
C42	C	1.237957	0.197455	0.250057
C43	C	1.487957	0.447455	0.500057
C44	C	1.737957	0.697455	0.750057
C45	C	0.985745	-0.178538	0.000056
C46	C	1.235745	0.071462	0.250056
C47	C	1.485745	0.321462	0.500056
C48	C	1.735745	0.571462	0.750056
C49	C	0.830863	0.163303	0.000041
C50	C	1.080863	0.413303	0.250041
C51	C	1.330863	0.663303	0.500041
C52	C	1.580863	0.913303	0.750041
C53	C	0.738558	0.161098	0.000036
C54	C	0.988558	0.411098	0.250036
C55	C	1.238558	0.661098	0.500036
C56	C	1.488558	0.911098	0.750036
C57	C	0.516751	0.259397	0.000042
C58	C	0.766751	0.509397	0.250042
C59	C	1.016751	0.759397	0.500042
C60	C	1.266751	1.009397	0.750042
C61	C	0.430021	0.257316	0.000048
C62	C	0.680021	0.507316	0.250048
C63	C	0.930021	0.757316	0.500048
C64	C	1.180021	1.007316	0.750048
C65	C	0.448915	0.050517	0.000053
C66	C	0.698915	0.300517	0.250053
C67	C	0.948915	0.550517	0.500053
C68	C	1.198915	0.800517	0.750053
C69	C	0.535644	0.052598	0.000054
C70	C	0.785644	0.302598	0.250054
C71	C	1.035644	0.552598	0.500054
C72	C	1.285644	0.802598	0.750054
C73	C	0.569559	0.157042	0.000044
C74	C	0.819559	0.407042	0.250044
C75	C	1.069559	0.657042	0.500044
C76	C	1.319559	0.907042	0.750044
C77	C	0.396100	0.152880	0.000049
C78	C	0.646100	0.402880	0.250049
C79	C	0.896100	0.652880	0.500049
C80	C	1.146100	0.902880	0.750049
C81	C	0.302064	0.150623	0.000055
C82	C	0.552064	0.400623	0.250055
C83	C	0.802064	0.650623	0.500055
C84	C	1.052064	0.900623	0.750055
C85	C	0.663602	0.159299	0.000039
C86	C	0.913602	0.409299	0.250039
C87	C	1.163602	0.659299	0.500039
C88	C	1.413602	0.909299	0.750039
C89	C	0.983948	-0.280859	0.000053
C90	C	1.233948	-0.030859	0.250053
C91	C	1.483948	0.219141	0.500053
C92	C	1.733948	0.469141	0.750053
C93	C	0.981700	-0.409226	0.000044
C94	C	1.231700	-0.159226	0.250044
C95	C	1.481700	0.090774	0.500044
C96	C	1.731700	0.340774	0.750044
C97	C	1.134796	0.146618	0.000057
C98	C	1.384796	0.396618	0.250057
C99	C	1.634796	0.646618	0.500057
C100	C	1.884796	0.896618	0.750057
C101	C	1.227102	0.148823	0.000057
C102	C	1.477102	0.398823	0.250057
C103	C	1.727102	0.648823	0.500057
C104	C	1.977102	0.898823	0.750057
C105	C	0.977702	0.362466	0.000042
C106	C	1.227702	0.612466	0.250042
C107	C	1.477702	0.862466	0.500042
C108	C	1.727702	1.112466	0.750042
C109	C	0.979915	0.488459	0.000037
C110	C	1.229915	0.738459	0.250037
C111	C	1.479915	0.988459	0.500037
C112	C	1.729915	1.238459	0.750037
N113	N	0.982823	0.154956	0.217045
N114	N	1.232823	0.404956	0.467045
N115	N	1.482823	0.654956	0.717045
N116	N	1.732823	0.904956	0.967045
N117	N	0.982843	0.154956	-0.216944
N118	N	1.232843	0.404956	0.033056
N119	N	1.482843	0.654956	0.283056
N120	N	1.732843	0.904956	0.533056
C121	C	1.039013	0.077803	0.452058
C122	C	1.289013	0.327803	0.702058
C123	C	1.539013	0.577803	0.952058
C124	C	1.789013	0.827803	1.202058
C125	C	1.039016	0.077800	0.548039
C126	C	1.289016	0.327800	0.798039
C127	C	1.539016	0.577800	1.048039
C128	C	1.789016	0.827800	1.298039
C129	C	0.926647	0.232113	0.548036
C130	C	1.176647	0.482113	0.798036
C131	C	1.426647	0.732113	1.048036
C132	C	1.676647	0.982113	1.298036
C133	C	0.926641	0.232110	0.452057
C134	C	1.176641	0.482110	0.702057
C135	C	1.426641	0.732110	0.952057
C136	C	1.676641	0.982110	1.202057
C137	C	0.982829	0.154956	0.404070
C138	C	1.232829	0.404956	0.654070
C139	C	1.482829	0.654956	0.904070
C140	C	1.732829	0.904956	1.154070
C141	C	0.982837	0.154957	0.596031
C142	C	1.232837	0.404957	0.846031
C143	C	1.482837	0.654957	1.096031
C144	C	1.732837	0.904957	1.346031
C145	C	0.982839	0.154954	0.700098
C146	C	1.232839	0.404954	0.950098
C147	C	1.482839	0.654954	1.200098
C148	C	1.732839	0.904954	1.450098
C149	C	0.982826	0.154956	0.299996
C150	C	1.232826	0.404956	0.549996
C151	C	1.482826	0.654956	0.799996
C152	C	1.732826	0.904956	1.049996
H153	H	0.544362	0.344441	0.000041
H154	H	0.794362	0.594441	0.250041
H155	H	1.044362	0.844441	0.500041
H156	H	1.294362	1.094441	0.750041
H157	H	0.421290	-0.034517	0.000067
H158	H	0.671290	0.215483	0.250067
H159	H	0.921290	0.465483	0.500067
H160	H	1.171290	0.715483	0.750067
Cl161	Cl	0.363637	0.385997	0.000048
Cl162	Cl	0.613637	0.635997	0.250048
Cl163	Cl	0.863637	0.885997	0.500048
Cl164	Cl	1.113637	1.135997	0.750048
Cl165	Cl	0.602036	-0.076087	0.000063
Cl166	Cl	0.852036	0.173913	0.250063
Cl167	Cl	1.102036	0.423913	0.500063
Cl168	Cl	1.352036	0.673913	0.750063
H169	H	0.880901	0.294932	0.587116
H170	H	1.130901	0.544932	0.837116
H171	H	1.380901	0.794932	1.087116
H172	H	1.630901	1.044932	1.337116
H173	H	1.084765	0.014974	0.587108
H174	H	1.334765	0.264974	0.837108
H175	H	1.584765	0.514974	1.087108
H176	H	1.834765	0.764974	1.337108
H177	H	1.084764	0.014978	0.412989
H178	H	1.334764	0.264978	0.662989
H179	H	1.584764	0.514978	0.912989
H180	H	1.834764	0.764978	1.162989
H181	H	0.880885	0.294937	0.412982
H182	H	1.130885	0.544937	0.662982
H183	H	1.380885	0.794937	0.912982
H184	H	1.630885	1.044937	1.162982
