data_functionalizedCrystal
_audit_creation_method	'MofGen! by Chris Wilmer'
_symmetry_space_group_name_H-M	'P1'
_symmetry_Int_Tables_number	1
_symmetry_cell_setting	triclinic
loop_
_symmetry_equiv_pos_as_xyz
  x,y,z
_cell_length_a	18.101398
_cell_length_b	18.101395
_cell_length_c	12.827885
_cell_angle_alpha	89.967625
_cell_angle_beta	89.987811
_cell_angle_gamma	90.026661
loop_
_atom_site_label
_atom_site_type_symbol
_atom_site_fract_x
_atom_site_fract_y
_atom_site_fract_z
Zn1	Zn	1.132139	-0.294882	-0.590627
Zn2	Zn	1.132029	-0.418741	-0.415879
Zn3	Zn	1.008292	-0.294908	-0.415923
Zn4	Zn	1.008248	-0.418676	-0.590602
O5	O	1.070177	-0.356802	-0.503258
O6	O	1.235757	-0.311328	-0.567439
O7	O	1.115588	-0.402352	-0.269649
O8	O	1.024785	-0.191272	-0.439126
O9	O	1.235677	-0.402327	-0.439053
O10	O	1.115775	-0.191252	-0.567481
O11	O	1.024679	-0.311373	-0.269681
O12	O	0.904654	-0.311310	-0.439102
O13	O	1.024710	-0.402216	-0.736841
O14	O	0.904621	-0.402242	-0.567438
O15	O	1.115732	-0.311265	-0.736860
O16	O	1.115545	-0.522365	-0.439028
O17	O	1.024604	-0.522318	-0.567395
C18	C	0.877767	-0.356773	-0.503272
C19	C	0.795453	-0.356778	-0.503303
C20	C	1.070078	-0.549212	-0.503227
C21	C	1.070104	-0.631526	-0.503249
C22	C	0.496362	-0.356822	-0.503260
C23	C	0.527691	-0.414310	-0.583606
C24	C	0.613310	-0.414130	-0.583937
C25	C	0.644744	-0.356801	-0.503281
C26	C	0.613691	-0.278796	-0.533374
C27	C	0.528046	-0.279141	-0.533945
C28	C	0.527906	-0.376650	-0.392627
C29	C	0.613556	-0.378361	-0.393218
C30	C	0.728604	-0.356784	-0.503292
C31	C	0.412502	-0.356833	-0.503252
C32	C	1.070266	-0.930617	-0.503305
C33	C	1.013181	-0.899293	-0.584271
C34	C	1.012910	-0.813675	-0.584018
C35	C	1.070185	-0.782235	-0.503278
C36	C	1.049053	-0.813391	-0.393147
C37	C	1.048685	-0.899037	-0.393632
C38	C	1.148609	-0.898965	-0.531500
C39	C	1.148148	-0.813314	-0.533916
C40	C	1.070141	-0.698375	-0.503256
C41	C	1.070309	-1.014477	-0.503320
C42	C	1.263339	-0.356831	-0.503244
C43	C	1.345653	-0.356844	-0.503238
C44	C	1.070228	-0.356731	-0.775828
C45	C	1.070250	-0.356700	-0.891981
C46	C	1.070297	-0.163640	-0.503311
C47	C	1.070348	-0.081326	-0.503334
C48	C	1.025280	-0.311672	-0.943782
C49	C	1.025301	-0.311640	-1.063832
C50	C	1.070169	-0.356819	-0.231748
C51	C	1.070291	-0.356641	-0.115595
H52	H	0.634304	-0.471974	-0.565077
H53	H	0.986760	-0.273149	-0.899253
H54	H	1.108766	-0.395228	-0.936510
H55	H	1.088459	-0.919761	-0.331250
F56	F	1.120622	-0.407029	-1.057379
F57	F	0.499644	-0.449720	-0.356872
H58	H	0.633859	-0.435761	-0.370522
H59	H	0.507075	-0.472343	-0.564957
F60	F	0.640307	-0.221289	-0.459274
H61	H	1.191139	-0.919222	-0.472530
H62	H	0.633815	-0.401010	-0.665909
H63	H	0.991417	-0.919077	-0.369746
H64	H	1.026272	-0.919837	-0.666197
F65	F	0.974980	-0.261246	-1.122055
H66	H	1.026132	-0.792607	-0.665679
F67	F	0.937743	-0.927517	-0.560187
F68	F	0.499566	-0.397392	-0.690128
H69	H	0.508087	-0.262325	-0.614823
H70	H	1.192930	-0.791908	-0.479241
H71	H	0.507645	-0.334775	-0.332761
F72	F	0.500956	-0.221258	-0.460792
H73	H	0.635158	-0.261676	-0.613372
H74	H	0.634954	-0.339530	-0.330138
F75	F	1.101687	-0.786777	-0.312145
H76	H	1.167875	-0.920510	-0.610438
F77	F	0.974991	-0.785440	-0.361365
F78	F	0.937008	-0.786973	-0.559613
F79	F	1.168980	-0.786694	-0.639854
