data_functionalizedCrystal
_audit_creation_method	'MofGen! by Chris Wilmer'
_symmetry_space_group_name_H-M	'P1'
_symmetry_Int_Tables_number	1
_symmetry_cell_setting	triclinic
loop_
_symmetry_equiv_pos_as_xyz
  x,y,z
_cell_length_a	19.851628
_cell_length_b	23.196402
_cell_length_c	23.196401
_cell_angle_alpha	60.008520
_cell_angle_beta	90.016862
_cell_angle_gamma	59.996831
loop_
_atom_site_label
_atom_site_type_symbol
_atom_site_fract_x
_atom_site_fract_y
_atom_site_fract_z
Zr1	Zr	0.648941	0.630956	-0.075574
O2	O	0.541345	0.751238	-0.167634
O3	O	0.681927	0.510683	-0.047354
O4	O	0.681890	0.630954	-0.167622
O5	O	0.541408	0.630965	0.047505
O6	O	0.792752	0.630943	-0.167610
O7	O	0.541382	0.630966	-0.047366
O8	O	0.792817	0.415799	0.047527
O9	O	0.541343	0.846108	-0.167632
O10	O	0.778727	0.560141	-0.035308
O11	O	0.696012	0.560148	0.035485
O12	O	0.695969	0.701752	-0.106115
O13	O	0.613254	0.701760	-0.035322
Zr14	Zr	0.825795	0.630936	0.075754
Zr15	Zr	0.825753	0.630938	-0.075555
Zr16	Zr	0.648983	0.630953	0.075735
Zr17	Zr	0.648937	0.782264	-0.075571
Zr18	Zr	0.825799	0.479628	0.075750
O19	O	0.792809	0.751209	0.047534
O20	O	0.792749	0.751212	-0.167608
O21	O	0.541406	0.751234	0.047508
O22	O	0.933390	0.510654	0.167814
O23	O	0.933330	0.510657	-0.047328
O24	O	0.681987	0.510679	0.167788
O25	O	0.933327	0.630927	-0.047325
O26	O	0.792846	0.630938	0.167802
O27	O	0.681984	0.630949	0.167790
O28	O	0.933354	0.630925	0.047546
O29	O	0.681885	0.846094	-0.167618
O30	O	0.792851	0.415798	0.167797
O31	O	0.933393	0.415783	0.167812
O32	O	0.933359	0.415785	0.047541
O33	O	0.541377	0.846106	-0.047362
O34	O	0.681919	0.846092	-0.047347
O35	O	0.778767	0.560139	0.106295
O36	O	0.861482	0.560132	0.035502
O37	O	0.778724	0.701743	-0.035305
O38	O	0.696009	0.701750	0.035488
C39	C	0.737372	0.441683	0.000086
C40	C	0.737374	0.377449	0.000085
C41	C	0.516203	0.630968	0.000067
C42	C	0.441142	0.630976	0.000059
C43	C	0.780546	-0.085398	-0.036851
C44	C	0.780544	-0.025039	-0.036857
C45	C	0.737369	0.005147	0.000096
C46	C	0.694175	-0.025017	0.037044
C47	C	0.694172	-0.085369	0.037043
C48	C	0.743556	0.067172	0.062002
C49	C	0.743566	0.127519	0.062004
C50	C	0.737375	0.191295	0.000096
C51	C	0.731191	0.194708	-0.061813
C52	C	0.731187	0.134356	-0.061814
C53	C	0.737367	0.070589	0.000100
C54	C	0.780559	0.286903	-0.036860
C55	C	0.780551	0.347266	-0.036868
C56	C	0.694187	0.347282	0.037040
C57	C	0.694190	0.286925	0.037041
C58	C	0.737380	0.256737	0.000093
C59	C	0.214674	0.708170	-0.038524
C60	C	0.192306	0.669574	-0.066500
C61	C	0.303735	0.630954	0.000079
C62	C	0.192363	0.669555	0.028042
C63	C	0.171003	0.630940	0.000098
C64	C	0.282356	0.592359	-0.027936
C65	C	0.282411	0.592350	0.066644
C66	C	0.260096	0.553698	0.038685
C67	C	0.380198	0.630965	0.000067
C68	C	0.094546	0.630923	0.000110
C69	C	0.958532	0.630924	0.000113
C70	C	1.033594	0.630916	0.000121
C71	C	0.737315	0.630949	-0.189175
C72	C	0.737297	0.630950	-0.253409
C73	C	0.737363	0.820209	0.000094
C74	C	0.737362	0.884443	0.000095
C75	C	0.694102	0.704867	-0.320543
C76	C	0.694123	0.704868	-0.380898
C77	C	0.737328	0.630948	-0.374115
C78	C	0.780532	0.557021	-0.306970
C79	C	0.780517	0.557022	-0.246617
C80	C	0.731194	0.574318	-0.441434
C81	C	0.731204	0.574320	-0.501788
C82	C	0.737380	0.630941	-0.560263
C83	C	0.743530	0.687574	-0.558384
C84	C	0.743515	0.687575	-0.498031
C85	C	0.737350	0.630938	-0.439554
C86	C	0.694206	0.704865	-0.692843
C87	C	0.694233	0.704863	-0.753198
C88	C	0.780636	0.557013	-0.679268
C89	C	0.780615	0.557017	-0.618915
C90	C	0.737395	0.630946	-0.625708
C91	C	0.737421	0.630943	0.189354
C92	C	0.737439	0.630942	0.253589
C93	C	0.958537	0.441661	0.000109
C94	C	1.033600	0.377419	0.000115
C95	C	0.737425	0.441680	0.189350
C96	C	0.737445	0.377445	0.253584
C97	C	0.958590	0.441658	0.189373
C98	C	1.033671	0.377415	0.253614
C99	C	0.516146	0.820234	-0.189194
C100	C	0.441065	0.884476	-0.253435
C101	C	0.516199	0.820231	0.000071
C102	C	0.441136	0.884473	0.000064
C103	C	0.737310	0.820212	-0.189171
C104	C	0.737291	0.884447	-0.253404
C105	C	1.025653	0.347255	-0.036850
C106	C	1.096176	0.286902	-0.036858
C107	C	1.174644	0.256709	0.000104
C108	C	1.182590	0.286879	0.037070
C109	C	1.112068	0.347235	0.037074
C110	C	0.780651	0.347275	0.320717
C111	C	0.780666	0.286927	0.381076
C112	C	0.737480	0.256747	0.374302
C113	C	0.694268	0.286924	0.307161
C114	C	0.694248	0.347274	0.246803
C115	C	1.112113	0.347242	0.246830
C116	C	1.182666	0.286888	0.307185
C117	C	1.174775	0.256703	0.374325
C118	C	1.096324	0.286882	0.381108
C119	C	1.025773	0.347239	0.320753
C120	C	0.362623	0.914657	-0.246650
C121	C	0.292070	0.975030	-0.307005
C122	C	0.299961	1.005217	-0.374145
C123	C	0.378412	0.975035	-0.380929
C124	C	0.448963	0.914667	-0.320574
C125	C	0.449083	0.914642	0.037023
C126	C	0.378560	0.975013	0.037015
C127	C	0.300091	1.005208	0.000051
C128	C	0.292146	0.975035	-0.036913
C129	C	0.362668	0.914670	-0.036908
C130	C	0.780486	0.914607	-0.246606
C131	C	0.780484	0.974955	-0.306955
C132	C	0.737281	1.005145	-0.374100
C133	C	0.694085	0.974978	-0.380896
C134	C	0.694092	0.914628	-0.320548
H135	H	0.815712	-0.109974	-0.066938
H136	H	0.659067	0.371831	0.192143
Cl137	Cl	0.211259	1.081108	-0.450014
H138	H	0.815711	-0.000479	-0.066944
Cl139	Cl	0.834837	0.385188	-0.083326
Cl140	Cl	0.193493	1.013000	-0.083375
H141	H	0.658914	0.890077	-0.326093
Cl142	Cl	1.086168	0.248983	-0.083330
Cl143	Cl	0.342072	0.542032	-0.064556
H144	H	0.228199	0.999594	-0.301468
Cl145	Cl	0.547721	0.876700	0.083495
Cl146	Cl	0.639894	0.797801	-0.701379
H147	H	1.118554	0.371810	0.192166
H148	H	0.356186	0.890108	-0.067003
H149	H	1.246538	0.262323	0.301649
H150	H	0.196212	0.773459	-0.071217
Cl151	Cl	0.352680	0.876718	-0.162253
H152	H	0.278713	0.488356	0.071331
H153	H	0.384827	0.999622	-0.435601
H154	H	0.658910	0.999568	-0.435573
H155	H	0.815667	0.890036	-0.191939
Cl156	Cl	0.834902	0.464087	-0.534514
H157	H	0.815658	0.999510	-0.301407
Cl158	Cl	0.723405	0.138651	-0.139641
H159	H	0.321235	0.559743	0.122917
H160	H	0.737282	1.054287	-0.423233
H161	H	0.748594	0.015248	0.112417
Cl162	Cl	0.388567	1.012928	0.083491
H163	H	0.726148	0.246636	-0.112225
Cl164	Cl	0.211442	1.081094	0.000054
Cl165	Cl	0.834859	0.248944	-0.083304
Cl166	Cl	0.639900	0.385232	0.083488
H167	H	0.748609	0.124730	0.112417
Cl168	Cl	0.639904	0.249004	0.083495
H169	H	1.232061	0.207562	0.000096
Cl170	Cl	1.263477	0.180823	0.450194
H171	H	1.246488	0.262287	0.067163
Cl172	Cl	0.639894	0.012933	0.083496
Cl173	Cl	0.547574	0.876728	-0.329116
H174	H	0.659004	-0.109924	0.067130
Cl175	Cl	0.132358	0.719959	-0.153399
H176	H	0.153568	0.702204	0.051683
H177	H	0.815819	0.371840	0.326246
Cl178	Cl	0.639752	0.797805	-0.329085
H179	H	0.815857	0.262365	0.435739
Cl180	Cl	1.086418	0.248926	0.465518
H181	H	0.658947	0.765062	-0.435568
H182	H	0.726192	0.528210	-0.503313
Cl183	Cl	0.737514	0.180876	0.450189
H184	H	0.748524	0.733686	-0.496504
H185	H	0.659106	0.262342	0.301656
H186	H	0.815692	0.496827	-0.191951
Cl187	Cl	0.751295	0.758760	-0.631891
H188	H	0.659061	0.765058	-0.807863
H189	H	0.815815	0.496826	-0.673744
Cl190	Cl	0.723497	0.503087	-0.367904
Cl191	Cl	0.927015	0.385203	-0.083326
H192	H	0.815710	0.496834	-0.301451
Cl193	Cl	0.927162	0.385159	0.329295
H194	H	1.118550	0.371787	0.067180
