data_functionalizedCrystal
_audit_creation_method	'MofGen! by Chris Wilmer'
_symmetry_space_group_name_H-M	'P1'
_symmetry_Int_Tables_number	1
_symmetry_cell_setting	triclinic
loop_
_symmetry_equiv_pos_as_xyz
  x,y,z
_cell_length_a	14.446369
_cell_length_b	14.446369
_cell_length_c	14.446369
_cell_angle_alpha	59.995450
_cell_angle_beta	90.000000
_cell_angle_gamma	59.999699
loop_
_atom_site_label
_atom_site_type_symbol
_atom_site_fract_x
_atom_site_fract_y
_atom_site_fract_z
Zr1	Zr	0.891778	1.013199	-0.121494
O2	O	0.743967	1.206335	-0.269317
O3	O	0.937088	0.820075	-0.076172
O4	O	0.937086	1.013205	-0.269301
O5	O	0.743972	1.013197	0.076149
O6	O	1.089424	1.013197	-0.269296
O7	O	0.743969	1.013205	-0.076188
O8	O	1.089427	0.667723	0.076178
O9	O	0.743969	1.358671	-0.269324
O10	O	1.070102	0.899500	-0.056846
O11	O	0.956416	0.899500	0.056838
O12	O	0.956414	1.126885	-0.170548
O13	O	0.842729	1.126885	-0.056864
Zr14	Zr	1.134742	1.013173	0.121475
Zr15	Zr	1.134738	1.013186	-0.121485
Zr16	Zr	0.891782	1.013186	0.121466
Zr17	Zr	0.891780	1.256157	-0.121505
Zr18	Zr	1.134740	0.770215	0.121486
O19	O	1.089432	1.206297	0.076153
O20	O	1.089425	1.206316	-0.269305
O21	O	0.743974	1.206316	0.076141
O22	O	1.282552	0.820037	0.269299
O23	O	1.282546	0.820056	-0.076159
O24	O	0.937094	0.820056	0.269286
O25	O	1.282548	1.013176	-0.076168
O26	O	1.089433	1.013167	0.269283
O27	O	0.937096	1.013176	0.269277
O28	O	1.282551	1.013167	0.076169
O29	O	0.937090	1.358660	-0.269317
O30	O	1.089430	0.667712	0.269299
O31	O	1.282551	0.667702	0.269306
O32	O	1.282548	0.667712	0.076185
O33	O	0.743972	1.358660	-0.076204
O34	O	0.937093	1.358649	-0.076196
O35	O	1.070106	0.899487	0.170529
O36	O	1.183791	0.899487	0.056846
O37	O	1.070104	1.126873	-0.056856
O38	O	0.956418	1.126873	0.056827
C39	C	1.013257	0.709283	0.000005
C40	C	1.013256	0.606141	0.000009
C41	C	0.941898	0.459131	0.072038
C42	C	0.941510	0.566751	0.071747
C43	C	0.960947	0.655147	-0.123534
C44	C	0.960411	0.547914	-0.123160
C45	C	1.136973	0.372673	0.050462
C46	C	1.136791	0.478824	0.052982
C47	C	0.709354	1.013203	-0.000020
C48	C	0.606211	1.013208	-0.000024
C49	C	0.387842	1.156605	-0.071375
C50	C	0.495074	1.156702	-0.071776
C51	C	0.602886	0.941980	-0.052322
C52	C	0.495117	0.942890	-0.052845
C53	C	0.496484	0.939927	0.123715
C54	C	0.602453	0.942630	0.123520
C55	C	1.317166	1.013169	0.000002
C56	C	1.420309	1.013164	0.000006
C57	C	1.013254	1.013203	-0.303915
C58	C	1.013253	1.013208	-0.407058
C59	C	1.013263	1.317089	-0.000023
C60	C	1.013264	1.420231	-0.000028
C61	C	0.941204	1.156605	-0.625436
C62	C	0.941508	1.156702	-0.518204
C63	C	1.136785	0.941970	-0.410374
C64	C	1.136398	0.942880	-0.518143
C65	C	0.962791	0.939937	-0.516786
C66	C	0.960284	0.942639	-0.410817
C67	C	1.013265	1.013169	0.303897
C68	C	1.013267	1.013164	0.407040
C69	C	1.317163	0.709266	0.000016
C70	C	1.420305	0.606118	0.000024
C71	C	1.013263	0.709266	0.303911
C72	C	1.013264	0.606118	0.407058
C73	C	1.317169	0.709249	0.303922
C74	C	1.420313	0.606096	0.407073
C75	C	0.709351	1.317123	-0.303940
C76	C	0.606207	1.420276	-0.407092
C77	C	0.709357	1.317106	-0.000034
C78	C	0.606215	1.420254	-0.000043
C79	C	1.013257	1.317106	-0.303929
C80	C	1.013256	1.420254	-0.407077
C81	C	1.638674	0.459789	0.071367
C82	C	1.531443	0.566718	0.071769
C83	C	1.423633	0.479257	0.052329
C84	C	1.531401	0.371874	0.052852
C85	C	1.530027	0.546862	-0.123717
C86	C	1.424058	0.655340	-0.123521
C87	C	0.941215	0.459800	0.482049
C88	C	0.941518	0.566732	0.374710
C89	C	1.136797	0.479251	0.481627
C90	C	1.136411	0.371864	0.588496
C91	C	0.962805	0.546846	0.590068
C92	C	0.960296	0.655328	0.481385
C93	C	1.495302	0.459738	0.625452
C94	C	1.387966	0.566694	0.518211
C95	C	1.494855	0.479243	0.410393
C96	C	1.601721	0.371833	0.518171
C97	C	1.603337	0.546777	0.516824
C98	C	1.494658	0.655282	0.410846
H99	H	0.869378	0.588619	-0.163579
Br100	Br	1.486984	0.321944	-0.028192
Br101	Br	1.203747	1.027251	-0.602061
Br102	Br	1.493561	0.310294	0.717099
H103	H	1.193023	0.341900	0.667083
Br104	Br	0.808591	0.806138	0.395687
H105	H	0.850003	1.212903	-0.679394
H106	H	1.581750	0.281110	0.143885
H107	H	0.446461	0.985819	0.167405
Br108	Br	1.540246	0.516324	0.279943
Br109	Br	1.293183	0.516336	-0.030138
H110	H	1.175870	0.439216	0.143998
H111	H	1.192818	0.501493	0.508860
H112	H	1.502577	0.522077	-0.177145
Br113	Br	1.209792	0.216457	0.199784
Br114	Br	0.789419	0.714784	0.013396
H115	H	1.443234	0.440705	0.408247
Br116	Br	1.049685	0.763908	-0.471261
Br117	Br	1.408981	0.806096	0.411726
Br118	Br	1.610227	0.612700	0.600208
Br119	Br	1.049860	0.505514	0.720450
Br120	Br	1.226013	0.329386	-0.036610
H121	H	1.421502	0.440692	0.142499
H122	H	0.332856	1.212631	-0.162081
H123	H	1.334166	0.529246	0.520656
H124	H	0.444771	0.993516	-0.143879
H125	H	0.850552	0.656091	0.320431
Br126	Br	0.606442	1.024445	-0.202611
Br127	Br	1.537204	0.708839	0.278911
H128	H	0.523923	0.834261	0.177151
Br129	Br	0.999002	1.249984	-0.717087
H130	H	1.533057	0.656070	0.036689
Br131	Br	1.613386	0.612830	-0.196536
H132	H	1.177486	0.440693	0.430020
H133	H	1.424579	0.745831	-0.162594
H134	H	1.680303	0.341868	0.491521
H135	H	0.601936	0.994565	0.162590
Br136	Br	0.734368	0.768121	0.219617
Br137	Br	1.733701	0.505451	0.471079
Br138	Br	1.297519	0.715613	0.520908
Br139	Br	0.790726	0.518645	0.014251
Br140	Br	0.539532	0.767489	0.028189
H141	H	0.333887	1.212898	-0.036473
H142	H	1.009033	0.525946	-0.179772
H143	H	0.976529	0.529267	0.320924
H144	H	1.344899	0.687473	-0.181174
Br145	Br	1.203756	0.220595	0.588053
Br146	Br	1.000158	0.505481	0.223364
H147	H	0.873214	0.586423	0.594180
Br148	Br	0.813473	1.016440	-0.600168
Br149	Br	0.808595	1.029206	-0.411686
H150	H	0.492626	1.212937	-0.163032
H151	H	1.007329	0.687449	0.506909
H152	H	0.976801	0.370256	0.163237
Br153	Br	0.789899	1.249739	-0.520843
Br154	Br	1.491424	0.521774	0.715408
Br155	Br	1.230165	0.766116	-0.279914
H156	H	0.681154	0.836474	-0.002835
H157	H	0.975900	0.370132	0.481019
H158	H	1.010430	0.683932	-0.179550
Br159	Br	0.999854	1.250451	-0.522291
Br160	Br	1.601252	0.220572	0.602079
Br161	Br	0.810669	0.809011	-0.191368
Br162	Br	1.038668	0.768150	-0.278868
Br163	Br	1.730308	0.310332	0.222559
Br164	Br	1.204614	1.024423	-0.406817
H165	H	0.493315	1.212872	-0.036969
H166	H	1.194444	0.500325	0.005953
H167	H	1.193008	0.837639	-0.491482
H168	H	1.692631	0.497029	0.036463
H169	H	0.850017	0.497044	0.479709
H170	H	1.533902	0.529245	0.163027
