data_functionalizedCrystal
_audit_creation_method	'MofGen! by Chris Wilmer'
_symmetry_space_group_name_H-M	'P1'
_symmetry_Int_Tables_number	1
_symmetry_cell_setting	triclinic
loop_
_symmetry_equiv_pos_as_xyz
  x,y,z
_cell_length_a	25.639239
_cell_length_b	13.032951
_cell_length_c	13.032268
_cell_angle_alpha	89.114265
_cell_angle_beta	97.141717
_cell_angle_gamma	97.159836
loop_
_atom_site_label
_atom_site_type_symbol
_atom_site_fract_x
_atom_site_fract_y
_atom_site_fract_z
Zn1	Zn	-0.353113	-1.498229	-0.780783
Zn2	Zn	-0.019779	-1.164895	-0.447449
Zn3	Zn	0.313554	-0.831562	-0.114116
Zn4	Zn	-0.431007	-1.519917	-0.608782
Zn5	Zn	-0.097674	-1.186583	-0.275449
Zn6	Zn	0.235659	-0.853250	0.057884
Zn7	Zn	-0.331269	-1.348103	-0.587025
Zn8	Zn	0.002065	-1.014769	-0.253692
Zn9	Zn	0.335398	-0.681436	0.079641
Zn10	Zn	-0.428176	-1.326168	-0.758903
Zn11	Zn	-0.094843	-0.992834	-0.425570
Zn12	Zn	0.238491	-0.659501	-0.092236
O13	O	-0.385891	-1.423104	-0.683873
O14	O	-0.052558	-1.089771	-0.350540
O15	O	0.280776	-0.756437	-0.017207
O16	O	-0.373772	-1.645019	-0.776229
O17	O	-0.040439	-1.311685	-0.442895
O18	O	0.292894	-0.978352	-0.109562
O19	O	-0.409820	-1.515382	-0.461982
O20	O	-0.076487	-1.182048	-0.128649
O21	O	0.256847	-0.848715	0.204684
O22	O	-0.261011	-1.368121	-0.612779
O23	O	0.072323	-1.034787	-0.279445
O24	O	0.405656	-0.701454	0.053888
O25	O	-0.431001	-1.660953	-0.649861
O26	O	-0.097668	-1.327619	-0.316527
O27	O	0.235665	-0.994286	0.016806
O28	O	-0.277059	-1.478418	-0.755131
O29	O	0.056274	-1.145084	-0.421798
O30	O	0.389607	-0.811751	-0.088465
O31	O	-0.336542	-1.389151	-0.445997
O32	O	-0.003209	-1.055817	-0.112664
O33	O	0.330124	-0.722484	0.220669
O34	O	-0.333797	-1.201280	-0.591563
O35	O	-0.000463	-0.867947	-0.258230
O36	O	0.332870	-0.534613	0.075104
O37	O	-0.426175	-1.330735	-0.905720
O38	O	-0.092842	-0.997402	-0.572386
O39	O	0.240491	-0.664069	-0.239053
O40	O	-0.404994	-1.185164	-0.717841
O41	O	-0.071661	-0.851831	-0.384508
O42	O	0.261672	-0.518498	-0.051174
O43	O	-0.371027	-1.457148	-0.921794
O44	O	-0.037693	-1.123815	-0.588461
O45	O	0.295640	-0.790481	-0.255128
O46	O	-0.503787	-1.494112	-0.628645
O47	O	-0.170454	-1.160779	-0.295312
O48	O	0.162879	-0.827445	0.038022
O49	O	-0.501707	-1.351765	-0.738938
O50	O	-0.168374	-1.018432	-0.405605
O51	O	0.164960	-0.685099	-0.072271
C52	C	-0.366718	-1.155907	-0.649967
C53	C	-0.033385	-0.822574	-0.316634
C54	C	0.299948	-0.489240	0.016699
C55	C	-0.358530	-1.041596	-0.635487
C56	C	-0.025197	-0.708263	-0.302153
C57	C	0.308137	-0.374929	0.031180
C58	C	-0.390152	-0.982698	-0.691417
C59	C	-0.056819	-0.649365	-0.358084
C60	C	0.276514	-0.316032	-0.024750
C61	C	-0.381690	-0.864552	-0.676452
C62	C	-0.048357	-0.531218	-0.343119
C63	C	0.284977	-0.197885	-0.009785
C64	C	-0.521719	-1.422937	-0.683804
C65	C	-0.188385	-1.089604	-0.350471
C66	C	0.144948	-0.756270	-0.017138
C67	C	-0.579835	-1.422955	-0.683821
C68	C	-0.246502	-1.089622	-0.350488
C69	C	0.086832	-0.756289	-0.017154
C70	C	-0.941300	-1.497381	-0.626578
C71	C	-0.607967	-1.164048	-0.293244
C72	C	-0.274633	-0.830715	0.040089
C73	C	-0.995908	-1.497419	-0.626596
C74	C	-0.662575	-1.164086	-0.293263
C75	C	-0.329241	-0.830753	0.040070
O76	O	-1.025066	-1.560526	-0.577852
O77	O	-0.691732	-1.227193	-0.244518
O78	O	-0.358399	-0.893859	0.088815
N79	N	-1.022147	-1.423276	-0.683964
N80	N	-0.688814	-1.089943	-0.350631
N81	N	-0.355480	-0.756609	-0.017298
C82	C	-0.993776	-1.349096	-0.741326
C83	C	-0.660443	-1.015763	-0.407992
C84	C	-0.327109	-0.682430	-0.074659
O85	O	-1.021109	-1.286036	-0.790124
O86	O	-0.687775	-0.952702	-0.456791
O87	O	-0.354442	-0.619369	-0.123457
C88	C	-0.939170	-1.349063	-0.741312
C89	C	-0.605836	-1.015730	-0.407979
C90	C	-0.272503	-0.682397	-0.074645
C91	C	-0.912933	-1.423205	-0.683932
C92	C	-0.579599	-1.089872	-0.350599
C93	C	-0.246266	-0.756539	-0.017265
C94	C	-0.915063	-1.571518	-0.569203
C95	C	-0.581729	-1.238184	-0.235870
C96	C	-0.248396	-0.904851	0.097463
C97	C	-0.860458	-1.571478	-0.569183
C98	C	-0.527125	-1.238145	-0.235850
C99	C	-0.193792	-0.904811	0.097484
C100	C	-0.832091	-1.497302	-0.626537
C101	C	-0.498758	-1.163969	-0.293204
C102	C	-0.165425	-0.830635	0.040129
C103	C	-0.858328	-1.423166	-0.683912
C104	C	-0.524995	-1.089832	-0.350579
C105	C	-0.191662	-0.756499	-0.017245
C106	C	-0.910801	-1.274889	-0.798678
C107	C	-0.577467	-0.941556	-0.465345
C108	C	-0.244134	-0.608222	-0.132012
C109	C	-0.856191	-1.274863	-0.798660
C110	C	-0.522857	-0.941530	-0.465327
C111	C	-0.189524	-0.608196	-0.131994
C112	C	-0.829954	-1.349005	-0.741280
C113	C	-0.496620	-1.015672	-0.407947
C114	C	-0.163287	-0.682338	-0.074614
C115	C	-0.775357	-1.348950	-0.741246
C116	C	-0.442023	-1.015617	-0.407913
C117	C	-0.108690	-0.682283	-0.074579
N118	N	-0.749118	-1.423093	-0.683878
N119	N	-0.415784	-1.089760	-0.350545
N120	N	-0.082451	-0.756427	-0.017211
C121	C	-0.777485	-1.497269	-0.626524
C122	C	-0.444152	-1.163936	-0.293190
C123	C	-0.110818	-0.830603	0.040143
C124	C	-1.108453	-1.349172	-0.741351
C125	C	-0.775120	-1.015838	-0.408018
C126	C	-0.441786	-0.682505	-0.074685
C127	C	-1.163058	-1.349199	-0.741360
C128	C	-0.829724	-1.015866	-0.408026
C129	C	-0.496391	-0.682532	-0.074693
C130	C	-1.165186	-1.497524	-0.626632
C131	C	-0.831853	-1.164190	-0.293299
C132	C	-0.498519	-0.830857	0.040035
C133	C	-1.110580	-1.497491	-0.626618
C134	C	-0.777246	-1.164158	-0.293285
C135	C	-0.443913	-0.830824	0.040048
C136	C	-1.082214	-1.423315	-0.683983
C137	C	-0.748881	-1.089982	-0.350650
C138	C	-0.415547	-0.756648	-0.017317
C139	C	-0.662812	-1.497180	-0.626485
C140	C	-0.329478	-1.163847	-0.293152
C141	C	0.003855	-0.830513	0.040182
C142	C	-0.608202	-1.497131	-0.626467
C143	C	-0.274869	-1.163798	-0.293133
C144	C	0.058464	-0.830465	0.040200
C145	C	-0.606079	-1.348810	-0.741199
C146	C	-0.272746	-1.015477	-0.407865
C147	C	0.060587	-0.682144	-0.074532
C148	C	-0.660684	-1.348855	-0.741213
C149	C	-0.327350	-1.015522	-0.407880
C150	C	0.005983	-0.682189	-0.074546
C151	C	-0.689049	-1.423049	-0.683854
C152	C	-0.355716	-1.089716	-0.350521
C153	C	-0.022382	-0.756382	-0.017187
O154	O	-0.746165	-1.285878	-0.789969
O155	O	-0.412832	-0.952545	-0.456636
O156	O	-0.079498	-0.619211	-0.123303
O157	O	-0.750147	-1.560328	-0.577744
O158	O	-0.416813	-1.226994	-0.244411
O159	O	-0.083480	-0.893661	0.088922
C160	C	-0.249536	-1.423297	-0.683969
C161	C	0.083797	-1.089963	-0.350635
C162	C	0.417130	-0.756630	-0.017302
C163	C	-0.191430	-1.423379	-0.684009
C164	C	0.141903	-1.090046	-0.350676
C165	C	0.475237	-0.756712	-0.017343
C166	C	-0.400722	-1.389075	-0.952116
C167	C	-0.067388	-1.055742	-0.618782
C168	C	0.265945	-0.722409	-0.285449
C169	C	-0.407042	-1.374575	-1.066425
C170	C	-0.073708	-1.041241	-0.733091
C171	C	0.259625	-0.707908	-0.399758
C172	C	-0.405133	-0.691345	-0.717905
C173	C	-0.071800	-0.358012	-0.384572
C174	C	0.261534	-0.024678	-0.051239
C175	C	-0.413317	-0.805656	-0.732390
C176	C	-0.079983	-0.472322	-0.399057
C177	C	0.253350	-0.138989	-0.065723
C178	C	-0.382573	-1.430656	-1.125340
C179	C	-0.049239	-1.097323	-0.792007
C180	C	0.284094	-0.763989	-0.458674
C181	C	-0.389104	-1.415670	-1.243485
C182	C	-0.055771	-1.082337	-0.910152
C183	C	0.277563	-0.749003	-0.576818
C184	C	-0.371085	-1.457059	-0.416682
C185	C	-0.037751	-1.123726	-0.083349
C186	C	0.295582	-0.790393	0.249985
C187	C	-0.364632	-1.471759	-0.302399
C188	C	-0.031299	-1.138426	0.030934
C189	C	0.302035	-0.805093	0.364268
H190	H	-0.423488	-1.019741	-0.750384
H191	H	-0.090155	-0.686407	-0.417050
H192	H	0.243178	-0.353074	-0.083717
H193	H	-0.348348	-0.827513	-0.617489
H194	H	-0.015015	-0.494179	-0.284156
H195	H	0.318319	-0.160846	0.049178
H196	H	-0.356787	-1.489760	-1.088314
H197	H	-0.023453	-1.156427	-0.754981
H198	H	0.309880	-0.823094	-0.421648
H199	H	-1.089221	-1.557864	-0.579895
H200	H	-0.755887	-1.224531	-0.246562
H201	H	-0.422554	-0.891197	0.086771
H202	H	-0.446654	-0.842692	-0.791364
H203	H	-0.113321	-0.509358	-0.458030
H204	H	0.220012	-0.176025	-0.124697
H205	H	-1.188293	-1.557925	-0.579935
H206	H	-0.854960	-1.224592	-0.246601
H207	H	-0.521626	-0.891258	0.086732
H208	H	-0.325190	-1.004553	-0.576528
H209	H	0.008143	-0.671219	-0.243195
H210	H	0.341476	-0.337886	0.090139
H211	H	-0.586842	-1.557507	-0.579737
H212	H	-0.253508	-1.224173	-0.246404
H213	H	0.079825	-0.890840	0.086929
H214	H	-0.582974	-1.288414	-0.787892
H215	H	-0.249640	-0.955081	-0.454559
H216	H	0.083693	-0.621748	-0.121226
F217	F	-0.422805	-1.338400	-1.291869
F218	F	-0.089472	-1.005067	-0.958536
F219	F	0.243861	-0.671734	-0.625202
H220	H	-0.682047	-1.288486	-0.787940
H221	H	-0.348714	-0.955153	-0.454607
H222	H	-0.015381	-0.621819	-0.121273
H223	H	-0.338843	-1.530866	-1.265379
H224	H	-0.005509	-1.197533	-0.932045
H225	H	0.327824	-0.864199	-0.598712
F226	F	-0.692993	-1.576145	-0.565437
F227	F	-0.359659	-1.242812	-0.232104
F228	F	-0.026326	-0.909478	0.101230
F229	F	-0.440741	-1.297309	-1.114813
F230	F	-0.107408	-0.963976	-0.781480
F231	F	0.225926	-0.630642	-0.448147
H232	H	-1.184414	-1.288817	-0.788073
H233	H	-0.851081	-0.955484	-0.454740
H234	H	-0.517747	-0.622150	-0.121407
H235	H	-0.839100	-1.631853	-0.522463
H236	H	-0.505767	-1.298520	-0.189130
H237	H	-0.172433	-0.965186	0.144204
H238	H	-0.938154	-1.631926	-0.522499
H239	H	-0.604821	-1.298593	-0.189165
H240	H	-0.271487	-0.965260	0.144168
H241	H	-0.932153	-1.214510	-0.845398
H242	H	-0.598819	-0.881177	-0.512065
H243	H	-0.265486	-0.547844	-0.178731
F244	F	-1.078268	-1.270212	-0.802403
F245	F	-0.744935	-0.936879	-0.469070
F246	F	-0.411601	-0.603545	-0.135737
H247	H	-0.833098	-1.214461	-0.845377
H248	H	-0.499765	-0.881128	-0.512044
H249	H	-0.166432	-0.547794	-0.178711
