data_functionalizedCrystal
_audit_creation_method	'MofGen! by Chris Wilmer'
_symmetry_space_group_name_H-M	'P1'
_symmetry_Int_Tables_number	1
_symmetry_cell_setting	triclinic
loop_
_symmetry_equiv_pos_as_xyz
  x,y,z
_cell_length_a	14.044220
_cell_length_b	11.792254
_cell_length_c	10.868271
_cell_angle_alpha	89.995741
_cell_angle_beta	90.003917
_cell_angle_gamma	91.306262
loop_
_atom_site_label
_atom_site_type_symbol
_atom_site_fract_x
_atom_site_fract_y
_atom_site_fract_z
O1	O	-0.130045	1.519108	-0.102319
O2	O	0.119955	1.769108	0.147681
O3	O	0.369955	2.019108	0.397681
O4	O	0.619955	2.269108	0.647681
O5	O	-0.143429	1.190025	-0.102321
O6	O	0.106571	1.440025	0.147679
O7	O	0.356571	1.690025	0.397679
O8	O	0.606571	1.940025	0.647679
O9	O	0.001274	1.349627	-0.102314
O10	O	0.251274	1.599627	0.147686
O11	O	0.501274	1.849627	0.397686
O12	O	0.751274	2.099627	0.647686
O13	O	-0.274747	1.359506	-0.102325
O14	O	-0.024747	1.609506	0.147675
O15	O	0.225253	1.859506	0.397675
O16	O	0.475253	2.109506	0.647675
O17	O	0.001279	1.349612	0.102330
O18	O	0.251279	1.599612	0.352330
O19	O	0.501279	1.849612	0.602330
O20	O	0.751279	2.099612	0.852330
O21	O	-0.143423	1.190010	0.102324
O22	O	0.106577	1.440010	0.352324
O23	O	0.356577	1.690010	0.602324
O24	O	0.606577	1.940010	0.852324
O25	O	-0.130039	1.519093	0.102326
O26	O	0.119961	1.769093	0.352326
O27	O	0.369961	2.019093	0.602326
O28	O	0.619961	2.269093	0.852326
Zn29	Zn	-0.136730	1.354549	0.134817
Zn30	Zn	0.113270	1.604549	0.384817
Zn31	Zn	0.363270	1.854549	0.634817
Zn32	Zn	0.613270	2.104549	0.884817
Zn33	Zn	-0.136737	1.354569	-0.134812
Zn34	Zn	0.113263	1.604569	0.115188
Zn35	Zn	0.363263	1.854569	0.365188
Zn36	Zn	0.613263	2.104569	0.615188
O37	O	-0.274741	1.359491	0.102319
O38	O	-0.024741	1.609491	0.352319
O39	O	0.225259	1.859491	0.602319
O40	O	0.475259	2.109491	0.852319
C41	C	-0.142583	1.147648	0.000001
C42	C	0.107417	1.397648	0.250001
C43	C	0.357417	1.647648	0.500001
C44	C	0.607417	1.897648	0.750001
C45	C	-0.140059	1.021398	0.000000
C46	C	0.109941	1.271398	0.250000
C47	C	0.359941	1.521398	0.500000
C48	C	0.609941	1.771398	0.750000
C49	C	-0.138009	0.918869	-0.000005
C50	C	0.111991	1.168869	0.249995
C51	C	0.361991	1.418869	0.499995
C52	C	0.611991	1.668869	0.749995
C53	C	-0.135445	0.790242	-0.000006
C54	C	0.114555	1.040242	0.249994
C55	C	0.364555	1.290242	0.499994
C56	C	0.614555	1.540242	0.749994
C57	C	-0.310081	1.363823	-0.000004
C58	C	-0.060081	1.613823	0.249996
C59	C	0.189919	1.863823	0.499996
C60	C	0.439919	2.113823	0.749996
C61	C	-0.415373	1.376722	-0.000009
C62	C	-0.165373	1.626722	0.249991
C63	C	0.084627	1.876722	0.499991
C64	C	0.334627	2.126722	0.749991
C65	C	-0.608157	1.400304	-0.000003
C66	C	-0.358157	1.650304	0.249997
C67	C	-0.108157	1.900304	0.499997
C68	C	0.141843	2.150304	0.749997
C69	C	-0.665316	1.308819	-0.000003
C70	C	-0.415316	1.558819	0.249997
C71	C	-0.165316	1.808819	0.499997
C72	C	0.084684	2.058819	0.749997
C73	C	-0.772588	1.321941	0.000000
C74	C	-0.522588	1.571941	0.250000
C75	C	-0.272588	1.821941	0.500000
C76	C	-0.022588	2.071941	0.750000
C77	C	-0.500875	1.387184	-0.000006
C78	C	-0.250875	1.637184	0.249994
C79	C	-0.000875	1.887184	0.499994
C80	C	0.249125	2.137184	0.749994
C81	C	0.036613	1.345295	0.000007
C82	C	0.286613	1.595295	0.250007
C83	C	0.536613	1.845295	0.500007
C84	C	0.786613	2.095295	0.750007
C85	C	0.141906	1.332396	0.000003
C86	C	0.391906	1.582396	0.250003
C87	C	0.641906	1.832396	0.500003
C88	C	0.891906	2.082396	0.750003
C89	C	-0.130885	1.561470	0.000001
C90	C	0.119115	1.811470	0.250001
C91	C	0.369115	2.061470	0.500001
C92	C	0.619115	2.311470	0.750001
C93	C	-0.133408	1.687720	-0.000006
C94	C	0.116592	1.937720	0.249994
C95	C	0.366592	2.187720	0.499994
C96	C	0.616592	2.437720	0.749994
N97	N	-0.136724	1.354544	0.318831
N98	N	0.113276	1.604544	0.568831
N99	N	0.363276	1.854544	0.818831
N100	N	0.613276	2.104544	1.068831
N101	N	-0.136736	1.354582	-0.318826
N102	N	0.113264	1.604582	-0.068826
N103	N	0.363264	1.854582	0.181174
N104	N	0.613264	2.104582	0.431174
C105	C	-0.136735	1.354563	0.569837
C106	C	0.113265	1.604563	0.819837
C107	C	0.363265	1.854563	1.069837
C108	C	0.613265	2.104563	1.319837
C109	C	-0.136732	1.354549	0.430159
C110	C	0.113268	1.604549	0.680159
C111	C	0.363268	1.854549	0.930159
C112	C	0.613268	2.104549	1.180159
H113	H	-0.633689	1.220642	-0.000003
H114	H	-0.383689	1.470642	0.249997
H115	H	-0.133689	1.720642	0.499997
H116	H	0.116311	1.970642	0.749997
H117	H	-0.639782	1.488474	0.000002
H118	H	-0.389782	1.738474	0.250002
H119	H	-0.139782	1.988474	0.500002
H120	H	0.110218	2.238474	0.750002
