data_functionalizedCrystal
_audit_creation_method	'MofGen! by Chris Wilmer'
_symmetry_space_group_name_H-M	'P1'
_symmetry_Int_Tables_number	1
_symmetry_cell_setting	triclinic
loop_
_symmetry_equiv_pos_as_xyz
  x,y,z
_cell_length_a	10.654549
_cell_length_b	14.971486
_cell_length_c	9.130313
_cell_angle_alpha	89.995895
_cell_angle_beta	89.998236
_cell_angle_gamma	84.049453
loop_
_atom_site_label
_atom_site_type_symbol
_atom_site_fract_x
_atom_site_fract_y
_atom_site_fract_z
O1	O	1.666491	0.125629	-0.121766
O2	O	1.300884	0.137598	-0.121777
O3	O	1.493486	0.001467	-0.121761
O4	O	1.473888	0.261760	-0.121782
O5	O	1.493476	0.001464	0.121838
O6	O	1.300873	0.137596	0.121822
O7	O	1.666480	0.125626	0.121832
Cu8	Cu	1.483676	0.131611	0.144070
Cu9	Cu	1.483688	0.131614	-0.144014
O10	O	1.473877	0.261758	0.121816
C11	C	1.254090	0.136718	0.000021
C12	C	1.114675	0.134089	0.000018
C13	C	0.903327	0.211764	0.000017
C14	C	1.034321	0.214241	0.000008
C15	C	1.064029	0.051454	0.000021
C16	C	0.933037	0.048978	0.000020
C17	C	1.492605	-0.031864	0.000038
C18	C	1.489978	-0.131175	0.000037
C19	C	1.603127	-0.187785	0.000041
C20	C	1.600652	-0.281098	0.000026
C21	C	1.485026	-0.317799	0.000018
C22	C	1.371868	-0.261182	0.000009
C23	C	1.374345	-0.167871	0.000013
C24	C	1.366714	-0.455673	0.000003
C25	C	1.364237	-0.548990	0.000002
C26	C	1.593021	-0.568900	0.000016
C27	C	1.595497	-0.475588	0.000021
C28	C	1.482339	-0.418978	0.000015
C29	C	1.713274	0.126506	0.000031
C30	C	1.852689	0.129136	0.000025
C31	C	1.474759	0.295089	0.000014
C32	C	1.477386	0.394400	0.000006
N33	N	1.483676	0.131608	0.346692
N34	N	1.483698	0.131609	-0.346637
C35	C	1.568995	0.071352	0.576698
C36	C	1.568987	0.071353	0.423361
C37	C	1.398375	0.191872	0.423368
C38	C	1.398390	0.191875	0.576702
H39	H	1.697283	-0.157911	0.000057
H40	H	1.692789	-0.327186	0.000033
F41	F	1.718559	-0.436530	0.000026
F42	F	1.246278	-0.395425	-0.000006
F43	F	1.659791	0.007214	0.658280
H44	H	1.638445	0.022287	0.360944
F45	F	1.307585	0.256006	0.341771
F46	F	1.713453	-0.629150	0.000016
F47	F	1.307606	0.256016	0.658302
F48	F	0.817819	0.297075	0.000019
H49	H	1.075543	0.281525	0.000001
F50	F	0.879142	-0.038971	0.000012
H51	H	1.270085	-0.578869	0.000018
F52	F	1.149551	-0.033850	0.000026
F53	F	1.248810	-0.300245	-0.000017
F54	F	1.253917	-0.107623	0.000004
