data_functionalizedCrystal
_audit_creation_method	'MofGen! by Chris Wilmer'
_symmetry_space_group_name_H-M	'P1'
_symmetry_Int_Tables_number	1
_symmetry_cell_setting	triclinic
loop_
_symmetry_equiv_pos_as_xyz
  x,y,z
_cell_length_a	19.288864
_cell_length_b	8.559649
_cell_length_c	17.766277
_cell_angle_alpha	89.994756
_cell_angle_beta	89.976791
_cell_angle_gamma	76.457456
loop_
_atom_site_label
_atom_site_type_symbol
_atom_site_fract_x
_atom_site_fract_y
_atom_site_fract_z
O1	O	0.910987	0.199405	-0.062829
O2	O	0.707328	0.226304	-0.062777
O3	O	0.827100	-0.019877	-0.062807
O4	O	0.791215	0.445585	-0.062799
O5	O	0.827082	-0.019889	0.062381
O6	O	0.707310	0.226291	0.062411
O7	O	0.910969	0.199392	0.062359
Cu8	Cu	0.809138	0.212841	0.073816
Cu9	Cu	0.809160	0.212855	-0.074234
O10	O	0.791197	0.445573	0.062389
C11	C	0.681488	0.225432	-0.000176
C12	C	0.604519	0.222834	-0.000157
C13	C	0.552314	0.367282	-0.000166
C14	C	0.479994	0.364841	-0.000174
C15	C	0.459883	0.217944	-0.000188
C16	C	0.512099	0.073477	-0.000175
C17	C	0.584417	0.075922	-0.000159
C18	C	0.357630	0.102471	-0.044075
C19	C	0.285312	0.100032	-0.044095
C20	C	0.236829	0.210396	-0.000234
C21	C	0.260670	0.323227	0.043638
C22	C	0.332989	0.325672	0.043654
C23	C	0.381467	0.215276	-0.000205
C24	C	0.106205	0.352207	-0.000251
C25	C	0.033884	0.349760	-0.000255
C26	C	0.065991	0.058393	-0.000263
C27	C	0.138310	0.060844	-0.000252
C28	C	0.158412	0.207756	-0.000250
C29	C	0.829811	-0.079432	-0.000215
C30	C	0.837906	-0.256871	-0.000221
C31	C	0.936810	0.200264	-0.000243
C32	C	1.013778	0.202862	-0.000268
C33	C	0.788487	0.505129	-0.000205
C34	C	0.780392	0.682567	-0.000203
N35	N	0.809128	0.212829	0.177946
N36	N	0.809176	0.212854	-0.178364
C37	C	0.862176	0.103874	0.217320
C38	C	0.862180	0.103866	0.296122
C39	C	0.809142	0.212842	0.335547
C40	C	0.756085	0.321806	0.296164
C41	C	0.756078	0.321800	0.217364
C42	C	0.792272	0.358486	0.460389
C43	C	0.792284	0.358494	0.539188
C44	C	0.809160	0.212861	0.578593
C45	C	0.826039	0.067213	0.539190
C46	C	0.826032	0.067207	0.460390
C47	C	0.809144	0.212860	0.420993
C48	C	0.862215	0.103889	0.703413
C49	C	0.862215	0.103879	0.782216
C50	C	0.756123	0.321833	0.782257
C51	C	0.756120	0.321828	0.703455
C52	C	0.809170	0.212858	0.664038
H53	H	0.568676	0.486909	-0.000166
H54	H	0.724959	-0.233537	-0.000187
H55	H	0.893342	-0.340776	-0.000229
C56	C	0.489975	-0.088110	-0.000191
N57	N	0.473312	-0.209822	-0.000201
H58	H	0.352397	0.417538	0.079378
C59	C	0.920526	-0.016013	0.173966
N60	N	0.964475	-0.106317	0.141310
H61	H	0.905379	0.015138	0.328186
H62	H	0.839773	-0.051384	0.428312
C63	C	0.844602	-0.092997	0.582531
N64	N	0.858583	-0.213662	0.615178
C65	C	0.920565	-0.015994	0.660051
N66	N	0.964513	-0.106294	0.627394
H67	H	0.905411	0.015146	0.814275
C68	C	0.697780	0.441709	0.825620
N69	N	0.653835	0.532002	0.858285
C70	C	0.697807	0.441805	0.660142
N71	N	0.653897	0.532213	0.627519
C72	C	0.773710	0.518708	0.582523
N73	N	0.759716	0.639386	0.615162
H74	H	0.778518	0.477086	0.428311
H75	H	0.221196	0.413096	0.079355
H76	H	0.712900	0.410533	0.328268
C77	C	0.128320	0.513812	-0.000240
N78	N	0.144975	0.635533	-0.000229
C79	C	0.422558	0.523751	-0.000194
N80	N	0.379300	0.643442	-0.000212
C81	C	0.043873	-0.103197	-0.000277
N82	N	0.027211	-0.224910	-0.000287
C83	C	0.697746	0.441734	0.174051
N84	N	0.653819	0.532097	0.141427
H85	H	0.180818	-0.056781	-0.000248
H86	H	0.626924	-0.041708	-0.000151
H87	H	-0.008622	0.467392	-0.000259
H88	H	0.397100	0.012596	-0.079796
C89	C	0.259095	-0.024092	-0.092350
N90	N	0.239352	-0.117592	-0.128693
