data_functionalizedCrystal
_audit_creation_method	'MofGen! by Chris Wilmer'
_symmetry_space_group_name_H-M	'P1'
_symmetry_Int_Tables_number	1
_symmetry_cell_setting	triclinic
loop_
_symmetry_equiv_pos_as_xyz
  x,y,z
_cell_length_a	13.635800
_cell_length_b	23.752966
_cell_length_c	14.899797
_cell_angle_alpha	90.910491
_cell_angle_beta	135.074580
_cell_angle_gamma	79.933465
loop_
_atom_site_label
_atom_site_type_symbol
_atom_site_fract_x
_atom_site_fract_y
_atom_site_fract_z
V1	V	2.238372	-0.079162	0.396971
O2	O	2.236046	0.003802	0.388681
O3	O	2.204705	-0.156963	0.394963
O4	O	2.315897	-0.077945	0.569782
O5	O	2.124085	-0.075763	0.212651
V6	V	2.468232	-0.069238	0.374839
O7	O	2.395109	-0.100930	0.445520
O8	O	2.536593	-0.047470	0.326291
O9	O	2.390296	0.008562	0.376848
O10	O	2.529256	-0.152202	0.383130
O11	O	2.641217	-0.072638	0.559160
O12	O	2.279104	-0.070455	0.202029
V13	V	2.738372	-0.079162	0.396971
O14	O	2.736046	0.003802	0.388681
O15	O	2.704705	-0.156963	0.394963
O16	O	2.815897	-0.077945	0.569782
O17	O	2.624085	-0.075763	0.212651
V18	V	2.968232	-0.069238	0.374839
O19	O	2.895109	-0.100930	0.445520
O20	O	3.036593	-0.047470	0.326291
O21	O	2.890296	0.008562	0.376848
O22	O	3.029256	-0.152202	0.383130
O23	O	3.141217	-0.072638	0.559160
O24	O	2.779104	-0.070455	0.202029
C25	C	2.121611	-0.175929	0.388882
C26	C	2.135406	-0.239532	0.388392
C27	C	2.315651	-0.636866	0.391855
C28	C	2.328642	-0.696630	0.391414
O29	O	2.415752	-0.730020	0.396645
N30	N	2.240640	-0.723605	0.384817
C31	C	2.139651	-0.690815	0.378675
O32	O	2.065992	-0.719248	0.373025
C33	C	2.126669	-0.631053	0.379126
C34	C	2.214668	-0.604080	0.385710
C35	C	2.403644	-0.609892	0.398440
C36	C	2.390652	-0.550132	0.398879
C37	C	2.289668	-0.517346	0.392733
C38	C	2.201676	-0.544320	0.386149
C39	C	2.025688	-0.598265	0.372993
C40	C	2.012714	-0.538499	0.373445
C41	C	2.100713	-0.511525	0.380029
C42	C	2.087701	-0.451774	0.380442
N43	N	2.175702	-0.424798	0.387038
C44	C	2.276686	-0.457584	0.393184
C45	C	2.166923	-0.816320	0.377731
C46	C	2.179897	-0.876080	0.377271
C47	C	2.368889	-0.881890	0.390013
C48	C	2.355907	-0.822128	0.390463
C49	C	2.254925	-0.789344	0.384328
C50	C	2.249395	-0.332084	0.394104
C51	C	2.236390	-0.272318	0.394537
C52	C	2.047404	-0.266514	0.381803
C53	C	2.060403	-0.326274	0.381363
C54	C	2.161409	-0.359058	0.387519
O55	O	2.000628	-0.418347	0.375219
O56	O	2.350342	-0.429145	0.398850
C57	C	2.263446	-0.075133	0.611881
C58	C	2.367409	-0.074653	0.753159
C59	C	2.305058	0.027526	0.382925
C60	C	2.280888	0.091128	0.383424
C61	C	2.163222	-0.073269	0.159924
C62	C	2.048877	-0.073746	0.018644
C63	C	2.621611	-0.175929	0.388882
C64	C	2.635406	-0.239532	0.388392
C65	C	2.556583	-0.080371	0.766180
C66	C	2.700008	-0.083006	0.839063
C67	C	2.797684	-0.082554	0.971805
C68	C	2.751926	-0.079465	1.031667
C69	C	2.608502	-0.076830	0.958784
C70	C	2.510834	-0.077284	0.826040
C71	C	2.419328	-0.071109	0.945762
C72	C	2.321652	-0.071564	0.813021
C73	C	2.373571	-0.068020	1.005623
C74	C	2.230146	-0.065389	0.932742
C75	C	2.132468	-0.065841	0.799992
C76	C	2.178227	-0.068929	0.740138
C77	C	2.666709	-0.073268	1.159924
C78	C	2.562753	-0.073744	1.018644
C79	C	2.763446	-0.075133	0.611881
C80	C	2.867409	-0.074653	0.753159
C81	C	2.805058	0.027526	0.382925
C82	C	2.780888	0.091128	0.383424
C83	C	2.736390	-0.272318	0.394537
C84	C	2.749380	-0.332082	0.394096
C85	C	2.661378	-0.359058	0.387500
C86	C	2.560389	-0.326268	0.381357
C87	C	2.547407	-0.266506	0.381808
C88	C	2.852400	0.123914	0.377282
C89	C	2.829685	0.183677	0.377729
C90	C	2.735465	0.210653	0.384329
C91	C	2.663945	0.177863	0.390468
C92	C	2.686653	0.118102	0.390011
C93	C	1.978412	0.031047	-0.018613
C94	C	1.889460	0.083218	-0.103613
C95	C	1.782029	0.082768	-0.236357
C96	C	1.763553	0.030141	-0.284102
C97	C	1.852504	-0.022030	-0.199102
C98	C	1.959931	-0.021574	-0.066357
C99	C	1.922975	-0.126821	-0.161846
C100	C	2.030401	-0.126372	-0.029101
C101	C	1.904499	-0.179448	-0.209591
C102	C	1.993445	-0.231620	-0.124590
C103	C	2.100881	-0.231167	0.008161
C104	C	2.119353	-0.178543	0.055899
H105	H	2.308050	-0.250359	0.399894
C106	C	2.710489	0.276395	0.384815
N107	N	2.691679	0.325912	0.385178
H108	H	2.831464	-0.079091	1.139751
H109	H	2.477063	-0.080747	0.658098
H110	H	2.192904	-0.062870	0.981491
C111	C	2.607990	0.082042	0.396786
N112	N	2.548736	0.054885	0.401891
C113	C	2.956042	0.094253	0.370012
N114	N	3.034101	0.071917	0.364526
H115	H	2.465168	-0.239815	0.376796
C116	C	2.055811	-0.780260	0.370957
N117	N	1.972122	-0.753103	0.365853
C118	C	2.860466	-0.368139	0.400839
N119	N	2.944134	-0.395296	0.405915
H120	H	2.065873	0.031419	0.089473
C121	C	2.675670	-0.424798	0.386996
N122	N	2.686437	-0.474314	0.386612
H123	H	1.978396	-0.274464	-0.163476
C124	C	1.786319	-0.179941	-0.355613
N125	N	1.697300	-0.180314	-0.465598
C126	C	2.560305	0.207546	0.397725
N127	N	2.482247	0.229905	0.403197
C128	C	1.909785	0.141104	-0.051083
N129	N	1.925090	0.184704	-0.011520
H130	H	2.737249	-0.085519	0.790308
H131	H	2.015679	-0.063682	0.740654
H132	H	2.488743	-0.348241	0.375987
H133	H	1.709605	0.125250	-0.305566
C134	C	2.198718	-0.288561	0.101653
N135	N	2.272404	-0.331791	0.172067
C136	C	2.237526	-0.178040	0.201918
N137	N	2.326538	-0.177659	0.311900
H138	H	2.098708	-0.069301	0.632055
C139	C	1.928883	-0.627923	0.365758
N140	N	1.855966	-0.650260	0.360312
H141	H	2.453109	-0.067648	1.113708
H142	H	2.331643	-0.358770	0.399119
H143	H	1.676084	0.029780	-0.392192
H144	H	2.462318	-0.528177	0.404249
H145	H	2.485882	-0.636581	0.403450
H146	H	2.427563	-0.800171	0.395822
H147	H	2.887933	0.210367	0.372732
H148	H	2.451110	-0.908595	0.395007
H149	H	2.108225	-0.898035	0.371893
H150	H	2.808051	-0.250362	0.399901
C151	C	1.901619	-0.502439	0.366689
N152	N	1.817939	-0.475279	0.361595
C153	C	2.955456	-0.085453	1.051978
N154	N	3.074291	-0.087637	1.112364
H155	H	1.965179	-0.239808	0.376793
H156	H	1.988753	-0.348237	0.376010
