data_functionalizedCrystal
_audit_creation_method	'MofGen! by Chris Wilmer'
_symmetry_space_group_name_H-M	'P1'
_symmetry_Int_Tables_number	1
_symmetry_cell_setting	triclinic
loop_
_symmetry_equiv_pos_as_xyz
  x,y,z
_cell_length_a	14.044191
_cell_length_b	14.971486
_cell_length_c	14.048226
_cell_angle_alpha	89.998499
_cell_angle_beta	90.002542
_cell_angle_gamma	91.597048
loop_
_atom_site_label
_atom_site_type_symbol
_atom_site_fract_x
_atom_site_fract_y
_atom_site_fract_z
O1	O	-0.123538	1.196682	-0.079043
O2	O	-0.138332	0.937448	-0.079068
O3	O	0.007054	1.063170	-0.079058
O4	O	-0.268924	1.070959	-0.079053
O5	O	0.007063	1.063153	0.079264
O6	O	-0.138323	0.937430	0.079253
O7	O	-0.123529	1.196665	0.079278
Zn8	Zn	-0.130925	1.067045	0.104403
Zn9	Zn	-0.130936	1.067068	-0.104192
O10	O	-0.268916	1.070942	0.079268
C11	C	-0.137666	0.904062	0.000089
C12	C	-0.135683	0.804609	0.000080
C13	C	-0.221094	0.754114	0.000082
C14	C	-0.219225	0.660667	0.000096
C15	C	-0.131945	0.617717	0.000101
C16	C	-0.046528	0.668219	0.000101
C17	C	-0.048398	0.761664	0.000094
C18	C	-0.042638	0.473450	0.000114
C19	C	-0.040768	0.379998	0.000120
C20	C	-0.213465	0.372453	0.000117
C21	C	-0.215335	0.465898	0.000109
C22	C	-0.129917	0.516393	0.000108
C23	C	-0.304238	1.074358	0.000108
C24	C	-0.409476	1.084522	0.000110
C25	C	-0.659701	1.031020	0.000097
C26	C	-0.602154	1.103089	0.000105
C27	C	-0.494938	1.092755	0.000108
C28	C	-0.766928	1.041352	0.000094
C29	C	0.042377	1.059754	0.000100
C30	C	0.147614	1.049591	0.000092
C31	C	-0.124195	1.230050	0.000119
C32	C	-0.126178	1.329504	0.000123
N33	N	-0.130917	1.067036	0.246763
N34	N	-0.130937	1.067083	-0.246553
C35	C	-0.066566	1.122727	0.296586
C36	C	-0.066566	1.122733	0.396244
C37	C	-0.130921	1.067052	0.446077
C38	C	-0.195274	1.011354	0.396247
C39	C	-0.195270	1.011344	0.296592
C40	C	-0.195281	1.011381	0.603962
C41	C	-0.195287	1.011392	0.703624
C42	C	-0.066577	1.122770	0.703614
C43	C	-0.066573	1.122760	0.603958
C44	C	-0.130928	1.067063	0.554135
H45	H	-0.292167	0.789077	0.000078
C46	C	0.051320	0.528998	0.000111
C47	C	0.122822	0.519271	0.082320
C48	C	0.216776	0.574820	0.082311
C49	C	0.239229	0.640097	0.000093
C50	C	0.167726	0.649827	-0.082122
C51	C	0.073772	0.594278	-0.082113
H52	H	0.106202	0.470946	0.143188
H53	H	0.269707	0.567617	0.143172
H54	H	0.308780	0.681218	0.000086
H55	H	0.184345	0.698152	-0.142990
H56	H	0.020840	0.601481	-0.142975
C57	C	-0.311339	0.513150	0.000111
C58	C	-0.336375	0.576356	-0.082101
C59	C	-0.432379	0.623610	-0.082092
C60	C	-0.503348	0.607659	0.000128
C61	C	-0.478314	0.544450	0.082346
C62	C	-0.382310	0.497196	0.082337
H63	H	-0.283838	0.588167	-0.142970
H64	H	-0.450911	0.670401	-0.142956
H65	H	-0.574416	0.642639	0.000134
H66	H	-0.530851	0.532639	0.143215
H67	H	-0.363778	0.450405	0.143201
H68	H	0.024537	0.633242	0.000119
H69	H	-0.014165	1.168073	0.256018
H70	H	-0.014166	1.168081	0.436809
H71	H	-0.628449	0.961565	0.000093
H72	H	0.021152	0.802776	0.000091
H73	H	-0.014175	1.168104	0.563384
H74	H	-0.633408	1.172549	0.000043
H75	H	-0.014178	1.168119	0.744185
H76	H	-0.288775	0.619558	0.000098
H77	H	-0.247669	0.965994	0.256027
C78	C	-0.266074	0.950135	0.758438
C79	C	-0.336849	0.888864	0.703632
C80	C	-0.407636	0.827605	0.758444
C81	C	-0.407648	0.827616	0.868061
C82	C	-0.336870	0.888889	0.922874
C83	C	-0.266083	0.950148	0.868062
H84	H	-0.336843	0.888854	0.622481
H85	H	-0.460031	0.782247	0.717868
H86	H	-0.460049	0.782268	0.908636
H87	H	-0.336876	0.888899	1.004024
H88	H	-0.213688	0.995506	0.908638
H89	H	-0.283015	0.331335	0.000122
H90	H	-0.247683	0.966023	0.563399
H91	H	0.030303	0.345031	0.000125
H92	H	-0.247670	0.966013	0.436827
