data_functionalizedCrystal
_audit_creation_method	'MofGen! by Chris Wilmer'
_symmetry_space_group_name_H-M	'P1'
_symmetry_Int_Tables_number	1
_symmetry_cell_setting	triclinic
loop_
_symmetry_equiv_pos_as_xyz
  x,y,z
_cell_length_a	19.805407
_cell_length_b	14.908178
_cell_length_c	14.908308
_cell_angle_alpha	89.778379
_cell_angle_beta	93.278986
_cell_angle_gamma	93.311253
loop_
_atom_site_label
_atom_site_type_symbol
_atom_site_fract_x
_atom_site_fract_y
_atom_site_fract_z
Zn1	Zn	0.996888	-0.387380	-0.487701
Zn2	Zn	0.997571	-0.529090	-0.328662
Zn3	Zn	0.890587	-0.378733	-0.337361
Zn4	Zn	0.877553	-0.537698	-0.478975
O5	O	0.940650	-0.458225	-0.408175
O6	O	1.091694	-0.406194	-0.466615
O7	O	0.989120	-0.501923	-0.203991
O8	O	0.909856	-0.254046	-0.364596
O9	O	1.092196	-0.510308	-0.349770
O10	O	0.987955	-0.260399	-0.475050
O11	O	0.910519	-0.391456	-0.210383
O12	O	0.794142	-0.399804	-0.356135
O13	O	0.887643	-0.524980	-0.605957
O14	O	0.784567	-0.516595	-0.460178
O15	O	0.975317	-0.414542	-0.612368
O16	O	0.976482	-0.656065	-0.341308
O17	O	0.888305	-0.662390	-0.451743
C18	C	0.764796	-0.458196	-0.408154
C19	C	0.689563	-0.458206	-0.408166
C20	C	0.653950	-0.404101	-0.469089
C21	C	0.583261	-0.404106	-0.469092
C22	C	0.548186	-0.458221	-0.408176
C23	C	0.583804	-0.512329	-0.347246
C24	C	0.654492	-0.512318	-0.347239
C25	C	0.298728	-0.512371	-0.347271
C26	C	0.228035	-0.512379	-0.347285
C27	C	0.227497	-0.404158	-0.469124
C28	C	0.298185	-0.404148	-0.469117
C29	C	0.333797	-0.458251	-0.408185
C30	C	0.410446	-0.458244	-0.408181
C31	C	0.471538	-0.458234	-0.408183
C32	C	0.931071	-0.691856	-0.394654
C33	C	0.927033	-0.791806	-0.388901
C34	C	1.000700	-0.986095	-0.493227
C35	C	0.996909	-1.080008	-0.487824
C36	C	0.915656	-1.073545	-0.372696
C37	C	0.919447	-0.979632	-0.378099
C38	C	0.961972	-0.935911	-0.438366
C39	C	0.965766	-0.841997	-0.443764
C40	C	0.884510	-0.835536	-0.328641
C41	C	0.880719	-0.929448	-0.323238
C42	C	1.117190	-0.458256	-0.408195
C43	C	1.192421	-0.458268	-0.408204
C44	C	0.929950	-0.471686	-0.642699
C45	C	0.925390	-0.477422	-0.742640
C46	C	0.950284	-0.223683	-0.421767
C47	C	0.954389	-0.123735	-0.427559
C48	C	1.008117	-0.373180	-0.937117
C49	C	1.003835	-0.378566	-1.031020
C50	C	0.912542	-0.493576	-1.024351
C51	C	0.916824	-0.488189	-0.930448
C52	C	0.964614	-0.427990	-0.886834
C53	C	0.968898	-0.422609	-0.792929
C54	C	0.877602	-0.537613	-0.786262
C55	C	0.873321	-0.543000	-0.880165
C56	C	0.951349	-0.444752	-0.174566
C57	C	0.956050	-0.438763	-0.074641
H58	H	1.000393	-0.806400	-0.492834
H59	H	0.198493	-0.360101	-0.518735
O60	O	0.691775	-0.345730	-0.534795
H61	H	0.746912	-0.354816	-0.524563
H62	H	1.007812	-0.373593	-0.757420
H63	H	1.035330	-0.950497	-0.542293
H64	H	0.683487	-0.556376	-0.297629
H65	H	0.842180	-0.582246	-0.745312
H66	H	1.028442	-1.120865	-0.532503
H67	H	0.554268	-0.360050	-0.518703
H68	H	0.873634	-0.542586	-1.059878
O69	O	0.336018	-0.345773	-0.534811
H70	H	0.299379	-0.308140	-0.577168
H71	H	1.039259	-0.333932	-1.071957
H72	H	0.881032	-1.109159	-0.323634
O73	O	0.190201	-0.570737	-0.281570
H74	H	0.226840	-0.608349	-0.239190
H75	H	0.834410	-0.592010	-0.915689
H76	H	0.327715	-0.556426	-0.297658
H77	H	1.047033	-0.324168	-0.901606
H78	H	0.846096	-0.965059	-0.274172
H79	H	0.852977	-0.794665	-0.283966
H80	H	0.555241	-0.556386	-0.297643
