data_functionalizedCrystal
_audit_creation_method	'MofGen! by Chris Wilmer'
_symmetry_space_group_name_H-M	'P1'
_symmetry_Int_Tables_number	1
_symmetry_cell_setting	triclinic
loop_
_symmetry_equiv_pos_as_xyz
  x,y,z
_cell_length_a	15.944551
_cell_length_b	27.732048
_cell_length_c	14.421503
_cell_angle_alpha	89.999321
_cell_angle_beta	89.996859
_cell_angle_gamma	83.070697
loop_
_atom_site_label
_atom_site_type_symbol
_atom_site_fract_x
_atom_site_fract_y
_atom_site_fract_z
O1	O	1.113714	0.062334	-0.077025
O2	O	0.869064	0.070020	-0.077050
O3	O	0.998987	-0.004187	-0.077019
O4	O	0.983791	0.136540	-0.077056
O5	O	0.998966	-0.004176	0.077204
O6	O	0.869042	0.070031	0.077174
O7	O	1.113693	0.062345	0.077198
Cu8	Cu	0.991366	0.066189	0.091268
Cu9	Cu	0.991391	0.066176	-0.091119
O10	O	0.983769	0.136552	0.077168
C11	C	0.837763	0.069706	0.000059
C12	C	0.744530	0.068749	0.000051
C13	C	0.530305	0.020466	0.000081
C14	C	0.469002	0.042882	-0.075965
C15	C	0.573827	0.067019	0.000062
C16	C	0.469003	0.042904	0.076087
C17	C	0.408936	0.065344	0.000077
C18	C	0.513752	0.089447	-0.076047
C19	C	0.513759	0.089463	0.076074
C20	C	0.452474	0.111912	0.000009
C21	C	0.668816	0.067983	0.000053
C22	C	0.313947	0.064384	0.000080
C23	C	0.998658	-0.022190	0.000095
C24	C	0.997697	-0.075849	0.000103
C25	C	1.068426	-0.414358	0.000062
C26	C	1.064862	-0.616033	0.000049
O27	O	1.129539	-0.647008	0.000015
N28	N	0.987823	-0.635490	0.000042
C29	C	0.911669	-0.604525	0.000032
O30	O	0.846061	-0.625703	0.000017
C31	C	0.915234	-0.402851	0.000039
C32	C	0.992278	-0.383397	0.000055
C33	C	1.145464	-0.394903	0.000077
C34	C	1.146354	-0.344487	0.000086
C35	C	1.070206	-0.313526	0.000079
C36	C	0.993168	-0.332981	0.000064
C37	C	0.839081	-0.371887	0.000023
C38	C	0.839979	-0.321466	0.000022
C39	C	0.917024	-0.302012	0.000038
C40	C	0.917911	-0.251604	0.000065
N41	N	0.994950	-0.232147	0.000072
C42	C	1.071098	-0.263108	0.000079
C43	C	0.909803	-0.710408	0.000031
C44	C	0.908912	-0.760826	0.000031
C45	C	1.062105	-0.772330	0.000045
C46	C	1.062995	-0.721911	0.000052
C47	C	0.986842	-0.690950	0.000038
C48	C	1.072961	-0.157231	0.000097
C49	C	1.073845	-0.106810	0.000109
C50	C	0.920652	-0.095310	0.000090
C51	C	0.919768	-0.145727	0.000083
C52	C	0.995930	-0.176686	0.000083
O53	O	0.853269	-0.220600	0.000089
O54	O	1.136697	-0.241921	0.000074
C55	C	1.067536	-0.464774	0.000054
C56	C	0.990498	-0.484228	0.000039
C57	C	0.914350	-0.453268	0.000032
C58	C	0.989607	-0.534647	0.000039
C59	C	1.065754	-0.565608	0.000045
C60	C	1.142794	-0.546150	0.000052
C61	C	1.143684	-0.495734	0.000061
C62	C	0.837311	-0.472725	0.000025
C63	C	0.836427	-0.523141	0.000018
C64	C	0.912575	-0.554102	0.000024
C65	C	1.144993	0.062658	0.000087
C66	C	1.238227	0.063615	0.000090
C67	C	0.984099	0.154554	0.000051
C68	C	0.985059	0.208213	0.000038
N69	N	0.991354	0.066198	0.219549
N70	N	0.991409	0.066163	-0.219401
C71	C	0.931267	0.100495	0.469189
C72	C	1.007044	0.109880	0.530996
C73	C	0.991374	0.066186	0.408710
C74	C	0.915616	0.056813	0.530997
C75	C	0.991387	0.066176	0.591432
C76	C	1.067190	0.075592	0.469157
C77	C	0.975712	0.022507	0.469153
C78	C	1.051545	0.031872	0.530932
C79	C	0.991366	0.066193	0.303449
C80	C	0.991405	0.066169	0.696691
H81	H	0.449165	0.023210	0.140376
H82	H	0.857033	-0.161567	0.000095
C83	C	1.227308	-0.474589	0.000260
C84	C	1.232306	-0.445992	0.079617
C85	C	1.309337	-0.426515	0.079836
H86	H	1.230934	-0.455127	-0.053457
H87	H	1.272550	-0.500241	0.000311
H88	H	1.187076	-0.420344	0.079558
H89	H	1.228695	-0.465443	0.133348
H90	H	1.354579	-0.452167	0.079887
H91	H	1.312956	-0.407055	0.026116
H92	H	1.312741	-0.407113	0.133683
H93	H	0.449158	0.023187	-0.140246
C94	C	0.754655	-0.439092	-0.000169
C95	C	0.750678	-0.409815	-0.079520
C96	C	0.674537	-0.378833	-0.079731
H97	H	0.751726	-0.419142	0.053553
H98	H	0.708629	-0.457889	-0.000225
H99	H	0.796692	-0.391019	-0.079456
H100	H	0.753593	-0.429752	-0.133255
H101	H	0.628511	-0.397630	-0.079787
H102	H	0.671615	-0.358886	-0.026006
H103	H	0.671825	-0.358968	-0.133573
H104	H	0.533491	0.109118	-0.140408
H105	H	0.564143	-0.018169	-0.000003
H106	H	0.858655	-0.070093	0.000088
H107	H	0.880487	0.129533	0.442079
C108	C	0.540286	0.115784	0.161675
C109	C	0.578817	0.156306	0.134507
C110	C	0.603256	0.180563	0.213345
H111	H	0.579088	0.094469	0.196918
H112	H	0.491916	0.126074	0.198335
H113	H	0.627180	0.146015	0.097862
H114	H	0.540030	0.177632	0.099275
H115	H	0.554887	0.190854	0.250005
H116	H	0.642056	0.159245	0.248582
H117	H	0.629395	0.208063	0.194923
H118	H	0.776344	-0.387718	0.000004
H119	H	0.962429	-0.014416	0.441967
C120	C	0.407622	0.163489	-0.000248
C121	C	0.430300	0.187625	-0.080012
C122	C	0.388989	0.235135	-0.080290
H123	H	0.423590	0.180211	0.053190
H124	H	0.348239	0.162621	0.000216
H125	H	0.489670	0.188495	-0.080467
H126	H	0.414330	0.170918	-0.133462
H127	H	0.329607	0.234267	-0.079826
H128	H	0.404961	0.251852	-0.026849
H129	H	0.404365	0.251516	-0.134413
H130	H	1.204796	-0.571368	0.000062
H131	H	1.134979	-0.182432	0.000094
H132	H	1.102436	0.002852	0.557872
H133	H	1.136586	-0.090973	0.000125
C134	C	1.152645	0.086308	0.433258
C135	C	1.168965	0.131896	0.465401
C136	C	1.247681	0.141787	0.432372
H137	H	1.152228	0.086304	0.367393
H138	H	1.195393	0.062098	0.454930
H139	H	1.126229	0.156099	0.443724
H140	H	1.169400	0.131911	0.531262
H141	H	1.290430	0.117577	0.454044
H142	H	1.247257	0.141780	0.366508
H143	H	1.258769	0.172717	0.454183
C144	C	1.144756	-0.805973	-0.000148
C145	C	1.148720	-0.835242	-0.079509
C146	C	1.224846	-0.866237	-0.079733
H147	H	1.147672	-0.825929	0.053567
H148	H	1.190795	-0.787186	-0.000199
H149	H	1.102694	-0.854028	-0.079449
H150	H	1.145820	-0.815300	-0.133236
H151	H	1.270885	-0.847449	-0.079784
H152	H	1.227755	-0.886189	-0.026015
H153	H	1.227550	-0.886096	-0.133582
C154	C	1.230031	-0.323398	-0.000099
C155	C	1.276016	-0.339129	-0.079454
C156	C	1.353102	-0.319711	-0.079666
H157	H	1.261451	-0.334016	0.053620
H158	H	1.219705	-0.288934	-0.000149
H159	H	1.286344	-0.373585	-0.079396
H160	H	1.244622	-0.328512	-0.133186
H161	H	1.342777	-0.285247	-0.079715
H162	H	1.384515	-0.330330	-0.025943
H163	H	1.384310	-0.330378	-0.133511
C164	C	0.830102	0.046312	0.567085
C165	C	0.767416	0.082343	0.535779
C166	C	0.688627	0.072685	0.568990
H167	H	0.830760	0.046101	0.632947
H168	H	0.818515	0.015530	0.544971
H169	H	0.779000	0.113116	0.557897
H170	H	0.766731	0.082559	0.469921
H171	H	0.677040	0.041904	0.546876
H172	H	0.689294	0.072474	0.634850
H173	H	0.646084	0.097128	0.547746
H174	H	1.207476	-0.420107	0.000079
H175	H	1.020304	0.146814	0.558160
H176	H	1.125732	-0.706075	0.000065
H177	H	0.846175	-0.776661	0.000034
C178	C	0.827026	-0.676877	0.000072
C179	C	0.759377	-0.704715	0.000094
C180	C	0.683111	-0.673847	0.000151
H181	H	0.824066	-0.656958	-0.053693
H182	H	0.824134	-0.656978	0.053877
H183	H	0.762267	-0.724606	-0.053705
H184	H	0.762309	-0.724634	0.053855
H185	H	0.680219	-0.653947	0.053955
H186	H	0.680159	-0.653928	-0.053615
H187	H	0.637202	-0.692730	0.000174
H188	H	0.777965	-0.296260	0.000009
H189	H	0.773684	-0.538976	0.000013
