data_functionalizedCrystal
_audit_creation_method	'MofGen! by Chris Wilmer'
_symmetry_space_group_name_H-M	'P1'
_symmetry_Int_Tables_number	1
_symmetry_cell_setting	triclinic
loop_
_symmetry_equiv_pos_as_xyz
  x,y,z
_cell_length_a	13.635800
_cell_length_b	10.992723
_cell_length_c	10.992410
_cell_angle_alpha	88.169042
_cell_angle_beta	71.235349
_cell_angle_gamma	108.770285
loop_
_atom_site_label
_atom_site_type_symbol
_atom_site_fract_x
_atom_site_fract_y
_atom_site_fract_z
V1	V	-2.057141	-0.177763	0.400582
O2	O	-2.036187	0.008542	0.392968
O3	O	-2.045946	-0.352473	0.397831
O4	O	-2.045936	-0.175028	0.575295
O5	O	-2.036197	-0.170131	0.214276
V6	V	-2.295585	-0.155478	0.378300
O7	O	-2.195045	-0.226645	0.449460
O8	O	-2.382779	-0.106596	0.329421
O9	O	-2.195176	0.019232	0.381050
O10	O	-2.375237	-0.341783	0.385913
O11	O	-2.375227	-0.163110	0.564605
O12	O	-2.195186	-0.158213	0.203587
V13	V	-1.557141	-0.177763	0.400582
O14	O	-1.536187	0.008542	0.392968
O15	O	-1.545946	-0.352473	0.397831
O16	O	-1.545936	-0.175028	0.575295
O17	O	-1.536197	-0.170131	0.214276
V18	V	-1.795585	-0.155478	0.378300
O19	O	-1.695045	-0.226645	0.449460
O20	O	-1.882779	-0.106596	0.329421
O21	O	-1.695176	0.019232	0.381050
O22	O	-1.875237	-0.341783	0.385913
O23	O	-1.875227	-0.163110	0.564605
O24	O	-1.695186	-0.158213	0.203587
C25	C	-1.971190	-0.395064	0.391509
C26	C	-2.002767	-0.537892	0.390424
C27	C	-2.158733	-0.748833	0.396136
C28	C	-2.126095	-0.600354	0.397761
C29	C	-1.991304	-0.607105	0.509425
C30	C	-2.024886	-0.755778	0.508444
C31	C	-1.959198	-0.717504	0.262824
C32	C	-1.928021	-0.568782	0.262474
C33	C	-1.971177	-0.168714	0.617879
C34	C	-2.002744	-0.167634	0.760708
C35	C	-2.101604	0.061816	0.387369
C36	C	-2.059646	0.204643	0.388462
C37	C	-2.101617	-0.164532	0.160995
C38	C	-2.059668	-0.165605	0.018165
C39	C	-1.471190	-0.395064	0.391509
C40	C	-1.502767	-0.537892	0.390424
C41	C	-1.471177	-0.168714	0.617879
C42	C	-1.502744	-0.167634	0.760708
C43	C	-1.936304	-0.157797	0.955832
C44	C	-1.903530	-0.159452	0.807348
C45	C	-2.101764	-0.294316	0.837804
C46	C	-2.133920	-0.293195	0.986371
C47	C	-2.072781	-0.047894	0.948354
C48	C	-2.037426	-0.047293	0.799341
C49	C	-1.601604	0.061816	0.387369
C50	C	-1.559646	0.204643	0.388462
C51	C	-1.601617	-0.164532	0.160995
C52	C	-1.559668	-0.165605	0.018165
C53	C	-1.436618	-0.733182	0.381645
C54	C	-1.403563	-0.584536	0.382264
C55	C	-1.538076	-0.576528	0.270610
C56	C	-1.570207	-0.725073	0.269346
C57	C	-1.635964	-0.763655	0.514964
C58	C	-1.601423	-0.615140	0.517558
C59	C	-1.436304	-0.157797	0.955832
C60	C	-1.403530	-0.159452	0.807348
C61	C	-1.601764	-0.294316	0.837804
C62	C	-1.633920	-0.293195	0.986371
C63	C	-1.572781	-0.047894	0.948354
C64	C	-1.537426	-0.047293	0.799341
H65	H	-2.138546	-0.553204	0.312705
N66	N	-1.634511	-0.536460	0.272416
H67	H	-1.655802	-0.562244	0.194530
H68	H	-1.699437	-0.581137	0.354722
H69	H	-1.374999	-0.558771	0.467876
H70	H	-1.829293	-0.068363	0.754014
N71	N	-1.442533	0.076836	0.729993
H72	H	-1.466018	0.127761	0.673667
H73	H	-1.420684	0.130595	0.796130
N74	N	-1.419540	-0.794554	0.494430
H75	H	-1.491441	-0.863282	0.551053
H76	H	-1.361569	-0.835696	0.460390
N77	N	-1.359919	-0.760396	0.260836
H78	H	-1.404580	-0.812834	0.210527
H79	H	-1.306137	-0.675497	0.204852
H80	H	-2.095614	-0.807600	0.603052
H81	H	-1.576921	-0.591244	0.606202
H82	H	-1.978934	-0.742960	0.171595
N83	N	-1.807067	-0.510419	0.245484
H84	H	-1.798974	-0.462919	0.320827
H85	H	-1.775164	-0.581883	0.242578
N86	N	-1.365665	-0.273029	0.774427
H87	H	-1.286701	-0.240110	0.711880
H88	H	-1.370291	-0.322193	0.856487
N89	N	-1.358658	-0.036317	0.980782
H90	H	-1.402692	0.014837	1.032737
H91	H	-1.315945	-0.061167	1.031115
H92	H	-1.725892	-0.804773	0.521245
N93	N	-1.419786	-0.269829	1.019375
H94	H	-1.437745	-0.265854	1.115423
H95	H	-1.470224	-0.354552	1.006413
H96	H	-1.514809	-0.742588	0.174216
N97	N	-1.858658	-0.036317	0.980782
H98	H	-1.902692	0.014837	1.032737
H99	H	-1.815945	-0.061167	1.031115
N100	N	-2.203738	-0.575641	0.519388
H101	H	-2.243864	-0.521570	0.494778
H102	H	-2.259255	-0.661324	0.572100
N103	N	-1.305067	-0.515082	0.261364
H104	H	-1.324957	-0.537489	0.181915
H105	H	-1.283184	-0.418141	0.261371
N106	N	-1.939825	-0.507064	0.145751
H107	H	-1.993363	-0.459288	0.175615
H108	H	-1.865335	-0.443856	0.088040
N109	N	-1.942533	0.076836	0.729993
H110	H	-1.966018	0.127761	0.673667
H111	H	-1.920684	0.130595	0.796130
N112	N	-2.196765	-0.782013	0.282712
H113	H	-2.150140	-0.827531	0.225252
H114	H	-2.276882	-0.841068	0.316107
H115	H	-1.884813	-0.746698	0.256021
H116	H	-1.724922	-0.304211	1.029001
H117	H	-1.658317	-0.765957	0.269159
H118	H	-1.626148	-0.382324	1.032635
H119	H	-1.632799	-0.813172	0.605627
N120	N	-1.919788	-0.269827	1.019380
H121	H	-1.991868	-0.325614	1.088371
H122	H	-1.894420	-0.323747	0.951631
N123	N	-1.865639	-0.273020	0.774484
H124	H	-1.927680	-0.356669	0.822339
H125	H	-1.844130	-0.274464	0.677767
N126	N	-2.123631	-0.411253	1.047667
H127	H	-2.098289	-0.463530	0.978114
H128	H	-2.067904	-0.382574	1.092721
H129	H	-1.467776	-0.522290	0.176489
N130	N	-1.700626	-0.575134	0.535295
H131	H	-1.682946	-0.506065	0.460834
H132	H	-1.765593	-0.653191	0.537076
N133	N	-1.305193	-0.038802	0.736688
H134	H	-1.282793	0.015939	0.801938
H135	H	-1.241482	-0.064621	0.683442
H136	H	-1.608482	-0.045806	0.766830
N137	N	-1.701368	-0.308317	0.799664
H138	H	-1.683217	-0.232495	0.731878
H139	H	-1.722104	-0.392054	0.762931
H140	H	-2.045148	-0.586919	0.604107
N141	N	-1.571481	-0.412675	0.803885
H142	H	-1.493707	-0.384517	0.738638
H143	H	-1.575885	-0.463108	0.885079
N144	N	-1.504617	0.079537	0.975329
H145	H	-1.424035	0.088526	0.942431
H146	H	-1.514332	0.153659	0.929621
N147	N	-1.691318	-0.053980	1.002446
H148	H	-1.736338	-0.132558	1.071828
H149	H	-1.694161	0.027356	1.041365
N150	N	-2.004615	0.079535	0.975331
H151	H	-2.014239	0.153737	0.929626
H152	H	-2.029940	0.081591	1.072029
N153	N	-2.257301	-0.820526	0.516201
H154	H	-2.280525	-0.916954	0.512621
H155	H	-2.236761	-0.802495	0.595971
H156	H	-2.224922	-0.304211	1.029001
H157	H	-1.952684	-0.786810	0.508115
N158	N	-2.201362	-0.308309	0.799654
H159	H	-2.181746	-0.313054	0.703592
H160	H	-2.263959	-0.390376	0.850483
N161	N	-1.874163	-0.553546	0.508321
H162	H	-1.827287	-0.483733	0.430484
H163	H	-1.873872	-0.515294	0.590582
H164	H	-2.162273	-0.052498	0.989195
N165	N	-2.071470	-0.412670	0.803896
H166	H	-2.135712	-0.493693	0.853996
H167	H	-2.053577	-0.414936	0.707602
N168	N	-2.131488	-0.045252	0.756188
H169	H	-2.153059	-0.122663	0.710796
H170	H	-2.197012	-0.049094	0.834528
