data_functionalizedCrystal
_audit_creation_method	'MofGen! by Chris Wilmer'
_symmetry_space_group_name_H-M	'P1'
_symmetry_Int_Tables_number	1
_symmetry_cell_setting	triclinic
loop_
_symmetry_equiv_pos_as_xyz
  x,y,z
_cell_length_a	17.038272
_cell_length_b	15.944551
_cell_length_c	15.021413
_cell_angle_alpha	89.996935
_cell_angle_beta	90.002222
_cell_angle_gamma	87.305147
loop_
_atom_site_label
_atom_site_type_symbol
_atom_site_fract_x
_atom_site_fract_y
_atom_site_fract_z
O1	O	1.037425	0.182391	0.073924
O2	O	0.809794	0.179495	0.073950
O3	O	0.929826	0.059112	0.073929
O4	O	0.917393	0.302774	0.073946
O5	O	0.929806	0.059129	-0.074136
O6	O	0.809775	0.179512	-0.074114
O7	O	1.037406	0.182408	-0.074140
Zn8	Zn	0.923587	0.180963	-0.097635
Zn9	Zn	0.923612	0.180940	0.097446
O10	O	0.917374	0.302791	-0.074118
C11	C	0.780655	0.176869	-0.000079
C12	C	0.693860	0.169010	-0.000069
C13	C	0.929300	0.027790	-0.000104
C14	C	0.927753	-0.065567	-0.000104
C15	C	0.849653	-0.286000	-0.000083
C16	C	0.885910	-0.344419	-0.073092
C17	C	0.924953	-0.236492	-0.000097
C18	C	0.885947	-0.344418	0.072888
C19	C	0.922244	-0.401598	-0.000086
C20	C	0.961232	-0.293682	-0.073166
C21	C	0.961258	-0.293676	0.072879
C22	C	0.997570	-0.352073	-0.000147
C23	C	0.926512	-0.141379	-0.000104
C24	C	0.920691	-0.496710	-0.000085
C25	C	0.643767	0.241168	-0.000064
C26	C	0.562214	0.233778	-0.000077
C27	C	0.530756	0.154230	-0.000088
C28	C	0.580855	0.082067	-0.000095
C29	C	0.662406	0.089457	-0.000089
C30	C	0.284990	0.128121	-0.000114
C31	C	0.203433	0.120736	-0.000118
C32	C	0.184797	0.272448	-0.000101
C33	C	0.266351	0.279831	-0.000089
C34	C	0.316443	0.207668	-0.000101
C35	C	0.447396	0.146675	-0.000098
C36	C	0.399801	0.215224	-0.000097
C37	C	1.066545	0.185034	-0.000109
C38	C	1.153340	0.192893	-0.000113
C39	C	0.917900	0.334114	-0.000084
C40	C	0.919447	0.427470	-0.000078
N41	N	0.923576	0.180978	-0.230773
C42	C	0.868065	0.236615	-0.470446
C43	C	0.938714	0.257966	-0.529787
C44	C	0.923596	0.180959	-0.412380
C45	C	0.852965	0.159627	-0.529780
C46	C	0.923609	0.180941	-0.587804
C47	C	0.994281	0.202350	-0.470415
C48	C	0.908486	0.103976	-0.470402
C49	C	0.979186	0.125298	-0.529717
C50	C	0.923587	0.180971	-0.311323
C51	C	0.923626	0.180929	-0.688859
N52	N	0.923630	0.180919	0.230583
H53	H	0.787150	-0.257155	-0.000148
H54	H	0.703192	0.030699	-0.000092
N55	N	0.130760	0.350268	-0.000111
H56	H	0.140883	0.384716	-0.054999
H57	H	0.140893	0.384655	0.054813
N58	N	0.843758	-0.374057	0.154642
H59	H	0.787893	-0.349881	0.154579
H60	H	0.871700	-0.354756	0.209735
H61	H	0.421774	0.081906	-0.000132
N62	N	0.508185	0.311604	-0.000173
H63	H	0.540488	0.363119	-0.000192
H64	H	0.473897	0.311895	0.054680
N65	N	0.339018	0.050296	-0.000110
H66	H	0.373269	0.049985	-0.054996
H67	H	0.306663	-0.001177	-0.000078
H68	H	0.177823	0.055955	-0.000125
N69	N	0.433735	0.301016	-0.000079
H70	H	0.415471	0.332882	0.054814
H71	H	0.415465	0.332841	-0.054998
N72	N	0.843723	-0.374052	-0.154850
H73	H	0.787857	-0.349877	-0.154793
H74	H	0.843496	-0.437381	-0.154499
H75	H	0.993046	-0.271412	-0.134957
H76	H	0.821151	0.283725	-0.444422
H77	H	1.026204	0.078225	-0.555578
H78	H	1.060128	-0.380766	-0.000196
N79	N	0.546920	-0.003728	-0.000106
H80	H	0.565186	-0.035613	0.054779
H81	H	0.565192	-0.035530	-0.055033
H82	H	0.895672	0.038899	-0.444297
N83	N	0.300266	0.365636	-0.000084
H84	H	0.333687	0.372095	-0.054967
H85	H	0.333644	0.372028	0.054844
H86	H	0.669373	0.305944	-0.000055
N87	N	0.955666	0.344188	-0.564341
H88	H	0.913686	0.386198	-0.542787
H89	H	0.956070	0.343334	-0.631569
N90	N	1.003427	-0.264009	0.154628
H91	H	0.974939	-0.282352	0.209751
H92	H	1.004594	-0.200745	0.153626
N93	N	1.073429	0.226337	-0.436029
H94	H	1.072929	0.226219	-0.368795
H95	H	1.084930	0.284278	-0.458220
N96	N	0.773843	0.135723	-0.564321
H97	H	0.774587	0.135360	-0.631552
H98	H	0.731977	0.177827	-0.542699
