data_functionalizedCrystal
_audit_creation_method	'MofGen! by Chris Wilmer'
_symmetry_space_group_name_H-M	'P1'
_symmetry_Int_Tables_number	1
_symmetry_cell_setting	triclinic
loop_
_symmetry_equiv_pos_as_xyz
  x,y,z
_cell_length_a	15.944499
_cell_length_b	17.038272
_cell_length_c	15.021413
_cell_angle_alpha	90.004029
_cell_angle_beta	89.990095
_cell_angle_gamma	87.294583
loop_
_atom_site_label
_atom_site_type_symbol
_atom_site_fract_x
_atom_site_fract_y
_atom_site_fract_z
O1	O	1.121741	0.100633	-0.074087
O2	O	1.371741	0.350633	0.175913
O3	O	1.621741	0.600633	0.425913
O4	O	1.871741	0.850633	0.675913
O5	O	0.878076	0.113108	-0.074077
O6	O	1.128076	0.363108	0.175923
O7	O	1.378076	0.613108	0.425923
O8	O	1.628076	0.863108	0.675923
O9	O	0.998461	-0.006945	-0.074075
O10	O	1.248461	0.243055	0.175925
O11	O	1.498461	0.493055	0.425925
O12	O	1.748461	0.743055	0.675925
O13	O	1.001357	0.220686	-0.074089
O14	O	1.251357	0.470686	0.175911
O15	O	1.501357	0.720686	0.425911
O16	O	1.751357	0.970686	0.675911
O17	O	0.998441	-0.006928	0.073989
O18	O	1.248441	0.243072	0.323989
O19	O	1.498441	0.493072	0.573989
O20	O	1.748441	0.743072	0.823989
O21	O	0.878057	0.113125	0.073987
O22	O	1.128057	0.363125	0.323987
O23	O	1.378057	0.613125	0.573987
O24	O	1.628057	0.863125	0.823987
O25	O	1.121722	0.100651	0.073977
O26	O	1.371722	0.350651	0.323977
O27	O	1.621722	0.600651	0.573977
O28	O	1.871722	0.850651	0.823977
Zn29	Zn	0.999886	0.106890	0.097491
Zn30	Zn	1.249886	0.356890	0.347491
Zn31	Zn	1.499886	0.606890	0.597491
Zn32	Zn	1.749886	0.856890	0.847491
Zn33	Zn	0.999912	0.106868	-0.097590
Zn34	Zn	1.249912	0.356868	0.152410
Zn35	Zn	1.499912	0.606868	0.402410
Zn36	Zn	1.749912	0.856868	0.652410
O37	O	1.001338	0.220703	0.073975
O38	O	1.251338	0.470703	0.323975
O39	O	1.501338	0.720703	0.573975
O40	O	1.751338	0.970703	0.823975
C41	C	0.846735	0.112606	-0.000044
C42	C	1.096735	0.362606	0.249956
C43	C	1.346735	0.612606	0.499956
C44	C	1.596735	0.862606	0.749956
C45	C	0.753378	0.111074	-0.000040
C46	C	1.003378	0.361074	0.249960
C47	C	1.253378	0.611074	0.499960
C48	C	1.503378	0.861074	0.749960
C49	C	0.466822	0.180822	-0.000057
C50	C	0.716822	0.430822	0.249943
C51	C	0.966822	0.680822	0.499943
C52	C	1.216822	0.930822	0.749943
C53	C	0.525272	0.144557	-0.073060
C54	C	0.775272	0.394557	0.176940
C55	C	1.025272	0.644557	0.426940
C56	C	1.275272	0.894557	0.676940
C57	C	0.417344	0.105512	-0.000060
C58	C	0.667344	0.355512	0.249940
C59	C	0.917344	0.605512	0.499940
C60	C	1.167344	0.855512	0.749940
C61	C	0.525237	0.144554	0.072920
C62	C	0.775237	0.394554	0.322920
C63	C	1.025237	0.644554	0.572920
C64	C	1.275237	0.894554	0.822920
C65	C	0.582448	0.108249	-0.000048
C66	C	0.832448	0.358249	0.249952
C67	C	1.082448	0.608249	0.499952
C68	C	1.332448	0.858249	0.749952
C69	C	0.474564	0.069226	-0.073123
C70	C	0.724564	0.319226	0.176877
C71	C	0.974564	0.569226	0.426877
C72	C	1.224564	0.819226	0.676877
C73	C	0.474524	0.069233	0.072922
C74	C	0.724524	0.319233	0.322922
C75	C	0.974524	0.569233	0.572922
C76	C	1.224524	0.819233	0.822922
C77	C	0.532953	0.032913	-0.000098
C78	C	0.782953	0.282913	0.249902
C79	C	1.032953	0.532913	0.499902
C80	C	1.282953	0.782913	0.749902
C81	C	0.322232	0.103937	-0.000067
C82	C	0.572232	0.353937	0.249933
C83	C	0.822232	0.603937	0.499933
C84	C	1.072232	0.853937	0.749933
C85	C	0.677559	0.109818	-0.000047
C86	C	0.927559	0.359818	0.249953
C87	C	1.177559	0.609818	0.499953
C88	C	1.427559	0.859818	0.749953
C89	C	0.995817	-0.036065	-0.000043
C90	C	1.245817	0.213935	0.249957
C91	C	1.495817	0.463935	0.499957
C92	C	1.745817	0.713935	0.749957
C93	C	0.987957	-0.122859	-0.000043
C94	C	1.237957	0.127141	0.249957
C95	C	1.487957	0.377141	0.499957
C96	C	1.737957	0.627141	0.749957
C97	C	1.060116	-0.172964	-0.000045
C98	C	1.310116	0.077036	0.249955
C99	C	1.560116	0.327036	0.499955
C100	C	1.810116	0.577036	0.749955
C101	C	1.052726	-0.254516	-0.000053
C102	C	1.302726	-0.004516	0.249947
C103	C	1.552726	0.245484	0.499947
C104	C	1.802726	0.495484	0.749947
C105	C	0.973177	-0.285960	-0.000053
C106	C	1.223177	-0.035960	0.249947
C107	C	1.473177	0.214040	0.499947
C108	C	1.723177	0.464040	0.749947
C109	C	0.901013	-0.235849	-0.000053
C110	C	1.151013	0.014151	0.249947
C111	C	1.401013	0.264151	0.499947
C112	C	1.651013	0.514151	0.749947
C113	C	0.908404	-0.154299	-0.000051
C114	C	1.158404	0.095701	0.249949
C115	C	1.408404	0.345701	0.499949
C116	C	1.658404	0.595701	0.749949
C117	C	0.947068	-0.531721	-0.000064
C118	C	1.197068	-0.281721	0.249936
C119	C	1.447068	-0.031721	0.499936
C120	C	1.697068	0.218279	0.749936
C121	C	0.939682	-0.613278	-0.000063
C122	C	1.189682	-0.363278	0.249937
C123	C	1.439682	-0.113278	0.499937
C124	C	1.689682	0.136722	0.749937
C125	C	1.091396	-0.631939	-0.000064
C126	C	1.341396	-0.381939	0.249936
C127	C	1.591396	-0.131939	0.499936
C128	C	1.841396	0.118061	0.749936
C129	C	1.098780	-0.550387	-0.000057
C130	C	1.348780	-0.300387	0.249943
C131	C	1.598780	-0.050387	0.499943
C132	C	1.848780	0.199613	0.749943
C133	C	1.026616	-0.500282	-0.000062
C134	C	1.276616	-0.250282	0.249938
C135	C	1.526616	-0.000282	0.499938
C136	C	1.776616	0.249718	0.749938
C137	C	0.965622	-0.369319	-0.000058
C138	C	1.215622	-0.119319	0.249942
C139	C	1.465622	0.130681	0.499942
C140	C	1.715622	0.380681	0.749942
C141	C	1.034172	-0.416925	-0.000063
C142	C	1.284172	-0.166925	0.249937
C143	C	1.534172	0.083075	0.499937
C144	C	1.784172	0.333075	0.749937
C145	C	1.153063	0.101153	-0.000058
C146	C	1.403063	0.351153	0.249942
C147	C	1.653063	0.601153	0.499942
C148	C	1.903063	0.851153	0.749942
C149	C	1.246420	0.102684	-0.000068
C150	C	1.496420	0.352684	0.249932
C151	C	1.746420	0.602684	0.499932
C152	C	1.996420	0.852684	0.749932
C153	C	1.003981	0.249823	-0.000059
C154	C	1.253981	0.499823	0.249941
C155	C	1.503981	0.749823	0.499941
C156	C	1.753981	0.999823	0.749941
C157	C	1.011841	0.336617	-0.000065
C158	C	1.261841	0.586617	0.249935
C159	C	1.511841	0.836617	0.499935
C160	C	1.761841	1.086617	0.749935
N161	N	0.999875	0.106905	0.230628
N162	N	1.249875	0.356905	0.480628
N163	N	1.499875	0.606905	0.730628
N164	N	1.749875	0.856905	0.980628
N165	N	0.999929	0.106847	-0.230728
N166	N	1.249929	0.356847	0.019272
N167	N	1.499929	0.606847	0.269272
N168	N	1.749929	0.856847	0.519272
C169	C	0.944198	0.162392	0.470311
C170	C	1.194198	0.412392	0.720311
C171	C	1.444198	0.662392	0.970311
C172	C	1.694198	0.912392	1.220311
C173	C	1.021183	0.177557	0.529641
C174	C	1.271183	0.427557	0.779641
C175	C	1.521183	0.677557	1.029641
C176	C	1.771183	0.927557	1.279641
C177	C	0.999895	0.106886	0.412235
C178	C	1.249895	0.356886	0.662235
C179	C	1.499895	0.606886	0.912235
C180	C	1.749895	0.856886	1.162235
C181	C	0.922932	0.091738	0.529647
C182	C	1.172932	0.341738	0.779647
C183	C	1.422932	0.591738	1.029647
C184	C	1.672932	0.841738	1.279647
C185	C	0.999908	0.106869	0.587659
C186	C	1.249908	0.356869	0.837659
C187	C	1.499908	0.606869	1.087659
C188	C	1.749908	0.856869	1.337659
C189	C	1.076921	0.122087	0.470259
C190	C	1.326921	0.372087	0.720259
C191	C	1.576921	0.622087	0.970259
C192	C	1.826921	0.872087	1.220259
C193	C	0.978617	0.036236	0.470260
C194	C	1.228617	0.286236	0.720260
C195	C	1.478617	0.536236	0.970260
C196	C	1.728617	0.786236	1.220260
C197	C	1.055655	0.051372	0.529563
C198	C	1.305655	0.301372	0.779563
C199	C	1.555655	0.551372	1.029563
C200	C	1.805655	0.801372	1.279563
C201	C	0.999887	0.106898	0.311178
C202	C	1.249887	0.356898	0.561178
C203	C	1.499887	0.606898	0.811178
C204	C	1.749887	0.856898	1.061178
C205	C	0.999925	0.106856	0.688715
C206	C	1.249925	0.356856	0.938715
C207	C	1.499925	0.606856	1.188715
C208	C	1.749925	0.856856	1.438715
H209	H	0.452127	0.037413	0.134646
H210	H	0.702127	0.287413	0.384646
H211	H	0.952127	0.537413	0.634646
H212	H	1.202127	0.787413	0.884646
H213	H	1.098940	-0.391320	-0.000083
H214	H	1.348940	-0.141320	0.249917
H215	H	1.598940	0.108680	0.499917
H216	H	1.848940	0.358680	0.749917
H217	H	0.452321	0.037395	-0.134910
H218	H	0.702321	0.287395	0.115090
H219	H	0.952321	0.537395	0.365090
H220	H	1.202321	0.787395	0.615090
H221	H	1.142032	0.134963	0.444282
H222	H	1.392032	0.384963	0.694282
H223	H	1.642032	0.634963	0.944282
H224	H	1.892032	0.884963	1.194282
H225	H	1.102816	0.004422	0.555416
H226	H	1.352816	0.254422	0.805416
H227	H	1.602816	0.504422	1.055416
H228	H	1.852816	0.754422	1.305416
H229	H	0.897151	0.209369	0.444294
H230	H	1.147151	0.459369	0.694294
H231	H	1.397151	0.709369	0.944294
H232	H	1.647151	0.959369	1.194294
H233	H	0.874901	-0.638876	-0.000048
H234	H	1.124901	-0.388876	0.249952
H235	H	1.374901	-0.138876	0.499952
H236	H	1.624901	0.111124	0.749952
H237	H	0.888306	-0.490935	-0.000068
H238	H	1.138306	-0.240935	0.249932
H239	H	1.388306	0.009065	0.499932
H240	H	1.638306	0.259065	0.749932
H241	H	1.124893	-0.147369	-0.000039
H242	H	1.374893	0.102631	0.249961
H243	H	1.624893	0.352631	0.499961
H244	H	1.874893	0.602631	0.749961
H245	H	0.960587	-0.023484	0.444156
H246	H	1.210587	0.226516	0.694156
H247	H	1.460587	0.476516	0.944156
H248	H	1.710587	0.726516	1.194156
H249	H	0.561664	-0.029643	-0.000133
H250	H	0.811664	0.220357	0.249867
H251	H	1.061664	0.470357	0.499867
H252	H	1.311664	0.720357	0.749867
H253	H	1.039192	0.237296	0.555723
H254	H	1.289192	0.487296	0.805723
H255	H	1.539192	0.737296	1.055723
H256	H	1.789192	0.987296	1.305723
H257	H	0.547580	0.176427	0.134635
H258	H	0.797580	0.426427	0.384635
H259	H	1.047580	0.676427	0.634635
H260	H	1.297580	0.926427	0.884635
H261	H	1.111485	-0.295309	-0.000052
H262	H	1.361485	-0.045309	0.249948
H263	H	1.611485	0.204691	0.499948
H264	H	1.861485	0.454691	0.749948
H265	H	0.836243	-0.261457	-0.000059
H266	H	1.086243	-0.011457	0.249941
H267	H	1.336243	0.238543	0.499941
H268	H	1.586243	0.488543	0.749941
H269	H	1.163557	-0.524791	-0.000057
H270	H	1.413557	-0.274791	0.249943
H271	H	1.663557	-0.024791	0.499943
H272	H	1.913557	0.225209	0.749943
H273	H	0.857840	0.078933	0.555735
H274	H	1.107840	0.328933	0.805735
H275	H	1.357840	0.578933	1.055735
H276	H	1.607840	0.828933	1.305735
H277	H	1.150147	-0.672743	-0.000061
H278	H	1.400147	-0.422743	0.249939
H279	H	1.650147	-0.172743	0.499939
H280	H	1.900147	0.077257	0.749939
H281	H	0.849644	-0.113503	-0.000050
H282	H	1.099644	0.136497	0.249950
H283	H	1.349644	0.386497	0.499950
H284	H	1.599644	0.636497	0.749950
H285	H	0.900852	-0.394930	-0.000056
H286	H	1.150852	-0.144930	0.249944
H287	H	1.400852	0.105070	0.499944
H288	H	1.650852	0.355070	0.749944
H289	H	0.547652	0.176406	-0.134778
H290	H	0.797652	0.426406	0.115222
H291	H	1.047652	0.676406	0.365222
H292	H	1.297652	0.926406	0.615222
H293	H	0.437954	0.243322	-0.000132
H294	H	0.687954	0.493322	0.249868
H295	H	0.937954	0.743322	0.499868
H296	H	1.187954	0.993322	0.749868
