data_functionalizedCrystal
_audit_creation_method	'MofGen! by Chris Wilmer'
_symmetry_space_group_name_H-M	'P1'
_symmetry_Int_Tables_number	1
_symmetry_cell_setting	triclinic
loop_
_symmetry_equiv_pos_as_xyz
  x,y,z
_cell_length_a	18.215407
_cell_length_b	13.897448
_cell_length_c	13.897441
_cell_angle_alpha	90.029627
_cell_angle_beta	90.019897
_cell_angle_gamma	90.018140
loop_
_atom_site_label
_atom_site_type_symbol
_atom_site_fract_x
_atom_site_fract_y
_atom_site_fract_z
Zn1	Zn	1.125109	-0.383982	0.545415
Zn2	Zn	1.625109	0.116018	1.045415
Zn3	Zn	1.125033	-0.545301	0.384116
Zn4	Zn	1.625033	-0.045301	0.884116
Zn5	Zn	1.002042	-0.384023	0.384129
Zn6	Zn	1.502042	0.115977	0.884129
Zn7	Zn	1.002023	-0.545238	0.545365
Zn8	Zn	1.502023	-0.045238	1.045365
O9	O	1.063552	-0.464636	0.464756
O10	O	1.563552	0.035364	0.964756
O11	O	1.228083	-0.405390	0.524033
O12	O	1.728083	0.094610	1.024033
O13	O	1.108694	-0.523950	0.249136
O14	O	1.608694	-0.023950	0.749136
O15	O	1.018406	-0.249036	0.405551
O16	O	1.518406	0.250964	0.905551
O17	O	1.228027	-0.523911	0.405528
O18	O	1.728027	-0.023911	0.905528
O19	O	1.108824	-0.249006	0.524046
O20	O	1.608824	0.250994	1.024046
O21	O	1.018333	-0.405460	0.249146
O22	O	1.518333	0.094540	0.749146
O23	O	0.899055	-0.405399	0.405502
O24	O	1.399055	0.094601	0.905502
O25	O	1.018375	-0.523803	0.680353
O26	O	1.518375	-0.023803	1.180353
O27	O	0.899041	-0.523843	0.523962
O28	O	1.399041	-0.023843	1.023962
O29	O	1.108806	-0.405329	0.680390
O30	O	1.608806	0.094671	1.180390
O31	O	1.108676	-0.680274	0.405480
O32	O	1.608676	-0.180274	0.905480
O33	O	1.018301	-0.680228	0.523949
O34	O	1.518301	-0.180228	1.023949
C35	C	0.872345	-0.464619	0.464729
C36	C	1.372345	0.035381	0.964729
C37	C	0.790547	-0.464635	0.464740
C38	C	1.290547	0.035365	0.964740
C39	C	0.602365	-0.526406	0.526344
C40	C	1.102365	-0.026406	1.026344
C41	C	0.525506	-0.526409	0.526356
C42	C	1.025506	-0.026409	1.026356
C43	C	0.525491	-0.402883	0.403190
C44	C	1.025491	0.097117	0.903190
C45	C	0.602348	-0.402876	0.403183
C46	C	1.102348	0.097124	0.903183
C47	C	0.640783	-0.464643	0.464759
C48	C	1.140783	0.035357	0.964759
C49	C	0.487067	-0.464653	0.464777
C50	C	0.987067	0.035347	0.964777
C51	C	0.403733	-0.464656	0.464790
C52	C	0.903733	0.035344	0.964790
C53	C	0.724122	-0.464639	0.464748
C54	C	1.224122	0.035361	0.964748
C55	C	1.063498	-0.715250	0.464728
C56	C	1.563498	-0.215250	0.964728
C57	C	1.063542	-0.822464	0.464749
C58	C	1.563542	-0.322464	0.964749
C59	C	1.063620	-1.018759	0.464809
C60	C	1.563620	-0.518759	0.964809
C61	C	1.063575	-0.909527	0.464778
C62	C	1.563575	-0.409527	0.964778
C63	C	1.255505	-0.464653	0.464785
C64	C	1.755505	0.035347	0.964785
C65	C	1.337303	-0.464660	0.464797
C66	C	1.837303	0.035340	0.964797
C67	C	1.063597	-0.464555	0.716349
C68	C	1.563597	0.035445	1.216349
C69	C	1.063616	-0.464520	0.823563
C70	C	1.563616	0.035480	1.323563
C71	C	1.063626	-0.213043	0.464805
C72	C	1.563626	0.286957	0.964805
C73	C	1.063657	-0.105829	0.464826
C74	C	1.563657	0.394171	0.964826
C75	C	1.063549	-0.464647	0.214142
C76	C	1.563549	0.035353	0.714142
C77	C	1.063673	-0.464410	0.106928
C78	C	1.563673	0.035590	0.606928
C79	C	1.063631	-0.464493	0.910633
C80	C	1.563631	0.035507	1.410633
C81	C	1.063652	-0.464450	1.019866
C82	C	1.563652	0.035550	1.519866
H83	H	0.633656	-0.576699	0.576485
H84	H	1.133656	-0.076699	1.076485
C85	C	0.594619	-0.280778	0.281426
C86	C	1.094619	0.219222	0.781426
C87	C	0.644583	-0.334983	0.335480
C88	C	1.144583	0.165017	0.835480
H89	H	0.620695	-0.238870	0.239630
H90	H	1.120695	0.261130	0.739630
H91	H	0.564663	-0.243934	0.323515
H92	H	1.064663	0.256066	0.823515
H93	H	0.564621	-0.322773	0.244461
H94	H	1.064621	0.177227	0.744461
H95	H	0.674578	-0.292988	0.372451
H96	H	1.174578	0.207012	0.872451
H97	H	0.674551	-0.371830	0.293386
H98	H	1.174551	0.128170	0.793386
H99	H	0.494187	-0.352596	0.353056
H100	H	0.994187	0.147404	0.853056
C101	C	0.533246	-0.648517	0.648088
C102	C	1.033246	-0.148517	1.148088
C103	C	0.483277	-0.594306	0.594048
C104	C	0.983277	-0.094306	1.094048
H105	H	0.507174	-0.690438	0.689876
H106	H	1.007174	-0.190438	1.189876
H107	H	0.563243	-0.606534	0.685053
H108	H	1.063243	-0.106534	1.185053
H109	H	0.563203	-0.685356	0.605982
H110	H	1.063203	-0.185356	1.105982
H111	H	0.453323	-0.557461	0.636154
H112	H	0.953323	-0.057461	1.136154
H113	H	0.453268	-0.636294	0.557081
H114	H	0.953268	-0.136294	1.057081
