data_functionalizedCrystal
_audit_creation_method	'MofGen! by Chris Wilmer'
_symmetry_space_group_name_H-M	'P1'
_symmetry_Int_Tables_number	1
_symmetry_cell_setting	triclinic
loop_
_symmetry_equiv_pos_as_xyz
  x,y,z
_cell_length_a	18.050589
_cell_length_b	21.395364
_cell_length_c	21.395355
_cell_angle_alpha	89.975448
_cell_angle_beta	89.987098
_cell_angle_gamma	90.043172
loop_
_atom_site_label
_atom_site_type_symbol
_atom_site_fract_x
_atom_site_fract_y
_atom_site_fract_z
Zn1	Zn	-0.295449	0.957870	-0.354286
Zn2	Zn	-0.419621	0.957777	-0.249519
Zn3	Zn	-0.295482	0.853085	-0.249523
Zn4	Zn	-0.419634	0.853059	-0.354259
O5	O	-0.357547	0.905448	-0.301897
O6	O	-0.311902	1.045536	-0.340398
O7	O	-0.403162	0.943862	-0.161841
O8	O	-0.191553	0.867035	-0.263433
O9	O	-0.403130	1.045467	-0.263426
O10	O	-0.191529	0.944020	-0.340402
O11	O	-0.311957	0.866945	-0.161844
O12	O	-0.311970	0.765404	-0.263406
O13	O	-0.403153	0.866990	-0.441940
O14	O	-0.403184	0.765384	-0.340356
O15	O	-0.311915	0.943995	-0.441960
O16	O	-0.523547	0.943836	-0.263400
O17	O	-0.523557	0.866900	-0.340352
C18	C	-0.357583	0.742660	-0.301879
C19	C	-0.357616	0.673019	-0.301886
C20	C	-0.310191	0.640364	-0.342028
C21	C	-0.310171	0.574928	-0.342030
C22	C	-0.357590	0.542151	-0.301898
C23	C	-0.405018	0.574814	-0.261749
C24	C	-0.405031	0.640248	-0.261743
C25	C	-0.424470	0.438429	-0.296866
C26	C	-0.424458	0.372996	-0.296876
C27	C	-0.357549	0.340330	-0.301912
C28	C	-0.290650	0.373105	-0.306951
C29	C	-0.290663	0.438539	-0.306945
C30	C	-0.357581	0.471198	-0.301899
C31	C	-0.310099	0.236722	-0.342058
C32	C	-0.310078	0.171285	-0.342056
C33	C	-0.404931	0.171172	-0.261778
C34	C	-0.404945	0.236607	-0.261776
C35	C	-0.357530	0.269379	-0.301920
C36	C	-0.550499	0.905372	-0.301886
C37	C	-0.633045	0.905397	-0.301903
C38	C	-0.832527	0.863600	-0.343735
C39	C	-0.881960	0.848322	-0.286561
C40	C	-0.784175	0.905459	-0.301911
C41	C	-0.881824	0.920768	-0.359090
C42	C	-0.930160	0.905517	-0.301924
C43	C	-0.832520	0.890150	-0.244707
C44	C	-0.832380	0.962622	-0.317275
C45	C	-0.881790	0.947366	-0.260062
C46	C	-0.700077	0.905423	-0.301904
C47	C	-1.014256	0.905552	-0.301924
C48	C	-0.163841	0.905541	-0.301921
C49	C	-0.081295	0.905580	-0.301931
C50	C	-0.357532	0.905500	-0.465320
C51	C	-0.357525	0.905522	-0.534961
C52	C	-0.357511	1.068871	-0.301915
C53	C	-0.357496	1.138512	-0.301922
C54	C	-0.310015	0.945616	-0.567686
C55	C	-0.309983	0.945616	-0.633121
C56	C	-0.357475	0.905527	-0.665830
C57	C	-0.404988	0.865425	-0.633097
C58	C	-0.405013	0.865422	-0.567663
C59	C	-0.424345	0.900553	-0.769501
C60	C	-0.424321	0.900560	-0.834934
C61	C	-0.357396	0.905531	-0.867650
C62	C	-0.290493	0.910508	-0.834926
C63	C	-0.290518	0.910505	-0.769492
C64	C	-0.357452	0.905525	-0.736782
C65	C	-0.309848	0.945626	-0.971327
C66	C	-0.309814	0.945621	-1.036764
C67	C	-0.404825	0.865433	-1.036739
C68	C	-0.404852	0.865435	-0.971304
C69	C	-0.357364	0.905535	-0.938602
C70	C	-0.357508	0.905432	-0.139109
C71	C	-0.357305	0.905531	-0.069468
H72	H	-0.271454	0.144699	-0.374743
H73	H	-0.903481	0.933693	-0.407442
O74	O	-0.451065	0.826409	-0.535844
C75	C	-0.461111	0.741839	-0.461902
C76	C	-0.408870	0.785971	-0.497909
H77	H	-0.427018	0.709143	-0.431213
H78	H	-0.495035	0.713138	-0.496489
H79	H	-0.499964	0.770601	-0.431313
H80	H	-0.369972	0.757258	-0.528499
H81	H	-0.374998	0.814674	-0.463288
H82	H	-0.271549	0.548335	-0.374717
H83	H	-0.443652	0.666835	-0.229054
H84	H	-0.810895	0.828150	-0.379053
H85	H	-0.271486	0.263406	-0.374741
O86	O	-0.450972	0.139243	-0.222853
C87	C	-0.492958	0.038388	-0.187257
C88	C	-0.440793	0.074473	-0.231384
H89	H	-0.484736	-0.013985	-0.194129
H90	H	-0.552879	0.051165	-0.198175
H91	H	-0.479842	0.051276	-0.136759
H92	H	-0.453842	0.061604	-0.281896
H93	H	-0.380887	0.061692	-0.220411
O94	O	-0.806673	0.874644	-0.187052
C95	C	-0.699390	0.857255	-0.122354
C96	C	-0.728563	0.874812	-0.187677
H97	H	-0.636235	0.857398	-0.122834
H98	H	-0.720201	0.808686	-0.109166
H99	H	-0.720144	0.892731	-0.086685
H100	H	-0.707821	0.839378	-0.223390
H101	H	-0.707758	0.923397	-0.200812
H102	H	-0.903753	0.800008	-0.273578
O103	O	-0.225584	0.341479	-0.311872
C104	C	-0.092862	0.348498	-0.321822
C105	C	-0.166492	0.384394	-0.316265
H106	H	-0.045065	0.383179	-0.325362
H107	H	-0.094029	0.317898	-0.365420
H108	H	-0.084981	0.317834	-0.278748
H109	H	-0.174419	0.415092	-0.359306
H110	H	-0.165290	0.414955	-0.272641
O111	O	-0.489379	0.895595	-0.737769
C112	C	-0.598107	0.833332	-0.717669
C113	C	-0.524502	0.838905	-0.753669
H114	H	-0.626518	0.787496	-0.730501
H115	H	-0.635690	0.874161	-0.730522
H116	H	-0.586577	0.834198	-0.665290
H117	H	-0.535964	0.838022	-0.806055
H118	H	-0.486942	0.798079	-0.740763
O119	O	-0.451090	0.268235	-0.222767
C120	C	-0.545137	0.261216	-0.143118
C121	C	-0.492928	0.225320	-0.187278
H122	H	-0.578964	0.226534	-0.114403
H123	H	-0.584075	0.291817	-0.171795
H124	H	-0.510977	0.291877	-0.110430
H125	H	-0.527027	0.194624	-0.219974
H126	H	-0.453987	0.194758	-0.158561
H127	H	-0.903285	0.982789	-0.224658
O128	O	-0.263978	0.984614	-0.535884
C129	C	-0.253955	1.069156	-0.461983
C130	C	-0.306186	1.025052	-0.497978
H131	H	-0.288059	1.101852	-0.431317
H132	H	-0.219991	1.097858	-0.496579
H133	H	-0.215138	1.040372	-0.431372
H134	H	-0.345048	1.053787	-0.528590
H135	H	-0.340097	0.996347	-0.463348
O136	O	-0.489540	0.470060	-0.292001
C137	C	-0.622256	0.463045	-0.281988
C138	C	-0.548624	0.427147	-0.287506
H139	H	-0.670043	0.428366	-0.278339
H140	H	-0.630224	0.493676	-0.325075
H141	H	-0.621003	0.493678	-0.238416
H142	H	-0.549824	0.396480	-0.331052
H143	H	-0.540684	0.396555	-0.244388
H144	H	-0.478932	0.346315	-0.292776
H145	H	-0.810588	1.010926	-0.330286
H146	H	-0.271291	0.978264	-0.659771
O147	O	-0.451146	0.826425	-0.664770
C148	C	-0.545415	0.746916	-0.657841
C149	C	-0.493167	0.791045	-0.621895
H150	H	-0.579414	0.718310	-0.623192
H151	H	-0.511351	0.714132	-0.688445
H152	H	-0.584198	0.775676	-0.688505
H153	H	-0.454374	0.762336	-0.591197
H154	H	-0.527278	0.823832	-0.591331
H155	H	-0.236044	0.914556	-0.742851
H156	H	-0.443486	0.832786	-1.063369
H157	H	-0.443626	0.548122	-0.229072
O158	O	-0.225479	0.915215	-0.866722
C159	C	-0.142246	0.867334	-0.940581
C160	C	-0.215882	0.861920	-0.904601
H161	H	-0.134471	0.824257	-0.971225
H162	H	-0.094408	0.870847	-0.905977
H163	H	-0.143371	0.910934	-0.971213
H164	H	-0.214830	0.818321	-0.873969
H165	H	-0.263688	0.858441	-0.939240
H166	H	-0.271122	0.978270	-1.063407
O167	O	-0.264162	0.672126	-0.381103
C168	C	-0.228326	0.692254	-0.487731
C169	C	-0.280490	0.656233	-0.443551
H170	H	-0.241518	0.679428	-0.538230
H171	H	-0.168411	0.679412	-0.476865
H172	H	-0.236463	0.744629	-0.480802
H173	H	-0.272419	0.603850	-0.450456
H174	H	-0.340386	0.669127	-0.454428
O175	O	-0.225720	0.470446	-0.311746
C176	C	-0.142409	0.544338	-0.263917
C177	C	-0.215983	0.508254	-0.258411
H178	H	-0.134505	0.574904	-0.220796
H179	H	-0.143627	0.575038	-0.307469
H180	H	-0.094597	0.509745	-0.267547
H181	H	-0.263835	0.542802	-0.254756
H182	H	-0.214701	0.477544	-0.214868
H183	H	-0.271176	0.978275	-0.944700
O184	O	-0.451077	0.826470	-0.939608
C185	C	-0.545274	0.746906	-0.946491
C186	C	-0.492975	0.791017	-0.982463
H187	H	-0.579151	0.718221	-0.981123
H188	H	-0.584162	0.775620	-0.915887
H189	H	-0.511182	0.714188	-0.915824
H190	H	-0.527007	0.823744	-1.013163
H191	H	-0.454085	0.762265	-1.013027
O192	O	-0.489304	0.895847	-0.866742
C193	C	-0.572484	0.943726	-0.940655
C194	C	-0.498877	0.949143	-0.904666
H195	H	-0.580241	0.986803	-0.971335
H196	H	-0.620349	0.940207	-0.906055
H197	H	-0.571331	0.900127	-0.971251
H198	H	-0.499958	0.992740	-0.874069
H199	H	-0.451044	0.952627	-0.939299
