data_functionalizedCrystal
_audit_creation_method	'MofGen! by Chris Wilmer'
_symmetry_space_group_name_H-M	'P1'
_symmetry_Int_Tables_number	1
_symmetry_cell_setting	triclinic
loop_
_symmetry_equiv_pos_as_xyz
  x,y,z
_cell_length_a	15.944551
_cell_length_b	9.065218
_cell_length_c	8.140239
_cell_angle_alpha	90.001686
_cell_angle_beta	89.998231
_cell_angle_gamma	84.257312
loop_
_atom_site_label
_atom_site_type_symbol
_atom_site_fract_x
_atom_site_fract_y
_atom_site_fract_z
O1	O	-1.115964	-0.190270	-0.136435
O2	O	-0.615964	0.309730	0.363565
O3	O	-0.871592	-0.213728	-0.136475
O4	O	-0.371592	0.286272	0.363525
O5	O	-0.998829	0.012762	-0.136451
O6	O	-0.498829	0.512762	0.363549
O7	O	-0.988727	-0.416759	-0.136459
O8	O	-0.488727	0.083241	0.363541
O9	O	-0.998822	0.012764	0.136776
O10	O	-0.498822	0.512764	0.636776
O11	O	-0.871585	-0.213725	0.136752
O12	O	-0.371585	0.286275	0.636752
O13	O	-1.115956	-0.190267	0.136792
O14	O	-0.615956	0.309733	0.636792
Zn15	Zn	-0.993769	-0.201996	0.180152
Zn16	Zn	-0.493769	0.298004	0.680152
Zn17	Zn	-0.993779	-0.201999	-0.179836
Zn18	Zn	-0.493779	0.298001	0.320164
O19	O	-0.988719	-0.416757	0.136768
O20	O	-0.488719	0.083243	0.636768
C21	C	-0.840287	-0.212753	0.000133
C22	C	-0.340287	0.287247	0.500133
C23	C	-0.747019	-0.209833	0.000118
C24	C	-0.247019	0.290167	0.500118
C25	C	-0.997854	0.067727	0.000160
C26	C	-0.497854	0.567727	0.500160
C27	C	-0.994951	0.231502	0.000151
C28	C	-0.494951	0.731502	0.500151
C29	C	-1.147261	-0.191242	0.000180
C30	C	-0.647261	0.308758	0.500180
C31	C	-1.240530	-0.194162	0.000185
C32	C	-0.740530	0.305838	0.500185
C33	C	-0.531045	-0.062466	0.000152
C34	C	-0.031045	0.437534	0.500152
C35	C	-0.470547	-0.130900	-0.134564
C36	C	0.029453	0.369100	0.365436
C37	C	-0.576253	-0.204551	0.000137
C38	C	-0.076253	0.295449	0.500137
C39	C	-0.470563	-0.130931	0.134816
C40	C	0.029437	0.369069	0.634816
C41	C	-0.411301	-0.199439	0.000163
C42	C	0.088699	0.300561	0.500163
C43	C	-0.516983	-0.273024	-0.134691
C44	C	-0.016983	0.226976	0.365309
C45	C	-0.517005	-0.273035	0.134811
C46	C	-0.017005	0.226965	0.634811
C47	C	-0.456525	-0.341573	0.000061
C48	C	0.043475	0.158427	0.500061
C49	C	-0.671277	-0.207493	0.000121
C50	C	-0.171277	0.292507	0.500121
C51	C	-0.316278	-0.196509	0.000168
C52	C	0.183722	0.303491	0.500168
C53	C	-0.989694	-0.471722	0.000153
C54	C	-0.489694	0.028278	0.500153
C55	C	-0.992597	-0.635497	0.000151
C56	C	-0.492597	-0.135497	0.500151
N57	N	-0.993769	-0.201993	0.425835
N58	N	-0.493769	0.298007	0.925835
N59	N	-0.993786	-0.201991	-0.425519
N60	N	-0.493786	0.298009	0.074481
H61	H	-0.563485	0.055454	-0.000012
H62	H	-0.063485	0.555454	0.499988
H63	H	-0.449985	-0.070804	-0.248456
H64	H	0.050015	0.429196	0.251544
N65	N	-0.542636	-0.348390	-0.277697
N66	N	-0.042636	0.151610	0.222303
N67	N	-0.618893	-0.362760	-0.300805
N68	N	-0.118893	0.137240	0.199195
H69	H	-0.637012	-0.415995	-0.401795
H70	H	-0.137012	0.084005	0.098205
N71	N	-0.444776	-0.055510	0.277677
N72	N	0.055224	0.444490	0.777677
N73	N	-0.406460	0.057480	0.262709
N74	N	0.093540	0.557480	0.762709
H75	H	-0.388249	0.110756	0.363596
H76	H	0.111751	0.610756	0.863596
N77	N	-0.416055	-0.489656	-0.000045
N78	N	0.083945	0.010344	0.499955
N79	N	-0.428418	-0.575442	-0.115819
N80	N	0.071582	-0.075442	0.384181
H81	H	-0.399836	-0.680026	-0.115901
H82	H	0.100164	-0.180026	0.384099
H83	H	-0.537588	-0.333081	0.248707
H84	H	-0.037588	0.166919	0.748707
