data_functionalizedCrystal
_audit_creation_method	'MofGen! by Chris Wilmer'
_symmetry_space_group_name_H-M	'P1'
_symmetry_Int_Tables_number	1
_symmetry_cell_setting	triclinic
loop_
_symmetry_equiv_pos_as_xyz
  x,y,z
_cell_length_a	14.971482
_cell_length_b	8.559649
_cell_length_c	13.448316
_cell_angle_alpha	89.994831
_cell_angle_beta	89.993798
_cell_angle_gamma	76.695636
loop_
_atom_site_label
_atom_site_type_symbol
_atom_site_fract_x
_atom_site_fract_y
_atom_site_fract_z
O1	O	1.172525	0.208175	-0.082674
O2	O	0.910396	0.233114	-0.082679
O3	O	1.064554	-0.011914	-0.082675
O4	O	1.018367	0.453203	-0.082678
O5	O	1.064538	-0.011929	0.082709
O6	O	0.910380	0.233099	0.082705
O7	O	1.172508	0.208160	0.082710
Cu8	Cu	1.041443	0.220628	0.097808
Cu9	Cu	1.041462	0.220646	-0.097777
O10	O	1.018350	0.453188	0.082706
C11	C	0.877140	0.231992	0.000013
C12	C	0.778074	0.228653	0.000011
C13	C	0.731530	0.227072	0.090163
C14	C	0.638451	0.223909	0.090164
C15	C	0.591916	0.222339	0.000012
C16	C	0.638468	0.223915	-0.090147
C17	C	0.731547	0.227066	-0.090147
C18	C	0.444461	0.217350	-0.090140
C19	C	0.351374	0.214202	-0.090141
C20	C	0.351364	0.214193	0.090170
C21	C	0.444444	0.217345	0.090170
C22	C	0.490988	0.218924	0.000011
C23	C	1.068046	-0.071445	0.000015
C24	C	1.078465	-0.248805	0.000010
C25	C	1.205764	0.209282	0.000016
C26	C	1.304830	0.212621	0.000011
C27	C	1.014858	0.512719	0.000014
C28	C	1.004439	0.690079	0.000013
N29	N	1.041436	0.220614	0.235373
N30	N	1.041477	0.220647	-0.235342
C31	C	1.109713	0.112161	0.287414
C32	C	1.109718	0.112159	0.391518
C33	C	1.041450	0.220621	0.443577
C34	C	0.973166	0.329080	0.391528
C35	C	0.973158	0.329072	0.287427
C36	C	0.973190	0.329090	0.608508
C37	C	0.973200	0.329100	0.712617
C38	C	1.109751	0.112178	0.712599
C39	C	1.109743	0.112170	0.608498
C40	C	1.041459	0.220632	0.556456
H41	H	0.600562	0.222595	0.163575
H42	H	1.149817	-0.332176	0.000019
N43	N	0.301159	0.212488	0.187409
H44	H	0.275502	0.113330	0.190828
H45	H	0.345113	0.211777	0.244461
H46	H	1.165308	0.023846	0.245035
H47	H	0.482354	0.218637	-0.163557
H48	H	0.933092	-0.226559	0.000015
N49	N	0.494635	0.219062	0.187402
H50	H	0.451027	0.217584	0.244518
H51	H	0.547309	0.121408	0.191332
H52	H	1.165314	0.023847	0.433890
H53	H	0.600573	0.222625	-0.163550
N54	N	0.899538	0.446061	0.447682
H55	H	0.902041	0.559482	0.429551
H56	H	0.837372	0.427334	0.429565
N57	N	1.183377	-0.004799	0.552344
H58	H	1.226635	-0.073510	0.601107
H59	H	1.153992	-0.075530	0.509165
H60	H	0.917608	0.417419	0.754998
N61	N	1.183403	-0.004805	0.768722
H62	H	1.173050	0.011649	0.842570
H63	H	1.180867	-0.118178	0.750535
H64	H	0.917584	0.417406	0.566139
N65	N	0.899511	0.446045	0.231298
H66	H	0.902015	0.559472	0.249399
H67	H	0.909901	0.429443	0.157468
N68	N	0.781710	0.228779	0.187403
H69	H	0.779562	0.129265	0.226817
H70	H	0.847713	0.231082	0.173647
N71	N	0.301172	0.212501	-0.187366
H72	H	0.303319	0.312006	-0.226791
H73	H	0.331446	0.114017	-0.226698
N74	N	0.781755	0.228759	-0.187381
H75	H	0.738153	0.227287	-0.244493
H76	H	0.806325	0.329028	-0.191314
