data_functionalizedCrystal
_audit_creation_method	'MofGen! by Chris Wilmer'
_symmetry_space_group_name_H-M	'P1'
_symmetry_Int_Tables_number	1
_symmetry_cell_setting	triclinic
loop_
_symmetry_equiv_pos_as_xyz
  x,y,z
_cell_length_a	10.489741
_cell_length_b	10.489746
_cell_length_c	8.140239
_cell_angle_alpha	89.996166
_cell_angle_beta	89.999967
_cell_angle_gamma	84.540238
loop_
_atom_site_label
_atom_site_type_symbol
_atom_site_fract_x
_atom_site_fract_y
_atom_site_fract_z
O1	O	1.694054	0.179966	-0.136513
O2	O	1.322859	0.196858	-0.136539
O3	O	1.516899	0.002815	-0.136513
O4	O	1.500013	0.374009	-0.136539
O5	O	1.516888	0.002812	0.136714
O6	O	1.322848	0.196856	0.136688
O7	O	1.694043	0.179963	0.136714
Zn8	Zn	1.508444	0.188409	0.180082
Zn9	Zn	1.508458	0.188412	-0.179907
O10	O	1.500003	0.374007	0.136688
C11	C	1.275321	0.195581	0.000071
C12	C	1.133692	0.191764	0.000062
C13	C	1.065550	0.068300	0.000086
C14	C	0.973429	0.126624	-0.134630
C15	C	0.973453	0.126651	0.134751
C16	C	1.043437	0.250139	-0.134765
C17	C	1.043470	0.250149	0.134736
C18	C	0.951377	0.308564	-0.000012
C19	C	1.515617	-0.044718	0.000100
C20	C	1.511797	-0.186347	0.000098
C21	C	1.386074	-0.339205	0.000069
C22	C	1.448936	-0.261812	-0.134638
C23	C	1.448955	-0.261855	0.134742
C24	C	1.567917	-0.361303	-0.134757
C25	C	1.567919	-0.361352	0.134745
C26	C	1.630868	-0.284008	0.000004
C27	C	1.741580	0.181240	0.000100
C28	C	1.883210	0.185057	0.000099
C29	C	1.501285	0.421540	0.000071
C30	C	1.505105	0.563169	0.000062
N31	N	1.508443	0.188407	0.425764
N32	N	1.508468	0.188405	-0.425589
H33	H	1.074270	0.302340	-0.248786
C34	C	1.635727	-0.420132	0.288607
H35	H	1.593286	-0.385928	0.384237
H36	H	1.722216	-0.400296	0.289586
H37	H	1.633483	-0.510447	0.286942
C38	C	0.931599	0.056057	0.288613
H39	H	0.971083	-0.029294	0.288439
H40	H	0.841170	0.054811	0.288050
H41	H	0.956754	0.099091	0.384275
C42	C	0.884598	0.445811	-0.000108
H43	H	0.833180	0.458606	0.095633
H44	H	0.832086	0.458082	-0.094938
H45	H	0.947339	0.505421	-0.001054
C46	C	1.085422	0.320658	0.288590
H47	H	1.061721	0.276670	0.384226
H48	H	1.044750	0.405527	0.289555
H49	H	1.175695	0.323245	0.286927
C50	C	1.246266	-0.372630	-0.000131
H51	H	1.204165	-0.338384	-0.095976
H52	H	1.203565	-0.337101	0.094594
H53	H	1.244823	-0.463043	0.000826
H54	H	1.398692	-0.218336	-0.248533
C55	C	1.770788	-0.250932	-0.000070
H56	H	1.786239	-0.202954	0.095674
H57	H	1.785785	-0.201730	-0.094897
H58	H	1.826663	-0.327716	-0.001008
C59	C	1.635747	-0.419752	-0.288794
H60	H	1.666513	-0.353544	-0.353036
H61	H	1.576963	-0.463026	-0.351769
H62	H	1.705628	-0.478736	-0.256602
C63	C	1.132664	-0.068812	-0.000111
H64	H	1.108856	-0.112466	-0.095955
H65	H	1.107724	-0.113143	0.094615
H66	H	1.222838	-0.065405	0.000841
C67	C	0.931522	0.056057	-0.288473
H68	H	0.970982	-0.029304	-0.288307
H69	H	0.956641	0.099098	-0.384144
H70	H	0.841085	0.054817	-0.287853
C71	C	1.381043	-0.203163	0.288589
H72	H	1.294139	-0.221701	0.288402
H73	H	1.384630	-0.113018	0.288018
H74	H	1.422450	-0.238585	0.384263
