data_functionalizedCrystal
_audit_creation_method	'MofGen! by Chris Wilmer'
_symmetry_space_group_name_H-M	'P1'
_symmetry_Int_Tables_number	1
_symmetry_cell_setting	triclinic
loop_
_symmetry_equiv_pos_as_xyz
  x,y,z
_cell_length_a	16.992694
_cell_length_b	12.837942
_cell_length_c	15.455313
_cell_angle_alpha	92.949088
_cell_angle_beta	87.142206
_cell_angle_gamma	92.748582
loop_
_atom_site_label
_atom_site_type_symbol
_atom_site_fract_x
_atom_site_fract_y
_atom_site_fract_z
O1	O	1.060029	0.216906	-0.072020
O2	O	0.831564	0.214478	-0.072045
O3	O	0.940730	0.064370	-0.072028
O4	O	0.950863	0.367014	-0.072037
O5	O	0.934485	0.072916	0.072233
O6	O	0.825318	0.223024	0.072216
O7	O	1.053784	0.225452	0.072241
Cu8	Cu	0.938981	0.225018	0.085401
Cu9	Cu	0.946367	0.214912	-0.085205
O10	O	0.944617	0.375560	0.072224
C11	C	0.798995	0.215629	0.000082
C12	C	0.711256	0.206315	0.000072
C13	C	0.934185	0.029739	0.000102
C14	C	0.923977	-0.086184	0.000099
C15	C	0.667730	0.296178	0.000070
C16	C	0.585288	0.287422	0.000082
C17	C	0.546375	0.188801	0.000091
C18	C	0.589907	0.098931	0.000095
C19	C	0.672346	0.107689	0.000089
C20	C	0.300064	0.152503	0.000115
C21	C	0.217618	0.143751	0.000118
C22	C	0.213006	0.332243	0.000107
C23	C	0.295447	0.340992	0.000096
C24	C	0.338972	0.251123	0.000105
N25	N	0.462107	0.179848	0.000100
N26	N	0.423238	0.260077	0.000102
C27	C	1.046699	-0.316976	0.000095
C28	C	1.037111	-0.425897	0.000093
C29	C	0.895215	-0.412947	0.000086
C30	C	0.904802	-0.304027	0.000088
C31	C	0.980547	-0.256046	0.000094
C32	C	0.990134	-0.147123	0.000103
C33	C	0.848238	-0.134176	0.000090
C34	C	0.838650	-0.243096	0.000087
C35	C	1.086352	0.224301	0.000112
C36	C	1.174092	0.233614	0.000116
C37	C	0.951163	0.410191	0.000092
C38	C	0.961371	0.526114	0.000089
N39	N	0.933792	0.232127	0.205396
N40	N	0.951562	0.207795	-0.205199
C41	C	0.980189	0.168382	0.250797
C42	C	0.976273	0.173768	0.341604
C43	C	0.925963	0.242905	0.387008
C44	C	0.879560	0.306652	0.341600
C45	C	0.883473	0.301260	0.250795
C46	C	0.909072	0.266151	0.658587
C47	C	0.905164	0.271540	0.749399
C48	C	1.001877	0.138654	0.749397
C49	C	1.005788	0.133273	0.658589
C50	C	0.959383	0.197016	0.613189
N51	N	0.921960	0.248414	0.479828
N52	N	0.963381	0.191501	0.520371
H53	H	0.699407	0.376486	0.000063
H54	H	1.021161	0.112088	0.213835
C55	C	0.707012	-0.132321	0.000092
C56	C	0.775516	-0.067199	0.000093
H57	H	0.662119	-0.090969	0.000102
H58	H	0.708396	-0.178041	-0.050217
H59	H	0.704057	-0.172105	0.050398
H60	H	0.778474	-0.027420	-0.050217
H61	H	0.774131	-0.021461	0.050406
C62	C	1.173803	-0.298853	-0.074055
C63	C	1.129952	-0.264222	0.000101
H64	H	1.225198	-0.266278	-0.074053
H65	H	1.177564	-0.372432	-0.074048
H66	H	1.148390	-0.281317	-0.124359
H67	H	1.155361	-0.281765	0.050405
H68	H	1.126195	-0.190627	0.000101
H69	H	0.838592	0.362941	0.378574
H70	H	0.177559	0.405409	0.000101
C71	C	1.072284	0.041907	0.332481
C72	C	1.027288	0.103715	0.391510
H73	H	1.103785	-0.001335	0.363292
H74	H	1.038171	-0.000474	0.297079
H75	H	1.105420	0.085616	0.297049
H76	H	0.994147	0.060005	0.426938
H77	H	1.061405	0.146100	0.426926
H78	H	1.046755	0.076976	0.621623
H79	H	0.845690	0.353166	0.213830
C80	C	0.559174	0.440979	-0.074095
C81	C	0.537447	0.386204	0.000074
H82	H	0.529635	0.501963	-0.074101
H83	H	0.613835	0.460301	-0.074096
H84	H	0.548774	0.397824	-0.124390
H85	H	0.547852	0.429356	0.050369
H86	H	0.482773	0.366885	0.000083
H87	H	0.327125	0.421299	0.000079
C88	C	0.199366	-0.024011	-0.074023
C89	C	0.174841	0.035340	0.000130
H90	H	0.172959	-0.090937	-0.074014
H91	H	0.187080	0.010295	-0.124324
H92	H	0.254693	-0.031657	-0.074012
H93	H	0.119514	0.042992	0.000115
H94	H	0.187121	0.001026	0.050443
H95	H	0.776981	-0.282178	0.000079
H96	H	0.558216	0.018632	0.000114
H97	H	1.039657	0.086756	0.786370
C98	C	0.813092	0.398051	0.667723
C99	C	0.858070	0.336226	0.608691
H100	H	0.781609	0.441319	0.636915
H101	H	0.779946	0.354362	0.703149
H102	H	0.847222	0.440416	0.703132
H103	H	0.823940	0.293855	0.573287
H104	H	0.891219	0.379920	0.573251
H105	H	1.090979	-0.475503	0.000090
C106	C	0.398641	0.048602	-0.074047
C107	C	0.347898	0.053717	0.000113
H108	H	0.428176	-0.012386	-0.074046
H109	H	0.368555	0.046127	-0.124343
H110	H	0.433616	0.108590	-0.074039
H111	H	0.312920	-0.006268	0.000102
H112	H	0.377987	0.056183	0.050421
H113	H	0.707784	0.034513	0.000091
H114	H	1.051808	-0.108058	0.000111
C115	C	0.817521	-0.574172	0.000076
C116	C	0.811961	-0.465702	0.000080
H117	H	0.766123	-0.606737	0.000078
H118	H	0.847272	-0.597645	-0.050229
H119	H	0.842929	-0.591694	0.050386
H120	H	0.786558	-0.448178	-0.050234
H121	H	0.782199	-0.442220	0.050389
H122	H	0.864193	0.327844	0.786363
