data_functionalizedCrystal
_audit_creation_method	'MofGen! by Chris Wilmer'
_symmetry_space_group_name_H-M	'P1'
_symmetry_Int_Tables_number	1
_symmetry_cell_setting	triclinic
loop_
_symmetry_equiv_pos_as_xyz
  x,y,z
_cell_length_a	14.908520
_cell_length_b	21.395364
_cell_length_c	21.395355
_cell_angle_alpha	90.025600
_cell_angle_beta	93.280325
_cell_angle_gamma	86.681715
loop_
_atom_site_label
_atom_site_type_symbol
_atom_site_fract_x
_atom_site_fract_y
_atom_site_fract_z
Zn1	Zn	-0.359327	-0.943495	-0.368680
Zn2	Zn	0.140673	-0.443495	0.131320
Zn3	Zn	-0.510169	-0.937368	-0.269948
Zn4	Zn	-0.010169	-0.437368	0.230052
Zn5	Zn	-0.359321	-0.838711	-0.263915
Zn6	Zn	0.140679	-0.338711	0.236085
Zn7	Zn	-0.510140	-0.832651	-0.374686
Zn8	Zn	-0.010140	-0.332651	0.125314
O9	O	-0.434739	-0.888056	-0.319307
O10	O	0.065261	-0.388056	0.180693
O11	O	-0.379352	-1.030360	-0.355595
O12	O	0.120648	-0.530360	0.144405
O13	O	-0.490169	-0.924253	-0.181471
O14	O	0.009831	-0.424253	0.318529
O15	O	-0.233076	-0.857711	-0.272774
O16	O	0.266924	-0.357711	0.227226
O17	O	-0.490175	-1.025858	-0.283057
O18	O	0.009825	-0.525858	0.216943
O19	O	-0.233080	-0.934696	-0.349745
O20	O	0.266920	-0.434696	0.150255
O21	O	-0.379341	-0.851770	-0.177038
O22	O	0.120659	-0.351770	0.322962
O23	O	-0.379312	-0.750230	-0.278597
O24	O	0.120688	-0.250230	0.221403
O25	O	-0.490124	-0.847383	-0.461566
O26	O	0.009876	-0.347383	0.038434
O27	O	-0.490118	-0.745778	-0.359980
O28	O	0.009882	-0.245778	0.140020
O29	O	-0.379323	-0.928820	-0.457154
O30	O	0.120677	-0.428820	0.042846
O31	O	-0.636411	-0.918377	-0.288880
O32	O	-0.136411	-0.418377	0.211120
O33	O	-0.636390	-0.841442	-0.365830
O34	O	-0.136390	-0.341442	0.134170
C35	C	-0.434712	-0.725270	-0.319286
C36	C	0.065288	-0.225270	0.180714
C37	C	-0.434722	-0.655628	-0.319292
C38	C	0.065278	-0.155628	0.180708
C39	C	-0.492526	-0.151526	-0.361637
C40	C	0.007474	0.348474	0.138363
C41	C	-0.492528	-0.216961	-0.361631
C42	C	0.007472	0.283039	0.138369
C43	C	-0.434746	-0.251989	-0.319318
C44	C	0.065254	0.248011	0.180682
C45	C	-0.376974	-0.221575	-0.276996
C46	C	0.123026	0.278425	0.223004
C47	C	-0.376981	-0.156141	-0.276998
C48	C	0.123019	0.343859	0.223002
C49	C	-0.353445	-0.358928	-0.311210
C50	C	0.146555	0.141072	0.188790
C51	C	-0.353437	-0.424361	-0.311211
C52	C	0.146563	0.075639	0.188789
C53	C	-0.434726	-0.453811	-0.319306
C54	C	0.065274	0.046189	0.180694
C55	C	-0.516026	-0.417819	-0.327413
C56	C	-0.016026	0.082181	0.172587
C57	C	-0.516033	-0.352384	-0.327415
C58	C	-0.016033	0.147616	0.172585
C59	C	-0.434733	-0.322942	-0.319310
C60	C	0.065267	0.177058	0.180690
C61	C	-0.492500	-0.555169	-0.361617
C62	C	0.007500	-0.055169	0.138383
C63	C	-0.492503	-0.620605	-0.361607
C64	C	0.007497	-0.120605	0.138393
C65	C	-0.376942	-0.625218	-0.276974
C66	C	0.123058	-0.125218	0.223026
C67	C	-0.376947	-0.559783	-0.276981
C68	C	0.123053	-0.059783	0.223019
C69	C	-0.434725	-0.524762	-0.319306
C70	C	0.065275	-0.024762	0.180694
C71	C	-0.669135	-0.878604	-0.328675
C72	C	-0.169135	-0.378604	0.171325
C73	C	-0.769410	-0.874618	-0.332704
C74	C	-0.269410	-0.374618	0.167296
C75	C	-0.957800	-0.947322	-0.260211
C76	C	-0.457800	-0.447322	0.239789
C77	C	-1.052018	-0.943578	-0.263994
C78	C	-0.552018	-0.443578	0.236006
C79	C	-1.052065	-0.863391	-0.344056
C80	C	-0.552065	-0.363391	0.155944
C81	C	-0.957847	-0.867134	-0.340273
C82	C	-0.457847	-0.367134	0.159727
C83	C	-0.910718	-0.909101	-0.298348
C84	C	-0.410718	-0.409101	0.201652
C85	C	-0.816499	-0.912841	-0.294562
C86	C	-0.316499	-0.412841	0.205438
C87	C	-0.816548	-0.832657	-0.374627
C88	C	-0.316548	-0.332657	0.125373
C89	C	-0.910765	-0.828913	-0.378411
C90	C	-0.410765	-0.328913	0.121589
C91	C	-0.199429	-0.897563	-0.309917
C92	C	0.300571	-0.397563	0.190083
C93	C	-0.099153	-0.901614	-0.305915
C94	C	0.400847	-0.401614	0.194085
C95	C	-0.434721	-0.888109	-0.482730
C96	C	0.065279	-0.388109	0.017270
C97	C	-0.434713	-0.888132	-0.552371
C98	C	0.065287	-0.388132	-0.052371
C99	C	-0.434762	-0.051479	-0.319325
C100	C	0.065238	0.448521	0.180675
C101	C	-0.434759	-0.121120	-0.319323
C102	C	0.065241	0.378880	0.180677
C103	C	-0.377017	-0.930534	-0.582788
C104	C	0.122983	-0.430534	-0.082788
C105	C	-0.376978	-0.930535	-0.648222
C106	C	0.123022	-0.430535	-0.148222
C107	C	-0.434652	-0.888139	-0.683237
C108	C	0.065348	-0.388139	-0.183237
C109	C	-0.492352	-0.845729	-0.652812
C110	C	0.007648	-0.345729	-0.152812
C111	C	-0.492383	-0.845725	-0.587379
C112	C	0.007617	-0.345725	-0.087379
C113	C	-0.515883	-0.879916	-0.790158
C114	C	-0.015883	-0.379916	-0.290158
C115	C	-0.515854	-0.879924	-0.855590
C116	C	-0.015854	-0.379924	-0.355590
C117	C	-0.434556	-0.888147	-0.885054
C118	C	0.065444	-0.388147	-0.385054
C119	C	-0.353286	-0.896375	-0.849078
C120	C	0.146714	-0.396375	-0.349078
C121	C	-0.353317	-0.896371	-0.783645
C122	C	0.146683	-0.396371	-0.283645
C123	C	-0.434624	-0.888138	-0.754188
C124	C	0.065376	-0.388138	-0.254188
C125	C	-0.376813	-0.930552	-0.986421
C126	C	0.123187	-0.430552	-0.486421
C127	C	-0.376773	-0.930549	-1.051856
C128	C	0.123227	-0.430549	-0.551856
C129	C	-0.492155	-0.845745	-1.056446
C130	C	0.007845	-0.345745	-0.556446
C131	C	-0.492187	-0.845746	-0.991012
C132	C	0.007813	-0.345746	-0.491012
C133	C	-0.434518	-0.888153	-0.956004
C134	C	0.065482	-0.388153	-0.456004
C135	C	-0.434692	-0.888043	-0.156518
C136	C	0.065308	-0.388043	0.343482
C137	C	-0.434446	-0.888152	-0.086867
C138	C	0.065554	-0.388152	0.413133
H139	H	-0.582220	-0.441795	-0.334009
H140	H	-0.082220	0.058205	0.165991
H141	H	-0.949151	-0.794747	-0.412546
H142	H	-0.449151	-0.294747	0.087454
H143	H	-1.090453	-0.829228	-0.378193
H144	H	-0.590453	-0.329228	0.121807
H145	H	-0.329903	-0.535026	-0.242526
H146	H	0.170097	-0.035026	0.257474
C147	C	-0.605462	-0.312796	-0.336320
C148	C	-0.105462	0.187204	0.163680
N149	N	-0.672823	-0.282978	-0.343023
N150	N	-0.172823	0.217022	0.156977
C151	C	-0.313383	-0.663745	-0.230427
C152	C	0.186617	-0.163745	0.269573
N153	N	-0.265510	-0.692766	-0.195365
N154	N	0.234490	-0.192766	0.304635
C155	C	-0.263920	-0.905413	-0.744074
C156	C	0.236080	-0.405413	-0.244074
N157	N	-0.196584	-0.912220	-0.714269
N158	N	0.303416	-0.412220	-0.214269
C159	C	-0.313422	-0.122694	-0.230452
C160	C	0.186578	0.377306	0.269548
N161	N	-0.265546	-0.097501	-0.195394
N162	N	0.234454	0.402499	0.304606
H163	H	-0.287245	-0.334956	-0.304607
H164	H	0.212755	0.165044	0.195393
C165	C	-0.264005	-0.463946	-0.302295
C166	C	0.235995	0.036054	0.197705
N167	N	-0.196643	-0.493760	-0.295578
N168	N	0.303357	0.006240	0.204422
H169	H	-0.582068	-0.873053	-0.766174
H170	H	-0.082068	-0.373053	-0.266174
C171	C	-0.555663	-0.799102	-0.957553
C172	C	-0.055663	-0.299102	-0.457553
N173	N	-0.603474	-0.763965	-0.932351
N174	N	-0.103474	-0.263965	-0.432351
H175	H	-0.329929	-0.250099	-0.242543
H176	H	0.170071	0.249901	0.257457
H177	H	-0.539577	-0.123016	-0.396099
H178	H	-0.039577	0.376984	0.103901
H179	H	-1.090348	-0.974703	-0.232940
H180	H	-0.590348	-0.474703	0.267060
H181	H	-0.778127	-0.947010	-0.260423
H182	H	-0.278127	-0.447010	0.239577
C183	C	-0.764750	-0.790610	-0.416581
C184	C	-0.264750	-0.290610	0.083419
N185	N	-0.725735	-0.758941	-0.448179
N186	N	-0.225735	-0.258941	0.051821
C187	C	-0.905956	-0.993483	-0.214092
C188	C	-0.405956	-0.493483	0.285908
N189	N	-0.866908	-1.028253	-0.179356
N190	N	-0.366908	-0.528253	0.320644
H191	H	-0.539308	-0.811208	-0.681326
H192	H	-0.039308	-0.311208	-0.181326
H193	H	-0.287086	-0.903071	-0.873066
H194	H	0.212914	-0.403071	-0.373066
H195	H	-0.539569	-0.241723	-0.396091
H196	H	-0.039569	0.258277	0.103909
H197	H	-0.330056	-0.965064	-0.554288
H198	H	0.169944	-0.465064	-0.054288
H199	H	-0.329784	-0.965077	-1.076620
H200	H	0.170216	-0.465077	-0.576620
C201	C	-0.313510	-0.977186	-0.681687
C202	C	0.186490	-0.477186	-0.181687
N203	N	-0.265708	-1.012326	-0.706892
N204	N	0.234292	-0.512326	-0.206892
C205	C	-0.555859	-0.799078	-0.553920
C206	C	-0.055859	-0.299078	-0.053920
N207	N	-0.603671	-0.763944	-0.528718
N208	N	-0.103671	-0.263944	-0.028718
C209	C	-0.313368	-0.977195	-0.947909
C210	C	0.186632	-0.477195	-0.447909
N211	N	-0.265578	-1.012326	-0.918904
N212	N	0.234422	-0.512326	-0.418904
H213	H	-0.539548	-0.526653	-0.396079
H214	H	-0.039548	-0.026653	0.103921
C215	C	-0.555598	-0.799109	-1.094959
C216	C	-0.055598	-0.299109	-0.594959
N217	N	-0.603385	-0.763982	-1.123971
N218	N	-0.103385	-0.263982	-0.623971
C219	C	-0.605252	-0.870873	-0.895157
C220	C	-0.105252	-0.370873	-0.395157
N221	N	-0.672590	-0.864053	-0.924958
N222	N	-0.172590	-0.364053	-0.424958
H223	H	-0.539551	-0.645360	-0.396063
H224	H	-0.039551	-0.145360	0.103937
