data_functionalizedCrystal
_audit_creation_method	'MofGen! by Chris Wilmer'
_symmetry_space_group_name_H-M	'P1'
_symmetry_Int_Tables_number	1
_symmetry_cell_setting	triclinic
loop_
_symmetry_equiv_pos_as_xyz
  x,y,z
_cell_length_a	12.759401
_cell_length_b	18.101395
_cell_length_c	18.101389
_cell_angle_alpha	89.983159
_cell_angle_beta	89.982803
_cell_angle_gamma	90.032629
loop_
_atom_site_label
_atom_site_type_symbol
_atom_site_fract_x
_atom_site_fract_y
_atom_site_fract_z
Zn1	Zn	1.606108	-0.294877	-0.418706
Zn2	Zn	1.605960	-0.418703	-0.294868
Zn3	Zn	1.430418	-0.294883	-0.294883
Zn4	Zn	1.430348	-0.418685	-0.418672
O5	O	1.518208	-0.356787	-0.356782
O6	O	1.753109	-0.311308	-0.402287
O7	O	1.582641	-0.402288	-0.191237
O8	O	1.453815	-0.191249	-0.311328
O9	O	1.753001	-0.402282	-0.311303
O10	O	1.582893	-0.191245	-0.402301
O11	O	1.453671	-0.311318	-0.191248
O12	O	1.283388	-0.311300	-0.311295
O13	O	1.453696	-0.402251	-0.522309
O14	O	1.283336	-0.402257	-0.402243
O15	O	1.582825	-0.311290	-0.522334
O16	O	1.582574	-0.522333	-0.311270
O17	O	1.453552	-0.522320	-0.402229
C18	C	1.245241	-0.356778	-0.356767
C19	C	1.128464	-0.356792	-0.356779
C20	C	1.073603	-0.404225	-0.404060
C21	C	0.963879	-0.404228	-0.404075
C22	C	0.963887	-0.309362	-0.309520
C23	C	1.073609	-0.309356	-0.309509
C24	C	1.518068	-0.549198	-0.356760
C25	C	1.518104	-0.631512	-0.356776
C26	C	1.518334	-0.930602	-0.356816
C27	C	1.437346	-0.899300	-0.414186
C28	C	1.436961	-0.813682	-0.414007
C29	C	1.518220	-0.782220	-0.356796
C30	C	1.488245	-0.813358	-0.278748
C31	C	1.487723	-0.899003	-0.279091
C32	C	1.629476	-0.898948	-0.376807
C33	C	1.628822	-0.813297	-0.378519
C34	C	1.518157	-0.698361	-0.356781
C35	C	1.518395	-1.014462	-0.356826
C36	C	1.792242	-0.356797	-0.356797
C37	C	1.909018	-0.356801	-0.356804
C38	C	1.518269	-0.356768	-0.549944
C39	C	1.518295	-0.356760	-0.632258
C40	C	1.518378	-0.163625	-0.356820
C41	C	1.518451	-0.081311	-0.356836
C42	C	1.518356	-0.356621	-0.931349
C43	C	1.436832	-0.413669	-0.900008
C44	C	1.437052	-0.413934	-0.814390
C45	C	1.518325	-0.356690	-0.782967
C46	C	1.629017	-0.377872	-0.814063
C47	C	1.628563	-0.378247	-0.899708
C48	C	1.490151	-0.278264	-0.899774
C49	C	1.487688	-0.278717	-0.814123
C50	C	1.518314	-0.356728	-0.699107
C51	C	1.518375	-0.356586	-1.015209
C52	C	1.518208	-0.356752	-0.164372
C53	C	1.518386	-0.356552	-0.082058
H54	H	0.919211	-0.270743	-0.271034
H55	H	1.406479	-0.919044	-0.262156
H56	H	1.692355	-0.791876	-0.339778
F57	F	1.561470	-0.926072	-0.221311
F58	F	1.132000	-0.258865	-0.259187
F59	F	1.461471	-0.786161	-0.489651
F60	F	1.567763	-0.222709	-0.926266
H61	H	1.689815	-0.919189	-0.335022
F62	F	1.562919	-0.786722	-0.221351
F63	F	1.659814	-0.453115	-0.925830
F64	F	1.383176	-0.785408	-0.256215
H65	H	1.455914	-0.919858	-0.472246
H66	H	1.455268	-0.471396	-0.921534
F67	F	1.329765	-0.396605	-0.786906
H68	H	1.355466	-0.920885	-0.401111
F69	F	1.710604	-0.326261	-0.926811
H70	H	1.118263	-0.442848	-0.442552
F71	F	1.559645	-0.220212	-0.786174
F72	F	1.660814	-0.451945	-0.786038
H73	H	1.691391	-0.337627	-0.793711
H74	H	1.410837	-0.258965	-0.921366
F75	F	1.329215	-0.396519	-0.926917
F76	F	1.461440	-0.489842	-0.787615
H77	H	1.656805	-0.920505	-0.432750
F78	F	1.329283	-0.786983	-0.396702
H79	H	1.406228	-0.262743	-0.793798
H80	H	1.651427	-0.792944	-0.435958
F81	F	0.905497	-0.454711	-0.454400
