data_functionalizedCrystal
_audit_creation_method	'MofGen! by Chris Wilmer'
_symmetry_space_group_name_H-M	'P1'
_symmetry_Int_Tables_number	1
_symmetry_cell_setting	triclinic
loop_
_symmetry_equiv_pos_as_xyz
  x,y,z
_cell_length_a	10.967819
_cell_length_b	11.026607
_cell_length_c	17.766277
_cell_angle_alpha	90.003085
_cell_angle_beta	102.138659
_cell_angle_gamma	96.381100
loop_
_atom_site_label
_atom_site_type_symbol
_atom_site_fract_x
_atom_site_fract_y
_atom_site_fract_z
O1	O	1.694075	0.170563	0.282339
O2	O	2.194075	0.670563	0.782339
O3	O	1.334430	0.186876	0.235689
O4	O	1.834430	0.686876	0.735689
O5	O	1.484446	0.001818	0.255145
O6	O	1.984446	0.501818	0.755145
O7	O	1.544060	0.355622	0.262883
O8	O	2.044060	0.855622	0.762883
O9	O	1.484410	0.001808	0.129951
O10	O	1.984410	0.501808	0.629951
O11	O	1.334394	0.186867	0.110495
O12	O	1.834394	0.686867	0.610495
O13	O	1.694039	0.170553	0.157145
O14	O	2.194039	0.670553	0.657145
Cu15	Cu	1.514214	0.178709	0.122389
Cu16	Cu	2.014214	0.678709	0.622389
Cu17	Cu	1.514256	0.178721	0.270445
Cu18	Cu	2.014256	0.678721	0.770445
O19	O	1.544024	0.355612	0.137689
O20	O	2.044024	0.855612	0.637689
C21	C	1.287654	0.185683	0.167027
C22	C	1.787654	0.685683	0.667027
C23	C	1.148327	0.182126	0.148955
C24	C	1.648327	0.682126	0.648955
C25	C	0.942236	0.176881	0.187087
C26	C	1.442236	0.676881	0.687087
C27	C	1.086237	0.180549	0.205761
C28	C	1.586237	0.680549	0.705761
C29	C	1.473430	-0.043490	0.191122
C30	C	1.973430	0.456510	0.691122
C31	C	1.440645	-0.178478	0.186873
C32	C	1.940645	0.321522	0.686873
C33	C	1.531169	-0.251527	0.198616
C34	C	2.031169	0.248473	0.698616
C35	C	1.497287	-0.391045	0.194223
C36	C	1.997287	0.108955	0.694223
C37	C	1.740815	0.171747	0.225809
C38	C	2.240815	0.671747	0.725809
C39	C	1.880142	0.175304	0.243886
C40	C	2.380142	0.675304	0.743886
C41	C	1.555039	0.400919	0.201713
C42	C	2.055039	0.900919	0.701713
C43	C	1.587824	0.535907	0.205968
C44	C	2.087824	1.035907	0.705968
N45	N	1.514193	0.178700	0.018256
N46	N	2.014193	0.678700	0.518256
C47	C	1.580656	0.096797	-0.012511
C48	C	2.080656	0.596797	0.487489
C49	C	1.580662	0.096791	-0.091312
C50	C	2.080662	0.596791	0.408688
C51	C	1.514221	0.178710	-0.139341
C52	C	2.014221	0.678710	0.360659
C53	C	1.447743	0.260619	-0.108566
C54	C	1.947743	0.760619	0.391434
C55	C	1.447729	0.260614	-0.029767
C56	C	1.947729	0.760614	0.470233
C57	C	1.522713	0.289300	-0.263075
C58	C	2.022713	0.789300	0.236925
C59	C	1.522737	0.289307	-0.341871
C60	C	2.022737	0.789307	0.158129
C61	C	1.514258	0.178725	-0.382382
C62	C	2.014258	0.678725	0.117618
C63	C	1.505781	0.068132	-0.344084
C64	C	2.005781	0.568132	0.155916
C65	C	1.505767	0.068127	-0.265286
C66	C	2.005767	0.568127	0.234714
C67	C	1.514229	0.178724	-0.224785
C68	C	2.014229	0.678724	0.275215
C69	C	1.580731	0.096809	-0.498594
C70	C	2.080731	0.596809	0.001406
C71	C	1.580728	0.096802	-0.577398
C72	C	2.080728	0.596802	-0.077398
C73	C	1.447817	0.260640	-0.594649
C74	C	1.947817	0.760640	-0.094649
C75	C	1.447812	0.260637	-0.515848
C76	C	1.947812	0.760637	-0.015848
C77	C	1.514276	0.178723	-0.467824
C78	C	2.014276	0.678723	0.032176
N79	N	1.514285	0.178720	0.374579
N80	N	2.014285	0.678720	0.874579
H81	H	0.888789	0.175522	0.124635
H82	H	1.388789	0.675522	0.624635
N83	N	1.652435	0.008466	-0.610577
N84	N	2.152435	0.508466	-0.110577
H85	H	1.592590	-0.045809	-0.651045
H86	H	2.092590	0.454191	-0.151045
H87	H	1.694531	-0.043328	-0.568141
H88	H	2.194531	0.456672	-0.068141
H89	H	1.393714	0.327335	-0.633754
H90	H	1.893714	0.827335	-0.133754
N91	N	0.950924	0.177121	0.326614
N92	N	1.450924	0.677121	0.826614
H93	H	1.043761	0.179485	0.328227
H94	H	1.543761	0.679485	0.828227
H95	H	0.921328	0.101304	0.352593
H96	H	1.421328	0.601304	0.852593
H97	H	1.139681	0.181921	0.268218
H98	H	1.639681	0.681921	0.768218
N99	N	1.652328	0.008441	0.039284
N100	N	2.152328	0.508441	0.539284
H101	H	1.718115	0.055395	0.080524
H102	H	2.218115	0.555395	0.580524
H103	H	1.694352	-0.043424	0.007772
H104	H	2.194352	0.456576	0.507772
N105	N	1.361392	-0.445002	0.176587
N106	N	1.861392	0.054998	0.676587
H107	H	1.305635	-0.377084	0.169352
H108	H	1.805635	0.122916	0.669352
H109	H	1.343866	-0.497044	0.220723
H110	H	1.843866	0.002956	0.720723
N111	N	1.667058	-0.197565	0.216232
N112	N	2.167058	0.302435	0.716232
H113	H	1.710134	-0.225486	0.268225
H114	H	2.210134	0.274514	0.768225
H115	H	1.671888	-0.105557	0.216826
H116	H	2.171888	0.394443	0.716826
N117	N	1.496621	-0.051143	-0.223978
N118	N	1.996621	0.448857	0.276022
H119	H	1.491253	-0.121201	-0.261592
H120	H	1.991253	0.378799	0.238408
H121	H	1.419064	-0.058917	-0.201357
H122	H	1.919064	0.441083	0.298643
H123	H	1.094886	0.180767	0.086498
H124	H	1.594886	0.680767	0.586498
N125	N	1.723722	-0.410143	0.223601
N126	N	2.223722	0.089857	0.723601
H127	H	1.728667	-0.318125	0.224242
H128	H	2.228667	0.181875	0.724242
H129	H	1.766682	-0.438174	0.182765
H130	H	2.266682	0.061826	0.682765
N131	N	1.304753	-0.232426	0.169248
N132	N	1.804753	0.267574	0.669248
H133	H	1.287118	-0.284452	0.213369
H134	H	1.787118	0.215548	0.713369
H135	H	1.287179	-0.284407	0.120531
H136	H	1.787179	0.215593	0.620531
N137	N	1.652346	0.008447	-0.124510
N138	N	2.152346	0.508447	0.375490
H139	H	1.694445	-0.043447	-0.082130
H140	H	2.194445	0.456553	0.417870
H141	H	1.718074	0.055497	-0.148665
H142	H	2.218074	0.555497	0.351335
H143	H	1.529598	0.379355	-0.230100
H144	H	2.029598	0.879355	0.269900
H145	H	1.498876	-0.021914	-0.377067
H146	H	1.998876	0.478086	0.122933
H147	H	1.634845	0.030106	-0.459492
H148	H	2.134845	0.530106	0.040508
N149	N	1.376125	0.348975	-0.482658
N150	N	1.876125	0.848975	0.017342
H151	H	1.334033	0.400870	-0.525039
H152	H	1.834033	0.900870	-0.025039
H153	H	1.436052	0.403152	-0.442175
H154	H	1.936052	0.903152	0.057825
N155	N	1.531868	0.408581	-0.383176
N156	N	2.031868	0.908581	0.116824
H157	H	1.612742	0.459904	-0.358955
H158	H	2.112742	0.959904	0.141045
H159	H	1.458323	0.453846	-0.378993
H160	H	1.958323	0.953846	0.121007
N161	N	1.376073	0.348969	-0.160364
N162	N	1.876073	0.848969	0.339636
H163	H	1.386169	0.336547	-0.214952
H164	H	1.886169	0.836547	0.285048
H165	H	1.409878	0.435349	-0.142194
H166	H	1.909878	0.935349	0.357806
H167	H	1.393605	0.327311	-0.004717
H168	H	1.893605	0.827311	0.495283
