data_functionalizedCrystal
_audit_creation_method	'MofGen! by Chris Wilmer'
_symmetry_space_group_name_H-M	'P1'
_symmetry_Int_Tables_number	1
_symmetry_cell_setting	triclinic
loop_
_symmetry_equiv_pos_as_xyz
  x,y,z
_cell_length_a	10.540539
_cell_length_b	10.540535
_cell_length_c	9.616153
_cell_angle_alpha	89.996418
_cell_angle_beta	89.995174
_cell_angle_gamma	84.524567
loop_
_atom_site_label
_atom_site_type_symbol
_atom_site_fract_x
_atom_site_fract_y
_atom_site_fract_z
O1	O	1.685889	0.178896	-0.115585
O2	O	1.316476	0.195752	-0.115602
O3	O	1.509614	0.002617	-0.115579
O4	O	1.492752	0.372031	-0.115608
O5	O	1.509587	0.002621	0.115712
O6	O	1.316449	0.195756	0.115689
O7	O	1.685863	0.178900	0.115707
Zn8	Zn	1.501152	0.187328	0.152420
Zn9	Zn	1.501187	0.187323	-0.152316
O10	O	1.492725	0.372035	0.115683
C11	C	1.269160	0.194490	0.000041
C12	C	1.128212	0.190708	0.000035
C13	C	0.944787	0.045790	0.000586
C14	C	1.091405	0.049624	0.000050
C15	C	1.066553	0.258601	-0.132044
C16	C	0.920009	0.253786	-0.132140
C17	C	0.919490	0.256661	0.130881
C18	C	1.066472	0.257960	0.132613
C19	C	1.508337	-0.044684	0.000067
C20	C	1.504557	-0.185633	0.000069
C21	C	1.363543	-0.222303	0.000052
C22	C	1.359566	-0.368904	-0.000498
C23	C	1.568943	-0.394960	-0.131781
C24	C	1.571944	-0.248194	-0.131867
C25	C	1.573965	-0.248328	0.131164
C26	C	1.567443	-0.394674	0.132871
C27	C	1.733179	0.180162	0.000060
C28	C	1.874127	0.183944	0.000057
N29	N	1.501137	0.187331	0.360395
C30	C	1.494002	0.419336	0.000034
C31	C	1.497781	0.560284	0.000023
N32	N	1.501212	0.187310	-0.360291
C33	C	1.397506	0.290299	0.580752
C34	C	1.397734	0.290685	0.419585
C35	C	1.633860	0.217465	0.418848
C36	C	1.633295	0.218194	0.580066
C37	C	1.473367	0.053892	0.580315
C38	C	1.470321	0.054757	0.419088
H39	H	0.887933	0.211004	0.230996
H40	H	1.372682	0.031917	0.380885
O41	O	1.703747	-0.457679	-0.137802
H42	H	1.701862	-0.562699	-0.142453
H43	H	0.872261	0.358564	0.131766
O44	O	1.098543	0.394215	0.143176
H45	H	1.150643	0.407147	0.241690
O46	O	1.347850	0.015918	0.634211
H47	H	1.303909	0.091725	0.703940
H48	H	1.657648	0.315531	0.617647
H49	H	1.303902	-0.398246	0.093958
O50	O	1.738671	0.122710	0.631741
H51	H	1.789813	0.076226	0.541577
O52	O	1.267097	0.266700	0.367233
H53	H	1.267127	0.266955	0.251808
H54	H	0.916192	-0.009944	0.095308
H55	H	1.540849	-0.025564	0.378803
H56	H	1.658756	0.313703	0.378451
H57	H	1.529951	-0.205876	0.231108
H58	H	1.712916	0.144501	0.380504
O59	O	1.120688	0.192260	0.262056
H60	H	1.167987	0.261401	0.326399
H61	H	0.872039	0.355251	-0.138142
H62	H	1.309381	-0.180339	0.094563
O63	O	1.266467	0.266671	0.632179
H64	H	1.243656	0.170991	0.597576
O65	O	1.498918	-0.432655	0.262050
H66	H	1.415588	-0.483397	0.231781
H67	H	1.548980	-0.022763	0.618440
O68	O	1.420898	0.420681	0.634367
H69	H	1.506067	0.412452	0.702820
O70	O	1.122962	0.196115	-0.262243
H71	H	1.169184	0.267428	-0.324620
O72	O	0.904790	-0.027741	-0.124164
H73	H	0.860541	-0.113486	-0.088560
H74	H	1.310310	-0.178840	-0.094334
O75	O	1.701146	-0.459460	0.143839
H76	H	1.720112	-0.525081	0.054386
O77	O	1.286236	-0.406603	-0.126398
H78	H	1.253494	-0.320075	-0.187136
H79	H	1.088905	0.362209	-0.136966
O80	O	1.421448	0.421794	0.368452
H81	H	1.432811	0.485166	0.458876
O82	O	1.508310	-0.194960	-0.262876
H83	H	1.425221	-0.127065	-0.234893
H84	H	1.675319	-0.225163	-0.137475
H85	H	1.520141	-0.425853	-0.230259
O86	O	1.147854	-0.021121	0.125471
H87	H	1.070435	-0.058394	0.187049
O88	O	1.711388	-0.218925	0.132891
H89	H	1.759861	-0.257552	0.037304
O90	O	1.146734	-0.021633	-0.125571
H91	H	1.105508	0.024055	-0.221512
O92	O	0.882643	0.187289	-0.262888
H93	H	0.969206	0.158864	-0.325451
