data_functionalizedCrystal
_audit_creation_method	'MofGen! by Chris Wilmer'
_symmetry_space_group_name_H-M	'P1'
_symmetry_Int_Tables_number	1
_symmetry_cell_setting	triclinic
loop_
_symmetry_equiv_pos_as_xyz
  x,y,z
_cell_length_a	11.169417
_cell_length_b	12.645330
_cell_length_c	11.169409
_cell_angle_alpha	90.034413
_cell_angle_beta	90.019824
_cell_angle_gamma	90.013525
loop_
_atom_site_label
_atom_site_type_symbol
_atom_site_fract_x
_atom_site_fract_y
_atom_site_fract_z
Zn1	Zn	1.834943	-0.421929	0.678525
Zn2	Zn	2.334943	0.078071	1.178525
Zn3	Zn	1.834824	-0.599240	0.477835
Zn4	Zn	2.334824	-0.099240	0.977835
Zn5	Zn	1.634229	-0.421993	0.477860
Zn6	Zn	2.134229	0.078007	0.977860
Zn7	Zn	1.634228	-0.599153	0.678480
Zn8	Zn	2.134228	-0.099153	1.178480
O9	O	1.734556	-0.510579	0.578175
O10	O	2.234556	-0.010579	1.078175
O11	O	2.002877	-0.445458	0.651912
O12	O	2.502877	0.054542	1.151912
O13	O	1.808166	-0.575791	0.309889
O14	O	2.308166	-0.075791	0.809889
O15	O	1.660904	-0.273637	0.504508
O16	O	2.160904	0.226363	1.004508
O17	O	2.002790	-0.575728	0.504466
O18	O	2.502790	-0.075728	1.004466
O19	O	1.808368	-0.273590	0.651936
O20	O	2.308368	0.226410	1.151936
O21	O	1.660789	-0.445569	0.309907
O22	O	2.160789	0.054431	0.809907
O23	O	1.466279	-0.445485	0.504464
O24	O	1.966279	0.054515	1.004464
O25	O	1.660903	-0.575581	0.846436
O26	O	2.160903	-0.075581	1.346436
O27	O	1.466279	-0.575644	0.651859
O28	O	1.966279	-0.075644	1.151859
O29	O	1.808367	-0.445375	0.846469
O30	O	2.308367	0.054625	1.346469
O31	O	1.808165	-0.747575	0.504422
O32	O	2.308165	-0.247575	1.004422
O33	O	1.660788	-0.747512	0.651835
O34	O	2.160788	-0.247512	1.151835
C35	C	1.422732	-0.510563	0.578160
C36	C	1.922732	-0.010563	1.078160
C37	C	1.289332	-0.510581	0.578181
C38	C	1.789332	-0.010581	1.078181
C39	C	1.734496	-0.786008	0.578147
C40	C	2.234496	-0.286008	1.078147
C41	C	1.734580	-0.903838	0.578175
C42	C	2.234580	-0.403838	1.078175
C43	C	1.827146	-1.071398	0.485249
C44	C	2.327146	-0.571398	0.985249
C45	C	1.827448	-0.948838	0.485476
C46	C	2.327448	-0.448838	0.985476
C47	C	1.768886	-0.948206	0.704683
C48	C	2.268886	-0.448206	1.204683
C49	C	1.769620	-1.070804	0.704190
C50	C	2.269620	-0.570804	1.204190
C51	C	1.607672	-1.071171	0.545839
C52	C	2.107672	-0.571171	1.045839
C53	C	1.608281	-0.948567	0.543001
C54	C	2.108281	-0.448567	1.043001
C55	C	2.047599	-0.510596	0.578191
C56	C	2.547599	-0.010596	1.078191
C57	C	2.180998	-0.510603	0.578198
C58	C	2.680998	-0.010603	1.078198
C59	C	1.734648	-0.510461	0.891218
C60	C	2.234648	-0.010461	1.391218
C61	C	1.734688	-0.510411	1.024618
C62	C	2.234688	-0.010411	1.524618
C63	C	1.734649	-0.234073	0.578230
C64	C	2.234649	0.265927	1.078230
C65	C	1.734689	-0.116243	0.578253
C66	C	2.234689	0.383757	1.078253
C67	C	1.734533	-0.510619	0.266350
C68	C	2.234533	-0.010619	0.766350
C69	C	1.734727	-0.510371	0.132951
C70	C	2.234727	-0.010371	0.632951
H71	H	1.805950	-1.100962	0.391170
H72	H	2.305950	-0.600962	0.891170
H73	H	1.921524	-0.919426	0.506916
H74	H	2.421524	-0.419426	1.006916
C75	C	1.514602	-1.110350	0.637334
C76	C	2.014602	-0.610350	1.137334
H77	H	1.438036	-1.082848	0.617284
H78	H	1.938036	-0.582848	1.117284
H79	H	1.511848	-1.185424	0.636021
H80	H	2.011848	-0.685424	1.136021
H81	H	1.536505	-1.086931	0.715150
H82	H	2.036505	-0.586931	1.215150
H83	H	1.920718	-1.102125	0.506448
H84	H	2.420718	-0.602125	1.006448
C85	C	1.895043	-1.109322	0.741266
C86	C	2.395043	-0.609322	1.241266
H87	H	1.945069	-1.050044	0.756482
H88	H	2.445069	-0.550044	1.256482
H89	H	1.888954	-1.151110	0.811648
H90	H	2.388954	-0.651110	1.311648
H91	H	1.928497	-1.150559	0.678523
H92	H	2.428497	-0.650559	1.178523
C93	C	1.682604	-1.110884	0.800989
C94	C	2.182604	-0.610884	1.300989
H95	H	1.682457	-1.186012	0.801338
H96	H	2.182457	-0.686012	1.301338
H97	H	1.707459	-1.085555	0.877129
H98	H	2.207459	-0.585555	1.377129
H99	H	1.604205	-1.085819	0.784203
H100	H	2.104205	-0.585819	1.284203
C101	C	1.565532	-1.113063	0.423384
C102	C	2.065532	-0.613063	0.923384
H103	H	1.625017	-1.158437	0.390878
H104	H	2.125017	-0.658437	0.890878
H105	H	1.492968	-1.151290	0.433124
H106	H	1.992968	-0.651290	0.933124
H107	H	1.552646	-1.055299	0.370589
H108	H	2.052646	-0.555299	0.870589
C109	C	1.680696	-0.908819	0.800810
C110	C	2.180696	-0.408819	1.300810
H111	H	1.622034	-0.864858	0.764557
H112	H	2.122034	-0.364858	1.264557
H113	H	1.642608	-0.967678	0.837407
H114	H	2.142608	-0.467678	1.337407
H115	H	1.723042	-0.869601	0.859761
H116	H	2.223042	-0.369601	1.359761
H117	H	1.582414	-0.919581	0.449902
H118	H	2.082414	-0.419581	0.949902
C119	C	1.798467	-0.908315	0.358755
C120	C	2.298467	-0.408315	0.858755
H121	H	1.786408	-0.966782	0.306671
H122	H	2.286408	-0.466782	0.806671
H123	H	1.727882	-0.866480	0.361197
H124	H	2.227882	-0.366480	0.861197
H125	H	1.863258	-0.866700	0.330205
H126	H	2.363258	-0.366700	0.830205
H127	H	1.860680	-0.917413	0.732599
H128	H	2.360680	-0.417413	1.232599
C129	C	1.510193	-0.907205	0.627798
C130	C	2.010193	-0.407205	1.127798
H131	H	1.545141	-0.861921	0.686028
H132	H	2.045141	-0.361921	1.186028
H133	H	1.452277	-0.868992	0.583016
H134	H	1.952277	-0.368992	1.083016
H135	H	1.472663	-0.965194	0.666690
H136	H	1.972663	-0.465194	1.166690
