data_functionalizedCrystal
_audit_creation_method	'MofGen! by Chris Wilmer'
_symmetry_space_group_name_H-M	'P1'
_symmetry_Int_Tables_number	1
_symmetry_cell_setting	triclinic
loop_
_symmetry_equiv_pos_as_xyz
  x,y,z
_cell_length_a	14.908571
_cell_length_b	29.839131
_cell_length_c	14.908308
_cell_angle_alpha	86.738717
_cell_angle_beta	89.824947
_cell_angle_gamma	86.737317
loop_
_atom_site_label
_atom_site_type_symbol
_atom_site_fract_x
_atom_site_fract_y
_atom_site_fract_z
Zn1	Zn	1.345126	-0.234441	0.587534
Zn2	Zn	1.353655	-0.305498	0.437159
Zn3	Zn	1.203447	-0.225812	0.428533
Zn4	Zn	1.194683	-0.304964	0.578811
O5	O	1.274228	-0.267679	0.508009
O6	O	1.472080	-0.247701	0.574847
O7	O	1.340967	-0.291540	0.310191
O8	O	1.222340	-0.164094	0.449665
O9	O	1.478346	-0.299907	0.464367
O10	O	1.326430	-0.170433	0.566482
O11	O	1.230610	-0.232995	0.303854
O12	O	1.076461	-0.232477	0.441208
O13	O	1.207402	-0.298997	0.705792
O14	O	1.070022	-0.290630	0.551616
O15	O	1.317932	-0.247184	0.712201
O16	O	1.332468	-0.368290	0.455909
O17	O	1.215672	-0.367898	0.559980
C18	C	1.040617	-0.260560	0.494530
C19	C	0.940676	-0.257526	0.488784
C20	C	0.746229	-0.312463	0.592802
C21	C	0.652326	-0.309614	0.587407
C22	C	0.658964	-0.248976	0.472604
C23	C	0.752867	-0.251825	0.477999
C24	C	0.796497	-0.283570	0.538099
C25	C	0.890402	-0.286422	0.543489
C26	C	0.897038	-0.225781	0.428692
C27	C	0.803135	-0.222932	0.423297
C28	C	1.274068	-0.384395	0.507955
C29	C	1.274080	-0.434330	0.507967
C30	C	1.335143	-0.744176	0.453910
C31	C	1.335252	-0.931853	0.453951
O32	O	1.387043	-0.956286	0.407948
N33	N	1.274410	-0.955128	0.508088
C34	C	1.213541	-0.931481	0.562223
O35	O	1.161800	-0.955585	0.608278
C36	C	1.213437	-0.743805	0.562186
C37	C	1.274276	-0.720532	0.508038
C38	C	1.395978	-0.720903	0.399768
C39	C	1.395947	-0.673987	0.399754
C40	C	1.335081	-0.650343	0.453883
C41	C	1.274245	-0.673615	0.508025
C42	C	1.152572	-0.720159	0.616325
C43	C	1.152553	-0.673237	0.616312
C44	C	1.213393	-0.649964	0.562165
C45	C	1.213348	-0.603055	0.562140
N46	N	1.274189	-0.579780	0.508003
C47	C	1.335056	-0.603424	0.453875
C48	C	1.213598	-1.030014	0.562237
C49	C	1.213623	-1.076933	0.562245
C50	C	1.335336	-1.077302	0.453975
C51	C	1.335306	-1.030382	0.453962
C52	C	1.274440	-1.006739	0.508100
C53	C	1.334986	-0.504895	0.453850
C54	C	1.334947	-0.457974	0.453839
C55	C	1.213238	-0.457609	0.562112
C56	C	1.213273	-0.504526	0.562121
C57	C	1.274154	-0.528168	0.507987
O58	O	1.161590	-0.578594	0.608127
O59	O	1.386803	-0.579313	0.407842
C60	C	1.335174	-0.791093	0.453923
C61	C	1.274339	-0.814366	0.508065
C62	C	1.213472	-0.790722	0.562194
C63	C	1.274363	-0.861284	0.508074
C64	C	1.335230	-0.884928	0.453945
C65	C	1.396072	-0.861654	0.399808
C66	C	1.396041	-0.814737	0.399794
C67	C	1.152630	-0.813996	0.616331
C68	C	1.152666	-0.860913	0.616339
C69	C	1.213532	-0.884557	0.562211
C70	C	1.508750	-0.274826	0.521542
C71	C	1.608690	-0.277872	0.527309
C72	C	1.260738	-0.273993	0.742533
C73	C	1.254989	-0.276684	0.842474
C74	C	1.274411	-0.150508	0.508085
C75	C	1.274490	-0.100577	0.508117
C76	C	1.287717	-0.261358	0.274401
C77	C	1.293639	-0.258546	0.174471
C78	C	1.359279	-0.227777	1.036946
C79	C	1.353881	-0.230304	1.130849
C80	C	1.238790	-0.284262	1.124184
C81	C	1.244189	-0.281735	1.030281
C82	C	1.304436	-0.253492	0.986666
C83	C	1.309839	-0.250968	0.892761
C84	C	1.194744	-0.304924	0.886097
C85	C	1.189345	-0.307450	0.980000
H86	H	0.611401	-0.333141	0.631953
H87	H	0.623424	-0.223127	0.423680
H88	H	1.384563	-0.524139	0.409771
H89	H	1.189739	-0.307256	1.159711
C90	C	1.129967	-0.335283	1.120988
C91	C	1.123126	-0.338495	1.027947
H92	H	1.089090	-0.354452	1.150585
H93	H	1.115962	-0.305117	1.135628
H94	H	1.189490	-0.344110	1.139850
H95	H	1.063605	-0.329665	1.009084
H96	H	1.137125	-0.368668	1.013300
C97	C	1.550887	-0.879479	0.364938
C98	C	1.462992	-0.887642	0.340310
H99	H	1.592202	-0.895521	0.328207
H100	H	1.560511	-0.889177	0.426114
H101	H	1.559559	-0.848203	0.357180
H102	H	1.454318	-0.918917	0.348074
H103	H	1.453365	-0.877946	0.279120
C104	C	0.662134	-0.191637	0.364055
C105	C	0.755172	-0.188038	0.357238
H106	H	0.632528	-0.170096	0.323268
H107	H	0.643300	-0.186267	0.423602
H108	H	0.647478	-0.220988	0.349902
H109	H	0.769830	-0.158688	0.371398
H110	H	0.774014	-0.193405	0.297678
H111	H	1.398538	-0.209362	1.171784
C112	C	1.151913	-0.325012	0.739193
C113	C	1.134453	-0.333192	0.830826
H114	H	1.114691	-0.342462	0.705073
H115	H	1.213194	-0.333012	0.727292
H116	H	1.139679	-0.294013	0.723068
H117	H	1.146694	-0.364190	0.846952
H118	H	1.073158	-0.325195	0.842732
H119	H	1.445491	-0.655041	0.355666
H120	H	1.445548	-0.740149	0.355689
H121	H	1.384896	-1.096561	0.409901
C122	C	1.043932	-0.203223	0.385980
C123	C	0.952295	-0.194019	0.368557
H124	H	1.078043	-0.183614	0.348857
H125	H	1.060039	-0.233503	0.373595
H126	H	1.055861	-0.198786	0.447302
H127	H	0.940364	-0.198459	0.307236
H128	H	0.936182	-0.163731	0.380935
H129	H	1.384490	-0.439027	0.409742
C130	C	1.455611	-1.035470	0.346943
C131	C	1.402188	-1.004803	0.394448
H132	H	1.496907	-1.019680	0.310205
H133	H	1.418450	-1.051675	0.310266
H134	H	1.487721	-1.055850	0.388143
H135	H	1.370072	-0.984426	0.353248
H136	H	1.439354	-0.988591	0.431128
C137	C	1.093320	-1.071843	0.669269
C138	C	1.146741	-1.102510	0.621760
H139	H	1.052036	-1.087634	0.706019
H140	H	1.061206	-1.051468	0.628078
H141	H	1.130492	-1.055635	0.705943
H142	H	1.109570	-1.118717	0.585081
H143	H	1.178858	-1.122894	0.662957
H144	H	1.358896	-0.227972	0.857251
C145	C	0.730240	-0.372117	0.705736
C146	C	0.794193	-0.347357	0.658861
H147	H	0.759851	-0.393657	0.746522
H148	H	0.695846	-0.387103	0.664393
H149	H	0.691658	-0.352383	0.738095
H150	H	0.832770	-0.367091	0.626496
H151	H	0.828602	-0.332370	0.700209
C152	C	1.377942	-0.164893	0.932090
C153	C	1.425505	-0.196737	0.988994
H154	H	1.418831	-0.145733	0.902484
H155	H	1.336701	-0.147501	0.966473
H156	H	1.346049	-0.179851	0.888710
H157	H	1.457393	-0.181780	1.032379
H158	H	1.466763	-0.214132	0.954609
C159	C	1.193998	-0.980117	0.682459
C160	C	1.146682	-1.004030	0.621747
H161	H	1.152682	-0.964080	0.719198
H162	H	1.230214	-0.959538	0.650222
H163	H	1.231175	-1.000518	0.719140
H164	H	1.109509	-0.983629	0.585061
H165	H	1.110450	-1.024612	0.653987
H166	H	1.103066	-0.794749	0.660410
C167	C	0.989076	-0.299212	0.670479
C168	C	0.938365	-0.321314	0.609551
H169	H	1.018688	-0.320754	0.711260
H170	H	0.950491	-0.279484	0.702833
H171	H	1.032452	-0.282415	0.638660
H172	H	0.894984	-0.338108	0.641369
H173	H	0.976954	-0.341049	0.577193
C174	C	1.032286	-0.715062	0.723361
C175	C	1.085700	-0.745732	0.675853
H176	H	0.991004	-0.730851	0.760118
H177	H	1.000168	-0.694688	0.682170
H178	H	1.069462	-0.698852	0.760028
H179	H	1.048524	-0.761940	0.639181
H180	H	1.117819	-0.766114	0.717050
H181	H	1.102990	-0.653989	0.660401
C182	C	1.092968	-0.499446	0.669146
C183	C	1.146398	-0.530110	0.621639
H184	H	1.051691	-0.515240	0.705900
H185	H	1.060845	-0.479075	0.627953
H186	H	1.130134	-0.483233	0.705815
H187	H	1.109232	-0.546322	0.584965
H188	H	1.178524	-0.550489	0.662837
C189	C	1.159174	-0.385518	0.610167
C190	C	1.146339	-0.431614	0.621614
H191	H	1.117879	-0.369470	0.646910
H192	H	1.149526	-0.375825	0.548993
H193	H	1.218818	-0.379998	0.626852
H194	H	1.086696	-0.437135	0.604923
H195	H	1.155980	-0.441310	0.682802
C196	C	1.517686	-0.765264	0.394359
C197	C	1.462921	-0.789158	0.340279
H198	H	1.558973	-0.749473	0.357612
H199	H	1.549796	-0.785644	0.435544
H200	H	1.481426	-0.744464	0.426585
H201	H	1.499180	-0.809960	0.308057
H202	H	1.430807	-0.768776	0.299078
C203	C	1.032364	-0.855824	0.723374
C204	C	1.085786	-0.886491	0.675866
H205	H	0.991085	-0.871616	0.760130
H206	H	1.000243	-0.835452	0.682182
H207	H	1.069535	-0.839612	0.760041
H208	H	1.048615	-0.902701	0.639194
H209	H	1.117909	-0.906872	0.717063
