data_functionalizedCrystal
_audit_creation_method	'MofGen! by Chris Wilmer'
_symmetry_space_group_name_H-M	'P1'
_symmetry_Int_Tables_number	1
_symmetry_cell_setting	triclinic
loop_
_symmetry_equiv_pos_as_xyz
  x,y,z
_cell_length_a	17.699083
_cell_length_b	10.489741
_cell_length_c	16.776229
_cell_angle_alpha	89.993659
_cell_angle_beta	89.998886
_cell_angle_gamma	83.911094
loop_
_atom_site_label
_atom_site_type_symbol
_atom_site_fract_x
_atom_site_fract_y
_atom_site_fract_z
O1	O	1.005134	0.161296	-0.066176
O2	O	0.784893	0.182281	-0.066202
O3	O	0.900025	-0.013903	-0.066184
O4	O	0.890002	0.357479	-0.066194
O5	O	0.900009	-0.013915	0.066393
O6	O	0.784877	0.182269	0.066375
O7	O	1.005118	0.161284	0.066401
Zn8	Zn	0.894995	0.171774	0.087437
Zn9	Zn	0.895016	0.171790	-0.087238
O10	O	0.889986	0.357467	0.066382
C11	C	0.756683	0.181523	0.000083
C12	C	0.672650	0.179267	0.000073
C13	C	0.899260	-0.061427	0.000104
C14	C	0.896995	-0.203014	0.000102
C15	C	0.624782	0.294422	0.000070
C16	C	0.545825	0.292295	0.000080
C17	C	0.514737	0.175011	0.000088
C18	C	0.562611	0.059847	0.000094
C19	C	0.641567	0.061975	0.000089
C20	C	0.244192	0.051260	0.000114
C21	C	0.165230	0.049140	0.000116
C22	C	0.148450	0.281580	0.000105
C23	C	0.227406	0.283709	0.000100
C24	C	0.275273	0.168545	0.000110
C25	C	0.360887	0.170853	0.000100
C26	C	0.429124	0.172702	0.000092
C27	C	0.823740	-0.269793	0.000088
C28	C	0.858337	-0.362564	0.065459
C29	C	0.858370	-0.362527	-0.065251
C30	C	0.931623	-0.293920	0.065528
C31	C	0.931645	-0.293874	-0.065241
C32	C	0.966296	-0.386619	0.000146
C33	C	1.033328	0.162042	0.000114
C34	C	1.117361	0.164297	0.000119
C35	C	0.890751	0.404991	0.000093
C36	C	0.893016	0.546578	0.000089
N37	N	0.894987	0.171763	0.206648
N38	N	0.895030	0.171791	-0.206450
C39	C	0.945983	0.084928	0.248373
C40	C	0.945987	0.084927	0.331826
C41	C	0.894998	0.171767	0.373551
C42	C	0.843996	0.258606	0.331820
C43	C	0.843989	0.258600	0.248369
C44	C	0.844024	0.258631	0.668367
C45	C	0.844037	0.258633	0.751824
C46	C	0.946022	0.084958	0.751823
C47	C	0.946015	0.084952	0.668373
C48	C	0.895011	0.171786	0.626649
C49	C	0.895006	0.171784	0.536161
C50	C	0.895006	0.171776	0.464038
H51	H	0.506854	0.386067	0.000077
C52	C	0.741131	0.286489	0.154537
C53	C	0.787933	0.354054	0.202503
H54	H	0.706520	0.345420	0.126226
H55	H	0.771497	0.234782	0.117748
H56	H	0.713628	0.233459	0.187111
H57	H	0.815441	0.407077	0.169928
H58	H	0.757563	0.405783	0.239295
C59	C	1.037275	-0.193538	-0.116688
C60	C	0.973463	-0.252720	-0.139840
H61	H	1.063089	-0.168136	-0.162749
H62	H	1.021604	-0.120250	-0.085182
H63	H	1.070416	-0.252102	-0.086443
H64	H	0.940320	-0.194153	-0.170081
H65	H	0.989133	-0.326018	-0.171360
H66	H	0.987550	0.014249	0.785804
H67	H	0.987537	0.014243	0.634402
H68	H	0.802496	0.329336	0.634402
H69	H	0.962585	-0.263669	0.120856
C70	C	0.680187	-0.135485	-0.068064
C71	C	0.694189	-0.064605	0.000086
H72	H	0.712678	-0.213627	-0.068065
H73	H	0.628723	-0.153538	-0.068055
H74	H	0.689679	-0.087363	-0.114293
H75	H	0.684691	-0.112723	0.046315
H76	H	0.745665	-0.046555	0.000084
H77	H	0.537293	-0.035648	0.000111
H78	H	0.827371	-0.392910	-0.120523
C79	C	0.741844	-0.344109	0.139931
C80	C	0.816488	-0.403671	0.140056
H81	H	0.716006	-0.369490	0.185979
H82	H	0.742582	-0.253703	0.140226
H83	H	0.716318	-0.368759	0.093506
H84	H	0.842017	-0.379013	0.186478
H85	H	0.815754	-0.494096	0.139768
C86	C	1.085828	-0.420265	0.068706
C87	C	1.047672	-0.454868	0.000203
H88	H	1.136064	-0.462409	0.068744
H89	H	1.087703	-0.330110	0.069140
H90	H	1.059599	-0.444829	0.114692
H91	H	1.073899	-0.430296	-0.045784
H92	H	1.045801	-0.545043	-0.000239
C93	C	1.046790	-0.086756	0.256764
C94	C	1.002031	-0.010534	0.202513
H95	H	1.081387	-0.145698	0.228451
H96	H	1.074303	-0.033718	0.289301
H97	H	1.015031	-0.132561	0.289324
H98	H	1.033790	0.035278	0.169957
H99	H	0.974516	-0.063578	0.169962
H100	H	0.987512	0.014219	0.365798
H101	H	0.802512	0.329351	0.785795
C102	C	0.798727	0.335744	0.459742
C103	C	0.787949	0.354067	0.377683
H104	H	0.764129	0.394688	0.488053
H105	H	0.790045	0.250648	0.473426
H106	H	0.849316	0.349492	0.473400
H107	H	0.737362	0.340310	0.364024
H108	H	0.796625	0.439183	0.363994
H109	H	0.252713	0.379213	0.000090
C110	C	0.600257	0.523972	0.000068
C111	C	0.658950	0.423347	0.000064
H112	H	0.621351	0.603565	0.000070
H113	H	0.569811	0.518313	-0.046160
H114	H	0.569812	0.518289	0.046305
H115	H	0.689392	0.429024	-0.046177
H116	H	0.689409	0.429009	0.046296
C117	C	0.155225	-0.149658	-0.068013
C118	C	0.131058	-0.079790	0.000131
H119	H	0.134131	-0.229252	-0.068001
H120	H	0.138835	-0.102257	-0.114241
H121	H	0.209099	-0.164867	-0.068004
H122	H	0.077184	-0.064572	0.000118
H123	H	0.147444	-0.127201	0.046371
C124	C	0.372670	-0.048703	0.000110
C125	C	0.296801	-0.075325	0.000112
H126	H	0.405150	-0.126857	0.000112
H127	H	0.382157	-0.000601	-0.046119
H128	H	0.382158	-0.000611	0.046346
H129	H	0.287311	-0.123409	-0.046127
H130	H	0.287310	-0.123447	0.046347
H131	H	0.109467	0.375352	0.000101
H132	H	0.763510	-0.219023	0.000147
