data_functionalizedCrystal
_audit_creation_method	'MofGen! by Chris Wilmer'
_symmetry_space_group_name_H-M	'P1'
_symmetry_Int_Tables_number	1
_symmetry_cell_setting	triclinic
loop_
_symmetry_equiv_pos_as_xyz
  x,y,z
_cell_length_a	14.044220
_cell_length_b	19.288865
_cell_length_c	18.366186
_cell_angle_alpha	89.989632
_cell_angle_beta	90.008612
_cell_angle_gamma	91.837438
loop_
_atom_site_label
_atom_site_type_symbol
_atom_site_fract_x
_atom_site_fract_y
_atom_site_fract_z
O1	O	1.256998	-0.167412	0.060564
O2	O	0.981055	-0.161371	0.060565
O3	O	1.127000	-0.063773	0.060550
O4	O	1.111053	-0.265009	0.060579
O5	O	1.126975	-0.063769	-0.060549
O6	O	0.981030	-0.161366	-0.060534
O7	O	1.256973	-0.167407	-0.060535
Zn8	Zn	1.118997	-0.164386	-0.079762
Zn9	Zn	1.119030	-0.164392	0.079792
O10	O	1.111028	-0.265005	-0.060520
C11	C	0.945739	-0.158724	0.000016
C12	C	0.840547	-0.150836	0.000015
C13	C	1.292289	-0.170054	0.000016
C14	C	1.397481	-0.177942	0.000021
C15	C	1.126474	-0.037862	-0.000002
C16	C	1.124934	0.039341	-0.000008
C17	C	1.590081	-0.192362	0.000022
C18	C	1.647953	-0.136419	0.000014
C19	C	1.755122	-0.144443	0.000015
C20	C	1.482901	-0.184339	0.000022
C21	C	1.111554	-0.290916	0.000033
C22	C	1.113094	-0.368119	0.000044
N23	N	1.118982	-0.164382	-0.188653
C24	C	1.210568	0.078535	-0.000012
C25	C	1.209121	0.151075	-0.000000
C26	C	1.122035	0.184418	0.000000
C27	C	1.036390	0.145215	0.000008
C28	C	1.037839	0.072676	0.000004
C29	C	1.053566	0.297106	-0.042418
C30	C	1.052120	0.369643	-0.042418
C31	C	1.117560	0.408151	0.000017
C32	C	1.184463	0.374114	0.042442
C33	C	1.185912	0.301575	0.042438
C34	C	1.120453	0.263074	0.000005
C35	C	1.201631	0.526002	0.000026
C36	C	1.200181	0.598543	0.000042
C37	C	1.027447	0.592681	0.000044
C38	C	1.028900	0.520142	0.000035
C39	C	1.115995	0.486806	0.000023
C40	C	1.176265	-0.210086	-0.226741
C41	C	1.176281	-0.210085	-0.302969
C42	C	1.118995	-0.164387	-0.341106
C43	C	1.061708	-0.118674	-0.303008
C44	C	1.061701	-0.118671	-0.226782
C45	C	1.033574	-0.157142	-0.461887
C46	C	1.033579	-0.157149	-0.538112
C47	C	1.119016	-0.164391	-0.576213
C48	C	1.204451	-0.171639	-0.538080
C49	C	1.204444	-0.171637	-0.461854
C50	C	1.118996	-0.164384	-0.423760
C51	C	1.176321	-0.210096	-0.696956
C52	C	1.176339	-0.210091	-0.773186
C53	C	1.061757	-0.118683	-0.773223
C54	C	1.061749	-0.118685	-0.696996
C55	C	1.119029	-0.164396	-0.658867
N56	N	1.119054	-0.164391	0.188683
H57	H	1.617012	-0.082498	0.000059
Cl58	Cl	0.930176	0.023401	0.000009
H59	H	1.222911	-0.247305	-0.195701
Cl60	Cl	1.311866	-0.180744	-0.585970
Cl61	Cl	1.311119	0.484091	0.000007
Cl62	Cl	1.307845	0.647817	0.000042
H63	H	1.222928	-0.247305	-0.333987
H64	H	1.015115	-0.081473	-0.804274
Cl65	Cl	1.637848	-0.275607	0.000041
H66	H	0.956540	0.619828	0.000048
Cl67	Cl	0.926176	-0.148043	-0.586043
Cl68	Cl	0.989694	-0.061222	-0.350950
H69	H	1.281487	0.051398	-0.000020
Cl70	Cl	0.921239	0.470866	0.000037
Cl71	Cl	0.989675	-0.061213	-0.178897
H72	H	1.278856	0.182993	-0.000001
Cl73	Cl	0.971293	0.248703	-0.095772
Cl74	Cl	1.270008	0.258787	0.095775
H75	H	1.237750	0.405465	0.076997
Cl76	Cl	0.968020	0.412426	-0.095755
H77	H	0.965484	0.172367	0.000011
Cl78	Cl	1.248351	-0.267546	-0.649019
Cl79	Cl	1.311842	-0.180748	-0.413918
H80	H	1.222993	-0.247307	-0.804196
Cl81	Cl	0.989712	-0.061237	-0.649111
Cl82	Cl	0.926167	-0.147980	-0.413996
