data_functionalizedCrystal
_audit_creation_method	'MofGen! by Chris Wilmer'
_symmetry_space_group_name_H-M	'P1'
_symmetry_Int_Tables_number	1
_symmetry_cell_setting	triclinic
loop_
_symmetry_equiv_pos_as_xyz
  x,y,z
_cell_length_a	10.654550
_cell_length_b	16.109301
_cell_length_c	15.186229
_cell_angle_alpha	90.000638
_cell_angle_beta	89.997420
_cell_angle_gamma	96.026808
loop_
_atom_site_label
_atom_site_type_symbol
_atom_site_fract_x
_atom_site_fract_y
_atom_site_fract_z
O1	O	0.161419	-1.104090	-0.073171
O2	O	0.494752	-0.770757	0.260163
O3	O	0.828086	-0.437424	0.593496
O4	O	0.181507	-0.862148	-0.073184
O5	O	0.514841	-0.528814	0.260149
O6	O	0.848174	-0.195481	0.593482
O7	O	-0.011352	-0.988682	-0.073174
O8	O	0.321982	-0.655348	0.260159
O9	O	0.655315	-0.322015	0.593493
O10	O	0.354278	-0.977556	-0.073181
O11	O	0.687611	-0.644223	0.260152
O12	O	1.020944	-0.310890	0.593486
O13	O	-0.011354	-0.988673	0.073283
O14	O	0.321979	-0.655340	0.406617
O15	O	0.655312	-0.322007	0.739950
O16	O	0.181505	-0.862139	0.073273
O17	O	0.514838	-0.528806	0.406606
O18	O	0.848171	-0.195473	0.739940
O19	O	0.161416	-1.104082	0.073287
O20	O	0.494749	-0.770748	0.406620
O21	O	0.828083	-0.437415	0.739953
Zn22	Zn	0.171460	-0.983109	0.096533
Zn23	Zn	0.504793	-0.649776	0.429866
Zn24	Zn	0.838127	-0.316443	0.763200
Zn25	Zn	0.171463	-0.983120	-0.096431
Zn26	Zn	0.504797	-0.649787	0.236903
Zn27	Zn	0.838130	-0.316454	0.570236
O28	O	0.354275	-0.977548	0.073276
O29	O	0.687608	-0.644214	0.406610
O30	O	1.020942	-0.310881	0.739943
C31	C	0.180692	-0.831164	0.000043
C32	C	0.514026	-0.497830	0.333376
C33	C	0.847359	-0.164497	0.666709
C34	C	0.178253	-0.738854	0.000037
C35	C	0.511586	-0.405521	0.333371
C36	C	0.844919	-0.072187	0.666704
C37	C	-0.058140	-0.987861	0.000054
C38	C	0.275193	-0.654527	0.333387
C39	C	0.608527	-0.321194	0.666720
C40	C	-0.197550	-0.985417	0.000050
C41	C	0.135783	-0.652083	0.333384
C42	C	0.469117	-0.318750	0.666717
N43	N	0.171457	-0.983108	0.228226
N44	N	0.504790	-0.649774	0.561559
N45	N	0.838123	-0.316441	0.894892
C46	C	-0.278046	-1.059918	0.000057
C47	C	0.055287	-0.726585	0.333391
C48	C	0.388620	-0.393251	0.666724
C49	C	-0.409036	-1.057616	0.000051
C50	C	-0.075703	-0.724283	0.333384
C51	C	0.257631	-0.390950	0.666718
C52	C	-0.379020	-0.906306	0.000035
C53	C	-0.045687	-0.572973	0.333368
C54	C	0.287647	-0.239639	0.666701
C55	C	-0.248033	-0.908608	0.000035
C56	C	0.085300	-0.575275	0.333368
C57	C	0.418634	-0.241942	0.666701
C58	C	-0.227564	-1.136726	0.000073
C59	C	0.105770	-0.803393	0.333406
C60	C	0.439103	-0.470059	0.666740
C61	C	-0.308061	-1.211233	0.000081
C62	C	0.025272	-0.877900	0.333414
C63	C	0.358605	-0.544567	0.666748
C64	C	-0.439051	-1.208932	0.000075
C65	C	-0.105718	-0.875599	0.333408
C66	C	0.227616	-0.542265	0.666741
C67	C	-0.489543	-1.132123	0.000061
C68	C	-0.156209	-0.798790	0.333394
C69	C	0.177124	-0.465457	0.666727
C70	C	0.401063	-0.978369	0.000047
C71	C	0.734397	-0.645036	0.333380
C72	C	1.067730	-0.311702	0.666713
C73	C	0.540473	-0.980813	0.000044
C74	C	0.873807	-0.647480	0.333378
C75	C	1.207140	-0.314146	0.666711
C76	C	0.162231	-1.135066	0.000058
C77	C	0.495565	-0.801732	0.333391
C78	C	0.828898	-0.468399	0.666725
C79	C	0.164671	-1.227376	0.000057
C80	C	0.498004	-0.894042	0.333391
C81	C	0.831338	-0.560709	0.666724
C82	C	0.287019	-0.517228	0.000045
C83	C	0.620352	-0.183895	0.333379
C84	C	0.953685	0.149438	0.666712
C85	C	0.284717	-0.430494	0.000051
C86	C	0.618050	-0.097161	0.333384
C87	C	0.951383	0.236172	0.666718
C88	C	0.055896	-0.449008	0.000052
C89	C	0.389229	-0.115675	0.333385
C90	C	0.722563	0.217659	0.666719
C91	C	0.058199	-0.535741	0.000052
C92	C	0.391533	-0.202407	0.333386
C93	C	0.724866	0.130926	0.666719
C94	C	0.173764	-0.569848	0.000045
C95	C	0.507098	-0.236515	0.333378
C96	C	0.840431	0.096819	0.666711
C97	C	0.169159	-0.396382	0.000050
C98	C	0.502492	-0.063048	0.333383
C99	C	0.835826	0.270285	0.666717
C100	C	0.166662	-0.302341	0.000056
C101	C	0.499995	0.030993	0.333389
C102	C	0.833329	0.364326	0.666723
C103	C	0.176262	-0.663895	0.000040
C104	C	0.509595	-0.330562	0.333374
C105	C	0.842929	0.002772	0.666707
N106	N	0.171457	-0.983129	-0.228123
N107	N	0.504790	-0.649795	0.105210
N108	N	0.838123	-0.316462	0.438543
C109	C	0.086088	-1.039156	0.453953
C110	C	0.419421	-0.705823	0.787287
C111	C	0.752754	-0.372490	1.120620
C112	C	0.086085	-1.039159	0.546143
C113	C	0.419418	-0.705825	0.879476
C114	C	0.752751	-0.372492	1.212810
C115	C	0.256830	-0.927074	0.546143
C116	C	0.590163	-0.593741	0.879476
C117	C	0.923497	-0.260407	1.212809
C118	C	0.256826	-0.927068	0.453955
C119	C	0.590159	-0.593735	0.787288
C120	C	0.923493	-0.260401	1.120621
C121	C	0.171456	-0.983114	0.407862
C122	C	0.504790	-0.649780	0.741196
C123	C	0.838123	-0.316447	1.074529
C124	C	0.171457	-0.983122	0.592240
C125	C	0.504791	-0.649789	0.925573
C126	C	0.838124	-0.316456	1.258907
C127	C	0.171455	-0.983125	0.692196
C128	C	0.504788	-0.649791	1.025529
C129	C	0.838121	-0.316458	1.358863
C130	C	0.171457	-0.983111	0.307900
C131	C	0.504790	-0.649777	0.641233
C132	C	0.838123	-0.316444	0.974567
H133	H	-0.120907	-1.138609	0.000081
H134	H	0.212426	-0.805275	0.333414
H135	H	0.545760	-0.471942	0.666748
Cl136	Cl	0.427100	-0.364347	0.000053
Cl137	Cl	0.760434	-0.031013	0.333386
Cl138	Cl	1.093767	0.302320	0.666720
Cl139	Cl	-0.084189	-0.601896	0.000059
Cl140	Cl	0.249144	-0.268563	0.333392
Cl141	Cl	0.582477	0.064770	0.666725
H142	H	0.326344	-0.881427	0.416425
H143	H	0.659677	-0.548094	0.749758
H144	H	0.993011	-0.214761	1.083092
H145	H	-0.266942	-1.273768	0.000070
H146	H	0.066392	-0.940435	0.333404
H147	H	0.399725	-0.607102	0.666737
H148	H	0.016573	-1.084791	0.416427
H149	H	0.349906	-0.751458	0.749760
H150	H	0.683239	-0.418124	1.083094
H151	H	-0.038193	-0.421227	0.000063
H152	H	0.295140	-0.087894	0.333397
H153	H	0.628474	0.245440	0.666730
Cl154	Cl	-0.021243	-1.109613	0.604083
Cl155	Cl	0.312090	-0.776280	0.937416
Cl156	Cl	0.645424	-0.442947	1.270750
H157	H	-0.504589	-1.269599	0.000072
H158	H	-0.171256	-0.936266	0.333405
H159	H	0.162077	-0.602933	0.666739
Cl160	Cl	-0.654218	-1.129233	0.000092
Cl161	Cl	-0.320884	-0.795900	0.333425
Cl162	Cl	0.012449	-0.462566	0.666759
H163	H	-0.420141	-0.843772	0.000024
H164	H	-0.086808	-0.510439	0.333358
H165	H	0.246525	-0.177105	0.666691
H166	H	-0.182490	-0.847943	0.000030
H167	H	0.150843	-0.514610	0.333364
H168	H	0.484177	-0.181276	0.666697
H169	H	0.381119	-0.544995	0.000046
H170	H	0.714452	-0.211662	0.333379
H171	H	1.047786	0.121671	0.666712
H172	H	0.326338	-0.881444	0.583680
H173	H	0.659671	-0.548110	0.917014
H174	H	0.993005	-0.214777	1.250347
