data_functionalizedCrystal
_audit_creation_method	'MofGen! by Chris Wilmer'
_symmetry_space_group_name_H-M	'P1'
_symmetry_Int_Tables_number	1
_symmetry_cell_setting	triclinic
loop_
_symmetry_equiv_pos_as_xyz
  x,y,z
_cell_length_a	27.732048
_cell_length_b	27.731996
_cell_length_c	18.266242
_cell_angle_alpha	89.987663
_cell_angle_beta	89.996455
_cell_angle_gamma	82.632022
loop_
_atom_site_label
_atom_site_type_symbol
_atom_site_fract_x
_atom_site_fract_y
_atom_site_fract_z
O1	O	0.640919	0.057519	-0.060796
O2	O	1.140919	0.557519	0.439204
O3	O	0.500124	0.066265	-0.060819
O4	O	1.000124	0.566265	0.439181
O5	O	0.574908	-0.008506	-0.060791
O6	O	1.074908	0.491494	0.439209
O7	O	0.566136	0.132291	-0.060824
O8	O	1.066136	0.632291	0.439176
O9	O	0.574895	-0.008510	0.060971
O10	O	1.074895	0.491490	0.560971
O11	O	0.500112	0.066261	0.060943
O12	O	1.000112	0.566261	0.560943
O13	O	0.640907	0.057515	0.060966
O14	O	1.140907	0.557515	0.560966
Zn15	Zn	0.570507	0.061888	0.080287
Zn16	Zn	1.070507	0.561888	0.580287
Zn17	Zn	0.570524	0.061893	-0.080140
Zn18	Zn	1.070524	0.561893	0.419860
O19	O	0.566123	0.132287	0.060938
O20	O	1.066123	0.632287	0.560938
C21	C	0.482111	0.066079	0.000059
C22	C	0.982111	0.566079	0.500059
C23	C	0.428456	0.065527	0.000051
C24	C	0.928456	0.565527	0.500051
C25	C	0.089634	0.106231	0.000073
C26	C	0.589634	0.606231	0.500073
C27	C	-0.112026	0.104180	0.000080
C28	C	0.387974	0.604180	0.500080
O29	O	-0.143288	0.141402	0.000103
O30	O	0.356712	0.641402	0.500103
N31	N	-0.131141	0.059844	0.000089
N32	N	0.368859	0.559844	0.500089
C33	C	-0.099838	0.016017	0.000101
C34	C	0.400162	0.516017	0.500101
O35	O	-0.120724	-0.021740	0.000116
O36	O	0.379276	0.478260	0.500116
C37	C	0.101820	0.018069	0.000099
C38	C	0.601820	0.518069	0.500099
C39	C	0.120933	0.062408	0.000083
C40	C	0.620933	0.562408	0.500083
C41	C	0.108747	0.150567	0.000057
C42	C	0.608747	0.650567	0.500057
C43	C	0.159159	0.151079	0.000051
C44	C	0.659159	0.651079	0.500051
C45	C	0.190457	0.107256	0.000061
C46	C	0.690457	0.607256	0.500061
C47	C	0.171344	0.062920	0.000077
C48	C	0.671344	0.562920	0.500077
C49	C	0.133122	-0.025757	0.000117
C50	C	0.633122	0.474243	0.500117
C51	C	0.183539	-0.025240	0.000118
C52	C	0.683539	0.474760	0.500118
C53	C	0.202652	0.019099	0.000101
C54	C	0.702652	0.519099	0.500101
C55	C	0.253055	0.019609	0.000081
C56	C	0.753055	0.519609	0.500081
N57	N	0.272171	0.063946	0.000072
N58	N	0.772171	0.563946	0.500072
C59	C	0.240872	0.107769	0.000062
C60	C	0.740872	0.607769	0.500062
C61	C	-0.205712	0.014943	0.000100
C62	C	0.294288	0.514943	0.500100
C63	C	-0.256126	0.014430	0.000100
C64	C	0.243874	0.514430	0.500100
C65	C	-0.268310	0.102594	0.000080
C66	C	0.231690	0.602594	0.500080
C67	C	-0.217895	0.103106	0.000075
C68	C	0.282105	0.603106	0.500075
C69	C	-0.186597	0.059280	0.000091
C70	C	0.313403	0.559280	0.500091
C71	C	0.346741	0.108842	0.000049
C72	C	0.846741	0.608842	0.500049
C73	C	0.397158	0.109350	0.000041
C74	C	0.897158	0.609350	0.500041
C75	C	0.409337	0.021187	0.000064
C76	C	0.909337	0.521187	0.500064
C77	C	0.358925	0.020678	0.000069
C78	C	0.858925	0.520678	0.500069
C79	C	0.327627	0.064510	0.000064
C80	C	0.827627	0.564510	0.500064
O81	O	0.284346	-0.017592	0.000066
O82	O	0.784346	0.482408	0.500066
O83	O	0.261767	0.145521	0.000063
O84	O	0.761767	0.645521	0.500063
C85	C	0.039222	0.105719	0.000078
C86	C	0.539222	0.605719	0.500078
C87	C	0.020109	0.061384	0.000094
C88	C	0.520109	0.561384	0.500094
C89	C	0.051408	0.017560	0.000104
C90	C	0.551408	0.517560	0.500104
C91	C	-0.030305	0.060871	0.000093
C92	C	0.469695	0.560871	0.500093
C93	C	-0.061604	0.104694	0.000083
C94	C	0.438396	0.604694	0.500083
C95	C	-0.042489	0.149030	0.000074
C96	C	0.457511	0.649030	0.500074
C97	C	0.007923	0.149543	0.000068
C98	C	0.507923	0.649543	0.500068
C99	C	0.032292	-0.026776	0.000113
C100	C	0.532292	0.473224	0.500113
C101	C	-0.018120	-0.027285	0.000118
C102	C	0.481880	0.472715	0.500118
C103	C	-0.049419	0.016539	0.000108
C104	C	0.450581	0.516539	0.500108
C105	C	0.574721	-0.026516	0.000092
C106	C	1.074721	0.473484	0.500092
C107	C	0.574179	-0.080172	0.000100
C108	C	1.074179	0.419828	0.500100
C109	C	0.570771	-0.412886	-0.066309
C110	C	1.070771	0.087114	0.433691
C111	C	0.568710	-0.614544	-0.066322
C112	C	1.068710	-0.114544	0.433678
O113	O	0.568428	-0.640613	-0.122770
O114	O	1.068428	-0.140613	0.377230
N115	N	0.568447	-0.639764	0.000049
N116	N	1.068447	-0.139764	0.500049
C117	C	0.568696	-0.614565	0.066429
C118	C	1.068696	-0.114565	0.566429
O119	O	0.568420	-0.640642	0.122882
O120	O	1.068420	-0.140642	0.622882
C121	C	0.570754	-0.412907	0.066442
C122	C	1.070754	0.087093	0.566442
C123	C	0.571021	-0.387691	0.000066
C124	C	1.071021	0.112309	0.500066
C125	C	0.571038	-0.387670	-0.132680
C126	C	1.071038	0.112330	0.367320
C127	C	0.571556	-0.337259	-0.132676
C128	C	1.071556	0.162741	0.367324
C129	C	0.571806	-0.312064	-0.066301
C130	C	1.071806	0.187936	0.433699
C131	C	0.571539	-0.337280	0.000070
C132	C	1.071539	0.162720	0.500070
C133	C	0.570999	-0.387708	0.132821
C134	C	1.070999	0.112292	0.632821
C135	C	0.571513	-0.337291	0.132818
C136	C	1.071513	0.162709	0.632818
C137	C	0.571780	-0.312075	0.066442
C138	C	1.071780	0.187925	0.566442
C139	C	0.572308	-0.261674	0.066448
C140	C	1.072308	0.238326	0.566448
N141	N	0.572571	-0.236454	0.000076
N142	N	1.072571	0.263546	0.500076
C143	C	0.572320	-0.261650	-0.066298
C144	C	1.072320	0.238350	0.433702
C145	C	0.567617	-0.720438	0.066418
C146	C	1.067617	-0.220438	0.566418
C147	C	0.567103	-0.770852	0.066415
C148	C	1.067103	-0.270852	0.566415
C149	C	0.567116	-0.770829	-0.066337
C150	C	1.067116	-0.270829	0.433663
C151	C	0.567633	-0.720414	-0.066333
C152	C	1.067633	-0.220414	0.433667
C153	C	0.567880	-0.695219	0.000046
C154	C	1.067880	-0.195219	0.500046
C155	C	0.573408	-0.155783	-0.066285
C156	C	1.073408	0.344217	0.433715
C157	C	0.573928	-0.105367	-0.066275
C158	C	1.073928	0.394633	0.433725
C159	C	0.573913	-0.105395	0.066476
C160	C	1.073913	0.394605	0.566476
C161	C	0.573395	-0.155806	0.066467
C162	C	1.073395	0.344194	0.566467
C163	C	0.573141	-0.180999	0.000080
C164	C	1.073141	0.319001	0.500080
O165	O	0.572584	-0.235573	0.122866
O166	O	1.072584	0.264427	0.622866
O167	O	0.572585	-0.235562	-0.122743
O168	O	1.072585	0.264438	0.377257
C169	C	0.570253	-0.463297	-0.066313
C170	C	1.070253	0.036703	0.433687
C171	C	0.569986	-0.488513	0.000058
C172	C	1.069986	0.011487	0.500058
C173	C	0.570236	-0.463318	0.066432
C174	C	1.070236	0.036682	0.566432
C175	C	0.569472	-0.538928	0.000055
C176	C	1.069472	-0.038928	0.500055
C177	C	0.569221	-0.564123	-0.066320
C178	C	1.069221	-0.064123	0.433680
C179	C	0.569484	-0.538904	-0.132692
C180	C	1.069484	-0.038904	0.367308
C181	C	0.570002	-0.488493	-0.132688
C182	C	1.070002	0.011507	0.367312
C183	C	0.569974	-0.488537	0.132804
C184	C	1.069974	0.011463	0.632804
C185	C	0.569456	-0.538949	0.132795
C186	C	1.069456	-0.038949	0.632795
C187	C	0.569205	-0.564144	0.066420
C188	C	1.069205	-0.064144	0.566420
C189	C	0.658920	0.057701	0.000086
C190	C	1.158920	0.557701	0.500086
C191	C	0.712575	0.058254	0.000090
C192	C	1.212575	0.558254	0.500090
C193	C	0.566310	0.150296	0.000053
C194	C	1.066310	0.650296	0.500053
C195	C	0.566853	0.203952	0.000040
C196	C	1.066853	0.703952	0.500040
N197	N	0.570500	0.061884	0.189774
N198	N	1.070500	0.561884	0.689774
N199	N	0.570536	0.061892	-0.189627
N200	N	1.070536	0.561892	0.310373
C201	C	0.603624	0.028791	0.228095
C202	C	1.103624	0.528791	0.728095
C203	C	0.603627	0.028789	0.304740
C204	C	1.103627	0.528789	0.804740
C205	C	0.570510	0.061888	0.343060
C206	C	1.070510	0.561888	0.843060
C207	C	0.537379	0.094983	0.304730
C208	C	1.037379	0.594983	0.804730
C209	C	0.537374	0.094981	0.228086
C210	C	1.037374	0.594981	0.728086
N211	N	0.564030	0.104708	0.463382
N212	N	1.064030	0.604708	0.963382
N213	N	0.564038	0.104708	0.536190
N214	N	1.064038	0.604708	1.036190
C215	C	0.570524	0.061895	0.573983
C216	C	1.070524	0.561895	1.073983
N217	N	0.577011	0.019080	0.536217
N218	N	1.077011	0.519080	1.036217
N219	N	0.577005	0.019080	0.463402
N220	N	1.077005	0.519080	0.963402
C221	C	0.570512	0.061893	0.426167
C222	C	1.070512	0.561893	0.926167
C223	C	0.603654	0.028797	0.695411
C224	C	1.103654	0.528797	1.195411
C225	C	0.603654	0.028794	0.772058
C226	C	1.103654	0.528794	1.272058
C227	C	0.537408	0.094992	0.772046
C228	C	1.037408	0.594992	1.272046
C229	C	0.537406	0.094991	0.695401
C230	C	1.037406	0.594991	1.195401
C231	C	0.570531	0.061894	0.657089
C232	C	1.070531	0.561894	1.157089
H233	H	0.321264	0.144533	0.000048
H234	H	0.821264	0.644533	0.500048
H235	H	0.569242	-0.559476	0.186850
H236	H	1.069242	-0.059476	0.686850
C237	C	0.633051	-0.000594	0.422239
C238	C	1.133051	0.499406	0.922239
C239	C	0.640042	-0.007587	0.346876
C240	C	1.140042	0.492413	0.846876
H241	H	0.655530	-0.023053	0.448248
H242	H	1.155530	0.476947	0.948248
H243	H	0.638049	0.031630	0.434777
H244	H	1.138049	0.531630	0.934777
H245	H	0.600832	-0.005627	0.434802
H246	H	1.100832	0.494373	0.934802
H247	H	0.672260	-0.002551	0.334311
H248	H	1.172260	0.497449	0.834311
H249	H	0.635048	-0.039820	0.334332
H250	H	1.135048	0.460180	0.834332
H251	H	0.630596	0.001841	0.196903
H252	H	1.130596	0.501841	0.696903
H253	H	0.570832	-0.408179	-0.186733
H254	H	1.070832	0.091821	0.313267
C255	C	0.569959	-0.493548	-0.263903
C256	C	1.069959	0.006452	0.236097
C257	C	0.570291	-0.460779	-0.205651
C258	C	1.070291	0.039221	0.294349
H259	H	0.570134	-0.476440	-0.308949
H260	H	1.070134	0.023560	0.191051
H261	H	0.597956	-0.517109	-0.261135
H262	H	1.097956	-0.017109	0.238865
H263	H	0.541557	-0.509314	-0.261136
H264	H	1.041557	-0.009314	0.238864
H265	H	0.598695	-0.445016	-0.208416
H266	H	1.098695	0.054984	0.291584
H267	H	0.542291	-0.437209	-0.208421
H268	H	1.042291	0.062791	0.291579
H269	H	0.571706	-0.316779	0.186873
H270	H	1.071706	0.183221	0.686873
C271	C	0.567139	-0.765799	0.197632
C272	C	1.067139	-0.265799	0.697632
C273	C	0.566813	-0.798567	0.139378
C274	C	1.066813	-0.298567	0.639378
H275	H	0.566955	-0.782908	0.242677
H276	H	1.066955	-0.282908	0.742677
H277	H	0.595538	-0.750036	0.194877
H278	H	1.095538	-0.250036	0.694877
H279	H	0.539139	-0.742235	0.194856
H280	H	1.039139	-0.242235	0.694856
H281	H	0.594815	-0.822129	0.142151
H282	H	1.094815	-0.322129	0.642151
H283	H	0.538411	-0.814338	0.142135
H284	H	1.038411	-0.314338	0.642135
H285	H	0.510399	0.121930	0.196884
H286	H	1.010399	0.621930	0.696884
H287	H	0.570178	-0.468029	0.186856
H288	H	1.070178	0.031971	0.686856
C289	C	0.669131	-0.036641	0.703118
C290	C	1.169131	0.463359	1.203118
C291	C	0.640059	-0.007588	0.653292
C292	C	1.140059	0.492412	1.153292
H293	H	0.691603	-0.059105	0.677115
H294	H	1.191603	0.440895	1.177115
H295	H	0.686364	-0.016639	0.732999
H296	H	1.186364	0.483361	1.232999
H297	H	0.649140	-0.053888	0.733024
H298	H	1.149140	0.446112	1.233024
H299	H	0.660050	0.009663	0.623390
H300	H	1.160050	0.509663	1.123390
H301	H	0.622824	-0.027592	0.623398
H302	H	1.122824	0.472408	1.123398
H303	H	0.174715	0.187185	0.000037
H304	H	0.674715	0.687185	0.500037
H305	H	-0.271683	-0.021675	0.000102
H306	H	0.228317	0.478325	0.500102
C307	C	0.532905	-0.042958	0.143454
C308	C	1.032905	0.457042	0.643454
C309	C	0.574182	-0.077689	0.139430
C310	C	1.074182	0.422311	0.639430
H311	H	0.533067	-0.025853	0.188494
H312	H	1.033067	0.474147	0.688494
H313	H	0.533144	-0.020734	0.103922
H314	H	1.033144	0.479266	0.603922
H315	H	0.504510	-0.058733	0.140688
H316	H	1.004510	0.441267	0.640688
H317	H	0.602577	-0.061913	0.142191
H318	H	1.102577	0.438087	0.642191
H319	H	0.573948	-0.099916	0.178973
H320	H	1.073948	0.400084	0.678973
H321	H	0.510414	0.121932	0.335934
H322	H	1.010414	0.621932	0.835934
C323	C	-0.168275	0.154838	-0.062535
C324	C	0.331725	0.654838	0.437465
C325	C	-0.196891	0.151846	0.000059
C326	C	0.303109	0.651846	0.500059
H327	H	-0.155313	0.184930	-0.062546
H328	H	0.344687	0.684930	0.437454
H329	H	-0.142417	0.128818	-0.062520
H330	H	0.357583	0.628818	0.437480
H331	H	-0.187691	0.152801	-0.104991
H332	H	0.312309	0.652801	0.395009
H333	H	-0.177474	0.153879	0.042515
H334	H	0.322526	0.653879	0.542515
H335	H	-0.222752	0.177872	0.000050
H336	H	0.277248	0.677872	0.500050
C337	C	0.567593	-0.725466	-0.197550
C338	C	1.067593	-0.225466	0.302450
C339	C	0.567921	-0.692698	-0.139295
C340	C	1.067921	-0.192698	0.360705
H341	H	0.567767	-0.708355	-0.242594
H342	H	1.067767	-0.208355	0.257406
H343	H	0.595591	-0.749025	-0.194782
H344	H	1.095591	-0.249025	0.305218
H345	H	0.539192	-0.741233	-0.194785
H346	H	1.039192	-0.241233	0.305215
H347	H	0.596324	-0.676933	-0.142057
H348	H	1.096324	-0.176933	0.357943
H349	H	0.539920	-0.669130	-0.142064
H350	H	1.039920	-0.169130	0.357936
H351	H	0.569282	-0.559427	-0.186736
H352	H	1.069282	-0.059427	0.313264
C353	C	0.614663	-0.037072	0.858262
C354	C	1.114663	0.462928	1.358262
C355	C	0.640067	-0.007586	0.814182
C356	C	1.140067	0.492414	1.314182
H357	H	0.637145	-0.059533	0.884264
H358	H	1.137145	0.440467	1.384264
H359	H	0.594943	-0.017363	0.892050
H360	H	1.094943	0.482637	1.392050
H361	H	0.594679	-0.054322	0.828364
H362	H	1.094679	0.445678	1.328364
H363	H	0.660049	0.009667	0.844080
H364	H	1.160049	0.509667	1.344080
H365	H	0.659796	-0.027298	0.780390
H366	H	1.159796	0.472702	1.280390
H367	H	0.510441	0.121940	0.803246
H368	H	1.010441	0.621940	1.303246
C369	C	0.309294	-0.031045	-0.062505
C370	C	0.809294	0.468955	0.437495
C371	C	0.337912	-0.028059	0.000081
C372	C	0.837912	0.471941	0.500081
H373	H	0.296327	-0.061135	-0.062494
H374	H	0.796327	0.438865	0.437506
H375	H	0.283440	-0.005022	-0.062501
H376	H	0.783440	0.494978	0.437499
H377	H	0.328710	-0.029012	-0.104967
H378	H	0.828710	0.470988	0.395033
H379	H	0.318495	-0.030088	0.042542
H380	H	0.818495	0.469912	0.542542
H381	H	0.363770	-0.054089	0.000084
H382	H	0.863770	0.445911	0.500084
H383	H	0.510434	0.121940	0.664198
H384	H	1.010434	0.621940	1.164198
H385	H	0.412716	0.145458	0.000027
H386	H	0.912716	0.645458	0.500027
H387	H	0.057772	-0.062463	0.000123
H388	H	0.557772	0.437537	0.500123
C389	C	0.101781	0.237760	0.000024
C390	C	0.601781	0.737760	0.500024
C391	C	0.074348	0.198744	0.000040
C392	C	0.574348	0.698744	0.500040
H393	H	0.080546	0.267504	0.000004
H394	H	0.580546	0.767504	0.500004
H395	H	0.121693	0.236125	0.042486
H396	H	0.621693	0.736125	0.542486
H397	H	0.121704	0.236116	-0.042437
H398	H	0.621704	0.736116	0.457563
H399	H	0.054427	0.200386	0.042503
H400	H	0.554427	0.700386	0.542503
H401	H	0.054428	0.200380	-0.042426
H402	H	0.554428	0.700380	0.457574
C403	C	0.573434	-0.150763	0.197687
C404	C	1.073434	0.349237	0.697687
C405	C	0.573103	-0.183527	0.139427
C406	C	1.073103	0.316473	0.639427
H407	H	0.573247	-0.167874	0.242729
H408	H	1.073247	0.332126	0.742729
H409	H	0.601836	-0.135005	0.194933
H410	H	1.101836	0.364995	0.694933
H411	H	0.545437	-0.127195	0.194913
H412	H	1.045437	0.372805	0.694913
H413	H	0.601102	-0.207093	0.142198
H414	H	1.101102	0.292907	0.642198
H415	H	0.544698	-0.199293	0.142182
H416	H	1.044698	0.300707	0.642182
C417	C	0.566326	-0.848103	-0.125275
C418	C	1.066326	-0.348103	0.374725
C419	C	0.566835	-0.798529	-0.139298
C420	C	1.066835	-0.298529	0.360702
H421	H	0.566147	-0.865203	-0.170316
H422	H	1.066147	-0.365203	0.329684
H423	H	0.594439	-0.860264	-0.098009
H424	H	1.094439	-0.360264	0.401991
H425	H	0.538041	-0.852461	-0.097998
H426	H	1.038041	-0.352461	0.402002
H427	H	0.595123	-0.794170	-0.166570
H428	H	1.095123	-0.294170	0.333430
H429	H	0.538719	-0.786364	-0.166575
H430	H	1.038719	-0.286364	0.333425
H431	H	-0.180232	-0.020747	0.000114
H432	H	0.319768	0.479253	0.500114
C433	C	-0.351005	0.140946	0.000078
C434	C	0.148995	0.640946	0.500078
C435	C	-0.302721	0.150766	0.000074
C436	C	0.197279	0.650766	0.500074
H437	H	-0.372249	0.170684	0.000083
H438	H	0.127751	0.670684	0.500083
H439	H	-0.356758	0.122757	-0.042379
H440	H	0.143242	0.622757	0.457621
H441	H	-0.356756	0.122743	0.042543
H442	H	0.143244	0.622743	0.542543
H443	H	-0.296969	0.168965	-0.042394
H444	H	0.203031	0.668965	0.457606
H445	H	-0.296966	0.168962	0.042535
H446	H	0.203034	0.668962	0.542535
C447	C	0.083515	-0.077497	-0.062454
C448	C	0.583515	0.422503	0.437546
C449	C	0.112125	-0.074499	0.000137
C450	C	0.612125	0.425501	0.500137
H451	H	0.070557	-0.107592	-0.062442
H452	H	0.570557	0.392408	0.437558
H453	H	0.057654	-0.051480	-0.062458
H454	H	0.557654	0.448520	0.437542
H455	H	0.102933	-0.075460	-0.104912
H456	H	0.602933	0.424540	0.395088
H457	H	0.092706	-0.076532	0.042595
H458	H	0.592706	0.423468	0.542595
H459	H	0.137989	-0.100522	0.000147
H460	H	0.637989	0.399478	0.500147
C461	C	0.190515	-0.112439	0.000139
C462	C	0.690515	0.387561	0.500139
C463	C	0.217942	-0.073417	0.000128
C464	C	0.717942	0.426583	0.500128
H465	H	0.211754	-0.142180	0.000138
H466	H	0.711754	0.357820	0.500138
H467	H	0.170600	-0.110805	0.042600
H468	H	0.670600	0.389195	0.542600
H469	H	0.170595	-0.110798	-0.042322
H470	H	0.670595	0.389202	0.457678
H471	H	0.237859	-0.075056	0.042592
H472	H	0.737859	0.424944	0.542592
H473	H	0.237865	-0.075051	-0.042337
H474	H	0.737865	0.424949	0.457663
H475	H	0.434830	-0.014493	0.000070
H476	H	0.934830	0.485507	0.500070
H477	H	0.023479	0.185648	0.000056
H478	H	0.523479	0.685648	0.500056
H479	H	-0.067981	0.184713	0.000063
H480	H	0.432019	0.684713	0.500063
H481	H	-0.033676	-0.063394	0.000126
H482	H	0.466324	0.436606	0.500126
H483	H	0.574147	-0.084839	-0.120329
H484	H	1.074147	0.415161	0.379671
C485	C	0.573462	-0.150680	-0.197505
C486	C	1.073462	0.349320	0.302495
C487	C	0.573121	-0.183468	-0.139257
C488	C	1.073121	0.316532	0.360743
H489	H	0.573286	-0.167773	-0.242553
H490	H	1.073286	0.332227	0.257447
H491	H	0.545469	-0.127115	-0.194734
H492	H	1.045469	0.372885	0.305266
H493	H	0.601867	-0.134921	-0.194734
H494	H	1.101867	0.365079	0.305266
H495	H	0.544713	-0.199224	-0.142025
H496	H	1.044713	0.300776	0.357975
H497	H	0.601117	-0.207041	-0.142029
H498	H	1.101117	0.292959	0.357971
H499	H	0.571772	-0.316733	-0.186726
H500	H	1.071772	0.183267	0.313274
H501	H	0.567820	-0.699929	0.120475
H502	H	1.067820	-0.199929	0.620475
H503	H	0.570782	-0.408231	0.186871
H504	H	1.070782	0.091769	0.686871
