data_functionalizedCrystal
_audit_creation_method	'MofGen! by Chris Wilmer'
_symmetry_space_group_name_H-M	'P1'
_symmetry_Int_Tables_number	1
_symmetry_cell_setting	triclinic
loop_
_symmetry_equiv_pos_as_xyz
  x,y,z
_cell_length_a	16.959453
_cell_length_b	16.959455
_cell_length_c	18.215399
_cell_angle_alpha	90.019469
_cell_angle_beta	89.971469
_cell_angle_gamma	89.982504
loop_
_atom_site_label
_atom_site_type_symbol
_atom_site_fract_x
_atom_site_fract_y
_atom_site_fract_z
Zn1	Zn	-0.314800	-1.208402	-0.416106
Zn2	Zn	0.018533	-0.875069	-0.082772
Zn3	Zn	0.351867	-0.541736	0.250561
Zn4	Zn	-0.446985	-1.208309	-0.293038
Zn5	Zn	-0.113652	-0.874976	0.040295
Zn6	Zn	0.219681	-0.541642	0.373629
Zn7	Zn	-0.314813	-1.076221	-0.293054
Zn8	Zn	0.018521	-0.742888	0.040279
Zn9	Zn	0.351854	-0.409554	0.373613
Zn10	Zn	-0.446928	-1.076189	-0.416064
Zn11	Zn	-0.113595	-0.742856	-0.082731
Zn12	Zn	0.219738	-0.409523	0.250603
O13	O	-0.380882	-1.142280	-0.354565
O14	O	-0.047548	-0.808947	-0.021232
O15	O	0.285785	-0.475614	0.312101
O16	O	-0.332353	-1.319001	-0.399791
O17	O	0.000980	-0.985667	-0.066458
O18	O	0.334313	-0.652334	0.266875
O19	O	-0.429482	-1.190761	-0.190056
O20	O	-0.096148	-0.857428	0.143277
O21	O	0.237185	-0.524095	0.476611
O22	O	-0.204200	-1.093807	-0.309401
O23	O	0.129133	-0.760474	0.023932
O24	O	0.462467	-0.427141	0.357266
O25	O	-0.429469	-1.318932	-0.309374
O26	O	-0.096136	-0.985599	0.023959
O27	O	0.237197	-0.652265	0.357292
O28	O	-0.204191	-1.190920	-0.399807
O29	O	0.129143	-0.857587	-0.066473
O30	O	0.462476	-0.524254	0.266860
O31	O	-0.332375	-1.093717	-0.190067
O32	O	0.000958	-0.760384	0.143266
O33	O	0.334292	-0.427050	0.476599
O34	O	-0.332320	-0.965606	-0.309360
O35	O	0.001014	-0.632273	0.023973
O36	O	0.334347	-0.298939	0.357306
O37	O	-0.429372	-1.093753	-0.519054
O38	O	-0.096039	-0.760420	-0.185720
O39	O	0.237295	-0.427087	0.147613
O40	O	-0.429384	-0.965583	-0.399735
O41	O	-0.096051	-0.632249	-0.066402
O42	O	0.237282	-0.298916	0.266931
O43	O	-0.332298	-1.190890	-0.519084
O44	O	0.001035	-0.857556	-0.185751
O45	O	0.334369	-0.524223	0.147582
O46	O	-0.557589	-1.190731	-0.309334
O47	O	-0.224255	-0.857397	0.024000
O48	O	0.109078	-0.524064	0.357333
O49	O	-0.557547	-1.093663	-0.399720
O50	O	-0.224213	-0.760330	-0.066387
O51	O	0.109120	-0.426996	0.266947
C52	C	-0.380848	-0.936914	-0.354545
C53	C	-0.047514	-0.603581	-0.021212
C54	C	0.285819	-0.270247	0.312121
C55	C	-0.380852	-0.849057	-0.354554
C56	C	-0.047519	-0.515724	-0.021221
C57	C	0.285814	-0.182391	0.312112
C58	C	-0.330273	-0.477570	-0.307596
C59	C	0.003060	-0.144236	0.025738
C60	C	0.336393	0.189097	0.359071
C61	C	-0.431504	-0.477594	-0.401558
C62	C	-0.098171	-0.144261	-0.068224
C63	C	0.235162	0.189072	0.265109
C64	C	-0.431496	-0.560140	-0.401554
C65	C	-0.098163	-0.226807	-0.068221
C66	C	0.235170	0.106527	0.265112
C67	C	-0.380877	-0.601405	-0.354570
C68	C	-0.047543	-0.268071	-0.021237
C69	C	0.285790	0.065262	0.312096
C70	C	-0.330265	-0.560123	-0.307589
C71	C	0.003068	-0.226790	0.025744
C72	C	0.336401	0.106544	0.359077
C73	C	-0.482112	-0.601428	-0.448529
C74	C	-0.148779	-0.268094	-0.115196
C75	C	0.184554	0.065239	0.218138
C76	C	-0.482107	-0.683979	-0.448527
C77	C	-0.148773	-0.350645	-0.115194
C78	C	0.184560	-0.017312	0.218140
C79	C	-0.431483	-0.725245	-0.401546
C80	C	-0.098149	-0.391911	-0.068213
C81	C	0.235184	-0.058578	0.265121
C82	C	-0.380869	-0.683958	-0.354564
C83	C	-0.047535	-0.350625	-0.021231
C84	C	0.285798	-0.017291	0.312103
C85	C	-0.330249	-0.725223	-0.307580
C86	C	0.003084	-0.391889	0.025753
C87	C	0.336418	-0.058556	0.359087
C88	C	-0.279630	-0.683938	-0.260601
C89	C	0.053703	-0.350604	0.072733
C90	C	0.387036	-0.017271	0.406066
C91	C	-0.279641	-0.601389	-0.260608
C92	C	0.053692	-0.268056	0.072725
C93	C	0.387026	0.065278	0.406058
C94	C	-0.431472	-0.807793	-0.401539
C95	C	-0.098139	-0.474460	-0.068205
C96	C	0.235195	-0.141126	0.265128
C97	C	-0.330241	-0.807776	-0.307574
C98	C	0.003092	-0.474443	0.025760
C99	C	0.336426	-0.141109	0.359093
C100	C	-0.586248	-1.142205	-0.354537
C101	C	-0.252915	-0.808871	-0.021203
C102	C	0.080419	-0.475538	0.312130
C103	C	-0.674104	-1.142245	-0.354549
C104	C	-0.340771	-0.808911	-0.021216
C105	C	-0.007438	-0.475578	0.312118
C106	C	-0.715452	-1.091744	-0.307446
C107	C	-0.382118	-0.758410	0.025888
C108	C	-0.048785	-0.425077	0.359221
C109	C	-0.715311	-1.192779	-0.401669
C110	C	-0.381978	-0.859446	-0.068335
C111	C	-0.048644	-0.526112	0.264998
C112	C	-0.797857	-1.192816	-0.401685
C113	C	-0.464523	-0.859483	-0.068351
C114	C	-0.131190	-0.526149	0.264982
C115	C	-0.839204	-1.142315	-0.354581
C116	C	-0.505871	-0.808982	-0.021248
C117	C	-0.172537	-0.475648	0.312085
C118	C	-0.798005	-1.091777	-0.307462
C119	C	-0.464672	-0.758444	0.025872
C120	C	-0.131338	-0.425111	0.359205
C121	C	-0.839062	-1.243347	-0.448809
C122	C	-0.505728	-0.910014	-0.115475
C123	C	-0.172395	-0.576681	0.217858
C124	C	-0.921613	-1.243386	-0.448827
C125	C	-0.588279	-0.910052	-0.115494
C126	C	-0.254946	-0.576719	0.217840
C127	C	-0.962961	-1.192888	-0.401719
C128	C	-0.629628	-0.859555	-0.068386
C129	C	-0.296295	-0.526221	0.264947
C130	C	-0.921757	-1.142349	-0.354597
C131	C	-0.588424	-0.809015	-0.021264
C132	C	-0.255091	-0.475682	0.312069
C133	C	-0.963104	-1.091848	-0.307494
C134	C	-0.629771	-0.758515	0.025840
C135	C	-0.296438	-0.425181	0.359173
C136	C	-0.921902	-1.041312	-0.260368
C137	C	-0.588569	-0.707979	0.072966
C138	C	-0.255235	-0.374645	0.406299
C139	C	-0.839354	-1.041280	-0.260354
C140	C	-0.506020	-0.707946	0.072979
C141	C	-0.172687	-0.374613	0.406313
C142	C	-1.045510	-1.192920	-0.401733
C143	C	-0.712176	-0.859587	-0.068400
C144	C	-0.378843	-0.526254	0.264934
C145	C	-1.045658	-1.091882	-0.307510
C146	C	-0.712325	-0.758548	0.025823
C147	C	-0.378991	-0.425215	0.359157
C148	C	-0.174713	-1.142378	-0.354610
C149	C	0.158620	-0.809045	-0.021277
C150	C	0.491953	-0.475711	0.312056
C151	C	-0.086857	-1.142419	-0.354629
C152	C	0.246477	-0.809086	-0.021296
C153	C	0.579810	-0.475753	0.312037
C154	C	-0.380827	-1.142328	-0.546518
C155	C	-0.047494	-0.808995	-0.213185
C156	C	0.285840	-0.475662	0.120148
C157	C	-0.380804	-1.142349	-0.628317
C158	C	-0.047471	-0.809016	-0.294984
C159	C	0.285863	-0.475682	0.038349
C160	C	-0.380907	-0.348449	-0.354582
C161	C	-0.047573	-0.015115	-0.021249
C162	C	0.285760	0.318218	0.312085
C163	C	-0.380893	-0.436305	-0.354580
C164	C	-0.047560	-0.102972	-0.021246
C165	C	0.285774	0.230362	0.312087
C166	C	-0.330210	-1.192946	-0.816529
C167	C	0.003123	-0.859613	-0.483195
C168	C	0.336457	-0.526279	-0.149862
C169	C	-0.330187	-1.192955	-0.893387
C170	C	0.003146	-0.859622	-0.560054
C171	C	0.336480	-0.526289	-0.226721
C172	C	-0.431275	-1.091808	-0.893344
C173	C	-0.097942	-0.758475	-0.560011
C174	C	0.235391	-0.425141	-0.226677
C175	C	-0.431294	-1.091795	-0.816487
C176	C	-0.097961	-0.758462	-0.483153
C177	C	0.235373	-0.425128	-0.149820
C178	C	-0.380762	-1.142369	-0.778081
C179	C	-0.047429	-0.809035	-0.444748
C180	C	0.285904	-0.475702	-0.111414
C181	C	-0.380721	-1.142391	-0.931797
C182	C	-0.047388	-0.809058	-0.598464
C183	C	0.285946	-0.475724	-0.265130
C184	C	-0.380696	-1.142401	-1.015131
C185	C	-0.047363	-0.809067	-0.681797
C186	C	0.285970	-0.475734	-0.348464
C187	C	-0.380786	-1.142358	-0.694742
C188	C	-0.047452	-0.809025	-0.361409
C189	C	0.285881	-0.475691	-0.028075
C190	C	-0.380879	-1.142278	-0.163359
C191	C	-0.047546	-0.808945	0.169974
C192	C	0.285788	-0.475611	0.503308
C193	C	-0.380679	-1.142410	-0.081561
C194	C	-0.047346	-0.809077	0.251773
C195	C	0.285987	-0.475744	0.585106
H196	H	-0.289059	-0.443952	-0.269349
H197	H	0.044275	-0.110618	0.063985
H198	H	0.377608	0.222715	0.397318
Cl199	Cl	-0.545738	-0.735872	-0.507587
Cl200	Cl	-0.212404	-0.402539	-0.174254
Cl201	Cl	0.120929	-0.069205	0.159079
H202	H	-0.289021	-1.234139	-0.924688
H203	H	0.044312	-0.900806	-0.591355
H204	H	0.377646	-0.567473	-0.258021
H205	H	-0.472687	-0.841404	-0.439786
H206	H	-0.139354	-0.508070	-0.106453
H207	H	0.193979	-0.174737	0.226881
H208	H	-1.079053	-1.234056	-0.440112
H209	H	-0.745720	-0.900722	-0.106779
H210	H	-0.412386	-0.567389	0.226555
H211	H	-0.955153	-1.284537	-0.487198
H212	H	-0.621819	-0.951204	-0.153865
H213	H	-0.288486	-0.617870	0.179468
Cl214	Cl	-0.266682	-1.256521	-0.768250
Cl215	Cl	0.066651	-0.923188	-0.434916
Cl216	Cl	0.399985	-0.589854	-0.101583
Cl217	Cl	-0.266596	-0.859645	-0.248508
Cl218	Cl	0.066737	-0.526311	0.084825
Cl219	Cl	0.400070	-0.192978	0.418159
H220	H	-0.472418	-1.050634	-0.924623
H221	H	-0.139085	-0.717301	-0.591290
H222	H	0.194249	-0.383968	-0.257957
H223	H	-0.472721	-0.443992	-0.439806
H224	H	-0.139388	-0.110658	-0.106472
H225	H	0.193945	0.222675	0.226861
H226	H	-0.238419	-0.717546	-0.222343
H227	H	0.094914	-0.384213	0.110990
H228	H	0.428247	-0.050879	0.444324
H229	H	-0.472459	-1.050603	-0.785182
H230	H	-0.139126	-0.717270	-0.451848
H231	H	0.194208	-0.383936	-0.118515
H232	H	-1.079317	-1.050759	-0.269150
H233	H	-0.745984	-0.717426	0.064184
H234	H	-0.412650	-0.384093	0.397517
Cl235	Cl	-0.787080	-1.306814	-0.508035
Cl236	Cl	-0.453746	-0.973481	-0.174701
Cl237	Cl	-0.120413	-0.640147	0.158632
H238	H	-0.238431	-0.567768	-0.222360
H239	H	0.094902	-0.234434	0.110974
H240	H	0.428236	0.098899	0.444307
H241	H	-0.681903	-1.050600	-0.269074
H242	H	-0.348569	-0.717267	0.064259
H243	H	-0.015236	-0.383933	0.397593
H244	H	-0.523330	-0.567824	-0.486776
H245	H	-0.189996	-0.234491	-0.153442
H246	H	0.143337	0.098843	0.179891
H247	H	-0.955578	-1.000190	-0.222020
H248	H	-0.622244	-0.666857	0.111314
H249	H	-0.288911	-0.333524	0.444647
Cl250	Cl	-0.787552	-0.977751	-0.201119
Cl251	Cl	-0.454219	-0.644418	0.132214
Cl252	Cl	-0.120885	-0.311085	0.465548
Cl253	Cl	-0.663331	-1.256251	-0.460891
Cl254	Cl	-0.329998	-0.922918	-0.127558
Cl255	Cl	0.003336	-0.589584	0.205775
