data_functionalizedCrystal
_audit_creation_method	'MofGen! by Chris Wilmer'
_symmetry_space_group_name_H-M	'P1'
_symmetry_Int_Tables_number	1
_symmetry_cell_setting	triclinic
loop_
_symmetry_equiv_pos_as_xyz
  x,y,z
_cell_length_a	17.038272
_cell_length_b	17.019294
_cell_length_c	9.130313
_cell_angle_alpha	86.119786
_cell_angle_beta	90.005249
_cell_angle_gamma	87.244363
loop_
_atom_site_label
_atom_site_type_symbol
_atom_site_fract_x
_atom_site_fract_y
_atom_site_fract_z
O1	O	1.037215	0.171282	-0.143215
O2	O	0.809587	0.168562	-0.142916
O3	O	0.929752	0.055516	-0.128628
O4	O	0.917050	0.284329	-0.157503
O5	O	0.929750	0.055519	0.114970
O6	O	0.809585	0.168566	0.100683
O7	O	1.037214	0.171285	0.100383
Cu8	Cu	0.923399	0.169926	0.122775
Cu9	Cu	0.923401	0.169922	-0.165308
O10	O	0.917049	0.284332	0.086095
C11	C	0.780460	0.166090	-0.020810
C12	C	0.693673	0.158710	-0.019895
C13	C	0.929269	0.026096	-0.003119
C14	C	0.927825	-0.061571	0.007933
C15	C	0.643501	0.226470	-0.028445
C16	C	0.561956	0.219531	-0.027549
C17	C	0.530586	0.144831	-0.018114
C18	C	0.580765	0.077066	-0.009559
C19	C	0.662308	0.084006	-0.010445
C20	C	0.284849	0.120313	-0.014981
C21	C	0.203300	0.113378	-0.014100
C22	C	0.184497	0.255844	-0.032088
C23	C	0.266042	0.262777	-0.032981
C24	C	0.316214	0.195012	-0.024419
C25	C	0.447234	0.137736	-0.017203
C26	C	0.399564	0.202108	-0.025320
C27	C	0.927149	-0.102754	-0.119659
C28	C	0.925787	-0.185126	-0.109269
C29	C	0.925106	-0.226314	0.028714
C30	C	0.925780	-0.185125	0.156316
C31	C	0.927136	-0.102754	0.145925
C32	C	0.921006	-0.475021	0.066732
C33	C	0.919651	-0.557398	0.077113
C34	C	0.919657	-0.557394	-0.188473
C35	C	0.921018	-0.475021	-0.198852
C36	C	0.921688	-0.433839	-0.071250
C37	C	0.923717	-0.310512	0.039337
C38	C	0.923072	-0.349643	-0.081875
C39	C	1.066341	0.173758	-0.021726
C40	C	1.153127	0.181138	-0.022650
C41	C	0.917531	0.313752	-0.039416
C42	C	0.918976	0.401419	-0.050479
N43	N	0.923404	0.169928	0.325398
N44	N	0.923403	0.169914	-0.367930
C45	C	0.976626	0.119890	0.408374
C46	C	0.976624	0.119881	0.561712
C47	C	0.870175	0.219954	0.549083
C48	C	0.870174	0.219959	0.395749
C49	C	1.029856	0.069860	0.338023
C50	C	1.083084	0.019819	0.421000
C51	C	1.083082	0.019809	0.574338
C52	C	1.029852	0.069841	0.644699
H53	H	0.521109	0.274708	-0.034513
H54	H	1.029850	0.069823	0.769558
H55	H	1.029864	0.069865	0.213168
H56	H	1.126417	-0.020920	0.363704
O57	O	1.134748	-0.028911	0.654795
C58	C	1.122125	-0.107855	0.627294
H59	H	1.091992	-0.109793	0.516203
H60	H	1.083243	-0.134890	0.716991
C61	C	1.238576	-0.152569	0.762599
C62	C	1.201572	-0.154950	0.626148
H63	H	1.287582	-0.181622	0.761898
H64	H	1.247080	-0.099384	0.781132
H65	H	1.206167	-0.175097	0.837331
H66	H	1.233977	-0.132414	0.551421
H67	H	1.193076	-0.208134	0.607602
O68	O	0.172785	0.040828	-0.005186
C69	C	0.126156	0.032556	-0.130282
H70	H	0.145395	0.075059	-0.223836
H71	H	0.061833	0.046445	-0.103513
C72	C	0.112494	-0.104861	-0.061813
C73	C	0.136128	-0.052662	-0.176721
H74	H	0.118641	-0.157427	-0.090456
H75	H	0.143906	-0.099287	0.022470
H76	H	0.058892	-0.093277	-0.039516
H77	H	0.189730	-0.064240	-0.199003
H78	H	0.104725	-0.058239	-0.261010
O79	O	0.674064	0.298992	-0.037415
C80	C	0.720665	0.307281	0.087710
H81	H	0.741050	0.246476	0.137447
H82	H	0.684607	0.339761	0.171958
C83	C	0.767706	0.429277	-0.017687
C84	C	0.792748	0.354596	0.043393
H85	H	0.812168	0.458467	-0.045021
H86	H	0.736307	0.423695	-0.101985
H87	H	0.737656	0.456334	0.052529
H88	H	0.822788	0.327538	-0.026829
H89	H	0.824153	0.360175	0.127678
H90	H	0.291578	0.323606	-0.040682
H91	H	0.703158	0.028828	-0.003483
O92	O	0.333467	0.054408	-0.006724
C93	C	0.288289	-0.013009	0.001826
H94	H	0.227404	0.002929	-0.046306
H95	H	0.282512	-0.035644	0.121551
C96	C	0.403768	-0.097181	-0.026431
C97	C	0.328991	-0.077607	-0.085559
H98	H	0.428876	-0.137030	-0.080328
H99	H	0.434207	-0.051762	-0.032186
H100	H	0.398944	-0.116039	0.073338
H101	H	0.333817	-0.058741	-0.185320
H102	H	0.298554	-0.123025	-0.079823
H103	H	0.826838	0.260688	0.606382
H104	H	0.826834	0.260703	0.328188
O105	O	0.135649	0.321586	-0.040318
C106	C	0.056949	0.299447	-0.037551
H107	H	0.053895	0.237283	0.016412
H108	H	0.033353	0.300854	-0.154592
C109	C	0.010733	0.433689	-0.015595
C110	C	0.006981	0.357340	0.050694
H111	H	-0.020092	0.469402	0.038831
H112	H	0.063754	0.448606	-0.017465
H113	H	-0.008929	0.434851	-0.113127
H114	H	0.026652	0.356177	0.148216
H115	H	-0.046038	0.342425	0.052582
H116	H	0.921566	-0.441501	0.170634
O117	O	0.550424	0.004441	-0.000326
C118	C	0.612196	-0.053877	0.006993
H119	H	0.667569	-0.028048	0.049853
H120	H	0.623754	-0.075041	-0.107205
C121	C	0.521253	-0.155609	0.058713
C122	C	0.589260	-0.123886	0.111366
H123	H	0.507105	-0.198796	0.123089
H124	H	0.479635	-0.116319	0.053777
H125	H	0.530893	-0.173238	-0.036452
H126	H	0.579616	-0.106248	0.206520
H127	H	0.630876	-0.163175	0.116320
O128	O	0.429997	0.274686	-0.034231
C129	C	0.404349	0.316345	0.086647
H130	H	0.387436	0.272769	0.180339
H131	H	0.351157	0.356737	0.053022
C132	C	0.491809	0.419674	0.022475
C133	C	0.471042	0.366153	0.137553
H134	H	0.532946	0.450400	0.053873
H135	H	0.509087	0.391609	-0.058967
H136	H	0.447476	0.453326	-0.005535
H137	H	0.515372	0.332496	0.165549
H138	H	0.453774	0.394213	0.219001
O139	O	0.927774	-0.062867	-0.253814
C140	C	0.926903	-0.116886	-0.364199
H141	H	0.901197	-0.173997	-0.318067
H142	H	0.989449	-0.129715	-0.403400
C143	C	0.907761	-0.011270	-0.550802
C144	C	0.876182	-0.081413	-0.494145
H145	H	0.876477	0.010611	-0.630962
H146	H	0.908350	0.025123	-0.476435
H147	H	0.959881	-0.021971	-0.583458
H148	H	0.824066	-0.070710	-0.461474
H149	H	0.875583	-0.117805	-0.568510
H150	H	0.421683	0.076915	-0.009479
H151	H	0.925240	-0.218654	-0.213168
H152	H	0.921573	-0.441492	-0.311212
H153	H	0.919110	-0.590933	-0.292358
H154	H	0.919093	-0.590931	0.189481
O155	O	0.925015	-0.225214	0.290269
C156	C	0.856549	-0.268458	0.303678
H157	H	0.833781	-0.279334	0.189754
H158	H	0.809681	-0.233642	0.364813
C159	C	0.903788	-0.334679	0.529557
C160	C	0.875828	-0.348042	0.389634
H161	H	0.915678	-0.383768	0.582584
H162	H	0.949914	-0.305542	0.520527
H163	H	0.864727	-0.305663	0.580484
H164	H	0.914892	-0.377049	0.338703
H165	H	0.829708	-0.377186	0.398657
O166	O	0.922964	-0.350608	0.173285
C167	C	0.854498	-0.393853	0.186697
H168	H	0.831720	-0.404717	0.072774
H169	H	0.807636	-0.359043	0.247858
C170	C	0.901755	-0.460097	0.412543
C171	C	0.873783	-0.473445	0.272620
H172	H	0.913649	-0.509191	0.465550
H173	H	0.947881	-0.430960	0.403511
H174	H	0.862699	-0.431086	0.463492
H175	H	0.912842	-0.502446	0.221668
H176	H	0.827664	-0.502589	0.281646
H177	H	0.927676	-0.069223	0.249824
H178	H	0.923620	-0.316104	-0.194220
