data_functionalizedCrystal
_audit_creation_method	'MofGen! by Chris Wilmer'
_symmetry_space_group_name_H-M	'P1'
_symmetry_Int_Tables_number	1
_symmetry_cell_setting	triclinic
loop_
_symmetry_equiv_pos_as_xyz
  x,y,z
_cell_length_a	27.731994
_cell_length_b	27.732048
_cell_length_c	26.210047
_cell_angle_alpha	89.999521
_cell_angle_beta	89.997128
_cell_angle_gamma	82.631595
loop_
_atom_site_label
_atom_site_type_symbol
_atom_site_fract_x
_atom_site_fract_y
_atom_site_fract_z
O1	O	0.640948	0.057385	-0.042362
O2	O	0.974282	0.390719	0.290972
O3	O	1.307615	0.724052	0.624305
O4	O	0.500151	0.066158	-0.042379
O5	O	0.833484	0.399491	0.290954
O6	O	1.166818	0.732825	0.624287
O7	O	0.574923	-0.008626	-0.042360
O8	O	0.908256	0.324707	0.290973
O9	O	1.241589	0.658041	0.624306
O10	O	0.566177	0.132169	-0.042381
O11	O	0.899510	0.465503	0.290953
O12	O	1.232844	0.798836	0.624286
O13	O	0.574908	-0.008614	0.042498
O14	O	0.908242	0.324719	0.375831
O15	O	1.241575	0.658052	0.709164
O16	O	0.500137	0.066170	0.042479
O17	O	0.833470	0.399503	0.375812
O18	O	1.166803	0.732837	0.709145
O19	O	0.640934	0.057397	0.042496
O20	O	0.974267	0.390730	0.375830
O21	O	1.307601	0.724064	0.709163
Cu22	Cu	0.570534	0.061784	0.050236
Cu23	Cu	0.903867	0.395118	0.383569
Cu24	Cu	1.237201	0.728451	0.716902
Cu25	Cu	0.570551	0.061771	-0.050119
Cu26	Cu	0.903884	0.395104	0.283215
Cu27	Cu	1.237218	0.728437	0.616548
O28	O	0.566162	0.132181	0.042477
O29	O	0.899496	0.465514	0.375811
O30	O	1.232829	0.798848	0.709144
C31	C	0.482137	0.065984	0.000047
C32	C	0.815470	0.399317	0.333381
C33	C	1.148803	0.732651	0.666714
C34	C	0.428480	0.065442	0.000041
C35	C	0.761814	0.398775	0.333374
C36	C	1.095147	0.732108	0.666708
C37	C	0.095754	0.062032	0.046317
C38	C	0.429087	0.395366	0.379651
C39	C	0.762421	0.728699	0.712984
C40	C	-0.105904	0.059971	0.046324
C41	C	0.227429	0.393304	0.379657
C42	C	0.560762	0.726637	0.712990
O43	O	-0.131984	0.059689	0.085663
O44	O	0.201350	0.393022	0.418996
O45	O	0.534683	0.726355	0.752329
N46	N	-0.131111	0.059708	0.000067
N47	N	0.202222	0.393042	0.333401
N48	N	0.535555	0.726375	0.666734
C49	C	-0.105900	0.059958	-0.046193
C50	C	0.227433	0.393291	0.287140
C51	C	0.560767	0.726625	0.620473
O52	O	-0.131967	0.059683	-0.085537
O53	O	0.201367	0.393016	0.247796
O54	O	0.534700	0.726349	0.581130
C55	C	0.095758	0.062016	-0.046199
C56	C	0.429091	0.395350	0.287134
C57	C	0.762424	0.728683	0.620468
C58	C	0.120961	0.062283	0.000060
C59	C	0.454295	0.395617	0.333393
C60	C	0.787628	0.728950	0.666727
C61	C	0.120958	0.062299	0.092573
C62	C	0.454291	0.395632	0.425906
C63	C	0.787624	0.728966	0.759239
C64	C	0.171369	0.062817	0.092571
C65	C	0.504702	0.396150	0.425904
C66	C	0.838036	0.729484	0.759237
C67	C	0.196576	0.063068	0.046313
C68	C	0.529910	0.396402	0.379647
C69	C	0.863243	0.729735	0.712980
C70	C	0.171372	0.062802	0.000058
C71	C	0.504706	0.396135	0.333391
C72	C	0.838039	0.729468	0.666725
C73	C	0.120968	0.062263	-0.092459
C74	C	0.454302	0.395596	0.240874
C75	C	0.787635	0.728929	0.574207
C76	C	0.171386	0.062776	-0.092457
C77	C	0.504719	0.396109	0.240877
C78	C	0.838053	0.729443	0.574210
C79	C	0.196590	0.063043	-0.046197
C80	C	0.529923	0.396377	0.287136
C81	C	0.863256	0.729710	0.620469
C82	C	0.246991	0.063571	-0.046201
C83	C	0.580324	0.396904	0.287132
C84	C	0.913658	0.730237	0.620466
N85	N	0.272198	0.063833	0.000055
N86	N	0.605531	0.397167	0.333388
N87	N	0.938865	0.730500	0.666722
C88	C	0.246991	0.063582	0.046312
C89	C	0.580324	0.396915	0.379646
C90	C	0.913657	0.730249	0.712979
C91	C	-0.211773	0.058878	-0.046187
C92	C	0.121560	0.392212	0.287146
C93	C	0.454893	0.725545	0.620479
C94	C	-0.262188	0.058365	-0.046186
C95	C	0.071146	0.391698	0.287147
C96	C	0.404479	0.725031	0.620481
C97	C	-0.262188	0.058376	0.046331
C98	C	0.071145	0.391710	0.379665
C99	C	0.404478	0.725043	0.712998
C100	C	-0.211774	0.058894	0.046329
C101	C	0.121560	0.392227	0.379663
C102	C	0.454893	0.725560	0.712996
C103	C	-0.186566	0.059141	0.000069
C104	C	0.146767	0.392474	0.333402
C105	C	0.480100	0.725808	0.666736
C106	C	0.352858	0.064670	0.046305
C107	C	0.686191	0.398004	0.379638
C108	C	1.019524	0.731337	0.712971
C109	C	0.403273	0.065190	0.046298
C110	C	0.736606	0.398524	0.379632
C111	C	1.069940	0.731857	0.712965
C112	C	0.403269	0.065176	-0.046218
C113	C	0.736603	0.398509	0.287115
C114	C	1.069936	0.731843	0.620448
C115	C	0.352858	0.064659	-0.046213
C116	C	0.686191	0.397992	0.287121
C117	C	1.019525	0.731325	0.620454
C118	C	0.327654	0.064404	0.000053
C119	C	0.660987	0.397737	0.333386
C120	C	0.994320	0.731071	0.666720
O121	O	0.273102	0.063848	-0.085520
O122	O	0.606435	0.397181	0.247814
O123	O	0.939769	0.730514	0.581147
O124	O	0.273067	0.063847	0.085650
O125	O	0.606401	0.397180	0.418983
O126	O	0.939734	0.730513	0.752316
C127	C	0.045343	0.061514	0.046319
C128	C	0.378676	0.394848	0.379653
C129	C	0.712009	0.728181	0.712986
C130	C	0.020139	0.061247	0.000064
C131	C	0.353472	0.394581	0.333397
C132	C	0.686806	0.727914	0.666731
C133	C	0.045346	0.061499	-0.046193
C134	C	0.378680	0.394832	0.287140
C135	C	0.712013	0.728165	0.620473
C136	C	-0.030275	0.060734	0.000065
C137	C	0.303058	0.394067	0.333399
C138	C	0.636391	0.727400	0.666732
C139	C	-0.055483	0.060482	0.046323
C140	C	0.277851	0.393816	0.379656
C141	C	0.611184	0.727149	0.712989
C142	C	-0.030276	0.060745	0.092579
C143	C	0.303058	0.394078	0.425912
C144	C	0.636391	0.727412	0.759245
C145	C	0.020135	0.061263	0.092577
C146	C	0.353469	0.394596	0.425910
C147	C	0.686802	0.727930	0.759243
C148	C	0.020139	0.061236	-0.092449
C149	C	0.353473	0.394570	0.240884
C150	C	0.686806	0.727903	0.574217
C151	C	-0.030272	0.060719	-0.092443
C152	C	0.303061	0.394052	0.240890
C153	C	0.636395	0.727385	0.574223
C154	C	-0.055479	0.060468	-0.046186
C155	C	0.277854	0.393801	0.287147
C156	C	0.611187	0.727134	0.620481
C157	C	0.574732	-0.026627	0.000070
C158	C	0.908065	0.306706	0.333403
C159	C	1.241398	0.640040	0.666737
C160	C	0.574179	-0.080282	0.000074
C161	C	0.907512	0.253052	0.333408
C162	C	1.240846	0.586385	0.666741
C163	C	0.614884	-0.419105	0.000053
C164	C	0.948217	-0.085771	0.333387
C165	C	1.281551	0.247562	0.666720
C166	C	0.612833	-0.620764	0.000046
C167	C	0.946166	-0.287431	0.333379
C168	C	1.279499	0.045903	0.666712
O169	O	0.650055	-0.652027	0.000028
O170	O	0.983388	-0.318693	0.333362
O171	O	1.316721	0.014640	0.666695
N172	N	0.568496	-0.639879	0.000041
N173	N	0.901830	-0.306546	0.333374
N174	N	1.235163	0.026788	0.666707
C175	C	0.524670	-0.608576	0.000034
C176	C	0.858003	-0.275242	0.333367
C177	C	1.191336	0.058091	0.666701
O178	O	0.486912	-0.629462	0.000024
O179	O	0.820245	-0.296128	0.333358
O180	O	1.153578	0.037205	0.666691
C181	C	0.526721	-0.406918	0.000038
C182	C	0.860055	-0.073584	0.333371
C183	C	1.193388	0.259749	0.666704
C184	C	0.571061	-0.387805	0.000048
C185	C	0.904394	-0.054472	0.333381
C186	C	1.237727	0.278861	0.666715
C187	C	0.659220	-0.399992	0.000063
C188	C	0.992553	-0.066659	0.333396
C189	C	1.325886	0.266675	0.666730
C190	C	0.659732	-0.349580	0.000068
C191	C	0.993065	-0.016247	0.333401
C192	C	1.326399	0.317086	0.666734
C193	C	0.615908	-0.318281	0.000062
C194	C	0.949242	0.015052	0.333396
C195	C	1.282575	0.348386	0.666729
C196	C	0.571573	-0.337394	0.000053
C197	C	0.904906	-0.004060	0.333386
C198	C	1.238239	0.329273	0.666719
C199	C	0.482895	-0.375615	0.000028
C200	C	0.816228	-0.042282	0.333361
C201	C	1.149562	0.291051	0.666694
C202	C	0.483412	-0.325198	0.000027
C203	C	0.816745	0.008135	0.333361
C204	C	1.150079	0.341468	0.666694
C205	C	0.527751	-0.306086	0.000037
C206	C	0.861084	0.027247	0.333371
C207	C	1.194418	0.360581	0.666704
C208	C	0.528262	-0.255683	0.000052
C209	C	0.861595	0.077651	0.333386
C210	C	1.194928	0.410984	0.666719
N211	N	0.572598	-0.236567	0.000057
N212	N	0.905931	0.096766	0.333391
N213	N	1.239265	0.430099	0.666724
C214	C	0.616421	-0.267867	0.000062
C215	C	0.949755	0.065467	0.333396
C216	C	1.283088	0.398800	0.666729
C217	C	0.523596	-0.714450	0.000033
C218	C	0.856929	-0.381116	0.333366
C219	C	1.190262	-0.047783	0.666700
C220	C	0.523083	-0.764864	0.000033
C221	C	0.856416	-0.431531	0.333366
C222	C	1.189749	-0.098197	0.666700
C223	C	0.611246	-0.777049	0.000044
C224	C	0.944579	-0.443715	0.333377
C225	C	1.277913	-0.110382	0.666711
C226	C	0.611759	-0.726633	0.000048
C227	C	0.945092	-0.393300	0.333381
C228	C	1.278425	-0.059967	0.666714
C229	C	0.567932	-0.695335	0.000038
C230	C	0.901265	-0.362001	0.333372
C231	C	1.234599	-0.028668	0.666705
C232	C	0.617494	-0.161998	0.000073
C233	C	0.950827	0.171336	0.333406
C234	C	1.284161	0.504669	0.666739
C235	C	0.618002	-0.111581	0.000079
C236	C	0.951336	0.221752	0.333413
C237	C	1.284669	0.555086	0.666746
C238	C	0.529839	-0.099401	0.000066
C239	C	0.863173	0.233933	0.333399
C240	C	1.196506	0.567266	0.666733
C241	C	0.529331	-0.149813	0.000062
C242	C	0.862664	0.183520	0.333395
C243	C	1.195997	0.516854	0.666729
C244	C	0.573162	-0.181111	0.000063
C245	C	0.906495	0.152222	0.333397
C246	C	1.239829	0.485556	0.666730
O247	O	0.491060	-0.224391	0.000064
O248	O	0.824393	0.108942	0.333397
O249	O	1.157727	0.442275	0.666731
O250	O	0.654174	-0.246971	0.000061
O251	O	0.987507	0.086362	0.333394
O252	O	1.320841	0.419695	0.666728
C253	C	0.614372	-0.469517	0.000049
C254	C	0.947705	-0.136183	0.333382
C255	C	1.281038	0.197150	0.666715
C256	C	0.570036	-0.488629	0.000039
C257	C	0.903369	-0.155296	0.333372
C258	C	1.236703	0.178037	0.666706
C259	C	0.526213	-0.457330	0.000034
C260	C	0.859546	-0.123997	0.333367
C261	C	1.192879	0.209337	0.666700
C262	C	0.569523	-0.539043	0.000039
C263	C	0.902856	-0.205710	0.333372
C264	C	1.236190	0.127623	0.666706
C265	C	0.613346	-0.570343	0.000044
C266	C	0.946680	-0.237009	0.333377
C267	C	1.280013	0.096324	0.666711
C268	C	0.657683	-0.551228	0.000049
C269	C	0.991016	-0.217894	0.333382
C270	C	1.324349	0.115439	0.666716
C271	C	0.658195	-0.500816	0.000054
C272	C	0.991528	-0.167482	0.333387
C273	C	1.324862	0.165851	0.666720
C274	C	0.481876	-0.476445	0.000029
C275	C	0.815209	-0.143112	0.333362
C276	C	1.148543	0.190222	0.666695
C277	C	0.481367	-0.526857	0.000025
C278	C	0.814701	-0.193524	0.333358
C279	C	1.148034	0.139809	0.666691
C280	C	0.525191	-0.558157	0.000030
C281	C	0.858524	-0.224823	0.333363
C282	C	1.191858	0.108510	0.666696
C283	C	0.658949	0.057571	0.000068
C284	C	0.992282	0.390905	0.333402
C285	C	1.325615	0.724238	0.666735
C286	C	0.712605	0.058114	0.000071
C287	C	1.045938	0.391447	0.333405
C288	C	1.379272	0.724780	0.666738
C289	C	0.566353	0.150182	0.000046
C290	C	0.899687	0.483515	0.333379
C291	C	1.233020	0.816849	0.666712
C292	C	0.566906	0.203837	0.000038
C293	C	0.900239	0.537170	0.333372
C294	C	1.233573	0.870503	0.666705
N295	N	0.570526	0.061794	0.120820
N296	N	0.903859	0.395127	0.454153
N297	N	1.237192	0.728461	0.787486
N298	N	0.570563	0.061757	-0.120703
N299	N	0.903897	0.395091	0.212631
N300	N	1.237230	0.728424	0.545964
C301	C	0.603656	0.028664	0.473342
C302	C	0.936990	0.361997	0.806675
C303	C	1.270323	0.695330	1.140009
C304	C	0.603667	0.028657	0.687001
C305	C	0.937000	0.361990	1.020334
C306	C	1.270334	0.695324	1.353667
O307	O	0.631818	0.000491	0.714630
O308	O	0.965151	0.333824	1.047963
O309	O	1.298484	0.667157	1.381297
N310	N	0.570554	0.061760	0.713714
N311	N	0.903887	0.395093	1.047047
N312	N	1.237220	0.728427	1.380380
C313	C	0.537433	0.094865	0.687008
C314	C	0.870766	0.428198	1.020342
C315	C	1.204100	0.761532	1.353675
O316	O	0.509265	0.123018	0.714632
O317	O	0.842598	0.456351	1.047965
O318	O	1.175932	0.789684	1.381299
C319	C	0.537421	0.094869	0.473351
C320	C	0.870754	0.428202	0.806684
C321	C	1.204087	0.761536	1.140017
C322	C	0.570539	0.061767	0.446641
C323	C	0.903873	0.395100	0.779974
C324	C	1.237206	0.728434	1.113307
C325	C	0.636772	-0.004436	0.446632
C326	C	0.970106	0.328897	0.779965
C327	C	1.303439	0.662231	1.113299
C328	C	0.636771	-0.004432	0.393221
C329	C	0.970104	0.328901	0.726554
C330	C	1.303438	0.662235	1.059887
C331	C	0.603654	0.028671	0.366519
C332	C	0.936987	0.362005	0.699853
C333	C	1.270321	0.695338	1.033186
C334	C	0.570538	0.061771	0.393229
C335	C	0.903871	0.395104	0.726563
C336	C	1.237205	0.728438	1.059896
C337	C	0.504298	0.127971	0.446647
C338	C	0.837631	0.461305	0.779980
C339	C	1.170965	0.794638	1.113313
C340	C	0.504297	0.127969	0.393229
C341	C	0.837630	0.461302	0.726562
C342	C	1.170964	0.794635	1.059896
C343	C	0.537416	0.094867	0.366519
C344	C	0.870749	0.428200	0.699852
C345	C	1.204083	0.761533	1.033186
C346	C	0.537420	0.094878	0.313117
C347	C	0.870753	0.428211	0.646450
C348	C	1.204086	0.761545	0.979783
N349	N	0.570533	0.061775	0.286404
N350	N	0.903867	0.395108	0.619737
N351	N	1.237200	0.728442	0.953070
C352	C	0.603650	0.028672	0.313105
C353	C	0.936984	0.362005	0.646438
C354	C	1.270317	0.695338	0.979772
C355	C	0.537443	0.094861	0.799182
C356	C	0.870776	0.428195	1.132515
C357	C	1.204109	0.761528	1.465848
C358	C	0.537446	0.094861	0.852596
C359	C	0.870780	0.428194	1.185929
C360	C	1.204113	0.761527	1.519263
C361	C	0.603680	0.028652	0.852585
C362	C	0.937013	0.361985	1.185918
C363	C	1.270347	0.695319	1.519251
C364	C	0.603678	0.028655	0.799169
C365	C	0.937012	0.361988	1.132503
C366	C	1.270345	0.695322	1.465836
C367	C	0.570556	0.061758	0.772469
C368	C	0.903889	0.395091	1.105802
C369	C	1.237223	0.728425	1.439136
C370	C	0.603645	0.028682	0.200937
C371	C	0.936979	0.362016	0.534271
C372	C	1.270312	0.695349	0.867604
C373	C	0.603643	0.028690	0.147521
C374	C	0.936976	0.362024	0.480854
C375	C	1.270309	0.695357	0.814188
C376	C	0.537408	0.094897	0.147537
C377	C	0.870741	0.428231	0.480870
C378	C	1.204074	0.761564	0.814204
C379	C	0.537412	0.094891	0.200949
C380	C	0.870745	0.428225	0.534282
C381	C	1.204079	0.761558	0.867615
C382	C	0.570533	0.061780	0.227647
C383	C	0.903866	0.395113	0.560981
C384	C	1.237199	0.728446	0.894314
O385	O	0.509281	0.123026	0.285454
O386	O	0.842614	0.456359	0.618788
O387	O	1.175947	0.789693	0.952121
O388	O	0.631807	0.000516	0.285473
O389	O	0.965140	0.333849	0.618806
O390	O	1.298474	0.667183	0.952139
C391	C	0.603658	0.028660	0.526754
C392	C	0.936991	0.361993	0.860087
C393	C	1.270324	0.695327	1.193420
C394	C	0.570542	0.061760	0.553464
C395	C	0.903875	0.395093	0.886797
C396	C	1.237209	0.728426	1.220130
C397	C	0.537425	0.094863	0.526762
C398	C	0.870758	0.428196	0.860096
C399	C	1.204092	0.761530	1.193429
C400	C	0.570546	0.061759	0.606878
C401	C	0.903879	0.395093	0.940211
C402	C	1.237212	0.728426	1.273545
C403	C	0.603663	0.028656	0.633579
C404	C	0.936996	0.361989	0.966913
C405	C	1.270329	0.695322	1.300246
C406	C	0.636776	-0.004447	0.606866
C407	C	0.970109	0.328886	0.940200
C408	C	1.303443	0.662219	1.273533
C409	C	0.636775	-0.004443	0.553455
C410	C	0.970108	0.328890	0.886788
C411	C	1.303441	0.662223	1.220122
C412	C	0.504311	0.127966	0.553475
C413	C	0.837645	0.461299	0.886808
C414	C	1.170978	0.794633	1.220142
C415	C	0.504316	0.127960	0.606887
C416	C	0.837649	0.461293	0.940220
C417	C	1.170982	0.794627	1.273553
C418	C	0.537433	0.094857	0.633588
C419	C	0.870766	0.428190	0.966921
C420	C	1.204099	0.761523	1.300255
H421	H	0.423791	0.065410	0.083970
H422	H	0.757125	0.398743	0.417303
H423	H	1.090458	0.732076	0.750636
N424	N	0.468589	0.163662	0.635692
N425	N	0.801922	0.496995	0.969025
N426	N	1.135255	0.830329	1.302359
H427	H	0.486891	0.184939	0.657856
H428	H	0.820225	0.518272	0.991189
H429	H	1.153558	0.851605	1.324523
H430	H	0.447619	0.184596	0.610634
H431	H	0.780952	0.517930	0.943967
H432	H	1.114285	0.851263	1.277301
N433	N	0.047316	0.061553	0.142471
N434	N	0.380649	0.394886	0.475804
N435	N	0.713982	0.728220	0.809137
H436	H	0.023691	0.061315	0.171771
H437	H	0.357024	0.394649	0.505104
H438	H	0.690357	0.727982	0.838437
H439	H	0.072379	0.031790	0.144495
H440	H	0.405712	0.365124	0.477828
H441	H	0.739045	0.698457	0.811161
H442	H	0.646929	-0.802541	0.000048
H443	H	0.980262	-0.469208	0.333382
H444	H	1.313595	-0.135875	0.666715
H445	H	0.493226	-0.165375	0.000068
H446	H	0.826559	0.167959	0.333401
H447	H	1.159893	0.501292	0.666734
H448	H	0.694301	-0.485260	0.000062
H449	H	1.027634	-0.151926	0.333395
H450	H	1.360967	0.181407	0.666729
N451	N	0.482574	-0.065638	0.000074
N452	N	0.815908	0.267696	0.333408
N453	N	1.149241	0.601029	0.666741
H454	H	0.489631	-0.030802	0.000080
H455	H	0.822964	0.302532	0.333413
H456	H	1.156298	0.635865	0.666747
H457	H	0.463235	-0.071781	-0.031385
H458	H	0.796568	0.261553	0.301949
H459	H	1.129901	0.594886	0.635282
H460	H	0.510470	0.121819	0.777446
H461	H	0.843803	0.455152	1.110779
H462	H	1.177137	0.788486	1.444112
N463	N	0.704950	-0.584991	0.000059
N464	N	1.038284	-0.251658	0.333392
N465	N	1.371617	0.081676	0.666726
H466	H	0.697892	-0.619827	0.000056
H467	H	1.031226	-0.286493	0.333389
H468	H	1.364559	0.046840	0.666722
H469	H	0.724296	-0.578842	-0.031396
H470	H	1.057629	-0.245509	0.301938
H471	H	1.390963	0.087825	0.635271
H472	H	0.477343	0.154922	0.531739
H473	H	0.810676	0.488256	0.865072
H474	H	1.144010	0.821589	1.198406
H475	H	0.191907	0.062977	-0.130128
H476	H	0.525240	0.396311	0.203205
H477	H	0.858574	0.729644	0.536538
N478	N	0.707558	-0.328977	0.000068
N479	N	1.040892	0.004357	0.333401
N480	N	1.374225	0.337690	0.666734
H481	H	0.709742	-0.308333	-0.031390
H482	H	1.043075	0.025000	0.301943
H483	H	1.376409	0.358333	0.635277
H484	H	0.709713	-0.308355	0.031545
H485	H	1.043046	0.024978	0.364878
H486	H	1.376379	0.358311	0.698211
H487	H	0.486977	-0.780420	0.000034
H488	H	0.820311	-0.447087	0.333367
H489	H	1.153644	-0.113754	0.666700
H490	H	0.100456	0.062044	-0.130128
H491	H	0.433789	0.395378	0.203205
H492	H	0.767123	0.728711	0.536538
N493	N	0.433538	-0.547462	0.000013
N494	N	0.766871	-0.214128	0.333347
N495	N	1.100205	0.119205	0.666680
H496	H	0.431365	-0.568103	-0.031447
H497	H	0.764698	-0.234770	0.301886
H498	H	1.098031	0.098564	0.635220
H499	H	0.431376	-0.568085	0.031488
H500	H	0.764709	-0.234752	0.364821
H501	H	1.098042	0.098582	0.698154
N502	N	0.672488	-0.040138	0.364415
N503	N	1.005822	0.293195	0.697748
N504	N	1.339155	0.626529	1.031081
H505	H	0.706753	-0.034815	0.373710
H506	H	1.040087	0.298518	0.707044
H507	H	1.373420	0.631852	1.040377
H508	H	0.667134	-0.074389	0.373726
H509	H	1.000468	0.258944	0.707059
H510	H	1.333801	0.592277	1.040393
H511	H	0.332335	0.064449	-0.083880
H512	H	0.665668	0.397782	0.249453
H513	H	0.999002	0.731115	0.582786
N514	N	0.476323	-0.680695	0.000024
N515	N	0.809656	-0.347361	0.333358
N516	N	1.142989	-0.014028	0.666691
H517	H	0.448162	-0.700459	0.000022
H518	H	0.781495	-0.367126	0.333356
H519	H	1.114829	-0.033792	0.666689
H520	H	0.474608	-0.659512	0.031482
H521	H	0.807941	-0.326179	0.364816
H522	H	1.141275	0.007155	0.698149
N523	N	-0.057470	0.060477	0.142471
N524	N	0.275864	0.393810	0.475804
N525	N	0.609197	0.727144	0.809138
H526	H	-0.093318	0.060783	0.135450
H527	H	0.240016	0.394116	0.468783
H528	H	0.573349	0.727450	0.802117
H529	H	-0.044973	0.030255	0.162368
H530	H	0.288360	0.363589	0.495701
H531	H	0.621694	0.696922	0.829035
N532	N	-0.057451	0.060426	-0.142342
N533	N	0.275883	0.393759	0.190992
N534	N	0.609216	0.727092	0.524325
H535	H	-0.093213	0.060058	-0.135327
H536	H	0.240120	0.393391	0.198006
H537	H	0.573453	0.726724	0.531340
H538	H	-0.052785	0.090489	-0.162550
H539	H	0.280549	0.423822	0.170783
H540	H	0.613882	0.757155	0.504116
H541	H	0.423802	0.065383	-0.083880
H542	H	0.757135	0.398716	0.249453
H543	H	1.090469	0.732049	0.582787
N544	N	0.639363	-0.007021	0.118719
N545	N	0.972697	0.326313	0.452052
N546	N	1.306030	0.659646	0.785386
H547	H	0.621051	-0.028292	0.096559
H548	H	0.954385	0.305041	0.429892
H549	H	1.287718	0.638374	0.763225
H550	H	0.660622	0.011331	0.096585
H551	H	0.993955	0.344664	0.429919
H552	H	1.327289	0.677997	0.763252
H553	H	-0.191254	0.059079	-0.083860
H554	H	0.142079	0.392413	0.249473
H555	H	0.475412	0.725746	0.582806
N556	N	0.664766	-0.195753	0.000078
N557	N	0.998099	0.137580	0.333411
N558	N	1.331433	0.470914	0.666745
H559	H	0.684134	-0.189640	-0.031374
H560	H	1.017467	0.143694	0.301960
H561	H	1.350801	0.477027	0.635293
H562	H	0.684078	-0.189625	0.031561
H563	H	1.017412	0.143708	0.364894
H564	H	1.350745	0.477042	0.698228
H565	H	0.477329	0.154926	0.468387
H566	H	0.810663	0.488259	0.801720
H567	H	1.143996	0.821592	1.135053
H568	H	0.446189	-0.450966	0.000023
H569	H	0.779522	-0.117632	0.333357
H570	H	1.112856	0.215701	0.666690
N571	N	-0.289378	0.058100	0.096225
N572	N	0.043955	0.391433	0.429559
N573	N	0.377289	0.724766	0.762892
H574	H	-0.284215	0.087833	0.116750
H575	H	0.049118	0.421166	0.450083
H576	H	0.382451	0.754500	0.783417
H577	H	-0.325215	0.058380	0.089165
H578	H	0.008119	0.391713	0.422498
H579	H	0.341452	0.725047	0.755832
N580	N	0.325678	0.064395	0.096204
N581	N	0.659012	0.397728	0.429538
N582	N	0.992345	0.731062	0.762871
H583	H	0.349346	0.064313	0.125501
H584	H	0.682680	0.397646	0.458834
H585	H	1.016013	0.730980	0.792168
H586	H	0.300839	0.094325	0.098369
H587	H	0.634172	0.427658	0.431703
H588	H	0.967505	0.760992	0.765036
H589	H	0.040658	0.061439	-0.130118
H590	H	0.373992	0.394773	0.203215
H591	H	0.707325	0.728106	0.536548
H592	H	0.446789	-0.391167	0.000016
H593	H	0.780123	-0.057834	0.333349
H594	H	1.113456	0.275499	0.666683
H595	H	0.630615	0.001719	0.222669
H596	H	0.963948	0.335053	0.556003
H597	H	1.297282	0.668386	0.889336
H598	H	0.654110	-0.096023	0.000089
H599	H	0.987444	0.237310	0.333422
H600	H	1.320777	0.570644	0.666756
N601	N	0.436141	-0.291440	0.000015
N602	N	0.769474	0.041893	0.333348
N603	N	1.102807	0.375226	0.666681
H604	H	0.407978	-0.311201	0.000008
H605	H	0.741311	0.022132	0.333341
H606	H	1.074644	0.355465	0.666675
H607	H	0.434424	-0.270259	0.031474
H608	H	0.767757	0.063075	0.364807
H609	H	1.101091	0.396408	0.698140
H610	H	0.100439	0.062093	0.130243
H611	H	0.433773	0.395427	0.463576
H612	H	0.767106	0.728760	0.796910
N613	N	0.672502	-0.040136	0.475426
N614	N	1.005835	0.293198	0.808760
N615	N	1.339169	0.626531	1.142093
H616	H	0.693479	-0.061098	0.450393
H617	H	1.026812	0.272235	0.783726
H618	H	1.360146	0.605569	1.117060
H619	H	0.693732	-0.021772	0.497578
H620	H	1.027065	0.311561	0.830911
H621	H	1.360399	0.644895	1.164245
N622	N	0.706490	-0.433746	0.000069
N623	N	1.039824	-0.100413	0.333402
N624	N	1.373157	0.232920	0.666736
H625	H	0.734650	-0.413981	0.000076
H626	H	1.067983	-0.080647	0.333409
H627	H	1.401317	0.252686	0.666742
H628	H	0.708193	-0.454926	0.031529
H629	H	1.041527	-0.121593	0.364862
H630	H	1.374860	0.211740	0.698196
N631	N	0.672498	-0.040150	0.635671
N632	N	1.005831	0.293183	0.969004
N633	N	1.339165	0.626517	1.302338
H634	H	0.667470	-0.035125	0.673561
H635	H	1.000803	0.298208	1.006894
H636	H	1.334137	0.631541	1.340227
H637	H	0.667172	-0.074404	0.626336
H638	H	1.000505	0.258930	0.959670
H639	H	1.333839	0.592263	1.293003
N640	N	0.639394	-0.007058	0.770371
N641	N	0.972727	0.326275	1.103704
N642	N	1.306061	0.659609	1.437037
H643	H	0.621081	-0.028333	0.748216
H644	H	0.954414	0.305001	1.081549
H645	H	1.287747	0.638334	1.414883
H646	H	0.660653	0.011288	0.748232
H647	H	0.993986	0.344621	1.081566
H648	H	1.327320	0.677955	1.414899
H649	H	0.647863	-0.711076	0.000056
H650	H	0.981197	-0.377743	0.333389
H651	H	1.314530	-0.044409	0.666722
N652	N	0.639401	-0.007053	0.881389
N653	N	0.972734	0.326281	1.214722
N654	N	1.306067	0.659614	1.548055
H655	H	0.634374	-0.002027	0.919278
H656	H	0.967707	0.331306	1.252612
H657	H	1.301041	0.664640	1.585945
H658	H	0.634071	-0.041305	0.872055
H659	H	0.967404	0.292028	1.205388
H660	H	1.300737	0.625361	1.538722
H661	H	-0.191256	0.059112	0.083998
H662	H	0.142077	0.392445	0.417331
H663	H	0.475411	0.725778	0.750664
N664	N	0.501728	0.130566	0.881402
N665	N	0.835062	0.463899	1.214735
N666	N	1.168395	0.797233	1.548068
H667	H	0.480748	0.151533	0.856377
H668	H	0.814081	0.484867	1.189710
H669	H	1.147415	0.818200	1.523043
H670	H	0.480500	0.112208	0.903564
H671	H	0.813833	0.445541	1.236897
H672	H	1.147166	0.778875	1.570230
N673	N	0.468570	0.163671	0.364431
N674	N	0.801903	0.497005	0.697764
N675	N	1.135236	0.830338	1.031097
H676	H	0.447592	0.184638	0.389460
H677	H	0.780925	0.517972	0.722793
H678	H	1.114258	0.851305	1.056127
H679	H	0.486910	0.184915	0.342268
H680	H	0.820243	0.518248	0.675601
H681	H	1.153577	0.851582	1.008935
N682	N	0.501700	0.130601	0.229761
N683	N	0.835034	0.463934	0.563094
N684	N	1.168367	0.797267	0.896428
H685	H	0.480723	0.151574	0.204739
H686	H	0.814056	0.484907	0.538072
H687	H	1.147390	0.818241	0.871405
H688	H	0.480468	0.112246	0.251923
H689	H	0.813801	0.445579	0.585256
H690	H	1.147134	0.778913	0.918589
H691	H	0.191886	0.063032	0.130240
H692	H	0.525219	0.396365	0.463573
H693	H	0.858552	0.729698	0.796906
N694	N	0.501687	0.130600	0.118735
N695	N	0.835021	0.463933	0.452068
N696	N	1.168354	0.797266	0.785401
H697	H	0.519995	0.151873	0.096570
H698	H	0.853328	0.485206	0.429903
H699	H	1.186661	0.818540	0.763236
H700	H	0.480436	0.112239	0.096606
H701	H	0.813769	0.445572	0.429939
H702	H	1.147102	0.778905	0.763272
N703	N	-0.289370	0.058084	-0.096079
N704	N	0.043963	0.391417	0.237254
N705	N	0.377297	0.724751	0.570587
H706	H	-0.265747	0.058320	-0.125381
H707	H	0.067587	0.391653	0.207953
H708	H	0.400920	0.724986	0.541286
H709	H	-0.306141	0.027892	-0.098090
H710	H	0.027192	0.361226	0.235243
H711	H	0.360525	0.694559	0.568577
N712	N	0.672496	-0.040146	0.524650
N713	N	1.005829	0.293187	0.857983
N714	N	1.339163	0.626520	1.191317
H715	H	0.693472	-0.061115	0.549677
H716	H	1.026806	0.272218	0.883010
H717	H	1.360139	0.605552	1.216344
H718	H	0.654153	-0.061388	0.502490
H719	H	0.987486	0.271946	0.835823
H720	H	1.320820	0.605279	1.169157
