data_functionalizedCrystal
_audit_creation_method	'MofGen! by Chris Wilmer'
_symmetry_space_group_name_H-M	'P1'
_symmetry_Int_Tables_number	1
_symmetry_cell_setting	triclinic
loop_
_symmetry_equiv_pos_as_xyz
  x,y,z
_cell_length_a	27.732048
_cell_length_b	17.038272
_cell_length_c	15.500227
_cell_angle_alpha	86.966746
_cell_angle_beta	92.815382
_cell_angle_gamma	86.877106
loop_
_atom_site_label
_atom_site_type_symbol
_atom_site_fract_x
_atom_site_fract_y
_atom_site_fract_z
O1	O	-0.647275	-0.089334	-0.071833
O2	O	-0.507129	-0.103471	-0.071859
O3	O	-0.576369	0.017402	-0.071839
O4	O	-0.578035	-0.210208	-0.071853
O5	O	-0.572166	0.010096	0.072048
O6	O	-0.502926	-0.110778	0.072029
O7	O	-0.643072	-0.096641	0.072055
Cu8	Cu	-0.572616	-0.104376	0.085180
Cu9	Cu	-0.577586	-0.095736	-0.084984
O10	O	-0.573833	-0.217515	0.072035
C11	C	-0.487007	-0.106828	0.000082
C12	C	-0.433312	-0.105933	0.000072
C13	C	-0.663194	-0.093284	0.000112
C14	C	-0.716890	-0.094178	0.000117
C15	C	-0.097506	-0.171738	0.000105
C16	C	0.104306	-0.168423	0.000113
O17	O	0.132810	-0.228597	0.000147
N18	N	0.126708	-0.096749	0.000116
C19	C	0.098654	-0.025900	0.000122
O20	O	0.122340	0.035139	0.000134
C21	C	-0.103156	-0.029216	0.000121
C22	C	-0.125556	-0.100894	0.000109
C23	C	-0.119906	-0.243410	0.000095
C24	C	-0.170356	-0.244238	0.000088
C25	C	-0.198406	-0.173394	0.000092
C26	C	-0.176006	-0.101722	0.000102
C27	C	-0.131209	0.041632	0.000133
C28	C	-0.181664	0.040797	0.000135
C29	C	-0.204064	-0.030881	0.000123
C30	C	-0.254506	-0.031705	0.000099
N31	N	-0.276908	-0.103379	0.000097
C32	C	-0.248858	-0.174223	0.000093
C33	C	0.204608	-0.024164	0.000121
C34	C	0.255060	-0.023334	0.000120
C35	C	0.260708	-0.165858	0.000113
C36	C	0.210255	-0.166686	0.000108
C37	C	0.182205	-0.095837	0.000119
C38	C	-0.354807	-0.175956	0.000078
C39	C	-0.405262	-0.176778	0.000068
C40	C	-0.410905	-0.034255	0.000080
C41	C	-0.360455	-0.033433	0.000086
C42	C	-0.332407	-0.104290	0.000088
O43	O	-0.283040	0.028436	0.000075
O44	O	-0.272552	-0.235254	0.000101
C45	C	-0.047056	-0.170910	0.000112
C46	C	-0.024656	-0.099238	0.000122
C47	C	-0.052706	-0.028394	0.000126
C48	C	0.025796	-0.098409	0.000121
C49	C	0.053846	-0.169253	0.000118
C50	C	0.031444	-0.240927	0.000115
C51	C	-0.019006	-0.241755	0.000108
C52	C	-0.030304	0.043279	0.000129
C53	C	0.020147	0.044102	0.000135
C54	C	0.048197	-0.026743	0.000131
C55	C	-0.572753	0.042860	0.000104
C56	C	-0.568232	0.129600	0.000103
C57	C	-0.577449	-0.242972	0.000090
C58	C	-0.581970	-0.329712	0.000085
N59	N	-0.569123	-0.110453	0.204864
C60	C	-0.609735	0.180198	0.000112
C61	C	-0.605485	0.261699	0.000103
C62	C	-0.559732	0.292601	0.000091
C63	C	-0.518226	0.241997	0.000080
C64	C	-0.522477	0.160498	0.000083
C65	C	-0.544715	0.538185	0.000077
C66	C	-0.540467	0.619691	0.000076
C67	C	-0.627726	0.639387	0.000098
C68	C	-0.631973	0.557885	0.000106
C69	C	-0.590468	0.507288	0.000090
C70	C	-0.555386	0.375908	0.000085
C71	C	-0.594813	0.423983	0.000090
N72	N	-0.581082	-0.089653	-0.204668
C73	C	-0.598474	-0.059253	0.250149
C74	C	-0.595838	-0.063856	0.340721
C75	C	-0.563853	-0.119663	0.386006
C76	C	-0.534498	-0.170866	0.340715
C77	C	-0.537133	-0.166258	0.250144
C78	C	-0.554362	-0.136248	0.659470
C79	C	-0.551731	-0.140853	0.750047
C80	C	-0.613070	-0.033842	0.750047
C81	C	-0.615704	-0.029243	0.659475
C82	C	-0.586348	-0.080442	0.614191
C83	C	-0.561158	-0.124371	0.478585
C84	C	-0.589040	-0.075730	0.521614
H85	H	-0.423497	-0.235149	0.000058
Cl86	Cl	0.066717	-0.329987	0.000107
H87	H	-0.513231	-0.207950	0.213274
Cl88	Cl	-0.482944	0.658537	0.000067
Cl89	Cl	-0.460708	0.280846	0.000055
H90	H	-0.669230	0.532731	0.000115
Cl91	Cl	-0.494285	-0.241021	0.397643
H92	H	-0.641749	0.016200	0.622605
H93	H	-0.037239	-0.300122	0.000100
H94	H	-0.646992	0.155044	0.000126
H95	H	-0.639281	0.302893	0.000112
Cl96	Cl	-0.652330	0.385133	0.000100
H97	H	-0.488681	0.119301	0.000076
H98	H	-0.615081	-0.030289	0.484740
Cl99	Cl	-0.497870	0.414764	0.000066
Cl100	Cl	0.048299	0.134221	0.000138
Cl101	Cl	-0.679901	0.702998	0.000115
Cl102	Cl	-0.065559	0.132351	0.000134
H103	H	0.192020	-0.225053	0.000103
H104	H	-0.624522	-0.013813	0.213283
H105	H	-0.097072	-0.301104	0.000095
H106	H	-0.525683	-0.186301	0.786914
Cl107	Cl	-0.492536	0.474588	0.000055
Cl108	Cl	-0.632736	0.000511	0.397652
H109	H	-0.433753	0.023425	0.000080
H110	H	-0.636970	0.007843	0.786925
H111	H	-0.530460	-0.177938	0.622608
Cl112	Cl	-0.520949	-0.194530	0.535520
H113	H	-0.331976	-0.233655	0.000083
Cl114	Cl	-0.103062	0.131748	0.000133
Cl115	Cl	0.283213	0.066780	0.000113
Cl116	Cl	-0.198508	-0.334353	0.000080
H117	H	0.283555	-0.223542	0.000110
H118	H	0.181774	0.033534	0.000130
H119	H	-0.204500	0.098492	0.000144
H120	H	-0.342217	0.024934	0.000082
