data_functionalizedCrystal
_audit_creation_method	'MofGen! by Chris Wilmer'
_symmetry_space_group_name_H-M	'P1'
_symmetry_Int_Tables_number	1
_symmetry_cell_setting	triclinic
loop_
_symmetry_equiv_pos_as_xyz
  x,y,z
_cell_length_a	14.044220
_cell_length_b	10.489741
_cell_length_c	12.503572
_cell_angle_alpha	93.559494
_cell_angle_beta	86.164750
_cell_angle_gamma	88.864026
loop_
_atom_site_label
_atom_site_type_symbol
_atom_site_fract_x
_atom_site_fract_y
_atom_site_fract_z
O1	O	1.265220	0.300990	-0.089205
O2	O	0.989177	0.289883	-0.089232
O3	O	1.133479	0.110477	-0.089211
O4	O	1.120918	0.480397	-0.089225
O5	O	1.122627	0.123993	0.089429
O6	O	0.978325	0.303400	0.089408
O7	O	1.254368	0.314507	0.089436
Cu8	Cu	1.115355	0.310188	0.105733
Cu9	Cu	1.128189	0.294203	-0.105530
O10	O	1.110065	0.493914	0.089415
C11	C	0.948403	0.291780	0.000085
C12	C	0.843079	0.277280	0.000074
C13	C	0.650235	0.250773	0.000097
C14	C	0.593304	0.353611	0.000097
C15	C	0.485999	0.338862	0.000110
C16	C	0.757550	0.265520	0.000084
C17	C	1.127104	0.069607	0.000108
C18	C	1.124266	-0.072311	0.000106
C19	C	1.032451	-0.149764	0.000089
C20	C	1.070473	-0.230823	0.088172
C21	C	1.081194	-0.244122	-0.087953
C22	C	1.162321	-0.151494	0.088262
C23	C	1.173035	-0.164791	-0.087943
C24	C	1.211122	-0.245814	0.000162
C25	C	1.295142	0.312610	0.000116
C26	C	1.400466	0.327110	0.000120
C27	C	1.116440	0.534783	0.000093
C28	C	1.119279	0.676700	0.000088
N29	N	1.106335	0.321431	0.254324
N30	N	1.137217	0.282950	-0.254121
C31	C	1.093067	0.337981	0.473438
C32	C	1.150482	0.266404	0.526773
C33	C	1.143099	0.275613	0.648695
C34	C	1.100449	0.328774	0.351504
H35	H	0.618389	0.151662	0.000106
H36	H	0.956955	-0.107764	0.000170
H37	H	1.205182	0.198210	0.480868
C38	C	1.011887	-0.270441	0.188764
C39	C	0.999203	-0.412959	0.207672
C40	C	0.940612	-0.452571	0.308260
C41	C	0.894705	-0.349665	0.389940
C42	C	0.907387	-0.207137	0.371035
C43	C	0.965978	-0.167525	0.270447
H44	H	1.033187	-0.489144	0.147205
H45	H	0.931224	-0.558079	0.322254
H46	H	0.851332	-0.378988	0.464402
H47	H	0.873403	-0.130952	0.431502
H48	H	0.975366	-0.062017	0.256453
C49	C	0.636321	0.487518	0.000085
C50	C	0.745196	0.502281	0.000071
C51	C	0.788217	0.636182	0.000058
C52	C	0.722363	0.755321	0.000058
C53	C	0.613481	0.740562	0.000072
C54	C	0.570460	0.606661	0.000085
H55	H	0.793951	0.414084	0.000071
H56	H	0.868819	0.647107	0.000049
H57	H	0.754210	0.854443	0.000049
H58	H	0.564727	0.828760	0.000072
H59	H	0.489858	0.595736	0.000095
C60	C	1.208637	-0.096916	0.188981
C61	C	1.219842	0.048350	0.207626
C62	C	1.266153	0.102932	0.308346
C63	C	1.301258	0.012248	0.390420
C64	C	1.290053	-0.133027	0.371778
C65	C	1.243743	-0.187608	0.271058
H66	H	1.193855	0.115488	0.146868
H67	H	1.274447	0.210474	0.322146
H68	H	1.335540	0.052653	0.464979
H69	H	1.316041	-0.200164	0.432536
H70	H	1.235449	-0.295151	0.257258
C71	C	1.231585	-0.125129	-0.188536
C72	C	1.199892	-0.164720	-0.301137
C73	C	1.258434	-0.125054	-0.401740
C74	C	1.348669	-0.045799	-0.389742
C75	C	1.380366	-0.006204	-0.277136
C76	C	1.321824	-0.045869	-0.176532
H77	H	1.133091	-0.223394	-0.310024
H78	H	1.234969	-0.154366	-0.485099
H79	H	1.392005	-0.016436	-0.464214
H80	H	1.447167	0.052470	-0.268249
H81	H	1.345289	-0.016558	-0.093174
C82	C	1.034808	-0.298912	-0.188556
C83	C	0.931298	-0.260327	-0.207889
C84	C	0.884905	-0.315112	-0.308485
C85	C	0.942021	-0.408481	-0.389748
C86	C	1.045538	-0.447071	-0.370417
C87	C	1.091931	-0.392287	-0.269821
H88	H	0.889011	-0.191205	-0.147731
H89	H	0.808275	-0.286544	-0.322795
H90	H	0.907678	-0.449036	-0.464215
H91	H	1.087824	-0.516194	-0.430575
H92	H	1.168561	-0.420854	-0.255512
H93	H	1.038372	0.406172	0.519337
H94	H	1.286677	-0.287570	0.000218
