data_functionalizedCrystal
_audit_creation_method	'MofGen! by Chris Wilmer'
_symmetry_space_group_name_H-M	'P1'
_symmetry_Int_Tables_number	1
_symmetry_cell_setting	triclinic
loop_
_symmetry_equiv_pos_as_xyz
  x,y,z
_cell_length_a	12.759395
_cell_length_b	16.959453
_cell_length_c	16.959447
_cell_angle_alpha	89.972501
_cell_angle_beta	89.983770
_cell_angle_gamma	90.021525
loop_
_atom_site_label
_atom_site_type_symbol
_atom_site_fract_x
_atom_site_fract_y
_atom_site_fract_z
Zn1	Zn	1.606186	-0.314661	-0.446878
Zn2	Zn	1.606073	-0.446846	-0.314698
Zn3	Zn	1.430497	-0.314689	-0.314718
Zn4	Zn	1.430460	-0.446805	-0.446839
O5	O	1.518304	-0.380750	-0.380783
O6	O	1.753192	-0.332201	-0.429352
O7	O	1.582751	-0.429343	-0.204090
O8	O	1.453865	-0.204074	-0.332275
O9	O	1.753109	-0.429317	-0.332239
O10	O	1.582943	-0.204054	-0.429372
O11	O	1.453756	-0.332248	-0.204105
O12	O	1.283471	-0.332209	-0.332237
O13	O	1.453802	-0.429248	-0.557455
O14	O	1.283444	-0.429274	-0.429306
O15	O	1.582907	-0.332162	-0.557484
O16	O	1.582715	-0.557451	-0.332202
O17	O	1.453693	-0.557422	-0.429286
C18	C	1.245337	-0.380741	-0.380770
C19	C	1.128560	-0.380755	-0.380783
C20	C	1.128570	-0.481993	-0.481697
C21	C	1.073714	-0.532619	-0.532156
C22	C	0.963993	-0.532628	-0.532166
C23	C	0.909124	-0.482005	-0.481712
C24	C	0.963980	-0.431380	-0.431253
C25	C	1.073704	-0.431378	-0.431247
C26	C	0.963970	-0.330140	-0.330344
C27	C	1.073691	-0.330133	-0.330329
C28	C	0.909101	-0.279517	-0.279891
C29	C	0.963957	-0.228895	-0.229426
C30	C	1.073685	-0.228888	-0.229418
C31	C	1.128547	-0.279508	-0.279870
C32	C	1.518216	-0.586116	-0.380754
C33	C	1.518275	-0.673973	-0.380768
C34	C	1.585601	-1.045380	-0.431437
C35	C	1.451301	-1.045517	-0.330247
C36	C	1.451262	-0.962972	-0.330229
C37	C	1.518392	-0.921626	-0.380816
C38	C	1.585562	-0.962826	-0.431422
C39	C	1.384086	-0.921765	-0.279629
C40	C	1.384043	-0.839214	-0.279610
C41	C	1.451180	-0.797867	-0.330194
C42	C	1.518353	-0.839072	-0.380802
C43	C	1.585484	-0.797727	-0.431389
C44	C	1.652663	-0.838931	-0.481993
C45	C	1.652698	-0.921479	-0.482007
C46	C	1.451144	-0.715319	-0.330181
C47	C	1.585445	-0.715173	-0.431374
C48	C	1.792337	-0.380760	-0.380797
C49	C	1.909114	-0.380765	-0.380803
C50	C	1.518363	-0.380698	-0.586952
C51	C	1.518388	-0.380675	-0.674808
C52	C	1.518421	-0.174582	-0.380830
C53	C	1.518470	-0.086725	-0.380849
C54	C	1.451182	-0.431213	-0.716069
C55	C	1.585611	-0.330111	-0.716101
C56	C	1.585633	-0.330085	-0.798647
C57	C	1.518427	-0.380623	-0.839908
C58	C	1.451200	-0.431187	-0.798623
C59	C	1.652852	-0.279516	-0.839939
C60	C	1.652876	-0.279488	-0.922490
C61	C	1.585674	-0.330030	-0.963752
C62	C	1.518445	-0.380597	-0.922461
C63	C	1.451239	-0.431136	-0.963722
C64	C	1.384014	-0.481707	-0.922433
C65	C	1.383998	-0.481730	-0.839885
C66	C	1.585690	-0.330007	-1.046300
C67	C	1.451257	-0.431109	-1.046276
C68	C	1.518306	-0.380746	-0.175417
C69	C	1.518484	-0.380545	-0.087561
H70	H	1.217888	-0.279509	-0.279866
H71	H	1.118400	-0.573833	-0.573235
N72	N	1.658101	-0.275618	-0.671592
H73	H	1.641830	-0.219132	-0.685954
H74	H	1.647844	-0.283386	-0.613050
N75	N	1.657856	-0.670581	-0.485934
H76	H	1.700415	-0.709211	-0.517990
H77	H	1.615045	-0.636333	-0.522482
N78	N	1.725142	-0.965923	-0.536584
H79	H	1.708776	-0.951528	-0.593047
H80	H	1.800185	-0.951511	-0.524287
H81	H	1.396642	-1.079186	-0.289064
H82	H	1.217911	-0.481996	-0.481688
N83	N	0.790783	-0.482016	-0.481723
H84	H	0.764348	-0.442269	-0.442105
H85	H	0.764473	-0.467586	-0.536003
H86	H	1.329266	-0.522902	-0.806260
N87	N	1.658193	-0.275472	-1.090831
H88	H	1.648010	-0.283125	-1.149386
H89	H	1.641859	-0.219026	-1.076412
N90	N	1.311691	-0.966359	-0.225068
H91	H	1.269127	-0.927733	-0.193011
H92	H	1.263067	-1.000619	-0.257218
H93	H	1.640299	-1.078931	-0.472635
N94	N	1.378667	-0.485752	-0.671548
H95	H	1.394959	-0.542223	-0.685910
H96	H	1.388880	-0.478039	-0.613005
N97	N	1.311597	-0.794776	-0.225029
H98	H	1.269078	-0.833495	-0.192985
H99	H	1.354383	-0.760531	-0.188472
H100	H	1.396443	-0.681774	-0.288983
H101	H	1.329289	-0.522851	-0.956039
N102	N	0.904819	-0.587226	-0.586591
H103	H	0.956222	-0.619292	-0.618552
H104	H	0.859266	-0.623761	-0.554347
N105	N	0.790760	-0.279529	-0.279893
H106	H	0.764332	-0.319285	-0.319508
H107	H	0.764398	-0.293961	-0.225613
H108	H	1.396532	-0.472267	-1.079864
H109	H	1.707316	-0.805257	-0.523186
N110	N	1.725361	-0.225044	-0.795423
H111	H	1.682701	-0.188429	-0.761153
H112	H	1.773988	-0.257273	-0.761237
H113	H	1.707616	-0.238310	-0.956100
H114	H	0.919274	-0.187678	-0.188355
H115	H	1.118342	-0.187657	-0.188334
