data_functionalizedCrystal
_audit_creation_method	'MofGen! by Chris Wilmer'
_symmetry_space_group_name_H-M	'P1'
_symmetry_Int_Tables_number	1
_symmetry_cell_setting	triclinic
loop_
_symmetry_equiv_pos_as_xyz
  x,y,z
_cell_length_a	15.995363
_cell_length_b	15.995350
_cell_length_c	14.472310
_cell_angle_alpha	90.001162
_cell_angle_beta	90.009879
_cell_angle_gamma	96.505115
loop_
_atom_site_label
_atom_site_type_symbol
_atom_site_fract_x
_atom_site_fract_y
_atom_site_fract_z
O1	O	-1.110990	0.107970	-0.076769
O2	O	-0.610990	0.607970	0.423231
O3	O	-0.867216	0.121287	-0.076785
O4	O	-0.367216	0.621287	0.423215
O5	O	-0.995767	-0.007259	-0.076776
O6	O	-0.495767	0.492741	0.423224
O7	O	-0.982439	0.236516	-0.076778
O8	O	-0.482439	0.736516	0.423222
O9	O	-0.995734	-0.007252	0.076907
O10	O	-0.495734	0.492748	0.576907
O11	O	-0.867183	0.121294	0.076897
O12	O	-0.367183	0.621294	0.576897
O13	O	-1.110957	0.107977	0.076913
O14	O	-0.610957	0.607977	0.576913
Cu15	Cu	-0.989067	0.114636	0.090938
Cu16	Cu	-0.489067	0.614636	0.590938
Cu17	Cu	-0.989106	0.114628	-0.090809
Cu18	Cu	-0.489106	0.614628	0.409191
O19	O	-0.982406	0.236523	0.076904
O20	O	-0.482406	0.736523	0.576904
C21	C	-0.836005	0.120738	0.000054
C22	C	-0.336005	0.620738	0.500054
C23	C	-0.743055	0.119082	0.000048
C24	C	-0.243055	0.619082	0.500048
C25	C	-0.405310	0.113135	0.000070
C26	C	0.094690	0.613135	0.500070
C27	C	-0.452743	0.021585	0.000414
C28	C	0.047257	0.521585	0.500414
C29	C	-0.549433	0.023242	0.000060
C30	C	-0.049433	0.523242	0.500060
C31	C	-0.572869	0.116085	0.000060
C32	C	-0.072869	0.616085	0.500060
C33	C	-0.531801	0.161235	-0.087697
C34	C	-0.031801	0.661235	0.412303
C35	C	-0.435166	0.158931	-0.087763
C36	C	0.064834	0.658931	0.412237
C37	C	-0.434790	0.160831	0.087002
C38	C	0.065210	0.660831	0.587002
C39	C	-0.531734	0.160814	0.088155
C40	C	-0.031734	0.660814	0.588155
C41	C	-0.667566	0.117757	0.000051
C42	C	-0.167566	0.617757	0.500051
C43	C	-0.310612	0.111466	0.000073
C44	C	0.189388	0.611466	0.500073
C45	C	-0.995199	-0.038450	0.000064
C46	C	-0.495199	0.461550	0.500064
C47	C	-0.993548	-0.131401	0.000058
C48	C	-0.493548	0.368599	0.500058
C49	C	-0.987615	-0.469148	0.000061
C50	C	-0.487615	0.030852	0.500061
C51	C	-0.896064	-0.421718	-0.000290
C52	C	-0.396064	0.078282	0.499710
C53	C	-0.897716	-0.325028	0.000057
C54	C	-0.397716	0.174972	0.500057
C55	C	-0.990558	-0.301588	0.000059
C56	C	-0.490558	0.198412	0.500059
C57	C	-1.035695	-0.342659	0.087821
C58	C	-0.535695	0.157341	0.587821
C59	C	-1.033396	-0.439295	0.087894
C60	C	-0.533396	0.060705	0.587894
C61	C	-1.035324	-0.439661	-0.086871
C62	C	-0.535324	0.060339	0.413129
C63	C	-1.035303	-0.342716	-0.088031
C64	C	-0.535303	0.157284	0.411969
C65	C	-0.992226	-0.206890	0.000061
C66	C	-0.492226	0.293110	0.500061
C67	C	-0.985950	-0.563846	0.000065
C68	C	-0.485950	-0.063846	0.500065
C69	C	-0.142170	0.108515	0.000075
C70	C	0.357830	0.608515	0.500075
C71	C	-0.235124	0.110138	0.000082
C72	C	0.264876	0.610138	0.500082
C73	C	-0.982974	0.267714	0.000063
C74	C	-0.482974	0.767714	0.500063
C75	C	-0.984626	0.360665	0.000062
C76	C	-0.484626	0.860665	0.500062
N77	N	-0.989046	0.114642	0.218768
N78	N	-0.489046	0.614642	0.718768
N79	N	-0.989134	0.114615	-0.218640
N80	N	-0.489134	0.614615	0.281360
C81	C	-0.989105	0.114624	0.592860
C82	C	-0.489105	0.614624	1.092860
C83	C	-0.920089	0.183176	0.553689
C84	C	-0.420089	0.683176	1.053689
C85	C	-0.920249	0.183426	0.446601
C86	C	-0.420249	0.683426	0.946601
C87	C	-0.989075	0.114633	0.407269
C88	C	-0.489075	0.614633	0.907269
C89	C	-1.076439	0.133719	0.446111
C90	C	-0.576439	0.633719	0.946111
C91	C	-1.076051	0.134206	0.553233
C92	C	-0.576051	0.634206	1.053233
C93	C	-0.971536	0.026784	0.553388
C94	C	-0.471536	0.526784	1.053388
C95	C	-0.969532	0.027369	0.446261
C96	C	-0.469532	0.527369	0.946261
C97	C	-0.989063	0.114636	0.302381
C98	C	-0.489063	0.614636	0.802381
C99	C	-0.989122	0.114623	0.697748
C100	C	-0.489122	0.614623	1.197748
H101	H	-0.434208	-0.015008	0.063348
H102	H	0.065792	0.484992	0.563348
H103	H	-0.577304	-0.012496	-0.062957
H104	H	-0.077304	0.487504	0.437043
Br105	Br	-0.577123	0.105785	0.196363
Br106	Br	-0.077123	0.605785	0.696363
H107	H	-1.005406	-0.460206	-0.153389
H108	H	-0.505406	0.039794	0.346611
H109	H	-1.092291	0.197050	0.419275
H110	H	-0.592291	0.697050	0.919275
Br111	Br	-0.978487	-0.469800	0.197231
Br112	Br	-0.478487	0.030200	0.697231
Br113	Br	-1.164133	0.054061	0.596424
Br114	Br	-0.664133	0.554061	1.096424
H115	H	-1.100610	-0.471540	0.091877
H116	H	-0.600610	0.028460	0.591877
Br117	Br	-0.404669	0.104040	-0.197100
Br118	Br	0.095331	0.604040	0.302900
H119	H	-0.433163	-0.014846	-0.062172
H120	H	0.066837	0.485154	0.437828
H121	H	-0.931468	0.248610	0.420967
H122	H	-0.431468	0.748610	0.920967
Br123	Br	-0.835091	-0.452608	-0.105189
Br124	Br	-0.335091	0.047392	0.394811
Br125	Br	-0.980760	-0.296768	-0.196260
Br126	Br	-0.480760	0.203232	0.303740
Br127	Br	-0.381413	0.270955	-0.094400
Br128	Br	0.118587	0.770955	0.405600
Br129	Br	-1.149381	-0.319115	0.093269
Br130	Br	-0.649381	0.180885	0.593269
Br131	Br	-0.557334	0.273664	0.096990
Br132	Br	-0.057334	0.773664	0.596990
Br133	Br	-0.596799	-0.035913	0.104910
Br134	Br	-0.096799	0.464087	0.604910
Br135	Br	-0.381855	0.273334	0.087992
Br136	Br	0.118145	0.773334	0.587992
Br137	Br	-0.835146	-0.454772	0.103695
Br138	Br	-0.335146	0.045228	0.603695
Br139	Br	-0.983401	-0.295356	0.196674
Br140	Br	-0.483401	0.204644	0.696674
Br141	Br	-0.811493	0.164521	0.596635
Br142	Br	-0.311493	0.664521	1.096635
Br143	Br	-0.400544	0.110947	0.197871
Br144	Br	0.099456	0.610947	0.697871
Br145	Br	-1.148150	-0.317102	-0.096870
Br146	Br	-0.648150	0.182898	0.403130
Br147	Br	-0.862417	0.003224	0.403953
Br148	Br	-0.362417	0.503224	0.903953
Br149	Br	-0.838577	-0.277659	-0.104799
Br150	Br	-0.338577	0.222341	0.395201
Br151	Br	-1.147829	-0.492592	-0.087854
Br152	Br	-0.647829	0.007408	0.412146
H153	H	-0.861968	-0.297162	0.063070
H154	H	-0.361968	0.202838	0.563070
H155	H	-0.855309	0.172054	0.420341
H156	H	-0.355309	0.672054	0.920341
H157	H	-0.931154	0.247994	0.580599
H158	H	-0.431154	0.747994	1.080599
Br159	Br	-1.101856	0.240978	0.594867
Br160	Br	-0.601856	0.740978	1.094867
Br161	Br	-0.555369	0.274914	-0.093162
Br162	Br	-0.055369	0.774914	0.406838
H163	H	-1.129023	0.085118	0.420632
H164	H	-0.629023	0.585118	0.920632
Br165	Br	-0.867643	-0.003787	0.598463
Br166	Br	-0.367643	0.496213	1.098463
Br167	Br	-1.047881	-0.061643	0.401656
Br168	Br	-0.547881	0.438357	0.901656
H169	H	-1.021866	-0.024230	0.578718
H170	H	-0.521866	0.475770	1.078718
H171	H	-0.560190	0.129870	-0.153007
H172	H	-0.060190	0.629870	0.346993
