data_functionalizedCrystal
_audit_creation_method	'MofGen! by Chris Wilmer'
_symmetry_space_group_name_H-M	'P1'
_symmetry_Int_Tables_number	1
_symmetry_cell_setting	triclinic
loop_
_symmetry_equiv_pos_as_xyz
  x,y,z
_cell_length_a	19.121102
_cell_length_b	12.759400
_cell_length_c	12.759393
_cell_angle_alpha	90.031564
_cell_angle_beta	87.539308
_cell_angle_gamma	92.430863
loop_
_atom_site_label
_atom_site_type_symbol
_atom_site_fract_x
_atom_site_fract_y
_atom_site_fract_z
Zn1	Zn	1.073801	0.486830	-0.662514
Zn2	Zn	1.073731	0.662544	-0.486829
Zn3	Zn	0.956345	0.479378	-0.479357
Zn4	Zn	0.956337	0.654961	-0.654979
O5	O	1.015054	0.570928	-0.570920
O6	O	1.172077	0.516432	-0.645490
O7	O	1.058133	0.638302	-0.338815
O8	O	0.971958	0.333348	-0.503679
O9	O	1.172025	0.645528	-0.516415
O10	O	1.058253	0.338823	-0.638244
O11	O	0.971890	0.503731	-0.333325
O12	O	0.858059	0.496377	-0.496373
O13	O	0.971946	0.632602	-0.803001
O14	O	0.858053	0.625377	-0.625401
O15	O	1.058246	0.509078	-0.808537
O16	O	1.058125	0.808557	-0.509109
O17	O	0.971877	0.802986	-0.632647
C18	C	0.832572	0.559246	-0.559259
C19	C	0.754505	0.554273	-0.554295
C20	C	1.015012	0.843893	-0.570895
C21	C	1.015058	0.960673	-0.570924
C22	C	1.015103	0.570825	-0.844956
C23	C	1.015124	0.570782	-0.961734
C24	C	0.717845	0.619202	-0.619036
C25	C	0.644493	0.614516	-0.614377
C26	C	0.607803	0.544906	-0.544972
C27	C	0.644468	0.479970	-0.480229
C28	C	0.717819	0.484652	-0.484893
C29	C	0.386331	0.527401	-0.527537
C30	C	0.312975	0.522727	-0.522875
C31	C	0.313005	0.657271	-0.657025
C32	C	0.386357	0.661951	-0.661680
C33	C	0.423016	0.597012	-0.596940
C34	C	0.532825	0.540117	-0.540206
C35	C	0.497992	0.601796	-0.601712
C36	C	1.198248	0.582657	-0.582627
C37	C	1.276315	0.587655	-0.587615
C38	C	1.015114	0.296899	-0.570969
C39	C	1.015140	0.180124	-0.570989
C40	C	1.060018	1.018404	-0.506675
C41	C	1.060061	1.128131	-0.506710
C42	C	0.970179	1.122384	-0.635246
C43	C	0.970140	1.012660	-0.635215
C44	C	1.111908	1.021723	-0.432462
C45	C	1.111951	1.131449	-0.432497
C46	C	1.060066	0.506456	-1.019481
C47	C	1.060083	0.506419	-1.129206
C48	C	0.970212	0.635042	-1.123428
C49	C	0.970193	0.635073	-1.013705
C50	C	1.111955	0.432200	-1.022818
C51	C	1.111971	0.432163	-1.132543
C52	C	1.015045	0.570957	-0.297952
C53	C	1.015160	0.570714	-0.181183
H54	H	0.747712	0.675889	-0.675550
H55	H	1.092437	0.986531	-0.353894
H56	H	0.502944	0.483442	-0.483694
H57	H	0.283149	0.710140	-0.709734
N58	N	0.425851	0.457360	-0.457698
H59	H	0.456265	0.501931	-0.410866
H60	H	0.456261	0.410666	-0.502479
H61	H	0.283104	0.466030	-0.466363
H62	H	0.614589	0.423288	-0.423722
H63	H	1.097419	1.160383	-0.350189
H64	H	0.933609	1.164726	-0.687590
H65	H	1.092508	0.353610	-1.165349
H66	H	0.747667	0.431774	-0.432180
H67	H	0.933594	0.687449	-0.966691
H68	H	0.527868	0.658468	-0.658226
N69	N	1.180411	1.180780	-0.475542
H70	H	1.171579	1.224738	-0.539054
H71	H	1.213410	1.123845	-0.496248
N72	N	1.183931	0.986753	-0.466008
H73	H	1.219260	1.015374	-0.415566
H74	H	1.196796	1.013867	-0.538957
N75	N	0.921655	0.950390	-0.704521
H76	H	0.893206	0.999976	-0.745249
H77	H	0.889148	0.902862	-0.659631
H78	H	0.933630	0.687383	-1.165756
N79	N	1.092687	0.323196	-0.982160
H80	H	1.084096	0.274531	-1.043158
H81	H	1.048809	0.325145	-0.935347
N82	N	1.180312	0.475458	-0.982083
H83	H	1.213365	0.496297	-1.043106
H84	H	1.202001	0.420127	-0.938822
H85	H	0.614647	0.667389	-0.667095
N86	N	1.184018	0.465659	-1.176595
H87	H	1.184059	0.465646	-1.255755
H88	H	1.219294	0.415169	-1.152427
N89	N	0.425928	0.737036	-0.736533
H90	H	0.391573	0.777459	-0.776839
H91	H	0.456385	0.696275	-0.787164
