data_functionalizedCrystal
_audit_creation_method	'MofGen! by Chris Wilmer'
_symmetry_space_group_name_H-M	'P1'
_symmetry_Int_Tables_number	1
_symmetry_cell_setting	triclinic
loop_
_symmetry_equiv_pos_as_xyz
  x,y,z
_cell_length_a	11.026607
_cell_length_b	10.654550
_cell_length_c	10.065918
_cell_angle_alpha	99.756875
_cell_angle_beta	82.314358
_cell_angle_gamma	83.464540
loop_
_atom_site_label
_atom_site_type_symbol
_atom_site_fract_x
_atom_site_fract_y
_atom_site_fract_z
O1	O	1.630652	-0.546935	-0.113492
O2	O	1.276842	-0.486939	-0.113494
O3	O	1.461881	-0.335963	-0.113488
O4	O	1.445613	-0.697911	-0.113498
O5	O	1.429755	-0.295842	0.113501
O6	O	1.244715	-0.446818	0.113495
O7	O	1.598526	-0.506813	0.113497
Zn8	Zn	1.416520	-0.470446	0.149535
Zn9	Zn	1.458848	-0.523307	-0.149532
O10	O	1.413486	-0.657790	0.113491
C11	C	1.215474	-0.455811	0.000000
C12	C	1.080483	-0.422816	-0.000001
C13	C	1.444623	-0.268845	0.000005
C14	C	1.441050	-0.128627	0.000000
N15	N	1.387641	-0.434371	0.353641
C16	C	1.007444	-0.513920	-0.000004
C17	C	0.867923	-0.479821	-0.000005
C18	C	1.659894	-0.537943	-0.000000
C19	C	1.794886	-0.570939	-0.000008
C20	C	1.430744	-0.724908	-0.000005
C21	C	1.434319	-0.865128	-0.000009
C22	C	1.549998	-0.072790	0.000005
C23	C	1.546634	0.058960	-0.000005
C24	C	1.325363	0.079026	-0.000018
C25	C	1.328730	-0.052723	-0.000018
C26	C	1.677746	-0.084373	0.000018
C27	C	1.674382	0.047377	0.000009
C28	C	1.426580	-0.482995	0.578583
C29	C	1.448796	-0.510769	0.421416
N30	N	1.487727	-0.559382	0.646362
H31	H	1.048204	-0.617161	0.000001
H32	H	1.357790	-0.397031	0.636912
H33	H	1.726861	0.067316	-0.097998
H34	H	1.709072	0.095479	0.095002
H35	H	1.517601	-0.596731	0.363093
H36	H	1.039727	-0.319581	-0.000033
Br37	Br	1.272982	-0.291073	0.450835
H38	H	1.240016	-0.098183	-0.000041
Br39	Br	0.800004	-0.307728	0.000015
Br40	Br	0.862796	-0.743025	0.000013
H41	H	1.556527	-0.645339	0.588033
H42	H	1.741158	-0.141366	-0.094969
Br43	Br	1.172937	0.182043	-0.000051
H44	H	1.704555	-0.111506	0.098028
