data_functionalizedCrystal
_audit_creation_method	'MofGen! by Chris Wilmer'
_symmetry_space_group_name_H-M	'P1'
_symmetry_Int_Tables_number	1
_symmetry_cell_setting	triclinic
loop_
_symmetry_equiv_pos_as_xyz
  x,y,z
_cell_length_a	15.538191
_cell_length_b	11.792241
_cell_length_c	14.185569
_cell_angle_alpha	76.753184
_cell_angle_beta	97.875798
_cell_angle_gamma	65.732755
loop_
_atom_site_label
_atom_site_type_symbol
_atom_site_fract_x
_atom_site_fract_y
_atom_site_fract_z
O1	O	1.226838	-0.333383	-0.083428
O2	O	0.953247	-0.202607	-0.083428
O3	O	1.096684	-0.435953	-0.083421
O4	O	1.083402	-0.100037	-0.083435
O5	O	1.139056	-0.504880	0.083416
O6	O	0.995620	-0.271534	0.083409
O7	O	1.269211	-0.402310	0.083409
Cu8	Cu	1.136284	-0.343215	0.098642
Cu9	Cu	1.086174	-0.261702	-0.098662
O10	O	1.125774	-0.168964	0.083402
C11	C	0.939408	-0.223388	-0.000010
C12	C	0.835042	-0.182633	-0.000009
C13	C	0.545184	-0.587531	-0.000008
C14	C	0.447114	-0.549205	-0.000010
C15	C	0.425769	-0.333634	-0.000019
C16	C	0.523842	-0.371943	-0.000012
C17	C	0.583541	-0.498893	-0.000008
C18	C	0.562199	-0.283305	-0.000011
C19	C	0.660261	-0.321610	-0.000010
C20	C	0.719966	-0.448553	-0.000008
C21	C	0.681604	-0.537198	-0.000006
C22	C	0.502495	-0.156353	-0.000023
C23	C	0.540852	-0.067715	-0.000023
C24	C	0.638918	-0.106023	-0.000013
C25	C	0.698623	-0.232966	-0.000012
C26	C	0.677280	-0.017378	-0.000016
C27	C	0.775343	-0.055683	-0.000014
C28	C	0.796685	-0.271271	-0.000010
C29	C	1.117036	-0.512357	-0.000003
C30	C	1.114539	-0.637324	-0.000004
C31	C	1.109944	-0.866104	-0.000021
C32	C	1.112497	-0.738792	-0.000012
C33	C	1.283050	-0.381528	-0.000012
C34	C	1.387413	-0.422281	-0.000019
C35	C	1.105422	-0.092559	-0.000019
C36	C	1.107917	0.032410	-0.000024
N37	N	1.171536	-0.400551	0.237415
N38	N	1.050930	-0.204378	-0.237434
C39	C	0.947360	-0.035974	0.605054
C40	C	0.974069	-0.079400	0.710077
C41	C	1.101108	-0.285981	0.710044
C42	C	1.074406	-0.242574	0.605019
C43	C	0.997532	-0.117569	0.552532
C44	C	1.124579	-0.324170	0.552497
C45	C	1.097882	-0.280763	0.447481
C46	C	1.021013	-0.155762	0.394987
C47	C	0.970836	-0.074163	0.447516
C48	C	1.201457	-0.449171	0.604986
C49	C	1.251630	-0.530766	0.552464
C50	C	1.224929	-0.487364	0.447447
C51	C	1.148060	-0.362362	0.394952
C52	C	1.275107	-0.568963	0.394918
C53	C	1.248410	-0.525557	0.289902
C54	C	1.121363	-0.318956	0.289937
H55	H	0.593797	-0.690909	0.000001
C56	C	0.886273	0.063341	0.389774
H57	H	0.860214	0.105727	0.436093
H58	H	0.836530	0.055616	0.348814
H59	H	0.909918	0.113517	0.348803
C60	C	0.918831	0.010330	0.767848
H61	H	0.869209	0.090979	0.721544
H62	H	0.963260	0.026668	0.808831
H63	H	0.889917	-0.031307	0.808798
C64	C	0.611604	0.122258	-0.000025
H65	H	0.547709	0.132375	-0.000023
H66	H	0.608518	0.184308	-0.058203
H67	H	0.638062	0.136229	0.058164
H68	H	0.492231	0.035649	-0.000030
C69	C	1.185661	-0.423480	0.767785
H70	H	1.194372	-0.437651	0.837851
H71	H	1.244079	-0.429871	0.750557
H72	H	1.170681	-0.487757	0.750577
C73	C	0.991642	-0.108005	0.279472
H74	H	0.938679	-0.021868	0.255737
H75	H	0.972371	-0.165282	0.255714
H76	H	1.045758	-0.107378	0.255700
H77	H	1.223194	-0.484505	0.690497
C78	C	0.862797	0.101530	0.547312
H79	H	0.836738	0.143916	0.593630
H80	H	0.813054	0.093805	0.506352
H81	H	0.886442	0.151707	0.506340
C82	C	1.303594	-0.615310	0.232124
H83	H	1.353194	-0.695979	0.278423
H84	H	1.332511	-0.573722	0.191146
H85	H	1.259120	-0.631619	0.191168
H86	H	0.806575	0.016492	-0.000004
H87	H	1.314224	-0.632545	0.595211
C88	C	1.359665	-0.706457	0.452661
H89	H	1.368377	-0.720622	0.522726
H90	H	1.418081	-0.712839	0.435430
H91	H	1.344693	-0.770742	0.435458
C92	C	0.394628	-0.114211	-0.000024
H93	H	0.364564	-0.025906	-0.000040
H94	H	0.391159	-0.169387	0.058158
H95	H	0.361610	-0.121320	-0.058208
C96	C	0.862368	-0.410917	0.000005
H97	H	0.926264	-0.421032	0.000013
H98	H	0.835913	-0.424907	-0.058169
H99	H	0.865461	-0.472963	0.058198
C100	C	0.747278	-0.676840	-0.000006
H101	H	0.710390	-0.724147	-0.000012
H102	H	0.800756	-0.720302	0.058170
H103	H	0.771190	-0.672210	-0.058196
C104	C	0.404925	-0.646717	-0.000009
H105	H	0.454529	-0.727809	-0.000001
H106	H	0.352339	-0.612217	-0.058189
H107	H	0.381893	-0.660298	0.058177
H108	H	0.799811	-0.479734	-0.000020
H109	H	0.377148	-0.230269	-0.000027
H110	H	1.058758	-0.217170	0.247200
