data_functionalizedCrystal
_audit_creation_method	'MofGen! by Chris Wilmer'
_symmetry_space_group_name_H-M	'P1'
_symmetry_Int_Tables_number	1
_symmetry_cell_setting	triclinic
loop_
_symmetry_equiv_pos_as_xyz
  x,y,z
_cell_length_a	21.883469
_cell_length_b	21.882911
_cell_length_c	21.879399
_cell_angle_alpha	60.006540
_cell_angle_beta	60.013207
_cell_angle_gamma	59.992231
loop_
_atom_site_label
_atom_site_type_symbol
_atom_site_fract_x
_atom_site_fract_y
_atom_site_fract_z
O1	O	0.084645	-0.892842	0.746620
O2	O	0.584645	-0.392842	1.246620
O3	O	0.031867	-0.695139	0.601571
O4	O	0.531867	-0.195139	1.101571
O5	O	0.157054	-0.820237	0.601476
O6	O	0.657054	-0.320237	1.101476
O7	O	-0.040542	-0.767744	0.746716
O8	O	0.459458	-0.267744	1.246716
O9	O	0.198586	-0.778715	0.642912
O10	O	0.698586	-0.278715	1.142912
O11	O	0.073399	-0.653617	0.643007
O12	O	0.573399	-0.153617	1.143007
O13	O	0.126177	-0.851320	0.788056
O14	O	0.626177	-0.351320	1.288056
Cu15	Cu	0.103580	-0.748677	0.719315
Cu16	Cu	0.603580	-0.248677	1.219315
Cu17	Cu	0.054464	-0.797782	0.670313
Cu18	Cu	0.554464	-0.297782	1.170313
O19	O	0.000990	-0.726222	0.788151
O20	O	0.500990	-0.226222	1.288151
N21	N	0.138128	-0.714145	0.753785
N22	N	0.638128	-0.214145	1.253785
N23	N	0.019923	-0.832320	0.635843
N24	N	0.519923	-0.332320	1.135843
C25	C	0.190018	-0.547369	0.805644
C26	C	0.690018	-0.047369	1.305644
C27	C	0.190029	-0.662289	0.805630
C28	C	0.690029	-0.162289	1.305630
C29	C	0.218780	-0.633565	0.834353
C30	C	0.718780	-0.133565	1.334353
C31	C	0.344122	-0.611968	0.768360
C32	C	0.844122	-0.111968	1.268360
C33	C	0.422474	-0.638085	0.742222
C34	C	0.922474	-0.138085	1.242222
C35	C	0.422504	-0.764859	0.790561
C36	C	0.922504	-0.264859	1.290561
C37	C	0.344154	-0.738739	0.816702
C38	C	0.844154	-0.238739	1.316702
C39	C	0.208899	-0.508180	0.728617
C40	C	0.708899	-0.008180	1.228617
C41	C	0.182748	-0.429822	0.702522
C42	C	0.682748	0.070178	1.202522
C43	C	0.118843	-0.429847	0.830485
C44	C	0.618843	0.070153	1.330485
C45	C	0.144993	-0.508205	0.856580
C46	C	0.644993	-0.008205	1.356580
C47	C	0.112994	-0.643364	0.824587
C48	C	0.612994	-0.143364	1.324587
C49	C	0.086865	-0.669476	0.798467
C50	C	0.586865	-0.169476	1.298467
C51	C	0.214799	-0.733437	0.734451
C52	C	0.714799	-0.233437	1.234451
C53	C	0.240932	-0.707325	0.760562
C54	C	0.740932	-0.207325	1.260562
C55	C	0.113084	-0.643389	0.959747
C56	C	0.613084	-0.143389	1.459747
C57	C	0.087018	-0.669524	1.038102
C58	C	0.587018	-0.169524	1.538102
C59	C	0.214996	-0.733501	1.038048
C60	C	0.714996	-0.233501	1.538048
C61	C	0.241061	-0.707367	0.959690
C62	C	0.741061	-0.207367	1.459690
C63	C	0.190103	-0.662308	0.920542
C64	C	0.690103	-0.162308	1.420542
C65	C	0.304966	-0.662293	0.805598
C66	C	0.804966	-0.162293	1.305598
C67	C	-0.117460	-0.854702	0.612901
C68	C	0.382540	-0.354702	1.112901
C69	C	-0.002405	-0.854864	0.498145
C70	C	0.497595	-0.354864	0.998145
C71	C	-0.002621	-0.969735	0.613108
C72	C	0.497379	-0.469735	1.113108
C73	C	-0.002603	-0.854858	0.613180
C74	C	0.497397	-0.354858	1.113180
C75	C	-0.031272	-0.883541	0.584334
C76	C	0.468728	-0.383541	1.084334
N77	N	0.460550	-0.714150	0.753681
N78	N	0.960550	-0.214150	1.253681
O79	O	0.699805	-0.721060	0.574973
O80	O	1.199805	-0.221060	1.074973
O81	O	0.700047	-0.866553	0.772482
O82	O	1.200047	-0.366553	1.272482
O83	O	0.699952	-0.866219	0.647213
O84	O	1.199952	-0.366219	1.147213
O85	O	0.699900	-0.721394	0.700242
O86	O	1.199900	-0.221394	1.200242
O87	O	0.575478	-0.824800	0.688791
O88	O	1.075478	-0.324800	1.188791
O89	O	0.575573	-0.825134	0.814060
O90	O	1.075573	-0.325134	1.314060
O91	O	0.575331	-0.679641	0.616551
O92	O	1.075331	-0.179641	1.116551
Cu93	Cu	0.564087	-0.748606	0.719102
Cu94	Cu	1.064087	-0.248606	1.219102
Cu95	Cu	0.711292	-0.797588	0.669931
Cu96	Cu	1.211292	-0.297588	1.169931
O97	O	0.575426	-0.679975	0.741820
O98	O	1.075426	-0.179975	1.241820
N99	N	0.814828	-0.832044	0.635345
N100	N	1.314828	-0.332044	1.135345
N101	N	0.138106	-0.391772	0.753815
N102	N	0.638106	0.108228	1.253815
O103	O	-0.040520	-0.152377	0.746758
O104	O	0.459480	0.347623	1.246758
O105	O	0.156993	-0.152371	0.601281
O106	O	0.656993	0.347629	1.101281
O107	O	0.031698	-0.152390	0.601639
O108	O	0.531698	0.347610	1.101639
O109	O	0.084775	-0.152358	0.746401
O110	O	0.584775	0.347642	1.246401
O111	O	0.073234	-0.276876	0.643130
O112	O	0.573234	0.223124	1.143130
O113	O	0.198529	-0.276856	0.642772
O114	O	0.698529	0.223144	1.142772
O115	O	0.001015	-0.276863	0.788249
O116	O	0.501015	0.223137	1.288249
Cu117	Cu	0.103564	-0.288226	0.719299
Cu118	Cu	0.603564	0.211774	1.219299
Cu119	Cu	0.054444	-0.141007	0.670231
Cu120	Cu	0.554444	0.358993	1.170231
O121	O	0.126310	-0.276844	0.787892
O122	O	0.626310	0.223156	1.287892
N123	N	0.019892	-0.037461	0.635717
N124	N	0.519892	0.462539	1.135717
N125	N	0.138332	-0.714192	1.076133
N126	N	0.638332	-0.214192	1.576133
O127	O	0.131293	-0.892804	1.315506
O128	O	0.631293	-0.392804	1.815506
O129	O	-0.014162	-0.695219	1.315533
O130	O	0.485838	-0.195219	1.815533
O131	O	-0.013826	-0.820490	1.315480
O132	O	0.486174	-0.320490	1.815480
O133	O	0.130957	-0.767533	1.315559
O134	O	0.630957	-0.267533	1.815559
O135	O	0.027651	-0.778981	1.191001
O136	O	0.527651	-0.278981	1.691001
O137	O	0.027314	-0.653710	1.191054
O138	O	0.527314	-0.153710	1.691054
O139	O	0.172770	-0.851295	1.191026
O140	O	0.672770	-0.351295	1.691026
Cu141	Cu	0.103829	-0.748713	1.179674
Cu142	Cu	0.603829	-0.248713	1.679674
Cu143	Cu	0.054778	-0.797802	1.326885
Cu144	Cu	0.554778	-0.297802	1.826885
O145	O	0.172434	-0.726024	1.191079
O146	O	0.672434	-0.226024	1.691079
N147	N	0.020275	-0.832331	1.430426
N148	N	0.520275	-0.332331	1.930426
C149	C	0.047687	-0.649466	0.602306
C150	C	0.547687	-0.149466	1.102306
C151	C	0.202716	-0.804385	0.602188
C152	C	0.702716	-0.304385	1.102188
C153	C	0.110357	-0.896993	0.787321
C154	C	0.610357	-0.396993	1.287321
C155	C	-0.044672	-0.742074	0.787439
C156	C	0.455328	-0.242074	1.287439
C157	C	0.637839	-0.865879	0.818154
C158	C	1.137839	-0.365879	1.318154
C159	C	0.637724	-0.865466	0.663023
C160	C	1.137724	-0.365466	1.163023
C161	C	0.637536	-0.680313	0.570880
C162	C	1.137536	-0.180313	1.070880
C163	C	0.637655	-0.680728	0.726010
C164	C	1.137655	-0.180728	1.226010
C165	C	0.202592	-0.214459	0.601942
C166	C	0.702592	0.285541	1.101942
C167	C	0.047481	-0.214636	0.602435
C168	C	0.547481	0.285364	1.102435
C169	C	-0.044635	-0.214620	0.787537
C170	C	0.455365	0.285380	1.287537
C171	C	0.110528	-0.214598	0.787096
C172	C	0.610528	0.285402	1.287096
C173	C	-0.013455	-0.649572	1.253296
C174	C	0.486545	-0.149572	1.753296
C175	C	-0.013030	-0.804697	1.253206
C176	C	0.486970	-0.304697	1.753206
C177	C	0.172063	-0.896942	1.253263
C178	C	0.672063	-0.396942	1.753263
C179	C	0.171648	-0.741808	1.253325
C180	C	0.671648	-0.241808	1.753325
H181	H	0.071582	-0.606692	0.927876
H182	H	0.571582	-0.106692	1.427876
H183	H	0.121892	-0.214588	0.832572
H184	H	0.621892	0.285412	1.332572
C185	C	-0.048463	-0.526631	1.253339
C186	C	0.451537	-0.026631	1.753339
C187	C	-0.075108	-0.572969	1.253308
C188	C	0.424892	-0.072969	1.753308
H189	H	-0.086527	-0.479341	1.253351
H190	H	0.413473	0.020659	1.753351
H191	H	-0.005941	-0.520083	1.209939
H192	H	0.494059	-0.020083	1.709939
H193	H	-0.034861	-0.549040	1.296757
H194	H	0.465139	-0.049040	1.796757
H195	H	-0.088704	-0.550562	1.209886
H196	H	0.411296	-0.050562	1.709886
H197	H	-0.117642	-0.579515	1.296712
H198	H	0.382358	-0.079515	1.796712
C199	C	-0.047436	-0.893001	1.253056
C200	C	0.452564	-0.393001	1.753056
C201	C	-0.074410	-0.819956	1.253100
C202	C	0.425590	-0.319956	1.753100
H203	H	-0.085329	-0.902418	1.252986
H204	H	0.414671	-0.402418	1.752986
H205	H	-0.033840	-0.927541	1.296480
H206	H	0.466160	-0.427541	1.796480
H207	H	-0.004851	-0.898578	1.209663
H208	H	0.495149	-0.398578	1.709663
H209	H	-0.116991	-0.814381	1.296497
H210	H	0.383009	-0.314381	1.796497
H211	H	-0.088016	-0.785407	1.209671
H212	H	0.411984	-0.285407	1.709671
H213	H	0.121632	-0.953785	0.832877
H214	H	0.621632	-0.453785	1.332877
C215	C	0.206092	-0.653465	1.253357
C216	C	0.706092	-0.153465	1.753357
C217	C	0.233057	-0.726519	1.253342
C218	C	0.733057	-0.226519	1.753342
H219	H	0.244007	-0.644026	1.253363
H220	H	0.744007	-0.144026	1.753363
H221	H	0.163542	-0.647885	1.296765
H222	H	0.663542	-0.147885	1.796765
H223	H	0.192453	-0.618937	1.209947
H224	H	0.692453	-0.118937	1.709947
H225	H	0.246691	-0.761047	1.296756
H226	H	0.746691	-0.261047	1.796756
H227	H	0.275621	-0.732105	1.209930
H228	H	0.775621	-0.232105	1.709930
C229	C	0.296398	-0.963875	1.189270
C230	C	0.796398	-0.463875	1.689270
C231	C	0.233716	-0.973545	1.253251
C232	C	0.733716	-0.473545	1.753251
H233	H	0.334457	-1.011167	1.189262
H234	H	0.834457	-0.511167	1.689262
H235	H	0.314460	-0.932437	1.189298
H236	H	0.814460	-0.432437	1.689298
H237	H	0.282785	-0.941472	1.145860
H238	H	0.782785	-0.441472	1.645860
H239	H	0.247327	-0.995944	1.296662
H240	H	0.747327	-0.495944	1.796662
H241	H	0.215651	-1.004995	1.253230
H242	H	0.715651	-0.504995	1.753230
H243	H	0.024299	-0.654107	1.070013
H244	H	0.524299	-0.154107	1.570013
C245	C	0.269676	-0.811187	0.477929
C246	C	0.769676	-0.311187	0.977929
C247	C	0.279327	-0.819486	0.540612
C248	C	0.779327	-0.319486	1.040612
H249	H	0.316974	-0.820515	0.439918
H250	H	0.816974	-0.320515	0.939918
H251	H	0.238279	-0.761651	0.459784
H252	H	0.738279	-0.261651	0.959784
H253	H	0.247240	-0.845776	0.491574
H254	H	0.747240	-0.345776	0.991574
H255	H	0.301759	-0.784893	0.526968
H256	H	0.801759	-0.284893	1.026968
H257	H	0.310736	-0.869030	0.558760
H258	H	0.810736	-0.369030	1.058760
C259	C	0.344118	-0.794097	1.030111
C260	C	0.844118	-0.294097	1.530111
C261	C	0.271012	-0.783016	1.081074
C262	C	0.771012	-0.283016	1.581074
H263	H	0.378700	-0.824670	1.056675
H264	H	0.878700	-0.324670	1.556675
H265	H	0.351613	-0.747131	0.999557
H266	H	0.851613	-0.247131	1.499557
H267	H	0.351623	-0.818018	0.999546
H268	H	0.851623	-0.318018	1.499546
H269	H	0.263505	-0.759090	1.111635
H270	H	0.763505	-0.259090	1.611635
H271	H	0.263515	-0.829991	1.111640
H272	H	0.763515	-0.329991	1.611640
C273	C	0.637702	-0.646278	0.814362
C274	C	1.137702	-0.146278	1.314362
C275	C	0.637630	-0.619306	0.741324
C276	C	1.137630	-0.119306	1.241324
H277	H	0.637682	-0.608356	0.823816
H278	H	1.137682	-0.108356	1.323816
H279	H	0.681140	-0.688821	0.819903
H280	H	1.181140	-0.188821	1.319903
H281	H	0.594326	-0.659938	0.848902
H282	H	1.094326	-0.159938	1.348902
H283	H	0.681010	-0.605651	0.706784
H284	H	1.181010	-0.105651	1.206784
H285	H	0.594188	-0.576750	0.735777
H286	H	1.094188	-0.076750	1.235777
C287	C	0.344619	-0.662849	0.871546
C288	C	0.844619	-0.162849	1.371546
C289	C	0.325726	-0.728167	0.916596
C290	C	0.825726	-0.228167	1.416596
H291	H	0.396886	-0.675692	0.844939
H292	H	0.896886	-0.175692	1.344939
H293	H	0.331792	-0.636280	0.902117
H294	H	0.831792	-0.136280	1.402117
H295	H	0.317999	-0.632283	0.837018
H296	H	0.817999	-0.132283	1.337018
H297	H	0.352342	-0.758731	0.951127
H298	H	0.852342	-0.258731	1.451127
H299	H	0.338561	-0.754748	0.886021
H300	H	0.838561	-0.254748	1.386021
H301	H	0.637457	-0.634634	0.514159
H302	H	1.137457	-0.134634	1.014159
H303	H	0.036413	-0.592673	0.556752
H304	H	0.536413	-0.092673	1.056752
H305	H	-0.101359	-0.214623	0.833209
H306	H	0.398641	0.285377	1.333209
C307	C	-0.167563	-0.653948	0.822252
C308	C	0.332437	-0.153948	1.322252
C309	C	-0.121284	-0.726974	0.849016
C310	C	0.378716	-0.226974	1.349016
H311	H	-0.214857	-0.644626	0.860270
H312	H	0.285143	-0.144626	1.360270
H313	H	-0.174101	-0.648326	0.779730
H314	H	0.325899	-0.148326	1.279730
H315	H	-0.145120	-0.619368	0.808616
H316	H	0.354880	-0.119368	1.308616
H317	H	-0.143724	-0.761555	0.862646
H318	H	0.356276	-0.261555	1.362646
H319	H	-0.114748	-0.732603	0.891550
H320	H	0.385252	-0.232603	1.391550
C321	C	0.637947	-0.900891	0.941080
C322	C	1.137947	-0.400891	1.441080
C323	C	0.637930	-0.927545	0.894729
C324	C	1.137930	-0.427545	1.394729
H325	H	0.638008	-0.938963	0.988352
H326	H	1.138008	-0.438963	1.488352
H327	H	0.594519	-0.858379	0.947662
H328	H	1.094519	-0.358379	1.447662
H329	H	0.681334	-0.887265	0.918664
H330	H	1.181334	-0.387265	1.418664
H331	H	0.594540	-0.941166	0.917143
H332	H	1.094540	-0.441166	1.417143
H333	H	0.681362	-0.970070	0.888149
H334	H	1.181362	-0.470070	1.388149
H335	H	0.303660	-0.722726	0.745118
H336	H	0.803660	-0.222726	1.245118
H337	H	0.259199	-0.214112	0.556156
H338	H	0.759199	0.285888	1.056156
H339	H	0.071542	-0.606694	0.861281
H340	H	0.571542	-0.106694	1.361281
H341	H	0.024137	-0.654049	0.813885
H342	H	0.524137	-0.154049	1.313885
C343	C	0.637671	-0.899914	0.574673
C344	C	1.137671	-0.399914	1.074673
C345	C	0.637746	-0.926887	0.647710
C346	C	1.137746	-0.426887	1.147710
H347	H	0.637679	-0.937832	0.565222
H348	H	1.137679	-0.437832	1.065222
H349	H	0.681044	-0.886260	0.540134
H350	H	1.181044	-0.386260	1.040134
H351	H	0.594230	-0.857362	0.569133
H352	H	1.094230	-0.357362	1.069133
H353	H	0.681190	-0.969436	0.653248
H354	H	1.181190	-0.469436	1.153248
H355	H	0.594368	-0.940551	0.682258
H356	H	1.094368	-0.440551	1.182258
C357	C	0.014682	-0.278677	0.566554
C358	C	0.514682	0.221323	1.066554
C359	C	0.032166	-0.214669	0.541036
C360	C	0.532166	0.285331	1.041036
H361	H	0.005238	-0.278704	0.528646
H362	H	0.505238	0.221296	1.028646
H363	H	-0.028566	-0.278664	0.610103
H364	H	0.471434	0.221336	1.110103
H365	H	0.055524	-0.322073	0.578208
H366	H	0.555524	0.177927	1.078208
H367	H	-0.008678	-0.171272	0.529387
H368	H	0.491322	0.328728	1.029387
H369	H	0.075419	-0.214676	0.497474
H370	H	0.575419	0.285324	0.997474
C371	C	0.315770	-0.743715	0.619613
C372	C	0.815770	-0.243715	1.119613
C373	C	0.270765	-0.782935	0.684910
C374	C	0.770765	-0.282935	1.184910
H375	H	0.350322	-0.774270	0.589024
H376	H	0.850322	-0.274270	1.089024
H377	H	0.342339	-0.730872	0.632470
H378	H	0.842339	-0.230872	1.132470
H379	H	0.285167	-0.699410	0.593056
H380	H	0.785167	-0.199410	1.093056
H381	H	0.301367	-0.827238	0.711470
H382	H	0.801367	-0.327238	1.211470
H383	H	0.244194	-0.795788	0.672054
H384	H	0.744194	-0.295788	1.172054
C385	C	0.352057	-0.866674	0.861846
C386	C	0.852057	-0.366674	1.361846
C387	C	0.301111	-0.794061	0.857630
C388	C	0.801111	-0.294061	1.357630
H389	H	0.325483	-0.900825	0.887110
H390	H	0.825483	-0.400825	1.387110
H391	H	0.382638	-0.879784	0.888533
H392	H	0.882638	-0.379784	1.388533
H393	H	0.382594	-0.868659	0.812750
H394	H	0.882594	-0.368659	1.312750
H395	H	0.270578	-0.792074	0.906726
H396	H	0.770578	-0.292074	1.406726
H397	H	0.270518	-0.780947	0.830944
H398	H	0.770518	-0.280947	1.330944
H399	H	0.454413	-0.827107	0.799589
H400	H	0.954413	-0.327107	1.299589
H401	H	0.312222	-0.549720	0.759316
H402	H	0.812222	-0.049720	1.259316
C403	C	0.414574	-0.510151	0.697055
C404	C	0.914574	-0.010151	1.197055
C405	C	0.465518	-0.582767	0.701285
C406	C	0.965518	-0.082767	1.201285
H407	H	0.441151	-0.476000	0.671777
H408	H	0.941151	0.024000	1.171777
H409	H	0.384040	-0.508153	0.746140
H410	H	0.884040	-0.008153	1.246140
H411	H	0.383991	-0.497048	0.670367
H412	H	0.883991	0.002952	1.170367
H413	H	0.496097	-0.595872	0.727978
H414	H	0.996097	-0.095872	1.227978
H415	H	0.496065	-0.584767	0.652191
H416	H	0.996065	-0.084767	1.152191
H417	H	0.245557	-0.540066	0.687141
H418	H	0.745557	-0.040066	1.187141
H419	H	0.082193	-0.397958	0.871963
H420	H	0.582193	0.102042	1.371963
C421	C	0.248542	-0.437662	0.578651
C422	C	0.748542	0.062338	1.078651
C423	C	0.203499	-0.386739	0.617847
C424	C	0.703499	0.113261	1.117847
H425	H	0.261356	-0.411064	0.526377
H426	H	0.761356	0.088936	1.026377
H427	H	0.221965	-0.468223	0.591499
H428	H	0.721965	0.031777	1.091499
H429	H	0.292860	-0.468227	0.591485
H430	H	0.792860	0.031773	1.091485
H431	H	0.159178	-0.356178	0.605017
H432	H	0.659178	0.143822	1.105017
H433	H	0.230075	-0.356165	0.604993
H434	H	0.730075	0.143835	1.104993
H435	H	0.129609	-0.540114	0.919306
H436	H	0.629609	-0.040114	1.419306
