data_functionalizedCrystal
_audit_creation_method	'MofGen! by Chris Wilmer'
_symmetry_space_group_name_H-M	'P1'
_symmetry_Int_Tables_number	1
_symmetry_cell_setting	triclinic
loop_
_symmetry_equiv_pos_as_xyz
  x,y,z
_cell_length_a	25.639242
_cell_length_b	12.645330
_cell_length_c	12.645323
_cell_angle_alpha	90.024870
_cell_angle_beta	90.031252
_cell_angle_gamma	90.013220
loop_
_atom_site_label
_atom_site_type_symbol
_atom_site_fract_x
_atom_site_fract_y
_atom_site_fract_z
Zn1	Zn	0.799348	-0.422157	0.599689
Zn2	Zn	1.299348	0.077843	1.099689
Zn3	Zn	0.799290	-0.599445	0.422429
Zn4	Zn	1.299290	-0.099445	0.922429
Zn5	Zn	0.711911	-0.422183	0.422407
Zn6	Zn	1.211911	0.077817	0.922407
Zn7	Zn	0.711902	-0.599365	0.599618
Zn8	Zn	1.211902	-0.099365	1.099618
O9	O	0.755613	-0.510788	0.511036
O10	O	1.255613	-0.010788	1.011036
O11	O	0.872506	-0.445698	0.576214
O12	O	1.372506	0.054302	1.076214
O13	O	0.787678	-0.575975	0.274079
O14	O	1.287678	-0.075975	0.774079
O15	O	0.723538	-0.273832	0.445944
O16	O	1.223538	0.226168	0.945944
O17	O	0.872463	-0.575951	0.445982
O18	O	1.372463	-0.075951	0.945982
O19	O	0.787778	-0.273813	0.576192
O20	O	1.287778	0.226187	1.076192
O21	O	0.723481	-0.445741	0.274062
O22	O	1.223481	0.054259	0.774062
O23	O	0.638744	-0.445663	0.445875
O24	O	1.138744	0.054337	0.945875
O25	O	0.723522	-0.575814	0.747975
O26	O	1.223522	-0.075814	1.247975
O27	O	0.638738	-0.575839	0.576071
O28	O	1.138738	-0.075839	1.076071
O29	O	0.787769	-0.445620	0.748027
O30	O	1.287769	0.054380	1.248027
O31	O	0.787670	-0.747782	0.445913
O32	O	1.287670	-0.247782	0.945913
O33	O	0.723466	-0.747723	0.576093
O34	O	1.223466	-0.247723	1.076093
C35	C	0.755575	-0.786217	0.511021
C36	C	1.255575	-0.286217	1.011021
C37	C	0.755606	-0.904047	0.511050
C38	C	1.255606	-0.404047	1.011050
C39	C	0.619770	-0.510746	0.510964
C40	C	1.119770	-0.010746	1.010964
C41	C	0.561656	-0.510754	0.510958
C42	C	1.061656	-0.010754	1.010958
C43	C	0.715382	-1.071619	0.593199
C44	C	1.215382	-0.571619	1.093199
C45	C	0.715176	-0.949059	0.592934
C46	C	1.215176	-0.449059	1.092934
C47	C	0.740689	-0.948639	0.399323
C48	C	1.240689	-0.448639	0.899323
C49	C	0.740443	-1.071238	0.399822
C50	C	1.240443	-0.571238	0.899822
C51	C	0.810993	-1.071145	0.539722
C52	C	1.310993	-0.571145	1.039722
C53	C	0.810654	-0.948539	0.542164
C54	C	1.310654	-0.448539	1.042164
C55	C	0.201298	-0.578683	0.578764
C56	C	0.701298	-0.078683	1.078764
C57	C	0.146694	-0.578690	0.578781
C58	C	0.646694	-0.078690	1.078781
O59	O	0.118462	-0.636394	0.636372
O60	O	0.618462	-0.136394	1.136372
N61	N	0.119374	-0.510817	0.511105
N62	N	0.619374	-0.010817	1.011105
C63	C	0.146660	-0.442925	0.443415
C64	C	0.646660	0.057075	0.943415
O65	O	0.118408	-0.385194	0.385853
O66	O	0.618408	0.114806	0.885853
C67	C	0.201264	-0.442914	0.443404
C68	C	0.701264	0.057086	0.943404
C69	C	0.228581	-0.510799	0.511077
C70	C	0.728581	-0.010799	1.011077
C71	C	0.228616	-0.646562	0.646433
C72	C	0.728616	-0.146562	1.146433
C73	C	0.283217	-0.646557	0.646415
C74	C	0.783217	-0.146557	1.146415
C75	C	0.310500	-0.578673	0.578728
C76	C	0.810500	-0.078673	1.078728
C77	C	0.283182	-0.510794	0.511059
C78	C	0.783182	-0.010794	1.011059
C79	C	0.228549	-0.375018	0.375720
C80	C	0.728549	0.124982	0.875720
C81	C	0.283156	-0.375012	0.375716
C82	C	0.783156	0.124988	0.875716
C83	C	0.310474	-0.442898	0.443389
C84	C	0.810474	0.057102	0.943389
C85	C	0.365065	-0.442905	0.443354
C86	C	0.865065	0.057095	0.943354
N87	N	0.392386	-0.510778	0.511030
N88	N	0.892386	-0.010778	1.011030
C89	C	0.365103	-0.578662	0.578717
C90	C	0.865103	-0.078662	1.078717
C91	C	0.031990	-0.442952	0.443443
C92	C	0.531990	0.057048	0.943443
C93	C	-0.022613	-0.442968	0.443448
C94	C	0.477387	0.057032	0.943448
C95	C	-0.022575	-0.578731	0.578816
C96	C	0.477425	-0.078731	1.078816
C97	C	0.032028	-0.578720	0.578805
C98	C	0.532028	-0.078720	1.078805
C99	C	0.059310	-0.510825	0.511120
C100	C	0.559310	-0.010825	1.011120
C101	C	0.479768	-0.578646	0.578673
C102	C	0.979768	-0.078646	1.078673
C103	C	0.534373	-0.578638	0.578645
C104	C	1.034373	-0.078638	1.078645
C105	C	0.534331	-0.442871	0.443281
C106	C	1.034331	0.057129	0.943281
C107	C	0.479730	-0.442882	0.443304
C108	C	0.979730	0.057118	0.943304
C109	C	0.452450	-0.510774	0.511009
C110	C	0.952450	-0.010774	1.011009
O111	O	0.393332	-0.385227	0.385795
O112	O	0.893332	0.114773	0.885795
O113	O	0.393362	-0.636373	0.636279
O114	O	0.893362	-0.136373	1.136279
C115	C	0.891986	-0.510830	0.511108
C116	C	1.391986	-0.010830	1.011108
C117	C	0.950100	-0.510849	0.511139
C118	C	1.450100	-0.010849	1.011139
C119	C	0.755651	-0.510706	0.787541
C120	C	1.255651	-0.010706	1.287541
C121	C	0.755668	-0.510671	0.905371
C122	C	1.255668	-0.010671	1.405371
C123	C	0.755665	-0.234282	0.511074
C124	C	1.255665	0.265718	1.011074
C125	C	0.755688	-0.116452	0.511090
C126	C	1.255688	0.383548	1.011090
C127	C	0.755604	-0.510793	0.235606
C128	C	1.255604	-0.010793	0.735606
C129	C	0.755689	-0.510529	0.117776
C130	C	1.255689	-0.010529	0.617776
C131	C	0.715125	-0.592190	1.072902
C132	C	1.215125	-0.092190	1.572902
C133	C	0.715231	-0.592593	0.950342
C134	C	1.215231	-0.092593	1.450342
C135	C	0.810758	-0.540998	0.949908
C136	C	1.310758	-0.040998	1.449908
C137	C	0.810536	-0.541509	1.072506
C138	C	1.310536	-0.041509	1.572506
C139	C	0.741640	-0.398369	1.072565
C140	C	1.241640	0.101631	1.572565
C141	C	0.740411	-0.399041	0.949958
C142	C	1.240411	0.100959	1.449958
H143	H	0.724509	-0.918907	0.675778
H144	H	1.224509	-0.418907	1.175778
H145	H	0.674380	-0.573615	0.920228
H146	H	1.174380	-0.073615	1.420228
C147	C	0.852742	-0.464644	1.112623
C148	C	1.352742	0.035356	1.612623
H149	H	0.852887	-0.464425	1.187752
H150	H	1.352887	0.035575	1.687752
H151	H	0.885903	-0.486655	1.087406
H152	H	1.385903	0.013345	1.587406
H153	H	0.845465	-0.395420	1.087470
H154	H	1.345465	0.104580	1.587470
C155	C	0.659773	-0.566797	1.112689
C156	C	1.159773	-0.066797	1.612689
H157	H	0.660903	-0.506171	1.157031
H158	H	1.160903	-0.006171	1.657031
H159	H	0.637611	-0.553269	1.054012
H160	H	1.137611	-0.053269	1.554012
H161	H	0.646658	-0.625285	1.151596
H162	H	1.146658	-0.125285	1.651596
C163	C	0.313259	-0.721218	0.720869
C164	C	0.813259	-0.221218	1.220869
H165	H	0.289184	-0.761634	0.761186
H166	H	0.789184	-0.261634	1.261186
H167	H	0.334546	-0.767361	0.680249
H168	H	0.834546	-0.267361	1.180249
H169	H	0.334575	-0.680711	0.767129
H170	H	0.834575	-0.180711	1.267129
C171	C	-0.052593	-0.653394	0.653281
C172	C	0.447407	-0.153394	1.153281
H173	H	-0.089024	-0.643664	0.643598
H174	H	0.410976	-0.143664	1.143598
H175	H	-0.043659	-0.724605	0.637654
H176	H	0.456341	-0.224605	1.137654
H177	H	-0.043621	-0.637955	0.724535
H178	H	0.456379	-0.137955	1.224535
C179	C	0.852685	-0.463202	0.910557
C180	C	1.352685	0.036798	1.410557
H181	H	0.836926	-0.411415	0.866508
H182	H	1.336926	0.088585	1.366508
H183	H	0.868645	-0.429517	0.969426
H184	H	1.368645	0.070483	1.469426
H185	H	0.878346	-0.500685	0.871439
H186	H	1.378346	-0.000685	1.371439
C187	C	0.198511	-0.300335	0.301287
C188	C	0.698511	0.199665	0.801287
H189	H	0.222588	-0.259901	0.260991
H190	H	0.722588	0.240099	0.760991
H191	H	0.177190	-0.340814	0.255023
H192	H	0.677190	0.159186	0.755023
H193	H	0.177231	-0.254194	0.341933
H194	H	0.677231	0.245806	0.841933
H195	H	0.842265	-0.917893	0.486717
H196	H	1.342265	-0.417893	0.986717
H197	H	0.822444	-0.623501	1.101120
H198	H	1.322444	-0.123501	1.601120
H199	H	0.824601	-1.101991	0.619809
H200	H	1.324601	-0.601991	1.119809
H201	H	-0.044850	-0.387700	0.388331
H202	H	0.455150	0.112300	0.888331
H203	H	0.054199	-0.387665	0.388318
H204	H	0.554199	0.112335	0.888318
H205	H	0.724629	-1.101032	0.676314
H206	H	1.224629	-0.601032	1.176314
C207	C	0.660338	-1.113340	0.567898
C208	C	1.160338	-0.613340	1.067898
H209	H	0.661813	-1.157960	0.507511
H210	H	1.161813	-0.657960	1.007511
H211	H	0.647499	-1.152335	0.626564
H212	H	1.147499	-0.652335	1.126564
H213	H	0.637744	-1.055454	0.553987
H214	H	1.137744	-0.555454	1.053987
C215	C	0.659791	-0.909549	0.567293
C216	C	1.159791	-0.409549	1.067293
H217	H	0.637330	-0.968426	0.556988
H218	H	1.137330	-0.468426	1.056988
H219	H	0.647228	-0.867821	0.624329
H220	H	1.147228	-0.367821	1.124329
H221	H	0.660644	-0.868037	0.504720
H222	H	1.160644	-0.368037	1.004720
H223	H	0.700682	-0.918022	0.374632
H224	H	1.200682	-0.418022	0.874632
H225	H	0.054267	-0.633997	0.633913
H226	H	0.554267	-0.133997	1.133913
C227	C	0.198613	-0.721243	0.720894
C228	C	0.698613	-0.221243	1.220894
H229	H	0.222711	-0.761665	0.761182
H230	H	0.722711	-0.261665	1.261182
H231	H	0.177329	-0.680765	0.767164
H232	H	0.677329	-0.180765	1.267164
H233	H	0.177299	-0.767396	0.680264
H234	H	0.677299	-0.267396	1.180264
H235	H	0.724309	-0.674819	1.103724
H236	H	1.224309	-0.174819	1.603724
H237	H	0.305366	-0.319717	0.320603
H238	H	0.805366	0.180283	0.820603
H239	H	0.700015	-1.099922	0.375569
H240	H	1.200015	-0.599922	0.875569
C241	C	0.449680	-0.368215	0.368863
C242	C	0.949680	0.131785	0.868863
H243	H	0.473751	-0.327782	0.328552
H244	H	0.973751	0.172218	0.828552
H245	H	0.428355	-0.408702	0.322612
H246	H	0.928355	0.091298	0.822612
H247	H	0.428402	-0.322071	0.409512
H248	H	0.928402	0.177929	0.909512
H249	H	0.702168	-0.370726	1.103457
H250	H	1.202168	0.129274	1.603457
H251	H	0.699869	-0.376171	0.920846
H252	H	1.199869	0.123829	1.420846
H253	H	0.768526	-1.100899	0.336557
H254	H	1.268526	-0.600899	0.836557
H255	H	0.556554	-0.387605	0.388169
H256	H	1.056554	0.112395	0.888169
H257	H	0.724506	-0.675743	0.921031
H258	H	1.224506	-0.175743	1.421031
H259	H	0.769115	-0.919485	0.336473
H260	H	1.269115	-0.419485	0.836473
C261	C	0.825858	-0.909149	0.653233
C262	C	1.325858	-0.409149	1.153233
H263	H	0.798776	-0.865765	0.680535
H264	H	1.298776	-0.365765	1.180535
H265	H	0.830966	-0.968028	0.698698
H266	H	1.330966	-0.468028	1.198698
H267	H	0.857210	-0.869326	0.648980
H268	H	1.357210	-0.369326	1.148980
H269	H	0.841022	-1.100138	0.479919
H270	H	1.341022	-0.600138	0.979919
H271	H	0.822870	-0.622130	0.919223
H272	H	1.322870	-0.122130	1.419223
C273	C	0.777409	-0.312500	0.908615
C274	C	1.277409	0.187500	1.408615
H275	H	0.802760	-0.343455	0.863426
H276	H	1.302760	0.156545	1.363426
H277	H	0.757936	-0.261358	0.870305
H278	H	1.257936	0.238642	1.370305
H279	H	0.794369	-0.279312	0.966620
H280	H	1.294369	0.220688	1.466620
H281	H	0.556613	-0.633922	0.633754
H282	H	1.056613	-0.133922	1.133754
C283	C	0.449767	-0.653292	0.653178
C284	C	0.949767	-0.153292	1.153178
H285	H	0.473863	-0.693707	0.693476
H286	H	0.973863	-0.193707	1.193476
H287	H	0.428495	-0.612775	0.699437
H288	H	0.928495	-0.112775	1.199437
H289	H	0.428441	-0.699453	0.612584
H290	H	0.928441	-0.199453	1.112584
H291	H	0.771185	-0.337528	1.101587
H292	H	1.271185	0.162472	1.601587
