data_functionalizedCrystal
_audit_creation_method	'MofGen! by Chris Wilmer'
_symmetry_space_group_name_H-M	'P1'
_symmetry_Int_Tables_number	1
_symmetry_cell_setting	triclinic
loop_
_symmetry_equiv_pos_as_xyz
  x,y,z
_cell_length_a	8.497374
_cell_length_b	8.497374
_cell_length_c	14.908571
_cell_angle_alpha	93.295221
_cell_angle_beta	86.692197
_cell_angle_gamma	90.000262
loop_
_atom_site_label
_atom_site_type_symbol
_atom_site_fract_x
_atom_site_fract_y
_atom_site_fract_z
Zn1	Zn	-0.767762	1.031069	1.379245
Zn2	Zn	-0.267762	1.531069	1.879245
Zn3	Zn	-1.031509	0.767310	1.379252
Zn4	Zn	-0.531509	1.267310	1.879252
Zn5	Zn	-0.752489	0.752094	1.228421
Zn6	Zn	-0.252489	1.252094	1.728421
Zn7	Zn	-1.016246	1.015838	1.228414
Zn8	Zn	-0.516246	1.515838	1.728414
O9	O	-0.892002	0.891578	1.303833
O10	O	-0.392002	1.391578	1.803833
O11	O	-0.815529	1.008823	1.505492
O12	O	-0.315529	1.508823	2.005492
O13	O	-0.994492	0.544530	1.359250
O14	O	-0.494492	1.044530	1.859250
O15	O	-0.533752	0.789107	1.248428
O16	O	-0.033752	1.289107	1.748428
O17	O	-1.009302	0.815041	1.505498
O18	O	-0.509302	1.315041	2.005498
O19	O	-0.544974	0.994069	1.359237
O20	O	-0.044974	1.494069	1.859237
O21	O	-0.789496	0.533351	1.248435
O22	O	-0.289496	1.033351	1.748435
O23	O	-0.774697	0.774337	1.102174
O24	O	-0.274697	1.274337	1.602174
O25	O	-0.983289	1.238620	1.248416
O26	O	-0.483289	1.738620	1.748416
O27	O	-0.968479	0.968109	1.102169
O28	O	-0.468479	1.468109	1.602169
O29	O	-0.800729	1.249810	1.359231
O30	O	-0.300729	1.749810	1.859231
O31	O	-1.250247	0.800271	1.359244
O32	O	-0.750247	1.300271	1.859244
O33	O	-1.239033	0.982864	1.248424
O34	O	-0.739033	1.482864	1.748424
C35	C	-0.868275	0.867920	1.069437
C36	C	-0.368275	1.367920	1.569437
C37	C	-0.858163	0.857837	0.969162
C38	C	-0.358163	1.357837	1.469162
C39	C	-0.480521	0.891584	1.303826
C40	C	0.019479	1.391584	1.803826
C41	C	-0.301876	0.891589	1.303826
C42	C	0.198124	1.391589	1.803826
C43	C	-0.892003	1.303057	1.303826
C44	C	-0.392003	1.803057	1.803826
C45	C	-0.892020	1.481701	1.303828
C46	C	-0.392020	1.981701	1.803828
C47	C	-1.041259	1.040392	0.780776
C48	C	-0.541259	1.540392	1.280776
C49	C	-1.031763	1.030924	0.686558
C50	C	-0.531763	1.530924	1.186558
C51	C	-0.829667	0.829440	0.686506
C52	C	-0.329667	1.329440	1.186506
C53	C	-0.839164	0.838909	0.780724
C54	C	-0.339164	1.338909	1.280724
C55	C	-0.944965	0.944387	0.827856
C56	C	-0.444965	1.444387	1.327856
C57	C	-0.954468	0.953846	0.922075
C58	C	-0.454468	1.453846	1.422075
C59	C	-0.752366	0.752372	0.922021
C60	C	-0.252366	1.252372	1.422021
C61	C	-0.742869	0.742903	0.827804
C62	C	-0.242869	1.242903	1.327804
C63	C	-0.915822	0.915328	1.539144
C64	C	-0.415822	1.415328	2.039144
C65	C	-0.925972	0.925449	1.639420
C66	C	-0.425972	1.425449	2.139420
H67	H	-1.040620	1.039729	0.960449
H68	H	-0.540620	1.539729	1.460449
H69	H	-0.743519	0.743575	0.648115
H70	H	-0.243519	1.243575	1.148115
Br71	Br	-1.184863	1.183514	0.844745
Br72	Br	-0.684863	1.683514	1.344745
H73	H	-0.656725	0.657030	0.789416
H74	H	-0.156725	1.157030	1.289416
H75	H	-1.110173	1.109105	0.648230
H76	H	-0.610173	1.609105	1.148230
H77	H	-0.673959	0.674193	0.960364
H78	H	-0.173959	1.174193	1.460364
