data_functionalizedCrystal
_audit_creation_method	'MofGen! by Chris Wilmer'
_symmetry_space_group_name_H-M	'P1'
_symmetry_Int_Tables_number	1
_symmetry_cell_setting	triclinic
loop_
_symmetry_equiv_pos_as_xyz
  x,y,z
_cell_length_a	9.065218
_cell_length_b	15.186229
_cell_length_c	9.065218
_cell_angle_alpha	90.001593
_cell_angle_beta	94.984115
_cell_angle_gamma	90.005739
loop_
_atom_site_label
_atom_site_type_symbol
_atom_site_fract_x
_atom_site_fract_y
_atom_site_fract_z
O1	O	1.960405	0.073227	-0.216347
O2	O	1.531120	0.073228	-0.234093
O3	O	1.754636	0.073226	-0.010578
O4	O	1.736889	0.073229	-0.439863
O5	O	1.754609	-0.073232	-0.010590
O6	O	1.531094	-0.073229	-0.234106
O7	O	1.960379	-0.073230	-0.216359
Zn8	Zn	1.745732	-0.096483	-0.225235
Zn9	Zn	1.745767	0.096481	-0.225218
O10	O	1.736863	-0.073228	-0.439875
C11	C	1.476120	-0.000001	-0.232394
C12	C	1.312277	-0.000000	-0.227294
N13	N	1.745719	-0.228176	-0.225245
C14	C	1.836430	-0.453898	-0.315964
C15	C	1.836446	-0.546088	-0.315954
C16	C	1.655076	-0.546098	-0.134467
C17	C	1.655069	-0.453910	-0.134471
C18	C	1.745744	-0.407812	-0.225228
C19	C	1.745767	-0.592190	-0.225214
C20	C	1.745783	-0.692146	-0.225202
C21	C	1.745729	-0.307850	-0.225238
C22	C	2.015378	0.000000	-0.218059
C23	C	2.179221	0.000005	-0.223158
C24	C	1.752917	-0.000002	0.044403
C25	C	1.747817	0.000003	0.208245
N26	N	1.745791	0.228173	-0.225196
C27	C	1.738582	0.000001	-0.494855
C28	C	1.743681	0.000003	-0.658698
H29	H	1.910263	-0.416368	-0.389864
O30	O	1.924577	-0.590718	-0.404237
C31	C	2.104530	-0.580973	-0.584186
C32	C	2.004762	-0.530320	-0.484302
H33	H	2.169409	-0.532163	-0.648922
H34	H	2.033121	-0.624120	-0.664765
H35	H	2.185001	-0.624145	-0.512726
H36	H	1.924276	-0.487100	-0.555644
H37	H	2.076264	-0.487229	-0.403716
H38	H	1.581251	-0.583642	-0.060578
H39	H	1.581220	-0.416386	-0.060575
