data_functionalizedCrystal
_audit_creation_method	'MofGen! by Chris Wilmer'
_symmetry_space_group_name_H-M	'P1'
_symmetry_Int_Tables_number	1
_symmetry_cell_setting	triclinic
loop_
_symmetry_equiv_pos_as_xyz
  x,y,z
_cell_length_a	10.540539
_cell_length_b	10.540539
_cell_length_c	9.016244
_cell_angle_alpha	90.000067
_cell_angle_beta	89.994699
_cell_angle_gamma	95.474508
loop_
_atom_site_label
_atom_site_type_symbol
_atom_site_fract_x
_atom_site_fract_y
_atom_site_fract_z
O1	O	1.685893	-0.178895	-0.123263
O2	O	1.316480	-0.195751	-0.123280
O3	O	1.509614	-0.002617	-0.123269
O4	O	1.492759	-0.372030	-0.123274
O5	O	1.509586	-0.002621	0.123411
O6	O	1.316452	-0.195755	0.123400
O7	O	1.685865	-0.178900	0.123418
Cu8	Cu	1.501156	-0.187328	0.145933
Cu9	Cu	1.501189	-0.187323	-0.145795
O10	O	1.492730	-0.372034	0.123407
C11	C	1.269163	-0.194489	0.000058
C12	C	1.128215	-0.190707	0.000051
C13	C	0.944788	-0.045790	0.000628
C14	C	1.091406	-0.049624	0.000057
C15	C	1.066558	-0.258600	-0.140811
C16	C	0.920014	-0.253785	-0.140914
C17	C	0.919493	-0.256660	0.139608
C18	C	1.066475	-0.257960	0.141455
C19	C	1.508336	0.044684	0.000068
C20	C	1.504554	0.185632	0.000060
C21	C	1.733182	-0.180161	0.000077
C22	C	1.874130	-0.183943	0.000074
C23	C	1.494008	-0.419335	0.000066
C24	C	1.497790	-0.560283	0.000064
N25	N	1.501141	-0.187331	0.351119
C26	C	1.359637	0.369059	-0.000500
C27	C	1.363471	0.222441	0.000055
C28	C	1.572434	0.247287	0.140930
C29	C	1.567619	0.393832	0.141049
C30	C	1.570520	0.394355	-0.139473
C31	C	1.571820	0.247373	-0.141336
N32	N	1.501213	-0.187310	-0.350982
C33	C	1.397510	-0.290298	0.586146
C34	C	1.397739	-0.290684	0.414255
C35	C	1.633864	-0.217464	0.413464
C36	C	1.633298	-0.218193	0.585409
C37	C	1.473367	-0.053892	0.585663
C38	C	1.470322	-0.054757	0.413709
H39	H	0.891816	-0.203602	-0.246209
F40	F	0.878250	-0.196981	0.279169
H41	H	0.916191	0.009944	0.101649
H42	H	1.415639	-0.389668	0.373108
F43	F	1.737181	-0.123860	0.639771
H44	H	1.672424	0.441581	-0.140416
F45	F	1.286883	0.408968	0.130434
H46	H	1.299123	-0.272553	0.372106
F47	F	0.905314	0.026763	-0.130666
F48	F	1.098131	-0.392408	0.152569
H49	H	1.134008	0.003797	0.101034
F50	F	1.293133	0.167854	0.132256
H51	H	1.657653	-0.315531	0.625498
F52	F	1.145956	0.020413	-0.132361
H53	H	1.303918	0.397661	-0.101521
H54	H	0.872045	-0.355250	-0.147309
H55	H	1.676041	0.224933	0.146173
F56	F	1.737198	-0.122095	0.360012
F57	F	1.268199	-0.266950	0.640215
H58	H	1.415177	-0.388722	0.629339
H59	H	1.517429	0.422030	0.246347
F60	F	1.666412	-0.343253	0.357160
H61	H	1.378630	-0.025213	0.629106
H62	H	1.088912	-0.362208	-0.146054
F63	F	1.572195	0.046302	0.638803
F64	F	1.700236	0.456534	0.149424
H65	H	1.525258	0.204686	0.245756
F66	F	1.122236	-0.196952	-0.277837
H67	H	1.524871	0.425910	-0.246244
F68	F	1.342701	-0.024900	0.360453
F69	F	1.562515	0.050230	0.357558
F70	F	1.119873	-0.193028	0.277663
F71	F	0.857766	-0.389855	0.140852
H72	H	1.310059	0.179839	-0.100926
F73	F	1.507411	0.193376	-0.277569
H74	H	1.674681	0.223152	-0.149837
