data_functionalizedCrystal
_audit_creation_method	'MofGen! by Chris Wilmer'
_symmetry_space_group_name_H-M	'P1'
_symmetry_Int_Tables_number	1
_symmetry_cell_setting	triclinic
loop_
_symmetry_equiv_pos_as_xyz
  x,y,z
_cell_length_a	18.101398
_cell_length_b	17.077402
_cell_length_c	17.077396
_cell_angle_alpha	90.030619
_cell_angle_beta	89.977334
_cell_angle_gamma	89.981851
loop_
_atom_site_label
_atom_site_type_symbol
_atom_site_fract_x
_atom_site_fract_y
_atom_site_fract_z
Zn1	Zn	1.132151	0.312601	-0.443949
Zn2	Zn	1.132068	0.443878	-0.312680
Zn3	Zn	1.008314	0.312619	-0.312685
Zn4	Zn	1.008279	0.443818	-0.443891
O5	O	1.070203	0.378229	-0.378301
O6	O	1.235773	0.330032	-0.426558
O7	O	1.115632	0.426498	-0.202834
O8	O	1.024790	0.202770	-0.330123
O9	O	1.235712	0.426481	-0.330116
O10	O	1.115773	0.202756	-0.426563
O11	O	1.024710	0.330063	-0.202837
O12	O	0.904676	0.330005	-0.330067
O13	O	1.024731	0.426379	-0.553746
O14	O	0.904650	0.426396	-0.426464
O15	O	1.115739	0.329974	-0.553788
O16	O	1.115598	0.553717	-0.330059
O17	O	1.024650	0.553673	-0.426460
C18	C	0.877792	0.378197	-0.378260
C19	C	0.795478	0.378202	-0.378261
C20	C	1.070132	0.582177	-0.378270
C21	C	1.070169	0.669426	-0.378283
C22	C	1.070240	0.378168	-0.583046
C23	C	1.070256	0.378142	-0.670296
C24	C	0.496387	0.378251	-0.378327
C25	C	0.527704	0.317301	-0.317973
C26	C	0.613322	0.317465	-0.317715
C27	C	0.644770	0.378226	-0.378295
C28	C	0.613664	0.460916	-0.355690
C29	C	0.528018	0.460577	-0.355271
C30	C	0.527997	0.357230	-0.461428
C31	C	0.613647	0.355389	-0.460975
C32	C	0.728629	0.378217	-0.378277
C33	C	0.412528	0.378266	-0.378343
C34	C	1.263365	0.378261	-0.378343
C35	C	1.345679	0.378275	-0.378361
C36	C	1.070295	0.173484	-0.378350
C37	C	1.070334	0.086235	-0.378371
C38	C	1.117574	0.710413	-0.328141
C39	C	1.117610	0.792394	-0.328161
C40	C	1.070237	0.833386	-0.378319
C41	C	1.022830	0.792393	-0.428467
C42	C	1.022798	0.710414	-0.428450
C43	C	1.022898	0.963263	-0.428497
C44	C	1.022929	1.045248	-0.428512
C45	C	1.117710	1.045243	-0.328208
C46	C	1.117678	0.963264	-0.328191
C47	C	1.070270	0.922277	-0.378337
C48	C	1.022927	0.327922	-0.711287
C49	C	1.022939	0.327904	-0.793267
C50	C	1.070285	0.378103	-0.834255
C51	C	1.117615	0.428328	-0.793258
C52	C	1.117599	0.428350	-0.711279
C53	C	1.117647	0.428279	-0.964128
C54	C	1.117665	0.428257	-1.046113
C55	C	1.022988	0.327834	-1.046116
C56	C	1.022971	0.327855	-0.964137
C57	C	1.070303	0.378080	-0.923146
C58	C	1.070209	0.378233	-0.174353
C59	C	1.070336	0.378037	-0.087104
H60	H	0.507125	0.255796	-0.331986
C61	C	0.500027	0.523937	-0.412134
H62	H	0.541001	0.549780	-0.435375
H63	H	0.470914	0.500186	-0.451850
H64	H	0.470909	0.560924	-0.384269
C65	C	0.641184	0.523913	-0.413208
H66	H	0.671966	0.500288	-0.451608
H67	H	0.600073	0.547894	-0.438093
H68	H	0.668508	0.562416	-0.385404
H69	H	0.507745	0.401623	-0.506398
H70	H	0.984378	0.287040	-0.677920
H71	H	0.984368	1.078621	-0.469370
C72	C	1.169686	0.665329	-0.272967
H73	H	1.197928	0.701484	-0.243113
H74	H	1.141368	0.633395	-0.238727
H75	H	1.201926	0.633304	-0.303029
C76	C	1.169748	0.483469	-1.091198
H77	H	1.197930	0.513389	-1.055046
H78	H	1.202034	0.453432	-1.123188
H79	H	1.141408	0.517658	-1.123168
C80	C	0.970901	0.272612	-1.091203
H81	H	0.977677	0.279801	-1.145897
H82	H	0.981743	0.219869	-1.077797
H83	H	0.921139	0.284118	-1.077741
C84	C	0.970654	0.665325	-0.483604
H85	H	0.977425	0.610631	-0.476417
H86	H	0.920907	0.678805	-0.472069
H87	H	0.981474	0.678714	-0.536362
C88	C	0.498848	0.277191	-0.489192
H89	H	0.467125	0.255844	-0.450357
H90	H	0.472195	0.283655	-0.536657
H91	H	0.539247	0.242686	-0.497671
C92	C	0.642588	0.485416	-0.274505
H93	H	0.673611	0.445370	-0.254277
H94	H	0.669939	0.532655	-0.279100
H95	H	0.602050	0.493321	-0.240045
H96	H	0.633983	0.294538	-0.478019
H97	H	1.156161	0.469205	-0.826637
C98	C	0.641739	0.234628	-0.336838
H99	H	0.600939	0.200571	-0.344831
H100	H	0.671019	0.236326	-0.382979
H101	H	0.670777	0.215871	-0.294484
C102	C	0.498603	0.335860	-0.235271
H103	H	0.467453	0.380592	-0.237364
H104	H	0.471350	0.292387	-0.216074
H105	H	0.539061	0.346068	-0.201355
C106	C	0.970722	0.837478	-0.483644
H107	H	0.942490	0.801324	-0.513510
H108	H	0.938483	0.869506	-0.453591
H109	H	0.999050	0.869410	-0.517885
C110	C	0.500985	0.484651	-0.273202
H111	H	0.542346	0.494542	-0.240431
H112	H	0.471751	0.530687	-0.277101
H113	H	0.472193	0.443563	-0.251436
H114	H	1.156314	1.078618	-0.287379
H115	H	1.156249	0.929888	-0.287344
H116	H	1.156197	0.469171	-0.930755
C117	C	0.970882	0.272658	-0.838355
H118	H	0.942691	0.242757	-0.802203
H119	H	0.938604	0.302666	-0.870320
H120	H	0.999241	0.238452	-0.870348
C121	C	1.169660	0.483591	-0.666188
H122	H	1.197864	0.513481	-0.702339
H123	H	1.141307	0.517796	-0.634195
H124	H	1.201939	0.453575	-0.634223
H125	H	0.633779	0.331362	-0.256139
C126	C	0.642554	0.410996	-0.524979
H127	H	0.674119	0.449042	-0.502012
H128	H	0.669325	0.381800	-0.562913
H129	H	0.602042	0.436474	-0.549489
H130	H	1.156211	0.825762	-0.287330
H131	H	0.984296	0.929894	-0.469334
H132	H	0.984422	0.286976	-0.930767
