data_functionalizedCrystal
_audit_creation_method	'MofGen! by Chris Wilmer'
_symmetry_space_group_name_H-M	'P1'
_symmetry_Int_Tables_number	1
_symmetry_cell_setting	triclinic
loop_
_symmetry_equiv_pos_as_xyz
  x,y,z
_cell_length_a	10.723024
_cell_length_b	10.723024
_cell_length_c	9.198806
_cell_angle_alpha	90.003648
_cell_angle_beta	90.002012
_cell_angle_gamma	84.467869
loop_
_atom_site_label
_atom_site_type_symbol
_atom_site_fract_x
_atom_site_fract_y
_atom_site_fract_z
O1	O	-0.175024	-1.657188	-0.120879
O2	O	0.324976	-1.157188	0.379121
O3	O	-0.191778	-1.294035	-0.120884
O4	O	0.308222	-0.794035	0.379116
O5	O	-0.001825	-1.483988	-0.120876
O6	O	0.498175	-0.983988	0.379124
O7	O	-0.364977	-1.467235	-0.120887
O8	O	0.135023	-0.967235	0.379113
O9	O	-0.001824	-1.483973	0.120909
O10	O	0.498176	-0.983973	0.620909
O11	O	-0.191777	-1.294020	0.120901
O12	O	0.308223	-0.794020	0.620901
O13	O	-0.175024	-1.657173	0.120906
O14	O	0.324976	-1.157173	0.620906
Cu15	Cu	-0.183401	-1.475595	0.142981
Cu16	Cu	0.316599	-0.975595	0.642981
Cu17	Cu	-0.183401	-1.475613	-0.142958
Cu18	Cu	0.316599	-0.975613	0.357042
O19	O	-0.364977	-1.467220	0.120898
O20	O	0.135023	-0.967220	0.620898
C21	C	-0.190558	-1.247528	0.000008
C22	C	0.309442	-0.747528	0.500008
C23	C	-0.186911	-1.108974	0.000007
C24	C	0.313089	-0.608974	0.500007
C25	C	0.044675	-1.482762	0.000015
C26	C	0.544675	-0.982762	0.500015
C27	C	0.183229	-1.479114	0.000010
C28	C	0.683229	-0.979114	0.500010
C29	C	-0.176243	-1.703680	0.000011
C30	C	0.323757	-1.203680	0.500011
C31	C	-0.179891	-1.842234	0.000003
C32	C	0.320109	-1.342234	0.500003
C33	C	-0.411477	-1.468447	0.000004
C34	C	0.088523	-0.968447	0.500004
C35	C	-0.550031	-1.472094	-0.000000
C36	C	-0.050031	-0.972094	0.500000
C37	C	0.258212	-1.585401	0.000009
C38	C	0.758212	-1.085401	0.500009
C39	C	0.401415	-1.581634	0.000004
C40	C	0.901415	-1.081634	0.500004
N41	N	-0.183399	-1.475592	0.344095
N42	N	0.316601	-0.975592	0.844095
C43	C	-0.293198	-1.033991	0.000002
C44	C	0.206802	-0.533991	0.500002
C45	C	-0.289431	-0.890788	0.000001
C46	C	0.210569	-0.390788	0.500001
N47	N	-0.183393	-1.475626	-0.344072
N48	N	0.316607	-0.975626	0.155928
C49	C	-0.103292	-1.555347	0.416295
C50	C	0.396708	-1.055347	0.916295
C51	C	-0.103288	-1.555367	0.583707
C52	C	0.396712	-1.055367	1.083707
H53	H	0.216390	-1.679187	0.000019
H54	H	0.716390	-1.179187	0.500019
F55	F	0.485629	-1.700570	0.000013
F56	F	0.985629	-1.200570	0.500013
H57	H	-0.034707	-1.623611	0.354171
H58	H	0.465293	-1.123611	0.854171
H59	H	0.385544	-1.381099	0.000010
H60	H	0.885544	-0.881099	0.500010
F61	F	-0.060950	-0.926441	-0.000003
F62	F	0.439050	-0.426441	0.499997
H63	H	-0.251975	-1.407319	0.406220
H64	H	0.248025	-0.907319	0.906220
H65	H	-0.251984	-1.407345	0.593848
H66	H	0.248016	-0.907345	1.093848
F67	F	0.237887	-1.356524	-0.000005
F68	F	0.737887	-0.856524	0.499995
H69	H	-0.386984	-1.075814	0.000008
H70	H	0.113016	-0.575814	0.500008
F71	F	-0.408367	-0.806574	-0.000015
F72	F	0.091633	-0.306574	0.499985
F73	F	-0.064321	-1.054316	0.000020
F74	F	0.435679	-0.554316	0.500020
F75	F	-0.013647	-1.644625	0.664859
F76	F	0.486353	-1.144625	1.164859
