data_functionalizedCrystal
_audit_creation_method	'MofGen! by Chris Wilmer'
_symmetry_space_group_name_H-M	'P1'
_symmetry_Int_Tables_number	1
_symmetry_cell_setting	triclinic
loop_
_symmetry_equiv_pos_as_xyz
  x,y,z
_cell_length_a	16.625547
_cell_length_b	16.625545
_cell_length_c	13.032268
_cell_angle_alpha	82.853505
_cell_angle_beta	82.841885
_cell_angle_gamma	90.025495
loop_
_atom_site_label
_atom_site_type_symbol
_atom_site_fract_x
_atom_site_fract_y
_atom_site_fract_z
Zn1	Zn	1.174716	-0.378881	0.590969
Zn2	Zn	1.424716	-0.128881	0.840969
Zn3	Zn	1.674716	0.121119	1.090969
Zn4	Zn	1.924716	0.371119	1.340969
Zn5	Zn	1.191746	-0.496610	0.416229
Zn6	Zn	1.441746	-0.246610	0.666229
Zn7	Zn	1.691746	0.003390	0.916229
Zn8	Zn	1.941746	0.253390	1.166229
Zn9	Zn	1.057012	-0.361796	0.416233
Zn10	Zn	1.307012	-0.111796	0.666233
Zn11	Zn	1.557012	0.138204	0.916233
Zn12	Zn	1.807012	0.388204	1.166233
Zn13	Zn	1.039848	-0.513669	0.590901
Zn14	Zn	1.289848	-0.263669	0.840901
Zn15	Zn	1.539848	-0.013669	1.090901
Zn16	Zn	1.789848	0.236331	1.340901
O17	O	1.115830	-0.437739	0.503583
O18	O	1.365830	-0.187739	0.753583
O19	O	1.615830	0.062261	1.003583
O20	O	1.865830	0.312261	1.253583
O21	O	1.289805	-0.394510	0.567816
O22	O	1.539805	-0.144510	0.817816
O23	O	1.789805	0.105490	1.067816
O24	O	2.039805	0.355490	1.317816
O25	O	1.188183	-0.464437	0.270001
O26	O	1.438183	-0.214437	0.520001
O27	O	1.688183	0.035563	0.770001
O28	O	1.938183	0.285563	1.020001
O29	O	1.072681	-0.251233	0.439442
O30	O	1.322681	-0.001233	0.689442
O31	O	1.572681	0.248767	0.939442
O32	O	1.822681	0.498767	1.189442
O33	O	1.302317	-0.481005	0.439435
O34	O	1.552317	-0.231005	0.689435
O35	O	1.802317	0.018995	0.939435
O36	O	2.052317	0.268995	1.189435
O37	O	1.159158	-0.263786	0.567820
O38	O	1.409158	-0.013786	0.817820
O39	O	1.659158	0.236214	1.067820
O40	O	1.909158	0.486214	1.317820
O41	O	1.089195	-0.365390	0.270004
O42	O	1.339195	-0.115390	0.520004
O43	O	1.589195	0.134610	0.770004
O44	O	1.839195	0.384610	1.020004
O45	O	0.941905	-0.381931	0.439376
O46	O	1.191905	-0.131931	0.689376
O47	O	1.441905	0.118069	0.939376
O48	O	1.691905	0.368069	1.189376
O49	O	1.043428	-0.510079	0.737138
O50	O	1.293428	-0.260079	0.987138
O51	O	1.543428	-0.010079	1.237138
O52	O	1.793428	0.239921	1.487138
O53	O	0.929295	-0.493511	0.567704
O54	O	1.179295	-0.243511	0.817704
O55	O	1.429295	0.006489	1.067704
O56	O	1.679295	0.256489	1.317704
O57	O	1.142515	-0.411051	0.737188
O58	O	1.392515	-0.161051	0.987188
O59	O	1.642515	0.088949	1.237188
O60	O	1.892515	0.338949	1.487188
O61	O	1.171540	-0.611703	0.439370
O62	O	1.421540	-0.361703	0.689370
O63	O	1.671540	-0.111703	0.939370
O64	O	1.921540	0.138297	1.189370
O65	O	1.059941	-0.624236	0.567700
O66	O	1.309941	-0.374236	0.817700
O67	O	1.559941	-0.124236	1.067700
O68	O	1.809941	0.125764	1.317700
C69	C	0.906344	-0.437719	0.503533
C70	C	1.156344	-0.187719	0.753533
C71	C	1.406344	0.062281	1.003533
C72	C	1.656344	0.312281	1.253533
C73	C	0.816723	-0.437732	0.503537
C74	C	1.066723	-0.187732	0.753537
C75	C	1.316723	0.062268	1.003537
C76	C	1.566723	0.312268	1.253537
C77	C	0.743939	-0.437735	0.503550
C78	C	0.993939	-0.187735	0.753550
C79	C	1.243939	0.062265	1.003550
C80	C	1.493939	0.312265	1.253550
C81	C	0.652628	-0.437741	0.503576
C82	C	0.902628	-0.187741	0.753576
C83	C	1.152628	0.062259	1.003576
C84	C	1.402628	0.312259	1.253576
C85	C	0.579849	-0.437751	0.503603
C86	C	0.829849	-0.187751	0.753603
C87	C	1.079849	0.062249	1.003603
C88	C	1.329849	0.312249	1.253603
C89	C	0.488532	-0.437759	0.503628
C90	C	0.738532	-0.187759	0.753628
C91	C	0.988532	0.062241	1.003628
C92	C	1.238532	0.312241	1.253628
C93	C	1.115746	-0.647227	0.503550
C94	C	1.365746	-0.397227	0.753550
C95	C	1.615746	-0.147227	1.003550
C96	C	1.865746	0.102773	1.253550
C97	C	1.115780	-0.736850	0.503571
C98	C	1.365780	-0.486850	0.753571
C99	C	1.615780	-0.236850	1.003571
C100	C	1.865780	0.013150	1.253571
C101	C	1.115810	-0.809634	0.503592
C102	C	1.365810	-0.559634	0.753592
C103	C	1.615810	-0.309634	1.003592
C104	C	1.865810	-0.059634	1.253592
C105	C	1.115854	-0.900945	0.503615
C106	C	1.365854	-0.650945	0.753615
C107	C	1.615854	-0.400945	1.003615
C108	C	1.865854	-0.150945	1.253615
C109	C	1.115895	-0.973723	0.503628
C110	C	1.365895	-0.723723	0.753628
C111	C	1.615895	-0.473723	1.003628
C112	C	1.865895	-0.223723	1.253628
C113	C	1.115939	-1.065039	0.503649
C114	C	1.365939	-0.815039	0.753649
C115	C	1.615939	-0.565039	1.003649
C116	C	1.865939	-0.315039	1.253649
C117	C	1.326134	-0.437760	0.503633
C118	C	1.576134	-0.187760	0.753633
C119	C	1.826134	0.062240	1.003633
C120	C	2.076134	0.312240	1.253633
C121	C	1.415753	-0.437769	0.503654
C122	C	1.665753	-0.187769	0.753654
C123	C	1.915753	0.062231	1.003654
C124	C	2.165753	0.312231	1.253654
C125	C	1.089158	-0.464373	0.776139
C126	C	1.339158	-0.214373	1.026139
C127	C	1.589158	0.035627	1.276139
C128	C	1.839158	0.285627	1.526139
C129	C	1.077791	-0.475723	0.892286
C130	C	1.327791	-0.225723	1.142286
C131	C	1.577791	0.024277	1.392286
C132	C	1.827791	0.274277	1.642286
C133	C	1.115935	-0.227436	0.503639
C134	C	1.365935	0.022564	0.753639
C135	C	1.615935	0.272564	1.003639
C136	C	1.865935	0.522564	1.253639
C137	C	1.115979	-0.137817	0.503663
C138	C	1.365979	0.112183	0.753663
C139	C	1.615979	0.362183	1.003663
C140	C	1.865979	0.612183	1.253663
C141	C	1.142446	-0.411150	0.232087
C142	C	1.392446	-0.161150	0.482087
C143	C	1.642446	0.088850	0.732087
C144	C	1.892446	0.338850	0.982087
C145	C	1.153968	-0.399573	0.115941
C146	C	1.403968	-0.149573	0.365941
C147	C	1.653968	0.100427	0.615941
C148	C	1.903968	0.350427	0.865941
C149	C	1.121750	-0.431787	0.944093
C150	C	1.371750	-0.181787	1.194093
C151	C	1.621750	0.068213	1.444093
C152	C	1.871750	0.318213	1.694093
C153	C	1.110003	-0.443516	1.064137
C154	C	1.360003	-0.193516	1.314137
C155	C	1.610003	0.056484	1.564137
C156	C	1.860003	0.306484	1.814137
H157	H	1.168078	-0.385484	0.899574
H158	H	1.418078	-0.135484	1.149574
H159	H	1.668078	0.114516	1.399574
H160	H	1.918078	0.364516	1.649574
H161	H	1.063664	-0.489814	1.108651
H162	H	1.313664	-0.239814	1.358651
H163	H	1.563664	0.010186	1.608651
H164	H	1.813664	0.260186	1.858651
Cl165	Cl	1.225518	-0.328095	1.047223
Cl166	Cl	1.475518	-0.078095	1.297223
Cl167	Cl	1.725518	0.171905	1.547223
Cl168	Cl	1.975518	0.421905	1.797223
Cl169	Cl	1.006252	-0.547205	0.961010
Cl170	Cl	1.256252	-0.297205	1.211010
Cl171	Cl	1.506252	-0.047205	1.461010
Cl172	Cl	1.756252	0.202795	1.711010
