data_functionalizedCrystal
_audit_creation_method	'MofGen! by Chris Wilmer'
_symmetry_space_group_name_H-M	'P1'
_symmetry_Int_Tables_number	1
_symmetry_cell_setting	triclinic
loop_
_symmetry_equiv_pos_as_xyz
  x,y,z
_cell_length_a	16.974897
_cell_length_b	14.519709
_cell_length_c	15.455450
_cell_angle_alpha	87.021976
_cell_angle_beta	89.339242
_cell_angle_gamma	96.460201
loop_
_atom_site_label
_atom_site_type_symbol
_atom_site_fract_x
_atom_site_fract_y
_atom_site_fract_z
O1	O	1.043084	-0.110355	-0.145287
O2	O	0.813590	-0.126115	-0.129198
O3	O	0.934422	0.016042	-0.137645
O4	O	0.922251	-0.252513	-0.136840
O5	O	0.940566	0.008867	0.006182
O6	O	0.819733	-0.133291	0.014628
O7	O	1.049227	-0.117531	-0.001460
Cu8	Cu	0.935041	-0.126066	0.019717
Cu9	Cu	0.927776	-0.117580	-0.150375
O10	O	0.928394	-0.259688	0.006986
C11	C	0.787291	-0.129234	-0.055226
C12	C	0.699775	-0.127827	-0.049089
C13	C	0.655304	-0.123258	-0.124600
C14	C	0.573073	-0.121951	-0.118821
C15	C	0.535315	-0.125207	-0.037531
C16	C	0.579792	-0.129780	0.037985
C17	C	0.662021	-0.131093	0.032206
C18	C	0.289747	-0.121705	-0.011840
C19	C	0.207512	-0.120388	-0.006066
C20	C	0.200799	-0.112561	-0.162873
C21	C	0.283030	-0.113869	-0.168645
C22	C	0.327499	-0.118447	-0.093129
N23	N	0.451262	-0.123868	-0.031623
N24	N	0.411550	-0.119792	-0.099038
C25	C	0.936927	0.046810	-0.065688
C26	C	0.935228	0.149180	-0.065555
C27	C	0.928973	0.524033	-0.065093
C28	C	0.930710	0.419737	-0.065221
C29	C	0.932100	0.336610	-0.065323
C30	C	0.933838	0.232307	-0.065453
C31	C	1.075526	-0.114411	-0.075435
C32	C	1.163041	-0.115818	-0.081577
C33	C	0.925891	0.709542	-0.064942
C34	C	0.927593	0.607169	-0.064988
N35	N	0.940157	-0.132033	0.139350
N36	N	0.922666	-0.111605	-0.270009
C37	C	0.894221	-0.078551	0.187999
C38	C	0.898109	-0.083075	0.278532
C39	C	0.947938	-0.141076	0.320412
C40	C	0.993876	-0.194564	0.271756
C41	C	0.989983	-0.190045	0.181226
C42	C	0.964711	-0.160574	0.590805
C43	C	0.968602	-0.165087	0.681342
C44	C	0.872833	-0.053599	0.688111
C45	C	0.868949	-0.049081	0.597578
C46	C	0.914884	-0.102572	0.548930
N47	N	0.951915	-0.145699	0.412951
N48	N	0.910901	-0.097953	0.456394
H49	H	0.325944	-0.125426	0.049651
Cl50	Cl	1.047736	-0.257280	0.120065
Cl51	Cl	0.831582	-0.005623	0.135358
H52	H	0.313768	-0.111211	-0.234840
H53	H	0.860703	-0.039524	0.318138
Cl54	Cl	0.160048	-0.124463	0.096135
Cl55	Cl	0.532323	-0.133881	0.140179
H56	H	0.828375	-0.001847	0.563486
H57	H	1.002118	-0.204127	0.551206
H58	H	0.698228	-0.134818	0.093695
H59	H	1.009180	-0.212322	0.715438
H60	H	0.686041	-0.120603	-0.190795
Cl61	Cl	0.815086	0.013637	0.749274
Cl62	Cl	1.056512	-0.267488	0.324407
H63	H	0.164584	-0.108836	-0.224354
Cl64	Cl	0.517170	-0.116206	-0.213754
