data_functionalizedCrystal
_audit_creation_method	'MofGen! by Chris Wilmer'
_symmetry_space_group_name_H-M	'P1'
_symmetry_Int_Tables_number	1
_symmetry_cell_setting	triclinic
loop_
_symmetry_equiv_pos_as_xyz
  x,y,z
_cell_length_a	18.050589
_cell_length_b	18.050591
_cell_length_c	21.395355
_cell_angle_alpha	89.970606
_cell_angle_beta	89.987098
_cell_angle_gamma	90.024669
loop_
_atom_site_label
_atom_site_type_symbol
_atom_site_fract_x
_atom_site_fract_y
_atom_site_fract_z
Zn1	Zn	-0.295816	1.135363	-0.354367
Zn2	Zn	-0.419988	1.135253	-0.249600
Zn3	Zn	-0.295808	1.011161	-0.249595
Zn4	Zn	-0.419961	1.011130	-0.354331
O5	O	-0.357893	1.073227	-0.301973
O6	O	-0.312302	1.239273	-0.340486
O7	O	-0.403523	1.118759	-0.161921
O8	O	-0.191885	1.027696	-0.263506
O9	O	-0.403530	1.239192	-0.263514
O10	O	-0.191890	1.118947	-0.340481
O11	O	-0.312289	1.027589	-0.161917
O12	O	-0.312263	0.907233	-0.263471
O13	O	-0.403485	1.027643	-0.442014
O14	O	-0.403477	0.907210	-0.340420
O15	O	-0.312276	1.118916	-0.442040
O16	O	-0.523909	1.118729	-0.263479
O17	O	-0.523889	1.027536	-0.340425
C18	C	-0.357867	0.880275	-0.301942
C19	C	-0.357874	0.797729	-0.301943
C20	C	-0.308220	0.548894	-0.260197
C21	C	-0.290145	0.598338	-0.317376
C22	C	-0.357912	0.500609	-0.301994
C23	C	-0.375933	0.598247	-0.244793
C24	C	-0.357891	0.646594	-0.301966
C25	C	-0.339802	0.548965	-0.359204
C26	C	-0.425621	0.548870	-0.286582
C27	C	-0.407572	0.598291	-0.343801
C28	C	-0.357922	0.416510	-0.302010
C29	C	-0.357881	0.730690	-0.301957
C30	C	-0.550845	1.073137	-0.301963
C31	C	-0.633391	1.073167	-0.301979
C32	C	-0.832858	1.023625	-0.343807
C33	C	-0.882285	1.005516	-0.286633
C34	C	-0.784521	1.073240	-0.301987
C35	C	-0.882177	1.091386	-0.359168
C36	C	-0.930506	1.073309	-0.302000
C37	C	-0.832861	1.055095	-0.244783
C38	C	-0.832748	1.140996	-0.317356
C39	C	-0.882153	1.122913	-0.260142
C40	C	-0.700423	1.073198	-0.301981
C41	C	-1.014603	1.073351	-0.302000
C42	C	-0.164188	1.073337	-0.301997
C43	C	-0.081642	1.073384	-0.302007
C44	C	-0.357878	1.073289	-0.465396
C45	C	-0.357872	1.073315	-0.535038
C46	C	-0.357920	1.266933	-0.302005
C47	C	-0.357931	1.349478	-0.302018
C48	C	-0.310377	1.120839	-0.567765
C49	C	-0.310345	1.120838	-0.633201
C50	C	-0.357821	1.073321	-0.665906
C51	C	-0.405319	1.025787	-0.633170
C52	C	-0.405344	1.025785	-0.567736
C53	C	-0.424690	1.067426	-0.769577
C54	C	-0.424666	1.067434	-0.835010
C55	C	-0.357743	1.073325	-0.867727
C56	C	-0.290842	1.079224	-0.835003
C57	C	-0.290867	1.079221	-0.769569
C58	C	-0.357799	1.073318	-0.736858
C59	C	-0.310210	1.120851	-0.971407
C60	C	-0.310176	1.120844	-1.036844
C61	C	-0.405157	1.025798	-1.036812
C62	C	-0.405183	1.025800	-0.971377
C63	C	-0.357711	1.073331	-0.938678
C64	C	-0.357855	1.073208	-0.139185
C65	C	-0.357652	1.073326	-0.069544
H66	H	-0.391183	0.619897	-0.196430
H67	H	-0.482873	0.527126	-0.273537
H68	H	-0.811212	0.981606	-0.379123
Br69	Br	-0.918547	0.910063	-0.264966
Br70	Br	-0.796911	1.029453	-0.164168
Br71	Br	-0.245782	1.185352	-0.927027
H72	H	-0.903661	1.164900	-0.224741
H73	H	-0.232874	0.620053	-0.330412
Br74	Br	-0.515459	1.059438	-0.879414
Br75	Br	-0.245725	1.185359	-1.081262
Br76	Br	-0.477602	0.634212	-0.402758
Br77	Br	-0.314271	0.513039	-0.439836
H78	H	-0.903839	1.106706	-0.407520
H79	H	-0.810975	1.198250	-0.330371
H80	H	-0.479173	1.062429	-0.742944
Br81	Br	-0.469580	0.961300	-1.081190
Br82	Br	-0.245948	1.185341	-0.523392
H83	H	-0.271666	1.159536	-0.659853
Br84	Br	-0.469746	0.961294	-0.677554
H85	H	-0.443863	0.987106	-0.944729
H86	H	-0.444019	0.987081	-0.541089
Br87	Br	-0.200078	1.087223	-0.725159
H88	H	-0.266174	0.527208	-0.224906
Br89	Br	-0.200011	1.087227	-0.879396
