data_functionalizedCrystal
_audit_creation_method	'MofGen! by Chris Wilmer'
_symmetry_space_group_name_H-M	'P1'
_symmetry_Int_Tables_number	1
_symmetry_cell_setting	triclinic
loop_
_symmetry_equiv_pos_as_xyz
  x,y,z
_cell_length_a	19.188905
_cell_length_b	27.732048
_cell_length_c	18.266242
_cell_angle_alpha	89.988683
_cell_angle_beta	89.983837
_cell_angle_gamma	82.888605
loop_
_atom_site_label
_atom_site_type_symbol
_atom_site_fract_x
_atom_site_fract_y
_atom_site_fract_z
O1	O	0.925776	0.060290	-0.061009
O2	O	0.722410	0.068427	-0.060985
O3	O	0.830409	-0.006019	-0.060984
O4	O	0.817777	0.134736	-0.061011
O5	O	0.830391	-0.006023	0.060778
O6	O	0.722392	0.068423	0.060777
O7	O	0.925758	0.060287	0.060753
Zn8	Zn	0.824072	0.064354	0.080097
Zn9	Zn	0.824096	0.064359	-0.080330
O10	O	0.817759	0.134733	0.060751
C11	C	0.696391	0.068163	-0.000101
C12	C	0.618891	0.067379	-0.000091
C13	C	0.582512	0.067004	-0.066466
C14	C	0.509693	0.066261	-0.066475
C15	C	0.473258	0.065883	-0.000106
C16	C	0.509646	0.066261	0.066278
C17	C	0.582462	0.067009	0.066285
N18	N	0.364413	0.037200	0.049292
N19	N	0.295241	0.036489	0.049281
C20	C	0.253866	0.063631	-0.000123
N21	N	0.284277	0.091506	-0.049526
N22	N	0.353457	0.092215	-0.049517
C23	C	0.394301	0.065073	-0.000106
C24	C	0.138528	0.062451	-0.066511
C25	C	0.065707	0.061712	-0.066518
C26	C	0.065662	0.061707	0.066237
C27	C	0.138481	0.062452	0.066241
C28	C	0.174909	0.062822	-0.000135
C29	C	0.830135	-0.024029	-0.000101
C30	C	0.829336	-0.077686	-0.000095
C31	C	0.888130	-0.416325	-0.000140
C32	C	0.885167	-0.617994	-0.000149
O33	O	0.938930	-0.649088	-0.000188
N34	N	0.821129	-0.637309	-0.000141
C35	C	0.757826	-0.606204	-0.000135
O36	O	0.703289	-0.627261	-0.000136
C37	C	0.760789	-0.404537	-0.000131
C38	C	0.824832	-0.385224	-0.000131
C39	C	0.952168	-0.397012	-0.000141
C40	C	0.952908	-0.346598	-0.000135
C41	C	0.889610	-0.315497	-0.000127
C42	C	0.825572	-0.334810	-0.000125
C43	C	0.697487	-0.373432	-0.000130
C44	C	0.698234	-0.323013	-0.000131
C45	C	0.762277	-0.303700	-0.000132
C46	C	0.763014	-0.253295	-0.000110
N47	N	0.827053	-0.233979	-0.000119
C48	C	0.890351	-0.265080	-0.000127
C49	C	0.756275	-0.712083	-0.000136
C50	C	0.755534	-0.762499	-0.000136
C51	C	0.882876	-0.774286	-0.000152
C52	C	0.883616	-0.723868	-0.000147
C53	C	0.820313	-0.692767	-0.000145
C54	C	0.891900	-0.159206	-0.000113
C55	C	0.892634	-0.108787	-0.000103
C56	C	0.765293	-0.097006	-0.000091
C57	C	0.764558	-0.147420	-0.000097
C58	C	0.827867	-0.178520	-0.000110
O59	O	0.709280	-0.222172	-0.000080
O60	O	0.944880	-0.244014	-0.000142
C61	C	0.887390	-0.466739	-0.000146
C62	C	0.823352	-0.486052	-0.000144
C63	C	0.760054	-0.454951	-0.000136
C64	C	0.822611	-0.536469	-0.000144
C65	C	0.885909	-0.567570	-0.000152
C66	C	0.949948	-0.548255	-0.000161
C67	C	0.950688	-0.497840	-0.000154
C68	C	0.696015	-0.474267	-0.000128
C69	C	0.695281	-0.524681	-0.000134
C70	C	0.758579	-0.555783	-0.000142
C71	C	0.951776	0.060550	-0.000133
C72	C	1.029277	0.061335	-0.000148
C73	C	0.818033	0.152742	-0.000133
C74	C	0.818831	0.206399	-0.000144
N75	N	0.824061	0.064350	0.189584
N76	N	0.824113	0.064359	-0.189817
C77	C	0.871898	0.031402	0.227893
C78	C	0.871903	0.031400	0.304538
C79	C	0.824076	0.064354	0.342871
C80	C	0.776230	0.097305	0.304552
C81	C	0.776222	0.097303	0.227909
N82	N	0.814728	0.107145	0.463196
N83	N	0.814739	0.107145	0.536004
C84	C	0.824096	0.064361	0.573793
N85	N	0.833454	0.021576	0.536024
N86	N	0.833446	0.021576	0.463209
C87	C	0.824079	0.064360	0.425978
C88	C	0.871941	0.031407	0.695210
C89	C	0.871940	0.031405	0.771856
C90	C	0.776271	0.097315	0.771868
C91	C	0.776268	0.097313	0.695224
C92	C	0.824107	0.064360	0.656899
H93	H	0.168102	0.062754	0.120290
H94	H	0.612167	0.067305	-0.120514
H95	H	1.002838	-0.482121	-0.000155
H96	H	1.001487	-0.573586	-0.000164
C97	C	0.630328	-0.705508	-0.000110
C98	C	0.686686	-0.677901	-0.000123
H99	H	0.587368	-0.684406	-0.000095
H100	H	0.632695	-0.725410	-0.042571
H101	H	0.632697	-0.725426	0.042352
H102	H	0.684320	-0.657985	-0.042589
H103	H	0.684318	-0.657990	0.042341
C104	C	1.018435	-0.125509	-0.000125
C105	C	0.963035	-0.087560	-0.000110
H106	H	1.061895	-0.112405	-0.000135
H107	H	1.015492	-0.144934	0.042332
H108	H	1.015495	-0.144922	-0.042590
H109	H	0.965973	-0.068150	0.042358
H110	H	0.965980	-0.068128	-0.042572
H111	H	0.036087	0.061409	-0.120570
C112	C	0.517045	0.066331	-0.197696
C113	C	0.469693	0.065847	-0.139438
H114	H	0.492352	0.066073	-0.242739
H115	H	0.539807	0.094803	-0.194943
H116	H	0.551084	0.038439	-0.194920
H117	H	0.435657	0.093741	-0.142211
H118	H	0.446920	0.037373	-0.142193
H119	H	0.910893	0.004571	0.803048
C120	C	0.478871	0.107569	0.179415
C121	C	0.469599	0.065845	0.139232
H122	H	0.454143	0.107315	0.224453
H123	H	0.527439	0.108066	0.188918
H124	H	0.461306	0.135625	0.152128
H125	H	0.487168	0.037789	0.166516
H126	H	0.421020	0.065344	0.129730
H127	H	1.003716	-0.422330	-0.000150
H128	H	0.935765	-0.708148	-0.000148
H129	H	0.646684	-0.297693	-0.000130
C130	C	0.913870	-0.052342	0.671553
C131	C	0.924515	-0.004801	0.653046
H132	H	0.946324	-0.074689	0.645511
H133	H	0.920740	-0.057073	0.722670
H134	H	0.867326	-0.057506	0.659016
H135	H	0.971057	0.000365	0.665588
H136	H	0.917651	-0.000068	0.601917
H137	H	0.737266	0.124135	0.196716
H138	H	0.612082	0.067314	0.120336
C139	C	0.689831	-0.197290	0.062499
C140	C	0.694160	-0.168649	-0.000088
H141	H	0.646367	-0.210390	0.062500
H142	H	0.727415	-0.223029	0.062484
H143	H	0.692763	-0.177872	0.104959
H144	H	0.691233	-0.188069	-0.042549
H145	H	0.656566	-0.142907	-0.000080
H146	H	0.035997	0.061402	0.120276
C147	C	0.681149	0.107974	0.858090
C148	C	0.723697	0.133539	0.813995
H149	H	0.648693	0.130338	0.884102
H150	H	0.656254	0.087902	0.828206
H151	H	0.709647	0.088351	0.891875
H152	H	0.695200	0.153159	0.780206
H153	H	0.748595	0.153620	0.843882
C154	C	0.966823	0.020539	0.141382
C155	C	0.924251	-0.004903	0.185635
H156	H	0.999078	-0.001899	0.115257
H157	H	0.938319	0.040239	0.107703
H158	H	0.991953	0.040525	0.171177
H159	H	0.899117	-0.024887	0.155839
H160	H	0.952759	-0.024611	0.219318
H161	H	0.934415	-0.799617	-0.000158
C162	C	0.681713	0.162464	0.702937
C163	C	0.723691	0.133537	0.653109
H164	H	0.649255	0.184829	0.676936
H165	H	0.656820	0.142389	0.732845
H166	H	0.710597	0.179799	0.732815
H167	H	0.694807	0.116200	0.623234
H168	H	0.748585	0.153615	0.623188
H169	H	0.943453	-0.184522	-0.000126
C170	C	0.131258	0.062394	-0.197733
C171	C	0.178573	0.062871	-0.139469
H172	H	0.155980	0.062657	-0.242773
H173	H	0.108494	0.033922	-0.194977
H174	H	0.097217	0.090285	-0.194967
H175	H	0.212611	0.034977	-0.142232
H176	H	0.201348	0.091346	-0.142227
H177	H	0.713757	-0.071674	-0.000082
H178	H	1.005058	-0.330879	-0.000138
C179	C	0.680831	-0.812346	-0.062721
C180	C	0.685136	-0.783725	-0.000128
H181	H	0.637370	-0.825450	-0.062715
H182	H	0.683774	-0.792917	-0.105173
H183	H	0.718422	-0.838086	-0.062716
H184	H	0.647547	-0.757983	-0.000135
H185	H	0.682186	-0.803156	0.042335
H186	H	0.645336	-0.389147	-0.000134
C187	C	0.569480	-0.507954	-0.000132
C188	C	0.624877	-0.545906	-0.000135
H189	H	0.526019	-0.521057	-0.000142
H190	H	0.572409	-0.488546	0.042332
H191	H	0.572439	-0.488526	-0.042591
H192	H	0.621922	-0.565332	0.042327
H193	H	0.621947	-0.565322	-0.042603
C194	C	0.622965	-0.410727	-0.062707
C195	C	0.626431	-0.440086	-0.000117
H196	H	0.580000	-0.389629	-0.062698
H197	H	0.661198	-0.392004	-0.062704
H198	H	0.625333	-0.430637	-0.105166
H199	H	0.624068	-0.420175	0.042342
H200	H	0.588187	-0.458810	-0.000114
H201	H	0.910859	0.004568	0.335735
C202	C	0.733772	0.126578	0.422048
C203	C	0.723660	0.133531	0.346684
H204	H	0.701317	0.148944	0.448056
H205	H	0.726540	0.094335	0.434621
H206	H	0.780315	0.131747	0.434577
H207	H	0.677119	0.128359	0.334154
H208	H	0.730886	0.165782	0.334106
