data_functionalizedCrystal
_audit_creation_method	'MofGen! by Chris Wilmer'
_symmetry_space_group_name_H-M	'P1'
_symmetry_Int_Tables_number	1
_symmetry_cell_setting	triclinic
loop_
_symmetry_equiv_pos_as_xyz
  x,y,z
_cell_length_a	19.188930
_cell_length_b	10.489741
_cell_length_c	8.965430
_cell_angle_alpha	89.999293
_cell_angle_beta	89.982328
_cell_angle_gamma	96.158023
loop_
_atom_site_label
_atom_site_type_symbol
_atom_site_fract_x
_atom_site_fract_y
_atom_site_fract_z
O1	O	0.927211	-0.159225	-0.124519
O2	O	0.724044	-0.180661	-0.124416
O3	O	0.830251	0.015758	-0.124461
O4	O	0.821005	-0.355644	-0.124474
O5	O	0.830242	0.015745	0.123618
O6	O	0.724035	-0.180674	0.123663
O7	O	0.927203	-0.159238	0.123560
Cu8	Cu	0.825618	-0.169958	0.146263
Cu9	Cu	0.825628	-0.169942	-0.147119
O10	O	0.820996	-0.355658	0.123605
C11	C	0.698024	-0.179974	-0.000364
C12	C	0.620505	-0.177890	-0.000325
C13	C	0.829548	0.063267	-0.000422
C14	C	0.827459	0.204850	-0.000424
N15	N	0.825615	-0.169968	0.352612
C16	C	0.576353	-0.293142	-0.000352
C17	C	0.503516	-0.291184	-0.000368
C18	C	0.474835	-0.173968	-0.000387
C19	C	0.518996	-0.058700	-0.000351
C20	C	0.591831	-0.060661	-0.000320
N21	N	0.366257	-0.084366	-0.084876
N22	N	0.297066	-0.082511	-0.084909
C23	C	0.255386	-0.168052	-0.000478
N24	N	0.285510	-0.255538	0.083968
N25	N	0.354707	-0.257397	0.083994
C26	C	0.395858	-0.171828	-0.000420
C27	C	0.132256	-0.281190	-0.000521
C28	C	0.059418	-0.279227	-0.000528
C29	C	0.074899	-0.046740	-0.000526
C30	C	0.147736	-0.048706	-0.000504
C31	C	0.176409	-0.165934	-0.000509
C32	C	0.953223	-0.159926	-0.000496
C33	C	1.030741	-0.162010	-0.000545
C34	C	0.821699	-0.403167	-0.000437
C35	C	0.823788	-0.544750	-0.000445
C36	C	0.759882	0.271479	-0.000400
C37	C	0.791800	0.364309	0.121899
C38	C	0.791825	0.364297	-0.122687
C39	C	0.859404	0.295815	0.121977
C40	C	0.859420	0.295793	-0.122719
C41	C	0.891387	0.388597	-0.000390
N42	N	0.825636	-0.169922	-0.353468
C43	C	0.776483	-0.260775	0.449939
C44	C	0.839698	-0.285173	0.549319
C45	C	0.762427	-0.145581	0.549359
C46	C	0.888863	-0.194422	0.449804
C47	C	0.811550	-0.054781	0.449835
C48	C	0.874810	-0.079129	0.549171
H49	H	0.599694	-0.388598	-0.000359
N50	N	0.895244	0.257966	0.251836
N51	N	0.957607	0.301313	0.274212
H52	H	0.982917	0.274581	0.365926
N53	N	0.755964	0.402369	-0.252412
N54	N	0.787150	0.478161	-0.344026
H55	H	0.761820	0.505046	-0.435641
H56	H	0.051547	0.048700	-0.000634
N57	N	0.724398	-0.357170	0.395260
N58	N	0.661431	-0.353528	0.428977
H59	H	0.624648	-0.421607	0.390358
N60	N	0.690180	0.207645	-0.000208
N61	N	0.649392	0.225412	0.104679
H62	H	0.600166	0.180329	0.104821
H63	H	0.942321	-0.215145	0.406258
N64	N	0.927006	0.017236	0.603476
N65	N	0.990046	0.012384	0.571234
H66	H	1.026911	0.080437	0.609588
N67	N	0.796578	0.067358	0.394985
N68	N	0.739724	0.108813	0.426835
H69	H	0.729142	0.195074	0.388098
N70	N	0.192850	0.069011	-0.000509
N71	N	0.257880	0.067245	-0.000485
H72	H	0.289743	0.150388	-0.000485
H73	H	0.708981	-0.124975	0.593092
H74	H	0.946998	0.439264	-0.000350
N75	N	0.458416	-0.408928	-0.000388
N76	N	0.484027	-0.513584	-0.000384
H77	H	0.452177	-0.596742	-0.000398
N78	N	0.895278	0.257655	-0.252450
N79	N	0.957494	0.301628	-0.275491
H80	H	0.982817	0.274692	-0.367124
N81	N	0.489690	0.061023	-0.000356
N82	N	0.424659	0.062759	-0.000384
H83	H	0.403961	0.147317	-0.000379
N84	N	0.636946	0.057060	-0.000286
N85	N	0.679294	0.081888	0.104300
H86	H	0.711158	0.165029	0.104324
N87	N	0.755921	0.402398	0.251637
N88	N	0.693380	0.359882	0.273463
H89	H	0.668035	0.386778	0.365085
N90	N	0.854647	-0.407329	0.604183
N91	N	0.907419	-0.415511	0.683881
H92	H	0.917973	-0.501785	0.722629
N93	N	0.161540	-0.400940	-0.000517
N94	N	0.122106	-0.503840	-0.000523
H95	H	0.142785	-0.588416	-0.000517
H96	H	0.023470	-0.373084	-0.000542
