data_functionalizedCrystal
_audit_creation_method	'MofGen! by Chris Wilmer'
_symmetry_space_group_name_H-M	'P1'
_symmetry_Int_Tables_number	1
_symmetry_cell_setting	triclinic
loop_
_symmetry_equiv_pos_as_xyz
  x,y,z
_cell_length_a	16.120490
_cell_length_b	12.759400
_cell_length_c	16.120297
_cell_angle_alpha	87.117795
_cell_angle_beta	89.870317
_cell_angle_gamma	87.095889
loop_
_atom_site_label
_atom_site_type_symbol
_atom_site_fract_x
_atom_site_fract_y
_atom_site_fract_z
Zn1	Zn	1.247594	-0.532374	0.534605
Zn2	Zn	1.254591	-0.699630	0.395570
Zn3	Zn	1.115579	-0.514611	0.388524
Zn4	Zn	1.108547	-0.698653	0.527542
O5	O	1.181578	-0.611317	0.461560
O6	O	1.364891	-0.562404	0.522066
O7	O	1.242022	-0.668062	0.278269
O8	O	1.133106	-0.369948	0.407909
O9	O	1.370032	-0.685286	0.419917
O10	O	1.230097	-0.382998	0.515234
O11	O	1.139891	-0.532129	0.273092
O12	O	0.998277	-0.531181	0.401061
O13	O	1.121120	-0.683620	0.644846
O14	O	0.993110	-0.666396	0.503197
O15	O	1.223278	-0.561456	0.650035
O16	O	1.235203	-0.846520	0.413069
O17	O	1.127905	-0.845802	0.510029
C18	C	1.181572	-0.884284	0.461566
C19	C	1.181644	-1.001068	0.461600
C20	C	0.965520	-0.596756	0.450598
C21	C	0.873089	-0.590553	0.445928
C22	C	1.170634	-0.624411	0.678456
C23	C	1.165971	-0.629990	0.770885
C24	C	0.660142	-0.643484	0.485785
C25	C	0.703861	-0.579238	0.437401
C26	C	0.798028	-0.585536	0.442147
C27	C	0.565966	-0.637187	0.481040
C28	C	1.398479	-0.625936	0.472566
C29	C	1.490909	-0.632165	0.477255
C30	C	1.181605	-0.337286	0.461574
C31	C	1.181617	-0.220511	0.461580
C32	C	1.131129	-0.158853	0.405704
C33	C	1.131140	-0.049131	0.405716
C34	C	1.232134	-0.062733	0.517481
C35	C	1.232118	-0.172454	0.517473
C36	C	1.072824	-0.150999	0.341175
C37	C	1.072835	-0.041276	0.341187
C38	C	1.192527	-0.598202	0.245510
C39	C	1.197351	-0.592337	0.153091
C40	C	1.157426	-0.640152	0.940111
C41	C	1.205894	-0.582178	0.983870
C42	C	1.201139	-0.587832	1.078033
C43	C	1.162179	-0.634499	0.845939
H44	H	0.670569	-0.519506	0.392414
H45	H	0.693432	-0.703212	0.530768
H46	H	1.093343	-0.008771	0.277662
Br47	Br	1.082320	-0.729953	0.995536
Br48	Br	1.300617	-0.256130	0.593327
Br49	Br	1.300664	0.002493	0.593336
Br50	Br	1.281026	-0.492400	0.928447
Br51	Br	0.964022	-0.195131	0.364466
Br52	Br	1.116419	-0.204168	0.241162
H53	H	1.010492	-0.004513	0.361151
