data_functionalizedCrystal
_audit_creation_method	'MofGen! by Chris Wilmer'
_symmetry_space_group_name_H-M	'P1'
_symmetry_Int_Tables_number	1
_symmetry_cell_setting	triclinic
loop_
_symmetry_equiv_pos_as_xyz
  x,y,z
_cell_length_a	14.044220
_cell_length_b	14.044220
_cell_length_c	15.455313
_cell_angle_alpha	92.908275
_cell_angle_beta	87.080121
_cell_angle_gamma	93.188878
loop_
_atom_site_label
_atom_site_type_symbol
_atom_site_fract_x
_atom_site_fract_y
_atom_site_fract_z
O1	O	1.280995	0.226350	-0.072042
O2	O	1.780995	0.726350	0.427958
O3	O	1.004324	0.218043	-0.072063
O4	O	1.504324	0.718043	0.427937
O5	O	1.138506	0.083861	-0.072044
O6	O	1.638506	0.583861	0.427956
O7	O	1.146813	0.360532	-0.072061
O8	O	1.646813	0.860532	0.427939
O9	O	1.130830	0.091500	0.072217
O10	O	1.630830	0.591500	0.572217
O11	O	0.996648	0.225682	0.072198
O12	O	1.496648	0.725682	0.572198
O13	O	1.273319	0.233989	0.072219
O14	O	1.773319	0.733989	0.572219
Cu15	Cu	1.134283	0.230533	0.085381
Cu16	Cu	1.634283	0.730533	0.585381
Cu17	Cu	1.143360	0.221499	-0.085225
Cu18	Cu	1.643360	0.721499	0.414775
O19	O	1.139137	0.368171	0.072200
O20	O	1.639137	0.868171	0.572200
C21	C	1.131033	0.052059	0.000086
C22	C	1.631033	0.552059	0.500086
C23	C	1.120188	-0.054084	0.000086
C24	C	1.620188	0.445916	0.500086
C25	C	0.964865	0.218227	0.000064
C26	C	1.464865	0.718227	0.500064
C27	C	0.858722	0.207382	0.000056
C28	C	1.358722	0.707382	0.500056
C29	C	1.100363	-0.248422	0.000072
C30	C	1.600363	0.251578	0.500072
C31	C	1.177277	-0.299552	0.000076
C32	C	1.677277	0.200448	0.500076
C33	C	1.166246	-0.407689	0.000068
C34	C	1.666246	0.092311	0.500068
C35	C	1.111392	-0.140276	0.000080
C36	C	1.611392	0.359724	0.500080
C37	C	0.664384	0.187557	0.000075
C38	C	1.164384	0.687557	0.500075
C39	C	0.613254	0.264471	0.000074
C40	C	1.113254	0.764471	0.500074
C41	C	0.505117	0.253440	0.000084
C42	C	1.005117	0.753440	0.500084
C43	C	0.772530	0.198586	0.000064
C44	C	1.272530	0.698586	0.500064
C45	C	1.312779	0.233805	0.000090
C46	C	1.812779	0.733805	0.500090
C47	C	1.418921	0.244650	0.000092
C48	C	1.918921	0.744650	0.500092
C49	C	1.146611	0.399973	0.000068
C50	C	1.646611	0.899973	0.500068
C51	C	1.157456	0.506115	0.000062
C52	C	1.657456	1.006115	0.500062
N53	N	1.127905	0.236886	0.205375
N54	N	1.627905	0.736886	0.705375
N55	N	1.149745	0.215139	-0.205219
N56	N	1.649745	0.715139	0.294781
C57	C	1.184933	0.179906	0.250778
C58	C	1.684933	0.679906	0.750778
C59	C	1.180120	0.184721	0.341585
C60	C	1.680120	0.684721	0.841585
C61	C	1.118281	0.246521	0.386988
C62	C	1.618281	0.746521	0.886988
C63	C	1.061246	0.303504	0.341579
C64	C	1.561246	0.803504	0.841579
C65	C	1.066056	0.298684	0.250774
C66	C	1.566056	0.798684	0.750774
C67	C	1.097520	0.267301	0.658566
C68	C	1.597520	0.767301	1.158566
C69	C	1.092717	0.272119	0.749378
C70	C	1.592717	0.772119	1.249378
C71	C	1.211589	0.153334	0.749377
C72	C	1.711589	0.653334	1.249377
C73	C	1.216397	0.148523	0.658570
C74	C	1.716397	0.648523	1.158570
C75	C	1.159359	0.205502	0.613169
C76	C	1.659359	0.705502	1.113169
N77	N	1.113362	0.251446	0.479808
N78	N	1.613362	0.751446	0.979808
N79	N	1.164274	0.200572	0.520352
N80	N	1.664274	0.700572	1.020352
H81	H	1.026235	-0.285860	0.000064
H82	H	1.526235	0.214140	0.500064
H83	H	0.650694	0.338604	0.000065
H84	H	1.150694	0.838604	0.500065
H85	H	1.019616	0.345082	0.213808
H86	H	1.519616	0.845082	0.713808
O87	O	1.275479	-0.249971	0.000099
O88	O	1.775479	0.250029	0.500099
H89	H	1.268848	-0.171584	0.000113
H90	H	1.768848	0.328416	0.500113
H91	H	1.010891	0.353820	0.378552
H92	H	1.510891	0.853820	0.878552
O93	O	0.614803	0.089361	0.000080
O94	O	1.114803	0.589361	0.500080
H95	H	0.536419	0.095998	0.000079
H96	H	1.036419	0.595998	0.500079
H97	H	1.235293	0.129586	0.213816
H98	H	1.735293	0.629586	0.713816
H99	H	1.226556	0.138322	0.378551
H100	H	1.726556	0.638322	0.878551
O101	O	1.283085	0.081859	0.609599
O102	O	1.783085	0.581859	1.109599
H103	H	1.321926	0.043037	0.656426
H104	H	1.821926	0.543037	1.156426
O105	O	1.273099	0.091871	0.798343
O106	O	1.773099	0.591871	1.298343
H107	H	1.259363	0.105596	0.869113
H108	H	1.759363	0.605596	1.369113
H109	H	1.042358	0.322448	0.786342
H110	H	1.542358	0.822448	1.286342
H111	H	1.051078	0.313698	0.621608
H112	H	1.551078	0.813698	1.121608
