data_functionalizedCrystal
_audit_creation_method	'MofGen! by Chris Wilmer'
_symmetry_space_group_name_H-M	'P1'
_symmetry_Int_Tables_number	1
_symmetry_cell_setting	triclinic
loop_
_symmetry_equiv_pos_as_xyz
  x,y,z
_cell_length_a	19.851628
_cell_length_b	23.196402
_cell_length_c	23.196402
_cell_angle_alpha	60.000138
_cell_angle_beta	90.003305
_cell_angle_gamma	59.998845
loop_
_atom_site_label
_atom_site_type_symbol
_atom_site_fract_x
_atom_site_fract_y
_atom_site_fract_z
Zr1	Zr	0.648996	0.630936	-0.075561
O2	O	0.541431	0.751216	-0.167620
O3	O	0.681968	0.510666	-0.047343
O4	O	0.681969	0.630936	-0.167610
O5	O	0.541431	0.630941	0.047520
O6	O	0.792831	0.630925	-0.167599
O7	O	0.541430	0.630945	-0.047353
O8	O	0.792828	0.415784	0.047537
O9	O	0.541434	0.846083	-0.167616
O10	O	0.778768	0.560123	-0.035296
O11	O	0.696034	0.560128	0.035498
O12	O	0.696036	0.701731	-0.106101
O13	O	0.613302	0.701736	-0.035307
Zr14	Zr	0.825810	0.630912	0.075768
Zr15	Zr	0.825808	0.630918	-0.075542
Zr16	Zr	0.648999	0.630929	0.075750
Zr17	Zr	0.649001	0.782238	-0.075554
Zr18	Zr	0.825806	0.479609	0.075762
O19	O	0.792839	0.751181	0.047551
O20	O	0.792835	0.751190	-0.167594
O21	O	0.541435	0.751207	0.047525
O22	O	0.933375	0.510632	0.167827
O23	O	0.933371	0.510641	-0.047317
O24	O	0.681972	0.510657	0.167801
O25	O	0.933375	0.630906	-0.047312
O26	O	0.792837	0.630911	0.167818
O27	O	0.681975	0.630922	0.167806
O28	O	0.933377	0.630902	0.047560
O29	O	0.681976	0.846069	-0.167601
O30	O	0.792830	0.415779	0.167809
O31	O	0.933372	0.415764	0.167823
O32	O	0.933370	0.415769	0.047551
O33	O	0.541437	0.846078	-0.047344
O34	O	0.681978	0.846064	-0.047329
O35	O	0.778770	0.560117	0.106309
O36	O	0.861504	0.560111	0.035515
O37	O	0.778772	0.701719	-0.035290
O38	O	0.696039	0.701725	0.035504
C39	C	0.737397	0.441667	0.000096
C40	C	0.737395	0.377436	0.000093
C41	C	0.780576	0.347262	-0.036863
C42	C	0.780583	0.286901	-0.036858
C43	C	0.737395	0.256727	0.000095
C44	C	0.694213	0.286905	0.037059
C45	C	0.694213	0.347259	0.037058
C46	C	0.665056	0.194706	-0.005187
C47	C	0.665053	0.134356	-0.005191
C48	C	0.737396	0.070573	0.000102
C49	C	0.809740	0.067153	0.005385
C50	C	0.809740	0.127507	0.005384
C51	C	0.737390	0.191283	0.000100
C52	C	0.780589	-0.025052	-0.036850
C53	C	0.780599	-0.085417	-0.036839
C54	C	0.694220	-0.085407	0.037073
C55	C	0.694218	-0.025049	0.037067
C56	C	0.737400	0.005128	0.000102
C57	C	0.516239	0.630946	0.000081
C58	C	0.441177	0.630953	0.000073
C59	C	0.214724	0.708146	-0.038509
C60	C	0.192361	0.669553	-0.066486
C61	C	0.303771	0.630932	0.000093
C62	C	0.192393	0.669531	0.028057
C63	C	0.171039	0.630918	0.000112
C64	C	0.282396	0.592339	-0.027923
C65	C	0.282426	0.592328	0.066658
C66	C	0.260117	0.553678	0.038697
C67	C	0.380233	0.630943	0.000081
C68	C	0.094582	0.630901	0.000124
C69	C	0.958568	0.630901	0.000127
C70	C	1.033629	0.630894	0.000135
C71	C	0.737400	0.630931	-0.189163
C72	C	0.737399	0.630934	-0.253398
C73	C	0.737409	0.820180	0.000112
C74	C	0.737411	0.884412	0.000115
C75	C	0.694231	0.704831	-0.753183
C76	C	0.694224	0.704835	-0.692831
C77	C	0.737410	0.630918	-0.625689
C78	C	0.780588	0.556991	-0.618902
C79	C	0.780587	0.556988	-0.679255
C80	C	0.809749	0.574286	-0.501751
C81	C	0.809752	0.574292	-0.441402
C82	C	0.737411	0.630923	-0.439541
C83	C	0.665068	0.687562	-0.498044
C84	C	0.665067	0.687560	-0.558396
C85	C	0.737415	0.630913	-0.560243
C86	C	0.694223	0.704850	-0.380891
C87	C	0.694214	0.704852	-0.320536
C88	C	0.780586	0.557006	-0.246608
C89	C	0.780587	0.557006	-0.306963
C90	C	0.737408	0.630931	-0.374102
C91	C	0.737407	0.630916	0.189371
C92	C	0.737408	0.630913	0.253606
C93	C	0.958562	0.441645	0.000119
C94	C	1.033621	0.377406	0.000124
C95	C	0.737401	0.441660	0.189362
C96	C	0.737400	0.377425	0.253595
C97	C	0.958565	0.441637	0.189386
C98	C	1.033625	0.377395	0.253626
C99	C	0.516241	0.820210	-0.189178
C100	C	0.441181	0.884452	-0.253418
C101	C	0.516245	0.820202	0.000089
C102	C	0.441186	0.884442	0.000084
C103	C	0.737406	0.820188	-0.189155
C104	C	0.737407	0.884422	-0.253388
C105	C	1.025682	0.347244	-0.036843
C106	C	1.096201	0.286893	-0.036852
C107	C	1.174659	0.256700	0.000109
C108	C	1.182596	0.286868	0.037077
C109	C	1.112077	0.347222	0.037082
C110	C	0.780587	0.347254	0.320728
C111	C	0.780583	0.286907	0.381088
C112	C	0.737396	0.256729	0.374312
C113	C	0.694204	0.286906	0.307172
C114	C	0.694203	0.347255	0.246814
C115	C	1.112068	0.347224	0.246840
C116	C	1.182602	0.286870	0.307195
C117	C	1.174692	0.256685	0.374335
C118	C	1.096241	0.286862	0.381119
C119	C	1.025708	0.347219	0.320765
C120	C	0.362738	0.914631	-0.246633
C121	C	0.292204	0.975003	-0.306988
C122	C	0.300115	1.005192	-0.374128
C123	C	0.378566	0.975011	-0.380912
C124	C	0.449098	0.914643	-0.320558
C125	C	0.449124	0.914609	0.037044
C126	C	0.378605	0.974978	0.037037
C127	C	0.300148	1.005172	0.000073
C128	C	0.292211	0.975002	-0.036892
C129	C	0.362729	0.914639	-0.036888
C130	C	0.780602	0.914582	-0.246589
C131	C	0.780619	0.974929	-0.306937
C132	C	0.737435	1.005119	-0.374082
C133	C	0.694239	0.974954	-0.380879
C134	C	0.694227	0.914604	-0.320532
H135	H	0.868646	0.124719	0.009688
O136	O	0.827166	0.379801	0.328045
H137	H	0.857183	0.348682	0.384872
O138	O	0.647631	0.882078	-0.327864
H139	H	0.581258	0.932758	-0.357175
H140	H	0.321090	0.559730	-0.051630
O141	O	0.190294	0.794623	-0.081809
H142	H	0.152650	0.826935	-0.059111
O143	O	0.224033	1.070302	-0.439219
H144	H	0.242705	1.086232	-0.487050
H145	H	0.815743	0.496821	-0.191941
O146	O	0.887783	0.513201	-0.503751
H147	H	0.877020	0.474963	-0.512124
H148	H	0.737451	1.054261	-0.423215
O149	O	0.647655	0.379787	0.076938
H150	H	0.654921	0.426815	0.070737
O151	O	0.737415	0.191628	0.439421
H152	H	0.673112	0.214790	0.439392
H153	H	0.278721	0.488337	0.071343
H154	H	0.815739	0.371829	-0.066961
O155	O	0.827192	0.882016	-0.174172
H156	H	0.857237	0.913125	-0.179595
O157	O	1.087633	0.254358	-0.076723
H158	H	1.053397	0.226856	-0.055356
O159	O	1.120610	0.379784	0.174429
H160	H	1.187011	0.348665	0.179862
H161	H	1.232073	0.207555	0.000100
O162	O	0.827185	0.254352	0.453498
H163	H	0.857229	0.285466	0.448063
H164	H	0.513002	0.890029	0.067149
O165	O	0.207585	1.007571	-0.076754
H166	H	0.200397	1.035079	-0.133560
O167	O	1.120651	0.379734	0.076970
H168	H	1.090598	0.446314	0.039673
H169	H	0.659038	0.371813	0.192153
H170	H	0.385084	0.999532	0.067141
H171	H	1.246474	0.262306	0.301659
H172	H	0.242734	1.054324	0.000076
O173	O	1.250769	0.191576	0.439430
H174	H	1.306641	0.175664	0.423425
O175	O	0.647652	0.254330	0.299867
H176	H	0.654930	0.207284	0.353120
O177	O	0.587037	0.748646	-0.496045
H178	H	0.536737	0.788031	-0.546864
H179	H	1.246485	0.262276	0.067170
O180	O	0.354162	0.882095	-0.076747
H181	H	0.287757	0.913231	-0.102442
O182	O	0.647616	0.254378	0.076908
H183	H	0.691205	0.187796	0.117759
O184	O	0.387086	1.007577	-0.453332
H185	H	0.453481	0.976459	-0.447919
O186	O	0.827208	1.007461	-0.299599
H187	H	0.857219	0.976334	-0.242769
O188	O	0.333848	0.549121	0.141198
H189	H	0.352332	0.485374	0.173421
O190	O	0.140998	0.712767	0.059380
H191	H	0.121529	0.776848	0.027233
O192	O	0.827170	-0.117962	-0.076705
H193	H	0.857187	-0.086829	-0.102414
O194	O	0.647654	1.007528	-0.453302
H195	H	0.654915	1.054567	-0.494116
H196	H	0.961840	0.371777	0.326300
O197	O	1.087713	0.254291	0.453536
H198	H	1.149941	0.207244	0.494358
H199	H	0.659056	-0.109974	0.067160
H200	H	0.659070	0.765026	-0.807847
O201	O	0.140947	0.712775	-0.141038
H202	H	0.121463	0.776861	-0.172986
H203	H	0.815750	0.496814	-0.301431
O204	O	0.647632	0.007512	0.076916
H205	H	0.617595	-0.023603	0.102608
O206	O	0.647661	0.784563	-0.700143
H207	H	0.617640	0.835966	-0.756968
O208	O	0.354196	0.882081	-0.174221
H209	H	0.287795	0.913225	-0.179654
H210	H	0.228333	0.999567	-0.301450
H211	H	0.815748	0.262330	-0.066953
H212	H	0.868651	0.015213	0.009704
H213	H	0.606162	0.733676	-0.606027
O214	O	0.533711	0.882084	-0.327866
H215	H	0.540880	0.854588	-0.357172
O216	O	0.827172	0.007494	-0.076707
H217	H	0.857213	-0.023642	-0.102395
H218	H	0.606146	0.137149	-0.009497
H219	H	0.868660	0.528176	-0.393773
O220	O	0.827181	0.477254	-0.546496
H221	H	0.893550	0.441810	-0.540373
O222	O	0.587027	0.263517	-0.010912
H223	H	0.566543	0.238130	0.034243
O224	O	0.647651	0.784575	-0.453312
H225	H	0.581272	0.820026	-0.459466
O226	O	0.647638	0.784581	-0.327856
H227	H	0.617619	0.835981	-0.384682
H228	H	0.815747	0.496794	-0.673721
H229	H	0.961804	0.371826	-0.066950
