data_functionalizedCrystal
_audit_creation_method	'MofGen! by Chris Wilmer'
_symmetry_space_group_name_H-M	'P1'
_symmetry_Int_Tables_number	1
_symmetry_cell_setting	triclinic
loop_
_symmetry_equiv_pos_as_xyz
  x,y,z
_cell_length_a	14.044220
_cell_length_b	8.559649
_cell_length_c	7.681481
_cell_angle_alpha	94.930900
_cell_angle_beta	83.746703
_cell_angle_gamma	81.483771
loop_
_atom_site_label
_atom_site_type_symbol
_atom_site_fract_x
_atom_site_fract_y
_atom_site_fract_z
O1	O	-1.220005	-0.394955	-0.146232
O2	O	-0.945035	-0.381202	-0.146277
O3	O	-1.106745	-0.158929	-0.146249
O4	O	-1.058295	-0.617228	-0.146260
O5	O	-1.126654	-0.131503	0.146613
O6	O	-0.964943	-0.353776	0.146584
O7	O	-1.239914	-0.367530	0.146629
Zn8	Zn	-1.105590	-0.356298	0.193105
Zn9	Zn	-1.079359	-0.392433	-0.192752
O10	O	-1.078204	-0.589802	0.146601
C11	C	-0.920113	-0.361467	0.000148
C12	C	-0.816193	-0.343505	0.000131
C13	C	-1.120371	-0.086210	0.000179
C14	C	-1.131300	0.089612	0.000171
C15	C	-1.264836	-0.387265	0.000201
C16	C	-1.368754	-0.405228	0.000206
C17	C	-0.625925	-0.310660	0.000166
C18	C	-0.559018	-0.438066	0.000171
C19	C	-0.453146	-0.419790	0.000190
C20	C	-0.731807	-0.328933	0.000146
C21	C	-1.064577	-0.662522	0.000169
C22	C	-1.053648	-0.838345	0.000166
N23	N	-1.123498	-0.331637	0.456442
N24	N	-1.061459	-0.417082	-0.456090
H25	H	-0.603695	-0.187869	0.000179
O26	O	-0.977551	-0.532579	0.444307
H27	H	-0.979866	-0.529348	0.300670
O28	O	-0.954503	0.065203	0.000152
H29	H	-0.937605	-0.021552	-0.119225
O30	O	-1.207405	-0.216125	0.556054
H31	H	-1.201951	-0.094434	0.520769
O32	O	-1.230450	0.186075	0.000200
H33	H	-1.223769	0.313669	0.000201
H34	H	-0.581249	-0.560867	0.000159
