data_functionalizedCrystal
_audit_creation_method	'MofGen! by Chris Wilmer'
_symmetry_space_group_name_H-M	'P1'
_symmetry_Int_Tables_number	1
_symmetry_cell_setting	triclinic
loop_
_symmetry_equiv_pos_as_xyz
  x,y,z
_cell_length_a	11.169417
_cell_length_b	16.625546
_cell_length_c	16.625539
_cell_angle_alpha	90.030397
_cell_angle_beta	90.017240
_cell_angle_gamma	90.023347
loop_
_atom_site_label
_atom_site_type_symbol
_atom_site_fract_x
_atom_site_fract_y
_atom_site_fract_z
Zn1	Zn	1.834831	-0.320981	0.455826
Zn2	Zn	2.084831	-0.070981	0.705826
Zn3	Zn	2.334831	0.179019	0.955826
Zn4	Zn	2.584831	0.429019	1.205826
Zn5	Zn	1.834686	-0.455824	0.320988
Zn6	Zn	2.084686	-0.205824	0.570988
Zn7	Zn	2.334686	0.044176	0.820988
Zn8	Zn	2.584686	0.294176	1.070988
Zn9	Zn	1.634125	-0.321012	0.321014
Zn10	Zn	1.884125	-0.071012	0.571014
Zn11	Zn	2.134125	0.178988	0.821014
Zn12	Zn	2.384125	0.428988	1.071014
Zn13	Zn	1.634081	-0.455778	0.455786
Zn14	Zn	1.884081	-0.205778	0.705786
Zn15	Zn	2.134081	0.044222	0.955786
Zn16	Zn	2.384081	0.294222	1.205786
O17	O	1.734431	-0.388399	0.388404
O18	O	1.984431	-0.138399	0.638404
O19	O	2.234431	0.111601	0.888404
O20	O	2.484431	0.361601	1.138404
O21	O	2.002761	-0.338875	0.437945
O22	O	2.252761	-0.088875	0.687945
O23	O	2.502761	0.161125	0.937945
O24	O	2.752761	0.411125	1.187945
O25	O	1.808040	-0.437973	0.208159
O26	O	2.058040	-0.187973	0.458159
O27	O	2.308040	0.062027	0.708159
O28	O	2.558040	0.312027	0.958159
O29	O	1.660828	-0.208175	0.338925
O30	O	1.910828	0.041825	0.588925
O31	O	2.160828	0.291825	0.838925
O32	O	2.410828	0.541825	1.088925
O33	O	2.002655	-0.437944	0.338881
O34	O	2.252655	-0.187944	0.588881
O35	O	2.502655	0.062056	0.838881
O36	O	2.752655	0.312056	1.088881
O37	O	1.808285	-0.208153	0.437971
O38	O	2.058285	0.041847	0.687971
O39	O	2.308285	0.291847	0.937971
O40	O	2.558285	0.541847	1.187971
O41	O	1.660688	-0.338927	0.208178
O42	O	1.910688	-0.088927	0.458178
O43	O	2.160688	0.161073	0.708178
O44	O	2.410688	0.411073	0.958178
O45	O	1.466170	-0.338882	0.338886
O46	O	1.716170	-0.088882	0.588886
O47	O	1.966170	0.161118	0.838886
O48	O	2.216170	0.411118	1.088886
O49	O	1.660753	-0.437864	0.568624
O50	O	1.910753	-0.187864	0.818624
O51	O	2.160753	0.062136	1.068624
O52	O	2.410753	0.312136	1.318624
O53	O	1.466138	-0.437894	0.437902
O54	O	1.716138	-0.187894	0.687902
O55	O	1.966138	0.062106	0.937902
O56	O	2.216138	0.312106	1.187902
O57	O	1.808243	-0.338830	0.568653
O58	O	2.058243	-0.088830	0.818653
O59	O	2.308243	0.161170	1.068653
O60	O	2.558243	0.411170	1.318653
O61	O	1.807997	-0.568651	0.338842
O62	O	2.057997	-0.318651	0.588842
O63	O	2.307997	-0.068651	0.838842
O64	O	2.557997	0.181349	1.088842
O65	O	1.660613	-0.568616	0.437877
O66	O	1.910613	-0.318616	0.687877
O67	O	2.160613	-0.068616	0.937877
O68	O	2.410613	0.181384	1.187877
C69	C	1.422606	-0.388387	0.388393
C70	C	1.672606	-0.138387	0.638393
C71	C	1.922606	0.111613	0.888393
C72	C	2.172606	0.361613	1.138393
C73	C	1.289206	-0.388401	0.388408
C74	C	1.539206	-0.138401	0.638408
C75	C	1.789206	0.111599	0.888408
C76	C	2.039206	0.361599	1.138408
C77	C	1.734317	-0.597890	0.388370
C78	C	1.984317	-0.347890	0.638370
C79	C	2.234317	-0.097890	0.888370
C80	C	2.484317	0.152110	1.138370
C81	C	1.734379	-0.687511	0.388382
C82	C	1.984379	-0.437511	0.638382
C83	C	2.234379	-0.187511	0.888382
C84	C	2.484379	0.062489	1.138382
C85	C	1.734588	-1.015686	0.388466
C86	C	1.984588	-0.765686	0.638466
C87	C	2.234588	-0.515686	0.888466
C88	C	2.484588	-0.265686	1.138466
C89	C	1.734526	-0.924378	0.388445
C90	C	1.984526	-0.674378	0.638445
C91	C	2.234526	-0.424378	0.888445
C92	C	2.484526	-0.174378	1.138445
C93	C	1.734482	-0.851601	0.388424
C94	C	1.984482	-0.601601	0.638424
C95	C	2.234482	-0.351601	0.888424
C96	C	2.484482	-0.101601	1.138424
C97	C	1.734422	-0.760287	0.388404
C98	C	1.984422	-0.510287	0.638404
C99	C	2.234422	-0.260287	0.888404
C100	C	2.484422	-0.010287	1.138404
C101	C	2.047473	-0.388412	0.388415
C102	C	2.297473	-0.138412	0.638415
C103	C	2.547473	0.111588	0.888415
C104	C	2.797473	0.361588	1.138415
C105	C	2.180873	-0.388417	0.388419
C106	C	2.430873	-0.138417	0.638419
C107	C	2.680873	0.111583	0.888419
C108	C	2.930873	0.361583	1.138419
C109	C	1.734509	-0.388339	0.598713
C110	C	1.984509	-0.138339	0.848713
C111	C	2.234509	0.111661	1.098713
C112	C	2.484509	0.361661	1.348713
C113	C	1.734542	-0.388313	0.688334
C114	C	1.984542	-0.138313	0.938334
C115	C	2.234542	0.111687	1.188334
C116	C	2.484542	0.361687	1.438334
C117	C	1.734578	-0.178090	0.388455
C118	C	1.984578	0.071910	0.638455
C119	C	2.234578	0.321910	0.888455
C120	C	2.484578	0.571910	1.138455
C121	C	1.734640	-0.088469	0.388477
C122	C	1.984640	0.161531	0.638477
C123	C	2.234640	0.411531	0.888477
C124	C	2.484640	0.661531	1.138477
C125	C	1.734422	-0.388400	0.178913
C126	C	1.984422	-0.138400	0.428913
C127	C	2.234422	0.111600	0.678913
C128	C	2.484422	0.361600	0.928913
C129	C	1.734622	-0.388199	0.089292
C130	C	1.984622	-0.138199	0.339292
C131	C	2.234622	0.111801	0.589292
C132	C	2.484622	0.361801	0.839292
C133	C	1.734598	-0.388223	1.016510
C134	C	1.984598	-0.138223	1.266510
C135	C	2.234598	0.111777	1.516510
C136	C	2.484598	0.361777	1.766510
C137	C	1.734579	-0.388250	0.925201
C138	C	1.984579	-0.138250	1.175201
C139	C	2.234579	0.111750	1.425201
C140	C	2.484579	0.361750	1.675201
C141	C	1.734571	-0.388269	0.852425
C142	C	1.984571	-0.138269	1.102425
C143	C	2.234571	0.111731	1.352425
C144	C	2.484571	0.361731	1.602425
C145	C	1.734551	-0.388295	0.761110
C146	C	1.984551	-0.138295	1.011110
C147	C	2.234551	0.111705	1.261110
C148	C	2.484551	0.361705	1.511110
