data_functionalizedCrystal
_audit_creation_method	'MofGen! by Chris Wilmer'
_symmetry_space_group_name_H-M	'P1'
_symmetry_Int_Tables_number	1
_symmetry_cell_setting	triclinic
loop_
_symmetry_equiv_pos_as_xyz
  x,y,z
_cell_length_a	17.699083
_cell_length_b	17.699103
_cell_length_c	13.448316
_cell_angle_alpha	89.988434
_cell_angle_beta	89.999267
_cell_angle_gamma	83.287038
loop_
_atom_site_label
_atom_site_type_symbol
_atom_site_fract_x
_atom_site_fract_y
_atom_site_fract_z
O1	O	1.004085	0.095712	-0.082563
O2	O	1.504085	0.595712	0.417437
O3	O	0.783707	0.108164	-0.082597
O4	O	1.283707	0.608164	0.417403
O5	O	0.900115	-0.008250	-0.082560
O6	O	1.400115	0.491750	0.417440
O7	O	0.887678	0.212126	-0.082600
O8	O	1.387678	0.712126	0.417400
O9	O	0.900100	-0.008257	0.082823
O10	O	1.400100	0.491743	0.582823
O11	O	0.783693	0.108157	0.082786
O12	O	1.283693	0.608157	0.582786
O13	O	1.004070	0.095705	0.082820
O14	O	1.504070	0.595705	0.582820
Cu15	Cu	0.893880	0.101930	0.097904
Cu16	Cu	1.393880	0.601930	0.597904
Cu17	Cu	0.893897	0.101939	-0.097681
Cu18	Cu	1.393897	0.601939	0.402319
O19	O	0.887663	0.212119	0.082783
O20	O	1.387663	0.712119	0.582783
C21	C	0.755503	0.107715	0.000090
C22	C	1.255503	0.607715	0.500090
C23	C	0.671485	0.106376	0.000078
C24	C	1.171485	0.606376	0.500078
C25	C	0.622869	0.174709	0.000066
C26	C	1.122869	0.674709	0.500066
C27	C	0.543925	0.173447	0.000079
C28	C	1.043925	0.673447	0.500079
C29	C	0.513600	0.103851	0.000097
C30	C	1.013600	0.603851	0.500097
C31	C	0.562222	0.035513	0.000113
C32	C	1.062222	0.535513	0.500113
C33	C	0.641164	0.036776	0.000107
C34	C	1.141164	0.536776	0.500107
C35	C	0.243859	0.030418	0.000138
C36	C	0.743859	0.530418	0.500138
C37	C	0.164910	0.029160	0.000141
C38	C	0.664910	0.529160	0.500141
C39	C	0.146620	0.167088	0.000111
C40	C	0.646620	0.667088	0.500111
C41	C	0.225562	0.168351	0.000105
C42	C	0.725562	0.668351	0.500105
C43	C	0.274177	0.100014	0.000125
C44	C	0.774177	0.600014	0.500125
C45	C	0.359777	0.101383	0.000113
C46	C	0.859777	0.601383	0.500113
C47	C	0.428002	0.102480	0.000103
C48	C	0.928002	0.602480	0.500103
C49	C	0.899659	-0.036450	0.000134
C50	C	1.399659	0.463550	0.500134
C51	C	0.898315	-0.120468	0.000142
C52	C	1.398315	0.379532	0.500142
C53	C	0.890098	-0.636175	-0.090075
C54	C	1.390098	-0.136175	0.409925
C55	C	0.891361	-0.557232	-0.090066
C56	C	1.391361	-0.057232	0.409934
C57	C	0.891982	-0.517777	0.000091
C58	C	1.391982	-0.017777	0.500091
C59	C	0.891349	-0.557271	0.090245
C60	C	1.391349	-0.057271	0.590245
C61	C	0.890092	-0.636214	0.090235
C62	C	1.390092	-0.136214	0.590235
C63	C	0.896419	-0.238905	0.090287
C64	C	1.396419	0.261095	0.590287
C65	C	0.897674	-0.159956	0.090290
C66	C	1.397674	0.340044	0.590290
C67	C	0.897687	-0.159923	-0.090013
C68	C	1.397687	0.340077	0.409987
C69	C	0.896430	-0.238865	-0.090023
C70	C	1.396430	0.261135	0.409977
C71	C	0.895802	-0.278353	0.000130
C72	C	1.395802	0.221647	0.500130
C73	C	0.894434	-0.363952	0.000119
C74	C	1.394434	0.136048	0.500119
C75	C	0.893344	-0.432178	0.000103
C76	C	1.393344	0.067822	0.500103
C77	C	1.032275	0.096155	0.000130
C78	C	1.532275	0.596155	0.500130
C79	C	1.116293	0.097493	0.000136
C80	C	1.616293	0.597493	0.500136
C81	C	0.888119	0.240320	0.000087
C82	C	1.388119	0.740320	0.500087
C83	C	0.889463	0.324337	0.000072
C84	C	1.389463	0.824337	0.500072
N85	N	0.893874	0.101924	0.235469
N86	N	1.393874	0.601924	0.735469
N87	N	0.893910	0.101939	-0.235246
N88	N	1.393910	0.601939	0.264754
C89	C	0.945435	0.050397	0.287525
C90	C	1.445435	0.550397	0.787525
C91	C	0.945439	0.050396	0.391629
C92	C	1.445439	0.550396	0.891629
C93	C	0.893886	0.101927	0.443673
C94	C	1.393886	0.601927	0.943673
C95	C	0.842320	0.153457	0.391609
C96	C	1.342320	0.653457	0.891609
C97	C	0.842312	0.153453	0.287508
C98	C	1.342312	0.653453	0.787508
C99	C	0.842341	0.153462	0.608589
C100	C	1.342341	0.653462	1.108589
C101	C	0.842349	0.153466	0.712698
C102	C	1.342349	0.653466	1.212698
C103	C	0.945468	0.050405	0.712710
C104	C	1.445468	0.550405	1.212710
C105	C	0.945460	0.050401	0.608609
C106	C	1.445460	0.550401	1.108609
C107	C	0.893895	0.101932	0.556552
C108	C	1.393895	0.601932	1.056552
H109	H	0.283432	-0.025227	0.000155
H110	H	0.783432	0.474773	0.500155
O111	O	0.892010	-0.518794	-0.177571
O112	O	1.392010	-0.018794	0.322429
C113	C	0.958200	-0.481725	-0.183028
C114	C	1.458200	0.018275	0.316972
H115	H	1.003710	-0.511609	-0.132011
H116	H	1.503710	-0.011609	0.367989
H117	H	0.980102	-0.483621	-0.262813
H118	H	1.480102	0.016379	0.237187
H119	H	0.944310	-0.419969	-0.158676
H120	H	1.444310	0.080031	0.341324
O121	O	0.889355	-0.674519	-0.177624
O122	O	1.389355	-0.174519	0.322376
C123	C	0.823112	-0.711508	-0.183014
C124	C	1.323112	-0.211508	0.316986
H125	H	0.777692	-0.681652	-0.131860
H126	H	1.277692	-0.181652	0.368140
H127	H	0.801109	-0.709477	-0.262753
H128	H	1.301109	-0.209477	0.237247
H129	H	0.836970	-0.773305	-0.158790
H130	H	1.336970	-0.273305	0.341210
O131	O	0.135325	-0.038384	0.000121
O132	O	0.635325	0.461616	0.500121
C133	C	0.055224	-0.024840	0.000142
C134	C	0.555224	0.475160	0.500142
H135	H	0.036586	0.034257	-0.031187
H136	H	0.536586	0.534257	0.468813
H137	H	0.031061	-0.069364	-0.047858
H138	H	0.531061	0.430636	0.452142
H139	H	0.033255	-0.028463	0.079487
H140	H	0.533255	0.471537	0.579487
H141	H	0.537525	-0.021153	0.000141
H142	H	1.037525	0.478847	0.500141
O143	O	0.099501	0.233544	0.000057
O144	O	0.599501	0.733544	0.500057
C145	C	0.143197	0.295240	0.000059
C146	C	0.643197	0.795240	0.500059
H147	H	0.202150	0.275918	-0.031252
H148	H	0.702150	0.775918	0.468748
H149	H	0.113990	0.343110	-0.047967
H150	H	0.613990	0.843110	0.452033
H151	H	0.148785	0.316579	0.079396
H152	H	0.648785	0.816579	0.579396
O153	O	0.792268	0.203616	0.442050
O154	O	1.292268	0.703616	0.942050
C155	C	0.804440	0.278525	0.416601
C156	C	1.304440	0.778525	0.916601
H157	H	0.833609	0.278392	0.341014
H158	H	1.333609	0.778392	0.841014
H159	H	0.747481	0.315866	0.413031
H160	H	1.247481	0.815866	0.913031
H161	H	0.842070	0.301889	0.475178
H162	H	1.342070	0.801889	0.975178
O163	O	0.255051	0.235940	-0.000098
O164	O	0.755051	0.735940	0.499902
C165	C	0.300175	0.240790	-0.085747
C166	C	0.800175	0.740790	0.414253
H167	H	0.281575	0.201269	-0.145598
H168	H	0.781575	0.701269	0.354402
H169	H	0.292974	0.301799	-0.114518
H170	H	0.792974	0.801799	0.385482
H171	H	0.362464	0.223223	-0.066385
H172	H	0.862464	0.723223	0.433615
H173	H	0.898176	-0.127834	0.163711
H174	H	1.398176	0.372166	0.663711
H175	H	0.889575	-0.668364	0.163642
H176	H	1.389575	-0.168364	0.663642
H177	H	0.895920	-0.270985	-0.163438
H178	H	1.395920	0.229015	0.336562
H179	H	0.800348	0.195421	0.566208
H180	H	1.300348	0.695421	1.066208
O181	O	0.688284	-0.029673	0.000069
O182	O	1.188284	0.470327	0.500069
C183	C	0.644592	-0.091371	0.000108
C184	C	1.144592	0.408629	0.500108
H185	H	0.585637	-0.072053	-0.031202
H186	H	1.085637	0.427947	0.468798
H187	H	0.673798	-0.139239	-0.047899
H188	H	1.173798	0.360761	0.452101
H189	H	0.639012	-0.112715	0.079456
H190	H	1.139012	0.387285	0.579456
O191	O	0.898195	-0.121472	-0.177533
O192	O	1.398195	0.378528	0.322467
C193	C	0.833385	-0.067139	-0.182934
C194	C	1.333385	0.432861	0.317066
H195	H	0.811735	-0.052426	-0.104658
H196	H	1.311735	0.447574	0.395342
H197	H	0.848997	-0.013575	-0.221100
H198	H	1.348997	0.486425	0.278900
H199	H	0.787016	-0.091480	-0.227413
H200	H	1.287016	0.408520	0.272587
H201	H	0.504345	0.229090	0.000068
H202	H	1.004345	0.729090	0.500068
O203	O	0.891922	-0.518826	0.177735
O204	O	1.391922	-0.018826	0.677735
C205	C	0.893184	-0.440683	0.158416
C206	C	1.393184	0.059317	0.658416
H207	H	0.869410	-0.426710	0.080934
H208	H	1.369410	0.073290	0.580934
H209	H	0.856926	-0.405825	0.215991
H210	H	1.356926	0.094175	0.715991
H211	H	0.954236	-0.426327	0.162702
H212	H	1.454236	0.073673	0.662702
O213	O	0.895770	-0.277134	0.177947
O214	O	1.395770	0.222866	0.677947
C215	C	0.896603	-0.225381	0.257519
C216	C	1.396603	0.274619	0.757519
H217	H	0.873548	-0.165929	0.231086
H218	H	1.373548	0.334071	0.731086
H219	H	0.859503	-0.243331	0.320564
H220	H	1.359503	0.256669	0.820564
H221	H	0.957429	-0.225035	0.285251
H222	H	1.457429	0.274965	0.785251
H223	H	0.987418	0.008438	0.245157
H224	H	1.487418	0.508438	0.745157
O225	O	0.995607	0.000323	0.442042
O226	O	1.495607	0.500323	0.942042
C227	C	1.041102	-0.045165	0.373783
C228	C	1.541102	0.454835	0.873783
H229	H	1.041884	-0.014138	0.299564
H230	H	1.541884	0.485862	0.799564
H231	H	1.101568	-0.056772	0.403852
H232	H	1.601568	0.443228	0.903852
H233	H	1.016644	-0.101368	0.362739
H234	H	1.516644	0.398632	0.862739
O235	O	0.792331	0.203540	0.236827
O236	O	1.292331	0.703540	0.736827
C237	C	0.832771	0.250194	0.176605
C238	C	1.332771	0.750194	0.676605
H239	H	0.892047	0.219976	0.161011
H240	H	1.392047	0.719976	0.661011
H241	H	0.801153	0.262202	0.103402
H242	H	1.301153	0.762202	0.603402
H243	H	0.837812	0.306128	0.216704
H244	H	1.337812	0.806128	0.716704
O245	O	0.995529	0.000242	0.763160
O246	O	1.495529	0.500242	1.263160
C247	C	0.983358	-0.074669	0.737763
C248	C	1.483358	0.425331	1.237763
H249	H	0.954177	-0.074542	0.662185
H250	H	1.454177	0.425458	1.162185
H251	H	1.040318	-0.112007	0.734199
H252	H	1.540318	0.387993	1.234199
H253	H	0.945739	-0.098034	0.796367
H254	H	1.445739	0.401966	1.296367
O255	O	0.792160	0.203437	0.763217
O256	O	1.292160	0.703437	1.263217
C257	C	0.717265	0.191222	0.737782
C258	C	1.217265	0.691222	1.237782
H259	H	0.717017	0.130626	0.709173
H260	H	1.217017	0.630626	1.209173
H261	H	0.679277	0.199959	0.806252
H262	H	1.179277	0.699959	1.306252
H263	H	0.694940	0.233202	0.677356
H264	H	1.194940	0.733202	1.177356
O265	O	0.652198	0.242382	0.000091
O266	O	1.152198	0.742382	0.500091
C267	C	0.592356	0.302422	0.000060
C268	C	1.092356	0.802422	0.500060
H269	H	0.538767	0.281301	0.031379
H270	H	1.038767	0.781301	0.531379
H271	H	0.608767	0.351020	0.048065
H272	H	1.108767	0.851020	0.548065
H273	H	0.581143	0.323497	-0.079286
H274	H	1.081143	0.823497	0.420714
O275	O	0.995357	0.000161	0.558056
O276	O	1.495357	0.500161	1.058056
C277	C	0.954760	-0.046477	0.498045
C278	C	1.454760	0.453523	0.998045
H279	H	0.895558	-0.016117	0.482344
H280	H	1.395558	0.483883	0.982344
H281	H	0.986355	-0.058735	0.424881
H282	H	1.486355	0.441265	0.924881
H283	H	0.949539	-0.102289	0.538380
H284	H	1.449539	0.397711	1.038380
