data_functionalizedCrystal
_audit_creation_method	'MofGen! by Chris Wilmer'
_symmetry_space_group_name_H-M	'P1'
_symmetry_Int_Tables_number	1
_symmetry_cell_setting	triclinic
loop_
_symmetry_equiv_pos_as_xyz
  x,y,z
_cell_length_a	18.050583
_cell_length_b	12.759401
_cell_length_c	12.759399
_cell_angle_alpha	89.984317
_cell_angle_beta	89.971112
_cell_angle_gamma	90.015033
loop_
_atom_site_label
_atom_site_type_symbol
_atom_site_fract_x
_atom_site_fract_y
_atom_site_fract_z
Zn1	Zn	-0.419868	-1.606213	-0.418226
Zn2	Zn	-0.295685	-1.606116	-0.593937
Zn3	Zn	-0.295699	-1.430526	-0.418273
Zn4	Zn	-0.419841	-1.430502	-0.593864
O5	O	-0.357773	-1.518339	-0.506075
O6	O	-0.403400	-1.753222	-0.441545
O7	O	-0.191762	-1.582793	-0.570685
O8	O	-0.312187	-1.453882	-0.271246
O9	O	-0.312164	-1.753150	-0.570640
O10	O	-0.403413	-1.582959	-0.271211
O11	O	-0.191772	-1.453788	-0.441626
O12	O	-0.312161	-1.283502	-0.441555
O13	O	-0.523769	-1.453841	-0.570515
O14	O	-0.403367	-1.283484	-0.570561
O15	O	-0.523789	-1.582935	-0.441474
O16	O	-0.312138	-1.582769	-0.740949
O17	O	-0.403354	-1.453746	-0.740895
C18	C	-0.357758	-1.518273	-0.779043
C19	C	-0.357776	-1.518341	-0.895819
C20	C	-0.357763	-1.245372	-0.506056
C21	C	-0.357776	-1.128595	-0.506073
C22	C	-0.551479	-1.518396	-0.505981
C23	C	-0.634025	-1.518421	-0.505941
C24	C	-0.882861	-1.588688	-0.435698
C25	C	-0.833450	-1.614346	-0.531562
C26	C	-0.931145	-1.518488	-0.505874
C27	C	-0.833474	-1.492846	-0.410049
C28	C	-0.785160	-1.518458	-0.505902
C29	C	-0.882822	-1.544196	-0.601789
C30	C	-0.882850	-1.422652	-0.480211
C31	C	-0.833461	-1.448274	-0.576141
C32	C	-1.015243	-1.518509	-0.505857
C33	C	-0.701063	-1.518437	-0.505930
C34	C	-0.164821	-1.518343	-0.506093
C35	C	-0.082276	-1.518522	-0.505837
C36	C	-0.357784	-1.792372	-0.506095
C37	C	-0.357788	-1.909149	-0.506104
C38	C	-0.405189	-1.073751	-0.573354
C39	C	-0.405197	-0.964027	-0.573367
C40	C	-0.310373	-0.964001	-0.438816
C41	C	-0.310369	-1.073723	-0.438798
C42	C	-0.459933	-1.073766	-0.651039
C43	C	-0.459941	-0.964042	-0.651052
C44	C	-0.405344	-1.585587	-1.060296
C45	C	-0.405322	-1.585523	-0.950572
C46	C	-0.310245	-1.451226	-0.950796
C47	C	-0.310264	-1.451296	-1.060518
C48	C	-0.460238	-1.663119	-1.060166
C49	C	-0.460216	-1.663055	-0.950442
C50	C	-0.357804	-1.518434	-0.232042
C51	C	-0.357818	-1.518475	-0.115265
H52	H	-0.904550	-1.648112	-0.376414
O53	O	-0.807490	-1.467036	-0.313412
C54	C	-0.729388	-1.466422	-0.315014
H55	H	-0.708806	-1.517957	-0.381933
H56	H	-0.708758	-1.382813	-0.326980
C57	C	-0.725025	-1.445781	-0.128013
C58	C	-0.699745	-1.509085	-0.210199
H59	H	-0.706739	-1.472093	-0.063357
H60	H	-0.777643	-1.446191	-0.126933
H61	H	-0.707831	-1.376112	-0.137999
H62	H	-0.716947	-1.578749	-0.200219
H63	H	-0.647129	-1.508687	-0.211275
O64	O	-0.264251	-1.126836	-0.373397
C65	C	-0.222426	-1.054873	-0.314006
H66	H	-0.219797	-0.976655	-0.357050
H67	H	-0.249730	-1.043220	-0.234271
C68	C	-0.146634	-1.193733	-0.245829
C69	C	-0.143400	-1.097667	-0.298700
H70	H	-0.097889	-1.220131	-0.236382
H71	H	-0.174814	-1.242217	-0.285838
H72	H	-0.169391	-1.184009	-0.179388
H73	H	-0.120652	-1.107394	-0.365144
H74	H	-0.115215	-1.049185	-0.258702
O75	O	-0.435576	-1.755181	-0.909730
C76	C	-0.372351	-1.736479	-0.847639
H77	H	-0.344992	-1.660154	-0.873377
H78	H	-0.389397	-1.730230	-0.761823
C79	C	-0.350823	-1.921339	-0.829358
C80	C	-0.317216	-1.827599	-0.860976
H81	H	-0.316814	-1.977548	-0.837580
H82	H	-0.393420	-1.933940	-0.871187
H83	H	-0.365026	-1.916117	-0.757846
H84	H	-0.303022	-1.832817	-0.932489
H85	H	-0.274615	-1.815001	-0.819159
H86	H	-0.811749	-1.695379	-0.553285
O87	O	-0.908473	-1.570325	-0.698518
C88	C	-0.882700	-1.671059	-0.725565
H89	H	-0.830566	-1.689601	-0.678711
H90	H	-0.927297	-1.731566	-0.706976
C91	C	-0.928761	-1.651538	-0.901062
C92	C	-0.864725	-1.674309	-0.843521
H93	H	-0.917676	-1.653546	-0.973823
H94	H	-0.946127	-1.583673	-0.882840
H95	H	-0.965919	-1.701964	-0.885559
H96	H	-0.827573	-1.623876	-0.859014
H97	H	-0.847353	-1.742165	-0.861749
H98	H	-0.517715	-1.641191	-0.920622
H99	H	-0.904566	-1.341642	-0.458457
H100	H	-0.811908	-1.388895	-0.635568
H101	H	-0.271777	-0.919310	-0.384042
H102	H	-0.517477	-1.103569	-0.629343
H103	H	-0.439233	-1.107781	-0.728290
O104	O	-0.264127	-1.386001	-0.897450
C105	C	-0.274284	-1.400351	-0.788818
H106	H	-0.331615	-1.434700	-0.773738
H107	H	-0.230262	-1.456319	-0.757681
C108	C	-0.196985	-1.251832	-0.751108
C109	C	-0.267403	-1.294012	-0.732586
H110	H	-0.192737	-1.186240	-0.716420
H111	H	-0.190139	-1.242167	-0.824295
H112	H	-0.160308	-1.298483	-0.725161
H113	H	-0.304078	-1.247368	-0.758545
H114	H	-0.274255	-1.303668	-0.659402
H115	H	-0.514618	-0.930040	-0.622012
O116	O	-0.442014	-1.760307	-1.095500
C117	C	-0.494206	-1.833758	-1.058473
H118	H	-0.522243	-1.801753	-0.985084
H119	H	-0.537697	-1.848507	-1.121531
C120	C	-0.420160	-1.976609	-1.122119
C121	C	-0.454591	-1.937305	-1.031976
H122	H	-0.395725	-2.040484	-1.105778
H123	H	-0.384998	-1.927125	-1.147068
H124	H	-0.456408	-1.988892	-1.174659
H125	H	-0.418341	-1.925011	-0.979442
H126	H	-0.489746	-1.986790	-1.007017
H127	H	-0.444438	-0.934246	-0.732401
H128	H	-0.271557	-1.396657	-1.105269
H129	H	-0.514858	-1.633934	-1.094168
