data_functionalizedCrystal
_audit_creation_method	'MofGen! by Chris Wilmer'
_symmetry_space_group_name_H-M	'P1'
_symmetry_Int_Tables_number	1
_symmetry_cell_setting	triclinic
loop_
_symmetry_equiv_pos_as_xyz
  x,y,z
_cell_length_a	16.625548
_cell_length_b	18.101395
_cell_length_c	16.625539
_cell_angle_alpha	89.972352
_cell_angle_beta	89.979432
_cell_angle_gamma	90.032172
loop_
_atom_site_label
_atom_site_type_symbol
_atom_site_fract_x
_atom_site_fract_y
_atom_site_fract_z
Zn1	Zn	1.232632	-0.294807	-0.455913
Zn2	Zn	1.565965	0.038526	-0.122580
Zn3	Zn	1.899299	0.371859	0.210754
Zn4	Zn	1.232515	-0.418656	-0.321082
Zn5	Zn	1.565848	-0.085323	0.012252
Zn6	Zn	1.899182	0.248010	0.345585
Zn7	Zn	1.097794	-0.294835	-0.321094
Zn8	Zn	1.431127	0.038498	0.012240
Zn9	Zn	1.764461	0.371831	0.345573
Zn10	Zn	1.097744	-0.418614	-0.455872
Zn11	Zn	1.431077	-0.085280	-0.122538
Zn12	Zn	1.764411	0.248053	0.210795
O13	O	1.165171	-0.356728	-0.388490
O14	O	1.498505	-0.023395	-0.055157
O15	O	1.831838	0.309939	0.278177
O16	O	1.345449	-0.311242	-0.438040
O17	O	1.678782	0.022091	-0.104706
O18	O	2.012116	0.355425	0.228627
O19	O	1.214616	-0.402261	-0.208251
O20	O	1.547949	-0.068927	0.125082
O21	O	1.881282	0.264406	0.458416
O22	O	1.115750	-0.191199	-0.339000
O23	O	1.449084	0.142135	-0.005667
O24	O	1.782417	0.475468	0.327667
O25	O	1.345363	-0.402233	-0.338980
O26	O	1.678696	-0.068900	-0.005646
O27	O	2.012030	0.264433	0.327687
O28	O	1.214815	-0.191178	-0.438051
O29	O	1.548149	0.142155	-0.104718
O30	O	1.881482	0.475489	0.228616
O31	O	1.115637	-0.311290	-0.208260
O32	O	1.448970	0.022043	0.125074
O33	O	1.782303	0.355377	0.458407
O34	O	0.984955	-0.311249	-0.338960
O35	O	1.318288	0.022084	-0.005626
O36	O	1.651622	0.355418	0.327707
O37	O	1.115665	-0.402161	-0.568710
O38	O	1.448999	-0.068828	-0.235376
O39	O	1.782332	0.264506	0.097957
O40	O	0.984918	-0.402188	-0.437981
O41	O	1.318252	-0.068855	-0.104647
O42	O	1.651585	0.264478	0.228686
O43	O	1.214767	-0.311201	-0.568740
O44	O	1.548100	0.022133	-0.235407
O45	O	1.881434	0.355466	0.097927
O46	O	1.214567	-0.522284	-0.338940
O47	O	1.547901	-0.188950	-0.005606
O48	O	1.881234	0.144383	0.327727
O49	O	1.115552	-0.522252	-0.437969
O50	O	1.448885	-0.188919	-0.104636
O51	O	1.782218	0.144414	0.228697
C52	C	0.955680	-0.356718	-0.388467
C53	C	1.289014	-0.023384	-0.055134
C54	C	1.622347	0.309949	0.278199
C55	C	0.866059	-0.356731	-0.388477
C56	C	1.199393	-0.023398	-0.055144
C57	C	1.532726	0.309936	0.278190
C58	C	0.537884	-0.356736	-0.388511
C59	C	0.871217	-0.023402	-0.055178
C60	C	1.204550	0.309931	0.278155
C61	C	0.629192	-0.356732	-0.388499
C62	C	0.962525	-0.023399	-0.055166
C63	C	1.295859	0.309934	0.278167
C64	C	0.701969	-0.356734	-0.388494
C65	C	1.035302	-0.023400	-0.055160
C66	C	1.368635	0.309933	0.278173
C67	C	0.793283	-0.356729	-0.388483
C68	C	1.126616	-0.023396	-0.055149
C69	C	1.459949	0.309937	0.278184
C70	C	1.165063	-0.549139	-0.388466
C71	C	1.498397	-0.215805	-0.055133
C72	C	1.831730	0.117528	0.278200
C73	C	1.165091	-0.631453	-0.388483
C74	C	1.498424	-0.298119	-0.055150
C75	C	1.831758	0.035214	0.278184
C76	C	1.165268	-0.930544	-0.388527
C77	C	1.498601	-0.597210	-0.055193
C78	C	1.831935	-0.263877	0.278140
C79	C	1.103114	-0.899230	-0.450988
C80	C	1.436448	-0.565896	-0.117655
C81	C	1.769781	-0.232563	0.215679
C82	C	1.102819	-0.813612	-0.450793
C83	C	1.436152	-0.480278	-0.117459
C84	C	1.769486	-0.146945	0.215874
C85	C	1.165180	-0.782161	-0.388506
C86	C	1.498513	-0.448828	-0.055172
C87	C	1.831847	-0.115495	0.278161
C88	C	1.142173	-0.813313	-0.303528
C89	C	1.475506	-0.479980	0.029806
C90	C	1.808840	-0.146647	0.363139
C91	C	1.141772	-0.898959	-0.303901
C92	C	1.475106	-0.565625	0.029432
C93	C	1.808439	-0.232292	0.362765
C94	C	1.250565	-0.898886	-0.410295
C95	C	1.583898	-0.565552	-0.076962
C96	C	1.917231	-0.232219	0.256372
C97	C	1.250063	-0.813235	-0.412159
C98	C	1.583396	-0.479901	-0.078825
C99	C	1.916730	-0.146568	0.254508
C100	C	1.165132	-0.698302	-0.388489
C101	C	1.498465	-0.364968	-0.055155
C102	C	1.831799	-0.031635	0.278178
C103	C	1.165314	-1.014403	-0.388538
C104	C	1.498647	-0.681070	-0.055205
C105	C	1.831981	-0.347736	0.278129
C106	C	1.375480	-0.356739	-0.388513
C107	C	1.708813	-0.023406	-0.055180
C108	C	2.042147	0.309927	0.278154
C109	C	1.465101	-0.356744	-0.388523
C110	C	1.798435	-0.023411	-0.055190
C111	C	2.131768	0.309923	0.278144
C112	C	1.165224	-0.356673	-0.598799
C113	C	1.498557	-0.023340	-0.265466
C114	C	1.831890	0.309994	0.067868
C115	C	1.165246	-0.356649	-0.688420
C116	C	1.498579	-0.023316	-0.355087
C117	C	1.831913	0.310017	-0.021753
C118	C	1.165302	-0.163566	-0.388531
C119	C	1.498635	0.169767	-0.055198
C120	C	1.831968	0.503100	0.278135
C121	C	1.165357	-0.081252	-0.388549
C122	C	1.498690	0.252081	-0.055216
C123	C	1.832024	0.585415	0.278118
C124	C	1.165283	-0.356567	-1.016596
C125	C	1.498617	-0.023233	-0.683263
C126	C	1.831950	0.310100	-0.349929
C127	C	1.165271	-0.356592	-0.925287
C128	C	1.498604	-0.023259	-0.591954
C129	C	1.831937	0.310075	-0.258621
C130	C	1.165265	-0.356609	-0.852511
C131	C	1.498598	-0.023275	-0.519178
C132	C	1.831932	0.310058	-0.185844
C133	C	1.165252	-0.356633	-0.761197
C134	C	1.498585	-0.023300	-0.427863
C135	C	1.831918	0.310034	-0.094530
C136	C	1.165165	-0.356730	-0.178999
C137	C	1.498499	-0.023396	0.154334
C138	C	1.831832	0.309937	0.487667
C139	C	1.165299	-0.356545	-0.089378
C140	C	1.498633	-0.023211	0.243955
C141	C	1.831966	0.310122	0.577288
H142	H	1.117214	-0.792547	-0.513803
H143	H	1.450547	-0.459214	-0.180469
H144	H	1.783880	-0.125880	0.152864
N145	N	1.278372	-0.927435	-0.490965
N146	N	1.611705	-0.594102	-0.157632
N147	N	1.945038	-0.260769	0.175701
H148	H	1.287556	-0.884495	-0.528686
H149	H	1.620889	-0.551162	-0.195353
H150	H	1.954222	-0.217828	0.137981
H151	H	1.330216	-0.955765	-0.483954
H152	H	1.663549	-0.622432	-0.150621
H153	H	1.996883	-0.289098	0.182713
N154	N	1.273054	-0.786263	-0.494997
N155	N	1.606387	-0.452930	-0.161664
N156	N	1.939720	-0.119597	0.171670
H157	H	1.228677	-0.754049	-0.517117
H158	H	1.562010	-0.420715	-0.183784
H159	H	1.895344	-0.087382	0.149549
H160	H	1.324484	-0.756717	-0.491534
H161	H	1.657817	-0.423384	-0.158201
H162	H	1.991150	-0.090050	0.175132
H163	H	1.186018	-0.792943	-0.255720
H164	H	1.519352	-0.459609	0.077613
H165	H	1.852685	-0.126276	0.410946
N166	N	1.060458	-0.784992	-0.278655
N167	N	1.393792	-0.451658	0.054678
N168	N	1.727125	-0.118325	0.388012
H169	H	1.038226	-0.751990	-0.322303
H170	H	1.371559	-0.418657	0.011031
H171	H	1.704893	-0.085324	0.344364
H172	H	1.022893	-0.828125	-0.269922
H173	H	1.356226	-0.494791	0.063411
H174	H	1.689559	-0.161458	0.396744
N175	N	1.314655	-0.784870	-0.356298
N176	N	1.647989	-0.451537	-0.022965
N177	N	1.981322	-0.118204	0.310369
H178	H	1.289697	-0.751328	-0.314678
H179	H	1.623031	-0.417995	0.018655
H180	H	1.956364	-0.084662	0.351988
H181	H	1.341517	-0.827951	-0.328587
H182	H	1.674850	-0.494618	0.004747
H183	H	2.008184	-0.161284	0.338080
H184	H	1.039595	-0.793190	-0.436373
H185	H	1.372928	-0.459856	-0.103040
H186	H	1.706262	-0.126523	0.230294
H187	H	1.296871	-0.919135	-0.364802
H188	H	1.630205	-0.585802	-0.031469
H189	H	1.963538	-0.252468	0.301865
H190	H	1.079421	-0.919003	-0.285461
H191	H	1.412754	-0.585669	0.047872
H192	H	1.746087	-0.252336	0.381205
H193	H	1.117366	-0.919777	-0.514202
H194	H	1.450700	-0.586443	-0.180869
H195	H	1.784033	-0.253110	0.152464
N196	N	1.199119	-0.926420	-0.240151
N197	N	1.532452	-0.593087	0.093182
N198	N	1.865786	-0.259754	0.426515
H199	H	1.255110	-0.907712	-0.252094
H200	H	1.588443	-0.574379	0.081239
H201	H	1.921777	-0.241046	0.414573
H202	H	1.181298	-0.907724	-0.185768
H203	H	1.514631	-0.574391	0.147565
H204	H	1.847964	-0.241057	0.480898
N205	N	1.019873	-0.927819	-0.432135
N206	N	1.353206	-0.594485	-0.098802
N207	N	1.686540	-0.261152	0.234532
H208	H	1.022249	-0.960966	-0.383310
H209	H	1.355582	-0.627633	-0.049977
H210	H	1.688916	-0.294300	0.283357
H211	H	0.982857	-0.884813	-0.420935
H212	H	1.316190	-0.551480	-0.087602
H213	H	1.649523	-0.218146	0.245731
