data_functionalizedCrystal
_audit_creation_method	'MofGen! by Chris Wilmer'
_symmetry_space_group_name_H-M	'P1'
_symmetry_Int_Tables_number	1
_symmetry_cell_setting	triclinic
loop_
_symmetry_equiv_pos_as_xyz
  x,y,z
_cell_length_a	17.699083
_cell_length_b	15.944551
_cell_length_c	16.776229
_cell_angle_alpha	89.992397
_cell_angle_beta	89.998886
_cell_angle_gamma	83.390877
loop_
_atom_site_label
_atom_site_type_symbol
_atom_site_fract_x
_atom_site_fract_y
_atom_site_fract_z
O1	O	1.004260	0.106222	-0.066178
O2	O	0.783905	0.120042	-0.066204
O3	O	0.900100	-0.009156	-0.066183
O4	O	0.888065	0.235419	-0.066199
O5	O	0.900084	-0.009164	0.066393
O6	O	0.783890	0.120034	0.066372
O7	O	1.004244	0.106214	0.066398
Zn8	Zn	0.894065	0.113123	0.087435
Zn9	Zn	0.894085	0.113133	-0.087241
O10	O	0.888050	0.235411	0.066377
C11	C	0.755700	0.119542	0.000080
C12	C	0.671679	0.118057	0.000071
C13	C	0.899593	-0.040453	0.000105
C14	C	0.898095	-0.133696	0.000105
C15	C	0.623187	0.193893	0.000066
C16	C	0.544242	0.192492	0.000076
C17	C	0.513789	0.115254	0.000086
C18	C	0.562287	0.039412	0.000093
C19	C	0.641231	0.040814	0.000088
C20	C	0.243914	0.033758	0.000113
C21	C	0.164964	0.032362	0.000115
C22	C	0.146925	0.185436	0.000101
C23	C	0.225869	0.186837	0.000096
C24	C	0.274360	0.110996	0.000108
C25	C	0.359962	0.112516	0.000098
C26	C	0.428189	0.113733	0.000090
C27	C	0.822492	-0.348393	0.000085
C28	C	0.857592	-0.409488	0.065458
C29	C	0.895385	-0.304416	0.000099
C30	C	0.857624	-0.409464	-0.065252
C31	C	0.892762	-0.469323	0.000089
C32	C	0.930505	-0.364283	0.065525
C33	C	0.930527	-0.364252	-0.065244
C34	C	0.965680	-0.425329	0.000145
C35	C	0.896894	-0.209417	0.000105
C36	C	0.891259	-0.564321	0.000089
C37	C	1.032450	0.106713	0.000112
C38	C	1.116471	0.108199	0.000116
C39	C	0.888557	0.266708	0.000087
C40	C	0.890055	0.359951	0.000082
N41	N	0.894056	0.113115	0.206646
N42	N	0.894099	0.113134	-0.206452
C43	C	0.945523	0.055930	0.248372
C44	C	0.945527	0.055929	0.331824
C45	C	0.894068	0.113118	0.373549
C46	C	0.842595	0.170306	0.331816
C47	C	0.842588	0.170302	0.248366
C48	C	0.842623	0.170323	0.668364
C49	C	0.842636	0.170324	0.751820
C50	C	0.945562	0.055949	0.751822
C51	C	0.945555	0.055945	0.668372
C52	C	0.894080	0.113130	0.626647
C53	C	0.894075	0.113129	0.536158
C54	C	0.894076	0.113124	0.464036
H55	H	0.504763	0.254246	0.000072
H56	H	0.250659	0.249732	0.000085
C57	C	0.961796	-0.058526	0.574711
C58	C	1.002050	-0.007066	0.622586
H59	H	0.996655	-0.097468	0.546466
H60	H	0.930228	-0.088540	0.607331
H61	H	0.931215	-0.024466	0.537857
H62	H	1.032627	-0.041125	0.659445
H63	H	1.033632	0.022951	0.589963
H64	H	0.826790	-0.429473	-0.120524
H65	H	0.800712	0.216886	0.634398
H66	H	1.026238	-0.458615	0.000189
H67	H	0.800692	0.216868	0.365793
C68	C	0.740998	-0.397334	0.139929
C69	C	0.815965	-0.436559	0.140055
H70	H	0.715297	-0.414049	0.185978
H71	H	0.741247	-0.337797	0.140223
H72	H	0.715606	-0.413568	0.093504
H73	H	0.841360	-0.420321	0.186477
H74	H	0.815721	-0.496109	0.139768
H75	H	0.961304	-0.344360	0.120853
H76	H	0.800678	0.216867	0.214393
H77	H	0.961338	-0.344183	-0.120506
H78	H	0.647975	0.256789	0.000058
C79	C	1.047260	-0.057133	0.256765
C80	C	1.002089	-0.006937	0.202513
H81	H	1.082177	-0.095950	0.228453
H82	H	1.074486	-0.022205	0.289302
H83	H	1.015749	-0.087298	0.289325
H84	H	1.033599	0.023233	0.169956
H85	H	0.974861	-0.041870	0.169963
C86	C	0.017897	0.251270	0.000112
C87	C	0.093621	0.268805	0.000100
H88	H	-0.015007	0.302738	0.000114
H89	H	0.008665	0.219600	-0.046112
H90	H	0.008676	0.219592	0.046353
H91	H	0.102843	0.300478	-0.046144
H92	H	0.102856	0.300489	0.046329
H93	H	0.987435	0.009364	0.365798
H94	H	0.987473	0.009384	0.785804
C95	C	0.190721	-0.118818	0.000148
C96	C	0.131489	-0.052545	0.000134
H97	H	0.170053	-0.171231	0.000164
H98	H	0.221136	-0.115095	-0.046083
H99	H	0.221138	-0.115081	0.046382
H100	H	0.101075	-0.056278	-0.046104
H101	H	0.101061	-0.056270	0.046369
H102	H	0.800728	0.216896	0.785791
C103	C	0.729284	-0.253219	-0.068336
C104	C	0.740813	-0.303256	0.000154
H105	H	0.678859	-0.225359	-0.068293
H106	H	0.764402	-0.212441	-0.068835
H107	H	0.736761	-0.287926	-0.114330
H108	H	0.733342	-0.268548	0.046149
H109	H	0.705685	-0.344039	0.000660
C110	C	0.343148	-0.053472	-0.068039
C111	C	0.297207	-0.049607	0.000114
H112	H	0.376053	-0.104940	-0.068036
H113	H	0.311974	-0.050831	-0.114261
H114	H	0.372584	-0.007273	-0.068033
H115	H	0.267767	-0.095804	0.000105
H116	H	0.328385	-0.052256	0.046348
H117	H	0.537486	-0.023476	0.000112
H118	H	0.680713	-0.020940	0.000091
