data_functionalizedCrystal
_audit_creation_method	'MofGen! by Chris Wilmer'
_symmetry_space_group_name_H-M	'P1'
_symmetry_Int_Tables_number	1
_symmetry_cell_setting	triclinic
loop_
_symmetry_equiv_pos_as_xyz
  x,y,z
_cell_length_a	17.077404
_cell_length_b	25.639240
_cell_length_c	25.639233
_cell_angle_alpha	89.974071
_cell_angle_beta	89.986422
_cell_angle_gamma	90.028143
loop_
_atom_site_label
_atom_site_type_symbol
_atom_site_fract_x
_atom_site_fract_y
_atom_site_fract_z
Zn1	Zn	1.199953	-0.208279	-0.295596
Zn2	Zn	1.533286	0.125055	0.037737
Zn3	Zn	1.866619	0.458388	0.371070
Zn4	Zn	1.199851	-0.295698	-0.208150
Zn5	Zn	1.533185	0.037636	0.125184
Zn6	Zn	1.866518	0.370969	0.458517
Zn7	Zn	1.068699	-0.208271	-0.208174
Zn8	Zn	1.402032	0.125062	0.125160
Zn9	Zn	1.735365	0.458396	0.458493
Zn10	Zn	1.068630	-0.295678	-0.295553
Zn11	Zn	1.401963	0.037655	0.037781
Zn12	Zn	1.735297	0.370989	0.371114
O13	O	1.134283	-0.251981	-0.251868
O14	O	1.467616	0.081352	0.081465
O15	O	1.800950	0.414685	0.414799
O16	O	1.309786	-0.219887	-0.284005
O17	O	1.643119	0.113447	0.049329
O18	O	1.976453	0.446780	0.382662
O19	O	1.182440	-0.284105	-0.134988
O20	O	1.515773	0.049228	0.198346
O21	O	1.849107	0.382562	0.531679
O22	O	1.086181	-0.135107	-0.219799
O23	O	1.419514	0.198227	0.113535
O24	O	1.752848	0.531560	0.446868
O25	O	1.309712	-0.284113	-0.219758
O26	O	1.643045	0.049221	0.113575
O27	O	1.976378	0.382554	0.446909
O28	O	1.182613	-0.135113	-0.284028
O29	O	1.515946	0.198221	0.049306
O30	O	1.849279	0.531554	0.382639
O31	O	1.086083	-0.219873	-0.135005
O32	O	1.419416	0.113460	0.198328
O33	O	1.752749	0.446793	0.531662
O34	O	0.958843	-0.219854	-0.219756
O35	O	1.292176	0.113479	0.113577
O36	O	1.625509	0.446812	0.446910
O37	O	1.086064	-0.284079	-0.368724
O38	O	1.419397	0.049254	-0.035390
O39	O	1.752730	0.382587	0.297943
O40	O	0.958792	-0.284072	-0.283953
O41	O	1.292125	0.049262	0.049380
O42	O	1.625459	0.382595	0.382713
O43	O	1.182546	-0.219868	-0.368756
O44	O	1.515879	0.113466	-0.035422
O45	O	1.849213	0.446799	0.297911
O46	O	1.182373	-0.368860	-0.219716
O47	O	1.515707	-0.035527	0.113618
O48	O	1.849040	0.297806	0.446951
O49	O	1.085965	-0.368846	-0.283930
O50	O	1.419299	-0.035512	0.049403
O51	O	1.752632	0.297821	0.382736
C52	C	0.930335	-0.251960	-0.251853
C53	C	1.263669	0.081373	0.081480
C54	C	1.597002	0.414706	0.414814
C55	C	0.843085	-0.251964	-0.251859
C56	C	1.176419	0.081369	0.081474
C57	C	1.509752	0.414703	0.414808
C58	C	0.467265	-0.285494	-0.285258
C59	C	0.800599	0.047839	0.048075
C60	C	1.133932	0.381172	0.381409
C61	C	0.549246	-0.285487	-0.285250
C62	C	0.882579	0.047846	0.048083
C63	C	1.215912	0.381179	0.381417
C64	C	0.590237	-0.251995	-0.251876
C65	C	0.923570	0.081338	0.081457
C66	C	1.256903	0.414671	0.414790
C67	C	0.549243	-0.218511	-0.218505
C68	C	0.882576	0.114822	0.114828
C69	C	1.215909	0.448155	0.448162
C70	C	0.467264	-0.218521	-0.218511
C71	C	0.800597	0.114812	0.114823
C72	C	1.133930	0.448145	0.448156
C73	C	0.720113	-0.218492	-0.218496
C74	C	1.053446	0.114841	0.114837
C75	C	1.386779	0.448174	0.448170
C76	C	0.802097	-0.218482	-0.218491
C77	C	1.135431	0.114852	0.114842
C78	C	1.468764	0.448185	0.448176
C79	C	0.802095	-0.285458	-0.285236
C80	C	1.135428	0.047875	0.048098
C81	C	1.468761	0.381208	0.381431
C82	C	0.720116	-0.285468	-0.285241
C83	C	1.053449	0.047865	0.048092
C84	C	1.386782	0.381198	0.381425
C85	C	0.679128	-0.251984	-0.251870
C86	C	1.012461	0.081350	0.081463
C87	C	1.345794	0.414683	0.414796
C88	C	1.134172	-0.387824	-0.251827
C89	C	1.467506	-0.054491	0.081506
C90	C	1.800839	0.278843	0.414840
C91	C	1.134197	-0.445938	-0.251827
C92	C	1.467530	-0.112605	0.081506
C93	C	1.800863	0.220729	0.414840
C94	C	1.184520	-0.806265	-0.285373
C95	C	1.517853	-0.472932	0.047961
C96	C	1.851187	-0.139599	0.381294
C97	C	1.184543	-0.860870	-0.285383
C98	C	1.517877	-0.527536	0.047950
C99	C	1.851210	-0.194203	0.381284
O100	O	1.227198	-0.889076	-0.313863
O101	O	1.560531	-0.555743	0.019471
O102	O	1.893865	-0.222410	0.352804
N103	N	1.134392	-0.888220	-0.251919
N104	N	1.467725	-0.554887	0.081415
N105	N	1.801059	-0.221554	0.414748
C106	C	1.084209	-0.860964	-0.218445
C107	C	1.417542	-0.527630	0.114888
C108	C	1.750875	-0.194297	0.448222
O109	O	1.041553	-0.889242	-0.189982
O110	O	1.374886	-0.555908	0.143351
O111	O	1.708220	-0.222575	0.476685
C112	C	1.084182	-0.806360	-0.218437
C113	C	1.417516	-0.473027	0.114896
C114	C	1.750849	-0.139694	0.448229
C115	C	1.134342	-0.779013	-0.251900
C116	C	1.467676	-0.445679	0.081433
C117	C	1.801009	-0.112346	0.414766
C118	C	1.234675	-0.778918	-0.318833
C119	C	1.568009	-0.445584	0.014500
C120	C	1.901342	-0.112251	0.347833
C121	C	1.234653	-0.724317	-0.318822
C122	C	1.567986	-0.390984	0.014512
C123	C	1.901320	-0.057651	0.347845
C124	C	1.184475	-0.697064	-0.285350
C125	C	1.517809	-0.363731	0.047984
C126	C	1.851142	-0.030398	0.381317
C127	C	1.134320	-0.724412	-0.251889
C128	C	1.467653	-0.391079	0.081444
C129	C	1.800987	-0.057746	0.414778
C130	C	1.033996	-0.779105	-0.184967
C131	C	1.367329	-0.445772	0.148367
C132	C	1.700662	-0.112438	0.481700
C133	C	1.033973	-0.724498	-0.184962
C134	C	1.367306	-0.391165	0.148371
C135	C	1.700640	-0.057831	0.481704
C136	C	1.084133	-0.697150	-0.218425
C137	C	1.417466	-0.363817	0.114908
C138	C	1.750800	-0.030483	0.448241
C139	C	1.084120	-0.642559	-0.218405
C140	C	1.417453	-0.309226	0.114928
C141	C	1.750787	0.024108	0.448261
N142	N	1.134271	-0.615208	-0.251870
N143	N	1.467605	-0.281875	0.081463
N144	N	1.800938	0.051458	0.414797
C145	C	1.184449	-0.642461	-0.285342
C146	C	1.517782	-0.309128	0.047991
C147	C	1.851116	0.024206	0.381325
C148	C	1.084267	-0.975634	-0.218464
C149	C	1.417601	-0.642301	0.114869
C150	C	1.750934	-0.308968	0.448203
C151	C	1.084297	-1.030237	-0.218469
C152	C	1.417631	-0.696903	0.114865
C153	C	1.750964	-0.363570	0.448198
C154	C	1.184631	-1.030139	-0.285408
C155	C	1.517964	-0.696806	0.047926
C156	C	1.851298	-0.363472	0.381259
C157	C	1.184604	-0.975536	-0.285400
C158	C	1.517938	-0.642202	0.047933
C159	C	1.851271	-0.308869	0.381267
C160	C	1.134419	-0.948284	-0.251929
C161	C	1.467752	-0.614950	0.081405
C162	C	1.801085	-0.281617	0.414738
C163	C	1.184399	-0.527796	-0.285315
C164	C	1.517732	-0.194463	0.048018
C165	C	1.851065	0.138871	0.381352
C166	C	1.184374	-0.473191	-0.285299
C167	C	1.517708	-0.139857	0.048034
C168	C	1.851041	0.193476	0.381367
C169	C	1.084038	-0.473293	-0.218362
C170	C	1.417371	-0.139960	0.114971
C171	C	1.750705	0.193373	0.448304
C172	C	1.084065	-0.527894	-0.218376
C173	C	1.417399	-0.194560	0.114957
C174	C	1.750732	0.138773	0.448290
C175	C	1.134248	-0.555144	-0.251857
C176	C	1.467581	-0.221811	0.081477
C177	C	1.800915	0.111523	0.414810
O178	O	1.041485	-0.614318	-0.189942
O179	O	1.374818	-0.280984	0.143391
O180	O	1.708151	0.052349	0.476725
O181	O	1.227090	-0.614177	-0.313805
O182	O	1.560424	-0.280843	0.019528
O183	O	1.893757	0.052490	0.352862
C184	C	1.339027	-0.252003	-0.251884
C185	C	1.672361	0.081331	0.081450
C186	C	2.005694	0.414664	0.414783
C187	C	1.426277	-0.252012	-0.251890
C188	C	1.759610	0.081321	0.081443
C189	C	2.092944	0.414655	0.414777
C190	C	1.134308	-0.251972	-0.388241
C191	C	1.467642	0.081361	-0.054908
C192	C	1.800975	0.414695	0.278426
C193	C	1.134319	-0.251968	-0.446355
C194	C	1.467653	0.081365	-0.113022
C195	C	1.800986	0.414698	0.220311
C196	C	1.134416	-0.115608	-0.251921
C197	C	1.467749	0.217725	0.081413
C198	C	1.801083	0.551058	0.414746
C199	C	1.134472	-0.057494	-0.251943
C200	C	1.467806	0.275839	0.081390
C201	C	1.801139	0.609172	0.414724
C202	C	1.184621	-0.218434	-0.806741
C203	C	1.517955	0.114900	-0.473407
C204	C	1.851288	0.448233	-0.140074
C205	C	1.184631	-0.218419	-0.861345
C206	C	1.517964	0.114914	-0.528012
C207	C	1.851298	0.448247	-0.194678
O208	O	1.227336	-0.189969	-0.889601
O209	O	1.560669	0.143365	-0.556267
O210	O	1.894003	0.476698	-0.222934
N211	N	1.134406	-0.251846	-0.888638
N212	N	1.467739	0.081488	-0.555305
N213	N	1.801072	0.414821	-0.221971
C214	C	1.084162	-0.285285	-0.861324
C215	C	1.417495	0.048048	-0.527990
C216	C	1.750829	0.381382	-0.194657
O217	O	1.041442	-0.313715	-0.889552
O218	O	1.374775	0.019618	-0.556219
O219	O	1.708109	0.352952	-0.222886
C220	C	1.084149	-0.285296	-0.806720
C221	C	1.417482	0.048037	-0.473387
C222	C	1.750816	0.381370	-0.140054
C223	C	1.134383	-0.251872	-0.779430
C224	C	1.467716	0.081462	-0.446097
C225	C	1.801050	0.414795	-0.112764
C226	C	1.234851	-0.185011	-0.779451
C227	C	1.568184	0.148322	-0.446117
C228	C	1.901517	0.481655	-0.112784
C229	C	1.234842	-0.185027	-0.724850
C230	C	1.568175	0.148307	-0.391517
C231	C	1.901508	0.481640	-0.058183
C232	C	1.184604	-0.218464	-0.697540
C233	C	1.517937	0.114869	-0.364206
C234	C	1.851270	0.448202	-0.030873
C235	C	1.134374	-0.251887	-0.724830
C236	C	1.467707	0.081447	-0.391496
C237	C	1.801041	0.414780	-0.058163
C238	C	1.033902	-0.318732	-0.779407
C239	C	1.367235	0.014601	-0.446074
C240	C	1.700568	0.347934	-0.112740
C241	C	1.033893	-0.318741	-0.724800
C242	C	1.367226	0.014593	-0.391466
C243	C	1.700559	0.347926	-0.058133
C244	C	1.084127	-0.285316	-0.697510
C245	C	1.417460	0.048017	-0.364176
C246	C	1.750793	0.381351	-0.030843
C247	C	1.084127	-0.285340	-0.642919
C248	C	1.417460	0.047994	-0.309585
C249	C	1.750794	0.381327	0.023748
N250	N	1.134352	-0.251914	-0.615626
N251	N	1.467686	0.081420	-0.282292
N252	N	1.801019	0.414753	0.051041
C253	C	1.184590	-0.218476	-0.642936
C254	C	1.517924	0.114858	-0.309603
C255	C	1.851257	0.448191	0.023730
C256	C	1.084192	-0.285258	-0.975994
C257	C	1.417526	0.048076	-0.642661
C258	C	1.750859	0.381409	-0.309328
C259	C	1.084209	-0.285249	-1.030597
C260	C	1.417542	0.048084	-0.697263
C261	C	1.750875	0.381417	-0.363930
C262	C	1.184677	-0.218383	-1.030614
C263	C	1.518010	0.114950	-0.697281
C264	C	1.851344	0.448284	-0.363948
C265	C	1.184664	-0.218394	-0.976011
C266	C	1.517997	0.114939	-0.642678
C267	C	1.851330	0.448272	-0.309344
C268	C	1.134417	-0.251831	-0.948701
C269	C	1.467751	0.081502	-0.615368
C270	C	1.801084	0.414835	-0.282035
C271	C	1.184569	-0.218511	-0.528271
C272	C	1.517902	0.114823	-0.194938
C273	C	1.851235	0.448156	0.138396
C274	C	1.184558	-0.218531	-0.473666
C275	C	1.517891	0.114803	-0.140332
C276	C	1.851224	0.448136	0.193001
C277	C	1.084087	-0.285395	-0.473653
C278	C	1.417420	0.047939	-0.140319
C279	C	1.750753	0.381272	0.193014
C280	C	1.084100	-0.285377	-0.528253
C281	C	1.417434	0.047956	-0.194920
C282	C	1.750767	0.381290	0.138413
C283	C	1.134344	-0.251931	-0.555561
C284	C	1.467677	0.081402	-0.222228
C285	C	1.801011	0.414736	0.111105
O286	O	1.041441	-0.313774	-0.614628
O287	O	1.374775	0.019559	-0.281295
O288	O	1.708108	0.352892	0.052039
O289	O	1.227296	-0.190046	-0.614701
O290	O	1.560629	0.143288	-0.281368
O291	O	1.893963	0.476621	0.051966
C292	C	1.134303	-0.251953	-0.116026
C293	C	1.467636	0.081381	0.217308
C294	C	1.800970	0.414714	0.550641
C295	C	1.134444	-0.251809	-0.057912
C296	C	1.467778	0.081524	0.275421
C297	C	1.801111	0.414857	0.608755
H298	H	1.225257	-0.549977	-0.312582
H299	H	1.558590	-0.216643	0.020751
H300	H	1.891924	0.116690	0.354085
H301	H	0.993150	-0.801362	-0.157717
H302	H	1.326484	-0.468029	0.175616
H303	H	1.659817	-0.134695	0.508949
O304	O	1.238742	-1.059540	-0.321518
O305	O	1.572075	-0.726206	0.011815
O306	O	1.905409	-0.392873	0.345148
H307	H	1.278709	-1.084417	-0.298149
H308	H	1.612043	-0.751083	0.035185
H309	H	1.945376	-0.417750	0.368518
O310	O	0.423061	-0.321618	-0.321257
O311	O	0.756394	0.011715	0.012076
O312	O	1.089728	0.345048	0.345409
H313	H	0.359169	-0.315997	-0.315661
H314	H	0.692502	0.017336	0.017672
H315	H	1.025835	0.350669	0.351006
O316	O	0.423043	-0.182418	-0.182514
O317	O	0.756377	0.150915	0.150819
O318	O	1.089710	0.484248	0.484152
H319	H	0.385704	-0.155861	-0.205964
H320	H	0.719037	0.177473	0.127370
H321	H	1.052370	0.510806	0.460703
O322	O	1.029972	-0.557387	-0.182275
O323	O	1.363305	-0.224054	0.151059
O324	O	1.696639	0.109280	0.484392
H325	H	1.065145	-0.582260	-0.155698
H326	H	1.398478	-0.248927	0.177636
H327	H	1.731811	0.084407	0.510969
H328	H	1.225223	-0.450926	-0.312549
H329	H	1.558557	-0.117592	0.020785
H330	H	1.891890	0.215741	0.354118
H331	H	1.043460	-1.052499	-0.191214
H332	H	1.376794	-0.719165	0.142119
H333	H	1.710127	-0.385832	0.475453
O334	O	1.029919	-0.443891	-0.182264
O335	O	1.363253	-0.110557	0.151070
O336	O	1.696586	0.222776	0.484403
H337	H	1.043428	-0.454382	-0.141237
H338	H	1.376761	-0.121049	0.192096
H339	H	1.710094	0.212285	0.525430
H340	H	0.835471	-0.312722	-0.312409
H341	H	1.168805	0.020612	0.020925
H342	H	1.502138	0.353945	0.354258
H343	H	1.043312	-0.312473	-1.052811
H344	H	1.376645	0.020861	-0.719478
H345	H	1.709978	0.354194	-0.386145
O346	O	0.979710	-0.354777	-0.808834
O347	O	1.313043	-0.021444	-0.475500
O348	O	1.646377	0.311890	-0.142167
H349	H	0.944770	-0.378020	-0.780661
H350	H	1.278103	-0.044686	-0.447328
H351	H	1.611437	0.288647	-0.113994
H352	H	0.582624	-0.191244	-0.191329
H353	H	0.915957	0.142090	0.142004
H354	H	1.249291	0.475423	0.475337
O355	O	0.846314	-0.182363	-0.182493
O356	O	1.179648	0.150971	0.150840
O357	O	1.512981	0.484304	0.484173
H358	H	0.804042	-0.159086	-0.159283
H359	H	1.137375	0.174247	0.174050
H360	H	1.470708	0.507581	0.507383
H361	H	1.043402	-0.953449	-0.191203
H362	H	1.376736	-0.620115	0.142130
H363	H	1.710069	-0.286782	0.475463
H364	H	1.225568	-0.191176	-0.953795
H365	H	1.558901	0.142157	-0.620462
H366	H	1.892234	0.475491	-0.287128
O367	O	1.288766	-0.694823	-0.354906
O368	O	1.622099	-0.361490	-0.021573
O369	O	1.955433	-0.028156	0.311761
H370	H	1.323658	-0.722954	-0.378179
H371	H	1.656991	-0.389621	-0.044846
H372	H	1.990324	-0.056288	0.288487
H373	H	1.043187	-0.312620	-0.451407
H374	H	1.376520	0.020713	-0.118073
H375	H	1.709853	0.354046	0.215260
O376	O	0.979687	-0.354799	-0.695343
O377	O	1.313020	-0.021465	-0.362010
O378	O	1.646354	0.311868	-0.028677
H379	H	0.944762	-0.378036	-0.723497
H380	H	1.278095	-0.044702	-0.390164
H381	H	1.611429	0.288631	-0.056830
H382	H	1.043275	-0.312489	-0.953762
H383	H	1.376608	0.020844	-0.620429
H384	H	1.709941	0.354178	-0.287095
H385	H	0.686743	-0.191224	-0.191323
H386	H	1.020076	0.142109	0.142010
H387	H	1.353409	0.475442	0.475344
O388	O	0.979843	-0.695105	-0.148859
O389	O	1.313177	-0.361772	0.184474
O390	O	1.646510	-0.028438	0.517807
H391	H	1.014992	-0.670224	-0.122277
H392	H	1.348325	-0.336891	0.211057
H393	H	1.681659	-0.003558	0.544390
H394	H	1.275536	-0.801101	-0.346093
H395	H	1.608869	-0.467768	-0.012760
H396	H	1.942203	-0.134434	0.320573
H397	H	1.225448	-0.953272	-0.312649
H398	H	1.558782	-0.619939	0.020685
H399	H	1.892115	-0.286606	0.354018
H400	H	1.275761	-0.157779	-0.801681
H401	H	1.609094	0.175554	-0.468348
H402	H	1.942428	0.508887	-0.135014
O403	O	0.675962	-0.321625	-0.321235
O404	O	1.009296	0.011708	0.012098
O405	O	1.342629	0.345041	0.345431
H406	H	0.638630	-0.298307	-0.347913
H407	H	0.971963	0.035026	-0.014580
H408	H	1.305296	0.368360	0.318753
H409	H	1.043203	-0.312599	-0.550474
H410	H	1.376536	0.020734	-0.217141
H411	H	1.709870	0.354068	0.116193
H412	H	1.225479	-0.191274	-0.550499
H413	H	1.558812	0.142059	-0.217165
H414	H	1.892146	0.475393	0.116168
O415	O	0.593450	-0.321598	-0.321246
O416	O	0.926783	0.011735	0.012088
O417	O	1.260117	0.345069	0.345421
H418	H	0.577681	-0.362620	-0.312204
H419	H	0.911015	-0.029287	0.021129
H420	H	1.244348	0.304046	0.354462
O421	O	1.238739	-0.182478	-0.444230
O422	O	1.572073	0.150856	-0.110897
O423	O	1.905406	0.484189	0.222437
H424	H	1.273667	-0.159221	-0.472398
H425	H	1.607001	0.174112	-0.139065
H426	H	1.940334	0.507445	0.194269
H427	H	1.275746	-0.157808	-0.702635
H428	H	1.609080	0.175526	-0.369302
H429	H	1.942413	0.508859	-0.035969
H430	H	1.225582	-0.191155	-1.052860
H431	H	1.558915	0.142179	-0.719527
H432	H	1.892249	0.475512	-0.386194
