data_functionalizedCrystal
_audit_creation_method	'MofGen! by Chris Wilmer'
_symmetry_space_group_name_H-M	'P1'
_symmetry_Int_Tables_number	1
_symmetry_cell_setting	triclinic
loop_
_symmetry_equiv_pos_as_xyz
  x,y,z
_cell_length_a	12.759394
_cell_length_b	19.077105
_cell_length_c	19.076919
_cell_angle_alpha	90.076224
_cell_angle_beta	92.274121
_cell_angle_gamma	87.711291
loop_
_atom_site_label
_atom_site_type_symbol
_atom_site_fract_x
_atom_site_fract_y
_atom_site_fract_z
Zn1	Zn	-0.508276	1.058327	-0.440432
Zn2	Zn	-0.677203	1.062986	-0.322930
Zn3	Zn	-0.494202	0.945543	-0.318225
Zn4	Zn	-0.676569	0.940807	-0.435682
O5	O	-0.589062	1.001916	-0.379317
O6	O	-0.536840	1.157277	-0.428802
O7	O	-0.647302	1.051338	-0.223974
O8	O	-0.349050	0.960536	-0.334454
O9	O	-0.660950	1.160700	-0.342473
O10	O	-0.359391	1.043398	-0.424239
O11	O	-0.512852	0.965054	-0.220517
O12	O	-0.512238	0.846582	-0.329849
O13	O	-0.659870	0.952465	-0.534644
O14	O	-0.646222	0.843103	-0.416144
O15	O	-0.536225	1.038806	-0.538133
O16	O	-0.824137	1.046746	-0.337868
O17	O	-0.823671	0.956982	-0.420707
C18	C	-0.577635	0.819346	-0.371971
C19	C	-0.572772	0.741242	-0.368845
C20	C	-0.640344	0.702757	-0.412235
C21	C	-0.635761	0.629370	-0.409302
C22	C	-0.563612	0.594467	-0.362974
C23	C	-0.496033	0.632957	-0.319582
C24	C	-0.500611	0.706343	-0.322520
C25	C	-0.542424	0.375178	-0.349381
C26	C	-0.537853	0.301786	-0.346444
C27	C	-0.677581	0.298204	-0.436166
C28	C	-0.682157	0.371592	-0.439096
C29	C	-0.614574	0.410075	-0.395707
N30	N	-0.558928	0.519453	-0.359972
N31	N	-0.619253	0.485088	-0.398713
C32	C	-0.862026	1.001874	-0.379298
C33	C	-0.978807	1.001920	-0.379316
C34	C	-0.979246	1.095456	-0.293126
C35	C	-1.034328	1.142242	-0.250040
C36	C	-1.144054	1.142282	-0.250061
C37	C	-1.198699	1.095533	-0.293174
C38	C	-1.143617	1.048747	-0.336260
C39	C	-1.033889	1.048710	-0.336233
C40	C	-1.143178	0.955216	-0.422453
C41	C	-1.033453	0.955171	-0.422429
C42	C	-1.197824	0.908467	-0.465566
C43	C	-1.142741	0.861676	-0.508649
C44	C	-1.033009	0.861637	-0.508626
C45	C	-0.978370	0.908385	-0.465515
C46	C	-0.315035	1.001976	-0.379352
C47	C	-0.198260	1.002002	-0.379367
C48	C	-0.600535	1.185198	-0.386692
C49	C	-0.605424	1.263302	-0.389835
C50	C	-0.599547	0.994587	-0.562597
C51	C	-0.604015	0.991465	-0.640701
C52	C	-0.541742	1.034948	-0.679212
C53	C	-0.545935	1.032006	-0.752598
C54	C	-0.612408	0.985582	-0.787471
C55	C	-0.674683	0.942093	-0.748955
C56	C	-0.670484	0.945033	-0.675570
C57	C	-0.631866	0.971966	-1.006753
C58	C	-0.636063	0.969031	-1.080143
C59	C	-0.507313	1.058943	-1.083780
C60	C	-0.503124	1.061881	-1.010394
C61	C	-0.565395	1.018390	-0.971884
N62	N	-0.616698	0.982574	-0.862484
N63	N	-0.561098	1.021395	-0.896873
C64	C	-0.578545	1.009256	-0.196751
C65	C	-0.573790	1.012515	-0.118654
H66	H	-0.740911	0.400005	-0.476820
H67	H	-0.487401	0.406502	-0.314044
C68	C	-0.429988	1.112944	-0.972038
N69	N	-0.374899	1.151404	-0.943149
C70	C	-0.751909	0.255867	-0.483896
N71	N	-0.807892	0.223979	-0.519851
C72	C	-0.416665	0.594562	-0.268622
N73	N	-0.356885	0.565643	-0.230236
H74	H	-0.487616	1.072754	-0.650823
H75	H	-1.187243	0.823620	-0.543752
C76	C	-0.972428	0.810173	-0.556031
N77	N	-0.926803	0.771410	-0.591738
C78	C	-0.709188	0.917957	-1.118502
N79	N	-0.764264	0.879491	-1.147395
H80	H	-0.495228	1.067416	-0.783950
H81	H	-0.445582	0.737676	-0.287190
C82	C	-1.204646	1.193748	-0.202664
N83	N	-1.250283	1.232512	-0.166964
C84	C	-0.719715	0.741143	-0.463200
N85	N	-0.779497	0.770053	-0.501590
C86	C	-0.858545	1.095409	-0.293093
N87	N	-0.767631	1.095376	-0.293066
C88	C	-0.458478	0.263395	-0.295479
N89	N	-0.398697	0.234479	-0.257092
C90	C	-0.974210	1.193661	-0.202616
N91	N	-0.928931	1.232391	-0.166896
C92	C	-0.700363	0.924122	-0.964401
N93	N	-0.751957	0.888082	-0.932500
C94	C	-0.857670	0.908350	-0.465489
N95	N	-0.766757	0.908328	-0.465471
C96	C	-0.438806	1.106771	-1.126147
N97	N	-0.387197	1.142794	-1.158057
H98	H	-0.721182	0.909617	-0.644215
H99	H	-1.288044	1.095576	-0.293193
H100	H	-1.287168	0.908506	-0.465583
C101	C	-0.747794	0.891020	-0.787319
N102	N	-0.802862	0.852550	-0.816213
H103	H	-0.690786	0.598039	-0.444634
