data_functionalizedCrystal
_audit_creation_method	'MofGen! by Chris Wilmer'
_symmetry_space_group_name_H-M	'P1'
_symmetry_Int_Tables_number	1
_symmetry_cell_setting	triclinic
loop_
_symmetry_equiv_pos_as_xyz
  x,y,z
_cell_length_a	13.262402
_cell_length_b	11.804365
_cell_length_c	27.732046
_cell_angle_alpha	78.275496
_cell_angle_beta	96.422530
_cell_angle_gamma	93.583660
loop_
_atom_site_label
_atom_site_type_symbol
_atom_site_fract_x
_atom_site_fract_y
_atom_site_fract_z
O1	O	1.320675	0.328720	-0.097372
O2	O	1.034948	0.236169	-0.095367
O3	O	1.186681	0.285344	-0.026309
O4	O	1.168942	0.279545	-0.166430
O5	O	1.146736	0.470454	-0.044469
O6	O	0.995002	0.421280	-0.113527
O7	O	1.280730	0.513830	-0.115532
Cu8	Cu	1.134219	0.484457	-0.116188
Cu9	Cu	1.181459	0.265543	-0.094711
O10	O	1.128997	0.464655	-0.184590
C11	C	0.978432	0.316888	-0.102888
C12	C	0.869544	0.281619	-0.098239
C13	C	0.840162	0.164143	-0.086154
C14	C	0.737855	0.131008	-0.081790
C15	C	0.664920	0.215346	-0.089507
C16	C	0.694303	0.332824	-0.101589
C17	C	0.796619	0.365963	-0.105957
C18	C	0.621377	0.417165	-0.109310
C19	C	0.650759	0.534644	-0.121391
C20	C	0.753066	0.567777	-0.125758
C21	C	0.826000	0.483439	-0.118041
C22	C	0.519061	0.384027	-0.104942
C23	C	0.475517	0.585846	-0.124744
C24	C	0.577825	0.618982	-0.129108
C25	C	1.166335	0.377783	-0.017369
C26	C	1.165211	0.377432	0.036327
C27	C	1.337246	0.433109	-0.108010
C28	C	1.446136	0.468370	-0.112659
N29	N	1.101000	0.638432	-0.131294
N30	N	1.214685	0.111570	-0.079602
C31	C	1.294456	1.075077	-0.043318
C32	C	1.319585	0.958559	-0.031888
C33	C	1.264940	0.878522	-0.056739
C34	C	1.185164	0.915013	-0.093021
C35	C	1.160037	1.031544	-0.104454
C36	C	1.130522	0.834989	-0.117875
C37	C	1.050745	0.871480	-0.154157
C38	C	1.025622	0.988000	-0.165588
C39	C	1.080267	1.068037	-0.140738
C40	C	1.155648	0.718458	-0.106441
C41	C	1.021229	0.674925	-0.167577
C42	C	0.996100	0.791443	-0.179007
C43	C	1.247828	0.404151	0.372038
C44	C	1.243669	0.402799	0.573855
O45	O	1.319216	0.427219	0.602273
N46	N	1.153695	0.373657	0.596364
C47	C	1.064755	0.344845	0.568416
O48	O	0.988134	0.320016	0.592193
C49	C	1.068917	0.346189	0.366601
C50	C	1.158895	0.375344	0.344094
C51	C	1.337799	0.433302	0.349531
C52	C	1.338836	0.433645	0.299079
C53	C	1.249903	0.404838	0.271135
C54	C	1.159932	0.375687	0.293642
C55	C	0.979980	0.317369	0.338655
C56	C	0.981029	0.317705	0.288199
C57	C	1.071007	0.346859	0.265691
C58	C	1.072036	0.347224	0.215246
N59	N	1.162011	0.376365	0.192737
C60	C	1.250944	0.405172	0.220681
C61	C	1.062576	0.344143	0.674372
C62	C	1.061535	0.343809	0.724825
C63	C	1.240450	0.401761	0.730261
C64	C	1.241488	0.402103	0.679806
C65	C	1.152551	0.373285	0.651863
C66	C	1.253116	0.405893	0.114729
C67	C	1.254145	0.406239	0.064272
C68	C	1.075232	0.348281	0.058841
C69	C	1.074201	0.347941	0.109293
C70	C	1.163152	0.376746	0.137236
O71	O	0.996533	0.322805	0.186799
O72	O	1.327560	0.429973	0.196898
C73	C	1.246791	0.403807	0.422490
C74	C	1.156820	0.374656	0.444997
C75	C	1.067887	0.345849	0.417053
C76	C	1.155779	0.374322	0.495451
C77	C	1.244712	0.403129	0.523395
C78	C	1.334687	0.432270	0.500886
C79	C	1.335724	0.432614	0.450435
C80	C	0.977912	0.316708	0.439562
C81	C	0.976882	0.316368	0.490014
C82	C	1.065815	0.345175	0.517958
C83	C	1.149343	0.372229	0.806469
C84	C	1.150469	0.372616	0.752770
H85	H	1.220603	0.688758	-0.076901
H86	H	1.059804	1.162916	-0.150042
C87	C	0.961121	0.586897	-0.194917
H88	H	0.987505	0.512272	-0.182909
H89	H	0.967169	0.609270	-0.229396
H90	H	0.891607	0.584825	-0.189302
H91	H	0.960671	1.017712	-0.195135
H92	H	0.495149	0.288375	-0.095105
H93	H	1.327418	0.429984	0.045949
C94	C	0.552386	0.178899	-0.084705
H95	H	0.545333	0.096855	-0.076401
H96	H	0.513293	0.206102	-0.115273
H97	H	0.529107	0.211237	-0.059469
H98	H	0.931144	0.821169	-0.208549
C99	C	1.432512	0.463949	0.531632
H100	H	1.419000	0.459556	0.564904
H101	H	1.455521	0.540461	0.518159
H102	H	1.483364	0.411344	0.530811
C103	C	1.350957	0.437587	0.145458
H104	H	1.404680	0.455006	0.124821
H105	H	1.368214	0.374114	0.171582
H106	H	1.340340	0.503221	0.158923
C107	C	1.407361	0.918429	0.008001
H108	H	1.414516	0.837575	0.011242
H109	H	1.393125	0.934240	0.038743
H110	H	1.468617	0.958708	-0.001383
H111	H	1.412107	0.457381	0.280759
C112	C	1.435633	0.465001	0.380262
H113	H	1.489354	0.482416	0.359623
H114	H	1.452892	0.401534	0.406388
H115	H	1.425013	0.530641	0.393723
H116	H	1.285404	0.783649	-0.047431
C117	C	0.785389	0.696997	-0.139052
H118	H	0.856765	0.704652	-0.140552
H119	H	0.767580	0.735603	-0.114505
H120	H	0.751770	0.730451	-0.170308
C121	C	0.964735	0.312456	0.643639
H122	H	0.911006	0.295068	0.664274
H123	H	0.975337	0.246828	0.630171
H124	H	0.947490	0.375946	0.617516
C125	C	1.340465	0.434162	0.655053
H126	H	1.393277	0.451263	0.678927
H127	H	1.330667	0.500048	0.629154
H128	H	1.358525	0.370935	0.641818
H129	H	0.416132	0.654521	-0.131029
C130	C	1.338278	0.433431	0.761007
H131	H	1.324766	0.429042	0.794279
H132	H	1.361295	0.509940	0.747534
H133	H	1.389124	0.380818	0.760187
H134	H	0.988262	0.320088	0.743144
H135	H	0.713940	0.035357	-0.071954
C136	C	0.881005	0.285289	0.363403
H137	H	0.828201	0.268168	0.339529
H138	H	0.862933	0.348494	0.376645
H139	H	0.890815	0.219388	0.389298
C140	C	0.977414	0.316589	0.028097
H141	H	0.990930	0.320958	-0.005173
H142	H	0.926548	0.369170	0.028916
H143	H	0.954429	0.240064	0.041576
H144	H	0.899552	0.095488	-0.079876
H145	H	0.908604	0.294235	0.265450
C146	C	0.938539	0.519891	-0.122840
H147	H	0.945596	0.601935	-0.131139
H148	H	0.961832	0.487545	-0.148068
H149	H	0.977620	0.492695	-0.092265
H150	H	1.000927	0.324232	0.127616
C151	C	0.610152	0.748200	-0.142402
H152	H	0.681529	0.755850	-0.143901
H153	H	0.592344	0.786810	-0.117856
H154	H	0.576537	0.781655	-0.173658
H155	H	1.338945	1.140251	-0.023091
H156	H	1.408993	0.456354	0.432114
H157	H	0.903604	0.292634	0.508333
H158	H	0.905491	0.293246	0.416814
