data_functionalizedCrystal
_audit_creation_method	'MofGen! by Chris Wilmer'
_symmetry_space_group_name_H-M	'P1'
_symmetry_Int_Tables_number	1
_symmetry_cell_setting	triclinic
loop_
_symmetry_equiv_pos_as_xyz
  x,y,z
_cell_length_a	19.121063
_cell_length_b	19.805407
_cell_length_c	19.805399
_cell_angle_alpha	90.021725
_cell_angle_beta	92.411105
_cell_angle_gamma	87.529649
loop_
_atom_site_label
_atom_site_type_symbol
_atom_site_fract_x
_atom_site_fract_y
_atom_site_fract_z
Zn1	Zn	-0.279608	-1.023235	-0.394240
Zn2	Zn	-0.029608	-0.773235	-0.144240
Zn3	Zn	0.220392	-0.523235	0.105760
Zn4	Zn	0.470392	-0.273235	0.355760
Zn5	Zn	-0.397060	-1.018318	-0.285875
Zn6	Zn	-0.147060	-0.768318	-0.035875
Zn7	Zn	0.102940	-0.518318	0.214125
Zn8	Zn	0.352940	-0.268318	0.464125
Zn9	Zn	-0.279630	-0.910048	-0.281062
Zn10	Zn	-0.029630	-0.660048	-0.031062
Zn11	Zn	0.220370	-0.410048	0.218938
Zn12	Zn	0.470370	-0.160048	0.468938
Zn13	Zn	-0.397026	-0.905183	-0.399016
Zn14	Zn	-0.147026	-0.655183	-0.149016
Zn15	Zn	0.102974	-0.405183	0.100984
Zn16	Zn	0.352974	-0.155183	0.350984
O17	O	-0.338331	-0.964196	-0.340048
O18	O	-0.088331	-0.714196	-0.090048
O19	O	0.161669	-0.464196	0.159952
O20	O	0.411669	-0.214196	0.409952
O21	O	-0.295194	-1.117299	-0.379881
O22	O	-0.045194	-0.867299	-0.129881
O23	O	0.204806	-0.617299	0.120119
O24	O	0.454806	-0.367299	0.370119
O25	O	-0.381507	-1.003935	-0.190521
O26	O	-0.131507	-0.753935	0.059479
O27	O	0.118493	-0.503935	0.309479
O28	O	0.368493	-0.253935	0.559479
O29	O	-0.181342	-0.929156	-0.292062
O30	O	0.068658	-0.679156	-0.042062
O31	O	0.318658	-0.429156	0.207938
O32	O	0.568658	-0.179156	0.457938
O33	O	-0.381485	-1.113687	-0.300266
O34	O	-0.131485	-0.863687	-0.050266
O35	O	0.118515	-0.613687	0.199734
O36	O	0.368515	-0.363687	0.449734
O37	O	-0.181326	-1.012314	-0.375214
O38	O	0.068674	-0.762314	-0.125214
O39	O	0.318674	-0.512314	0.124786
O40	O	0.568674	-0.262314	0.374786
O41	O	-0.295231	-0.924389	-0.186984
O42	O	-0.045231	-0.674389	0.063016
O43	O	0.204769	-0.424389	0.313016
O44	O	0.454769	-0.174389	0.563016
O45	O	-0.295197	-0.814687	-0.296693
O46	O	-0.045197	-0.564687	-0.046693
O47	O	0.204803	-0.314687	0.203307
O48	O	0.454803	-0.064687	0.453307
O49	O	-0.381426	-0.920864	-0.493098
O50	O	-0.131426	-0.670864	-0.243098
O51	O	0.118574	-0.420864	0.006902
O52	O	0.368574	-0.170864	0.256902
O53	O	-0.381447	-0.811112	-0.383353
O54	O	-0.131447	-0.561112	-0.133353
O55	O	0.118553	-0.311112	0.116647
O56	O	0.368553	-0.061112	0.366647
O57	O	-0.295160	-1.007596	-0.489589
O58	O	-0.045160	-0.757596	-0.239589
O59	O	0.204840	-0.507596	0.010411
O60	O	0.454840	-0.257596	0.260411
O61	O	-0.495341	-0.999217	-0.304897
O62	O	-0.245341	-0.749217	-0.054897
O63	O	0.004659	-0.499217	0.195103
O64	O	0.254659	-0.249217	0.445103
O65	O	-0.495315	-0.916097	-0.388021
O66	O	-0.245315	-0.666097	-0.138021
O67	O	0.004685	-0.416097	0.111979
O68	O	0.254685	-0.166097	0.361979
C69	C	-0.338321	-0.788341	-0.340019
C70	C	-0.088321	-0.538341	-0.090019
C71	C	0.161679	-0.288341	0.159981
C72	C	0.411679	-0.038341	0.409981
C73	C	-0.338334	-0.713108	-0.340024
C74	C	-0.088334	-0.463108	-0.090024
C75	C	0.161666	-0.213108	0.159976
C76	C	0.411666	0.036892	0.409976
C77	C	-0.293474	-0.253198	-0.381583
C78	C	-0.043474	-0.003198	-0.131583
C79	C	0.206526	0.246802	0.118417
C80	C	0.456526	0.496802	0.368417
C81	C	-0.293476	-0.323887	-0.381580
C82	C	-0.043476	-0.073887	-0.131580
C83	C	0.206524	0.176113	0.118420
C84	C	0.456524	0.426113	0.368420
C85	C	-0.338334	-0.357346	-0.340056
C86	C	-0.088334	-0.107346	-0.090056
C87	C	0.161666	0.142654	0.159944
C88	C	0.411666	0.392654	0.409944
C89	C	-0.383197	-0.320114	-0.298538
C90	C	-0.133197	-0.070114	-0.048538
C91	C	0.116803	0.179886	0.201462
C92	C	0.366803	0.429886	0.451462
C93	C	-0.383198	-0.249426	-0.298545
C94	C	-0.133198	0.000574	-0.048545
C95	C	0.116802	0.250574	0.201455
C96	C	0.366802	0.500574	0.451455
C97	C	-0.383196	-0.605187	-0.298509
C98	C	-0.133196	-0.355187	-0.048509
C99	C	0.116804	-0.105187	0.201491
C100	C	0.366804	0.144813	0.451491
C101	C	-0.383190	-0.675879	-0.298503
C102	C	-0.133190	-0.425879	-0.048503
C103	C	0.116810	-0.175879	0.201497
C104	C	0.366810	0.074121	0.451497
C105	C	-0.293473	-0.679647	-0.381544
C106	C	-0.043473	-0.429647	-0.131544
C107	C	0.206527	-0.179647	0.118456
C108	C	0.456527	0.070353	0.368456
C109	C	-0.293474	-0.608960	-0.381551
C110	C	-0.043474	-0.358960	-0.131551
C111	C	0.206526	-0.108960	0.118449
C112	C	0.456526	0.141040	0.368449
C113	C	-0.338340	-0.571733	-0.340035
C114	C	-0.088340	-0.321733	-0.090035
C115	C	0.161660	-0.071733	0.159965
C116	C	0.411660	0.178267	0.409965
C117	C	-0.338338	-0.495085	-0.340040
C118	C	-0.088338	-0.245085	-0.090040
C119	C	0.161662	0.004915	0.159960
C120	C	0.411662	0.254915	0.409960
C121	C	-0.338333	-0.433993	-0.340047
C122	C	-0.088333	-0.183993	-0.090047
C123	C	0.161667	0.066007	0.159953
C124	C	0.411667	0.316007	0.409953
C125	C	-0.520812	-0.956614	-0.347514
C126	C	-0.270812	-0.706614	-0.097514
C127	C	-0.020812	-0.456614	0.152486
C128	C	0.229188	-0.206614	0.402486
C129	C	-0.598878	-0.953432	-0.350731
C130	C	-0.348878	-0.703432	-0.100731
C131	C	-0.098878	-0.453432	0.149269
C132	C	0.151122	-0.203432	0.399269
C133	C	-0.635544	-0.995247	-0.309000
C134	C	-0.385544	-0.745247	-0.059000
C135	C	-0.135544	-0.495247	0.191000
C136	C	0.114456	-0.245247	0.441000
C137	C	-0.708895	-0.992259	-0.312029
C138	C	-0.458895	-0.742259	-0.062029
C139	C	-0.208895	-0.492259	0.187971
C140	C	0.041105	-0.242259	0.437971
C141	C	-0.745580	-0.947452	-0.356786
C142	C	-0.495580	-0.697452	-0.106786
C143	C	-0.245580	-0.447452	0.143214
C144	C	0.004420	-0.197452	0.393214
C145	C	-0.708909	-0.905635	-0.398522
C146	C	-0.458909	-0.655635	-0.148522
C147	C	-0.208909	-0.405635	0.101478
C148	C	0.041091	-0.155635	0.351478
C149	C	-0.635559	-0.908627	-0.395496
C150	C	-0.385559	-0.658627	-0.145496
C151	C	-0.135559	-0.408627	0.104504
C152	C	0.114441	-0.158627	0.354504
C153	C	-0.967050	-0.936253	-0.368090
C154	C	-0.717050	-0.686253	-0.118090
C155	C	-0.467050	-0.436253	0.131910
C156	C	-0.217050	-0.186253	0.381910
C157	C	-1.040405	-0.933263	-0.371112
C158	C	-0.790405	-0.683263	-0.121112
C159	C	-0.540405	-0.433263	0.128888
C160	C	-0.290405	-0.183263	0.378888
C161	C	-1.040387	-1.019888	-0.284619
C162	C	-0.790387	-0.769888	-0.034619
C163	C	-0.540387	-0.519888	0.215381
C164	C	-0.290387	-0.269888	0.465381
C165	C	-0.967035	-1.022873	-0.281594
C166	C	-0.717035	-0.772873	-0.031594
C167	C	-0.467035	-0.522873	0.218406
C168	C	-0.217035	-0.272873	0.468406
C169	C	-0.930371	-0.981059	-0.323332
C170	C	-0.680371	-0.731059	-0.073332
C171	C	-0.430371	-0.481059	0.176668
C172	C	-0.180371	-0.231059	0.426668
C173	C	-0.820557	-0.944395	-0.359882
C174	C	-0.570557	-0.694395	-0.109882
C175	C	-0.320557	-0.444395	0.140118
C176	C	-0.070557	-0.194395	0.390118
C177	C	-0.855395	-0.984120	-0.320239
C178	C	-0.605395	-0.734120	-0.070239
C179	C	-0.355395	-0.484120	0.179761
C180	C	-0.105395	-0.234120	0.429761
C181	C	-0.155137	-0.971826	-0.332568
C182	C	0.094863	-0.721826	-0.082568
C183	C	0.344863	-0.471826	0.167432
C184	C	0.594863	-0.221826	0.417432
C185	C	-0.077071	-0.975078	-0.329380
C186	C	0.172929	-0.725078	-0.079380
C187	C	0.422929	-0.475078	0.170620
C188	C	0.672929	-0.225078	0.420620
C189	C	-0.338287	-0.964236	-0.516589
C190	C	-0.088287	-0.714236	-0.266589
C191	C	0.161713	-0.464236	-0.016589
C192	C	0.411713	-0.214236	0.233411
C193	C	-0.338268	-0.964253	-0.591821
C194	C	-0.088268	-0.714253	-0.341821
C195	C	0.161732	-0.464253	-0.091821
C196	C	0.411732	-0.214253	0.158179
C197	C	-0.338338	-0.140739	-0.340072
C198	C	-0.088338	0.109261	-0.090072
C199	C	0.161662	0.359261	0.159928
C200	C	0.411662	0.609261	0.409928
C201	C	-0.338332	-0.215971	-0.340067
C202	C	-0.088332	0.034029	-0.090067
C203	C	0.161668	0.284029	0.159933
C204	C	0.411668	0.534029	0.409933
C205	C	-0.293347	-1.009415	-0.625339
C206	C	-0.043347	-0.759415	-0.375339
C207	C	0.206653	-0.509415	-0.125339
C208	C	0.456653	-0.259415	0.124661
C209	C	-0.293326	-1.009423	-0.696026
C210	C	-0.043326	-0.759423	-0.446026
C211	C	0.206674	-0.509423	-0.196026
C212	C	0.456674	-0.259423	0.053974
C213	C	-0.338231	-0.964271	-0.733195
C214	C	-0.088231	-0.714271	-0.483195
C215	C	0.161769	-0.464271	-0.233195
C216	C	0.411769	-0.214271	0.016805
C217	C	-0.383154	-0.919104	-0.699672
C218	C	-0.133154	-0.669104	-0.449672
C219	C	0.116846	-0.419104	-0.199672
C220	C	0.366846	-0.169104	0.050328
C221	C	-0.383170	-0.919093	-0.628985
C222	C	-0.133170	-0.669093	-0.378985
C223	C	0.116830	-0.419093	-0.128985
C224	C	0.366830	-0.169093	0.121015
C225	C	-0.383089	-0.919145	-0.984742
C226	C	-0.133089	-0.669145	-0.734742
C227	C	0.116911	-0.419145	-0.484742
C228	C	0.366911	-0.169145	-0.234742
C229	C	-0.383070	-0.919160	-1.055434
C230	C	-0.133070	-0.669160	-0.805434
C231	C	0.116930	-0.419160	-0.555434
C232	C	0.366930	-0.169160	-0.305434
C233	C	-0.293245	-1.009475	-1.051784
C234	C	-0.043245	-0.759475	-0.801784
C235	C	0.206755	-0.509475	-0.551784
C236	C	0.456755	-0.259475	-0.301784
C237	C	-0.293261	-1.009464	-0.981097
C238	C	-0.043261	-0.759464	-0.731097
C239	C	0.206739	-0.509464	-0.481097
C240	C	0.456739	-0.259464	-0.231097
C241	C	-0.338181	-0.964295	-0.947580
C242	C	-0.088181	-0.714295	-0.697580
C243	C	0.161819	-0.464295	-0.447580
C244	C	0.411819	-0.214295	-0.197580
C245	C	-0.338202	-0.964286	-0.870933
C246	C	-0.088202	-0.714286	-0.620933
C247	C	0.161798	-0.464286	-0.370933
C248	C	0.411798	-0.214286	-0.120933
C249	C	-0.338215	-0.964283	-0.809841
C250	C	-0.088215	-0.714283	-0.559841
C251	C	0.161785	-0.464283	-0.309841
C252	C	0.411785	-0.214283	-0.059841
C253	C	-0.338324	-0.964198	-0.164192
C254	C	-0.088324	-0.714198	0.085808
C255	C	0.161676	-0.464198	0.335808
C256	C	0.411676	-0.214198	0.585808
C257	C	-0.338145	-0.964320	-0.088953
C258	C	-0.088145	-0.714320	0.161047
C259	C	0.161855	-0.464320	0.411047
C260	C	0.411855	-0.214320	0.661047
H261	H	-0.605680	-1.031731	-0.272550
H262	H	-0.355680	-0.781731	-0.022550
H263	H	-0.105680	-0.531731	0.227450
H264	H	0.144320	-0.281731	0.477450
Cl265	Cl	-0.866680	-0.888066	-0.416146
Cl266	Cl	-0.616680	-0.638066	-0.166146
Cl267	Cl	-0.366680	-0.388066	0.083854
Cl268	Cl	-0.116680	-0.138066	0.333854
Cl269	Cl	-0.439604	-0.862339	-0.746398
Cl270	Cl	-0.189604	-0.612339	-0.496398
Cl271	Cl	0.060396	-0.362339	-0.246398
Cl272	Cl	0.310396	-0.112339	0.003602
Cl273	Cl	-0.439588	-0.717942	-0.246298
Cl274	Cl	-0.189588	-0.467942	0.003702
Cl275	Cl	0.060412	-0.217942	0.253702
Cl276	Cl	0.310412	0.032058	0.503702
H277	H	-0.419743	-0.882311	-0.601696
H278	H	-0.169743	-0.632311	-0.351696
H279	H	0.080257	-0.382311	-0.101696
H280	H	0.330257	-0.132311	0.148304
Cl281	Cl	-0.439594	-0.362177	-0.246340
Cl282	Cl	-0.189594	-0.112177	0.003660
Cl283	Cl	0.060406	0.137823	0.253660
Cl284	Cl	0.310406	0.387823	0.503660
H285	H	-0.937168	-1.059359	-0.245149
H286	H	-0.687168	-0.809359	0.004851
H287	H	-0.437168	-0.559359	0.254851
H288	H	-0.187168	-0.309359	0.504851
H289	H	-0.256950	-0.354194	-0.415389
H290	H	-0.006950	-0.104194	-0.165389
H291	H	0.243050	0.145806	0.084611
H292	H	0.493050	0.395806	0.334611
H293	H	-0.605706	-0.874578	-0.429479
H294	H	-0.355706	-0.624578	-0.179479
H295	H	-0.105706	-0.374578	0.070521
H296	H	0.144294	-0.124578	0.320521
H297	H	-0.419727	-0.574886	-0.264702
H298	H	-0.169727	-0.324886	-0.014702
H299	H	0.080273	-0.074886	0.235298
H300	H	0.330273	0.175114	0.485298
Cl301	Cl	-0.237073	-0.211142	-0.433784
Cl302	Cl	0.012927	0.038858	-0.183784
Cl303	Cl	0.262927	0.288858	0.066216
Cl304	Cl	0.512927	0.538858	0.316216
H305	H	-0.419728	-0.219116	-0.264740
H306	H	-0.169728	0.030884	-0.014740
H307	H	0.080272	0.280884	0.235260
H308	H	0.330272	0.530884	0.485260
H309	H	-0.937204	-0.902205	-0.402074
H310	H	-0.687204	-0.652205	-0.152074
H311	H	-0.437204	-0.402205	0.097926
H312	H	-0.187204	-0.152205	0.347926
Cl313	Cl	-0.439560	-0.862361	-0.942616
Cl314	Cl	-0.189560	-0.612361	-0.692616
Cl315	Cl	0.060440	-0.362361	-0.442616
Cl316	Cl	0.310440	-0.112361	-0.192616
H317	H	-1.070247	-1.053932	-0.250639
H318	H	-0.820247	-0.803932	-0.000639
H319	H	-0.570247	-0.553932	0.249361
H320	H	-0.320247	-0.303932	0.499361
H321	H	-0.419639	-0.882389	-1.085695
H322	H	-0.169639	-0.632389	-0.835695
H323	H	0.080361	-0.382389	-0.585695
H324	H	0.330361	-0.132389	-0.335695
H325	H	-0.738745	-1.026309	-0.278046
H326	H	-0.488745	-0.776309	-0.028046
H327	H	-0.238745	-0.526309	0.221954
H328	H	0.011255	-0.276309	0.471954
H329	H	-1.070272	-0.896783	-0.407571
H330	H	-0.820272	-0.646783	-0.157571
H331	H	-0.570272	-0.396783	0.092429
H332	H	-0.320272	-0.146783	0.342429
H333	H	-0.256944	-0.581721	-0.415361
H334	H	-0.006944	-0.331721	-0.165361
H335	H	0.243056	-0.081721	0.084639
H336	H	0.493056	0.168279	0.334639
H337	H	-0.256749	-1.046200	-0.723314
H338	H	-0.006749	-0.796200	-0.473314
H339	H	0.243251	-0.546200	-0.223314
H340	H	0.493251	-0.296200	0.026686
Cl341	Cl	-0.755027	-0.849309	-0.454793
Cl342	Cl	-0.505027	-0.599309	-0.204793
Cl343	Cl	-0.255027	-0.349309	0.045207
Cl344	Cl	-0.005027	-0.099309	0.295207
Cl345	Cl	-0.809276	-1.040450	-0.263977
Cl346	Cl	-0.559276	-0.790450	-0.013977
Cl347	Cl	-0.309276	-0.540450	0.236023
Cl348	Cl	-0.059276	-0.290450	0.486023
Cl349	Cl	-0.236895	-1.066184	-0.578620
Cl350	Cl	0.013105	-0.816184	-0.328620
Cl351	Cl	0.263105	-0.566184	-0.078620
Cl352	Cl	0.513105	-0.316184	0.171380
H353	H	-0.256666	-1.046251	-1.079081
H354	H	-0.006666	-0.796251	-0.829081
H355	H	0.243334	-0.546251	-0.579081
H356	H	0.493334	-0.296251	-0.329081
Cl357	Cl	-0.237072	-0.726451	-0.433739
Cl358	Cl	0.012928	-0.476451	-0.183739
Cl359	Cl	0.262928	-0.226451	0.066261
Cl360	Cl	0.512928	0.023549	0.316261
Cl361	Cl	-0.236809	-1.066230	-0.934375
Cl362	Cl	0.013191	-0.816230	-0.684375
Cl363	Cl	0.263191	-0.566230	-0.434375
Cl364	Cl	0.513191	-0.316230	-0.184375
