data_functionalizedCrystal
_audit_creation_method	'MofGen! by Chris Wilmer'
_symmetry_space_group_name_H-M	'P1'
_symmetry_Int_Tables_number	1
_symmetry_cell_setting	triclinic
loop_
_symmetry_equiv_pos_as_xyz
  x,y,z
_cell_length_a	16.992694
_cell_length_b	12.837942
_cell_length_c	15.455313
_cell_angle_alpha	92.949088
_cell_angle_beta	87.142206
_cell_angle_gamma	92.748582
loop_
_atom_site_label
_atom_site_type_symbol
_atom_site_fract_x
_atom_site_fract_y
_atom_site_fract_z
O1	O	1.060029	0.216906	-0.072020
O2	O	1.560029	0.716906	0.427980
O3	O	0.831564	0.214478	-0.072045
O4	O	1.331564	0.714478	0.427955
O5	O	0.940730	0.064370	-0.072028
O6	O	1.440730	0.564370	0.427972
O7	O	0.950863	0.367014	-0.072037
O8	O	1.450863	0.867014	0.427963
O9	O	0.934485	0.072916	0.072233
O10	O	1.434485	0.572916	0.572233
O11	O	0.825318	0.223024	0.072216
O12	O	1.325318	0.723024	0.572216
O13	O	1.053784	0.225452	0.072241
O14	O	1.553784	0.725452	0.572241
Cu15	Cu	0.938981	0.225018	0.085401
Cu16	Cu	1.438981	0.725018	0.585401
Cu17	Cu	0.946367	0.214912	-0.085205
Cu18	Cu	1.446367	0.714912	0.414795
O19	O	0.944617	0.375560	0.072224
O20	O	1.444617	0.875560	0.572224
C21	C	0.798995	0.215629	0.000082
C22	C	1.298995	0.715629	0.500082
C23	C	0.711256	0.206315	0.000072
C24	C	1.211256	0.706315	0.500072
C25	C	0.667730	0.296178	0.000070
C26	C	1.167730	0.796178	0.500070
C27	C	0.585288	0.287422	0.000082
C28	C	1.085288	0.787422	0.500082
C29	C	0.546375	0.188801	0.000091
C30	C	1.046375	0.688801	0.500091
C31	C	0.589907	0.098931	0.000095
C32	C	1.089907	0.598931	0.500095
C33	C	0.672346	0.107689	0.000089
C34	C	1.172346	0.607689	0.500089
C35	C	0.300064	0.152503	0.000115
C36	C	0.800064	0.652503	0.500115
C37	C	0.217618	0.143751	0.000118
C38	C	0.717618	0.643751	0.500118
C39	C	0.213006	0.332243	0.000107
C40	C	0.713006	0.832243	0.500107
C41	C	0.295447	0.340992	0.000096
C42	C	0.795447	0.840992	0.500096
C43	C	0.338972	0.251123	0.000105
C44	C	0.838972	0.751123	0.500105
N45	N	0.462107	0.179848	0.000100
N46	N	0.962107	0.679848	0.500100
N47	N	0.423238	0.260077	0.000102
N48	N	0.923238	0.760077	0.500102
C49	C	0.934185	0.029739	0.000102
C50	C	1.434185	0.529739	0.500102
C51	C	0.923977	-0.086184	0.000099
C52	C	1.423977	0.413816	0.500099
C53	C	1.046699	-0.316976	0.000095
C54	C	1.546699	0.183024	0.500095
C55	C	1.037111	-0.425897	0.000093
C56	C	1.537111	0.074103	0.500093
C57	C	0.895215	-0.412947	0.000086
C58	C	1.395215	0.087053	0.500086
C59	C	0.904802	-0.304027	0.000088
C60	C	1.404802	0.195973	0.500088
C61	C	0.980547	-0.256046	0.000094
C62	C	1.480547	0.243954	0.500094
C63	C	0.990134	-0.147123	0.000103
C64	C	1.490134	0.352877	0.500103
C65	C	0.848238	-0.134176	0.000090
C66	C	1.348238	0.365824	0.500090
C67	C	0.838650	-0.243096	0.000087
C68	C	1.338650	0.256904	0.500087
C69	C	1.086352	0.224301	0.000112
C70	C	1.586352	0.724301	0.500112
C71	C	1.174092	0.233614	0.000116
C72	C	1.674092	0.733614	0.500116
C73	C	0.951163	0.410191	0.000092
C74	C	1.451163	0.910191	0.500092
C75	C	0.961371	0.526114	0.000089
C76	C	1.461371	1.026114	0.500089
N77	N	0.933792	0.232127	0.205396
N78	N	1.433792	0.732127	0.705396
N79	N	0.951562	0.207795	-0.205199
N80	N	1.451562	0.707795	0.294801
C81	C	0.980189	0.168382	0.250797
C82	C	1.480189	0.668382	0.750797
C83	C	0.976273	0.173768	0.341604
C84	C	1.476273	0.673768	0.841604
C85	C	0.925963	0.242905	0.387008
C86	C	1.425963	0.742905	0.887008
C87	C	0.879560	0.306652	0.341600
C88	C	1.379560	0.806652	0.841600
C89	C	0.883473	0.301260	0.250795
C90	C	1.383473	0.801260	0.750795
C91	C	0.909072	0.266151	0.658587
C92	C	1.409072	0.766151	1.158587
C93	C	0.905164	0.271540	0.749399
C94	C	1.405164	0.771540	1.249399
C95	C	1.001877	0.138654	0.749397
C96	C	1.501877	0.638654	1.249397
C97	C	1.005788	0.133273	0.658589
C98	C	1.505788	0.633273	1.158589
C99	C	0.959383	0.197016	0.613189
C100	C	1.459383	0.697016	1.113189
N101	N	0.921960	0.248414	0.479828
N102	N	1.421960	0.748414	0.979828
N103	N	0.963381	0.191501	0.520371
N104	N	1.463381	0.691501	1.020371
H105	H	0.177559	0.405409	0.000101
H106	H	0.677559	0.905409	0.500101
H107	H	0.185938	0.063438	0.000124
H108	H	0.685938	0.563438	0.500124
H109	H	1.039657	0.086756	0.786370
H110	H	1.539657	0.586756	1.286370
H111	H	0.335492	0.079324	0.000123
H112	H	0.835492	0.579324	0.500123
C113	C	1.072284	0.041907	0.332481
C114	C	1.572284	0.541907	0.832481
C115	C	1.027288	0.103715	0.391510
C116	C	1.527288	0.603715	0.891510
H117	H	1.103785	-0.001335	0.363292
H118	H	1.603785	0.498665	0.863292
H119	H	1.038171	-0.000474	0.297079
H120	H	1.538171	0.499526	0.797079
H121	H	1.105420	0.085616	0.297049
H122	H	1.605420	0.585616	0.797049
H123	H	0.994147	0.060005	0.426938
H124	H	1.494147	0.560005	0.926938
H125	H	1.061405	0.146100	0.426926
H126	H	1.561405	0.646100	0.926926
H127	H	0.794372	-0.084554	0.000096
H128	H	1.294372	0.415446	0.500096
H129	H	1.046755	0.076976	0.621623
H130	H	1.546755	0.576976	1.121623
H131	H	0.864193	0.327844	0.786363
H132	H	1.364193	0.827844	1.286363
H133	H	0.707784	0.034513	0.000091
H134	H	1.207784	0.534513	0.500091
H135	H	0.558216	0.018632	0.000114
H136	H	1.058216	0.518632	0.500114
C137	C	0.760953	0.410987	-0.074109
C138	C	1.260953	0.910987	0.425891
C139	C	0.710498	0.404588	0.000056
C140	C	1.210498	0.904588	0.500056
H141	H	0.787349	0.477920	-0.074118
H142	H	1.287349	0.977920	0.425882
H143	H	0.798674	0.358732	-0.074103
H144	H	1.298674	0.858732	0.425897
H145	H	0.731048	0.400666	-0.124406
H146	H	1.231048	0.900666	0.375594
H147	H	0.740403	0.414901	0.050354
H148	H	1.240403	0.914901	0.550354
H149	H	0.672771	0.456859	0.000058
H150	H	1.172771	0.956859	0.500058
C151	C	0.813092	0.398051	0.667723
C152	C	1.313092	0.898051	1.167723
C153	C	0.858070	0.336226	0.608691
C154	C	1.358070	0.836226	1.108691
H155	H	0.781609	0.441319	0.636915
H156	H	1.281609	0.941319	1.136915
H157	H	0.779946	0.354362	0.703149
H158	H	1.279946	0.854362	1.203149
H159	H	0.847222	0.440416	0.703132
H160	H	1.347222	0.940416	1.203132
H161	H	0.823940	0.293855	0.573287
H162	H	1.323940	0.793855	1.073287
H163	H	0.891219	0.379920	0.573251
H164	H	1.391219	0.879920	1.073251
H165	H	1.108372	-0.277909	0.000108
H166	H	1.608372	0.222091	0.500108
H167	H	0.549853	0.360598	0.000080
H168	H	1.049853	0.860598	0.500080
C169	C	0.830626	0.373931	0.480798
C170	C	1.330626	0.873931	0.980798
C171	C	0.824259	0.382652	0.391507
C172	C	1.324259	0.882652	0.891507
H173	H	0.796489	0.420858	0.511605
H174	H	1.296489	0.920858	1.011605
H175	H	0.816215	0.304492	0.495688
H176	H	1.316215	0.804492	0.995688
H177	H	0.883491	0.390546	0.495659
H178	H	1.383491	0.890546	0.995659
H179	H	0.771395	0.366029	0.376644
H180	H	1.271395	0.866029	0.876644
H181	H	0.838665	0.452106	0.376611
H182	H	1.338665	0.952106	0.876611
C183	C	0.851835	0.476302	0.222812
C184	C	1.351835	0.976302	0.722812
C185	C	0.832475	0.371334	0.200884
C186	C	1.332475	0.871334	0.700884
H187	H	0.820351	0.519560	0.191995
H188	H	1.320351	1.019560	0.691995
H189	H	0.842301	0.489403	0.283382
H190	H	1.342301	0.989403	0.783382
H191	H	0.905980	0.491136	0.207917
H192	H	1.405980	0.991136	0.707917
H193	H	0.778331	0.356498	0.215785
H194	H	1.278331	0.856498	0.715785
H195	H	0.842003	0.358228	0.140300
H196	H	1.342003	0.858228	0.640300
C197	C	0.282603	0.526430	0.000100
C198	C	0.782603	1.026430	0.500100
C199	C	0.338218	0.449400	0.000095
C200	C	0.838218	0.949400	0.500095
H201	H	0.309010	0.593356	0.000103
H202	H	0.809010	1.093356	0.500103
H203	H	0.252717	0.516116	-0.050202
H204	H	0.752717	1.016116	0.449798
H205	H	0.248372	0.522066	0.050413
H206	H	0.748372	1.022066	0.550413
H207	H	0.372446	0.453759	-0.050221
H208	H	0.872446	0.953759	0.449779
H209	H	0.368117	0.459717	0.050402
H210	H	0.868117	0.959717	0.550402
C211	C	1.129428	-0.170868	0.000093
C212	C	1.629428	0.329132	0.500093
C213	C	1.073390	-0.094379	0.000101
C214	C	1.573390	0.405621	0.500101
H215	H	1.180828	-0.138306	0.000083
H216	H	1.680828	0.361694	0.500083
H217	H	1.120568	-0.210101	0.050397
H218	H	1.620568	0.289899	0.550397
H219	H	1.124900	-0.216061	-0.050217
H220	H	1.624900	0.283939	0.449783
H221	H	1.077914	-0.049190	0.050414
H222	H	1.577914	0.450810	0.550414
H223	H	1.082254	-0.055129	-0.050209
H224	H	1.582254	0.444871	0.449791
H225	H	1.090979	-0.475503	0.000090
H226	H	1.590979	0.024497	0.500090
C227	C	0.748756	-0.362468	-0.074076
C228	C	1.248756	0.137532	0.425924
C229	C	0.755396	-0.295848	0.000084
C230	C	1.255396	0.204152	0.500084
H231	H	0.697359	-0.395037	-0.074071
H232	H	1.197359	0.104963	0.425929
H233	H	0.757613	-0.323219	-0.124372
H234	H	1.257613	0.176781	0.375628
H235	H	0.786787	-0.414341	-0.074069
H236	H	1.286787	0.085659	0.425931
H237	H	0.717369	-0.243971	0.000074
H238	H	1.217369	0.256029	0.500074
H239	H	0.746531	-0.335099	0.050393
H240	H	1.246531	0.164901	0.550393
H241	H	0.833547	-0.452034	0.000071
H242	H	1.333547	0.047966	0.500071
H243	H	1.021161	0.112088	0.213835
H244	H	1.521161	0.612088	0.713835
