data_functionalizedCrystal
_audit_creation_method	'MofGen! by Chris Wilmer'
_symmetry_space_group_name_H-M	'P1'
_symmetry_Int_Tables_number	1
_symmetry_cell_setting	triclinic
loop_
_symmetry_equiv_pos_as_xyz
  x,y,z
_cell_length_a	16.992695
_cell_length_b	14.971506
_cell_length_c	14.048226
_cell_angle_alpha	89.993237
_cell_angle_beta	89.999985
_cell_angle_gamma	92.854695
loop_
_atom_site_label
_atom_site_type_symbol
_atom_site_fract_x
_atom_site_fract_y
_atom_site_fract_z
O1	O	-0.102266	1.194121	-0.079154
O2	O	0.231068	1.527454	0.254179
O3	O	0.564401	1.860788	0.587512
O4	O	-0.114487	0.934582	-0.079153
O5	O	0.218847	1.267915	0.254180
O6	O	0.552180	1.601249	0.587514
O7	O	0.005768	1.063311	-0.079162
O8	O	0.339101	1.396644	0.254171
O9	O	0.672434	1.729978	0.587505
O10	O	-0.222520	1.065392	-0.079145
O11	O	0.110814	1.398725	0.254188
O12	O	0.444147	1.732059	0.587521
O13	O	0.005775	1.063294	0.079159
O14	O	0.339108	1.396627	0.412493
O15	O	0.672441	1.729961	0.745826
O16	O	-0.114479	0.934565	0.079168
O17	O	0.218854	1.267898	0.412502
O18	O	0.552187	1.601232	0.745835
O19	O	-0.102259	1.194104	0.079167
O20	O	0.231075	1.527437	0.412500
O21	O	0.564408	1.860771	0.745834
Zn22	Zn	-0.108368	1.064332	0.104305
Zn23	Zn	0.224965	1.397665	0.437638
Zn24	Zn	0.558299	1.730998	0.770971
Zn25	Zn	-0.108377	1.064354	-0.104291
Zn26	Zn	0.224956	1.397688	0.229043
Zn27	Zn	0.558289	1.731021	0.562376
O28	O	-0.222513	1.065375	0.079176
O29	O	0.110821	1.398708	0.412509
O30	O	0.444154	1.732042	0.745843
C31	C	-0.113934	0.901211	0.000007
C32	C	0.219400	1.234544	0.333341
C33	C	0.552733	1.567877	0.666674
C34	C	-0.112287	0.801799	0.000007
C35	C	0.221046	1.135132	0.333341
C36	C	0.554379	1.468465	0.666674
C37	C	-0.176652	0.368038	0.000002
C38	C	0.156682	0.701372	0.333335
C39	C	0.490015	1.034705	0.666669
C40	C	-0.178192	0.461447	-0.000002
C41	C	0.155141	0.794780	0.333331
C42	C	0.488474	1.128114	0.666665
C43	C	-0.107538	0.513703	-0.000003
C44	C	0.225795	0.847036	0.333331
C45	C	0.559128	1.180369	0.666664
C46	C	-0.035339	0.472545	-0.000009
C47	C	0.297994	0.805879	0.333324
C48	C	0.631328	1.139212	0.666657
C49	C	-0.033799	0.379139	-0.000012
C50	C	0.299534	0.712472	0.333321
C51	C	0.632868	1.045805	0.666655
C52	C	-0.038554	0.667234	-0.000001
C53	C	0.294780	1.000568	0.333332
C54	C	0.628113	1.333901	0.666666
C55	C	-0.040093	0.760648	0.000003
C56	C	0.293240	1.093981	0.333337
C57	C	0.626573	1.427314	0.666670
C58	C	-0.182947	0.749543	0.000009
C59	C	0.150386	1.082876	0.333343
C60	C	0.483720	1.416209	0.666676
C61	C	-0.181407	0.656136	0.000006
C62	C	0.151926	0.989469	0.333340
C63	C	0.485260	1.322802	0.666673
C64	C	-0.109207	0.614985	0.000002
C65	C	0.224126	0.948318	0.333335
C66	C	0.557459	1.281652	0.666668
C67	C	-0.251731	1.068060	0.000017
C68	C	0.081602	1.401394	0.333351
C69	C	0.414935	1.734727	0.666684
C70	C	-0.338784	1.076047	0.000023
C71	C	-0.005450	1.409381	0.333357
C72	C	0.327883	1.742714	0.666690
C73	C	-0.388947	0.998983	0.000023
C74	C	-0.055614	1.332317	0.333357
C75	C	0.277720	1.665650	0.666690
C76	C	-0.470741	1.006493	0.000011
C77	C	-0.137408	1.339827	0.333345
C78	C	0.195926	1.673160	0.666678
C79	C	-0.502370	1.091068	0.000006
C80	C	-0.169037	1.424402	0.333340
C81	C	0.164296	1.757735	0.666673
C82	C	-0.452201	1.168138	0.000004
C83	C	-0.118867	1.501471	0.333337
C84	C	0.214466	1.834805	0.666670
C85	C	-0.370408	1.160627	0.000009
C86	C	-0.037075	1.493960	0.333342
C87	C	0.296259	1.827294	0.666675
C88	C	-0.745999	1.122198	-0.000015
C89	C	-0.412666	1.455531	0.333318
C90	C	-0.079332	1.788864	0.666651
C91	C	-0.827798	1.129703	-0.000018
C92	C	-0.494465	1.463036	0.333316
C93	C	-0.161131	1.796369	0.666649
C94	C	-0.846333	0.968057	-0.000012
C95	C	-0.513000	1.301391	0.333322
C96	C	-0.179666	1.634724	0.666655
C97	C	-0.764538	0.960554	-0.000001
C98	C	-0.431205	1.293887	0.333332
C99	C	-0.097871	1.627221	0.666666
C100	C	-0.714376	1.037624	-0.000009
C101	C	-0.381042	1.370957	0.333325
C102	C	-0.047709	1.704290	0.666658
N103	N	-0.585977	1.098747	-0.000003
N104	N	-0.252643	1.432080	0.333331
N105	N	0.080690	1.765413	0.666664
N106	N	-0.630771	1.029944	-0.000006
N107	N	-0.297437	1.363278	0.333327
N108	N	0.035896	1.696611	0.666660
C109	C	0.034986	1.060626	-0.000005
C110	C	0.368320	1.393959	0.333328
C111	C	0.701653	1.727292	0.666661
C112	C	0.122039	1.052639	-0.000018
C113	C	0.455372	1.385972	0.333315
C114	C	0.788705	1.719305	0.666649
C115	C	-0.102811	1.227476	0.000004
C116	C	0.230522	1.560809	0.333338
C117	C	0.563855	1.894142	0.666671
C118	C	-0.104458	1.326887	-0.000002
C119	C	0.228876	1.660221	0.333332
C120	C	0.562209	1.993554	0.666665
N121	N	-0.108361	1.064323	0.246665
N122	N	0.224972	1.397656	0.579999
N123	N	0.558306	1.730990	0.913332
N124	N	-0.108378	1.064370	-0.246651
N125	N	0.224955	1.397703	0.086682
N126	N	0.558289	1.731036	0.420015
C127	C	-0.055134	1.121345	0.296479
C128	C	0.278199	1.454678	0.629813
C129	C	0.611532	1.788012	0.963146
C130	C	-0.055134	1.121351	0.396137
C131	C	0.278199	1.454684	0.729470
C132	C	0.611533	1.788018	1.062804
C133	C	-0.108364	1.064339	0.445979
C134	C	0.224969	1.397672	0.779312
C135	C	0.558302	1.731006	1.112645
C136	C	-0.161594	1.007311	0.396158
C137	C	0.171740	1.340644	0.729491
C138	C	0.505073	1.673977	1.062824
C139	C	-0.161590	1.007301	0.296502
C140	C	0.171744	1.340634	0.629835
C141	C	0.505077	1.673968	0.963168
C142	C	-0.161599	1.007337	0.603872
C143	C	0.171734	1.340670	0.937205
C144	C	0.505067	1.674004	1.270539
C145	C	-0.161604	1.007348	0.703535
C146	C	0.171729	1.340681	1.036868
C147	C	0.505062	1.674014	1.370201
C148	C	-0.055144	1.121387	0.703507
C149	C	0.278190	1.454720	1.036840
C150	C	0.611523	1.788054	1.370174
C151	C	-0.055140	1.121377	0.603851
C152	C	0.278194	1.454710	0.937185
C153	C	0.611527	1.788044	1.270518
C154	C	-0.108370	1.064350	0.554037
C155	C	0.224963	1.397683	0.887370
C156	C	0.558297	1.731017	1.220704
H157	H	0.017439	0.803192	-0.000005
H158	H	0.350773	1.136526	0.333328
H159	H	0.684106	1.469859	0.666662
H160	H	-0.738792	0.891684	-0.000008
H161	H	-0.405459	1.225018	0.333326
H162	H	-0.072126	1.558351	0.666659
H163	H	-0.511581	0.943739	0.000008
H164	H	-0.178248	1.277073	0.333342
H165	H	0.155085	1.610406	0.666675
H166	H	-0.011799	1.167805	0.563270
H167	H	0.321534	1.501138	0.896604
H168	H	0.654867	1.834472	1.229937
H169	H	0.024988	0.345635	-0.000017
H170	H	0.358322	0.678968	0.333316
H171	H	0.691655	1.012302	0.666650
H172	H	-0.011793	1.167782	0.436695
H173	H	0.321541	1.501115	0.770029
H174	H	0.654874	1.834448	1.103362
Br175	Br	0.059432	0.611387	-0.000003
Br176	Br	0.392766	0.944721	0.333330
Br177	Br	0.726099	1.278054	0.666664
H178	H	-0.705166	1.184954	-0.000016
H179	H	-0.371833	1.518287	0.333317
H180	H	-0.038499	1.851620	0.666651
H181	H	-0.204931	0.960867	0.255944
H182	H	0.128402	1.294200	0.589277
H183	H	0.461736	1.627533	0.922611
Br184	Br	0.017093	1.198784	0.771115
Br185	Br	0.350426	1.532117	1.104448
Br186	Br	0.683759	1.865450	1.437781
Br187	Br	0.017106	1.198730	0.228847
Br188	Br	0.350439	1.532063	0.562181
Br189	Br	0.683772	1.865397	0.895514
Br190	Br	-0.272545	0.297129	0.000015
Br191	Br	0.060789	0.630462	0.333348
Br192	Br	0.394122	0.963795	0.666681
H193	H	-0.853547	1.198577	-0.000021
H194	H	-0.520213	1.531910	0.333312
H195	H	-0.186880	1.865244	0.666645
H196	H	-0.363201	0.930114	0.000039
H197	H	-0.029868	1.263447	0.333372
H198	H	0.303465	1.596780	0.666705
H199	H	-0.204949	0.960922	0.744111
H200	H	0.128384	1.294255	1.077444
H201	H	0.461717	1.627588	1.410777
H202	H	-0.204943	0.960896	0.563316
H203	H	0.128391	1.294229	0.896650
H204	H	0.461724	1.627563	1.229983
H205	H	-0.887184	0.905312	-0.000006
H206	H	-0.553850	1.238645	0.333327
H207	H	-0.220517	1.571978	0.666660
H208	H	-0.238940	0.613591	0.000013
H209	H	0.094394	0.946925	0.333347
H210	H	0.427727	1.280258	0.666680
H211	H	0.022188	0.515100	-0.000016
H212	H	0.355522	0.848433	0.333318
H213	H	0.688855	1.181766	0.666651
Br214	Br	-0.495125	1.282920	-0.000014
Br215	Br	-0.161791	1.616253	0.333319
Br216	Br	0.171542	1.949586	0.666652
Br217	Br	-0.233831	0.929928	0.463796
Br218	Br	0.099502	1.263262	0.797129
Br219	Br	0.432835	1.596595	1.130463
H220	H	-0.236980	0.494947	-0.000008
H221	H	0.096354	0.828281	0.333326
H222	H	0.429687	1.161614	0.666659
H223	H	-0.329565	1.223381	0.000005
H224	H	0.003768	1.556714	0.333338
H225	H	0.337102	1.890048	0.666671
Br226	Br	-0.280932	0.805388	0.000031
Br227	Br	0.052401	1.138722	0.333364
Br228	Br	0.385734	1.472055	0.666698
