data_functionalizedCrystal
_audit_creation_method	'MofGen! by Chris Wilmer'
_symmetry_space_group_name_H-M	'P1'
_symmetry_Int_Tables_number	1
_symmetry_cell_setting	triclinic
loop_
_symmetry_equiv_pos_as_xyz
  x,y,z
_cell_length_a	15.944551
_cell_length_b	9.730223
_cell_length_c	10.654550
_cell_angle_alpha	90.000193
_cell_angle_beta	96.008179
_cell_angle_gamma	90.004286
loop_
_atom_site_label
_atom_site_type_symbol
_atom_site_fract_x
_atom_site_fract_y
_atom_site_fract_z
O1	O	1.115457	-0.114143	-0.161961
O2	O	0.871023	-0.114177	-0.181930
O3	O	0.998860	-0.114154	0.010867
O4	O	0.987620	-0.114166	-0.354757
O5	O	0.998858	0.114426	0.010862
O6	O	0.871021	0.114403	-0.181934
O7	O	1.115455	0.114437	-0.161966
Zn8	Zn	0.993238	0.150712	-0.171951
Zn9	Zn	0.993240	-0.150452	-0.171944
O10	O	0.987618	0.114414	-0.354762
C11	C	0.839723	0.000109	-0.181103
C12	C	0.746463	0.000096	-0.178618
N13	N	0.993243	0.356249	-0.171954
N14	N	0.993242	-0.355988	-0.171931
C15	C	0.530880	0.000127	-0.053173
C16	C	0.470198	-0.112577	-0.111423
C17	C	0.575711	0.000112	-0.174122
C18	C	0.470219	0.112785	-0.111456
C19	C	0.410773	0.000134	-0.169770
C20	C	0.516257	-0.112684	-0.232405
C21	C	0.516284	0.112779	-0.232421
C22	C	0.455620	0.000047	-0.290759
C23	C	0.670728	0.000099	-0.176625
C24	C	0.315757	0.000138	-0.167276
C25	C	1.146755	0.000148	-0.162792
C26	C	1.240015	0.000152	-0.165278
C27	C	0.998034	0.000134	0.057652
C28	C	0.995565	0.000129	0.197063
C29	C	1.049864	0.428185	-0.086613
C30	C	1.049862	0.572068	-0.086598
C31	C	0.936615	0.572066	-0.257276
C32	C	0.936614	0.428185	-0.257285
C33	C	1.115248	0.428187	0.011924
C34	C	1.115246	0.572070	0.011939
C35	C	0.988444	0.000123	-0.401547
C36	C	0.990913	0.000119	-0.540958
C37	C	1.070833	0.000144	0.277522
C38	C	1.068508	0.000134	0.408513
C39	C	0.915639	0.000100	0.378572
C40	C	0.917965	0.000101	0.247584
C41	C	1.159090	0.000169	0.294810
C42	C	1.156765	0.000159	0.425801
H43	H	0.563632	-0.000009	0.047204
N44	N	0.875535	0.350611	-0.349330
H45	H	0.907945	0.290921	-0.404979
H46	H	0.838083	0.290990	-0.301213
N47	N	1.196025	0.369062	-0.027539
H48	H	1.203880	0.401093	-0.115716
H49	H	1.245191	0.401105	0.032842
H50	H	1.179794	0.611129	-0.008744
N51	N	0.443215	0.239001	-0.043689
H52	H	0.413579	0.210255	0.031367
H53	H	0.494503	0.295782	-0.013961
H54	H	1.193612	-0.095480	0.265901
N55	N	1.088242	0.631185	0.132432
H56	H	1.075194	0.553922	0.190641
H57	H	1.135243	0.689629	0.175068
N58	N	0.875536	0.649655	-0.349304
H59	H	0.884125	0.751719	-0.336348
H60	H	0.885751	0.624517	-0.438409
H61	H	0.856674	0.000070	0.182077
N62	N	1.096256	0.376444	0.139541
H63	H	1.039076	0.410997	0.157935
H64	H	1.096299	0.272648	0.139497
H65	H	0.536711	0.208063	-0.283537
N66	N	0.443162	-0.238778	-0.043657
H67	H	0.379851	-0.238291	-0.043202
H68	H	0.460776	-0.323834	-0.088481
N69	N	0.543115	-0.239039	-0.300113
H70	H	0.606367	-0.238289	-0.301337
H71	H	0.525907	-0.323987	-0.254734
H72	H	1.183439	-0.098532	0.471791
N73	N	0.831946	0.000068	0.433063
H74	H	0.841892	0.000066	0.528253
H75	H	0.798973	0.084800	0.403633
N76	N	0.412459	-0.000030	-0.423850
H77	H	0.429193	-0.085197	-0.469355
H78	H	0.349317	0.000831	-0.421345
H79	H	1.187194	0.098869	0.259545
H80	H	1.190019	0.095822	0.467989
