data_functionalizedCrystal
_audit_creation_method	'MofGen! by Chris Wilmer'
_symmetry_space_group_name_H-M	'P1'
_symmetry_Int_Tables_number	1
_symmetry_cell_setting	triclinic
loop_
_symmetry_equiv_pos_as_xyz
  x,y,z
_cell_length_a	10.686220
_cell_length_b	19.120786
_cell_length_c	10.686551
_cell_angle_alpha	96.651844
_cell_angle_beta	89.691918
_cell_angle_gamma	97.023231
loop_
_atom_site_label
_atom_site_type_symbol
_atom_site_fract_x
_atom_site_fract_y
_atom_site_fract_z
Zn1	Zn	1.958087	-0.172367	0.550230
Zn2	Zn	1.931315	-0.300335	0.331447
Zn3	Zn	1.730716	-0.190454	0.355272
Zn4	Zn	1.737864	-0.298902	0.557326
O5	O	1.839496	-0.240515	0.448569
O6	O	2.130652	-0.182373	0.508268
O7	O	1.890510	-0.293928	0.158486
O8	O	1.769090	-0.089113	0.388135
O9	O	2.110983	-0.276390	0.347529
O10	O	1.936139	-0.075826	0.531370
O11	O	1.743130	-0.213198	0.175990
O12	O	1.555548	-0.211809	0.395016
O13	O	1.781272	-0.273948	0.732506
O14	O	1.560799	-0.291486	0.543463
O15	O	1.943070	-0.180984	0.727293
O16	O	1.897441	-0.399086	0.354409
O17	O	1.755313	-0.398033	0.520361
C18	C	1.512509	-0.253455	0.472596
C19	C	1.372623	-0.259007	0.482903
C20	C	1.824284	-0.424211	0.435595
C21	C	1.817895	-0.502791	0.430078
C22	C	1.901812	-0.532729	0.502131
C23	C	1.895804	-0.606563	0.496949
C24	C	1.805883	-0.650458	0.419708
C25	C	1.721958	-0.620516	0.347653
C26	C	1.727961	-0.546683	0.352842
C27	C	1.783404	-0.873735	0.400313
C28	C	1.777409	-0.947573	0.395127
C29	C	1.951255	-0.933615	0.544426
C30	C	1.957255	-0.859781	0.549602
C31	C	1.873325	-0.829845	0.477552
C32	C	1.799742	-0.725929	0.414407
C33	C	1.879461	-0.754376	0.482861
C34	C	2.167759	-0.227524	0.424449
C35	C	2.307646	-0.221988	0.414171
C36	C	1.865955	-0.225289	0.776843
C37	C	1.877230	-0.218801	0.916734
C38	C	1.854803	-0.056098	0.461619
C39	C	1.861326	0.022490	0.467180
C40	C	1.813216	-0.255627	0.121570
C41	C	1.802201	-0.261907	-0.018324
H42	H	1.975039	-0.496993	0.565023
C43	C	1.975673	-0.162234	0.986195
C44	C	2.116835	-0.163165	0.957316
C45	C	2.215275	-0.106599	1.026777
C46	C	2.172554	-0.049102	1.125117
C47	C	2.031385	-0.048169	1.154000
C48	C	1.932944	-0.104735	1.084539
H49	H	2.148466	-0.205729	0.884515
H50	H	2.319778	-0.107290	1.005395
H51	H	2.245425	-0.007229	1.176536
H52	H	1.999753	-0.005605	1.226801
H53	H	1.828441	-0.104044	1.105921
C54	C	2.043565	-0.966544	0.623689
C55	C	2.045532	-0.950141	0.768235
C56	C	2.137844	-0.983069	0.847507
C57	C	2.228187	-1.032401	0.782233
C58	C	2.226222	-1.048807	0.637680
C59	C	2.133911	-1.015878	0.558408
H60	H	1.978652	-0.913620	0.816561
H61	H	2.139297	-0.970924	0.954515
H62	H	2.296521	-1.056776	0.840915
H63	H	2.293103	-1.085327	0.589353
H64	H	2.132457	-1.028024	0.451399
H65	H	1.359032	-0.186049	0.347440
C66	C	1.691105	-0.840807	0.321042
C67	C	1.600758	-0.791474	0.386308
C68	C	1.508463	-0.758540	0.307027
C69	C	1.506515	-0.774939	0.162481
C70	C	1.596865	-0.824273	0.097207
C71	C	1.689160	-0.857207	0.176488
H72	H	1.602198	-0.779333	0.493317
H73	H	1.441580	-0.722019	0.355348
H74	H	1.438192	-0.750559	0.103793
H75	H	1.595425	-0.836414	-0.009801
H76	H	1.756043	-0.893728	0.128168
H77	H	1.964147	-0.630934	0.555612
C78	C	1.303208	-0.307567	0.573055
C79	C	1.158630	-0.313245	0.583587
C80	C	1.089215	-0.361804	0.673737
C81	C	1.164377	-0.404686	0.753356
C82	C	1.308963	-0.399009	0.742827
C83	C	1.378378	-0.350450	0.652677
H84	H	1.102983	-0.281500	0.524646
H85	H	0.982182	-0.366006	0.681531
H86	H	1.112992	-0.440632	0.820091
H87	H	1.364610	-0.430754	0.801768
H88	H	1.485411	-0.346248	0.644883
H89	H	1.729343	-0.303777	0.930256
C90	C	1.678497	-0.995864	0.310155
C91	C	1.678174	-0.991960	0.167035
C92	C	1.579275	-1.040253	0.082062
C93	C	1.480699	-1.092449	0.140209
C94	C	1.481019	-1.096355	0.283336
C95	C	1.579918	-1.048062	0.368309
H96	H	1.751148	-0.953319	0.123985
H97	H	1.579039	-1.037361	-0.023890
H98	H	1.407489	-1.128198	0.077307
H99	H	1.408044	-1.134996	0.326387
H100	H	1.580154	-1.050954	0.474262
C101	C	2.056158	-0.811503	0.634591
C102	C	2.197603	-0.816391	0.613236
C103	C	2.296508	-0.768115	0.698228
C104	C	2.253967	-0.714952	0.804576
C105	C	2.112514	-0.710062	0.825935
C106	C	2.013610	-0.758338	0.740943
H107	H	2.229101	-0.855747	0.534507
H108	H	2.401220	-0.771735	0.682416
H109	H	2.327181	-0.679215	0.867492
H110	H	2.081017	-0.670706	0.904664
H111	H	1.908897	-0.754718	0.756755
C112	C	1.635653	-0.513749	0.273579
C113	C	1.536744	-0.562029	0.188611
C114	C	1.444429	-0.529095	0.109351
C115	C	1.451024	-0.447882	0.115060
C116	C	1.549937	-0.399598	0.200031
C117	C	1.642252	-0.432531	0.279291
H118	H	1.531859	-0.622152	0.184383
H119	H	1.371207	-0.564839	0.046450
H120	H	1.382687	-0.423503	0.056387
H121	H	1.554823	-0.339475	0.204260
H122	H	1.715474	-0.396787	0.342193
C123	C	1.978373	-0.706093	0.567821
C124	C	2.119816	-0.710975	0.546435
C125	C	2.218734	-0.662685	0.631390
C126	C	2.176208	-0.609513	0.737731
C127	C	2.034759	-0.604629	0.759122
C128	C	1.935841	-0.652919	0.674167
H129	H	2.151302	-0.750338	0.467711
H130	H	2.323444	-0.666301	0.615554
H131	H	2.249433	-0.573766	0.800620
H132	H	2.003273	-0.565265	0.837846
H133	H	1.831131	-0.649303	0.690003
H134	H	1.648738	-0.656261	0.284767
H135	H	1.726532	-0.761677	0.351513
