data_functionalizedCrystal
_audit_creation_method	'MofGen! by Chris Wilmer'
_symmetry_space_group_name_H-M	'P1'
_symmetry_Int_Tables_number	1
_symmetry_cell_setting	triclinic
loop_
_symmetry_equiv_pos_as_xyz
  x,y,z
_cell_length_a	19.188905
_cell_length_b	19.188930
_cell_length_c	13.930277
_cell_angle_alpha	89.990320
_cell_angle_beta	89.985661
_cell_angle_gamma	83.139668
loop_
_atom_site_label
_atom_site_type_symbol
_atom_site_fract_x
_atom_site_fract_y
_atom_site_fract_z
O1	O	0.926159	0.087084	-0.080000
O2	O	0.722845	0.098836	-0.079968
O3	O	0.830369	-0.008696	-0.079966
O4	O	0.818635	0.194616	-0.080002
O5	O	0.830354	-0.008698	0.079696
O6	O	0.722830	0.098834	0.079693
O7	O	0.926144	0.087082	0.079662
Zn8	Zn	0.824485	0.092958	0.105028
Zn9	Zn	0.824504	0.092960	-0.105334
O10	O	0.818620	0.194614	0.079660
C11	C	0.696826	0.098458	-0.000133
C12	C	0.619321	0.097324	-0.000120
C13	C	0.829982	-0.034708	-0.000132
C14	C	0.828841	-0.112213	-0.000124
C15	C	0.582937	0.096781	-0.087154
C16	C	0.510113	0.095708	-0.087166
C17	C	0.473678	0.095164	-0.000139
C18	C	0.510070	0.095711	0.086907
C19	C	0.582891	0.096791	0.086916
N20	N	0.364652	0.053734	0.064634
N21	N	0.295475	0.052707	0.064620
C22	C	0.254272	0.091911	-0.000162
N23	N	0.284860	0.132173	-0.064942
N24	N	0.354043	0.133198	-0.064930
C25	C	0.394716	0.093993	-0.000139
C26	C	0.138924	0.090205	-0.087214
C27	C	0.066098	0.089137	-0.087223
C28	C	0.066058	0.089133	0.086853
C29	C	0.138881	0.090209	0.086859
C30	C	0.175310	0.090742	-0.000178
C31	C	0.891933	-0.157142	-0.000129
C32	C	0.890861	-0.229966	-0.000144
C33	C	0.826694	-0.257857	-0.000135
C34	C	0.763594	-0.212917	-0.000135
C35	C	0.764668	-0.140095	-0.000130
N36	N	0.777641	-0.365858	0.054208
N37	N	0.776626	-0.435037	0.054205
C38	C	0.823456	-0.477265	-0.000154
N39	N	0.871351	-0.447703	-0.054498
N40	N	0.872368	-0.378518	-0.054490
C41	C	0.825523	-0.336819	-0.000142
C42	C	0.885390	-0.601159	-0.000177
C43	C	0.884315	-0.673984	-0.000198
C44	C	0.757047	-0.656933	-0.000180
C45	C	0.758123	-0.584110	-0.000168
C46	C	0.822296	-0.556228	-0.000162
C47	C	0.952163	0.087460	-0.000175
C48	C	1.029668	0.088594	-0.000194
C49	C	0.819007	0.220626	-0.000176
C50	C	0.820148	0.298131	-0.000191
N51	N	0.824476	0.092955	0.248594
N52	N	0.824518	0.092957	-0.248900
C53	C	0.776891	0.140557	0.700862
C54	C	0.872137	0.045358	0.700833
C55	C	0.872129	0.045356	0.600338
C56	C	0.824501	0.092956	0.550099
C57	C	0.776882	0.140558	0.600357
C58	C	0.919751	-0.002240	0.550072
C59	C	0.919746	-0.002244	0.449571
C60	C	0.872114	0.045353	0.399331
C61	C	0.824493	0.092957	0.449594
C62	C	0.776866	0.140556	0.399356
C63	C	0.729241	0.188157	0.449618
C64	C	0.729251	0.188155	0.550117
C65	C	0.872104	0.045355	0.298832
C66	C	0.776857	0.140557	0.298851
H67	H	0.612593	0.097214	-0.158026
C68	C	0.953725	-0.723407	-0.000199
N69	N	1.006006	-0.760634	-0.000195
H70	H	0.480484	0.095266	-0.158042
C71	C	0.676853	0.240516	0.394343
N72	N	0.637395	0.279951	0.352706
C73	C	0.469990	0.095112	0.182637
N74	N	0.439802	0.094663	0.254744
H75	H	0.711349	-0.235631	-0.000130
H76	H	0.713289	-0.103513	-0.000125
C77	C	0.025983	0.088536	0.182585
N78	N	-0.004205	0.088088	0.254692
H79	H	0.036476	0.088698	-0.158099
C80	C	0.622915	0.097383	0.182665
N81	N	0.653063	0.097826	0.254784
H82	H	0.937644	-0.578456	-0.000177
H83	H	0.690477	0.226910	0.591046
C84	C	0.724501	0.192911	0.756150
N85	N	0.685039	0.232343	0.797794
C86	C	0.960269	-0.279398	-0.000144
N87	N	1.012548	-0.316627	-0.000141
H88	H	0.910882	0.006603	0.257913
H89	H	0.704801	-0.679641	-0.000177
C90	C	0.178997	0.090804	-0.182955
N91	N	0.209178	0.091257	-0.255068
H92	H	0.706747	-0.547527	-0.000159
C93	C	0.178906	0.090797	0.182604
N94	N	0.209052	0.091240	0.254725
C95	C	0.962525	-0.126476	-0.000131
N96	N	1.015696	-0.103377	-0.000135
C97	C	0.724480	0.192940	0.243597
N98	N	0.685036	0.232401	0.201981
H99	H	0.910917	0.006607	0.741740
H100	H	0.958532	-0.040991	0.590980
C101	C	0.972128	-0.054611	0.394292
N102	N	1.011581	-0.094056	0.352655
